#------------------------------------------------------------------------------
#$Date: 2017-12-04 02:22:39 +0200 (Mon, 04 Dec 2017) $
#$Revision: 203922 $
#$URL: file:///home/coder/svn-repositories/cod/cif/4/51/43/4514309.cif $
#------------------------------------------------------------------------------
#
# This file is available in the Crystallography Open Database (COD),
# http://www.crystallography.net/
#
# All data on this site have been placed in the public domain by the
# contributors.
#
data_4514309
loop_
_publ_author_name
'Hu, Shuzhi'
'Zhang, Jie'
'Chen, Shuhuang'
'Dai, Jingcao'
'Fu, Zhiyong'
_publ_section_title
;
 Efficient Ultraviolet Light Detector Based on a Crystalline
 Viologen-Based Metal-Organic Framework with Rapid Visible Color Change
 under Irradiation.
;
_journal_issue                   46
_journal_name_full               'ACS applied materials &amp; interfaces'
_journal_page_first              39926
_journal_page_last               39929
_journal_paper_doi               10.1021/acsami.7b13367
_journal_volume                  9
_journal_year                    2017
_chemical_formula_sum            'C26 H16 N2 O8 Zn'
_chemical_formula_weight         549.78
_space_group_crystal_system      monoclinic
_space_group_IT_number           14
_space_group_name_Hall           '-P 2ybc'
_space_group_name_H-M_alt        'P 1 21/c 1'
_symmetry_space_group_name_Hall  '-P 2ybc'
_symmetry_space_group_name_H-M   'P 1 21/c 1'
_atom_sites_solution_hydrogens   geom
_audit_creation_method           SHELXL-2014/7
_cell_angle_alpha                90
_cell_angle_beta                 104.50(3)
_cell_angle_gamma                90
_cell_formula_units_Z            4
_cell_length_a                   10.100(2)
_cell_length_b                   15.200(3)
_cell_length_c                   14.300(3)
_cell_measurement_reflns_used    13663
_cell_measurement_temperature    298(2)
_cell_measurement_theta_max      54.86
_cell_measurement_theta_min      6.08
_cell_volume                     2125.4(8)
_computing_structure_refinement  'SHELXL-2014/7 (Sheldrick, 2014)'
_diffrn_ambient_temperature      298(2)
_diffrn_measured_fraction_theta_full 0.985
_diffrn_measured_fraction_theta_max 0.968
_diffrn_measurement_device_type  'Rigaku R-Axis SPIDER CCD'
_diffrn_measurement_method
'&#x00A6;&#x00D8;- and &#x00A6;&#x00D5;-scans'
_diffrn_radiation_type           MoK\a
_diffrn_radiation_wavelength     0.71073
_diffrn_reflns_av_R_equivalents  0.0411
_diffrn_reflns_av_unetI/netI     0.0386
_diffrn_reflns_Laue_measured_fraction_full 0.985
_diffrn_reflns_Laue_measured_fraction_max 0.968
_diffrn_reflns_limit_h_max       13
_diffrn_reflns_limit_h_min       -12
_diffrn_reflns_limit_k_max       17
_diffrn_reflns_limit_k_min       -19
_diffrn_reflns_limit_l_max       18
_diffrn_reflns_limit_l_min       -18
_diffrn_reflns_number            19807
_diffrn_reflns_point_group_measured_fraction_full 0.985
_diffrn_reflns_point_group_measured_fraction_max 0.968
_diffrn_reflns_theta_full        25.242
_diffrn_reflns_theta_max         27.618
_diffrn_reflns_theta_min         3.058
_exptl_absorpt_coefficient_mu    1.217
_exptl_absorpt_correction_T_max  1.0000
_exptl_absorpt_correction_T_min  0.6927
_exptl_absorpt_correction_type   multi-scan
_exptl_absorpt_process_details   'SADABS (Sheldrick,1996)'
_exptl_crystal_colour            colorless
_exptl_crystal_density_diffrn    1.718
_exptl_crystal_density_meas      ?
_exptl_crystal_description       block
_exptl_crystal_F_000             1120
_exptl_crystal_size_max          0.33
_exptl_crystal_size_mid          0.28
_exptl_crystal_size_min          0.24
_refine_diff_density_max         0.756
_refine_diff_density_min         -1.090
_refine_diff_density_rms         0.103
_refine_ls_extinction_method     none
_refine_ls_goodness_of_fit_ref   1.064
_refine_ls_hydrogen_treatment    constr
_refine_ls_matrix_type           full
_refine_ls_number_parameters     335
_refine_ls_number_reflns         4779
_refine_ls_number_restraints     0
_refine_ls_restrained_S_all      1.064
_refine_ls_R_factor_all          0.0744
_refine_ls_R_factor_gt           0.0450
_refine_ls_shift/su_max          0.001
_refine_ls_shift/su_mean         0.000
_refine_ls_structure_factor_coef Fsqd
_refine_ls_weighting_details
'w=1/[\s^2^(Fo^2^)+(0.0608P)^2^+3.5015P] where P=(Fo^2^+2Fc^2^)/3'
_refine_ls_weighting_scheme      calc
_refine_ls_wR_factor_gt          0.1073
_refine_ls_wR_factor_ref         0.1413
_reflns_Friedel_coverage         0.000
_reflns_number_gt                3423
_reflns_number_total             4779
_reflns_threshold_expression     'I > 2\s(I)'
_cod_data_source_file            am7b13367_si_002.cif
_cod_data_source_block           shelxl
_cod_depositor_comments
;
The following automatic conversions were performed:

'_exptl_crystal_density_meas' value 'none' was changed to '?' - the
value is perceived as not measured.

Automatic conversion script
Id: cif_fix_values 4973 2017-02-22 13:04:09Z antanas 
;
_cod_database_code               4514309
_shelx_shelxl_version_number     2014/7
_shelx_space_group_comment
;
The symmetry employed for this shelxl refinement is uniquely defined
by the following loop, which should always be used as a source of
symmetry information in preference to the above space-group names.
They are only intended as comments.
;
_shelx_res_file
;

    shelxl.res created by SHELXL-2014/7

TITL
CELL 0.71073 10.1 15.2 14.3 90 104.5 90
ZERR 4 0.002 0.003 0.0029 0 0.03 0
LATT 1
SYMM -X,0.5+Y,0.5-Z
SFAC C  H  N  O  Zn
UNIT 104  64  8  32  4
L.S. 15
ACTA
BOND $H
FMAP 2
PLAN 4
HTAB C9 O2_$3
HTAB C8 O7_$6
HTAB C7 O1_$5
HTAB C5 O5_$4
HTAB C2 O4_$3
HTAB C1 O4_$2
HTAB O8 O2_$1
HTAB C9 O2_$3
HTAB C8 O7_$6
HTAB C7 O1_$5
HTAB C5 O5_$4
HTAB C2 O4_$3
HTAB C1 O4_$2
HTAB O8 O2_$1
HTAB C9 O2_$3
HTAB C8 O7_$6
HTAB C7 O1_$5
HTAB C5 O5_$4
HTAB C2 O4_$3
HTAB C1 O4_$2
HTAB O8 O2_$1
HTAB C9 O2_$3
HTAB C8 O7_$6
HTAB C7 O1_$5
HTAB C5 O5_$4
HTAB C2 O4_$3
HTAB C1 O4_$2
HTAB O8 O2_$1
HTAB C9 O2_$3
HTAB C8 O7_$6
HTAB C7 O1_$5
HTAB C5 O5_$4
HTAB C2 O4_$3
HTAB C1 O4_$2
HTAB O8 O2_$1
HTAB C9 O2_$3
HTAB C8 O7_$6
HTAB C7 O1_$5
HTAB C5 O5_$4
HTAB C2 O4_$3
HTAB C1 O4_$2
HTAB O8 O2_$1
HTAB C9 O2_$3
HTAB C8 O7_$6
HTAB C7 O1_$5
HTAB C5 O5_$4
HTAB C2 O4_$3
HTAB C1 O4_$2
HTAB O8 O2_$1
HTAB C9 O2_$3
HTAB C8 O7_$6
HTAB C7 O1_$5
HTAB C5 O5_$4
HTAB C2 O4_$3
HTAB C1 O4_$2
HTAB O8 O2_$1
HTAB C9 O2_$3
HTAB C8 O7_$6
HTAB C7 O1_$5
HTAB C5 O5_$4
HTAB C2 O4_$3
HTAB C1 O4_$2
HTAB O8 O2_$1
HTAB C9 O2_$3
HTAB C8 O7_$6
HTAB C7 O1_$5
HTAB C5 O5_$4
HTAB C2 O4_$3
HTAB C1 O4_$2
HTAB O8 O2_$1
MORE -1
CONF
HTAB
EQIV $1 -x+1, -y+2, -z+1
HTAB O8 O2_$1
EQIV $2 x, -y+1/2, z+1/2
HTAB C1 O4_$2
EQIV $3 -x+1, y-1/2, -z+3/2
HTAB C2 O4_$3
EQIV $4 x+1, -y+1/2, z+1/2
HTAB C5 O5_$4
EQIV $5 -x+2, y-1/2, -z+3/2
HTAB C7 O1_$5
EQIV $6 x+1, -y+3/2, z+1/2
HTAB C8 O7_$6
HTAB C9 O2_$3
HTAB O8 O2_$1
HTAB C1 O4_$2
HTAB C2 O4_$3
HTAB C5 O5_$4
HTAB C7 O1_$5
HTAB C8 O7_$6
HTAB C9 O2_$3
HTAB O8 O2_$1
HTAB C1 O4_$2
HTAB C2 O4_$3
HTAB C5 O5_$4
HTAB C7 O1_$5
HTAB C8 O7_$6
HTAB C9 O2_$3
HTAB O8 O2_$1
HTAB C1 O4_$2
HTAB C2 O4_$3
HTAB C5 O5_$4
HTAB C7 O1_$5
HTAB C8 O7_$6
HTAB C9 O2_$3
HTAB O8 O2_$1
HTAB C1 O4_$2
HTAB C2 O4_$3
HTAB C5 O5_$4
HTAB C7 O1_$5
HTAB C8 O7_$6
HTAB C9 O2_$3
HTAB O8 O2_$1
HTAB C1 O4_$2
HTAB C2 O4_$3
HTAB C5 O5_$4
HTAB C7 O1_$5
HTAB C8 O7_$6
HTAB C9 O2_$3
HTAB O8 O2_$1
HTAB C1 O4_$2
HTAB C2 O4_$3
HTAB C5 O5_$4
HTAB C7 O1_$5
HTAB C8 O7_$6
HTAB C9 O2_$3
HTAB O8 O2_$1
HTAB C1 O4_$2
HTAB C2 O4_$3
HTAB C5 O5_$4
HTAB C7 O1_$5
HTAB C8 O7_$6
HTAB C9 O2_$3
HTAB O8 O2_$1
HTAB C1 O4_$2
HTAB C2 O4_$3
HTAB C5 O5_$4
HTAB C7 O1_$5
HTAB C8 O7_$6
HTAB C9 O2_$3
HTAB O8 O2_$1
HTAB C1 O4_$2
HTAB C2 O4_$3
HTAB C5 O5_$4
HTAB C7 O1_$5
HTAB C8 O7_$6
HTAB C9 O2_$3
WGHT    0.060800    3.501500
FVAR       0.22912
ZN1   5    0.756665    0.732399    0.461475    11.00000    0.02924    0.02249 =
         0.05381    0.00406    0.01560    0.00296
O1    4    0.819381    0.706082    0.599711    11.00000    0.03302    0.03669 =
         0.05566    0.00734    0.01613   -0.00155
O2    4    0.701429    0.749619    0.702925    11.00000    0.05327    0.02478 =
         0.07310    0.00324    0.03039    0.00133
O3    4    0.596088    0.808980    0.429890    11.00000    0.03228    0.04631 =
         0.05562    0.01218    0.02093    0.01103
O4    4    0.504109    0.702607    0.496222    11.00000    0.05067    0.03218 =
         0.07868    0.01397    0.02775    0.01358
O5    4    0.027916    0.690129    0.463493    11.00000    0.04668    0.04860 =
         0.08082    0.00015    0.01861   -0.01316
O6    4   -0.104569    0.806066    0.430526    11.00000    0.03425    0.06758 =
         0.06515    0.01835    0.01792   -0.00329
O7    4    0.104946    1.084612    0.351488    11.00000    0.04921    0.04199 =
         0.10695    0.01296    0.02352    0.01928
O8    4    0.329123    1.090114    0.369575    11.00000    0.04975    0.03010 =
         0.07608    0.00728    0.01281    0.00427
AFIX 147
H8A   2    0.311511    1.139450    0.346636    11.00000   -1.50000
AFIX   0
N1    3    0.741814    0.336542    0.780271    11.00000    0.03538    0.02249 =
         0.04251    0.00206    0.01197   -0.00023
N2    3    0.726795   -0.106831    0.902129    11.00000    0.03671    0.02304 =
         0.05181    0.00081    0.01579   -0.00002
C1    1    0.633730   -0.050649    0.919474    11.00000    0.03575    0.03046 =
         0.06643    0.00508    0.02230    0.00162
AFIX  43
H1    2    0.567517   -0.072154    0.948472    11.00000   -1.20000
AFIX   0
C2    1    0.631173    0.036522    0.896747    11.00000    0.03955    0.02791 =
         0.06088    0.00316    0.02405    0.00292
AFIX  43
H2    2    0.563587    0.072934    0.909202    11.00000   -1.20000
AFIX   0
C3    1    0.729462    0.070267    0.855192    11.00000    0.02972    0.02431 =
         0.04042   -0.00057    0.00781   -0.00107
C4    1    0.823660    0.012299    0.835997    11.00000    0.03891    0.03428 =
         0.05996    0.00793    0.02423    0.00217
AFIX  43
H4    2    0.890906    0.032118    0.807008    11.00000   -1.20000
AFIX   0
C5    1    0.818378   -0.074410    0.859542    11.00000    0.04665    0.02919 =
         0.06204    0.00521    0.02669    0.00705
AFIX  43
H5    2    0.882294   -0.112605    0.844939    11.00000   -1.20000
AFIX   0
C6    1    0.733187    0.163620    0.829308    11.00000    0.03200    0.02511 =
         0.03844   -0.00297    0.01088   -0.00172
C7    1    0.854388    0.203123    0.825548    11.00000    0.02748    0.02960 =
         0.05237    0.00474    0.00807    0.00079
AFIX  43
H7    2    0.934742    0.170393    0.839513    11.00000   -1.20000
AFIX   0
C8    1    0.857778    0.289193    0.801710    11.00000    0.03052    0.02992 =
         0.05516    0.00174    0.00970   -0.00409
AFIX  43
H8    2    0.940356    0.315487    0.800189    11.00000   -1.20000
AFIX   0
C9    1    0.615464    0.214569    0.808572    11.00000    0.02946    0.03011 =
         0.05174    0.00222    0.01181   -0.00377
AFIX  43
H9    2    0.532232    0.190026    0.811455    11.00000   -1.20000
AFIX   0
C10   1    0.622336    0.300188    0.784121    11.00000    0.03066    0.02905 =
         0.05051    0.00253    0.01227    0.00165
AFIX  43
H10   2    0.543262    0.334185    0.769828    11.00000   -1.20000
AFIX   0
C11   1    0.746918    0.427503    0.752351    11.00000    0.03786    0.02113 =
         0.04538    0.00376    0.01137   -0.00036
C12   1    0.693964    0.491401    0.800698    11.00000    0.04814    0.02963 =
         0.04411    0.00104    0.02033    0.00034
AFIX  43
H12   2    0.655258    0.476635    0.851148    11.00000   -1.20000
AFIX   0
C13   1    0.699518    0.577011    0.772937    11.00000    0.04332    0.02596 =
         0.04311   -0.00535    0.01713   -0.00040
AFIX  43
H13   2    0.664514    0.620988    0.805108    11.00000   -1.20000
AFIX   0
C14   1    0.755615    0.598943    0.698765    11.00000    0.03324    0.02377 =
         0.03653    0.00272    0.01043   -0.00026
C15   1    0.809220    0.533529    0.651424    11.00000    0.03869    0.03177 =
         0.04649    0.00432    0.01774    0.00155
AFIX  43
H15   2    0.848370    0.548448    0.601239    11.00000   -1.20000
AFIX   0
C16   1    0.805060    0.447343    0.677823    11.00000    0.04455    0.02841 =
         0.04938    0.00021    0.02263    0.00583
AFIX  43
H16   2    0.840684    0.403292    0.646127    11.00000   -1.20000
AFIX   0
C17   1    0.758219    0.692498    0.666039    11.00000    0.02956    0.02723 =
         0.04548    0.00450    0.00844   -0.00043
C18   1    0.369042    0.826901    0.443111    11.00000    0.02502    0.02825 =
         0.03820    0.00272    0.01068    0.00253
C19   1    0.253300    0.782952    0.451641    11.00000    0.03419    0.03002 =
         0.03328    0.00253    0.01240   -0.00449
AFIX  43
H19   2    0.259524    0.723560    0.467775    11.00000   -1.20000
AFIX   0
C20   1    0.129168    0.824418    0.436984    11.00000    0.03013    0.04820 =
         0.04287    0.00398    0.01323   -0.00335
C21   1    0.120108    0.911942    0.414160    11.00000    0.02858    0.05250 =
         0.04419    0.00029    0.01196    0.01082
AFIX  43
H21   2    0.036615    0.940811    0.404720    11.00000   -1.20000
AFIX   0
C22   1    0.236307    0.958426    0.404910    11.00000    0.03751    0.02966 =
         0.04515    0.00356    0.01025    0.00840
C23   1    0.360985    0.915024    0.419442    11.00000    0.02896    0.02687 =
         0.04378    0.00295    0.01439   -0.00123
AFIX  43
H23   2    0.438420    0.945219    0.413243    11.00000   -1.20000
AFIX   0
C24   1    0.498618    0.774584    0.458447    11.00000    0.03117    0.03181 =
         0.03770    0.00340    0.00874    0.00602
C25   1    0.007355    0.768247    0.444745    11.00000    0.03515    0.04530 =
         0.04306    0.00172    0.00703    0.00085
C26   1    0.216520    1.051125    0.374436    11.00000    0.03971    0.03629 =
         0.05998    0.00146    0.01288    0.00442
HKLF 4

REM
REM R1 =  0.0450 for    3423 Fo > 4sig(Fo)  and  0.0744 for all    4779 data
REM    335 parameters refined using      0 restraints

END

WGHT      0.0582      2.6721

REM Instructions for potential hydrogen bonds
HTAB O8 O2_$1
HTAB C1 O4_$2
HTAB C2 O4_$3
HTAB C5 O5_$4
HTAB C7 O1_$5
HTAB C8 O7_$6
HTAB C9 O2_$3

REM Highest difference peak  0.756,  deepest hole -1.090,  1-sigma level  0.103
Q1    1   0.2002  1.1196  0.3556  11.00000  0.05    0.76
Q2    1   0.4252  1.0832  0.3580  11.00000  0.05    0.74
Q3    1   0.7517  0.7349  0.3632  11.00000  0.05    0.69
Q4    1   0.7568  0.7170  0.5605  11.00000  0.05    0.67
;
_shelx_res_checksum              55914
_shelx_hkl_file
;
   0   0   3   -0.12    0.67
   0   0  -3   -0.46    0.64
   0   0   4  109.48    5.18
   0   0  -4  107.59    3.05
   0   0   5   -0.23    0.97
   0   0  -5    0.05    1.45
   0   0   6    9.14    1.62
   0   0  -6   10.50    1.43
   0   0   7    1.21    1.95
   0   0  -7    0.48    0.99
   0   0   8  438.86    9.00
   0   0  -8  469.23   11.00
   0   0   9   -0.27    0.95
   0   0  -9    0.16    0.76
   0   0  10   58.28    6.06
   0   0 -10   63.70    3.11
   0   0  11   -0.98    1.61
   0   0 -11    3.95    2.25
   0   0  12   41.40    3.45
   0   0 -12   38.17    2.87
   0   0 -13   -0.06    1.13
   0   0  14    8.84    2.54
   0   0  15   -0.19    1.81
   0   0 -15    0.69    1.49
   0   0  17   -0.09    1.68
   0  -1   2   41.94    1.67
   0   1   2   42.84    1.12
   0   1  -2   42.71    1.18
   0  -1  -2   41.85    1.17
   0  -1   3   76.56    3.03
   0   1   3   76.08    2.12
   0  -1  -3   75.31    2.24
   0   1  -3   75.83    2.92
   0  -1   4 6717.65  136.42
   0   1   4 6836.92  137.41
   0   1  -4 6832.07  139.01
   0  -1  -4 6891.63  139.58
   0  -1   5   38.45    3.68
   0   1   5   42.52    2.41
   0   1  -5   40.31    1.93
   0  -1  -5   41.10    2.43
   0   1   6  706.11   12.42
   0  -1   6  721.19   12.80
   0  -1  -6  735.64   13.02
   0   1  -6  713.90   12.52
   0   1   7  159.15    4.20
   0  -1   7  158.35    4.37
   0  -1  -7  168.86    6.10
   0   1  -7  162.91    3.95
   0   1   8  307.06    6.77
   0  -1   8  323.45    7.17
   0   1  -8  314.92    6.62
   0  -1  -8  322.34    7.01
   0   1   9   30.16    4.60
   0  -1   9   32.87    2.83
   0   1  -9   34.48    2.26
   0  -1  -9   33.73    2.48
   0  -1  10   10.33    2.43
   0   1  10    9.19    2.32
   0   1 -10   11.85    1.83
   0  -1 -10   11.23    2.05
   0  -1  11   14.80    2.72
   0   1  11   15.16    2.59
   0   1 -11   15.61    2.10
   0  -1  12   12.48    2.71
   0   1  12   10.18    2.62
   0  -1 -12   13.52    2.33
   0   1 -12   15.39    2.18
   0   1 -13    2.70    1.74
   0  -1  14    4.73    2.43
   0  -1 -14    7.07    2.15
   0   1  15    0.23    1.74
   0   1 -16   10.99    2.63
   0  -1 -17    3.68    2.29
   0  -2   1    7.33    0.65
   0   2   1    8.62    0.52
   0  -2  -1    7.72    0.56
   0   2  -1    6.58    0.71
   0   2   2 1703.43   26.33
   0  -2   2 1729.28   27.76
   0  -2  -2 1693.51   27.34
   0   2  -2 1703.51   28.69
   0  -2   3  251.59    5.56
   0   2   3  250.28    4.49
   0  -2  -3  249.59    4.65
   0   2  -3  247.01    4.41
   0   2   4 1796.93   30.39
   0  -2   4 1771.96   30.49
   0   2  -4 1752.96   31.80
   0  -2  -4 1845.91   31.69
   0  -2   5   39.33    3.24
   0   2   5   40.34    2.21
   0  -2  -5   40.42    2.34
   0   2  -5   38.75    1.80
   0   2   6    3.08    1.30
   0  -2   6    3.40    2.10
   0  -2  -6    3.62    1.39
   0   2  -6    3.34    1.02
   0  -2   7   17.09    1.85
   0   2   7   13.77    1.82
   0   2  -7   16.64    2.39
   0  -2  -7   15.42    1.95
   0   2   8  378.09    7.87
   0  -2   8  387.55    8.30
   0   2  -8  376.14    7.62
   0  -2  -8  398.90    8.38
   0  -2   9  147.85    5.01
   0   2   9  144.98    4.66
   0  -2  -9  151.61    4.85
   0   2  -9  146.36    5.64
   0   2  10   55.94    3.46
   0  -2  10   61.06    3.74
   0  -2 -10   60.26    3.35
   0   2 -10   55.81    4.29
   0  -2  11   42.00    3.50
   0   2  11   42.37    3.27
   0   2 -11   43.94    2.68
   0   2  12  110.05    4.72
   0  -2  12  122.99    5.17
   0  -2 -12  121.71    4.75
   0   2 -12  112.67    4.31
   0  -2  13   -0.38    1.43
   0   2  13    0.68    1.28
   0   2 -13   -0.07    1.12
   0  -2  14   23.65    3.43
   0   2 -14   30.31    2.86
   0  -2 -14   25.51    3.09
   0   2  15   -0.36    1.58
   0   2  16    0.94    1.62
   0  -2  16   -0.01    1.71
   0  -2 -16   -0.46    1.42
   0   2 -17   -1.11    1.94
   0   3   1    6.14    0.77
   0  -3   1    6.86    0.83
   0  -3  -1    6.11    0.81
   0   3  -1    5.82    0.90
   0  -3   2   70.13    1.91
   0   3   2   67.53    1.89
   0  -3  -2   67.42    1.96
   0   3  -2   68.68    1.94
   0  -3   3    3.14    1.64
   0   3   3    3.95    1.09
   0  -3  -3    4.01    1.23
   0   3  -3    4.49    0.99
   0  -3   4  753.15   12.71
   0   3   4  740.11   12.31
   0  -3  -4  745.40   12.79
   0   3  -4  736.74   12.50
   0  -3   5   71.52    2.41
   0   3   5   68.82    2.44
   0  -3  -5   71.65    2.66
   0   3  -5   68.85    2.26
   0   3   6  135.12    3.50
   0  -3   6  139.24    3.59
   0   3  -6  134.04    3.34
   0  -3  -6  144.26    3.94
   0  -3   7  150.58    4.01
   0   3   7  148.39    5.67
   0  -3  -7  155.86    4.37
   0   3  -7  147.93    3.69
   0   3   8  777.05   14.42
   0  -3   8  790.81   15.24
   0  -3  -8  805.81   18.08
   0   3  -8  787.21   14.90
   0   3   9   13.12    2.14
   0  -3   9   10.45    3.65
   0  -3  -9   14.58    2.42
   0   3  -9   11.30    1.72
   0   3  10  123.65    4.49
   0  -3  10  129.34    4.90
   0  -3 -10  130.29    4.85
   0   3 -10  128.78    4.05
   0   3  11   26.75    2.71
   0  -3  11   25.83    3.10
   0   3 -11   20.75    2.34
   0  -3  12   12.37    4.84
   0   3  12   12.21    2.43
   0  -3 -12   12.02    2.53
   0   3 -12   12.87    2.16
   0   3  13   24.58    2.87
   0  -3  13   25.97    3.29
   0   3 -13   21.89    2.65
   0  -3  14   28.40    6.64
   0   3 -14   31.63    3.00
   0  -3  15    0.08    1.69
   0   3  16   -0.33    1.74
   0  -3  16   -0.04    3.23
   0  -3  17    0.15    2.36
   0   3  17    0.69    2.15
   0   3 -17    2.01    1.94
   0  -4   1  180.90    4.65
   0  -4  -1  183.95    3.68
   0   4   2  386.77    8.07
   0  -4   2  389.65    6.72
   0  -4  -2  389.36    6.65
   0   4  -2  388.27    7.92
   0   4   3  310.46    5.61
   0  -4   3  325.64    5.89
   0  -4  -3  311.83    5.84
   0   4  -3  315.64    5.81
   0   4   4  243.05    4.70
   0  -4   4  251.33    4.92
   0  -4  -4  244.57    4.94
   0   4  -4  242.01    4.84
   0  -4   5  130.35    4.50
   0   4   5  128.13    3.17
   0   4  -5  127.62    4.32
   0  -4  -5  132.34    3.52
   0  -4   6   46.81    2.18
   0   4   6   46.64    2.22
   0  -4  -6   47.48    2.51
   0   4  -6   49.04    2.04
   0  -4   7    0.97    1.14
   0   4   7    1.38    1.11
   0  -4  -7    2.12    1.32
   0   4  -7    0.58    0.97
   0   4   8  107.83    5.53
   0  -4   8  116.04    3.95
   0  -4  -8  115.12    4.23
   0   4  -8  112.22    3.45
   0  -4   9    6.68    3.60
   0   4   9   11.09    2.09
   0  -4  -9   14.49    2.45
   0   4  -9   11.47    1.68
   0   4  10   20.13    2.44
   0  -4  10   20.65    2.69
   0   4 -10   18.35    2.06
   0  -4 -10   19.50    2.84
   0  -4  11   86.78    4.36
   0   4  11   81.16    3.90
   0  -4 -11   91.33    4.44
   0   4 -11   85.10    3.59
   0  -4  12   57.65    6.19
   0   4  12   60.46    3.46
   0  -4 -12   61.02    3.93
   0   4 -12   54.18    3.28
   0  -4  13   -0.56    1.53
   0   4  13    0.42    1.27
   0  -4 -13   -1.09    1.41
   0   4 -13    0.34    1.18
   0  -4  14   32.35    3.98
   0   4  14   32.69    3.05
   0   4 -14   31.94    3.13
   0  -4  15    0.05    3.48
   0   4 -15   20.15    2.81
   0  -4 -15   18.79    3.03
   0   4  16   -0.03    1.81
   0  -4  16   -0.09    2.29
   0   4 -16    2.61    1.82
   0  -4  17   -0.37    2.79
   0   4  17   -0.08    2.40
   0   4 -17    3.25    3.43
   0  -4 -17    5.87    2.33
   0  -5   1  211.64    4.30
   0  -5  -1  210.35    4.35
   0  -5   2    4.88    1.06
   0  -5   2    4.14    0.23
   0   5   2    4.60    1.18
   0   5  -2    4.39    1.08
   0  -5  -2    5.70    1.26
   0  -5   3    1.72    0.92
   0   5   3    2.24    0.95
   0  -5  -3    1.12    1.05
   0   5  -3    1.67    0.92
   0   5   4  315.29    5.64
   0  -5   4  324.69    6.13
   0   5  -4  320.26    6.11
   0  -5  -4  316.24    5.87
   0   5   5   18.17    2.62
   0  -5   5   21.53    1.55
   0  -5  -5   17.70    1.81
   0   5  -5   17.21    1.51
   0   5   6  325.69    6.27
   0  -5   6  335.45    6.74
   0   5  -6  332.86    6.68
   0  -5  -6  339.19    6.97
   0  -5   7  272.64    6.07
   0   5   7  265.21    5.69
   0   5  -7  266.78    7.12
   0  -5  -7  268.21    6.32
   0  -5   8   51.54    2.92
   0   5   8   51.79    2.77
   0   5  -8   49.53    2.45
   0  -5  -8   52.42    3.24
   0   5   9    1.24    2.58
   0  -5   9    2.47    1.65
   0  -5  -9    1.20    1.86
   0   5  -9    2.27    1.29
   0  -5  10    8.25    3.70
   0   5  10    7.24    2.03
   0   5 -10    8.18    1.78
   0  -5 -10    7.71    2.38
   0   5  11    2.05    1.63
   0  -5  11    1.64    1.81
   0  -5 -11    2.29    1.98
   0   5 -11    1.46    1.42
   0  -5  12    1.37    2.00
   0   5  12    1.85    1.62
   0   5 -12    1.60    1.58
   0  -5 -12    3.14    3.34
   0   5  13    0.12    1.06
   0  -5  13   -0.30    2.24
   0   5 -13    0.39    1.06
   0  -5 -13   -0.56    1.30
   0   5  14   -0.29    1.82
   0  -5  14    0.06    2.45
   0   5 -14    4.13    1.87
   0  -5 -14    5.19    2.15
   0   5  15   32.98    3.25
   0  -5  15   39.02    4.20
   0  -5 -15   37.62    5.83
   0   5 -15   34.02    3.46
   0  -5  16    0.01    2.87
   0   5  16   -0.04    3.61
   0  -5 -16   12.45    2.51
   0   5 -16   -0.14    2.30
   0   5  17    0.22    2.55
   0  -5  17   -0.20    2.06
   0   5 -17   -0.09    1.64
   0  -5 -17   -0.47    1.70
   0  -6   1   86.58    2.56
   0  -6  -1   85.47    2.58
   0  -6   2   69.37    2.33
   0  -6  -2   70.84    2.38
   0  -6   3  265.80    5.30
   0   6   3  263.30    5.00
   0   6  -3  261.68    5.27
   0  -6  -3  266.82    5.18
   0  -6   4    4.46    1.08
   0   6   4    2.18    1.12
   0   6  -4    3.67    1.07
   0  -6  -4    2.73    1.24
   0   6   5   91.33    2.77
   0  -6   5   96.50    4.04
   0   6  -5   89.91    2.83
   0  -6  -5   93.49    3.11
   0   6   6    6.73    1.37
   0  -6   6    6.54    1.36
   0   6  -6    5.52    1.28
   0  -6  -6    4.60    1.62
   0   6   7  104.12    5.17
   0  -6   7  105.09    3.51
   0   6  -7  100.66    3.21
   0  -6  -7  103.13    3.95
   0  -6   8   22.63    2.26
   0   6   8   21.95    2.23
   0  -6  -8   21.97    4.46
   0   6  -8   23.04    1.97
   0   6   9   51.45    4.68
   0  -6   9   55.24    3.25
   0   6  -9   55.36    2.79
   0  -6  -9   57.18    5.62
   0   6  10   17.45    2.39
   0  -6  10   15.10    2.57
   0   6 -10   20.43    2.18
   0  -6 -10   18.51    2.94
   0  -6  11   38.82    5.35
   0   6  11   37.48    2.85
   0  -6 -11   34.70    3.54
   0   6 -11   38.93    4.25
   0  -6  12   35.65    3.45
   0   6  12   30.94    2.88
   0   6 -12   34.05    4.40
   0  -6 -12   40.28    3.59
   0  -6  13    2.85    2.22
   0   6  13    1.98    1.72
   0  -6 -13    3.53    3.69
   0   6 -13    2.10    2.88
   0   6  14    0.13    1.99
   0  -6  14   -0.06    4.45
   0  -6 -14   10.35    2.48
   0   6 -14    7.38    3.36
   0   6  15   -0.43    1.43
   0  -6  15   -0.30    1.95
   0   6 -15    0.10    2.52
   0  -6 -15    1.85    1.72
   0   6  16   -1.02    1.52
   0  -6  16   -0.05    2.06
   0   6 -16    0.03    1.67
   0  -6 -16    6.31    2.92
   0   6  17   -0.53    1.75
   0  -6  17    0.02    2.37
   0  -6 -17   -1.21    2.05
   0   6 -17   -0.33    1.89
   0  -7   1  112.88    3.09
   0  -7  -1  113.29    3.05
   0  -7   2   79.28    2.60
   0  -7  -2   83.72    2.71
   0  -7   3   47.00    0.64
   0   7   3   45.11    2.07
   0  -7   3   48.70    2.07
   0   7  -3   44.98    2.08
   0  -7  -3   47.31    2.25
   0   7   4    2.40    1.04
   0  -7   4    1.37    1.01
   0   7  -4    1.34    1.02
   0  -7  -4    1.39    1.19
   0  -7   5  115.66    3.33
   0   7   5  114.99    3.24
   0   7  -5  113.96    3.32
   0  -7  -5  112.15    3.51
   0  -7   6    8.44    1.56
   0   7   6    8.92    1.60
   0   7  -6    9.47    1.48
   0  -7  -6    9.39    3.23
   0  -7   7   18.35    2.03
   0   7   7   19.63    3.44
   0  -7  -7   19.44    2.56
   0   7  -7   19.12    1.86
   0   7   8   44.17    2.71
   0  -7   8   48.15    2.81
   0   7  -8   42.06    2.54
   0  -7  -8   49.07    3.39
   0  -7   9    3.59    1.75
   0   7   9    3.96    2.79
   0  -7  -9    2.71    2.13
   0   7  -9    3.57    1.52
   0  -7  10   29.73    2.86
   0   7  10   24.87    2.58
   0  -7 -10   28.27    5.59
   0   7 -10   29.55    3.85
   0   7  11    0.35    1.20
   0  -7  11    1.92    1.47
   0  -7 -11   -0.50    2.55
   0   7 -11   -0.89    1.20
   0  -7  12    4.28    3.85
   0   7  12    4.82    1.91
   0   7 -12    6.27    1.97
   0  -7 -12    4.47    2.49
   0   7  13   23.81    2.51
   0  -7  13    0.14    3.29
   0   7 -13   22.61    2.84
   0  -7 -13   27.16    3.39
   0  -7  14   -0.44    2.50
   0   7  14   -1.51    1.87
   0  -7 -14    9.49    2.44
   0   7 -14    6.19    2.10
   0   7  15   -0.08    1.54
   0  -7  15   -0.11    3.45
   0   7 -15    0.25    1.75
   0  -7 -15    2.50    1.99
   0  -7  16    8.94    3.07
   0   7  16   -0.15    2.16
   0   7 -16    0.01    2.45
   0  -7 -16   10.29    2.68
   0  -8   0  591.10   10.87
   0  -8   0  571.29   10.09
   0  -8   1   10.22    1.42
   0  -8  -1   10.90    1.52
   0  -8   2   16.82    2.49
   0  -8  -2   14.56    2.83
   0  -8   3  121.98    3.44
   0  -8  -3  124.83    3.62
   0   8   4  103.08    3.15
   0  -8   4  102.92    1.46
   0  -8   4  101.82    3.18
   0   8  -4   98.33    3.18
   0  -8  -4  101.22    3.37
   0  -8   5   -0.14    1.67
   0   8   5    0.33    1.09
   0  -8  -5    1.16    1.27
   0   8  -5    0.82    1.00
   0   8   6   30.00    2.26
   0  -8   6   26.75    2.24
   0  -8  -6   29.59    2.73
   0   8  -6   29.12    2.09
   0   8   7   29.58    4.02
   0  -8   7   34.09    2.52
   0   8  -7   34.59    3.58
   0  -8  -7   35.90    3.03
   0  -8   8    3.70    1.60
   0   8   8    1.66    1.51
   0   8  -8    1.65    1.40
   0  -8  -8    3.43    1.97
   0  -8   9  118.42    6.39
   0   8   9  118.64    6.21
   0   8  -9  115.91    4.27
   0  -8  -9  123.29    5.08
   0   8  10   -1.55    1.23
   0  -8  10   -0.46    2.35
   0  -8 -10    1.09    1.58
   0   8 -10    0.69    1.97
   0   8  11   -0.13    1.24
   0  -8  11    1.41    1.57
   0  -8 -11   -1.45    1.66
   0   8 -11    1.31    1.30
   0  -8  12   51.56    4.06
   0   8  12   47.28    3.16
   0   8 -12   45.45    3.46
   0  -8 -12   53.77    4.06
   0  -8  13   -0.12    1.55
   0   8  13   -0.29    1.14
   0  -8 -13    0.60    2.50
   0   8 -13    0.57    1.31
   0  -8  14   -0.24    4.54
   0   8  14    0.17    3.31
   0   8 -14    0.04    2.34
   0  -8 -14   15.53    2.76
   0  -8  15   -0.50    2.06
   0   8  15    0.00    2.40
   0  -8 -15   -1.15    1.93
   0   8 -15    0.09    1.76
   0   8  16   -0.26    1.45
   0  -8  16    0.22    2.16
   0   8 -16    0.01    1.74
   0  -8 -16    3.48    3.12
   0  -9   0    0.52    0.68
   0   9   0   -0.02    0.08
   0   9   0   -0.02    0.09
   0  -9   0   -0.17    0.78
   0  -9   1  165.51    4.17
   0  -9  -1  166.06    4.22
   0  -9   2    2.18    1.81
   0  -9  -2    1.72    2.24
   0  -9   3   99.29    3.25
   0  -9  -3  101.15    3.56
   0  -9   4   16.36    1.84
   0  -9  -4   17.91    2.22
   0  -9   5    6.97    1.57
   0   9   5    6.65    1.69
   0  -9   5    6.09    0.30
   0  -9  -5    6.20    1.93
   0   9  -5    5.56    1.52
   0  -9   6    2.48    1.35
   0  -9   6    1.64    0.35
   0   9   6    2.39    1.39
   0   9  -6    0.56    1.31
   0  -9  -6    2.84    1.66
   0   9   7   16.18    2.16
   0  -9   7   15.17    2.18
   0  -9  -7   16.62    4.28
   0   9  -7   14.73    2.02
   0   9   8   47.26    2.85
   0  -9   8   56.08    3.16
   0  -9  -8   53.44    6.13
   0   9  -8   48.80    2.99
   0   9   9    0.52    1.10
   0  -9   9   -0.35    1.21
   0   9  -9   -1.34    1.78
   0  -9  -9    0.12    2.43
   0   9  10    9.61    2.12
   0  -9  10   12.65    2.45
   0   9 -10   11.04    2.25
   0  -9 -10   10.67    4.36
   0   9  11   11.63    2.25
   0  -9  11   13.35    2.81
   0   9 -11   12.59    2.39
   0  -9 -11   13.94    2.89
   0  -9  12   -0.06    4.29
   0   9  12   11.65    3.47
   0   9 -12    7.40    2.40
   0  -9 -12   10.33    2.82
   0   9  13    0.44    3.09
   0  -9  13   -0.13    2.54
   0   9 -13    0.53    2.14
   0  -9 -13   11.90    2.51
   0   9  14   -0.25    1.31
   0  -9  14   -0.14    1.76
   0  -9 -14   -0.28    1.81
   0   9 -14    0.03    1.49
   0  -9  15    0.57    2.34
   0   9  15   -0.09    1.68
   0   9 -15    0.00    1.95
   0  -9 -15    3.71    2.28
   0   9  16    0.02    1.92
   0  -9  16    2.79    2.80
   0   9 -16    0.03    2.31
   0  -9 -16    6.47    2.58
   0 -10   0   67.50    3.12
   0 -10   0   69.46    2.83
   0 -10   1    0.33    1.94
   0 -10  -1    2.03    1.39
   0 -10   2    2.29    2.15
   0 -10  -2    3.06    2.66
   0 -10   3   71.68    3.04
   0 -10  -3   77.74    3.49
   0 -10   4   13.41    1.96
   0 -10  -4   14.54    2.33
   0 -10   5  156.04    4.64
   0  10   5  142.65    4.43
   0 -10   5  147.91    1.75
   0 -10  -5  158.78    5.05
   0  10  -5  153.21    4.60
   0 -10   6    0.13    0.19
   0  10   6    0.29    1.06
   0 -10   6   -0.02    1.07
   0 -10  -6   -0.32    1.27
   0  10  -6    0.09    1.02
   0 -10   7   76.87    1.86
   0 -10   7   75.75    3.67
   0  10   7   73.29    3.43
   0  10  -7   75.08    3.54
   0 -10  -7   84.80    4.09
   0 -10   8    3.69    1.81
   0  10   8    2.98    1.62
   0  10  -8    4.26    1.69
   0 -10  -8    1.87    2.11
   0  10   9    0.69    1.16
   0 -10   9    0.78    1.37
   0  10  -9   -1.40    1.21
   0 -10  -9   -0.99    1.49
   0 -10  10   13.86    4.47
   0  10  10   19.43    2.43
   0  10 -10   20.80    2.68
   0 -10 -10   23.78    3.16
   0 -10  11    1.22    1.24
   0  10  11    0.06    1.75
   0  10 -11   -0.50    1.18
   0 -10 -11   -0.73    1.38
   0  10  12    7.86    2.00
   0 -10  12    0.14    2.62
   0  10 -12    7.34    3.66
   0 -10 -12    5.53    2.69
   0 -10  13   -0.15    1.55
   0  10  13    0.19    1.16
   0 -10 -13    0.12    2.57
   0  10 -13   -0.04    2.21
   0  10  14   -0.16    1.27
   0 -10  14   -0.18    2.81
   0  10 -14   -0.11    1.52
   0 -10 -14    0.11    1.74
   0 -10  15    0.14    2.24
   0  10  15    0.03    1.58
   0 -10 -15    1.44    2.24
   0  10 -15    0.83    1.92
   0 -11   0    0.30    1.13
   0 -11   0   -0.25    1.57
   0 -11   1  238.10    7.66
   0 -11  -1  240.80    8.46
   0 -11   2   25.17    2.32
   0 -11  -2   29.46    4.36
   0 -11   3   27.48    2.38
   0 -11  -3   27.55    2.75
   0 -11   4    1.64    1.45
   0 -11  -4    1.97    1.76
   0 -11   5   -0.53    1.29
   0 -11  -5   -0.71    1.56
   0  11   6   11.91    2.20
   0 -11   6   14.03    0.37
   0 -11   6   12.44    2.25
   0  11  -6   17.39    2.19
   0 -11  -6   14.97    2.67
   0  11   7   27.28    2.59
   0 -11   7   29.07    2.82
   0 -11   7   28.27    0.94
   0 -11  -7   30.01    3.16
   0  11  -7   26.09    2.68
   0 -11   8    5.07    3.19
   0  11   8    4.83    1.78
   0 -11   8    4.24    0.50
   0 -11  -8    4.90    2.24
   0  11  -8    2.09    1.89
   0 -11   9   12.45    2.57
   0 -11   9   12.73    0.79
   0  11   9   11.39    2.20
   0 -11  -9   11.16    2.87
   0  11  -9   11.06    2.43
   0  11  10    0.16    2.18
   0 -11  10   -0.24    1.54
   0 -11  10    0.27    0.51
   0  11 -10    0.64    1.46
   0 -11 -10    1.59    1.72
   0  11  11   14.86    2.40
   0 -11  11   15.10    2.93
   0  11 -11   13.14    4.31
   0 -11 -11   11.97    5.08
   0 -11  12    0.00    2.12
   0  11  12    2.64    1.57
   0  11 -12   -0.04    1.89
   0 -11 -12    0.02    2.10
   0 -11  13    0.03    2.63
   0  11  13   -0.08    1.15
   0  11 -13   -0.19    1.41
   0 -11 -13    0.19    1.61
   0  11  14   -0.24    1.44
   0 -11  14   -0.10    1.99
   0 -11 -14    0.19    2.02
   0  11 -14   -0.64    1.73
   0 -12   0   19.31    2.48
   0 -12   0   15.74    2.23
   0 -12   1   37.53    2.68
   0 -12   1   36.62    2.99
   0  12   1   35.48    0.60
   0 -12  -1   37.39    2.68
   0 -12  -1   38.19    3.01
   0 -12   2   18.75    2.25
   0 -12  -2   17.35    2.62
   0 -12   3   53.84    3.09
   0 -12  -3   56.76    3.44
   0 -12   4   16.71    2.29
   0 -12  -4   11.67    2.63
   0 -12   5   58.68    5.10
   0 -12  -5   58.55    3.83
   0 -12   6    1.26    2.03
   0 -12  -6   -0.36    1.39
   0 -12   7   63.76    5.64
   0 -12  -7   65.24    6.47
   0  12   8   -0.12    1.27
   0 -12   8    0.30    0.36
   0 -12   8    0.63    1.40
   0 -12  -8    0.01    2.68
   0  12  -8   -0.69    1.39
   0 -12   9    8.10    2.38
   0 -12   9    6.49    0.57
   0  12   9    7.92    2.08
   0  12  -9    7.06    2.29
   0 -12  -9    7.05    4.24
   0 -12  10   21.57    1.00
   0  12  10   23.50    2.65
   0 -12  10   25.56    3.19
   0  12 -10   21.50    3.04
   0 -12 -10   24.04    3.41
   0 -12  11    2.67    1.04
   0  12  11    1.12    1.74
   0 -12  11    2.92    2.23
   0  12 -11    0.47    2.06
   0 -12 -11    0.04    2.27
   0 -12  12    1.02    3.93
   0 -12  12    3.23    1.20
   0  12  12    2.89    1.84
   0  12 -12   -0.54    2.22
   0 -12 -12   -0.04    2.41
   0 -12  13    0.72    0.70
   0  12  13    0.03    2.57
   0 -12  13   -0.10    2.13
   0  12 -13   -0.21    1.89
   0 -12 -13    0.08    2.16
   0  12  14   -0.12    2.79
   0 -12  14   -0.17    2.45
   0 -12  14    1.01    0.83
   0 -12 -14    0.18    3.76
   0  12 -14   -0.09    2.05
   0 -13   0    1.12    1.49
   0 -13   0    1.05    1.63
   0 -13   1   24.34    2.53
   0 -13   1   21.83    2.82
   0 -13  -1   24.57    2.57
   0 -13  -1   19.95    2.82
   0  13   2    0.29    0.24
   0 -13   2    1.03    1.27
   0 -13  -2   -1.39    1.44
   0 -13   3   63.18    3.57
   0 -13  -3   65.43    3.82
   0 -13   4   39.95    3.12
   0 -13  -4   38.94    3.42
   0 -13   5    1.86    2.87
   0 -13  -5    2.50    3.28
   0 -13   6    1.18    2.13
   0 -13  -6   -1.24    2.45
   0 -13   7    0.15    1.24
   0 -13  -7   -0.62    2.20
   0 -13   8    2.19    1.90
   0 -13  -8    0.82    2.03
   0  13   9   18.11    2.59
   0 -13   9   19.83    3.05
   0 -13   9   14.34    0.74
   0  13  -9   22.73    2.95
   0 -13  -9   18.21    3.19
   0  13  10    0.13    1.32
   0 -13  10   -0.96    1.65
   0 -13  10    0.20    0.31
   0 -13 -10    0.17    1.72
   0  13 -10    0.66    1.57
   0 -13  11   21.16    4.81
   0  13  11   15.51    2.37
   0 -13 -11   -0.06    3.08
   0  13 -11    0.05    2.86
   0  13  12    0.11    2.48
   0 -13  12    1.10    2.00
   0  13 -12   -0.30    2.90
   0 -13 -12    0.01    2.02
   0  13  13   -0.04    1.42
   0 -13  13    0.71    1.93
   0 -13 -13   -0.06    3.02
   0  13 -13   -0.18    1.73
   0 -14   0   -1.01    1.46
   0 -14   0    1.97    1.49
   0 -14   1    3.63    3.36
   0 -14   1    4.38    1.91
   0 -14  -1    2.43    1.89
   0 -14  -1    4.48    2.01
   0 -14   2   11.53    2.36
   0  14   2   10.01    0.41
   0 -14   2   12.74    2.46
   0 -14  -2   10.14    2.46
   0 -14  -2   12.70    2.33
   0 -14   3   33.94    3.16
   0 -14  -3   33.67    3.31
   0 -14   4    3.18    1.97
   0 -14  -4    2.94    2.12
   0 -14   5   23.90    4.59
   0 -14  -5   21.31    5.25
   0 -14   6    5.12    2.26
   0 -14  -6    4.89    3.97
   0 -14   7   16.54    2.86
   0 -14  -7   14.26    3.04
   0 -14   8    0.79    2.26
   0 -14  -8    5.17    2.34
   0 -14   9   29.36    3.69
   0 -14  -9   27.07    3.70
   0 -14  10    0.97    2.12
   0 -14 -10   -0.41    1.36
   0  14  11    3.72    1.92
   0 -14  11    1.40    2.44
   0 -14 -11    0.01    2.50
   0  14 -11    0.19    2.28
   0 -14  12   -1.02    2.11
   0  14  12    0.24    1.58
   0 -14 -12   -0.10    3.47
   0  14 -12   -0.68    1.91
   0 -15   0    0.35    2.86
   0 -15   0   -1.09    1.67
   0 -15   1   22.95    4.70
   0 -15   1   22.31    2.99
   0 -15  -1   25.09    2.99
   0 -15  -1   23.75    3.02
   0  15   2   12.17    0.45
   0 -15   2   14.53    2.57
   0 -15   2   14.08    2.71
   0 -15  -2   18.18    2.65
   0 -15  -2   13.42    2.73
   0 -15   3   19.47    2.79
   0  15   3   15.03    0.65
   0 -15  -3   14.75    2.88
   0 -15   4    4.03    2.12
   0 -15  -4    2.45    2.23
   0 -15   5   12.30    4.27
   0 -15  -5   12.02    4.85
   0 -15   6    2.11    1.90
   0 -15  -6   -2.68    3.22
   0 -15   7   12.39    3.03
   0 -15  -7   12.62    3.02
   0 -15   8    0.25    2.05
   0 -15  -8   -1.98    2.02
   0 -15   9    2.62    2.54
   0 -15  -9    2.63    2.54
   0 -15  10    6.41    2.65
   0 -15 -10   -0.54    2.76
   0 -15  11    5.80    3.08
   0 -15 -11    0.08    5.00
   0 -16   0   12.02    2.70
   0 -16   0    8.08    2.56
   0 -16   1    5.51    2.37
   0 -16   1    5.36    2.43
   0 -16  -1    6.17    3.99
   0 -16  -1    5.40    2.30
   0 -16   2   -0.11    3.64
   0 -16   2    2.27    2.21
   0 -16  -2    2.94    2.19
   0 -16  -2    4.12    2.10
   0 -16   3   47.53    3.62
   0 -16   3   41.07    3.83
   0 -16  -3   37.61    3.82
   0 -16  -3   39.62    3.72
   0 -16   4    0.05    2.08
   0  16   4    1.48    0.48
   0 -16  -4    3.06    2.07
   0 -16   5   19.86    3.34
   0 -16  -5   20.23    3.38
   0 -16   6    0.44    1.90
   0 -16  -6    0.59    3.15
   0 -16   7   14.04    3.25
   0 -16  -7   13.51    3.25
   0 -16   8    0.89    2.13
   0 -16  -8    0.51    2.13
   0 -16   9    5.18    4.55
   0 -16  -9    3.65    2.90
   0 -16  10   -0.54    2.22
   0 -16 -10   -0.21    3.88
   0 -17   0   -2.18    1.97
   0 -17   0   -0.13    1.97
   0 -17   1   30.17    3.70
   0 -17   1   -0.10    5.61
   0 -17  -1   31.94    3.49
   0 -17  -1   31.34    3.55
   0 -17   2    2.85    2.27
   0 -17   2    0.15    2.17
   0 -17  -2   -0.06    3.66
   0 -17  -2    3.88    2.18
   0 -17   3    8.75    2.50
   0 -17   3    0.15    2.42
   0 -17  -3   10.18    3.99
   0 -17  -3    0.14    2.47
   0 -17   4    4.06    2.39
   0 -17   4    2.45    2.52
   0 -17  -4    3.59    2.42
   0 -17  -4    3.03    2.46
   0 -17   5    2.03    2.15
   0 -17  -5   -0.02    2.18
   0 -17   6    2.40    4.31
   0 -17  -6    5.77    4.44
   0 -17   7    2.08    2.30
   0 -17  -7    0.05    2.34
   0 -17   8    2.45    3.00
   0 -17  -8    6.85    3.07
   0 -17   9    1.71    3.65
   0 -17  -9   -0.10    2.34
   0 -18   0    1.43    3.12
   0 -18   0    0.10    1.84
   0 -18   1    0.11    2.50
   0 -18   1    6.57    2.59
   0 -18  -1    6.83    2.53
   0 -18  -1   -0.21    2.48
   0 -18   2   -0.11    2.47
   0 -18   2    7.81    2.68
   0 -18  -2    0.11    2.61
   0 -18  -2    6.28    2.60
   0 -18   3    0.30    2.56
   0 -18   3    5.60    4.17
   0 -18  -3    0.06    4.33
   0 -18  -3    6.71    2.62
   0 -18   4    2.14    2.37
   0 -18   4    3.61    2.53
   0 -18  -4   -0.25    2.45
   0 -18  -4    3.04    2.47
   0 -18   5   18.71    3.51
   0 -18   5   15.64    3.67
   0 -18  -5   15.99    3.75
   0 -18  -5   15.61    3.49
   0 -18   6    1.54    3.74
   0 -18  -6    0.08    3.98
   0 -18   7   11.88    3.57
   0 -18  -7    9.07    3.64
   0 -19   0   -0.25    2.15
   0 -19   0   -0.97    2.21
   0 -19   1    4.43    4.17
   0 -19   1    0.32    2.55
   0 -19  -1   -0.17    2.53
   0 -19  -1    5.12    2.57
   0 -19   2   11.19    3.05
   0 -19   2    0.03    4.84
   0 -19  -2   -0.19    3.04
   0 -19  -2    8.10    3.02
   0 -19   3   -0.06    3.21
   0 -19   3   10.99    3.31
   0 -19  -3   11.67    5.39
   0 -19  -3   11.81    3.24
   0 -19   4    3.63    2.90
   0 -19   4    3.50    4.49
   0 -19  -4    3.31    2.84
   0 -19  -4    2.84    2.81
   0 -19   5    5.10    2.95
   0 -19   5    4.59    3.10
   0 -19  -5    4.98    3.09
   0 -19  -5    2.99    2.94
  -1   0  18   -0.11    2.01
   1   0 -16   -0.29    1.69
  -1   0  15   -0.88    1.99
   1   0 -14   -1.54    1.85
   1   0 -13    1.36    1.62
  -1   0  13    0.67    1.93
  -1   0  12    1.42    1.91
   1   0 -11   -0.38    1.03
  -1   0  11    0.62    1.24
   1   0 -10    6.04    1.85
  -1   0  10    4.46    2.29
   1   0  -9   -0.91    2.01
  -1   0   9   -0.43    1.49
   1   0  -8   28.11    2.23
  -1   0   8   25.28    2.53
   1   0  -7    0.54    0.97
  -1   0   7   -0.87    1.97
   1   0  -6  915.54   16.30
  -1   0   6  909.61   16.20
   1   0  -5    0.21    1.08
  -1   0   5    0.57    1.20
   1   0  -4  129.83    3.52
  -1   0   4  120.01    3.64
   1   0  -3   -0.50    0.75
  -1   0   3    0.13    1.34
   1   0  -2   15.94    0.95
  -1   0   2   16.01    1.59
   1   0   2   18.97    1.12
  -1   0  -2   19.14    0.71
   1   0   3    0.67    0.65
  -1   0  -3    0.41    0.58
   1   0   4  125.36    4.40
  -1   0  -4  125.99    2.81
   1   0   5    0.11    0.79
  -1   0  -5    0.51    1.09
   1   0   6  389.38    7.20
  -1   0  -6  399.92    7.10
   1   0   7    0.57    0.81
  -1   0  -7   -0.52    0.67
   1   0   8  102.42    3.48
  -1   0  -8  102.33    3.13
   1   0   9    0.36    1.19
  -1   0  -9    0.17    1.57
   1   0  10  132.26    4.60
  -1   0 -10  138.50    4.12
   1   0  11    1.82    1.29
  -1   0 -11   -0.81    1.04
   1   0  13    0.31    1.33
  -1   0 -13    0.15    1.16
   1   0  14    5.20    2.37
  -1   0 -14    5.99    1.95
   1   0  16   -0.37    2.05
  -1   0 -16    2.81    1.76
   1  -1 -18    3.35    2.60
   1   1 -17    1.23    2.06
  -1  -1  17    1.32    2.55
  -1   1  16   13.48    3.24
   1   1 -14   10.04    2.45
  -1  -1  14    9.47    2.84
   1  -1 -13   -0.22    1.46
  -1   1  13   -0.52    1.63
  -1   1  12   36.42    3.39
  -1  -1  12   35.11    3.57
   1   1 -11   14.54    2.26
   1  -1 -11   17.06    2.50
  -1   1  11   15.53    2.85
  -1  -1  11   15.93    2.95
   1   1 -10   34.16    2.60
   1  -1 -10   32.47    2.84
  -1  -1  10   31.55    3.32
  -1   1  10   37.32    5.48
   1   1  -9    0.14    1.20
   1  -1  -9    0.94    1.40
  -1  -1   9    1.53    1.53
  -1   1   9    1.10    1.53
   1   1  -8    1.48    1.84
   1  -1  -8    1.33    1.29
  -1   1   8    0.74    1.36
  -1  -1   8    0.57    1.41
   1   1  -7   19.29    1.87
   1  -1  -7   22.47    2.13
  -1  -1   7   20.00    2.24
  -1   1   7   22.17    2.21
   1  -1  -6   39.11    3.93
   1   1  -6   37.00    2.04
  -1   1   6   34.55    2.30
  -1  -1   6   35.31    2.30
   1  -1  -5   16.45    2.19
   1   1  -5   16.55    1.75
  -1   1   5   17.06    2.15
  -1  -1   5   16.86    2.06
   1   1  -4   12.62    1.54
   1  -1  -4   12.84    1.93
  -1  -1   4   12.25    1.71
  -1   1   4   12.60    1.84
   1  -1  -3 1494.68   24.40
   1   1  -3 1417.26   23.27
  -1   1   3 1449.86   23.39
  -1  -1   3 1449.06   23.66
   1   1  -2  570.06    8.49
   1  -1  -2  586.85    8.52
  -1  -1   2  578.47    8.15
  -1  -1   2  565.01    8.40
  -1   1   2  597.47    8.55
   1   1   1   45.82    0.85
   1  -1   1   45.20    1.11
  -1  -1  -1   44.01    0.90
  -1   1  -1   46.19    0.86
   1   1   2  713.14    9.74
   1  -1   2  700.99   10.60
  -1  -1  -2  718.89    9.96
  -1   1  -2  697.61   10.03
   1   1   3 2225.87   38.29
   1  -1   3 2213.59   36.99
  -1   1  -3 2216.53   37.01
  -1  -1  -3 2237.50   37.16
   1  -1   4    2.47    1.63
   1   1   4    2.71    1.05
  -1  -1  -4    3.61    1.08
  -1   1  -4    2.29    0.81
   1   1   5  205.40    5.63
   1  -1   5  198.08    5.45
  -1   1  -5  205.44    3.91
  -1  -1  -5  206.66    4.16
   1   1   6   17.76    2.73
   1  -1   6   20.07    1.63
  -1   1  -6   18.35    1.31
  -1  -1  -6   19.80    1.54
   1  -1   7   26.75    1.98
   1   1   7   24.73    3.16
  -1   1  -7   26.33    1.57
  -1  -1  -7   28.82    1.85
   1   1   8    1.42    2.01
   1  -1   8    1.17    2.08
  -1   1  -8    1.04    0.96
  -1  -1  -8    1.55    1.09
   1  -1   9   11.33    2.10
   1   1   9   12.85    2.04
  -1  -1  -9   15.03    1.82
  -1   1  -9   11.71    1.56
   1   1  10    7.44    1.98
   1  -1  10    6.72    3.38
  -1  -1 -10    8.72    1.67
  -1   1 -10    6.67    1.53
   1   1  11    0.52    1.33
   1  -1  11    0.70    1.42
  -1  -1 -11    0.80    1.13
  -1   1 -11   -0.38    1.05
   1  -1  13    1.55    1.46
   1   1  13    0.64    1.35
  -1   1 -13   -0.46    1.20
  -1  -1 -13    0.16    1.23
   1   1  14   25.94    3.15
  -1   1 -14   23.83    2.63
   1  -1  16    0.13    1.60
   1   1  17   -0.05    1.93
  -1   1 -17   -1.59    1.71
   1  -2 -17    5.60    2.49
  -1   2  17    0.72    2.84
  -1  -2  16    2.85    2.41
  -1   2  16    0.02    2.05
   1  -2 -15   -0.78    1.92
   1   2 -15   -0.96    1.73
   1   2 -14    3.06    1.94
  -1  -2  14    2.28    2.41
  -1   2  14    4.02    2.25
   1  -2 -13   -1.38    1.39
  -1   2  13    1.60    1.40
   1   2 -12    4.75    1.83
  -1   2  12    2.32    2.09
  -1  -2  12    2.44    2.28
   1   2 -11    0.89    1.35
   1  -2 -11   -1.10    1.62
  -1   2  11    0.29    1.65
  -1  -2  11    2.64    1.75
   1  -2 -10   20.55    2.60
   1   2 -10   17.99    2.15
  -1   2  10   18.00    2.74
  -1  -2  10   17.64    2.93
   1  -2  -9    0.03    1.62
   1   2  -9    2.07    1.25
  -1  -2   9    1.61    1.70
  -1   2   9    0.98    2.73
   1  -2  -8   95.13    5.61
   1   2  -8   89.84    3.12
  -1   2   8   83.57    5.49
  -1  -2   8   88.91    3.67
   1   2  -7  381.40    7.55
   1  -2  -7  410.45    8.46
  -1   2   7  375.77    7.70
  -1  -2   7  397.69   10.30
   1  -2  -6   22.69    2.15
   1   2  -6   22.65    1.72
  -1   2   6   20.96    2.00
  -1  -2   6   23.49    1.98
   1   2  -5    7.73    1.37
   1  -2  -5    8.59    1.88
  -1   2   5    8.47    1.73
  -1  -2   5    7.92    1.58
   1   2  -4   33.86    1.83
   1  -2  -4   33.43    2.44
  -1   2   4   35.06    2.26
  -1  -2   4   33.03    1.98
   1   2  -3  125.40    2.90
   1  -2  -3  126.74    3.29
  -1  -2   3  127.71    2.89
  -1   2   3  124.35    3.09
   1  -2  -2  293.15    4.66
   1   2  -2  293.69    4.77
  -1  -2   2  300.66    4.79
  -1   2   2  287.82    4.48
  -1  -2   2  293.06    4.56
   1   2  -1  115.00    1.86
   1   2  -1  126.33    2.20
   1  -2  -1  127.72    2.07
  -1  -2   1  125.11    2.08
  -1   2   1  124.97    2.00
  -1   2   1  125.03    2.27
  -1  -2   1  128.77    2.19
   1  -2   0    0.61    0.34
   1  -2   0    0.29    0.37
  -1  -2   0    1.03    0.59
  -1   2   0    0.40    0.23
   1   2   1  280.78    3.67
   1  -2   1  272.19    4.05
  -1   2  -1  273.27    4.09
  -1  -2  -1  273.98    4.14
   1   2   2   23.01    1.43
   1  -2   2   22.27    0.97
  -1   2  -2   21.21    0.99
  -1  -2  -2   21.98    0.97
   1  -2   3   80.85    1.98
   1   2   3   80.51    2.02
  -1  -2  -3   81.08    2.23
  -1   2  -3   81.96    1.98
   1  -2   4  213.88    4.07
   1   2   4  211.09    4.01
  -1  -2  -4  213.69    4.31
  -1   2  -4  215.57    3.94
   1  -2   5   15.65    2.24
   1   2   5   13.33    1.33
  -1   2  -5   17.15    1.18
  -1  -2  -5   16.54    1.49
   1  -2   6  475.33   10.09
   1   2   6  469.03    9.83
  -1   2  -6  455.18    9.12
  -1  -2  -6  481.85    8.70
   1  -2   7   83.90    2.80
   1   2   7   81.83    2.72
  -1   2  -7   78.80    2.42
  -1  -2  -7   85.34    4.35
   1   2   8  169.70    4.38
   1  -2   8  171.10    4.61
  -1   2  -8  168.20    4.04
  -1  -2  -8  174.34    4.58
   1   2   9   12.45    2.04
   1  -2   9   13.68    2.20
  -1   2  -9   13.79    1.59
  -1  -2  -9   13.39    1.96
   1  -2  10   19.45    4.38
   1   2  10   20.71    2.35
  -1  -2 -10   23.44    3.66
  -1   2 -10   20.51    1.87
   1   2  11    0.27    1.28
   1  -2  11   -0.02    1.43
  -1  -2 -11    1.23    1.18
  -1   2 -11   -0.12    1.03
   1  -2  13    2.10    1.79
   1   2  13    0.75    1.56
  -1   2 -13    1.04    1.43
  -1  -2 -13    2.18    1.54
   1   2  14   -0.91    1.54
  -1   2 -14   -1.09    1.45
   1  -2  15    0.12    1.82
   1   2  15    1.39    1.70
  -1   2 -15    0.23    1.48
  -1  -2 -15    1.12    1.55
   1  -2  17    0.14    2.42
  -1  -2 -17    3.97    2.03
  -1   3  18    1.73    2.67
   1   3 -16   -1.94    2.35
  -1  -3  16   12.32    2.96
   1   3 -15   24.39    3.26
   1   3 -14   33.57    3.28
   1  -3 -14   42.65    3.70
  -1   3  14   33.02    3.50
  -1  -3  14   34.06    3.97
  -1   3  13    2.19    1.99
  -1  -3  13    3.40    2.30
   1  -3 -12   -0.59    1.69
   1   3 -12    0.73    1.37
  -1  -3  12    0.83    1.82
  -1   3  12    1.03    1.57
   1  -3 -11   10.60    2.68
   1   3 -11   11.20    2.04
  -1   3  11    9.77    2.49
  -1  -3  11   10.11    2.80
   1  -3 -10   20.17    2.87
   1   3 -10   19.22    2.16
  -1   3  10   20.83    2.70
  -1  -3  10   23.62    2.96
   1  -3  -9   27.89    2.96
   1   3  -9   23.97    2.17
  -1   3   9   26.60    2.70
  -1  -3   9   29.13    4.51
   1   3  -8   37.01    2.21
   1  -3  -8   36.53    2.94
  -1   3   8   37.76    2.62
  -1  -3   8   38.77    2.78
   1   3  -7  104.66    3.18
   1  -3  -7  106.71    3.82
  -1  -3   7  111.93    3.61
  -1   3   7  106.29    3.48
   1  -3  -6  151.76    6.18
   1   3  -6  149.74    3.65
  -1   3   6  152.76    5.75
  -1  -3   6  154.57    3.95
   1  -3  -5   26.43    2.23
   1   3  -5   26.37    1.71
  -1   3   5   27.16    1.99
  -1  -3   5   26.60    1.88
   1   3  -4  205.93    4.30
   1  -3  -4  209.27    5.05
  -1  -3   4  209.77    4.42
  -1   3   4  201.68    4.59
   1  -3  -3   10.32    1.60
   1   3  -3   11.67    1.24
  -1  -3   3    9.73    1.25
  -1  -3   3    9.82    0.68
  -1   3   3   12.30    1.47
   1  -3  -2  443.25    7.21
   1   3  -2  444.08    7.30
  -1   3   2  442.09    7.04
  -1  -3   2  445.56    6.50
  -1  -3   2  449.42    7.29
   1   3  -1    2.08    1.19
   1  -3  -1    2.67    0.75
  -1  -3   1    2.21    0.31
  -1   3   1    1.81    0.37
  -1  -3   1    1.81    1.18
  -1   3   1    2.06    0.73
   1  -3   0  223.19    3.55
   1  -3   0  219.00    3.03
  -1   3   0  219.99    2.76
  -1  -3   0  222.84    3.67
   1  -3   1   64.78    1.67
  -1  -3  -1   64.02    1.58
   1   3   2  503.14    7.52
   1  -3   2  498.86    7.92
  -1   3  -2  496.75    7.97
  -1  -3  -2  500.68    7.64
   1   3   3    6.45    1.00
   1  -3   3    6.14    0.96
  -1   3  -3    5.88    0.93
  -1  -3  -3    7.11    1.12
   1  -3   4  169.96    3.45
   1   3   4  163.46    3.29
  -1   3  -4  165.45    3.38
  -1  -3  -4  170.45    3.67
   1  -3   5   84.57    3.29
   1   3   5   79.24    2.23
  -1  -3  -5   84.13    2.56
  -1   3  -5   79.81    2.25
   1  -3   6    0.79    0.93
   1   3   6    0.80    0.92
  -1  -3  -6    1.51    1.04
  -1   3  -6    1.23    0.79
   1   3   7  219.84    4.69
   1  -3   7  229.23    5.07
  -1  -3  -7  238.07    5.34
  -1   3  -7  225.13    4.73
   1   3   8   32.01    2.18
   1  -3   8   36.28    2.39
  -1   3  -8   32.89    2.88
  -1  -3  -8   32.73    2.52
   1  -3   9   18.41    2.38
   1   3   9   23.30    3.58
  -1  -3  -9   18.84    2.29
  -1   3  -9   19.95    1.75
   1   3  10   27.76    4.08
   1  -3  10   30.45    2.74
  -1  -3 -10   28.30    4.11
  -1   3 -10   30.35    2.14
   1   3  11    0.70    2.36
   1  -3  11    1.12    1.62
  -1   3 -11    0.12    1.19
  -1  -3 -11    1.85    1.45
   1  -3  12    7.16    3.62
  -1   3 -12    6.68    2.78
   1   3  13   -1.52    1.40
   1  -3  13    0.51    1.85
  -1   3 -13    1.51    2.16
  -1  -3 -13   -1.99    1.48
   1  -3  14   26.52    3.47
   1   3  14   28.48    2.69
  -1   3 -14   23.01    2.71
   1   3  15    0.32    1.81
   1  -3  15    0.01    2.06
  -1   3 -15    2.80    1.61
  -1   3 -16    6.91    2.23
   1  -3  17    0.18    1.79
   1   4 -17   -1.04    1.90
  -1  -4  17    0.18    2.40
   1   4 -16    0.52    1.51
   1  -4 -16   -1.53    1.66
  -1  -4  16    1.58    1.89
   1   4 -15   -0.22    1.90
  -1   4  15    0.41    1.83
  -1  -4  15    3.16    2.34
   1   4 -14    8.02    3.67
   1  -4 -14    9.90    2.64
  -1  -4  14    8.92    2.85
  -1   4  14   -0.15    2.32
   1   4 -13   10.98    2.35
  -1   4  13   10.01    2.48
  -1  -4  13   10.41    2.98
   1  -4 -12    6.80    2.53
   1   4 -12    6.77    1.99
  -1  -4  12    6.01    4.31
  -1   4  12    5.50    2.21
   1   4 -11  134.38    4.74
   1  -4 -11  145.32    5.88
  -1  -4  11  139.03    5.60
  -1   4  11  127.76    4.99
   1  -4 -10    0.98    2.02
   1   4 -10    3.24    1.39
  -1   4  10    1.04    1.71
  -1  -4  10    1.00    1.83
   1   4  -9    0.28    1.09
   1  -4  -9   -0.59    1.61
  -1  -4   9    1.73    2.35
  -1   4   9    1.12    1.38
   1   4  -8  149.17    5.51
   1  -4  -8  151.23    5.11
  -1   4   8  147.62    4.48
  -1  -4   8  154.47    4.67
   1   4  -7    5.92    1.33
   1  -4  -7    6.44    1.81
  -1  -4   7    5.88    1.55
  -1   4   7    7.23    2.66
   1   4  -6  178.82    4.18
   1  -4  -6  183.54    4.72
  -1   4   6  176.51    4.27
  -1  -4   6  179.70    4.37
   1  -4  -5    7.36    1.58
   1   4  -5    7.71    1.26
  -1   4   5    7.63    1.37
  -1  -4   5    7.24    1.33
   1   4  -4   74.85    2.43
   1  -4  -4   70.76    4.53
  -1   4   4   72.45    2.54
  -1  -4   4   74.67    3.63
   1  -4  -3   31.15    2.11
   1   4  -3   31.65    1.66
  -1   4   3   30.72    1.90
  -1  -4   3   30.09    0.82
  -1  -4   3   30.41    1.73
   1   4  -2   91.96    2.47
   1  -4  -2   94.72    4.39
  -1   4   2   91.19    2.59
  -1  -4   2   91.36    1.35
  -1  -4   2   94.77    2.49
   1   4  -1  216.49    4.09
   1  -4  -1  223.96    4.32
  -1   4   1  217.75    4.13
  -1   4   1  213.75    3.37
  -1  -4   1  219.29    5.13
   1  -4   0    3.06    0.43
   1  -4   0    3.24    1.00
  -1  -4   0    4.01    0.84
  -1   4   0    3.34    0.42
   1  -4   1   64.14    1.94
   1  -4   1   63.18    0.89
  -1  -4  -1   65.33    1.98
   1   4   2   84.73    3.35
   1  -4   2   80.64    2.20
  -1  -4  -2   83.24    2.30
  -1   4  -2   82.76    2.23
   1   4   3   -0.09    1.21
   1  -4   3   -0.03    0.70
  -1  -4  -3    1.53    0.74
  -1   4  -3    0.12    0.65
   1  -4   4  189.55    4.82
   1   4   4  183.63    3.47
  -1   4  -4  180.01    3.68
  -1  -4  -4  184.57    3.71
   1  -4   5  161.30    3.56
   1   4   5  155.09    3.31
  -1   4  -5  158.65    3.47
  -1  -4  -5  160.22    3.68
   1  -4   6  249.69    6.33
   1   4   6  244.43    4.75
  -1   4  -6  256.91    6.22
  -1  -4  -6  258.46    7.13
   1   4   7   36.42    2.02
   1  -4   7   38.24    2.16
  -1  -4  -7   39.70    2.46
  -1   4  -7   40.77    1.90
   1  -4   8  148.21    4.35
   1   4   8  142.23    3.97
  -1   4  -8  148.62    3.83
  -1  -4  -8  152.21    4.60
   1   4   9    1.35    1.13
   1  -4   9   -0.21    2.04
  -1   4  -9    0.03    1.54
  -1  -4  -9    0.05    1.34
   1   4  10   23.71    2.26
   1  -4  10   25.83    2.65
  -1   4 -10   24.74    2.06
  -1  -4 -10   27.00    4.21
   1  -4  11   68.92    3.84
   1   4  11   63.87    4.83
  -1  -4 -11   68.89    3.69
  -1   4 -11   61.91    3.05
   1  -4  12    2.23    2.10
   1   4  12    3.69    2.77
  -1  -4 -12    4.14    1.88
  -1   4 -12    4.91    1.60
   1   4  13    9.65    2.03
   1  -4  13   12.65    4.79
  -1   4 -13   12.03    2.06
  -1  -4 -13    9.01    3.73
   1   4  14    4.70    1.80
   1  -4  14   -0.04    2.43
  -1  -4 -14    5.99    2.02
  -1   4 -14    4.38    2.98
   1  -4  15    0.30    3.54
   1   4  15    0.14    1.64
  -1   4 -15    3.98    1.78
   1   4  16   -0.22    1.57
   1  -4  16    0.17    1.87
  -1   4 -16    0.01    1.48
  -1  -4 -16    1.55    1.61
   1  -4  17   -0.18    1.71
  -1   4 -17   -0.06    1.43
   1  -5 -17    6.53    2.64
   1   5 -17    0.69    2.43
  -1   5  17   -0.95    2.38
  -1  -5  17    4.74    2.95
   1  -5 -16    4.46    2.43
   1   5 -16    0.17    3.43
  -1   5  16    0.01    2.11
  -1  -5  16    3.38    2.69
   1   5 -15   57.53    4.08
   1  -5 -15   58.53    4.68
  -1   5  15   51.35    3.99
  -1  -5  15   59.14    7.60
   1  -5 -14    0.49    3.18
   1   5 -14    0.93    1.58
  -1  -5  14    0.11    1.95
  -1   5  14    0.20    1.57
   1   5 -13   -0.22    1.51
   1  -5 -13   -0.90    1.89
  -1  -5  13   -0.27    3.27
  -1   5  13   -0.94    1.57
   1  -5 -12   99.85    5.21
   1   5 -12   92.30    4.28
  -1   5  12   95.73    4.31
  -1  -5  12   95.11    5.10
   1   5 -11    0.31    1.48
   1  -5 -11    0.84    3.55
  -1   5  11    0.83    1.61
  -1  -5  11    2.59    1.82
   1  -5 -10   51.19    3.93
   1   5 -10   44.87    2.82
  -1   5  10   49.15    3.20
  -1  -5  10   49.89    5.67
   1  -5  -9   11.21    2.65
   1   5  -9    8.69    1.80
  -1  -5   9   12.81    2.35
  -1   5   9   10.50    2.23
   1  -5  -8    3.22    1.93
   1   5  -8    2.40    1.32
  -1   5   8    3.85    2.74
  -1  -5   8    3.77    1.61
   1  -5  -7  183.42    5.20
   1   5  -7  179.51    4.43
  -1   5   7  174.31    4.50
  -1  -5   7  179.77    4.71
   1   5  -6   15.96    2.56
   1  -5  -6   14.81    2.07
  -1  -5   6   18.16    1.77
  -1   5   6   18.89    3.01
   1   5  -5  148.38    3.63
   1  -5  -5  148.20    4.03
  -1   5   5  146.90    3.66
  -1  -5   5  149.52    3.76
   1  -5  -4  136.52    3.57
   1   5  -4  134.84    3.38
  -1  -5   4  141.63    2.25
  -1  -5   4  145.48    4.66
  -1   5   4  136.22    3.29
   1  -5  -3  164.88    3.92
   1   5  -3  163.52    3.74
  -1   5   3  157.24    5.06
  -1  -5   3  163.20    2.63
  -1  -5   3  168.49    3.80
   1  -5  -2   85.39    2.81
   1   5  -2   82.05    2.48
  -1   5   2   85.23    2.62
  -1  -5   2   85.00    1.43
  -1  -5   2   86.00    2.46
   1  -5  -1   34.25    1.99
  -1   5   1   34.42    1.08
  -1  -5   1   35.75    1.64
   1  -5   0  587.68    9.84
  -1  -5   0  605.58   10.15
  -1   5   0  621.40    8.21
   1  -5   1  179.74    4.82
   1  -5   1  175.49    2.20
  -1  -5  -1  176.30    5.12
   1  -5   2  113.97    2.81
  -1  -5  -2  109.02    2.71
   1   5   3   50.40    1.73
   1  -5   3   54.21    1.93
  -1   5  -3   50.41    1.87
  -1  -5  -3   48.46    1.85
   1   5   4   84.95    2.33
   1  -5   4   86.47    3.42
  -1  -5  -4   85.52    2.51
  -1   5  -4   86.66    2.45
   1   5   5  256.34    4.77
   1  -5   5  269.06    5.28
  -1   5  -5  256.99    5.18
  -1  -5  -5  264.72    5.25
   1   5   6   14.77    2.36
   1  -5   6   16.05    2.37
  -1   5  -6   12.59    1.37
  -1  -5  -6   14.49    1.71
   1   5   7  225.41    4.87
   1  -5   7  233.36    5.35
  -1   5  -7  226.36    5.08
  -1  -5  -7  232.82    7.76
   1  -5   8   10.36    1.84
   1   5   8   10.58    1.73
  -1  -5  -8   11.66    2.15
  -1   5  -8   11.47    1.54
   1   5   9   67.21    2.98
   1  -5   9   68.35    3.38
  -1   5  -9   67.16    4.07
  -1  -5  -9   67.54    3.57
   1  -5  10   54.77    5.00
   1   5  10   41.73    2.64
  -1  -5 -10   41.38    4.97
  -1   5 -10   42.60    2.55
   1  -5  11    3.85    1.91
   1   5  11    3.42    2.61
  -1  -5 -11    4.75    2.00
  -1   5 -11    2.32    1.51
   1  -5  12   49.74    3.64
   1   5  12   50.81    4.56
  -1  -5 -12   54.92    3.50
  -1   5 -12   49.69    3.06
   1  -5  13    2.25    2.12
   1   5  13    2.49    2.44
  -1  -5 -13    2.13    1.80
  -1   5 -13    0.79    1.57
   1  -5  14    5.19    2.48
   1   5  14    5.63    1.75
  -1   5 -14    3.29    1.92
  -1  -5 -14    1.48    2.08
   1   5  15    0.71    1.69
   1  -5  15    0.08    2.27
  -1  -5 -15    4.07    1.99
  -1   5 -15    3.33    1.89
   1   5  16    0.27    1.87
   1  -5  16   -0.02    3.90
  -1   5 -16   -0.04    2.95
  -1  -5 -16    6.62    3.20
   1   5  17    0.34    1.65
   1   6 -17    0.36    2.13
   1  -6 -17    2.32    2.32
  -1  -6  17    0.83    2.63
  -1   6  17    0.19    1.99
   1   6 -16   -0.79    1.75
   1  -6 -16    1.66    2.05
  -1   6  16   -0.39    1.66
  -1  -6  16    4.35    3.52
   1   6 -15    0.21    1.44
   1  -6 -15    0.28    2.79
  -1  -6  15   -0.05    1.74
  -1   6  15   -0.02    1.35
   1  -6 -14   -0.02    1.76
   1   6 -14    0.78    1.46
  -1  -6  14   -0.19    3.00
  -1   6  14   -0.20    1.41
   1  -6 -13    6.64    2.82
   1   6 -13    8.64    2.19
  -1  -6  13   -0.13    2.68
  -1   6  13    5.69    2.16
   1  -6 -12    2.88    3.54
   1   6 -12    0.51    1.57
  -1   6  12    0.84    1.57
  -1  -6  12    1.19    1.90
   1   6 -11   80.38    3.76
   1  -6 -11   82.71    4.80
  -1  -6  11   77.20    6.88
  -1   6  11   68.77    3.81
   1  -6 -10   42.65    3.83
   1   6 -10   39.64    2.80
  -1  -6  10   44.70    3.47
  -1   6  10   41.13    3.12
   1  -6  -9   23.02    3.08
   1   6  -9   23.94    2.22
  -1  -6   9   22.04    2.72
  -1   6   9   20.66    2.60
   1  -6  -8  163.68    5.57
   1   6  -8  163.67    4.61
  -1  -6   8  169.04    5.05
  -1   6   8  158.89    6.93
   1   6  -7   25.51    1.97
   1  -6  -7   21.70    2.65
  -1   6   7   25.56    2.23
  -1  -6   7   22.57    2.10
   1   6  -6   39.45    2.11
   1  -6  -6   42.65    2.66
  -1   6   6   42.50    2.28
  -1  -6   6   43.81    2.30
   1   6  -5    0.86    0.96
   1  -6  -5    1.10    1.22
  -1  -6   5    1.06    1.01
  -1   6   5    0.33    1.82
  -1  -6   5    1.24    0.41
   1  -6  -4  522.20   11.45
   1   6  -4  514.39    9.53
  -1   6   4  499.11   10.59
  -1  -6   4  515.97    9.44
  -1  -6   4  521.78    7.41
   1  -6  -3   90.62    2.89
   1   6  -3   90.88    3.77
  -1  -6   3   91.19    2.68
  -1   6   3   86.45    2.60
  -1  -6   3   92.08    1.33
   1   6  -2   37.36    1.81
   1  -6  -2   35.35    1.96
  -1   6   2   36.10    1.83
  -1  -6   2   37.42    2.74
   1  -6  -1  203.05    5.76
  -1   6   1  199.23    2.69
  -1  -6   1  205.04    4.24
   1  -6   0   -0.04    0.86
  -1   6   0    0.61    0.22
  -1  -6   0    0.66    0.74
   1  -6   1  222.31    5.62
  -1  -6  -1  221.60    5.62
   1  -6   2   19.28    0.48
   1  -6   2   20.85    2.30
  -1  -6  -2   18.03    2.36
   1   6   3  109.98    2.75
   1  -6   3  111.65    2.86
  -1   6  -3  110.18    2.90
  -1  -6  -3  114.36    4.21
   1  -6   4  510.07    9.25
   1   6   4  504.97    9.89
  -1  -6  -4  507.97    8.80
  -1   6  -4  511.42    9.32
   1   6   5   10.36    2.10
   1  -6   5    9.89    1.27
  -1   6  -5    7.03    1.25
  -1  -6  -5    8.99    1.47
   1  -6   6   23.64    1.74
   1   6   6   21.07    1.66
  -1  -6  -6   22.19    2.01
  -1   6  -6   20.52    1.66
   1   6   7    0.08    0.98
   1  -6   7    1.72    1.02
  -1   6  -7    0.51    0.90
  -1  -6  -7   -0.80    1.23
   1  -6   8  119.40    3.94
   1   6   8  115.57    5.36
  -1  -6  -8  119.12    4.30
  -1   6  -8  115.78    3.59
   1  -6   9    5.73    1.81
   1   6   9    5.35    1.59
  -1   6  -9    4.83    2.35
  -1  -6  -9    5.15    2.03
   1   6  10   34.45    2.50
   1  -6  10   35.95    3.02
  -1   6 -10   34.63    2.48
  -1  -6 -10   39.05    3.13
   1  -6  11    6.04    3.74
   1   6  11   12.36    3.13
  -1   6 -11   10.89    1.95
  -1  -6 -11   11.93    3.88
   1  -6  12    2.44    1.81
   1   6  12    1.41    2.37
  -1   6 -12    0.58    1.47
  -1  -6 -12    1.47    1.83
   1  -6  13    6.69    2.54
   1   6  13    6.78    2.99
  -1  -6 -13    5.18    2.29
  -1   6 -13    5.59    1.98
   1   6  14   -0.07    2.26
   1  -6  14    0.53    1.95
  -1   6 -14    1.78    1.53
  -1  -6 -14   -0.22    1.71
   1   6  15   -0.19    3.15
   1  -6  15   12.64    2.77
  -1   6 -15    0.22    2.22
  -1  -6 -15    7.79    2.41
   1  -6  16   -0.11    2.36
   1   6  16   -0.84    1.69
  -1   6 -16    0.10    1.91
  -1  -6 -16    6.91    2.04
   1  -7 -17    0.65    2.16
   1   7 -17   -0.89    1.93
  -1  -7  17   -1.88    2.40
  -1   7  17    0.38    1.73
   1  -7 -16    6.24    2.55
   1   7 -16    0.01    2.23
  -1  -7  16    0.26    2.78
  -1   7  16   -0.70    3.38
   1  -7 -15    0.69    1.86
   1   7 -15   -0.15    1.58
  -1   7  15    0.03    2.35
  -1  -7  15    0.09    3.24
   1  -7 -14   13.57    2.78
   1   7 -14    0.06    2.23
  -1  -7  14    0.21    2.73
  -1   7  14    0.17    3.39
   1  -7 -13   20.00    3.45
   1   7 -13   16.64    2.82
  -1   7  13    0.24    4.31
  -1  -7  13   21.18    3.19
   1  -7 -12   42.30    3.97
   1   7 -12   40.10    3.24
  -1  -7  12   38.19    5.80
  -1   7  12   33.23    3.03
   1   7 -11   -0.32    1.35
   1  -7 -11    1.35    1.78
  -1   7  11    0.53    1.38
  -1  -7  11    0.38    1.63
   1   7 -10    3.57    1.63
   1  -7 -10    2.54    3.81
  -1   7  10    3.31    1.78
  -1  -7  10    2.24    2.01
   1  -7  -9   56.22    6.54
   1   7  -9   50.67    2.99
  -1   7   9   56.06    3.29
  -1  -7   9   55.18    3.38
   1  -7  -8   38.85    3.45
   1   7  -8   38.79    2.43
  -1   7   8   32.66    2.78
  -1  -7   8   38.71    2.73
   1   7  -7   73.32    3.04
   1  -7  -7   78.88    3.93
  -1  -7   7   80.11    4.87
  -1   7   7   75.43    3.31
   1  -7  -6   23.05    3.88
   1   7  -6   20.18    1.82
  -1   7   6   19.96    2.00
  -1  -7   6   19.32    0.81
  -1  -7   6   20.39    3.08
   1  -7  -5    3.38    1.38
   1   7  -5    2.12    1.83
  -1   7   5    1.61    2.05
  -1  -7   5    1.23    1.15
  -1  -7   5    2.08    0.59
   1  -7  -4   73.75    2.89
   1   7  -4   73.73    2.61
  -1   7   4   69.86    4.02
  -1  -7   4   74.68    1.42
  -1  -7   4   75.94    2.67
   1  -7  -3  352.79    8.70
   1   7  -3  335.63    7.97
  -1   7   3  333.91    6.30
  -1  -7   3  345.69    4.41
  -1  -7   3  342.95    6.67
   1  -7  -2    6.56    1.44
  -1  -7   2    7.63    1.25
   1  -7  -1    4.44    2.09
   1   7  -1    3.40    0.21
  -1   7   1    3.54    0.48
  -1  -7   1    3.14    1.06
   1  -7   0 1258.84   21.29
  -1   7   0 1321.15   18.68
  -1  -7   0 1252.72   22.22
   1  -7   1   28.78    1.76
  -1  -7  -1   29.52    1.78
   1  -7   2    6.19    0.17
   1  -7   2    6.70    1.19
  -1  -7  -2    4.91    1.24
   1  -7   3  240.11    4.99
  -1  -7  -3  244.74    4.87
   1  -7   4   64.69    2.32
   1   7   4   61.71    3.43
  -1   7  -4   57.67    2.27
  -1  -7  -4   61.80    2.44
   1  -7   5   63.27    2.43
   1   7   5   63.22    3.60
  -1  -7  -5   57.80    2.56
  -1   7  -5   57.96    2.38
   1  -7   6    5.50    1.39
   1   7   6    5.95    1.39
  -1   7  -6    5.63    1.30
  -1  -7  -6    6.69    2.87
   1  -7   7   94.24    3.36
   1   7   7   91.12    3.18
  -1  -7  -7   93.53    3.82
  -1   7  -7   89.16    3.15
   1   7   8   23.04    3.33
   1  -7   8   19.40    2.14
  -1   7  -8   20.46    1.96
  -1  -7  -8   16.72    2.52
   1   7   9   45.60    2.68
   1  -7   9   50.58    3.02
  -1  -7  -9   48.95    3.31
  -1   7  -9   46.78    3.98
   1  -7  10    1.18    1.65
   1   7  10    1.72    1.37
  -1   7 -10    2.12    1.36
  -1  -7 -10    1.80    1.80
   1   7  11   26.52    3.74
   1  -7  11   28.74    2.97
  -1   7 -11   25.15    2.46
  -1  -7 -11   25.15    3.01
   1  -7  12   44.32    3.69
   1   7  12   46.40    4.42
  -1   7 -12   44.49    3.12
  -1  -7 -12   51.00    6.03
   1  -7  13    9.88    2.60
   1   7  13    6.14    1.97
  -1  -7 -13    6.14    2.58
  -1   7 -13   10.78    2.20
   1  -7  14   21.63    3.25
   1   7  14   15.63    2.28
  -1  -7 -14   17.19    3.00
  -1   7 -14   15.93    2.68
   1   7  15   -0.33    1.28
   1  -7  15    1.57    1.86
  -1  -7 -15    0.66    1.63
  -1   7 -15   -0.19    1.48
   1   7  16   -0.70    1.55
   1  -7  16    2.75    3.74
  -1   7 -16    0.04    1.78
  -1  -7 -16    6.03    3.06
   1  -8 -16    3.00    2.47
   1   8 -16   -0.31    3.40
  -1   8  16    0.02    1.90
  -1  -8  16    0.31    4.12
   1   8 -15    0.09    2.75
   1  -8 -15   -0.04    3.42
  -1   8  15   -0.34    1.55
  -1  -8  15   -0.23    2.08
   1  -8 -14   -0.49    1.95
   1   8 -14   -0.35    2.53
  -1   8  14   -0.10    1.45
  -1  -8  14   -0.14    1.88
   1  -8 -13   38.08    4.21
   1   8 -13   32.11    5.23
  -1   8  13   33.64    3.21
  -1  -8  13   31.64    3.87
   1  -8 -12   22.86    5.87
   1   8 -12   22.85    2.93
  -1   8  12   20.84    4.59
  -1  -8  12   30.14    3.44
   1   8 -11    1.49    1.62
   1  -8 -11    2.05    2.12
  -1  -8  11    0.71    1.90
  -1   8  11    1.60    2.75
   1  -8 -10    0.78    2.10
   1   8 -10    2.01    1.53
  -1   8  10    1.40    1.62
  -1  -8  10    2.59    3.00
   1   8  -9   29.33    2.60
   1  -8  -9   31.68    3.51
  -1   8   9   32.90    2.77
  -1  -8   9   31.13    3.02
   1   8  -8  100.37    3.75
   1  -8  -8  103.64    4.78
  -1  -8   8  100.58    4.17
  -1   8   8  101.19    6.02
   1  -8  -7   56.02    3.62
   1   8  -7   53.18    2.75
  -1  -8   7   52.73    1.38
  -1   8   7   53.18    3.02
  -1  -8   7   55.02    3.02
   1  -8  -6    4.40    1.85
   1   8  -6    2.71    1.34
  -1   8   6    3.51    1.54
  -1  -8   6    3.13    1.41
  -1  -8   6    2.99    0.73
   1   8  -5    5.59    1.34
   1  -8  -5    4.64    1.77
  -1   8   5    4.57    2.56
  -1  -8   5    4.55    1.43
  -1  -8   5    4.16    0.58
   1   8  -4  249.01    5.63
   1  -8  -4  258.11    7.99
  -1  -8   4  253.24    5.66
  -1  -8   4  251.91    3.31
  -1   8   4  245.36    5.40
   1   8  -3  149.40    3.93
   1  -8  -3  148.68    4.03
  -1   8   3  146.93    3.80
  -1  -8   3  152.55    3.81
   1  -8  -2  114.48    3.41
  -1  -8   2  112.56    3.24
   1   8  -1  152.67    2.02
   1  -8  -1  145.75    5.41
  -1  -8   1  152.37    3.75
  -1   8   1  149.06    2.03
   1  -8   0    0.86    0.89
  -1   8   0    0.27    0.12
  -1  -8   0    0.37    0.80
   1  -8   1  337.07    6.74
  -1  -8  -1  331.47    6.25
   1  -8   2   24.61    1.74
  -1  -8  -2   24.96    1.84
   1  -8   3   53.49    2.27
   1  -8   3   53.93    0.72
  -1  -8  -3   54.63    2.39
   1   8   4   93.77    2.95
   1  -8   4   92.91    3.02
  -1   8  -4   93.42    3.02
  -1  -8  -4   94.94    3.16
   1  -8   5    3.24    1.23
   1   8   5    2.14    2.12
  -1   8  -5    3.37    1.89
  -1  -8  -5    1.96    1.47
   1  -8   6   26.91    3.30
   1   8   6   27.70    2.11
  -1   8  -6   26.86    2.04
  -1  -8  -6   26.12    2.49
   1  -8   7    0.08    1.67
   1   8   7    0.19    1.02
  -1  -8  -7   -0.94    1.25
  -1   8  -7    1.12    0.97
   1  -8   8   55.37    4.48
   1   8   8   54.69    4.38
  -1  -8  -8   51.54    3.34
  -1   8  -8   51.03    2.72
   1   8   9   14.33    1.93
   1  -8   9   13.24    3.42
  -1   8  -9   10.40    1.97
  -1  -8  -9   10.75    2.43
   1   8  10   -0.46    1.08
   1  -8  10    0.15    2.15
  -1  -8 -10   -0.87    1.39
  -1   8 -10    1.80    1.13
   1  -8  11    1.74    1.71
   1   8  11    3.92    2.27
  -1   8 -11    0.49    1.52
  -1  -8 -11    0.59    1.80
   1  -8  12    0.09    2.37
   1   8  12    6.90    1.81
  -1   8 -12    8.51    2.04
  -1  -8 -12    7.55    2.40
   1   8  13   32.77    2.75
   1  -8  13   38.41    3.67
  -1   8 -13   32.31    5.06
  -1  -8 -13   42.03    3.68
   1  -8  14    2.41    3.05
   1   8  14   -0.08    1.29
  -1  -8 -14    2.09    2.88
  -1   8 -14    0.11    2.52
   1  -8  15    7.04    2.62
   1   8  15   -0.10    1.78
  -1  -8 -15    5.28    2.37
  -1   8 -15    0.06    3.32
   1   8  16   -0.13    1.79
   1  -8  16    6.73    2.67
  -1   8 -16    0.21    3.51
  -1  -8 -16    2.83    2.36
   1   9 -16    0.43    2.10
   1  -9 -16    2.68    2.46
  -1   9  16   -0.04    1.85
  -1  -9  16    0.43    2.59
   1   9 -15   -0.03    2.66
   1  -9 -15    9.10    3.26
  -1   9  15    8.02    2.29
  -1  -9  15   -0.67    5.01
   1   9 -14    0.69    2.00
   1  -9 -14   -0.09    2.43
  -1  -9  14   -0.59    2.40
  -1   9  14    3.29    1.77
   1   9 -13    0.31    1.80
   1  -9 -13    2.32    2.21
  -1   9  13    0.80    1.63
  -1  -9  13    0.21    2.02
   1  -9 -12   17.55    3.50
   1   9 -12   22.93    2.87
  -1   9  12   17.37    2.65
  -1  -9  12   -0.04    4.97
   1  -9 -11    0.72    1.91
   1   9 -11    0.75    2.47
  -1  -9  11    0.87    1.76
  -1   9  11   -0.59    2.46
   1  -9 -10    6.42    2.59
   1   9 -10    5.56    2.05
  -1   9  10    6.00    2.04
  -1  -9  10    7.02    2.25
   1   9  -9   68.97    3.54
   1  -9  -9   67.62    6.91
  -1  -9   9   71.52    3.89
  -1  -9   9   66.20    1.89
  -1   9   9   62.76    3.43
   1  -9  -8    7.19    3.91
   1   9  -8    5.24    2.81
  -1  -9   8    4.94    1.94
  -1   9   8    5.02    3.22
  -1  -9   8    4.56    1.07
   1   9  -7   90.75    3.70
   1  -9  -7  102.23    7.27
  -1   9   7   96.15    3.86
  -1  -9   7   98.11    2.32
  -1  -9   7   97.31    5.86
   1  -9  -6    2.86    2.77
   1   9  -6    0.45    2.02
  -1   9   6    0.58    2.38
  -1  -9   6    1.17    0.53
  -1  -9   6    0.63    2.13
   1   9  -5   91.44    3.38
   1  -9  -5   93.22    4.02
  -1  -9   5   96.79    5.12
  -1  -9   5   94.91    1.43
  -1   9   5   95.44    3.59
   1  -9  -4  157.49    4.75
   1   9  -4  150.85    4.29
  -1   9   4  152.10    4.30
  -1  -9   4  150.26    1.83
  -1  -9   4  153.32    4.23
   1  -9  -3    8.84    1.82
  -1  -9   3    7.47    1.51
   1  -9  -2   15.14    2.05
  -1  -9   2   18.55    1.68
   1   9  -1   11.35    0.26
   1  -9  -1   10.09    3.00
  -1   9   1   12.16    0.37
  -1  -9   1   11.94    1.49
   1  -9   0   22.71    2.02
   1  -9   0   24.38    1.79
   1   9   0   21.75    0.64
  -1  -9   0   22.58    2.70
   1  -9   1    6.99    1.43
  -1  -9  -1    6.66    1.48
   1  -9   2   54.10    2.47
  -1  -9  -2   52.78    2.58
   1  -9   3   19.22    2.77
  -1  -9  -3   14.85    1.96
   1  -9   4  120.64    1.50
   1  -9   4  125.25    3.76
  -1  -9  -4  127.00    3.99
   1   9   5  221.05    5.21
   1  -9   5  219.92    5.53
  -1  -9  -5  228.25    5.68
  -1   9  -5  216.14    5.40
   1   9   6    2.44    2.51
   1  -9   6    3.51    1.49
  -1  -9  -6    6.28    2.93
  -1   9  -6    4.09    2.31
   1  -9   7   82.25    3.42
   1   9   7   80.13    3.23
  -1   9  -7   77.54    3.30
  -1  -9  -7   82.96    3.86
   1   9   8   18.94    2.15
   1  -9   8   17.22    2.23
  -1  -9  -8   18.85    2.71
  -1   9  -8   18.32    3.38
   1  -9   9   57.74    3.36
   1   9   9   55.18    2.85
  -1   9  -9   49.21    3.12
  -1  -9  -9   58.12    3.61
   1   9  10   23.61    3.72
   1  -9  10   26.28    2.86
  -1  -9 -10   25.84    2.95
  -1   9 -10   22.63    2.56
   1   9  11    2.60    1.43
   1  -9  11   -0.27    1.83
  -1  -9 -11    1.90    3.24
  -1   9 -11    1.18    2.60
   1   9  12    4.24    1.73
   1  -9  12   -0.11    3.73
  -1  -9 -12    6.82    3.78
  -1   9 -12    6.34    2.10
   1   9  13    0.08    1.26
   1  -9  13    1.33    1.75
  -1  -9 -13    0.98    1.75
  -1   9 -13   -0.11    1.56
   1   9  14    0.11    1.32
   1  -9  14   -0.32    1.90
  -1  -9 -14   -1.95    1.84
  -1   9 -14   -0.04    1.65
   1  -9  15    3.78    2.13
   1   9  15    0.01    1.43
  -1   9 -15    0.04    1.74
  -1  -9 -15   -0.54    1.94
   1 -10 -15    9.13    3.21
   1  10 -15   -0.36    2.70
  -1 -10  15   -0.06    3.12
  -1 -10  15    5.47    1.43
  -1  10  15    4.15    2.33
   1  10 -14   -0.44    2.36
   1 -10 -14   -0.29    2.81
  -1 -10  14    3.66    1.18
  -1  10  14    4.05    2.03
  -1 -10  14   -0.23    4.32
   1 -10 -13   31.23    4.15
   1  10 -13   32.73    3.65
  -1 -10  13   28.59    4.01
  -1  10  13   30.34    3.11
  -1 -10  13   29.05    1.84
   1  10 -12   -1.72    1.81
   1 -10 -12    1.59    3.42
  -1 -10  12   -0.31    1.91
  -1  10  12    0.44    1.57
  -1 -10  12    1.36    0.80
   1  10 -11   72.45    4.20
   1 -10 -11   72.41    4.92
  -1 -10  11   70.74    4.61
  -1  10  11   68.69    3.79
  -1 -10  11   69.56    2.24
   1  10 -10   14.58    4.17
   1 -10 -10   16.78    3.25
  -1  10  10   14.86    4.10
  -1 -10  10   16.68    2.95
  -1 -10  10   18.59    1.68
   1 -10  -9   12.65    2.87
   1  10  -9   12.64    2.36
  -1 -10   9   11.80    0.88
  -1 -10   9   12.23    2.53
  -1  10   9   11.79    2.22
   1 -10  -8   53.65    4.03
   1  10  -8   52.27    3.22
  -1 -10   8   49.65    3.45
  -1 -10   8   50.87    1.35
  -1  10   8   51.15    3.23
   1 -10  -7    2.45    1.93
   1  10  -7    1.72    1.48
  -1 -10   7    1.66    0.60
  -1  10   7    1.48    1.58
  -1 -10   7    0.39    1.56
   1 -10  -6   10.39    2.50
   1  10  -6   10.66    1.95
  -1 -10   6   10.90    0.65
  -1  10   6   12.11    2.13
  -1 -10   6   11.57    2.03
   1  10  -5    7.85    1.78
   1 -10  -5    7.91    2.20
  -1 -10   5    7.66    1.80
  -1 -10   5    7.38    0.35
  -1  10   5    8.02    1.92
   1 -10  -4  155.84    5.08
  -1 -10   4  152.68    4.53
   1 -10  -3   53.32    3.17
  -1 -10   3   54.07    2.74
   1 -10  -2    5.46    1.82
  -1  10   2    5.26    0.65
  -1 -10   2    5.42    1.47
   1  10  -1  274.26    3.19
   1 -10  -1  278.62    6.40
  -1 -10   1  274.28    6.27
  -1  10   1  280.89    3.68
   1 -10   0    0.32    0.98
   1  10   0    0.20    0.27
   1 -10   0    0.42    2.00
  -1 -10   0    0.95    0.96
  -1 -10   0    1.46    1.12
   1 -10   1  182.86    4.76
  -1 -10  -1  181.43    4.64
  -1 -10  -1  174.10    4.72
   1 -10   2    1.52    1.23
  -1 -10  -2    1.81    1.41
   1 -10   3   24.43    3.30
  -1 -10  -3   25.85    3.96
   1 -10   4   35.62    3.57
  -1 -10  -4   33.08    2.70
   1 -10   5   20.57    2.15
   1 -10   5   20.64    0.42
  -1 -10  -5   24.60    2.49
   1 -10   6   -0.37    1.01
   1  10   6   -0.35    0.99
  -1  10  -6    0.73    0.94
  -1 -10  -6   -0.49    1.15
   1 -10   7   -0.08    1.22
   1  10   7    0.94    1.17
  -1 -10  -7    0.44    1.41
  -1  10  -7    0.22    1.19
   1 -10   8   12.14    2.24
   1  10   8   14.30    1.98
  -1  10  -8   13.02    2.15
  -1 -10  -8   12.62    2.51
   1  10   9   19.79    2.22
   1 -10   9   17.24    2.63
  -1  10  -9   19.61    2.48
  -1 -10  -9   20.36    2.75
   1  10  10    8.03    1.83
   1 -10  10    3.64    3.59
  -1 -10 -10    7.54    2.40
  -1  10 -10    5.38    3.28
   1  10  11   12.03    2.05
   1 -10  11   12.28    2.66
  -1 -10 -11   12.62    2.71
  -1  10 -11   11.26    2.47
   1 -10  12    0.24    1.64
   1  10  12    0.27    1.20
  -1 -10 -12   -1.65    1.64
  -1  10 -12   -0.55    1.47
   1 -10  13   13.09    2.37
   1  10  13    0.32    1.70
  -1 -10 -13   -0.12    2.36
  -1  10 -13    0.00    2.16
   1  10  14    0.06    2.56
   1 -10  14   -4.29    2.29
  -1 -10 -14    0.54    3.70
  -1  10 -14   -0.25    1.96
   1 -10  15    8.34    2.92
   1  10  15   -0.07    3.33
  -1 -10 -15    7.95    2.76
  -1  10 -15   -0.16    2.51
   1  11 -15    0.60    4.38
   1 -11 -15    0.53    3.26
  -1 -11  15    0.28    3.23
  -1  11  15    5.93    2.37
  -1 -11  15    5.60    2.03
   1  11 -14    0.21    2.92
   1 -11 -14    0.26    3.62
  -1  11  14   -0.09    2.63
  -1 -11  14    0.51    1.26
  -1 -11  14   -0.20    2.13
   1 -11 -13   -0.17    1.88
   1  11 -13   -0.39    1.57
  -1 -11  13    0.13    3.04
  -1 -11  13    0.40    1.05
  -1  11  13    0.18    2.24
   1  11 -12   27.10    3.49
   1 -11 -12   29.89    4.02
  -1 -11  12   23.49    3.79
  -1 -11  12   27.26    1.54
  -1  11  12   30.09    3.05
   1 -11 -11   18.52    3.51
   1  11 -11   14.83    3.07
  -1 -11  11   18.42    1.19
  -1 -11  11   23.71    3.34
  -1  11  11   18.76    2.66
   1  11 -10   -1.18    1.88
   1 -11 -10    3.22    3.85
  -1 -11  10    1.99    0.62
  -1 -11  10    3.23    2.01
  -1  11  10    1.06    1.70
   1 -11  -9   12.31    2.97
   1  11  -9   10.14    3.93
  -1 -11   9   14.05    4.32
  -1 -11   9   12.79    1.19
  -1  11   9    9.66    2.27
   1 -11  -8   11.36    2.78
   1  11  -8   10.90    2.30
  -1 -11   8   11.02    2.38
  -1 -11   8   10.18    0.61
  -1  11   8    9.23    2.23
   1  11  -7  110.78    6.27
   1 -11  -7  112.53    5.01
  -1 -11   7  111.45    4.53
  -1  11   7  106.77    6.35
  -1 -11   7  105.12    1.72
   1 -11  -6   27.87    3.20
   1  11  -6   26.20    2.61
  -1 -11   6   25.15    0.61
  -1 -11   6   26.68    2.68
  -1  11   6   24.63    2.66
   1 -11  -5  263.65    7.23
  -1 -11   5  259.64    6.79
   1 -11  -4   43.79    3.38
  -1 -11   4   41.26    2.83
   1 -11  -3   42.90    3.14
  -1 -11   3   37.74    2.58
   1 -11  -2    1.12    1.29
  -1  11   2    0.14    0.39
  -1 -11   2    0.06    1.04
   1 -11  -1    1.50    1.65
  -1 -11   1    2.63    1.31
  -1  11   1    1.85    0.26
   1 -11   0    5.53    1.92
   1 -11   0    5.54    1.63
   1  11   0    5.31    0.26
  -1 -11   0    5.27    1.79
  -1 -11   0    6.19    1.57
   1 -11   1   39.59    2.88
   1 -11   1   44.34    2.63
  -1 -11  -1   41.52    2.81
  -1 -11  -1   42.73    2.49
   1 -11   2    9.68    1.80
  -1 -11  -2    8.87    2.00
   1 -11   3   17.35    3.35
  -1 -11  -3   18.16    3.95
   1 -11   4   16.78    3.42
  -1 -11  -4   19.82    2.46
   1 -11   5  191.62    7.34
  -1 -11  -5  194.48    5.78
   1 -11   6    8.03    3.10
   1 -11   6    8.86    0.47
   1 -11   6    8.97    0.29
  -1 -11  -6    9.58    2.25
   1 -11   7   26.96    4.16
   1  11   7   25.80    2.41
  -1 -11  -7   30.49    2.88
  -1  11  -7   25.16    2.61
   1 -11   8   -0.16    1.91
   1  11   8   -0.30    1.01
  -1 -11  -8    0.96    1.27
  -1  11  -8   -0.54    1.10
   1 -11   9   18.05    2.58
   1  11   9   12.82    3.55
  -1 -11  -9   16.74    2.81
  -1  11  -9   12.10    3.89
   1 -11  10   -1.02    1.50
   1  11  10   -0.60    1.20
  -1 -11 -10    2.09    1.57
  -1  11 -10   -1.07    1.40
   1  11  11   19.03    2.32
   1 -11  11   15.84    3.01
  -1 -11 -11   19.81    3.12
  -1  11 -11   19.71    2.85
   1 -11  12    0.12    2.29
   1  11  12    0.02    2.70
  -1  11 -12    0.75    2.09
  -1 -11 -12   14.42    3.76
   1 -11  13   -1.98    2.84
   1  11  13    0.06    1.21
  -1  11 -13    0.02    2.45
  -1 -11 -13   -0.08    1.67
   1 -11  14    1.04    2.04
   1  11  14    0.36    1.44
  -1 -11 -14    0.19    1.99
  -1  11 -14    0.06    2.86
   1 -12 -14    0.14    2.97
   1  12 -14   -0.67    2.50
  -1 -12  14    3.14    1.43
  -1  12  14    4.20    2.13
  -1 -12  14   -0.43    2.94
   1  12 -13    0.18    2.75
   1 -12 -13    0.11    5.34
  -1  12  13   12.51    2.41
  -1 -12  13   -0.49    3.15
   1 -12 -12   -0.21    2.05
   1  12 -12    0.25    2.96
  -1  12  12    2.83    2.65
  -1 -12  12    1.07    3.35
  -1 -12  12    0.38    0.61
   1  12 -11   46.35    4.04
   1 -12 -11   45.21    4.56
  -1  12  11   47.59    3.51
  -1 -12  11   53.99    4.40
  -1 -12  11   44.53    2.15
   1 -12 -10   11.09    3.12
   1  12 -10    9.71    2.75
  -1 -12  10   11.02    0.81
  -1 -12  10   12.79    2.98
  -1  12  10   11.58    2.30
   1  12  -9   22.50    3.09
   1 -12  -9   32.56    3.51
  -1  12   9   21.90    2.71
  -1 -12   9   24.94    3.21
  -1 -12   9   23.61    1.20
   1  12  -8   34.04    3.15
   1 -12  -8   28.70    5.65
  -1 -12   8   32.67    5.16
  -1  12   8   32.98    2.94
  -1 -12   8   29.19    0.74
   1  12  -7    1.23    1.97
   1 -12  -7    4.39    2.31
  -1 -12   7    4.95    2.06
  -1 -12   7    3.54    0.31
  -1  12   7    3.50    1.83
   1 -12  -6    1.12    1.74
  -1 -12   6    0.12    1.48
   1 -12  -5   11.49    2.79
  -1 -12   5   16.45    2.31
   1 -12  -4    1.74    1.73
  -1 -12   4    0.10    1.42
   1 -12  -3  209.74    6.29
  -1 -12   3  202.76    5.73
  -1  12   3  200.52    3.33
   1 -12  -2   19.87    2.62
  -1 -12   2   17.29    2.19
  -1  12   2   17.80    0.79
   1 -12  -1   59.70    3.54
   1 -12  -1   62.11    3.19
  -1 -12   1   58.37    3.07
   1 -12   0    0.64    1.48
   1  12   0    0.65    0.13
   1 -12   0    0.72    2.10
  -1 -12   0    1.20    1.26
  -1 -12   0    0.99    2.38
   1 -12   1  174.53    6.88
   1 -12   1  173.78    5.38
  -1 -12  -1  168.82    5.04
  -1 -12  -1  171.74    7.44
   1 -12   2    2.04    2.42
  -1 -12  -2    1.46    2.76
   1 -12   3  129.43    6.28
  -1 -12  -3  134.36    7.04
   1 -12   4    1.89    2.51
  -1 -12  -4    1.72    2.94
   1 -12   5    2.37    2.49
  -1 -12  -5    1.05    1.69
   1 -12   6   -0.39    1.16
  -1 -12  -6    0.25    1.26
   1 -12   7    0.47    1.03
   1 -12   7   -0.04    0.19
   1 -12   7    0.05    0.17
  -1 -12  -7    0.29    1.14
   1 -12   8   12.75    2.34
   1  12   8    0.27    1.80
   1 -12   8   10.37    0.76
  -1 -12  -8    6.49    2.45
   1  12   9   17.71    2.35
   1 -12   9   18.84    2.78
  -1  12  -9   13.10    2.72
  -1 -12  -9   18.69    4.83
   1  12  10    0.23    1.82
   1 -12  10    9.34    2.36
  -1  12 -10    6.31    2.18
  -1 -12 -10    0.77    3.96
   1  12  11    0.45    3.91
   1 -12  11   24.34    3.21
  -1 -12 -11   25.07    3.12
  -1  12 -11   -0.04    4.68
   1  12  12   -0.05    1.20
   1 -12  12    1.86    2.70
  -1 -12 -12   -0.16    1.58
  -1  12 -12    0.15    1.46
   1 -12  13   12.46    2.53
   1  12  13   -0.23    1.82
  -1  12 -13    0.02    2.30
  -1 -12 -13   -0.07    2.52
   1 -13 -13   -0.58    2.44
   1  13 -13    0.21    2.13
  -1 -13  13    0.45    2.48
  -1  13  13    2.00    1.84
   1 -13 -12    0.20    5.17
   1  13 -12    0.37    2.72
  -1 -13  12    5.37    2.95
  -1  13  12    7.44    2.28
   1 -13 -11    0.10    2.10
   1  13 -11   -0.71    1.87
  -1 -13  11    1.42    3.33
  -1  13  11   -1.01    1.61
   1 -13 -10   -0.22    1.87
   1  13 -10    0.61    2.68
  -1 -13  10   -1.41    1.79
  -1  13  10   -0.99    1.42
  -1 -13  10   -0.16    0.33
   1  13  -9   62.01    4.38
   1 -13  -9   65.39    4.73
  -1 -13   9   63.02    4.56
  -1  13   9   63.68    3.71
   1 -13  -8    0.29    1.71
   1  13  -8    0.51    1.52
  -1  13   8   -0.69    1.36
  -1 -13   8    1.10    1.55
   1 -13  -7  185.93    9.55
  -1 -13   7  176.39    8.87
   1 -13  -6    8.81    4.53
  -1 -13   6    9.40    2.41
   1 -13  -5   10.53    2.65
  -1 -13   5    8.93    2.33
   1 -13  -4    0.24    1.53
  -1  13   4    0.28    0.42
  -1 -13   4   -0.33    1.32
   1 -13  -3  160.68    5.55
  -1 -13   3  147.76    5.11
  -1  13   3  146.58    2.53
   1 -13  -2   20.73    2.72
  -1 -13   2   17.25    2.38
  -1  13   2   15.69    0.48
   1 -13  -1   25.63    2.97
   1 -13  -1   27.24    2.69
  -1 -13   1   25.36    2.64
  -1 -13   1   27.83    2.84
   1 -13   0   16.10    2.57
   1 -13   0   14.94    2.41
  -1 -13   0   15.31    3.66
  -1 -13   0   17.40    2.54
   1  13   1   10.76    0.42
   1 -13   1   10.16    4.03
   1 -13   1   10.99    2.24
  -1 -13  -1   12.26    2.33
  -1 -13  -1   15.38    2.13
   1 -13   2    2.70    1.73
   1 -13   2    2.38    1.83
  -1 -13  -2    2.53    1.58
  -1 -13  -2    1.78    1.81
   1 -13   3   76.05    5.57
  -1 -13  -3   81.77    3.90
   1 -13   4   11.73    3.67
  -1 -13  -4   13.29    4.08
   1 -13   5   17.77    2.55
  -1 -13  -5   18.63    4.47
   1 -13   6   15.46    2.48
  -1 -13  -6   12.92    4.43
   1 -13   7  131.36    5.25
  -1 -13  -7  142.88    7.91
   1 -13   8   -0.84    1.54
   1 -13   8    0.35    0.19
   1 -13   8    0.41    0.19
  -1 -13  -8    0.97    2.65
   1 -13   9   20.85    3.14
  -1 -13  -9   21.12    3.13
   1  13  10   -0.12    1.08
   1 -13  10    0.48    1.37
  -1 -13 -10   -0.39    1.37
   1 -13  11    1.43    2.66
   1  13  11    0.10    1.23
  -1  13 -11    0.02    1.54
  -1 -13 -11   -0.13    1.65
   1 -13  12    3.33    2.03
   1  13  12    0.15    1.50
  -1  13 -12   -0.55    1.88
  -1 -13 -12   -0.05    2.01
   1  13  13   -0.28    1.11
   1 -13  13    0.54    1.59
  -1 -13 -13   -0.01    1.55
  -1  13 -13   -0.04    1.43
   1  14 -13   -0.47    4.73
   1 -14 -13   -0.16    3.40
  -1 -14  13    0.01    3.46
  -1  14  13   18.88    4.13
   1  14 -12    0.31    2.43
   1 -14 -12    0.07    2.78
  -1  14  12    2.31    2.05
  -1 -14  12    3.03    2.64
   1  14 -11    0.04    3.32
   1 -14 -11    0.15    6.00
  -1 -14  11   18.64    3.52
  -1  14  11   18.05    2.80
   1 -14 -10    0.04    2.01
   1  14 -10    1.53    1.81
  -1 -14  10   -1.64    1.91
  -1  14  10   -1.03    1.57
   1 -14  -9   14.05    3.42
  -1 -14   9   14.58    3.21
   1 -14  -8    1.45    1.84
  -1 -14   8   -0.64    1.74
   1 -14  -7   12.74    3.08
  -1 -14   7   14.25    2.93
   1 -14  -6    1.92    3.56
  -1 -14   6    1.06    3.05
   1 -14  -5    7.15    2.75
  -1 -14   5    9.89    2.51
   1 -14  -4   88.02    4.62
  -1 -14   4   78.96    4.37
  -1  14   4   81.48    2.33
   1 -14  -3   63.40    3.91
  -1 -14   3   57.95    3.68
  -1  14   3   56.88    1.53
   1 -14  -2    7.47    2.28
  -1  14   2    5.42    0.34
  -1 -14   2    1.43    1.94
  -1 -14   2    7.85    2.12
   1 -14  -1  100.10    4.46
   1 -14  -1   93.51    4.35
  -1 -14   1   97.79    6.28
  -1 -14   1   93.47    4.25
   1 -14   0   -0.38    1.31
   1 -14   0    1.79    2.28
  -1 -14   0   -0.41    1.28
  -1 -14   0   -0.23    1.25
   1 -14   1  113.02    4.77
   1 -14   1  113.77    4.77
  -1 -14  -1  111.33    4.57
  -1 -14  -1  114.32    4.56
   1 -14   2   21.36    2.91
   1 -14   2   28.18    2.98
  -1 -14  -2   27.08    2.76
  -1 -14  -2   24.07    2.90
   1 -14   3   68.12    3.90
  -1 -14  -3   68.67    3.87
   1 -14   4   18.62    4.25
  -1 -14  -4   17.14    2.82
   1 -14   5   20.72    2.84
  -1 -14  -5   19.91    4.83
   1 -14   6    8.45    2.40
  -1 -14  -6   10.14    4.14
   1 -14   7   11.62    2.58
  -1 -14  -7   11.30    2.69
   1 -14   8    0.03    1.89
  -1 -14  -8    2.49    1.92
   1 -14   9    9.35    2.54
  -1 -14  -9   -0.03    2.51
   1 -14  10    0.06    2.29
  -1 -14 -10   -0.05    1.42
   1 -14  11   16.67    3.67
  -1 -14 -11   23.32    3.58
   1  14  12   -0.21    1.29
   1 -14  12    1.59    2.02
  -1 -14 -12    0.14    1.93
   1  15 -12    0.32    2.22
   1 -15 -12   -0.17    2.41
  -1 -15  12   -0.07    2.37
  -1  15  12    1.18    1.86
   1 -15 -11   -0.08    2.49
  -1 -15  11   -1.45    2.41
   1 -15 -10   -0.52    2.37
  -1 -15  10   -1.00    3.62
   1 -15  -9    4.52    2.97
  -1 -15   9    6.34    2.88
   1 -15  -8    4.06    2.86
  -1 -15   8    6.42    2.76
   1 -15  -7   38.38    4.03
  -1 -15   7   34.70    3.91
   1 -15  -6    1.55    2.99
  -1 -15   6    0.61    2.64
  -1  15   6    0.22    0.58
   1 -15  -5  140.07    5.86
  -1 -15   5  126.58    5.66
  -1  15   5  116.10    2.61
   1 -15  -4   -0.19    1.68
  -1 -15   4    2.17    1.50
  -1  15   4    0.05    0.58
   1 -15  -3  114.87    5.06
  -1  15   3   97.10    1.72
  -1 -15   3  106.74    4.78
   1 -15  -2    7.18    2.54
   1 -15  -2    7.16    2.39
  -1 -15   2    7.62    2.40
  -1 -15   2    6.33    3.74
   1 -15  -1   26.65    3.09
   1 -15  -1   25.45    5.05
  -1 -15   1   22.57    3.06
  -1 -15   1   19.29    4.95
   1 -15   0   18.80    4.26
   1 -15   0   12.67    2.80
  -1 -15   0   12.66    2.60
  -1 -15   0   14.94    2.64
   1 -15   1   21.07    2.96
   1 -15   1   23.29    2.91
  -1 -15  -1   16.07    2.84
  -1 -15  -1   20.98    2.83
   1  15   2    1.77    0.30
   1 -15   2   -0.30    1.95
   1 -15   2    1.95    1.83
  -1 -15  -2    2.29    1.86
  -1 -15  -2    0.78    1.84
   1 -15   3   44.33    3.53
   1 -15   3   36.39    3.40
  -1 -15  -3   39.75    3.43
  -1 -15  -3   42.00    3.47
   1 -15   4    1.12    1.70
  -1 -15  -4    0.33    1.76
   1 -15   5   79.19    6.71
  -1 -15  -5   76.06    6.94
   1 -15   6    4.46    2.23
  -1 -15  -6    2.25    3.77
   1 -15   7    5.39    2.43
  -1 -15  -7    4.97    2.43
   1 -15   8   -0.62    1.68
  -1 -15  -8    0.21    1.65
   1 -15   9    3.80    3.43
  -1 -15  -9    0.19    2.12
   1 -15  10    3.31    2.35
  -1 -15 -10   -0.28    2.36
   1 -15  11    2.74    2.42
  -1 -15 -11   -0.09    2.44
   1 -16 -10    0.47    4.09
  -1 -16  10    0.87    2.37
   1 -16  -9   12.65    3.73
  -1 -16   9   10.41    3.54
   1 -16  -8   -1.61    2.17
  -1 -16   8    0.49    2.09
   1 -16  -7    7.18    2.91
  -1 -16   7    7.79    2.78
  -1  16   7    4.64    1.00
   1 -16  -6    7.69    4.68
  -1  16   6    5.40    0.87
  -1 -16   6    9.34    4.30
   1 -16  -5    4.78    2.53
  -1  16   5    2.71    0.63
  -1 -16   5    4.75    2.36
   1 -16  -4    1.60    2.19
  -1  16   4    1.62    0.42
  -1 -16   4    2.31    2.10
   1 -16  -3   35.33    3.56
   1 -16  -3   36.38    3.66
  -1 -16   3   37.37    3.49
  -1 -16   3   31.94    3.48
   1 -16  -2    0.08    4.03
   1 -16  -2    3.41    2.31
  -1 -16   2    4.13    2.22
  -1 -16   2    6.11    2.24
   1 -16  -1   69.36    4.46
   1 -16  -1   68.84    4.54
  -1 -16   1   64.39    4.20
  -1 -16   1   77.36    4.21
   1 -16   0   -1.33    1.43
   1 -16   0    0.02    1.41
  -1 -16   0    0.63    1.36
  -1 -16   0    0.79    1.36
   1 -16   1   80.77    4.47
   1 -16   1   82.07    7.04
  -1 -16  -1   77.43    4.33
  -1 -16  -1   84.24    4.62
   1 -16   2    0.78    1.49
   1  16   2    0.10    0.16
   1  16   2    0.13    0.26
   1 -16   2    0.63    1.50
  -1 -16  -2   -0.60    1.43
  -1 -16  -2    0.98    1.43
   1 -16   3   30.54    3.36
   1 -16   3   32.17    3.52
  -1 -16  -3   33.74    3.37
  -1 -16  -3   28.14    3.37
   1 -16   4    1.63    2.03
   1 -16   4    3.51    2.10
  -1 -16  -4    0.89    2.08
  -1 -16  -4    1.31    1.99
   1 -16   5    3.63    3.91
  -1 -16  -5    4.43    2.42
   1 -16   6    9.61    2.87
  -1 -16  -6    8.78    4.59
   1 -16   7    0.65    2.07
  -1 -16  -7    1.14    2.01
   1 -16   8    0.47    1.60
  -1 -16  -8   -0.34    1.58
   1 -16   9    5.29    3.90
  -1 -16  -9   -0.04    2.41
   1 -16  10    0.01    1.83
  -1 -16 -10    0.25    1.89
   1 -17  -9   11.31    4.07
  -1 -17   9   14.13    3.77
   1 -17  -8    1.31    2.50
  -1 -17   8    2.69    2.46
  -1  17   8    0.64    0.86
   1 -17  -7   22.79    4.05
  -1 -17   7   24.57    3.84
  -1  17   7   18.90    2.01
   1 -17  -6    3.35    3.70
  -1 -17   6   -0.20    2.13
   1 -17  -5   70.05    5.01
  -1 -17   5   66.46    5.03
   1 -17  -4    0.98    1.88
  -1 -17   4    0.27    1.79
  -1 -17   4   -0.25    1.57
   1 -17  -3   33.58    3.94
   1 -17  -3   35.51    3.82
  -1 -17   3   34.18    3.64
  -1 -17   3   34.57    5.94
   1 -17  -2    0.01    2.49
   1 -17  -2    9.56    2.51
  -1 -17   2    6.15    2.33
  -1 -17   2    0.02    2.35
   1 -17  -1    7.85    2.56
   1 -17  -1   -0.30    2.49
  -1 -17   1   -0.03    2.33
  -1 -17   1    8.34    2.38
   1 -17   0    0.25    1.81
   1 -17   0    0.04    1.75
  -1 -17   0    2.46    2.81
  -1 -17   0    0.08    1.70
   1 -17   1    1.07    2.00
   1 -17   1    1.13    1.94
  -1 -17  -1    0.89    1.93
  -1 -17  -1    0.12    1.87
   1 -17   2    5.14    3.93
   1 -17   2    3.66    2.33
  -1 -17  -2   -0.10    3.85
  -1 -17  -2    3.63    2.37
   1 -17   3   11.33    2.84
   1 -17   3   12.03    4.58
  -1 -17  -3   -0.11    2.73
  -1 -17  -3   12.50    2.77
   1 -17   4    3.46    2.26
   1 -17   4    2.71    2.37
  -1 -17  -4    2.51    2.25
  -1 -17  -4    1.95    2.28
   1 -17   5    0.06    2.66
   1 -17   5   18.05    5.08
  -1 -17  -5   18.50    3.17
  -1 -17  -5   22.07    3.02
   1 -17   6    4.46    2.56
  -1 -17  -6    0.55    4.14
   1 -17   7   12.61    3.28
  -1 -17  -7   10.73    3.28
   1 -17   8   -0.99    2.27
  -1 -17  -8   -0.55    2.22
   1 -18  -7    1.93    2.84
  -1 -18   7    1.91    2.65
   1 -18  -6    0.01    4.59
  -1 -18   6    2.86    2.70
   1 -18  -5    3.00    2.47
  -1 -18   5   -0.22    2.38
   1 -18  -4    1.04    2.38
   1 -18  -4    2.48    2.33
  -1 -18   4    1.80    2.34
  -1 -18   4   -0.03    2.25
   1 -18  -3    8.94    5.10
   1 -18  -3   10.49    4.81
  -1 -18   3   12.52    3.02
  -1 -18   3    0.13    2.85
   1 -18  -2    7.52    2.68
   1 -18  -2    0.20    2.67
  -1 -18   2    7.29    2.62
  -1 -18   2    0.30    2.52
   1 -18  -1    0.18    3.10
   1 -18  -1   17.05    3.18
  -1 -18   1    0.35    4.81
  -1 -18   1   18.52    4.84
   1 -18   0   -0.02    1.59
   1 -18   0   -0.08    1.50
  -1 -18   0    0.53    1.50
  -1 -18   0   -0.55    1.44
   1 -18   1   22.17    3.70
   1 -18   1   21.77    3.60
  -1 -18  -1   22.27    3.55
  -1 -18  -1   26.06    3.52
   1 -18   2   14.55    3.20
   1 -18   2   18.23    5.07
  -1 -18  -2    0.02    3.07
  -1 -18  -2   14.82    3.12
   1 -18   3   35.76    4.01
   1 -18   3   31.18    3.89
  -1 -18  -3   29.77    3.77
  -1 -18  -3   28.37    3.85
   1 -18   4   -0.21    2.05
   1 -18   4   -0.08    1.97
  -1 -18  -4    0.20    1.99
  -1 -18  -4   -2.14    1.99
   1 -18   5    1.99    2.93
   1 -18   5    5.74    2.74
  -1 -18  -5    4.23    2.88
  -1 -18  -5    6.91    2.73
   1 -18   6    1.19    2.38
   1 -18   6    4.30    4.65
  -1 -18  -6    5.93    2.60
  -1 -18  -6    5.22    4.72
   1 -18   7   -1.76    2.67
  -1 -18  -7   -2.45    2.60
   1 -19  -5   12.35    3.49
   1 -19  -5   14.19    3.75
  -1 -19   5   14.07    3.66
  -1 -19   5   -0.04    3.33
   1 -19  -4    1.34    2.73
   1 -19  -4    6.54    4.26
  -1 -19   4    0.35    2.54
  -1 -19   4    3.53    4.32
   1 -19  -3    8.69    3.22
   1 -19  -3    8.24    3.18
  -1 -19   3    7.24    3.04
  -1 -19   3   -0.17    2.98
   1 -19  -2   28.84    4.18
   1 -19  -2   19.28    6.56
  -1 -19   2   24.49    3.95
  -1 -19   2   26.02    3.87
   1 -19  -1    6.12    2.73
   1 -19  -1    0.09    4.64
  -1 -19   1    4.75    2.73
  -1 -19   1    0.01    2.63
   1 -19   0    0.26    2.62
   1 -19   0    3.24    2.69
  -1 -19   0    3.77    2.58
  -1 -19   0    0.27    4.18
   1 -19   1   -0.23    2.00
   1 -19   1   -0.17    2.04
  -1 -19  -1   -0.38    1.93
  -1 -19  -1   -0.31    3.11
   1 -19   2   20.54    3.70
   1 -19   2   21.19    3.54
  -1 -19  -2   -0.07    3.57
  -1 -19  -2   17.61    3.48
   1 -19   3   -0.14    2.38
   1 -19   3    4.30    4.05
  -1 -19  -3    3.22    4.06
  -1 -19  -3    1.38    3.79
   1 -19   4    2.35    2.06
   1 -19   4    1.02    2.15
  -1 -19  -4   -1.46    2.03
  -1 -19  -4   -3.26    2.07
   2   0 -17    0.11    1.67
  -2   0  15    0.51    1.87
   2   0 -14   13.23    2.77
  -2   0  13   -0.12    1.61
   2   0 -12   26.45    3.11
  -2   0  12   25.93    3.55
   2   0 -11   -1.60    1.58
  -2   0  11   -0.27    1.98
  -2   0  10   36.08    3.57
   2   0  -9    0.56    1.05
  -2   0   9   -0.68    1.24
   2   0  -8  199.52    5.27
  -2   0   8  191.42    5.52
   2   0  -7   -1.47    2.22
  -2   0   7   -2.34    2.52
   2   0  -6    5.20    1.47
  -2   0   6    3.04    1.57
   2   0  -5   -0.35    1.02
  -2   0   5    0.08    1.10
   2   0  -4   33.90    3.65
  -2   0   4   33.94    1.54
  -2   0   4   33.36    2.41
   2   0  -3   -0.33    0.79
  -2   0   3    0.06    0.83
  -2   0   3   -0.13    0.92
   2   0  -2   27.07    1.28
   2   0  -2   29.76    1.13
  -2   0   2   29.17    1.22
  -2   0   2   29.24    2.18
   2   0  -1    0.06    0.42
   2   0  -1    0.20    0.57
  -2   0   1    0.29    0.45
   2   0   0 6143.16  116.85
   2   0   0 5356.24   96.63
   2   0   1    0.39    0.17
   2   0   2 1399.08   21.04
  -2   0  -2 1396.38   20.26
   2   0   3    0.16    0.48
  -2   0  -3    0.32    0.36
   2   0   4  111.75    2.37
  -2   0  -4  113.82    2.15
   2   0   5   -0.24    1.02
  -2   0  -5    0.21    0.45
   2   0   6   22.38    1.49
  -2   0  -6   23.62    1.22
   2   0   7    0.23    0.64
  -2   0  -7   -0.17    0.51
   2   0   8   18.85    3.11
  -2   0  -8   17.94    1.42
   2   0   9    0.14    1.01
  -2   0  -9    0.33    1.24
   2   0  10   15.21    2.02
  -2   0 -10   12.66    1.57
   2   0  11    0.93    1.79
  -2   0 -11   -0.04    0.87
   2   0  12   28.43    2.53
  -2   0 -12   26.75    2.23
   2   0  13    1.14    1.60
  -2   0 -14   38.08    2.78
   2   0  15   -0.24    1.33
  -2   0 -15   -0.14    1.17
  -2   0 -17   -0.34    1.42
   2   1 -18    1.33    2.35
   2  -1 -16    2.42    2.82
  -2   1  16   11.60    3.01
   2   1 -15    1.76    2.13
  -2  -1  15    2.92    2.35
   2  -1 -14    0.14    1.51
  -2   1  13    3.22    2.36
   2  -1 -12    1.25    1.98
   2   1 -12    1.13    1.73
  -2  -1  12    2.77    2.23
  -2   1  12    1.87    2.11
   2   1 -11    5.88    1.95
   2  -1 -11    5.43    2.13
  -2   1  11    3.81    2.39
  -2  -1  11    4.25    2.54
   2   1 -10   35.25    2.71
  -2   1  10   35.87    5.82
  -2  -1  10   34.24    3.54
   2  -1  -9  136.36    4.74
   2   1  -9  133.90    4.35
  -2   1   9  131.24    4.94
  -2  -1   9  129.69    5.05
   2   1  -8  175.02    4.77
   2  -1  -8  180.63    7.41
  -2   1   8  172.54    5.04
   2  -1  -7    5.19    1.72
   2   1  -7    5.30    1.44
  -2  -1   7    5.76    1.74
  -2   1   7    5.51    1.79
   2   1  -6   27.34    1.93
   2  -1  -6   26.08    3.65
  -2   1   6   25.76    2.21
  -2  -1   6   24.22    2.26
   2  -1  -5    6.23    1.79
   2   1  -5    5.85    1.38
  -2  -1   5    3.93    1.61
  -2   1   5    5.45    1.70
   2  -1  -4  362.81    7.35
   2   1  -4  342.23    6.52
  -2   1   4  350.80    9.25
  -2  -1   4  339.36    6.88
  -2  -1   4  360.26    5.96
   2   1  -3    5.95    1.14
   2   1  -3    6.24    0.85
   2  -1  -3    7.40    1.47
  -2  -1   3    5.91    1.24
  -2   1   3    6.14    0.91
  -2   1   3    6.98    1.38
  -2  -1   3    6.39    0.87
   2  -1  -2   66.80    1.91
   2  -1  -2   66.52    2.29
   2   1  -2   65.03    1.58
   2   1  -2   66.15    1.68
  -2  -1   2   67.33    1.63
  -2   1   2   67.60    2.43
  -2   1   2   66.27    2.83
  -2  -1   2   62.53    1.70
   2   1  -1   28.86    1.07
   2  -1  -1   30.05    1.55
   2   1  -1   28.64    0.82
   2  -1  -1   29.45    1.04
  -2  -1   1   28.36    1.10
  -2   1   1   29.33    1.08
  -2   1   1   32.67    0.80
   2   1   0    6.94    0.29
   2   1   0    7.81    0.73
   2  -1   0    6.97    0.38
   2  -1   0    6.46    0.68
  -2   1   0    7.32    0.72
   2  -1   1   66.07    1.00
  -2  -1  -1   63.55    0.77
   2   1   2  142.99    2.36
   2  -1   2  145.92    2.12
  -2  -1  -2  146.72    2.73
  -2   1  -2  146.18    2.51
   2  -1   3  449.74    6.69
   2   1   3  453.08    6.45
  -2  -1  -3  449.68    7.48
  -2   1  -3  456.77    7.21
   2   1   4  407.54    7.21
   2  -1   4  407.96    6.49
  -2   1  -4  421.26    6.46
  -2  -1  -4  412.61    7.25
   2   1   5    5.64    0.91
   2  -1   5    5.17    0.95
  -2  -1  -5    5.39    0.86
  -2   1  -5    4.74    0.74
   2  -1   6   66.61    2.23
   2   1   6   68.92    2.10
  -2   1  -6   72.31    1.88
  -2  -1  -6   68.34    1.98
   2  -1   7   40.82    2.08
   2   1   7   43.13    1.94
  -2   1  -7   42.90    1.63
  -2  -1  -7   44.01    1.81
   2   1   8   46.60    2.28
   2  -1   8   44.32    2.43
  -2  -1  -8   50.20    3.24
  -2   1  -8   44.27    1.87
   2  -1   9   29.71    3.84
   2   1   9   25.92    2.17
  -2  -1  -9   29.43    1.91
  -2   1  -9   27.66    1.75
   2   1  10   42.66    4.21
   2  -1  10   42.87    2.79
  -2  -1 -10   45.00    3.44
  -2   1 -10   40.26    2.14
   2  -1  11    2.38    2.49
   2   1  11   -0.03    1.33
  -2  -1 -11    1.84    1.15
  -2   1 -11    1.45    1.11
   2   1  12    8.49    1.85
   2  -1  12    7.12    1.96
  -2   1 -12    9.57    1.63
  -2  -1 -12    8.86    1.69
   2   1  13    1.27    1.46
   2  -1  13    0.00    1.52
   2  -1  14    0.83    1.67
  -2  -1 -14    1.38    1.39
   2   1  15    0.89    1.44
   2  -1  15    0.28    1.54
  -2   1 -15    0.25    1.29
   2   1  16    0.08    1.29
   2  -1  17   -0.02    1.25
  -2   2  17   -0.02    1.50
   2   2 -16    0.15    1.65
  -2   2  14   30.90    3.68
  -2  -2  14   34.57    3.98
   2   2 -13    3.71    2.02
   2  -2 -13    2.47    2.21
  -2   2  13    3.50    2.26
   2   2 -12   78.20    4.03
  -2  -2  12   77.42    4.93
  -2   2  12   75.55    4.51
   2  -2 -11    0.72    1.96
   2   2 -11    2.76    1.60
  -2  -2  11    1.99    2.15
  -2   2  11    1.15    2.02
   2   2 -10   16.52    2.22
  -2   2  10   16.32    4.80
  -2  -2  10   18.51    3.05
   2  -2  -9   30.65    3.02
   2   2  -9   30.98    2.37
  -2  -2   9   27.96    3.17
  -2   2   9   31.41    5.14
   2   2  -8   64.12    4.26
   2  -2  -8   67.29    3.55
  -2  -2   8   66.91    3.37
  -2   2   8   64.40    5.26
   2  -2  -7   24.79    2.52
   2   2  -7   26.06    3.08
  -2   2   7   23.78    2.30
  -2  -2   7   22.40    2.33
   2  -2  -6    9.08    1.84
   2   2  -6    8.48    1.41
  -2   2   6    8.93    1.72
  -2  -2   6    8.49    1.69
   2   2  -5   13.77    1.57
   2  -2  -5   15.52    2.16
  -2   2   5   17.54    1.95
  -2  -2   5   15.81    1.77
   2   2  -4  225.20    4.68
   2  -2  -4  234.91    5.58
  -2  -2   4  234.45    6.65
  -2   2   4  229.35    5.17
  -2  -2   4  237.54    4.10
   2   2  -3    0.03    0.53
   2  -2  -3    0.58    1.83
   2   2  -3    0.24    0.73
  -2   2   3    1.24    1.01
  -2   2   3    0.34    0.93
  -2  -2   3    0.67    0.54
  -2  -2   3    0.89    1.35
   2  -2  -2    1.73    0.92
   2  -2  -2    2.05    0.60
   2   2  -2    1.81    0.68
   2   2  -2    1.88    0.57
  -2  -2   2    1.44    0.70
  -2   2   2    1.08    0.63
  -2   2   2    1.71    0.82
  -2  -2   2    1.36    0.59
   2   2  -1    4.36    0.59
   2  -2  -1    4.52    0.74
   2  -2  -1    3.51    0.60
   2   2  -1    3.94    1.06
  -2   2   1    3.87    1.19
  -2   2   1    4.51    1.06
  -2  -2   1    3.98    0.95
  -2  -2   1    4.57    0.65
   2  -2   0   27.65    0.91
   2   2   0   26.02    1.06
   2  -2   0   26.45    0.93
   2   2   0   26.59    0.75
  -2   2   0   26.63    0.96
   2  -2   1    0.41    0.36
  -2  -2  -1    0.25    0.30
   2   2   2  380.60    5.10
   2  -2   2  370.78    6.09
  -2   2  -2  373.02    5.52
  -2  -2  -2  375.86    5.21
   2  -2   3   60.17    1.49
   2   2   3   60.26    2.09
  -2   2  -3   61.96    1.44
  -2  -2  -3   59.34    1.62
   2  -2   4   62.53    1.65
   2   2   4   58.79    1.49
  -2  -2  -4   58.43    1.70
  -2   2  -4   61.51    2.16
   2  -2   5   99.28    3.27
   2   2   5   99.16    2.22
  -2   2  -5  101.21    2.24
  -2  -2  -5  106.49    3.65
   2   2   6   13.49    1.22
   2  -2   6   15.04    1.30
  -2   2  -6   13.76    1.04
  -2  -2  -6   16.03    2.19
   2  -2   7   27.40    1.82
   2   2   7   26.51    1.64
  -2   2  -7   25.91    1.41
  -2  -2  -7   27.10    2.60
   2  -2   8   34.19    3.62
   2   2   8   31.92    2.00
  -2   2  -8   31.65    1.66
  -2  -2  -8   32.86    2.00
   2  -2   9    1.06    0.89
   2   2   9    0.34    0.76
  -2  -2  -9   -0.20    0.73
  -2   2  -9   -0.63    0.61
   2  -2  10   19.56    2.34
   2   2  10   19.79    2.03
  -2   2 -10   19.37    1.75
  -2  -2 -10   23.92    1.96
   2  -2  11    3.20    1.65
   2   2  11    2.57    1.41
  -2   2 -11    2.28    1.20
  -2  -2 -11    2.34    1.32
   2  -2  12   26.37    2.57
   2   2  12   22.93    2.25
  -2   2 -12   22.88    2.12
  -2  -2 -12   24.05    2.23
   2   2  13    0.95    1.48
   2  -2  13    0.52    2.86
  -2  -2 -13    1.37    1.32
   2  -2  14   24.36    2.90
  -2  -2 -14   23.44    2.47
   2  -2  15    0.01    3.23
  -2   2 -15    2.54    1.60
   2  -2  16    0.09    2.13
   2   2  16    0.39    1.92
  -2  -2 -16    3.88    1.84
  -2   2 -16    6.08    1.83
   2   3 -17    2.80    2.45
   2  -3 -15    8.10    2.63
  -2   3  15   -0.18    2.38
   2   3 -14   20.87    2.86
  -2  -3  14   26.58    3.54
  -2   3  14    0.29    3.01
   2  -3 -13   13.03    2.93
   2   3 -13   13.38    2.50
  -2  -3  13   11.59    3.12
  -2   3  13    9.49    2.81
   2   3 -12   -0.75    1.26
  -2  -3  12    0.95    1.78
  -2   3  12   -0.14    1.52
   2   3 -11   13.93    2.19
   2  -3 -11   11.57    2.87
  -2   3  11   10.81    2.72
  -2  -3  11   12.95    3.09
   2   3 -10  124.82    4.31
   2  -3 -10  131.82    8.11
  -2   3  10  114.49    4.88
  -2  -3  10  125.64    5.27
   2  -3  -9   20.16    2.94
   2   3  -9   16.90    2.06
  -2   3   9   15.78    2.62
  -2  -3   9   19.66    2.76
   2   3  -8  282.47    6.37
   2  -3  -8  292.99    7.35
  -2  -3   8  294.90    7.03
  -2   3   8  273.07    6.64
   2  -3  -7    9.58    2.15
   2   3  -7   10.01    1.59
  -2   3   7   13.54    1.92
  -2  -3   7   16.49    3.26
   2   3  -6    4.25    1.21
   2  -3  -6    3.93    2.78
  -2  -3   6    4.37    1.48
  -2   3   6    4.74    2.59
   2   3  -5   83.65    2.62
   2  -3  -5   83.69    4.94
  -2  -3   5   86.42    2.04
  -2   3   5   85.58    2.90
  -2  -3   5   84.90    2.86
   2   3  -4  140.54    3.38
   2  -3  -4  145.97    4.10
  -2   3   4  141.31    3.67
  -2  -3   4  143.98    2.71
  -2  -3   4  143.16    3.56
   2  -3  -3   20.14    1.95
   2   3  -3   20.54    2.25
   2   3  -3   19.39    1.47
  -2  -3   3   19.86    1.44
  -2  -3   3   18.74    0.95
  -2   3   3   18.91    1.73
  -2   3   3   19.43    1.12
   2   3  -2   15.45    1.18
   2  -3  -2   16.31    1.58
   2  -3  -2   16.89    0.95
   2   3  -2   17.65    0.84
  -2  -3   2   17.46    0.84
  -2   3   2   15.30    1.38
  -2   3   2   16.57    0.95
  -2  -3   2   16.82    1.90
   2   3  -1  108.33    1.97
   2   3  -1  107.48    2.19
   2  -3  -1  107.61    2.47
   2  -3  -1  106.87    1.92
  -2  -3   1  107.20    1.96
  -2  -3   1  108.93    2.23
  -2   3   1  108.72    3.46
  -2   3   1  107.05    1.97
   2  -3   0    0.69    0.59
   2  -3   0    0.35    0.37
  -2  -3   0    0.77    0.41
  -2   3   0   -0.12    0.38
   2  -3   1   24.86    0.90
   2  -3   1   25.92    1.61
  -2  -3  -1   25.73    1.01
   2   3   2    7.75    0.73
   2  -3   2    8.04    0.79
  -2  -3  -2    7.61    0.79
  -2   3  -2    7.38    0.77
   2  -3   3    7.48    0.80
   2   3   3    5.85    0.73
  -2   3  -3    6.28    0.76
  -2  -3  -3    5.73    0.82
   2   3   4   25.38    1.09
   2  -3   4   27.24    1.21
  -2   3  -4   24.76    1.14
  -2  -3  -4   26.76    1.30
   2  -3   5   22.74    1.30
   2   3   5   22.70    1.18
  -2  -3  -5   20.52    2.23
  -2   3  -5   22.88    1.18
   2  -3   6  196.81    4.12
   2   3   6  192.92    3.69
  -2   3  -6  191.94    3.89
  -2  -3  -6  198.22    4.15
   2  -3   7   39.21    1.98
   2   3   7   37.16    2.87
  -2   3  -7   39.81    1.70
  -2  -3  -7   41.91    2.13
   2  -3   8  190.01    4.79
   2   3   8  183.08    4.26
  -2   3  -8  181.71    5.25
  -2  -3  -8  190.59    4.69
   2  -3   9    6.69    1.74
   2   3   9    8.10    1.49
  -2   3  -9    8.38    1.31
  -2  -3  -9    7.66    2.65
   2   3  10   28.67    2.17
   2  -3  10   28.44    2.63
  -2  -3 -10   30.85    2.35
  -2   3 -10   29.91    1.97
   2   3  11    0.64    1.07
   2  -3  11    1.38    1.34
  -2  -3 -11   -0.64    1.12
  -2   3 -11    0.63    0.97
   2  -3  12   -0.22    1.21
   2   3  12   -0.43    0.98
  -2  -3 -12    1.49    1.03
  -2   3 -12   -0.24    0.96
   2  -3  13    6.49    3.70
   2   3  13    7.78    1.75
  -2  -3 -13    6.25    1.87
  -2   3 -13    7.01    1.76
   2  -3  14   -0.08    1.76
  -2   3 -14    2.96    2.24
  -2  -3 -14    1.10    2.41
   2  -3  15    0.01    1.62
  -2   3 -15   -1.22    2.12
  -2  -3 -15   -0.44    1.33
   2   3  16    0.45    1.28
   2  -3  16   -0.07    1.51
  -2   3 -16   -0.02    1.26
   2   4 -18   -0.60    2.18
   2   4 -17    0.82    2.39
  -2  -4  17    4.67    2.97
   2  -4 -16   -0.25    1.71
  -2   4  16    0.08    1.56
   2  -4 -15    5.82    4.14
   2   4 -15    0.55    2.23
  -2   4  15    0.03    2.26
  -2  -4  15    6.77    2.53
   2   4 -14   34.24    3.38
   2  -4 -14   32.78    4.01
  -2  -4  14   30.13    4.11
  -2   4  14   31.43    3.38
   2   4 -13   29.93    3.02
   2  -4 -13   22.72    5.78
  -2   4  13   22.16    3.21
  -2  -4  13   27.96    3.84
   2   4 -12   42.17    3.18
   2  -4 -12   44.20    4.05
  -2   4  12   39.45    3.57
  -2  -4  12   47.27    6.57
   2  -4 -11   43.39    4.05
   2   4 -11   42.49    3.04
  -2  -4  11   44.16    3.95
  -2   4  11   42.43    3.58
   2  -4 -10   26.33    5.78
   2   4 -10   23.33    2.36
  -2   4  10   22.84    2.95
  -2  -4  10   28.34    5.40
   2  -4  -9    5.96    2.45
   2   4  -9    5.79    1.63
  -2  -4   9    5.32    2.20
  -2   4   9    4.96    2.09
   2  -4  -8   67.98    3.85
   2   4  -8   66.49    2.94
  -2   4   8   66.83    3.46
  -2  -4   8   71.56    3.42
   2  -4  -7    2.45    1.64
   2   4  -7    2.19    1.21
  -2   4   7    2.60    2.50
  -2  -4   7    2.82    1.35
   2   4  -6    0.68    0.82
   2  -4  -6   -0.39    1.15
  -2  -4   6    0.09    0.52
  -2   4   6    0.29    0.98
  -2  -4   6    0.53    0.91
   2   4  -5  106.62    2.97
   2  -4  -5  106.28    3.47
  -2   4   5  103.97    3.10
  -2  -4   5  109.63    2.21
  -2  -4   5  109.18    3.08
   2  -4  -4  111.33    3.43
   2   4  -4  110.99    2.91
  -2  -4   4  112.93    2.95
  -2   4   4  105.89    4.49
  -2  -4   4  113.65    2.13
   2   4  -3    1.32    0.84
   2  -4  -3    0.79    1.15
   2   4  -3    0.86    0.45
  -2  -4   3    1.15    0.76
  -2   4   3    1.10    0.59
  -2   4   3    1.28    0.98
  -2  -4   3    1.55    0.88
   2   4  -2  209.89    4.02
   2  -4  -2  207.85    4.36
   2   4  -2  212.04    3.25
  -2   4   2  207.79    4.03
  -2   4   2  205.02    5.65
  -2  -4   2  213.16    3.27
  -2  -4   2  217.42    4.14
   2   4  -1    0.15    0.45
   2   4  -1    0.00    0.29
   2  -4  -1    0.30    0.45
   2  -4  -1    0.01    0.61
  -2   4   1   -0.25    0.28
  -2   4   1    0.09    0.56
  -2  -4   1    0.00    0.45
   2  -4   0  216.02    3.98
   2  -4   0  210.53    3.11
  -2   4   0  213.47    3.14
  -2  -4   0  219.18    4.61
   2  -4   1   15.37    1.10
   2  -4   1   16.29    0.68
  -2  -4  -1   17.82    1.84
   2  -4   2  100.04    2.31
  -2  -4  -2   97.19    2.11
   2  -4   3    2.55    1.21
   2   4   3    2.56    0.64
  -2  -4  -3    2.72    1.21
  -2   4  -3    2.39    0.73
   2  -4   4   14.02    1.64
   2   4   4   11.38    0.96
  -2   4  -4   11.16    1.02
  -2  -4  -4   11.38    1.12
   2   4   5   96.75    2.24
   2  -4   5  101.20    2.52
  -2   4  -5  100.07    3.33
  -2  -4  -5  102.36    2.65
   2   4   6   60.05    1.94
   2  -4   6   66.12    3.11
  -2   4  -6   63.58    2.00
  -2  -4  -6   62.44    2.34
   2   4   7   50.02    2.05
   2  -4   7   52.66    2.30
  -2   4  -7   52.11    1.99
  -2  -4  -7   53.70    2.49
   2   4   8    9.44    1.42
   2  -4   8    6.87    1.62
  -2   4  -8   10.05    1.26
  -2  -4  -8    7.56    1.76
   2  -4   9    8.77    1.85
   2   4   9    8.84    2.56
  -2  -4  -9    9.56    1.86
  -2   4  -9   10.05    1.43
   2  -4  10   26.72    2.50
   2   4  10   23.66    2.04
  -2  -4 -10   24.96    2.34
  -2   4 -10   22.26    1.96
   2  -4  11    5.59    1.84
   2   4  11    4.64    1.48
  -2   4 -11    4.00    1.43
  -2  -4 -11    5.87    1.69
   2  -4  12   27.31    2.74
   2   4  12   25.55    2.13
  -2  -4 -12   25.18    3.78
  -2   4 -12   22.43    2.26
   2  -4  13    5.76    2.39
   2   4  13    6.92    1.69
  -2   4 -13    5.70    1.75
  -2  -4 -13    7.58    1.89
   2  -4  14    9.91    2.57
   2   4  14   10.18    2.07
  -2  -4 -14    8.55    2.11
  -2   4 -14    8.80    2.03
   2  -4  15    0.02    1.61
  -2   4 -15   -1.02    1.30
  -2  -4 -15    0.24    1.35
   2  -4  16   -0.36    2.77
   2   4  16   -0.24    1.34
  -2   4 -16   -0.01    2.15
   2  -5 -17   -0.15    1.67
   2   5 -17   -0.62    1.50
  -2  -5  17    2.10    3.00
  -2   5  17    0.15    1.49
   2   5 -16    1.27    2.38
   2  -5 -16   -1.06    4.30
  -2   5  16   -0.36    2.29
  -2  -5  16    9.26    2.88
   2   5 -15   20.66    2.78
   2  -5 -15   -0.03    3.24
  -2   5  15    0.01    2.69
  -2  -5  15   14.60    5.03
   2  -5 -14    1.76    2.26
   2   5 -14    2.58    1.83
  -2   5  14   -0.07    1.76
  -2  -5  14   -0.20    2.26
   2   5 -13   -0.65    1.26
   2  -5 -13   -0.14    1.64
  -2  -5  13   -0.17    2.74
  -2   5  13    1.07    1.34
   2  -5 -12    2.60    2.53
   2   5 -12    2.70    1.82
  -2  -5  12    2.92    2.43
  -2   5  12    3.01    2.02
   2  -5 -11   15.53    5.17
   2   5 -11   14.67    2.30
  -2  -5  11   13.51    3.00
  -2   5  11   12.69    2.65
   2  -5 -10    3.98    2.59
   2   5 -10    5.27    1.74
  -2   5  10    5.05    2.12
  -2  -5  10    6.11    2.42
   2   5  -9   69.06    3.23
   2  -5  -9   76.00    4.46
  -2   5   9   68.27    3.69
  -2  -5   9   76.89    3.94
   2  -5  -8  168.54    5.63
   2   5  -8  164.07    4.57
  -2   5   8  158.64    4.93
  -2  -5   8  167.24    5.10
   2   5  -7    7.52    2.45
   2  -5  -7    7.19    2.05
  -2   5   7    7.50    1.76
  -2  -5   7    7.39    0.89
  -2  -5   7    8.00    1.67
   2   5  -6  302.62    6.32
   2  -5  -6  300.09    6.82
  -2  -5   6  307.26    5.17
  -2  -5   6  309.66    6.50
  -2   5   6  295.65    6.16
   2  -5  -5   27.61    2.19
   2   5  -5   25.35    1.73
  -2  -5   5   25.90    0.98
  -2   5   5   25.62    1.93
  -2  -5   5   26.82    1.81
   2  -5  -4   27.36    2.01
   2   5  -4   22.48    1.60
  -2  -5   4   25.98    0.89
  -2  -5   4   24.41    1.65
  -2   5   4   24.63    1.72
   2  -5  -3   15.11    1.59
   2   5  -3   13.75    1.33
   2   5  -3   14.72    0.63
  -2   5   3   13.84    0.89
  -2   5   3   12.46    1.41
  -2  -5   3   14.28    0.68
  -2  -5   3   13.39    1.34
   2   5  -2  111.74    1.82
   2   5  -2  109.42    3.72
  -2  -5   2  114.36    2.75
  -2   5   2  109.37    2.77
  -2   5   2  109.28    2.53
  -2  -5   2  111.32    1.85
   2  -5  -1   39.31    1.93
   2  -5  -1   38.62    0.97
   2   5  -1   38.69    0.95
  -2   5   1   38.83    0.96
  -2  -5   1   39.55    1.55
   2  -5   0    3.19    1.04
   2  -5   0    3.76    0.66
  -2   5   0    3.64    0.40
  -2  -5   0    4.00    0.80
   2  -5   1   18.18    1.20
   2  -5   1   18.21    0.89
  -2  -5  -1   19.27    1.18
   2  -5   2    1.54    0.35
   2  -5   2    1.97    1.23
  -2  -5  -2    1.74    0.72
   2  -5   3   -0.80    0.66
   2   5   3    0.02    0.38
  -2   5  -3   -0.12    0.40
  -2  -5  -3    0.40    0.41
   2  -5   4  236.66    5.57
   2   5   4  239.91    5.15
  -2  -5  -4  235.24    5.49
  -2   5  -4  232.24    4.50
   2  -5   5    9.30    1.14
   2   5   5    9.37    1.07
  -2  -5  -5    9.61    1.25
  -2   5  -5   10.21    1.10
   2   5   6  183.42    3.75
   2  -5   6  190.57    5.38
  -2   5  -6  186.01    4.09
  -2  -5  -6  184.78    4.29
   2  -5   7    2.04    1.00
  -2   5  -7    0.47    0.85
  -2  -5  -7    0.73    1.17
   2  -5   8   19.28    1.98
   2   5   8   20.20    1.68
  -2   5  -8   19.23    1.62
  -2  -5  -8   19.14    2.12
   2  -5   9   48.76    2.73
   2   5   9   41.98    2.24
  -2  -5  -9   42.17    2.84
  -2   5  -9   42.26    3.30
   2  -5  10   19.18    2.38
   2   5  10   17.09    1.89
  -2   5 -10   19.76    1.85
  -2  -5 -10   18.35    2.32
   2  -5  11   23.90    4.02
   2   5  11   22.09    2.02
  -2  -5 -11   21.92    2.40
  -2   5 -11   22.22    2.05
   2  -5  12   10.26    2.25
   2   5  12    8.41    1.68
  -2  -5 -12    5.81    3.34
  -2   5 -12    8.55    1.85
   2  -5  13    3.42    1.96
   2   5  13    0.97    1.34
  -2   5 -13    1.86    1.50
  -2  -5 -13    2.31    1.66
   2  -5  14    0.23    3.26
   2   5  14    2.40    1.45
  -2   5 -14    2.27    1.60
  -2  -5 -14    1.77    1.72
   2   5  15    0.05    1.88
   2  -5  15    0.05    2.45
  -2   5 -15    9.77    1.99
  -2  -5 -15    8.71    3.27
   2  -5  16    0.02    1.98
   2   5  16   -1.16    2.56
  -2  -5 -16    2.38    1.62
  -2   5 -16    0.15    1.60
   2  -6 -17   -0.52    3.24
   2   6 -17   -0.60    1.77
  -2   6  17    0.20    1.68
  -2  -6  17    1.35    2.18
   2  -6 -16   -0.28    2.30
   2   6 -16   -0.58    1.96
  -2  -6  16    8.01    3.76
  -2   6  16    0.24    1.85
   2   6 -15    0.23    1.49
   2  -6 -15   -0.13    1.80
  -2   6  15   -0.18    2.37
  -2  -6  15   -0.37    1.82
   2  -6 -14    4.86    2.53
   2   6 -14    1.62    2.06
  -2   6  14    0.56    3.31
  -2  -6  14   -0.07    4.20
   2  -6 -13   14.75    3.26
   2   6 -13   14.49    2.52
  -2   6  13   -0.15    4.18
  -2  -6  13   -0.09    3.08
   2  -6 -12   44.17    6.87
   2   6 -12   45.17    3.33
  -2   6  12   46.39    5.67
  -2  -6  12   48.58    4.13
   2   6 -11    8.56    2.12
   2  -6 -11    9.33    3.01
  -2   6  11    8.94    2.40
  -2  -6  11    8.23    4.45
   2   6 -10   44.49    2.99
   2  -6 -10   46.15    4.20
  -2  -6  10   49.27    3.71
  -2   6  10   41.65    3.41
   2  -6  -9   44.91    3.95
   2   6  -9   46.79    2.79
  -2  -6   9   46.62    3.33
  -2   6   9   44.84    3.24
   2   6  -8    9.55    1.79
   2  -6  -8   10.41    2.61
  -2   6   8    9.89    2.18
  -2  -6   8    9.69    1.03
  -2  -6   8   11.39    2.08
   2  -6  -7  106.55    4.38
   2   6  -7  101.89    3.47
  -2  -6   7  111.54    3.08
  -2   6   7  106.68    3.78
  -2  -6   7  115.16    5.45
   2  -6  -6   17.12    2.28
   2   6  -6   16.92    1.76
  -2  -6   6   18.44    0.91
  -2   6   6   18.69    3.27
  -2  -6   6   20.45    2.93
   2  -6  -5   46.51    2.61
   2   6  -5   47.87    2.11
  -2  -6   5   45.70    1.19
  -2  -6   5   44.92    3.36
  -2   6   5   46.96    2.32
   2  -6  -4   61.38    2.68
   2   6  -4   60.52    2.30
  -2   6   4   60.03    2.41
  -2  -6   4   63.16    2.33
  -2  -6   4   62.88    1.72
   2  -6  -3    3.33    2.21
   2   6  -3    4.57    1.08
   2   6  -3    4.33    0.60
  -2   6   3    4.27    0.61
  -2   6   3    5.19    1.17
  -2  -6   3    2.38    0.68
  -2  -6   3    3.45    1.08
   2  -6  -2  107.30    2.97
   2   6  -2   99.39    1.56
   2   6  -2  110.76    3.80
  -2   6   2  104.87    2.75
  -2   6   2  106.17    2.34
  -2  -6   2  107.72    3.74
   2  -6  -1    6.65    1.23
   2   6  -1    7.86    0.46
  -2  -6   1    8.10    1.04
  -2   6   1    6.29    0.47
   2  -6   0  625.30    8.83
   2  -6   0  631.86   10.37
  -2   6   0  624.65    8.80
  -2  -6   0  639.70   10.89
   2  -6   1    8.16    1.09
   2  -6   1    7.84    0.62
  -2  -6  -1    7.62    1.06
   2  -6   2  157.77    2.64
   2  -6   2  160.44    3.53
  -2  -6  -2  161.68    4.39
   2  -6   3    0.25    0.65
  -2  -6  -3    0.37    1.15
   2   6   4   82.65    3.20
   2  -6   4   82.16    2.45
  -2  -6  -4   80.98    3.51
  -2   6  -4   80.19    2.40
   2  -6   5  206.73    4.46
   2   6   5  205.43    4.03
  -2   6  -5  207.49    4.44
  -2  -6  -5  207.09    4.39
   2   6   6   -0.04    1.37
   2  -6   6    0.14    0.84
  -2  -6  -6    0.74    1.01
  -2   6  -6    0.69    0.79
   2   6   7   84.66    2.72
   2  -6   7   85.88    3.04
  -2   6  -7   85.50    2.83
  -2  -6  -7   88.04    3.29
   2  -6   8    0.86    1.05
   2   6   8   -0.49    0.93
  -2   6  -8    0.99    0.89
  -2  -6  -8    0.49    1.16
   2  -6   9    3.46    1.57
   2   6   9    3.63    1.28
  -2   6  -9    3.38    1.30
  -2  -6  -9    4.10    1.69
   2  -6  10    5.39    1.85
   2   6  10    4.67    2.41
  -2   6 -10    5.90    1.50
  -2  -6 -10    6.49    1.88
   2  -6  11    2.09    1.67
   2   6  11    1.67    1.23
  -2  -6 -11    1.89    1.64
  -2   6 -11    1.95    1.33
   2  -6  12   24.25    4.45
   2   6  12   24.65    2.09
  -2   6 -12   23.28    2.37
  -2  -6 -12   24.26    2.68
   2  -6  13    1.91    2.04
   2   6  13    2.49    1.39
  -2   6 -13    3.16    1.57
  -2  -6 -13    0.44    2.94
   2   6  14   -0.61    1.74
   2  -6  14   13.10    2.60
  -2  -6 -14    9.35    2.21
  -2   6 -14   10.12    2.09
   2  -6  15    0.05    3.36
   2   6  15    0.18    1.60
  -2  -6 -15    4.88    1.79
  -2   6 -15    0.23    1.71
   2  -6  16   -0.09    1.73
   2   6  16    0.12    1.29
  -2   6 -16   -0.09    1.37
  -2  -6 -16    1.45    2.34
   2  -7 -17   -0.56    2.04
   2   7 -17    0.44    1.77
  -2  -7  17    0.72    3.53
  -2   7  17    0.02    2.76
   2  -7 -16   -0.44    2.81
   2   7 -16    0.25    2.39
  -2   7  16   -0.19    1.38
  -2  -7  16    0.46    1.82
   2  -7 -15   -0.69    2.25
   2   7 -15   -0.51    3.00
  -2  -7  15   -0.03    3.92
  -2   7  15   -0.55    1.79
   2   7 -14   -0.04    3.07
   2  -7 -14    5.29    2.40
  -2  -7  14   -0.41    2.29
  -2   7  14   -0.04    1.78
   2  -7 -13   10.67    4.63
   2   7 -13   11.06    3.40
  -2   7  13    0.04    2.06
  -2  -7  13   -0.06    2.54
   2   7 -12    5.00    3.45
   2  -7 -12    4.02    2.87
  -2   7  12    5.60    2.21
  -2  -7  12    5.90    2.74
   2  -7 -11   14.13    3.25
   2   7 -11   15.34    3.86
  -2   7  11   12.13    4.18
  -2  -7  11   13.72    2.99
   2   7 -10    4.99    1.89
   2  -7 -10    4.99    2.69
  -2   7  10    5.99    2.15
  -2  -7  10    6.08    1.10
  -2  -7  10    4.91    2.30
   2   7  -9  133.00    4.60
   2  -7  -9  146.40    9.07
  -2  -7   9  143.19    7.52
  -2   7   9  133.15    4.88
  -2  -7   9  142.04    3.26
   2  -7  -8   52.83    4.01
   2   7  -8   51.19    2.88
  -2   7   8   49.66    5.18
  -2  -7   8   53.95    1.67
  -2  -7   8   51.33    3.29
   2   7  -7   11.97    1.76
   2  -7  -7   10.32    2.60
  -2   7   7   11.69    2.09
  -2  -7   7   11.33    1.31
  -2  -7   7   11.54    1.98
   2  -7  -6   98.27    4.06
   2   7  -6   96.62    3.25
  -2   7   6   93.57    5.33
  -2  -7   6   97.26    3.46
  -2  -7   6  101.34    2.00
   2  -7  -5    0.14    2.21
   2   7  -5    0.63    1.00
  -2   7   5    1.05    1.14
  -2  -7   5    1.03    0.39
  -2  -7   5    0.35    1.06
   2  -7  -4  185.71    4.60
   2   7  -4  185.96    4.34
  -2   7   4  182.05    4.28
  -2  -7   4  189.44    4.39
  -2  -7   4  189.33    2.88
   2  -7  -3   18.29    1.82
   2   7  -3   18.36    1.49
  -2   7   3   16.03    1.61
  -2   7   3   15.85    1.24
  -2  -7   3   16.51    1.50
  -2  -7   3   16.38    0.83
   2  -7  -2  270.73    7.15
   2   7  -2  261.39    5.36
  -2   7   2  265.63    4.03
  -2  -7   2  266.88    5.32
   2  -7  -1  311.63    5.93
  -2   7   1  314.63    4.46
  -2  -7   1  317.81    7.19
   2  -7   0   14.73    1.53
   2   7   0   15.35    0.62
  -2   7   0   15.13    0.67
  -2  -7   0   15.71    1.33
   2  -7   1   79.54    2.49
   2  -7   1   75.71    1.15
  -2  -7  -1   77.48    3.42
   2  -7   2   58.73    2.13
   2  -7   2   56.92    0.97
  -2  -7  -2   58.42    2.05
   2  -7   3    3.13    0.35
   2  -7   3    2.77    1.00
  -2  -7  -3    2.94    1.03
   2  -7   4   54.45    2.11
   2   7   4   53.06    2.00
  -2  -7  -4   51.17    2.17
   2  -7   5    2.39    1.11
   2   7   5    3.17    1.07
  -2   7  -5    3.91    1.70
  -2  -7  -5    2.76    2.09
   2   7   6   19.44    2.70
   2  -7   6   20.03    1.71
  -2  -7  -6   18.97    2.00
  -2   7  -6   18.86    1.61
   2  -7   7   12.13    1.67
   2   7   7   11.19    1.52
  -2  -7  -7   13.00    1.95
  -2   7  -7   12.88    1.55
   2  -7   8  142.55    4.28
   2   7   8  136.97    3.82
  -2   7  -8  132.15    3.92
  -2  -7  -8  135.26    4.41
   2  -7   9    1.55    1.46
   2   7   9    2.35    1.24
  -2   7  -9    2.25    1.31
  -2  -7  -9    3.50    2.57
   2  -7  10   36.09    2.81
   2   7  10   35.10    3.48
  -2  -7 -10   38.78    4.45
  -2   7 -10   35.60    2.50
   2  -7  11   30.92    2.88
   2   7  11   30.31    2.14
  -2   7 -11   28.07    2.47
  -2  -7 -11   28.63    2.87
   2   7  12    1.61    1.29
   2  -7  12    1.74    1.83
  -2   7 -12    4.60    2.47
  -2  -7 -12    1.56    1.79
   2  -7  13   16.30    2.90
   2   7  13   13.18    1.92
  -2   7 -13   14.93    3.60
  -2  -7 -13   14.05    2.55
   2  -7  14    5.49    2.19
   2   7  14    0.38    1.46
  -2  -7 -14    6.35    3.23
  -2   7 -14    2.49    2.86
   2  -7  15   -0.38    2.01
   2   7  15    0.27    1.29
  -2   7 -15   -0.10    2.52
  -2  -7 -15    2.55    1.69
   2   8 -16   -0.76    2.04
   2  -8 -16   -0.38    2.42
  -2   8  16    0.00    1.90
  -2  -8  16    0.11    4.05
  -2  -8  16    1.49    1.25
   2   8 -15    0.29    2.03
   2  -8 -15    0.50    2.51
  -2   8  15   -0.11    1.84
  -2  -8  15    0.73    2.50
  -2  -8  15    1.42    1.22
   2  -8 -14   -0.40    1.90
   2   8 -14    0.64    1.52
  -2   8  14    0.06    1.40
  -2  -8  14   -0.23    1.85
   2   8 -13   -0.46    1.60
   2  -8 -13    0.14    2.03
  -2  -8  13   -0.36    0.90
  -2   8  13   -0.17    1.48
  -2  -8  13   -0.19    1.93
   2  -8 -12   22.56    3.83
   2   8 -12   24.05    2.99
  -2  -8  12    0.17    3.51
  -2   8  12   27.42    2.96
  -2  -8  12   24.93    1.73
   2   8 -11    1.11    2.67
   2  -8 -11    2.40    3.86
  -2  -8  11    2.16    3.34
  -2   8  11    1.75    1.75
  -2  -8  11    1.09    0.89
   2  -8 -10    2.51    2.13
   2   8 -10    2.36    1.51
  -2  -8  10    1.05    1.21
  -2   8  10   -0.87    1.65
  -2  -8  10    0.68    1.85
   2  -8  -9   74.54    4.58
   2   8  -9   61.94    3.43
  -2  -8   9   71.68    4.01
  -2  -8   9   70.40    2.04
  -2   8   9   67.86    3.73
   2  -8  -8   11.39    2.74
   2   8  -8   10.94    1.91
  -2   8   8    9.68    2.24
  -2  -8   8    9.78    0.87
  -2  -8   8   11.44    2.19
   2   8  -7   39.75    2.55
   2  -8  -7   38.42    3.45
  -2  -8   7   38.69    2.76
  -2   8   7   38.43    2.87
  -2  -8   7   40.06    1.21
   2  -8  -6    0.43    1.50
   2   8  -6   -0.03    1.09
  -2  -8   6    0.49    1.14
  -2   8   6   -0.63    2.18
  -2  -8   6    0.65    0.40
   2   8  -5  121.29    3.72
   2  -8  -5  130.32    4.42
  -2  -8   5  127.38    3.77
  -2   8   5  124.24    3.90
  -2  -8   5  128.98    2.50
   2  -8  -4  109.57    3.91
   2   8  -4  108.13    3.36
  -2  -8   4  109.43    1.74
  -2  -8   4  109.47    3.38
  -2   8   4  106.82    3.45
   2  -8  -3  171.89    4.49
   2   8  -3  164.38    4.09
  -2  -8   3  164.30    4.10
  -2   8   3  162.94    4.06
  -2   8   3  154.72    2.71
   2  -8  -2   69.81    2.75
  -2   8   2   68.80    1.35
  -2  -8   2   67.79    2.44
   2  -8  -1   24.46    1.94
  -2  -8   1   28.19    2.54
  -2   8   1   24.93    0.88
   2  -8   0   66.73    2.53
   2   8   0   64.48    1.24
  -2  -8   0   67.83    2.32
   2  -8   1    0.60    1.19
   2  -8   1    0.60    0.72
   2  -8   1    0.09    0.15
  -2  -8  -1   -0.02    1.25
  -2  -8  -1   -0.06    0.67
   2  -8   2  450.08    6.27
   2  -8   2  446.66    8.60
  -2  -8  -2  444.77    7.99
   2  -8   3  278.15    7.11
   2  -8   3  274.21    4.08
  -2  -8  -3  276.44    5.58
   2  -8   4  122.85    3.47
  -2  -8  -4  125.46    3.50
   2  -8   5   40.34    2.16
   2   8   5   40.61    2.12
  -2   8  -5   38.32    2.12
  -2  -8  -5   42.53    2.41
   2  -8   6   22.89    2.95
   2   8   6   18.69    2.90
  -2   8  -6   19.54    2.78
  -2  -8  -6   18.86    2.09
   2  -8   7   84.73    4.50
   2   8   7   78.69    2.85
  -2   8  -7   77.21    3.04
  -2  -8  -7   80.72    5.19
   2  -8   8   27.64    2.39
   2   8   8   28.21    2.07
  -2  -8  -8   28.13    2.61
  -2   8  -8   26.66    3.35
   2   8   9   30.14    2.08
   2  -8   9   31.36    2.56
  -2   8  -9   31.26    2.32
  -2  -8  -9   27.85    2.70
   2  -8  10    0.38    2.50
   2   8  10    1.49    1.22
  -2   8 -10    0.62    1.38
  -2  -8 -10    3.91    1.63
   2  -8  11    0.51    2.46
   2   8  11    0.99    1.10
  -2   8 -11    0.61    2.09
  -2  -8 -11   -1.12    2.51
   2  -8  12   16.46    2.73
   2   8  12   17.49    2.00
  -2   8 -12   17.14    2.40
  -2  -8 -12   17.61    4.22
   2  -8  13   14.85    2.55
   2   8  13    0.03    1.73
  -2  -8 -13   10.86    2.37
  -2   8 -13    9.62    2.19
   2  -8  14    1.95    1.84
   2   8  14   -0.16    1.19
  -2   8 -14   -0.04    1.50
  -2  -8 -14    1.27    1.61
   2  -8  15    2.81    3.50
   2   8  15    0.12    1.33
  -2  -8 -15    2.15    1.80
  -2   8 -15    0.07    1.69
   2  -9 -16   -0.63    4.07
   2   9 -16    0.09    1.97
  -2  -9  16    0.53    1.11
  -2   9  16    0.34    1.82
  -2  -9  16    0.18    2.42
   2  -9 -15   -0.57    2.48
   2   9 -15   -0.41    1.99
  -2  -9  15   -0.36    3.88
   2  -9 -14   -0.09    1.96
   2   9 -14   -0.36    1.59
  -2   9  14   -1.04    1.45
  -2  -9  14    0.20    0.86
  -2  -9  14    0.16    1.94
   2  -9 -13   -0.13    7.56
   2   9 -13   35.26    3.66
  -2   9  13   37.50    3.27
  -2  -9  13   39.40    4.34
  -2  -9  13   36.88    2.12
   2   9 -12    5.13    2.30
   2  -9 -12    6.42    2.97
  -2   9  12    6.42    2.19
  -2  -9  12    6.75    1.86
  -2  -9  12   -0.53    2.71
   2  -9 -11   20.25    3.50
   2   9 -11   20.49    2.75
  -2  -9  11   -0.09    3.21
  -2   9  11   21.44    2.77
  -2  -9  11   20.16    1.41
   2  -9 -10    2.63    2.41
   2   9 -10    2.09    2.88
  -2   9  10    1.27    3.10
  -2  -9  10    2.54    0.81
  -2  -9  10    2.87    2.05
   2   9  -9    2.06    1.49
   2  -9  -9   -0.05    3.39
  -2   9   9   -0.47    1.56
  -2  -9   9    0.90    0.60
  -2  -9   9    0.21    2.76
   2  -9  -8   54.04    7.11
   2   9  -8   57.83    3.27
  -2  -9   8   60.52    3.58
  -2   9   8   62.42    3.49
  -2  -9   8   62.24    1.65
   2   9  -7  103.52    3.92
   2  -9  -7  110.20    4.96
  -2   9   7  108.55    4.14
  -2  -9   7  108.70    2.13
  -2  -9   7  104.25    4.18
   2   9  -6   23.97    2.20
   2  -9  -6   29.45    3.10
  -2  -9   6   26.88    2.36
  -2   9   6   26.93    2.51
  -2  -9   6   25.50    0.83
   2  -9  -5    1.03    1.59
   2   9  -5    1.47    1.16
  -2   9   5    0.89    1.35
  -2  -9   5    0.69    0.47
  -2  -9   5    0.62    1.20
   2  -9  -4  125.63    6.78
   2   9  -4  122.22    3.81
  -2   9   4  122.79    3.95
  -2   9   4  122.28    2.48
  -2  -9   4  121.96    3.79
   2  -9  -3   88.62    3.57
  -2   9   3   84.98    2.19
  -2  -9   3   84.74    3.04
   2  -9  -2   61.52    3.00
  -2  -9   2   61.06    2.51
  -2   9   2   63.44    1.61
   2  -9  -1  207.99    5.04
  -2   9   1  206.76    2.90
  -2  -9   1  210.91    6.18
   2  -9   0    0.33    1.10
   2   9   0    0.47    0.23
  -2  -9   0    0.26    0.86
   2  -9   1  255.57    5.70
   2  -9   1  247.12    5.59
  -2  -9  -1  254.54    5.50
  -2  -9  -1  251.16    5.32
   2  -9   2    8.59    1.42
   2  -9   2    7.17    0.33
  -2  -9  -2    9.38    1.53
   2  -9   3  123.61    3.65
   2  -9   3  125.42    1.89
  -2  -9  -3  123.71    3.71
   2  -9   4   82.85    1.60
   2  -9   4   80.96    3.00
  -2  -9  -4   87.00    3.23
   2  -9   5   -1.40    1.08
  -2  -9  -5   -0.04    1.19
   2  -9   6   19.89    1.99
   2   9   6   18.10    1.88
  -2   9  -6   19.59    1.90
  -2  -9  -6   14.84    2.23
   2   9   7    8.02    2.65
   2  -9   7    7.29    1.72
  -2   9  -7    7.30    1.64
  -2  -9  -7    8.37    1.95
   2  -9   8   21.72    2.25
   2   9   8   18.83    1.94
  -2   9  -8   22.34    2.17
  -2  -9  -8   19.23    2.46
   2  -9   9    0.57    1.32
   2   9   9    0.19    1.78
  -2   9  -9    0.34    1.25
  -2  -9  -9    1.22    1.42
   2  -9  10    3.95    1.80
   2   9  10    3.30    1.39
  -2   9 -10    3.24    2.66
  -2  -9 -10    3.70    1.87
   2  -9  11   48.41    3.49
   2   9  11   46.69    2.59
  -2   9 -11   42.74    3.21
  -2  -9 -11   49.51    3.43
   2   9  12    8.12    1.72
   2  -9  12   10.13    2.48
  -2   9 -12    8.02    2.14
  -2  -9 -12    7.69    2.34
   2  -9  13   13.38    3.77
   2   9  13    0.07    2.55
  -2   9 -13   -0.04    2.01
  -2  -9 -13    7.78    2.23
   2   9  14    0.43    2.00
   2  -9  14    1.74    1.87
  -2   9 -14    0.29    1.57
  -2  -9 -14   -1.69    2.74
   2   9  15    0.09    1.72
   2  -9  15    6.13    2.66
  -2   9 -15    0.07    2.20
  -2  -9 -15   11.40    2.35
  -2  10  16    3.08    4.08
   2  10 -15    0.42    3.99
   2 -10 -15   -0.25    4.89
  -2  10  15    3.05    3.73
  -2 -10  15    2.90    1.25
  -2 -10  15   -0.32    3.02
   2 -10 -14    0.15    2.46
   2  10 -14    0.29    3.18
  -2  10  14    0.81    2.92
  -2 -10  14    0.42    3.91
  -2 -10  14   -1.11    0.96
   2 -10 -13   -0.63    2.98
   2  10 -13    1.05    2.44
  -2  10  13    4.23    3.58
  -2 -10  13   -0.21    2.89
  -2 -10  13    5.72    1.14
   2 -10 -12    2.69    4.30
   2  10 -12   -0.32    2.10
  -2 -10  12   -0.04    2.45
  -2  10  12    3.06    1.91
  -2 -10  12    3.93    1.48
   2  10 -11   12.20    2.74
   2 -10 -11   15.93    3.44
  -2  10  11   14.90    2.61
  -2 -10  11   12.83    1.17
  -2 -10  11   -0.32    4.81
   2  10 -10   21.44    2.97
   2 -10 -10   21.97    3.67
  -2 -10  10   23.33    1.80
  -2 -10  10   24.39    3.21
  -2  10  10   19.63    2.84
   2 -10  -9   25.92    3.70
   2  10  -9   23.50    4.47
  -2  10   9   27.77    2.83
  -2 -10   9   26.66    1.17
  -2 -10   9   30.74    3.17
   2  10  -8    9.84    2.15
   2 -10  -8    7.94    2.75
  -2  10   8    7.06    2.27
  -2 -10   8    9.26    0.73
  -2 -10   8    9.67    2.30
   2 -10  -7  157.57    5.82
   2  10  -7  149.05    6.79
  -2  10   7  149.15    7.41
  -2 -10   7  150.02    5.19
  -2 -10   7  153.54    2.67
   2 -10  -6   -0.70    1.65
   2  10  -6    0.49    1.24
  -2 -10   6    0.67    0.30
  -2  10   6   -1.39    1.38
  -2 -10   6    1.52    2.09
   2 -10  -5  131.82    4.94
   2  10  -5  124.25    4.27
  -2 -10   5  126.87    2.16
  -2 -10   5  127.40    5.93
  -2  10   5  129.65    4.41
   2 -10  -4   53.62    3.42
  -2  10   4   51.17    2.02
  -2 -10   4   51.82    2.80
   2 -10  -3  124.33    4.34
  -2  10   3  117.39    2.18
  -2 -10   3  118.44    3.78
   2 -10  -2   84.59    3.67
   2  10  -2   82.07    1.27
  -2 -10   2   80.15    4.32
  -2  10   2   82.08    1.82
   2 -10  -1   27.49    2.47
  -2 -10   1   27.68    3.09
  -2  10   1   25.36    0.57
   2 -10   0  110.73    3.89
   2 -10   0  112.50    3.64
  -2 -10   0  112.70    4.75
  -2 -10   0  110.33    3.68
   2 -10   1    0.62    1.02
   2 -10   1    0.10    1.16
  -2 -10  -1    0.76    1.05
  -2 -10  -1   -0.19    0.91
   2 -10   2   22.89    2.02
  -2 -10  -2   22.41    2.16
   2 -10   3   73.88    3.02
   2 -10   3   67.58    0.83
  -2 -10  -3   74.68    4.80
   2 -10   4   44.58    0.92
   2 -10   4   47.62    3.85
  -2 -10  -4   46.34    2.70
   2 -10   5   86.37    3.37
   2 -10   5   82.51    1.39
  -2 -10  -5   90.31    3.53
   2 -10   6   27.06    2.35
  -2 -10  -6   31.41    2.54
   2 -10   7  173.13    5.20
   2  10   7  173.61    4.57
  -2  10  -7  162.70    5.02
  -2 -10  -7  169.38    7.34
   2 -10   8   -0.58    1.40
   2  10   8    1.29    1.16
  -2  10  -8    1.80    1.35
  -2 -10  -8    1.60    2.53
   2 -10   9   26.21    2.79
   2  10   9   29.89    2.21
  -2 -10  -9   26.56    2.80
  -2  10  -9   27.40    3.96
   2 -10  10    0.88    1.51
   2  10  10    0.91    1.12
  -2  10 -10    0.07    1.37
  -2 -10 -10   -0.20    2.50
   2  10  11    3.10    1.44
   2 -10  11    3.77    3.16
  -2  10 -11    3.32    1.83
  -2 -10 -11    0.59    3.35
   2  10  12    0.00    2.17
   2 -10  12    2.25    1.87
  -2  10 -12    1.74    1.70
  -2 -10 -12   -0.03    2.93
   2 -10  13    0.73    1.82
   2  10  13    0.00    1.24
  -2  10 -13    0.17    2.55
  -2 -10 -13    1.64    1.73
   2 -10  14    0.57    1.61
   2  10  14    0.26    1.05
  -2 -10 -14   -0.70    1.48
  -2  10 -14    0.00    2.15
   2  11 -15   -0.12    2.66
   2 -11 -15   -0.01    3.16
  -2  11  15    2.13    2.38
  -2 -11  15    0.56    3.29
  -2 -11  15    3.81    1.19
   2 -11 -14    0.07    4.15
   2  11 -14   -0.48    2.08
  -2  11  14   -0.17    1.91
  -2 -11  14    1.47    0.90
  -2 -11  14   -0.34    2.54
   2 -11 -13   -0.39    2.33
   2  11 -13    1.27    1.95
  -2 -11  13   -0.69    3.54
   2  11 -12   -0.76    3.69
   2 -11 -12    0.09    2.82
  -2  11  12    2.47    3.36
  -2 -11  12    4.95    1.41
  -2 -11  12   -0.37    2.64
   2  11 -11   67.31    4.29
   2 -11 -11   66.76    5.03
  -2 -11  11   62.70    2.01
  -2  11  11   61.33    3.82
  -2 -11  11   61.17    4.66
   2 -11 -10    4.78    4.72
   2  11 -10    4.37    2.23
  -2 -11  10    4.93    1.19
  -2  11  10    4.51    2.16
  -2 -11  10    4.18    4.02
   2 -11  -9   64.38    4.65
   2  11  -9   62.07    3.83
  -2  11   9   62.61    3.68
  -2 -11   9   57.83    2.09
  -2 -11   9   60.55    4.18
   2 -11  -8   22.83    3.47
   2  11  -8   24.82    2.78
  -2  11   8   23.15    2.75
  -2 -11   8   23.08    2.99
  -2 -11   8   22.69    0.87
   2  11  -7    3.19    1.90
   2 -11  -7    4.16    2.42
  -2  11   7    4.05    1.97
  -2 -11   7    5.23    2.02
  -2 -11   7    4.32    0.43
   2 -11  -6   38.92    3.61
   2  11  -6   36.07    2.88
  -2  11   6   41.05    3.06
  -2 -11   6   37.88    1.03
  -2 -11   6   38.72    3.00
   2 -11  -5   18.54    2.88
   2  11  -5   17.44    2.27
  -2  11   5   15.88    1.08
  -2 -11   5   16.48    2.26
   2 -11  -4    6.05    2.23
  -2  11   4    5.12    0.69
  -2 -11   4    6.54    2.72
   2 -11  -3  117.43    4.65
  -2  11   3  117.40    2.60
  -2 -11   3  119.06    5.66
   2 -11  -2   19.89    2.52
   2  11  -2   17.79    0.62
  -2  11   2   18.42    0.61
  -2 -11   2   18.59    3.16
   2  11  -1  307.86    4.43
   2 -11  -1  312.81    7.39
  -2  11   1  306.69    4.28
  -2 -11   1  319.84    8.75
   2 -11   0    0.91    1.26
   2 -11   0    0.03    1.44
  -2 -11   0    1.65    1.33
  -2 -11   0    1.14    1.88
   2 -11   1   56.54    2.86
   2 -11   1   55.13    3.13
  -2 -11  -1   53.41    2.89
  -2 -11  -1   53.10    2.66
   2 -11   2    2.05    1.21
   2 -11   2    0.03    1.14
  -2 -11  -2    0.08    1.06
  -2 -11  -2    0.16    1.22
   2 -11   3  163.20    4.82
  -2 -11  -3  169.14    6.86
   2 -11   4   13.34    1.96
  -2 -11  -4   13.24    2.18
   2 -11   5   45.80    0.92
   2 -11   5   44.20    4.18
  -2 -11  -5   54.32    3.06
   2 -11   6    2.62    2.01
   2 -11   6    0.46    0.25
  -2 -11  -6   -0.51    1.32
   2 -11   7    5.25    2.87
  -2 -11  -7    3.69    1.81
   2 -11   8   13.93    3.77
   2  11   8   15.51    1.97
  -2 -11  -8   17.22    2.48
   2 -11   9    2.23    1.73
   2  11   9    2.66    1.37
  -2  11  -9    2.15    1.65
  -2 -11  -9    0.11    1.78
   2 -11  10    7.94    2.33
   2  11  10    5.68    1.76
  -2  11 -10   10.45    2.21
  -2 -11 -10    7.60    2.31
   2 -11  11   31.92    3.27
   2  11  11   31.04    2.46
  -2  11 -11   29.19    4.78
  -2 -11 -11   29.55    3.25
   2 -11  12    2.66    1.79
   2  11  12    0.13    1.28
  -2  11 -12   -0.15    1.65
  -2 -11 -12    0.86    1.74
   2 -11  13   23.07    2.95
   2  11  13   -0.08    2.02
  -2  11 -13   -0.07    2.59
  -2 -11 -13   21.12    2.78
   2  11  14    0.13    1.13
   2 -12 -14   -0.17    2.55
   2  12 -14   -0.54    2.16
  -2  12  14    2.56    1.87
  -2 -12  14    0.39    0.80
  -2 -12  14    0.18    2.55
   2 -12 -13   -0.10    4.05
   2  12 -13    0.29    2.12
  -2  12  13   -0.06    1.86
  -2 -12  13    0.05    2.44
  -2 -12  13    1.08    0.77
   2 -12 -12   -0.13    2.70
   2  12 -12   -0.55    2.25
  -2  12  12    4.05    2.04
  -2 -12  12    2.54    1.20
  -2 -12  12    0.01    2.58
   2 -12 -11   -0.05    2.31
   2  12 -11    0.05    1.96
  -2  12  11   -0.01    2.87
  -2 -12  11    1.02    0.60
  -2 -12  11    0.96    2.12
   2 -12 -10    2.52    2.11
   2  12 -10    1.24    1.74
  -2  12  10    0.14    1.65
  -2 -12  10    0.57    0.48
  -2 -12  10   -0.27    1.96
   2 -12  -9   49.50    4.31
   2  12  -9   45.99    3.80
  -2 -12   9   53.38    6.18
  -2  12   9   48.01    3.49
  -2 -12   9   48.76    1.28
   2 -12  -8    2.15    4.30
   2  12  -8    3.46    2.13
  -2  12   8    3.92    3.34
  -2 -12   8    4.45    2.28
  -2 -12   8    3.95    0.43
   2  12  -7  147.07    5.42
   2 -12  -7  154.52    6.02
  -2  12   7  146.42    5.12
  -2 -12   7  139.60    2.38
  -2 -12   7  144.76    5.55
   2  12  -6   17.55    2.28
   2 -12  -6   17.28    2.67
  -2  12   6    5.95    1.03
  -2 -12   6   16.18    2.31
  -2  12   6   -0.10    2.06
   2 -12  -5  214.76    6.82
  -2 -12   5  200.38    6.15
  -2  12   5  199.46    4.60
   2 -12  -4   28.15    3.23
  -2  12   4   28.27    1.54
  -2 -12   4   26.20    2.60
   2 -12  -3   34.74    3.24
  -2  12   3   35.11    1.37
  -2 -12   3   31.27    4.13
   2 -12  -2   56.01    3.55
  -2  12   2   55.37    1.33
  -2 -12   2   52.96    4.54
   2 -12  -1   48.00    3.25
   2  12  -1   43.63    0.81
  -2 -12   1   44.18    2.79
   2 -12   0   65.71    5.51
   2 -12   0   60.32    3.19
   2  12   0   56.92    1.11
  -2 -12   0   60.82    3.02
  -2 -12   0   59.81    3.21
   2 -12   1   24.86    2.53
   2 -12   1   31.24    4.51
  -2 -12  -1   26.35    2.32
  -2 -12  -1   25.83    2.50
   2 -12   2    7.79    1.87
   2 -12   2    8.09    2.10
  -2 -12  -2    7.10    3.28
  -2 -12  -2    7.91    1.77
   2 -12   3   47.19    2.95
  -2 -12  -3   52.59    4.96
   2 -12   4   84.46    3.72
  -2 -12  -4   89.89    3.80
   2 -12   5   45.09    3.01
  -2 -12  -5   46.68    3.06
   2 -12   6    0.96    0.24
   2 -12   6    0.92    1.48
  -2 -12  -6    1.77    1.51
   2 -12   7  117.60    4.67
  -2 -12  -7  119.97    4.67
   2 -12   8    2.01    1.67
  -2 -12  -8    0.79    1.68
   2 -12   9   39.21    3.37
  -2 -12  -9   41.95    3.41
   2 -12  10   -1.33    1.66
   2  12  10   -0.19    1.25
  -2 -12 -10   -0.49    1.63
   2 -12  11    7.26    2.18
   2  12  11   -0.26    1.60
  -2  12 -11   -0.10    2.04
  -2 -12 -11    5.99    2.11
   2 -12  12   -1.98    1.83
   2  12  12   -0.06    1.27
  -2  12 -12    0.02    1.65
  -2 -12 -12    0.01    3.00
   2 -12  13    4.38    3.10
   2  12  13   -0.01    1.31
  -2  12 -13    0.09    1.73
  -2 -12 -13    0.08    2.96
   2  13 -14   -0.20    3.62
   2 -13 -14    0.40    2.72
  -2  13  14    2.50    3.24
  -2 -13  14   -0.19    2.71
   2 -13 -13    0.43    4.66
   2  13 -13   26.65    3.96
  -2  13  13   25.81    3.54
  -2 -13  13   36.92    4.60
   2 -13 -12    0.47    4.58
   2  13 -12   -0.55    2.41
  -2  13  12    2.56    2.10
  -2 -13  12    4.39    2.65
   2 -13 -11   30.37    4.31
   2  13 -11   26.71    3.65
  -2  13  11   27.86    3.30
  -2 -13  11   36.03    4.04
  -2 -13  11   23.11    1.14
   2 -13 -10   -0.03    2.11
   2  13 -10   -0.18    1.79
  -2  13  10   -0.87    1.64
  -2 -13  10    2.34    1.97
  -2 -13  10    0.49    0.38
   2 -13  -9   39.45    4.18
   2  13  -9   39.12    3.77
  -2  13   9   39.86    3.34
  -2 -13   9   38.41    3.93
  -2 -13   9   35.55    1.23
   2 -13  -8    3.85    2.16
   2  13  -8   -0.27    1.88
  -2  13   8    0.94    1.71
  -2 -13   8    1.11    0.23
  -2 -13   8    1.90    3.18
   2 -13  -7    6.97    3.85
  -2  13   7    0.38    0.90
  -2 -13   7    8.21    2.00
   2 -13  -6    5.70    2.62
  -2  13   6    6.83    0.98
  -2 -13   6    6.95    2.32
   2 -13  -5   11.22    2.73
  -2  13   5    8.63    0.86
  -2 -13   5    8.19    2.28
   2 -13  -4   53.17    3.87
  -2  13   4   48.31    1.83
  -2 -13   4   48.02    3.32
   2 -13  -3   78.81    4.28
  -2 -13   3   74.82    5.54
  -2  13   3   75.67    1.91
   2 -13  -2    0.11    1.72
  -2  13   2    0.94    0.35
  -2 -13   2    1.85    1.42
   2 -13  -1  111.04    4.40
   2 -13  -1  109.73    6.85
   2  13  -1   97.59    1.51
  -2 -13   1  104.91    4.19
  -2 -13   1  105.96    4.12
   2 -13   0    1.45    1.50
   2 -13   0   -0.19    1.63
   2  13   0    0.80    0.43
  -2 -13   0    2.43    1.52
  -2 -13   0    1.49    1.35
   2 -13   1  226.51    6.32
   2 -13   1  215.04    8.34
  -2 -13  -1  218.25    8.26
  -2 -13  -1  217.28    6.10
   2 -13   2    4.37    2.03
   2 -13   2    4.49    3.03
  -2 -13  -2    5.94    1.90
  -2 -13  -2    3.05    2.81
   2 -13   3  145.06    7.21
  -2 -13  -3  147.99    4.82
  -2 -13  -3  143.21    4.82
   2 -13   4   16.48    2.40
  -2 -13  -4   13.28    2.40
   2 -13   5    5.13    1.95
  -2 -13  -5    4.15    1.97
   2 -13   6   20.79    2.80
  -2 -13  -6   23.42    2.76
   2 -13   7    3.54    2.10
  -2 -13  -7    6.09    2.12
   2 -13   8    3.45    0.34
   2 -13   8    5.56    2.05
   2 -13   8    3.18    0.32
  -2 -13  -8    4.45    2.08
   2 -13   9   14.27    2.80
  -2 -13  -9   14.69    2.78
   2 -13  10    1.98    2.08
  -2 -13 -10    1.15    3.37
   2 -13  11   19.65    4.59
  -2 -13 -11    0.24    4.49
   2 -13  12    0.13    1.49
   2  13  12   -0.21    1.05
  -2 -13 -12    0.12    1.41
   2 -14 -13    0.39    2.84
   2  14 -13   -0.69    2.42
  -2  14  13   -2.55    2.12
  -2 -14  13   -0.05    2.76
   2 -14 -12    0.04    2.14
   2  14 -12   -0.28    2.88
  -2  14  12    1.07    2.72
  -2 -14  12   -0.84    2.02
   2  14 -11   -0.40    2.54
   2 -14 -11   -0.01    4.84
  -2  14  11    4.64    2.22
  -2 -14  11    4.42    4.46
   2 -14 -10    0.10    2.85
   2  14 -10    0.05    2.56
  -2 -14  10    6.42    2.71
  -2  14  10    5.66    2.23
   2 -14  -9   44.63    4.50
   2  14  -9   38.53    4.06
  -2  14   9   35.16    3.62
  -2 -14   9   43.03    4.19
   2 -14  -8    2.56    1.93
  -2 -14   8   -0.40    1.75
  -2  14   8    0.12    0.79
   2 -14  -7   58.89    7.10
  -2  14   7   52.36    2.03
  -2 -14   7   52.47    4.12
   2 -14  -6    1.37    1.84
  -2  14   6    0.10    0.58
  -2 -14   6    1.16    1.56
   2 -14  -5  137.68    5.77
  -2  14   5  123.48    2.71
  -2 -14   5  132.32    5.32
   2 -14  -4   -0.58    1.68
  -2 -14   4   -0.54    1.45
  -2  14   4    0.40    0.38
   2 -14  -3   58.03    3.94
  -2  14   3   52.76    1.44
  -2 -14   3   50.57    5.31
   2 -14  -2    7.17    4.05
  -2 -14   2    6.93    2.06
   2 -14  -1   18.70    2.77
   2 -14  -1   14.79    2.63
  -2 -14   1   17.29    2.51
  -2 -14   1   15.75    2.53
   2 -14   0    2.58    1.68
   2 -14   0    1.24    1.75
   2  14   0    1.18    0.23
  -2 -14   0    1.80    1.60
  -2 -14   0    1.46    1.55
   2 -14   1    2.99    1.85
   2 -14   1    2.39    1.87
   2  14   1    2.03    0.58
  -2 -14  -1    2.37    2.71
  -2 -14  -1    2.64    1.75
   2 -14   2    1.71    1.39
   2 -14   2    0.14    2.39
   2  14   2    0.19    0.22
  -2 -14  -2    1.05    1.34
  -2 -14  -2    1.22    1.28
   2 -14   3   62.50    3.71
   2 -14   3   51.29    5.48
  -2 -14  -3   58.06    3.50
  -2 -14  -3   55.83    3.54
   2 -14   4    5.20    3.38
  -2 -14  -4    6.18    2.14
   2 -14   5   70.60    3.95
  -2 -14  -5   78.45    4.05
   2 -14   6    9.54    2.45
  -2 -14  -6    9.63    4.00
   2 -14   7   37.28    3.52
  -2 -14  -7   46.13    5.55
   2 -14   8    0.13    1.79
  -2 -14  -8    2.39    2.84
   2 -14   9   24.36    3.27
  -2 -14  -9   22.76    3.13
   2 -14  10   15.39    4.05
  -2 -14 -10    0.17    2.50
   2 -14  11    8.65    2.63
  -2 -14 -11   -0.11    2.59
   2 -15 -12    0.08    3.07
   2  15 -12    0.45    2.68
  -2 -15  12    4.17    2.93
  -2  15  12    2.19    2.34
   2 -15 -11   -0.08    3.70
   2  15 -11   -0.38    3.26
  -2  15  11   13.17    2.88
  -2 -15  11   13.57    3.43
   2 -15 -10   -0.05    2.45
  -2 -15  10    4.14    2.22
  -2  15  10   -0.11    1.06
   2 -15  -9    5.56    3.39
  -2  15   9    8.49    1.42
  -2 -15   9   10.66    3.17
   2 -15  -8    0.89    2.03
  -2 -15   8   -0.33    1.85
  -2  15   8    0.33    0.77
   2 -15  -7    4.30    2.53
  -2  15   7    2.74    0.89
  -2 -15   7    3.53    3.87
   2 -15  -6    1.56    2.37
  -2  15   6    1.56    1.10
  -2 -15   6    2.20    1.97
   2 -15  -5   13.41    3.16
  -2  15   5   12.26    1.34
  -2 -15   5   14.34    2.75
   2 -15  -4   -0.17    1.54
  -2 -15   4   -0.85    1.31
  -2  15   4    0.04    0.49
   2 -15  -3   67.01    4.21
  -2  15   3   56.24    1.07
  -2 -15   3   67.27    3.93
   2 -15  -2    3.26    2.89
   2 -15  -2   -0.85    1.57
  -2 -15   2    0.63    1.50
  -2 -15   2    0.51    1.55
   2 -15  -1  157.44    8.32
   2 -15  -1  158.79    5.90
  -2 -15   1  162.28    7.98
  -2 -15   1  158.34    5.82
   2 -15   0    8.00    2.39
   2 -15   0    5.47    2.47
  -2 -15   0    7.56    2.24
  -2 -15   0    6.54    3.56
   2 -15   1   53.24    3.63
   2 -15   1   53.24    5.83
   2  15   1   45.17    1.01
  -2 -15  -1   56.49    3.42
  -2 -15  -1   50.33    3.53
   2 -15   2   -0.09    1.51
   2 -15   2    0.73    1.52
   2  15   2    0.33    0.32
  -2 -15  -2   -0.74    1.40
  -2 -15  -2    0.48    1.41
   2 -15   3   69.25    4.17
   2 -15   3   76.17    4.20
  -2 -15  -3   74.21    3.99
  -2 -15  -3   69.65    5.89
   2 -15   4    2.56    2.08
   2 -15   4    3.63    3.16
  -2 -15  -4    3.62    1.91
  -2 -15  -4    1.85    2.01
   2 -15   5   34.97    3.40
  -2 -15  -5   40.57    3.46
   2 -15   6    6.79    2.44
  -2 -15  -6    5.99    3.92
   2 -15   7    2.82    2.05
  -2 -15  -7   -0.13    3.29
   2 -15   8    8.28    2.44
  -2 -15  -8   -0.09    2.28
   2 -15   9    7.64    2.49
  -2 -15  -9   -0.15    2.41
   2 -15  10   -0.65    2.97
  -2 -15 -10   -0.09    1.75
   2 -16 -10   -0.10    3.44
  -2 -16  10    0.15    3.03
  -2  16  10    0.06    0.80
   2 -16  -9   13.04    3.87
  -2  16   9   12.47    1.51
  -2 -16   9   13.03    3.65
   2 -16  -8    1.96    2.66
  -2  16   8    1.45    0.92
  -2 -16   8    2.60    2.44
   2 -16  -7   43.56    4.47
  -2  16   7   36.88    2.41
  -2 -16   7   38.34    6.66
   2 -16  -6    4.34    2.94
  -2  16   6    4.46    1.25
  -2 -16   6    6.72    2.59
   2 -16  -5   60.98    4.70
  -2  16   5   51.70    2.03
  -2 -16   5   58.51    4.24
   2 -16  -4    0.02    1.87
  -2  16   4    0.40    0.49
  -2 -16   4    0.30    2.69
   2 -16  -3   50.35    6.57
  -2 -16   3   44.08    3.89
   2 -16  -2   14.14    2.93
   2 -16  -2   13.11    3.00
  -2 -16   2   10.58    2.71
  -2 -16   2   12.15    2.69
   2 -16  -1   14.59    2.89
   2 -16  -1   13.72    2.90
  -2 -16   1   10.09    2.60
  -2 -16   1   12.46    2.75
   2 -16   0    6.93    2.62
   2 -16   0    9.23    2.57
  -2 -16   0    6.78    3.92
  -2 -16   0    6.37    2.43
   2 -16   1   14.26    2.82
   2 -16   1   12.47    2.75
  -2 -16  -1    9.47    2.57
  -2 -16  -1    9.43    2.61
   2 -16   2    7.90    2.39
   2  16   2    4.81    0.75
   2 -16   2    7.16    2.43
  -2 -16  -2    3.49    3.66
  -2 -16  -2    4.83    2.26
   2 -16   3   42.93    5.88
   2 -16   3   45.09    3.78
  -2 -16  -3   43.08    3.52
  -2 -16  -3   39.96    3.56
   2 -16   4    1.80    2.06
   2 -16   4    3.98    2.03
  -2 -16  -4    1.67    2.04
  -2 -16  -4    0.38    1.96
   2 -16   5   24.45    5.23
  -2 -16  -5   23.21    3.15
  -2 -16  -5   18.95    2.95
   2 -16   6    0.41    1.72
  -2 -16  -6    0.25    2.80
   2 -16   7   24.87    3.34
  -2 -16  -7    0.10    5.12
   2 -16   8    1.75    2.08
  -2 -16  -8   -0.03    1.97
   2 -16   9   20.15    4.61
  -2 -16  -9   -0.42    2.76
   2 -17  -9    8.31    3.65
  -2  17   9    5.27    1.25
  -2 -17   9    4.25    3.33
   2 -17  -8    1.73    2.87
  -2  17   8    1.64    1.40
  -2 -17   8    1.74    2.63
   2 -17  -7    1.73    2.45
  -2 -17   7   -1.09    3.68
   2 -17  -6    6.25    3.24
  -2 -17   6    6.41    2.98
   2 -17  -5    8.37    3.30
  -2 -17   5    8.84    3.01
   2 -17  -4   17.91    3.45
  -2 -17   4   17.37    5.25
   2 -17  -3   23.05    3.73
   2 -17  -3   24.08    6.14
  -2 -17   3   26.01    3.51
  -2 -17   3   23.96    3.26
   2 -17  -2    4.12    2.55
   2 -17  -2    6.28    4.19
  -2 -17   2    6.13    2.45
  -2 -17   2   -0.03    3.97
   2 -17  -1   46.23    4.35
   2 -17  -1   51.12    4.22
  -2 -17   1   54.63    3.87
  -2 -17   1   52.98    6.13
   2 -17   0    1.16    1.72
   2 -17   0    0.32    1.75
  -2 -17   0   -0.46    1.63
  -2 -17   0    0.11    1.57
   2 -17   1   63.27    4.81
   2 -17   1   72.48    4.56
  -2 -17  -1   69.49    4.32
  -2 -17  -1   68.88    4.49
   2 -17   2   10.68    4.34
   2 -17   2   11.02    2.68
  -2 -17  -2    6.82    2.50
  -2 -17  -2   -0.04    2.43
   2 -17   3   54.15    4.41
   2 -17   3   52.24    4.21
  -2 -17  -3   55.23    3.96
  -2 -17  -3   50.53    4.14
   2 -17   4    8.06    2.90
   2 -17   4    8.78    2.74
  -2 -17  -4    8.82    2.69
  -2 -17  -4    8.20    2.65
   2 -17   5    5.51    2.35
   2 -17   5    0.93    3.95
  -2 -17  -5   -0.03    2.40
  -2 -17  -5    5.24    2.27
   2 -17   6    2.82    2.00
   2 -17   6   -1.03    1.68
  -2 -17  -6    0.67    1.85
  -2 -17  -6    0.14    3.15
   2 -17   7    1.37    2.17
  -2 -17  -7   -0.31    3.40
   2 -17   8    1.95    2.31
  -2 -17  -8    0.20    2.17
   2 -18  -7   21.07    4.39
  -2 -18   7   20.04    6.57
   2 -18  -6   -2.02    2.68
  -2 -18   6   -0.33    2.44
   2 -18  -5   39.41    4.78
  -2 -18   5   40.08    4.40
   2 -18  -4   -0.67    1.98
   2 -18  -4   -1.03    2.00
  -2 -18   4   -0.19    1.79
  -2 -18   4    0.70    1.92
   2 -18  -3   25.21    4.04
   2 -18  -3   24.55    3.97
  -2 -18   3   27.64    3.83
  -2 -18   3   23.09    3.53
   2 -18  -2   21.70    3.80
   2 -18  -2   18.55    3.69
  -2 -18   2   16.68    5.49
  -2 -18   2   23.13    3.41
   2 -18  -1    2.76    3.89
   2 -18  -1    0.57    4.02
  -2 -18   1    2.85    2.27
  -2 -18   1    0.13    3.66
   2 -18   0   16.42    3.28
   2 -18   0   18.56    3.19
  -2 -18   0   12.09    3.08
  -2 -18   0    0.21    2.94
   2 -18   1    7.27    2.70
   2 -18   1    4.73    2.76
  -2 -18  -1   -0.27    2.54
  -2 -18  -1    7.22    2.60
   2 -18   2    3.23    2.47
   2 -18   2    4.46    4.01
  -2 -18  -2    0.27    2.30
  -2 -18  -2    4.32    2.40
   2 -18   3    4.55    2.46
   2 -18   3    3.84    2.50
  -2 -18  -3    3.48    3.82
  -2 -18  -3   -0.03    2.34
   2 -18   4    5.10    2.72
   2 -18   4    3.53    2.62
  -2 -18  -4    3.83    2.53
  -2 -18  -4    3.52    2.51
   2 -18   5   33.69    3.92
   2 -18   5   37.67    4.21
  -2 -18  -5   29.23    4.00
  -2 -18  -5   29.34    3.85
   2 -18   6    1.42    1.95
   2 -18   6   -0.92    2.08
  -2 -18  -6    0.09    1.97
  -2 -18  -6    0.94    1.83
   2 -19  -5   -0.58    2.24
   2 -19  -5   -0.34    2.11
  -2 -19   5    0.39    3.32
  -2 -19   5   -0.04    1.92
   2 -19  -4    4.81    2.99
   2 -19  -4    4.85    5.21
  -2 -19   4    5.43    2.87
  -2 -19   4    0.15    2.76
   2 -19  -3    7.81    3.23
   2 -19  -3    8.13    3.33
  -2 -19   3   -0.04    2.95
  -2 -19   3    8.89    3.10
   2 -19  -2    6.82    2.88
   2 -19  -2    4.31    2.88
  -2 -19   2    0.13    2.62
  -2 -19   2    3.18    2.70
   2 -19  -1   12.27    3.27
   2 -19  -1   10.22    3.34
  -2 -19   1   10.92    3.08
  -2 -19   1   -0.07    3.04
   2 -19   0    0.74    3.99
   2 -19   0    2.14    2.45
  -2 -19   0    2.07    3.78
  -2 -19   0   -0.45    3.75
   2 -19   1   45.30    4.90
   2 -19   1   49.62    4.83
  -2 -19  -1   53.39    4.65
  -2 -19  -1   49.22    4.47
   2 -19   2    4.12    2.71
   2 -19   2    4.12    2.68
  -2 -19  -2   -0.31    2.52
  -2 -19  -2    4.34    4.14
   2 -19   3   10.41    5.67
   2 -19   3   12.59    5.59
  -2 -19  -3   11.14    3.30
  -2 -19  -3   14.28    5.47
   3   0 -15   -1.29    2.15
  -3   0  15   -2.37    2.41
  -3   0  13   -0.59    1.99
   3   0 -12    6.62    2.42
  -3   0  12    7.24    2.85
   3   0 -11   -1.76    1.76
  -3   0  11   -1.24    2.18
   3   0 -10   88.25    4.23
   3   0  -9   -0.81    1.30
  -3   0   9    0.40    1.58
   3   0  -8  417.40    8.95
  -3   0   8  405.16    8.99
   3   0  -7   -1.44    1.91
  -3   0   7   -0.40    1.31
  -3   0   7   -0.50    0.81
   3   0  -6  565.88   10.72
  -3   0   6  577.13   10.01
  -3   0   6  550.31   10.52
   3   0  -5    0.35    0.98
  -3   0   5    0.40    0.67
  -3   0   5    0.23    1.04
   3   0  -4  101.00    2.54
   3   0  -4   99.54    4.78
  -3   0   4   94.38    3.25
  -3   0   4  101.01    2.49
   3   0  -3   -0.30    0.58
   3   0  -3    0.41    0.81
  -3   0   3   -0.56    0.58
  -3   0   3    0.24    0.87
   3   0  -2   32.53    2.15
   3   0  -2   30.08    1.47
  -3   0   2   29.20    1.48
  -3   0   2   31.87    1.40
   3   0  -1    0.52    0.41
   3   0  -1   -0.14    0.55
  -3   0   1   -0.08    0.57
   3   0   0   19.51    1.20
   3   0   0   18.23    0.46
  -3   0   0   20.26    0.62
   3   0   2   33.76    0.72
  -3   0  -2   33.43    0.54
   3   0   3   -0.17    0.40
  -3   0  -3    0.05    0.16
   3   0   4  382.82    6.33
  -3   0  -4  390.69    5.61
   3   0   5   -0.07    0.87
  -3   0  -5   -0.43    0.61
   3   0   6    1.19    1.25
  -3   0  -6    2.42    0.93
   3   0   7   -0.78    0.65
  -3   0  -7    0.28    0.49
   3   0   8  103.11    2.98
  -3   0  -8  102.22    3.43
   3   0   9    0.68    1.64
  -3   0  -9    0.62    1.24
   3   0  10   78.73    2.96
  -3   0 -10   78.63    2.63
   3   0  11   -0.60    1.12
  -3   0 -11   -0.88    0.92
   3   0  12   16.48    3.41
  -3   0 -12   16.07    1.72
   3   0  13    0.55    1.25
   3   0  14    6.07    1.90
  -3   0 -14    7.15    1.66
  -3   0 -15    0.01    0.82
   3   0  16    0.03    1.08
   3   1 -16    1.52    2.32
  -3  -1  15    2.17    2.55
   3  -1 -14   31.42    3.67
   3   1 -13    1.66    1.80
  -3   1  13    0.06    2.08
   3   1 -12   91.22    4.37
   3  -1 -12   91.45    4.88
  -3   1  12   90.13    5.14
  -3  -1  12   89.04    5.38
   3   1 -11   -0.15    1.46
   3  -1 -11    1.95    1.70
  -3   1  11    0.80    1.90
  -3  -1  11    0.25    2.01
   3  -1 -10   25.09    3.23
  -3   1  10   46.93    5.86
   3  -1  -9    3.95    2.04
   3   1  -9    4.03    1.77
  -3   1   9    5.90    3.80
  -3  -1   9    5.25    2.25
   3   1  -8   91.16    3.50
   3  -1  -8   91.09    5.69
  -3   1   8   92.12    3.92
  -3  -1   8   90.31    4.06
   3  -1  -7   17.34    2.21
   3   1  -7   19.32    1.86
  -3  -1   7   19.81    3.80
  -3  -1   7   16.25    1.38
  -3   1   7   14.74    2.25
   3   1  -6   12.65    1.67
   3  -1  -6    5.91    3.25
  -3   1   6   12.53    1.29
  -3  -1   6   13.38    1.25
  -3  -1   6   14.23    1.97
  -3   1   6   15.94    1.95
   3  -1  -5   82.79    3.16
   3   1  -5   77.54    2.64
  -3   1   5   78.14    2.87
  -3  -1   5   80.54    2.21
  -3  -1   5   76.78    2.97
  -3   1   5   81.68    2.27
   3   1  -4  299.58    5.32
   3  -1  -4  294.93    6.23
   3   1  -4  291.24    5.67
  -3  -1   4  286.13    7.75
  -3  -1   4  303.89    5.34
  -3   1   4  295.38    5.99
  -3   1   4  302.27    5.42
   3   1  -3   12.66    1.08
   3   1  -3   12.22    1.30
   3  -1  -3   11.00    1.12
   3  -1  -3   13.74    2.88
  -3   1   3   12.67    1.51
  -3  -1   3   11.74    1.47
  -3  -1   3   12.84    1.09
  -3   1   3   12.77    1.12
   3   1  -2  171.05    3.28
   3   1  -2  168.44    3.00
   3  -1  -2  173.38    5.04
   3  -1  -2  170.43    3.28
  -3   1   2  170.79    4.27
  -3  -1   2  173.73    4.26
  -3   1   2  169.04    3.26
  -3  -1   2  163.92    3.23
   3  -1  -1   38.97    2.17
   3   1  -1   37.39    1.44
   3   1  -1   39.54    0.94
   3  -1  -1   38.81    1.32
  -3   1   1   39.23    1.44
  -3  -1   1   37.33    1.50
   3  -1   0  863.20   12.44
   3   1   0  808.15   13.11
   3  -1   0  818.27   13.14
   3   1   0  868.38   11.56
   3  -1   1  264.80    3.50
   3  -1   1  262.09    3.52
   3  -1   2   47.68    1.08
   3   1   2   46.61    0.70
  -3  -1  -2   45.14    0.74
   3  -1   3  440.67    6.19
   3   1   3  454.18    6.18
  -3  -1  -3  434.96    6.16
  -3   1  -3  454.99    6.68
   3  -1   4   17.77    1.40
   3   1   4   18.30    1.19
  -3  -1  -4   17.75    1.08
  -3   1  -4   18.16    1.03
   3  -1   5   75.93    2.60
   3   1   5   77.28    2.40
  -3  -1  -5   77.24    1.65
  -3   1  -5   76.01    1.60
   3  -1   6   39.67    1.61
   3   1   6   40.23    1.45
  -3   1  -6   40.00    1.83
  -3  -1  -6   39.44    1.37
   3   1   7    3.72    0.99
   3  -1   7    3.21    1.09
  -3  -1  -7    4.20    1.33
  -3   1  -7    4.45    0.77
   3  -1   8   13.67    2.47
   3   1   8   11.07    1.38
  -3   1  -8   11.57    1.10
  -3  -1  -8   11.09    1.16
   3   1   9   14.13    1.59
   3  -1   9   16.65    1.77
  -3   1  -9   15.33    1.31
  -3  -1  -9   14.88    1.34
   3  -1  10    0.27    1.88
   3   1  10    0.74    1.07
  -3   1 -10    1.42    0.86
  -3  -1 -10    0.11    1.46
   3   1  11    4.20    2.33
   3  -1  11    4.97    1.51
  -3   1 -11    5.22    1.23
  -3  -1 -11    4.76    1.26
   3   1  12   50.10    2.66
   3  -1  12   56.45    4.68
  -3   1 -12   44.52    2.41
  -3  -1 -12   42.57    2.43
   3  -1  13    1.57    1.34
   3   1  13    0.00    1.23
   3   1  14   21.15    2.30
   3  -1  14   22.15    2.49
  -3  -1 -14   20.23    2.15
   3  -1  15    0.00    0.97
  -3   1 -15    0.02    0.83
   3  -1  16    3.40    1.70
   3   1  16    1.83    1.56
  -3   1 -16    0.01    1.50
  -3   2  18   -0.06    1.98
   3   2 -17   -1.11    2.28
   3  -2 -16   -0.84    2.31
   3   2 -14    3.46    2.41
   3  -2 -14    4.74    2.67
  -3  -2  14    5.07    2.83
  -3   2  14    5.15    2.62
   3   2 -13    0.60    1.74
  -3   2  13    1.04    1.96
   3   2 -12   13.41    2.54
   3  -2 -12   14.27    3.10
  -3  -2  12   13.24    3.41
  -3   2  12   12.25    3.08
   3  -2 -11    0.69    1.66
   3   2 -11   -1.24    1.35
  -3  -2  11   -1.29    1.80
  -3   2  11    1.08    1.69
   3   2 -10  211.81    8.21
   3  -2 -10  211.22    6.87
  -3   2  10  200.40    6.65
   3   2  -9    3.98    2.67
   3  -2  -9    3.05    2.14
  -3  -2   9    4.02    2.26
  -3   2   9    4.82    2.12
   3   2  -8  283.16    6.54
   3  -2  -8  299.99    7.53
  -3  -2   8  299.20    5.91
  -3  -2   8  284.18    7.29
  -3   2   8  279.05    6.94
   3   2  -7   49.79    2.43
   3  -2  -7   56.11    3.08
  -3  -2   7   50.53    1.92
  -3   2   7   50.19    2.86
  -3  -2   7   51.66    2.90
   3   2  -6    6.33    2.25
   3  -2  -6    8.03    1.88
  -3  -2   6    9.24    1.71
  -3  -2   6    8.22    1.05
  -3   2   6    8.90    1.75
  -3   2   6    6.93    1.14
   3  -2  -5   18.64    2.05
   3   2  -5   18.52    1.51
  -3  -2   5   21.20    1.23
  -3  -2   5   17.06    1.77
  -3   2   5   18.64    1.33
  -3   2   5   20.78    3.11
   3   2  -4  587.83   10.55
   3  -2  -4  582.52   10.53
   3   2  -4  571.04    9.95
  -3  -2   4  596.34    9.81
  -3   2   4  591.23   10.13
  -3  -2   4  587.58   12.04
  -3   2   4  604.15   10.02
   3   2  -3   57.72    1.70
   3   2  -3   57.73    1.85
   3  -2  -3   58.03    2.55
   3  -2  -3   55.17    1.80
  -3   2   3   58.82    1.82
  -3   2   3   56.50    2.24
  -3  -2   3   56.01    1.73
  -3  -2   3   56.48    2.08
   3   2  -2   84.70    2.66
   3   2  -2   84.35    2.06
   3  -2  -2   84.87    2.05
   3  -2  -2   86.13    2.53
  -3  -2   2   83.41    2.07
  -3  -2   2   85.90    2.06
  -3   2   2   85.28    2.21
  -3   2   2   84.79    2.11
   3   2  -1  158.43    3.04
   3  -2  -1  158.29    2.99
   3   2  -1  156.60    2.50
   3  -2  -1  157.23    2.93
  -3  -2   1  158.56    3.04
  -3   2   1  156.98    2.99
  -3   2   1  155.15    3.54
  -3  -2   1  156.64    2.43
   3   2   0   24.92    0.64
   3  -2   0   24.97    1.75
   3  -2   0   24.77    0.96
   3   2   0   24.85    1.95
   3  -2   1  136.46    2.71
   3  -2   1  140.24    2.11
   3  -2   1  139.44    2.14
  -3  -2  -1  140.61    2.11
   3  -2   2   90.43    1.93
  -3  -2  -2   88.96    1.68
   3   2   3   35.89    0.76
   3  -2   3   37.19    0.98
  -3   2  -3   37.21    1.34
  -3  -2  -3   37.08    0.94
   3   2   4  235.19    3.97
   3  -2   4  247.74    4.68
  -3   2  -4  248.98    4.45
  -3  -2  -4  250.39    3.88
   3   2   5   -0.37    0.33
   3  -2   5    0.37    0.40
  -3  -2  -5    0.04    0.37
  -3   2  -5    0.12    0.32
   3   2   6  136.48    3.59
   3  -2   6  137.44    3.04
  -3   2  -6  133.30    2.73
  -3  -2  -6  136.06    2.87
   3   2   7    0.11    0.63
   3  -2   7    0.23    0.75
  -3  -2  -7    0.84    1.05
  -3   2  -7    0.09    0.53
   3   2   8   60.01    2.13
   3  -2   8   68.17    2.61
  -3   2  -8   64.07    2.03
  -3  -2  -8   62.44    2.19
   3   2   9    1.07    1.59
   3  -2   9    1.31    1.15
  -3   2  -9    1.86    0.82
  -3  -2  -9    0.26    0.91
   3   2  10   12.42    2.45
   3  -2  10   12.28    1.83
  -3  -2 -10   11.32    1.47
  -3   2 -10   10.56    1.36
   3  -2  11    5.02    1.45
   3   2  11    0.94    1.18
  -3  -2 -11    2.94    1.17
  -3   2 -11    3.04    1.14
   3   2  12    5.08    1.50
   3  -2  12    5.32    3.17
  -3   2 -12    4.78    1.40
  -3  -2 -12    6.47    1.43
   3   2  13    5.78    1.66
   3  -2  13    8.60    1.97
  -3   2 -13    5.82    1.53
   3   2  14    0.60    1.14
   3  -2  14   -1.74    2.23
  -3  -2 -14   -0.94    1.09
   3  -2  15    0.04    1.52
  -3   2 -15    1.55    1.30
   3  -2  16    5.07    3.18
  -3  -2 -16    0.02    1.63
  -3   2 -16    4.54    1.63
   3   3 -18    0.13    1.91
   3  -3 -15    3.24    2.35
  -3   3  15   -0.05    2.23
   3   3 -14   52.48    3.93
  -3  -3  14   42.23    4.76
  -3   3  14   51.76    4.24
   3   3 -13    1.20    1.80
   3  -3 -13    3.26    2.17
  -3  -3  13    1.33    2.35
  -3   3  13   -0.24    2.09
   3   3 -12   34.12    3.06
   3  -3 -12   31.57    6.16
  -3  -3  12   31.34    6.92
  -3   3  12   25.90    3.63
   3  -3 -11    0.57    2.08
   3   3 -11    0.64    1.59
  -3  -3  11    2.17    2.18
  -3   3  11    1.75    1.96
   3   3 -10  138.12    6.65
   3  -3 -10  129.04    5.69
  -3   3  10  117.46    5.11
   3   3  -9   54.46    4.59
   3  -3  -9   57.64    4.07
  -3  -3   9   57.41    2.25
  -3  -3   9   55.52    3.81
  -3   3   9   55.28    3.64
   3   3  -8   -0.62    1.05
   3  -3  -8    0.65    1.55
  -3  -3   8    0.96    0.78
  -3  -3   8    0.02    2.40
  -3   3   8    0.86    1.37
   3   3  -7   36.94    2.12
   3  -3  -7   39.28    4.56
  -3  -3   7   38.64    1.64
  -3  -3   7   41.95    2.62
  -3   3   7   37.93    2.63
   3   3  -6    5.60    1.27
   3  -3  -6    5.61    1.82
  -3  -3   6    6.03    1.51
  -3   3   6    4.88    1.08
  -3   3   6    5.60    2.66
  -3  -3   6    6.36    0.91
   3  -3  -5   22.31    2.15
   3   3  -5   20.78    2.46
  -3  -3   5   23.09    2.90
  -3   3   5   24.12    1.89
  -3  -3   5   23.14    1.21
  -3   3   5   23.28    1.37
   3  -3  -4  177.55    4.28
   3   3  -4  173.41    3.26
   3   3  -4  169.84    3.69
  -3  -3   4  175.67    3.26
  -3  -3   4  174.00    3.90
  -3   3   4  172.73    3.44
  -3   3   4  170.35    3.79
   3   3  -3  336.07    5.59
   3   3  -3  340.98    5.96
   3  -3  -3  349.31    5.89
   3  -3  -3  341.24    6.36
  -3  -3   3  343.22    7.11
  -3  -3   3  343.15    5.68
  -3   3   3  344.14    6.74
  -3   3   3  339.08    5.96
   3   3  -2   58.97    1.65
   3   3  -2   59.08    1.65
   3  -3  -2   57.68    2.20
   3  -3  -2   57.78    1.64
  -3  -3   2   59.61    1.65
  -3  -3   2   61.06    1.71
  -3   3   2   60.07    1.67
  -3   3   2   57.52    1.86
   3   3  -1   39.31    1.38
   3   3  -1   40.31    1.75
   3  -3  -1   38.38    1.32
   3  -3  -1   40.28    2.61
  -3  -3   1   39.15    1.15
  -3   3   1   40.94    2.26
  -3   3   1   38.70    1.94
   3   3   0  560.33    8.98
   3  -3   0  575.96    8.46
   3  -3   0  544.11    9.26
  -3  -3   0  516.62    7.52
  -3   3   0  552.03    8.63
   3  -3   1    1.34    0.47
   3  -3   1    0.93    0.55
   3  -3   1    1.22    0.54
  -3  -3  -1    1.17    0.38
   3  -3   2    3.27    0.53
  -3  -3  -2    2.47    0.73
   3  -3   3   12.44    0.76
   3   3   3   12.43    0.59
  -3  -3  -3   12.54    0.73
  -3   3  -3   12.69    0.75
   3   3   4  134.35    2.22
   3  -3   4  135.90    2.59
  -3  -3  -4  134.91    2.51
  -3   3  -4  135.99    2.53
   3   3   5  210.15    4.11
   3  -3   5  211.94    3.87
  -3  -3  -5  207.77    4.70
  -3   3  -5  207.81    3.79
   3   3   6  234.61    4.08
   3  -3   6  245.89    5.86
  -3  -3  -6  246.21    4.66
  -3   3  -6  237.27    4.41
   3   3   7   28.60    1.47
   3  -3   7   29.57    2.75
  -3  -3  -7   29.88    1.69
  -3   3  -7   28.68    1.40
   3   3   8   16.08    1.38
   3  -3   8   16.91    2.75
  -3  -3  -8   15.75    2.55
  -3   3  -8   16.84    1.29
   3   3   9    5.58    1.20
   3  -3   9    6.42    1.50
  -3  -3  -9    4.43    2.01
  -3   3  -9    4.94    1.12
   3   3  10   33.12    1.91
   3  -3  10   35.32    2.52
  -3  -3 -10   36.39    2.10
  -3   3 -10   35.80    1.93
   3   3  11    1.15    0.90
   3  -3  11    0.66    1.20
  -3  -3 -11   -0.44    1.63
  -3   3 -11    0.02    0.94
   3   3  12   24.53    2.00
   3  -3  12   25.83    4.24
  -3  -3 -12   20.20    2.05
  -3   3 -12   24.54    1.97
   3   3  13   -1.27    0.84
   3  -3  13    1.36    1.10
  -3  -3 -13   -0.23    0.84
  -3   3 -13    0.54    0.85
   3   3  14    8.38    1.85
   3  -3  14    8.56    3.59
  -3  -3 -14   13.77    1.89
  -3   3 -14    9.70    1.90
   3   3  15   -1.41    1.25
   3  -3  15   -0.03    1.52
  -3   3 -15    0.04    2.05
   3  -3  16   -0.12    1.73
  -3   3 -16   -1.69    1.46
   3   4 -18    0.45    2.17
   3  -4 -17   -0.17    2.09
  -3  -4  17    0.54    2.27
   3   4 -16    2.07    2.23
  -3   4  16    0.41    2.32
   3   4 -15    2.22    1.81
   3  -4 -15    0.28    2.09
  -3  -4  15   -1.72    2.19
  -3   4  15    0.21    1.81
   3   4 -14   25.06    3.30
  -3  -4  14   29.39    4.15
  -3   4  14   22.27    3.47
   3   4 -13   -1.01    1.52
   3  -4 -13   -0.14    1.95
  -3  -4  13   -0.04    2.04
  -3   4  13    0.09    1.71
   3   4 -12   14.16    2.55
   3  -4 -12   13.03    3.32
  -3  -4  12   12.87    3.42
  -3   4  12   13.55    2.91
   3   4 -11   17.43    2.46
   3  -4 -11   18.07    3.44
  -3  -4  11   17.77    3.27
  -3   4  11   13.14    2.99
   3   4 -10   21.53    2.43
   3  -4 -10   23.54    6.08
  -3  -4  10   22.80    1.74
  -3  -4  10   22.45    3.24
  -3   4  10   18.88    2.95
   3   4  -9   25.34    2.39
   3  -4  -9   31.16    3.37
  -3  -4   9   26.69    1.67
  -3  -4   9   26.24    3.08
  -3   4   9   22.45    3.03
   3  -4  -8  353.89    8.81
   3   4  -8  344.93    7.59
  -3  -4   8  358.21    6.68
  -3  -4   8  364.76   10.95
  -3   4   8  347.94    8.02
   3   4  -7   49.95    2.43
   3  -4  -7   49.48    3.20
  -3  -4   7   50.65    1.78
  -3  -4   7   50.32    2.85
  -3   4   7   48.89    4.58
   3   4  -6  274.14    7.06
   3  -4  -6  278.56    8.61
  -3  -4   6  286.08    6.14
  -3  -4   6  282.08    5.86
  -3   4   6  275.51    5.33
  -3   4   6  276.93    5.91
   3  -4  -5    0.10    1.68
   3   4  -5    0.92    0.70
  -3  -4   5   -0.11    0.46
  -3  -4   5    0.25    0.78
  -3   4   5   -0.15    0.84
  -3   4   5   -0.26    0.95
   3   4  -4   61.65    2.09
   3   4  -4   59.47    1.63
   3  -4  -4   58.75    2.52
  -3  -4   4   60.59    2.17
  -3  -4   4   60.00    2.32
  -3   4   4   58.21    2.20
  -3   4   4   58.48    1.77
   3   4  -3  103.15    2.12
   3   4  -3  104.23    2.54
   3  -4  -3  104.71    2.93
  -3  -4   3  105.01    2.61
  -3  -4   3  104.50    2.17
  -3   4   3  102.10    3.04
  -3   4   3  101.77    2.57
   3   4  -2   18.77    0.97
   3  -4  -2   18.05    0.98
   3  -4  -2   16.07    1.45
   3   4  -2   17.77    1.14
  -3  -4   2   18.64    0.97
  -3  -4   2   18.83    1.81
  -3   4   2   18.01    2.07
  -3   4   2   18.11    1.53
   3   4  -1  711.28   11.39
   3   4  -1  713.83   12.07
   3  -4  -1  706.90   11.08
   3  -4  -1  723.29   12.71
  -3  -4   1  719.82   11.39
  -3   4   1  717.96   11.06
  -3   4   1  708.13   11.07
   3   4   0   73.75    1.84
   3  -4   0   75.17    1.88
   3  -4   0   74.09    2.23
  -3  -4   0   75.74    2.15
  -3   4   0   75.89    1.64
   3  -4   1  126.98    2.33
   3  -4   1  130.29    2.48
   3  -4   1  133.63    2.60
  -3  -4  -1  133.34    2.86
  -3  -4  -1  131.72    2.28
   3  -4   2  179.03    3.25
  -3  -4  -2  174.19    2.78
   3  -4   3   25.18    1.65
  -3  -4  -3   24.91    1.02
   3   4   4  162.75    3.40
   3  -4   4  158.52    3.84
  -3  -4  -4  162.34    3.94
  -3   4  -4  160.15    3.11
   3   4   5    0.46    0.51
   3  -4   5    0.95    0.97
  -3  -4  -5    0.75    1.10
  -3   4  -5    0.12    0.56
   3   4   6   71.46    1.91
   3  -4   6   71.61    2.23
  -3   4  -6   72.07    2.07
  -3  -4  -6   73.26    2.32
   3   4   7    8.77    1.11
   3  -4   7   10.50    1.31
  -3  -4  -7    7.61    1.39
  -3   4  -7    8.72    1.08
   3   4   8   74.72    2.29
   3  -4   8   80.69    2.84
  -3  -4  -8   77.34    2.85
  -3   4  -8   72.44    2.39
   3   4   9   27.69    1.72
   3  -4   9   31.19    2.21
  -3  -4  -9   27.01    2.06
  -3   4  -9   26.59    2.60
   3  -4  10   46.59    2.72
   3   4  10   43.57    2.08
  -3  -4 -10   45.85    2.42
  -3   4 -10   46.17    2.23
   3   4  11   11.86    1.52
   3  -4  11   13.53    2.10
  -3  -4 -11   13.04    2.88
  -3   4 -11   13.02    1.63
   3   4  12    0.84    0.96
  -3  -4 -12   -0.54    1.06
  -3   4 -12    0.68    0.98
   3  -4  13    1.28    1.68
   3   4  13    0.84    1.24
  -3  -4 -13    2.95    1.30
  -3   4 -13    1.72    1.32
   3   4  14    0.65    1.01
   3  -4  14   -0.61    1.36
  -3  -4 -14   -0.44    1.76
  -3   4 -14   -0.89    1.10
   3   4  15    2.75    1.32
   3  -4  15    0.29    2.94
  -3  -4 -15   -0.03    1.41
  -3   4 -15    0.74    1.44
   3  -4  16   -0.08    1.93
  -3   4 -16    3.51    1.64
   3   5 -17    1.20    2.02
   3  -5 -17   -0.22    2.24
  -3  -5  17   -1.35    1.43
  -3   5  17    0.16    1.97
  -3  -5  17   -0.31    3.93
   3   5 -16   -0.11    2.25
   3  -5 -16    0.29    2.67
  -3  -5  16    7.50    2.70
  -3  -5  16    0.68    1.63
  -3   5  16    0.34    2.25
   3   5 -15   -0.25    1.70
   3  -5 -15   -0.24    2.00
  -3  -5  15    3.62    3.37
  -3  -5  15    0.11    1.21
  -3   5  15    0.38    1.66
   3   5 -14    2.89    1.40
   3  -5 -14    2.70    1.75
  -3  -5  14   -2.09    0.99
  -3  -5  14   -0.33    1.80
  -3   5  14    0.26    2.45
   3   5 -13   -1.37    2.72
   3  -5 -13    2.53    2.13
  -3  -5  13   -0.08    3.52
  -3  -5  13    0.76    1.16
  -3   5  13   -0.67    2.98
   3   5 -12  118.72    7.26
   3  -5 -12  136.60    6.37
  -3  -5  12  133.77    4.04
  -3  -5  12  128.43    6.16
  -3   5  12  119.78    8.05
   3   5 -11   12.95    3.80
   3  -5 -11   12.98    5.54
  -3  -5  11   15.36    1.63
  -3  -5  11   16.27    5.38
  -3   5  11   11.98    2.81
   3   5 -10   18.44    2.44
   3  -5 -10   24.91    3.58
  -3  -5  10   23.06    1.66
  -3  -5  10   20.94    3.26
  -3   5  10   19.07    2.89
   3   5  -9   15.36    2.11
   3  -5  -9   15.61    3.17
  -3  -5   9   15.38    2.67
  -3  -5   9   16.91    1.37
  -3   5   9   16.37    2.67
   3   5  -8   35.56    2.46
   3  -5  -8   38.95    3.53
  -3  -5   8   40.12    1.67
  -3  -5   8   34.51    4.62
  -3   5   8   36.79    2.98
   3   5  -7   96.97    3.34
   3  -5  -7  100.01    4.24
  -3  -5   7  100.06    2.43
  -3  -5   7  101.62    3.72
  -3   5   7   94.51    3.66
   3   5  -6    1.54    0.97
   3  -5  -6    0.94    2.32
  -3  -5   6    0.49    0.60
  -3  -5   6    1.41    1.09
  -3   5   6    0.40    0.77
  -3   5   6    1.49    1.18
   3   5  -5  476.24   10.26
   3  -5  -5  474.98    9.16
  -3   5   5  478.83    9.24
  -3  -5   5  477.14    7.78
  -3  -5   5  486.08    9.09
  -3   5   5  474.29    8.62
   3   5  -4  127.62    4.21
   3   5  -4  125.88    2.45
   3  -5  -4  126.97    3.61
  -3  -5   4  127.14    3.24
  -3  -5   4  130.51    3.11
  -3   5   4  123.94    2.67
  -3   5   4  124.92    3.24
   3   5  -3   63.36    2.03
   3   5  -3   61.87    1.50
   3  -5  -3   62.56    2.43
  -3  -5   3   63.15    1.54
  -3  -5   3   62.94    2.09
  -3   5   3   60.25    2.16
  -3   5   3   64.60    2.33
   3   5  -2   23.07    1.29
   3   5  -2   22.56    0.98
   3  -5  -2   22.17    1.00
   3  -5  -2   23.48    1.59
  -3  -5   2   22.93    1.30
  -3  -5   2   21.94    0.97
  -3   5   2   22.59    1.49
  -3   5   2   22.96    1.42
   3   5  -1  149.01    3.01
   3   5  -1  151.06    3.36
   3  -5  -1  146.82    2.59
   3  -5  -1  146.04    3.11
  -3  -5   1  150.22    2.98
  -3   5   1  147.59    2.57
   3   5   0  295.90    4.91
   3  -5   0  287.81    4.53
   3  -5   0  293.59    5.01
  -3  -5   0  299.40    5.03
  -3   5   0  287.80    4.49
   3  -5   1   10.46    0.68
   3  -5   1   12.21    0.98
   3  -5   1   10.64    1.07
  -3  -5  -1   10.75    1.26
  -3  -5  -1   12.53    1.46
   3  -5   2   78.62    2.03
   3  -5   2   79.01    2.16
  -3  -5  -2   77.17    1.76
   3  -5   3   93.89    3.00
  -3  -5  -3   93.82    2.06
   3   5   4   54.69    1.49
   3  -5   4   56.97    2.54
  -3  -5  -4   56.26    1.73
  -3   5  -4   54.81    1.75
   3   5   5  200.93    4.55
   3  -5   5  203.95    4.13
  -3  -5  -5  200.72    4.03
  -3   5  -5  195.99    4.05
   3   5   6   24.84    1.35
   3  -5   6   22.89    1.53
  -3  -5  -6   25.41    2.69
  -3   5  -6   22.52    1.39
   3   5   7   23.16    2.26
   3  -5   7   22.13    1.65
  -3  -5  -7   21.28    1.78
  -3   5  -7   20.30    1.44
   3   5   8    2.85    0.97
   3  -5   8    1.96    1.22
  -3  -5  -8    1.88    1.28
  -3   5  -8    3.01    1.01
   3  -5   9    4.09    1.53
  -3  -5  -9    4.74    1.52
  -3   5  -9    6.03    1.92
   3   5  10    0.90    0.81
   3  -5  10    0.06    1.10
  -3  -5 -10    0.71    1.02
  -3   5 -10   -0.47    0.88
   3   5  11    4.08    1.22
   3  -5  11    5.19    1.73
  -3  -5 -11    5.61    2.52
  -3   5 -11    3.52    1.36
   3   5  12   14.26    1.67
   3  -5  12   11.64    2.43
  -3  -5 -12   11.34    1.98
  -3   5 -12   12.68    1.83
   3   5  13    2.65    1.32
   3  -5  13    3.42    3.18
  -3  -5 -13    2.88    1.53
  -3   5 -13    2.81    1.46
   3   5  14    7.21    1.65
   3  -5  14   -0.12    2.25
  -3  -5 -14    8.51    1.82
  -3   5 -14    6.81    1.84
   3   5  15    1.13    1.28
   3  -5  15    0.25    1.75
  -3  -5 -15    0.91    1.43
  -3   5 -15    1.52    1.42
   3   6 -17   -0.20    2.56
   3  -6 -17    0.36    2.95
  -3  -6  17    3.55    1.78
  -3  -6  17    3.12    3.12
  -3   6  17    0.21    2.42
   3   6 -16    0.64    3.31
   3  -6 -16   -0.54    2.45
  -3  -6  16    0.94    1.39
  -3  -6  16    1.94    3.98
  -3   6  16   -0.57    3.34
   3   6 -15   -0.72    3.45
   3  -6 -15   -0.75    2.59
  -3  -6  15    2.92    1.46
  -3  -6  15    0.26    2.75
  -3   6  15    0.23    3.47
   3   6 -14    0.58    2.95
   3  -6 -14    0.34    2.30
  -3  -6  14    1.22    1.22
  -3  -6  14    0.42    3.78
  -3   6  14   -0.02    1.90
   3   6 -13    3.94    2.09
   3  -6 -13    2.81    2.73
  -3  -6  13    3.76    1.34
  -3  -6  13   -0.41    2.61
  -3   6  13    0.37    2.16
   3   6 -12    9.46    2.62
   3  -6 -12   12.90    3.43
  -3  -6  12   15.98    3.23
  -3  -6  12   13.01    1.66
  -3   6  12   10.35    4.64
   3   6 -11   30.43    4.38
   3  -6 -11   26.67    3.92
  -3  -6  11   28.51    3.77
  -3  -6  11   29.39    1.89
  -3   6  11   25.17    5.23
   3   6 -10    8.97    3.31
   3  -6 -10    6.80    2.98
  -3  -6  10    8.86    2.66
  -3  -6  10    8.31    1.27
  -3   6  10    9.17    2.42
   3   6  -9   83.36    3.53
   3  -6  -9   80.49    4.85
  -3  -6   9   81.83    6.57
  -3  -6   9   83.18    2.52
  -3   6   9   81.83    4.10
   3   6  -8   76.54    3.33
   3  -6  -8   79.34    7.11
  -3  -6   8   81.64    3.89
  -3  -6   8   82.34    2.22
  -3   6   8   76.98    3.87
   3   6  -7    7.40    2.49
   3  -6  -7    8.51    2.41
  -3  -6   7    6.97    0.88
  -3  -6   7    9.04    1.81
  -3   6   7    8.40    1.92
   3   6  -6   15.00    1.71
   3  -6  -6   19.65    2.45
  -3  -6   6   16.76    1.86
  -3  -6   6   16.99    0.97
  -3   6   6   19.32    3.38
  -3   6   6   17.40    1.30
   3   6  -5    0.89    0.95
   3  -6  -5    0.31    2.27
  -3  -6   5    0.72    0.51
  -3  -6   5    2.39    0.99
  -3   6   5    0.88    1.10
  -3   6   5    1.32    1.11
   3   6  -4  368.78    7.08
   3   6  -4  365.31    6.45
   3  -6  -4  364.61    7.20
  -3   6   4  364.64    6.22
  -3  -6   4  381.18    7.28
  -3  -6   4  371.65    6.47
  -3   6   4  361.62    6.72
   3   6  -3  166.44    3.73
   3   6  -3  168.53    2.91
   3  -6  -3  166.49    4.05
  -3  -6   3  164.13    2.86
  -3  -6   3  169.43    3.81
  -3   6   3  162.71    3.68
  -3   6   3  163.12    3.65
   3   6  -2  211.48    4.24
   3   6  -2  209.49    3.50
   3  -6  -2  217.21    4.55
  -3  -6   2  212.72    5.24
  -3   6   2  207.97    4.21
  -3   6   2  212.79    4.13
   3   6  -1  438.47    7.52
   3  -6  -1  439.76    7.57
   3  -6  -1  435.41    7.21
  -3  -6   1  442.83    7.68
  -3   6   1  431.91    6.60
   3   6   0    6.06    0.73
   3  -6   0    7.49    1.17
   3  -6   0    7.15    0.58
  -3  -6   0    8.03    0.91
   3  -6   1  227.16    4.26
   3  -6   1  224.71    4.45
   3  -6   1  216.34    3.88
  -3  -6  -1  228.56    4.91
  -3  -6  -1  222.85    3.92
   3  -6   2   39.30    1.07
   3  -6   2   36.09    1.57
  -3  -6  -2   37.50    1.45
   3  -6   3   27.09    0.94
   3  -6   3   25.91    1.41
  -3  -6  -3   28.99    1.35
   3  -6   4  142.42    3.30
  -3  -6  -4  140.28    3.07
   3   6   5    0.42    1.19
   3  -6   5    0.56    0.77
  -3  -6  -5    0.50    0.87
  -3   6  -5    0.98    0.74
   3   6   6    0.80    1.31
   3  -6   6    0.89    0.87
  -3  -6  -6    0.66    0.99
  -3   6  -6    0.90    0.80
   3   6   7    8.30    1.14
   3  -6   7    8.43    1.42
  -3  -6  -7    5.72    1.51
  -3   6  -7    9.31    1.22
   3   6   8   60.56    2.22
   3  -6   8   61.82    2.68
  -3  -6  -8   62.53    2.80
  -3   6  -8   59.79    2.42
   3   6   9   41.60    3.11
   3  -6   9   45.69    2.58
  -3   6  -9   41.75    2.28
  -3  -6  -9   46.10    2.59
   3   6  10   13.91    1.45
   3  -6  10   15.15    2.02
  -3  -6 -10   13.45    1.94
  -3   6 -10   14.03    1.70
   3   6  11    0.51    0.94
   3  -6  11    1.40    1.31
  -3  -6 -11    0.49    1.23
  -3   6 -11    0.51    1.11
   3   6  12    1.41    1.05
   3  -6  12    0.81    1.67
  -3  -6 -12    0.33    2.29
  -3   6 -12    2.07    1.31
   3   6  13   13.39    1.71
   3  -6  13    9.36    2.50
  -3  -6 -13   10.01    2.09
  -3   6 -13    9.94    3.16
   3   6  14    4.26    1.64
   3  -6  14    7.59    2.38
  -3  -6 -14    7.58    1.94
  -3   6 -14    6.57    3.00
   3   6  15   11.91    1.87
   3  -6  15    0.11    2.63
  -3  -6 -15   12.54    2.13
  -3   6 -15    0.03    3.42
   3   7 -17    0.22    2.01
   3  -7 -17   -0.62    2.32
  -3  -7  17    2.03    3.94
  -3  -7  17    0.49    1.27
  -3   7  17   -0.38    1.89
   3   7 -16    0.22    2.66
   3  -7 -16   -0.04    3.23
  -3  -7  16    0.02    3.25
  -3  -7  16    7.47    1.71
  -3   7  16   -0.55    2.58
   3   7 -15    0.04    2.08
   3  -7 -15   -0.35    2.48
  -3  -7  15   -0.40    4.15
  -3   7  15    0.11    1.95
  -3  -7  15    2.00    1.30
   3   7 -14   -0.58    2.00
   3  -7 -14    0.05    2.61
  -3  -7  14    2.88    1.28
  -3  -7  14   -0.07    2.55
  -3   7  14    0.26    1.96
   3   7 -13   11.23    2.52
   3  -7 -13   10.66    5.23
  -3  -7  13   -0.03    5.08
  -3  -7  13    9.87    2.38
  -3   7  13    0.20    2.51
   3   7 -12    5.31    2.21
   3  -7 -12    2.83    3.03
  -3  -7  12    5.88    2.80
  -3  -7  12    5.60    1.32
  -3   7  12    5.07    2.34
   3   7 -11   22.41    2.65
   3  -7 -11   16.99    3.61
  -3  -7  11   15.82    3.21
  -3  -7  11   19.53    1.56
  -3   7  11   14.03    4.78
   3   7 -10    1.34    2.52
   3  -7 -10    1.18    2.21
  -3  -7  10    1.68    1.40
  -3  -7  10    0.66    3.15
  -3   7  10    0.84    1.80
   3   7  -9   88.27    3.87
   3  -7  -9  101.64    5.28
  -3  -7   9   97.11    2.62
  -3  -7   9   96.65    4.50
  -3   7   9   94.79    4.25
   3   7  -8  145.76    4.61
   3  -7  -8  151.65    5.84
  -3  -7   8  152.13    5.02
  -3  -7   8  146.16    3.17
  -3   7   8  142.76    4.94
   3   7  -7  127.41    5.52
   3  -7  -7  134.67    5.30
  -3  -7   7  135.38    4.36
  -3  -7   7  130.78    2.76
  -3   7   7  124.43    4.31
   3   7  -6   35.85    2.17
   3  -7  -6   33.02    3.07
  -3  -7   6   35.49    1.25
  -3  -7   6   34.91    2.32
  -3   7   6   35.44    4.16
  -3   7   6   35.05    1.65
   3  -7  -5  137.47    4.37
   3   7  -5  131.55    3.68
  -3  -7   5  137.29    5.19
  -3  -7   5  134.75    2.50
  -3   7   5  128.42    3.80
  -3   7   5  131.37    2.90
   3   7  -4   52.27    2.13
   3   7  -4   46.79    1.71
   3  -7  -4   46.17    2.70
  -3  -7   4   47.47    1.23
  -3  -7   4   49.32    2.16
  -3   7   4   46.10    1.49
  -3   7   4   45.16    2.34
   3   7  -3  165.33    3.87
   3   7  -3  164.73    2.81
   3  -7  -3  172.19    6.04
  -3  -7   3  172.48    3.98
  -3  -7   3  165.15    2.80
  -3   7   3  164.17    3.88
  -3   7   3  170.29    3.66
   3   7  -2   10.48    1.05
   3   7  -2    8.84    1.23
   3  -7  -2   11.06    1.51
  -3  -7   2   11.58    1.22
  -3   7   2    9.66    0.70
   3   7  -1   13.16    0.77
   3  -7  -1   13.29    0.69
   3  -7  -1   11.82    1.50
  -3  -7   1   12.50    1.22
  -3   7   1   12.73    1.00
   3   7   0  384.28    6.80
   3  -7   0  388.55    8.44
   3  -7   0  383.50    6.23
  -3  -7   0  391.50    7.06
   3  -7   1   22.95    0.74
   3  -7   1   21.96    1.51
   3  -7   1   22.29    1.59
  -3  -7  -1   23.35    1.37
  -3  -7  -1   22.44    2.25
   3  -7   2  157.44    2.57
   3  -7   2  164.96    3.71
  -3  -7  -2  165.10    4.51
   3  -7   3   95.28    1.84
   3  -7   3   92.92    2.65
  -3  -7  -3   96.15    2.53
   3  -7   4   41.75    1.89
  -3  -7  -4   41.32    1.93
   3   7   5  146.16    3.26
   3  -7   5  158.84    3.88
  -3  -7  -5  164.59    3.91
   3   7   6   11.99    2.14
   3  -7   6    9.11    1.42
  -3  -7  -6   13.35    1.55
  -3   7  -6   10.75    1.38
   3   7   7   28.18    1.67
   3  -7   7   30.45    1.96
  -3  -7  -7   25.56    2.16
  -3   7  -7   27.12    1.84
   3   7   8    3.10    1.12
   3  -7   8    2.16    2.22
  -3  -7  -8    4.99    1.42
  -3   7  -8    1.31    1.93
   3  -7   9   13.86    2.94
   3   7   9   12.42    2.32
  -3  -7  -9   11.98    1.90
  -3   7  -9   11.84    1.62
   3   7  10    3.32    1.12
   3  -7  10    2.65    2.61
  -3  -7 -10    2.80    1.51
  -3   7 -10    2.28    1.36
   3   7  11   10.93    1.49
   3  -7  11   10.80    2.10
  -3  -7 -11    9.33    2.06
  -3   7 -11   11.62    2.83
   3   7  12    3.92    1.30
   3  -7  12    6.61    2.01
  -3  -7 -12    3.73    1.75
  -3   7 -12    3.60    2.58
   3   7  13   24.81    2.09
   3  -7  13   25.27    3.04
  -3  -7 -13   17.97    4.20
  -3   7 -13   25.91    2.56
   3   7  14    0.06    2.38
   3  -7  14    4.72    2.20
  -3  -7 -14    3.85    1.87
  -3   7 -14    3.41    1.78
   3   7  15    0.71    1.80
   3  -7  15    3.20    2.78
  -3  -7 -15   -0.40    1.34
  -3   7 -15   -0.03    1.34
  -3   8  17   -0.42    2.07
   3   8 -16    0.84    1.80
   3  -8 -16   -0.83    2.23
  -3  -8  16   -0.32    2.33
  -3   8  16    0.23    1.70
   3  -8 -15   -0.74    2.24
   3   8 -15   -0.62    1.80
  -3  -8  15   -0.20    2.27
  -3   8  15    0.53    1.69
   3   8 -14    0.30    1.75
   3  -8 -14    0.34    3.80
  -3  -8  14   -0.15    3.46
  -3  -8  14    0.51    0.98
  -3   8  14   -0.30    1.67
   3   8 -13   13.65    2.76
   3  -8 -13   15.45    3.59
  -3  -8  13   -0.02    3.36
  -3  -8  13   14.18    1.64
  -3   8  13   -0.26    2.71
   3   8 -12    5.10    2.26
   3  -8 -12    7.39    3.00
  -3  -8  12    6.52    1.25
  -3  -8  12    0.31    2.71
  -3   8  12   -0.34    2.21
   3   8 -11    2.39    1.80
   3  -8 -11    2.47    4.25
  -3  -8  11    2.20    2.19
  -3  -8  11    1.49    0.94
  -3   8  11    1.37    1.86
   3   8 -10   21.81    2.67
   3  -8 -10   23.20    3.62
  -3  -8  10   21.75    1.43
  -3  -8  10   20.18    3.19
   3   8  -9  102.42    4.24
   3  -8  -9  111.10    5.61
  -3  -8   9  110.78    4.83
  -3  -8   9  108.92    2.72
  -3   8   9  105.98    4.58
   3   8  -8   18.87    2.28
   3  -8  -8   22.40    3.35
  -3  -8   8   21.81    1.16
  -3   8   8   18.38    2.65
  -3  -8   8   27.79    4.32
   3   8  -7   21.39    3.37
   3  -8  -7   21.11    3.02
  -3  -8   7   20.42    1.07
  -3  -8   7   20.99    2.42
  -3   8   7   18.98    2.50
   3   8  -6   21.11    2.00
   3  -8  -6   23.98    2.88
  -3  -8   6   26.42    2.20
  -3  -8   6   20.06    1.44
  -3   8   6   20.06    1.38
  -3   8   6   21.89    2.42
   3   8  -5   11.27    1.63
   3  -8  -5   12.92    2.27
  -3  -8   5   13.54    1.74
  -3  -8   5   11.39    0.70
  -3   8   5   10.43    1.91
  -3   8   5   10.43    1.04
   3   8  -4  204.04    4.82
   3   8  -4  205.77    3.38
   3  -8  -4  211.35    5.45
  -3  -8   4  199.48    4.83
  -3   8   4  206.75    3.78
  -3  -8   4  203.94    3.35
  -3   8   4  195.19    4.87
   3   8  -3  105.84    2.36
   3   8  -3  107.58    3.17
   3  -8  -3  105.13    3.65
  -3  -8   3  106.03    3.17
  -3   8   3  103.87    3.33
  -3   8   3  106.39    2.16
   3  -8  -2  156.12    4.17
   3   8  -2  154.84    2.65
  -3  -8   2  154.94    3.79
  -3   8   2  153.04    2.66
   3   8  -1  222.60    3.69
   3  -8  -1  224.16    4.99
  -3  -8   1  226.90    4.77
  -3   8   1  221.28    3.43
   3   8   0   20.07    0.89
   3  -8   0   19.42    2.93
   3  -8   0   19.08    1.04
  -3  -8   0   20.50    1.43
   3  -8   1  306.23    6.06
   3  -8   1  305.36    4.93
   3  -8   1  309.14    7.50
  -3  -8  -1  305.77    7.12
  -3  -8  -1  307.52    6.03
   3  -8   2   29.18    1.78
   3  -8   2   29.73    0.84
  -3  -8  -2   31.40    1.75
   3  -8   3    3.65    0.73
   3  -8   3    3.10    1.82
  -3  -8  -3    3.07    1.16
   3  -8   4   46.34    2.16
   3  -8   4   45.47    1.59
  -3  -8  -4   47.84    2.27
   3  -8   5   13.55    1.57
  -3  -8  -5   14.67    1.66
   3   8   6   63.04    2.36
   3  -8   6   63.75    3.79
  -3  -8  -6   62.90    4.28
   3   8   7    9.35    2.25
   3  -8   7    8.89    1.58
  -3  -8  -7    8.23    1.75
  -3   8  -7    8.20    1.46
   3   8   8    5.81    1.29
   3  -8   8    7.14    1.62
  -3  -8  -8    6.00    1.62
  -3   8  -8    5.13    1.46
   3   8   9   61.32    3.65
   3  -8   9   65.66    3.12
  -3  -8  -9   63.37    3.02
  -3   8  -9   57.73    2.90
   3   8  10   11.89    1.49
   3  -8  10    9.12    2.06
  -3  -8 -10    9.51    1.99
  -3   8 -10   10.73    2.87
   3   8  11   18.45    1.77
   3  -8  11   20.46    2.53
  -3  -8 -11   21.57    2.35
  -3   8 -11   17.28    2.23
   3   8  12    8.33    2.43
   3  -8  12    5.88    3.73
  -3  -8 -12    8.31    2.10
  -3   8 -12    8.12    1.94
   3   8  13   36.59    3.55
   3  -8  13   35.79    5.55
  -3  -8 -13   38.02    3.08
  -3   8 -13   35.99    3.06
   3   8  14   -3.46    2.05
   3  -8  14   -1.18    1.88
  -3  -8 -14   -0.54    1.62
  -3   8 -14    0.03    1.57
   3   9 -16   -0.08    2.35
   3  -9 -16    0.36    4.87
  -3  -9  16    0.11    2.90
  -3  -9  16    1.68    1.33
  -3   9  16    1.85    3.67
   3   9 -15   -0.48    3.38
   3  -9 -15    0.63    2.70
  -3  -9  15    0.33    2.70
  -3  -9  15    1.67    1.82
  -3   9  15   -0.53    3.29
   3   9 -14   -0.60    2.25
   3  -9 -14   -0.44    2.84
  -3  -9  14    2.64    1.84
  -3  -9  14   -0.02    2.74
  -3   9  14    4.39    2.06
   3   9 -13    0.20    1.33
   3  -9 -13    0.18    2.97
  -3  -9  13    0.32    0.70
  -3  -9  13   -0.23    2.79
  -3   9  13   -1.49    1.30
   3   9 -12   45.72    3.91
   3  -9 -12   53.17    4.95
  -3  -9  12   46.28    4.55
  -3  -9  12   48.86    2.19
  -3   9  12   45.66    3.64
   3   9 -11    5.19    2.06
   3  -9 -11    2.69    2.68
  -3  -9  11   -0.14    2.39
  -3  -9  11    3.64    1.52
  -3   9  11    2.48    2.05
   3   9 -10   44.22    3.26
   3  -9 -10   47.92    4.25
  -3  -9  10   42.52    1.75
  -3  -9  10   42.01    5.96
  -3   9  10   41.76    3.40
   3   9  -9   50.47    4.92
   3  -9  -9   41.43    6.97
  -3  -9   9   43.80    3.65
  -3  -9   9   45.02    1.64
  -3   9   9   46.50    3.40
   3   9  -8   20.43    2.46
   3  -9  -8   19.66    3.44
  -3  -9   8   22.57    1.10
  -3  -9   8   19.42    2.76
  -3   9   8   18.56    2.66
   3   9  -7   60.90    3.16
   3  -9  -7   62.71    4.14
  -3  -9   7   61.29    1.61
  -3  -9   7   61.44    3.28
  -3   9   7   61.18    3.44
  -3   9   7   60.56    2.26
   3   9  -6   34.01    2.48
   3  -9  -6   40.15    3.43
  -3  -9   6   35.65    1.10
  -3  -9   6   35.48    2.59
  -3   9   6   36.71    1.65
  -3   9   6   34.75    2.78
   3   9  -5  210.90    5.45
   3  -9  -5  215.90    6.23
  -3  -9   5  220.75    7.25
  -3  -9   5  211.72    3.95
  -3   9   5  206.03    5.49
  -3   9   5  211.67    4.13
   3   9  -4    5.43    0.52
   3   9  -4    6.08    2.30
   3  -9  -4    6.80    2.05
  -3  -9   4    8.99    2.43
  -3   9   4    6.83    1.76
  -3   9   4    6.31    1.22
   3   9  -3   80.62    1.53
   3  -9  -3   82.69    3.57
  -3  -9   3   81.42    4.25
  -3   9   3   79.85    1.78
   3   9  -2   52.30    1.19
   3  -9  -2   52.74    2.89
  -3  -9   2   50.79    2.29
  -3   9   2   49.33    1.60
   3   9  -1   74.18    2.01
   3  -9  -1   74.33    3.14
  -3  -9   1   76.31    2.64
  -3   9   1   73.52    1.74
   3   9   0   43.40    1.23
   3  -9   0   44.82    4.08
  -3  -9   0   44.22    2.05
   3  -9   1    0.61    1.03
   3  -9   1    0.93    0.31
   3  -9   1   -1.33    2.03
  -3  -9  -1    1.19    0.86
  -3  -9  -1    1.16    1.05
   3  -9   2  105.01    3.29
   3  -9   2  102.53    1.71
  -3  -9  -2  100.07    3.12
  -3  -9  -2  107.04    3.03
   3  -9   3   53.59    2.41
   3  -9   3   49.96    1.09
  -3  -9  -3   51.55    2.40
   3  -9   4   14.01    0.67
   3  -9   4   14.22    1.65
  -3  -9  -4   13.31    1.74
   3  -9   5  270.49    6.30
   3  -9   5  258.62    4.38
  -3  -9  -5  269.02    5.98
   3  -9   6   23.95    2.05
  -3  -9  -6   26.20    2.17
   3   9   7   23.96    1.82
   3  -9   7   24.26    2.12
  -3  -9  -7   23.82    2.15
   3   9   8    2.46    1.12
   3  -9   8    1.95    1.37
  -3  -9  -8    1.53    2.45
  -3   9  -8    2.21    1.33
   3   9   9   19.21    1.74
   3  -9   9   22.13    2.26
  -3  -9  -9   17.69    3.70
  -3   9  -9   17.67    3.31
   3   9  10   34.92    2.07
   3  -9  10   33.04    2.75
  -3  -9 -10   31.48    2.75
  -3   9 -10   33.66    2.61
   3  -9  11    0.56    1.50
   3   9  11    0.75    1.03
  -3   9 -11    1.28    1.37
  -3  -9 -11    0.92    2.43
   3   9  12    1.30    1.78
   3  -9  12   -0.14    1.68
  -3  -9 -12    1.36    2.41
  -3   9 -12    1.18    1.43
   3   9  13   -0.18    0.90
   3  -9  13    1.30    1.44
  -3  -9 -13   -1.10    1.28
  -3   9 -13   -0.11    1.19
   3   9  14    1.86    1.36
   3  -9  14    0.51    2.05
  -3  -9 -14    2.61    1.78
  -3   9 -14   -0.17    2.72
   3  10 -16   -1.13    1.76
   3 -10 -16   -0.02    2.25
  -3 -10  16    0.72    2.21
  -3 -10  16    0.28    0.89
  -3  10  16    0.00    1.62
   3  10 -15   -0.19    2.43
   3 -10 -15    0.24    4.94
  -3 -10  15    1.92    1.20
  -3 -10  15    0.02    3.06
  -3  10  15    3.58    2.28
   3  10 -14    0.04    2.39
   3 -10 -14    0.12    2.98
  -3 -10  14    1.01    2.96
  -3 -10  14    2.48    1.16
  -3  10  14    5.50    2.22
   3  10 -13   -0.41    3.19
   3 -10 -13    0.00    3.97
  -3 -10  13   22.40    2.41
  -3 -10  13   28.32    3.83
  -3  10  13   21.19    4.95
   3  10 -12   -0.44    4.26
   3 -10 -12    0.04    5.34
  -3 -10  12    0.18    5.00
  -3  10  12   12.68    2.52
   3  10 -11   35.19    3.50
   3 -10 -11   39.87    4.35
  -3 -10  11   33.03    2.47
  -3 -10  11   40.09    4.03
  -3  10  11   32.78    3.31
   3  10 -10   -1.08    1.68
   3 -10 -10   -1.94    2.19
  -3 -10  10    0.50    1.87
  -3 -10  10    1.27    0.68
  -3  10  10    1.51    1.67
   3  10  -9   11.83    2.37
   3 -10  -9   11.25    3.15
  -3 -10   9   11.46    2.70
  -3  10   9   11.65    4.13
  -3 -10   9   11.41    0.97
   3  10  -8   47.20    3.18
   3 -10  -8   48.28    4.17
  -3 -10   8   45.70    1.43
  -3 -10   8   46.48    3.43
  -3  10   8   45.92    3.37
   3  10  -7   13.56    2.17
   3 -10  -7   15.13    4.91
  -3 -10   7   13.48    2.34
  -3 -10   7   12.62    1.18
  -3  10   7   13.65    3.98
  -3  10   7   12.94    1.34
   3  10  -6  102.57    3.92
   3 -10  -6  106.89    7.69
  -3 -10   6  104.07    4.07
  -3 -10   6  101.71    1.98
  -3  10   6   99.15    4.09
  -3  10   6  101.48    2.67
   3  10  -5    5.22    2.65
   3 -10  -5    5.57    2.31
  -3 -10   5    6.15    1.73
  -3  10   5    5.85    1.95
  -3 -10   5    5.79    0.52
  -3  10   5    6.51    0.86
   3  10  -4    1.05    1.26
   3 -10  -4    2.90    1.77
  -3 -10   4    1.77    1.29
  -3  10   4    0.93    1.37
  -3  10   4    1.53    0.60
   3 -10  -3   53.13    3.37
  -3 -10   3   55.62    2.69
  -3  10   3   52.48    1.35
   3  10  -2    2.13    0.54
   3 -10  -2    7.03    1.80
  -3 -10   2    4.80    1.34
  -3  10   2    4.21    0.49
   3  10  -1  336.70    5.37
   3 -10  -1  331.62    7.43
  -3 -10   1  334.15    7.15
  -3  10   1  329.86    4.91
   3  10   0   10.04    1.09
   3 -10   0    9.65    1.65
   3 -10   0   10.39    1.94
  -3 -10   0    8.99    1.70
  -3 -10   0    8.99    1.48
   3 -10   1  133.82    4.10
   3 -10   1  130.42    4.03
  -3 -10  -1  128.75    3.75
  -3 -10  -1  132.84    3.69
   3 -10   2    8.05    0.61
   3 -10   2    9.13    1.56
   3 -10   2    8.68    1.80
  -3 -10  -2    8.59    1.41
  -3 -10  -2    9.24    1.62
   3 -10   3   42.05    2.43
   3 -10   3   41.18    1.16
  -3 -10  -3   41.28    2.38
   3 -10   4    0.63    0.30
   3 -10   4   -0.50    1.72
  -3 -10  -4    0.17    1.11
   3 -10   5   10.56    1.74
   3 -10   5    9.25    0.94
  -3 -10  -5   12.79    1.79
   3 -10   6   85.04    3.47
   3 -10   6   84.40    1.86
  -3 -10  -6   87.61    3.43
   3 -10   7    6.82    1.72
  -3 -10  -7    6.23    1.75
   3 -10   8    9.15    1.90
  -3 -10  -8    9.37    1.95
   3  10   9   26.13    2.00
   3 -10   9   28.58    2.62
  -3 -10  -9   25.62    2.53
  -3  10  -9   23.51    2.44
   3  10  10    3.55    1.36
   3 -10  10    4.24    1.89
  -3 -10 -10    4.76    1.82
  -3  10 -10    5.07    1.77
   3  10  11    2.09    2.05
   3 -10  11    3.83    1.85
  -3 -10 -11    2.21    1.73
  -3  10 -11    1.76    1.69
   3  10  12    0.07    1.18
   3 -10  12    4.18    2.88
  -3 -10 -12    1.31    1.65
  -3  10 -12    3.76    2.48
   3  10  13   -0.17    1.42
   3 -10  13   14.21    3.69
  -3 -10 -13    7.93    2.03
  -3  10 -13   -0.10    1.94
   3  11 -15    0.36    2.99
   3 -11 -15    0.48    3.66
  -3 -11  15    5.31    1.31
  -3 -11  15   -0.53    3.70
  -3  11  15    6.26    2.71
   3  11 -14   -0.65    2.09
   3 -11 -14   -0.01    4.13
  -3 -11  14    0.35    0.89
  -3 -11  14    0.26    2.51
  -3  11  14    2.76    1.88
   3  11 -13    0.85    1.99
   3 -11 -13    0.01    2.50
  -3 -11  13    0.95    1.32
  -3 -11  13   -0.01    2.35
  -3  11  13    0.44    1.88
   3  11 -12    0.62    1.71
   3 -11 -12   -0.04    2.10
  -3 -11  12   -0.25    1.98
   3  11 -11    0.38    3.80
   3 -11 -11    4.56    2.92
  -3 -11  11    6.24    4.40
  -3 -11  11    4.72    1.41
  -3  11  11    4.62    3.69
   3  11 -10    0.95    1.94
   3 -11 -10    2.07    2.50
  -3 -11  10    1.89    0.68
  -3 -11  10    1.12    2.15
  -3  11  10    0.63    1.85
   3  11  -9   14.76    2.46
   3 -11  -9   12.55    3.33
  -3 -11   9   14.71    2.77
  -3 -11   9   10.51    0.88
  -3  11   9   12.72    2.52
   3  11  -8   27.67    4.42
   3 -11  -8   28.97    3.61
  -3 -11   8   23.40    1.42
  -3 -11   8   26.57    3.03
  -3  11   8   25.04    1.76
  -3  11   8   25.85    2.88
   3  11  -7   83.89    3.95
   3 -11  -7   91.36    4.84
  -3 -11   7   82.69    1.75
  -3 -11   7   87.60    6.11
  -3  11   7   83.01    3.96
  -3  11   7   85.31    3.51
   3  11  -6    2.71    2.68
   3 -11  -6    3.17    2.19
  -3 -11   6    2.64    0.44
  -3 -11   6    3.09    1.74
  -3  11   6    2.48    0.87
  -3  11   6    2.32    1.82
   3  11  -5  103.79    4.10
   3 -11  -5  110.15    7.57
  -3 -11   5  102.62    4.07
  -3  11   5  105.11    4.18
  -3  11   5  104.14    2.53
   3 -11  -4   59.13    6.20
  -3 -11   4   58.36    3.04
  -3  11   4   56.43    2.16
   3 -11  -3  116.12    4.64
  -3 -11   3  115.26    3.97
  -3  11   3  112.07    2.67
   3 -11  -2   28.42    2.79
  -3 -11   2   26.40    2.16
  -3  11   2   25.31    0.79
   3 -11  -1   14.27    2.32
  -3 -11   1   15.03    1.84
  -3  11   1   13.73    0.52
   3  11   0    3.93    0.56
   3 -11   0    4.30    1.55
   3 -11   0    3.88    1.78
  -3 -11   0    4.08    1.57
  -3 -11   0    4.90    1.39
   3  11   1   53.30    1.48
   3 -11   1   56.26    3.07
   3 -11   1   57.01    2.92
  -3 -11  -1   55.89    2.77
  -3 -11  -1   57.65    2.63
   3 -11   2  253.30    6.38
   3 -11   2  253.80    6.35
  -3 -11  -2  265.63    7.58
  -3 -11  -2  255.21    7.91
   3 -11   3    7.52    0.50
   3 -11   3    7.00    1.72
  -3 -11  -3    7.97    1.72
  -3 -11  -3    8.75    1.58
   3 -11   4    0.18    0.35
   3 -11   4    1.27    1.67
  -3 -11  -4    0.04    1.08
   3 -11   5   53.78    1.46
   3 -11   5   57.12    4.50
  -3 -11  -5   57.43    2.90
   3 -11   6   11.59    0.98
   3 -11   6   11.04    3.09
  -3 -11  -6   12.66    1.96
   3 -11   7   26.47    2.49
   3 -11   7   24.22    0.98
  -3 -11  -7   25.41    3.84
   3 -11   8    1.32    2.29
  -3 -11  -8    0.64    2.36
   3 -11   9   39.72    4.63
  -3 -11  -9   37.06    3.01
   3  11  10    5.06    1.49
   3 -11  10    6.02    3.31
  -3 -11 -10    3.89    1.95
   3  11  11    0.01    1.31
   3 -11  11    4.05    1.86
  -3 -11 -11    4.05    2.98
  -3  11 -11    2.51    1.76
   3  11  12    0.06    1.00
   3 -11  12    0.82    1.47
  -3 -11 -12    0.43    2.21
  -3  11 -12   -0.22    1.37
   3  11  13   -0.01    1.18
   3 -11  13    1.69    1.89
  -3 -11 -13    2.09    1.68
  -3  11 -13   -0.17    1.63
   3  12 -14    0.59    2.58
   3 -12 -14    0.31    3.15
  -3 -12  14    0.03    3.14
  -3 -12  14    2.00    0.95
  -3  12  14    4.08    2.33
   3  12 -13    0.38    3.05
   3 -12 -13    0.11    5.97
  -3 -12  13    0.33    5.68
  -3  12  13   14.61    2.79
   3  12 -12    0.03    1.77
   3 -12 -12    0.10    2.17
  -3 -12  12   -0.27    0.61
  -3 -12  12   -0.19    2.01
  -3  12  12   -0.38    1.63
   3  12 -11   38.54    3.86
   3 -12 -11   37.21    4.65
  -3 -12  11   34.43    2.11
  -3 -12  11   39.26    4.21
  -3  12  11   37.45    3.60
   3 -12 -10   -0.46    2.61
   3  12 -10    3.33    3.42
  -3 -12  10    6.02    3.85
  -3 -12  10    4.06    0.99
  -3  12  10   -1.29    1.31
  -3  12  10    2.95    3.33
   3  12  -9   12.13    2.83
   3 -12  -9   14.49    5.89
  -3 -12   9   15.51    2.95
  -3 -12   9   13.56    0.83
  -3  12   9   16.58    1.65
  -3  12   9   17.85    2.63
   3  12  -8    2.63    1.97
   3 -12  -8    2.44    2.43
  -3 -12   8    2.59    0.49
  -3 -12   8    3.21    2.07
  -3  12   8    2.88    1.06
  -3  12   8    1.70    1.95
   3  12  -7   15.23    2.64
   3 -12  -7   17.32    3.18
  -3 -12   7   13.93    0.66
  -3 -12   7   17.76    2.63
  -3  12   7   15.27    1.34
  -3  12   7   14.11    2.58
   3  12  -6    4.61    1.96
   3 -12  -6    5.54    2.41
  -3 -12   6    3.52    3.17
  -3  12   6    4.18    1.44
  -3  12   6    3.57    2.00
   3 -12  -5   37.77    3.49
  -3 -12   5   32.45    2.89
  -3  12   5   31.52    1.99
   3 -12  -4    2.91    3.38
  -3 -12   4    3.14    1.51
  -3  12   4    2.04    0.60
   3 -12  -3   99.83    7.00
   3  12  -3   93.28    1.64
  -3 -12   3   88.75    3.75
  -3  12   3   94.46    1.90
   3 -12  -2  214.90    6.23
  -3 -12   2  208.12    5.74
  -3  12   2  204.33    3.57
   3 -12  -1    2.54    1.91
  -3 -12   1    3.41    1.52
   3  12   0   66.21    1.49
   3 -12   0   72.65    3.67
   3 -12   0   66.49    3.30
  -3 -12   0   71.89    4.58
  -3 -12   0   67.01    3.29
   3  12   1  117.60    2.44
   3 -12   1  117.26    4.27
   3 -12   1  119.50    4.36
  -3 -12  -1  118.93    5.95
  -3 -12  -1  120.01    4.00
   3 -12   2  102.83    4.12
   3 -12   2  101.43    3.92
  -3 -12  -2  109.00    3.78
  -3 -12  -2  105.74    5.78
   3 -12   3  127.22    4.43
   3 -12   3  120.33    4.38
  -3 -12  -3  125.04    4.19
  -3 -12  -3  127.78    4.16
   3 -12   4    1.61    1.51
  -3 -12  -4    2.73    1.50
   3 -12   5    3.79    2.76
   3 -12   5    3.93    0.47
  -3 -12  -5    5.09    1.66
   3 -12   6   17.16    0.62
   3 -12   6   18.77    3.71
  -3 -12  -6   20.62    2.26
   3 -12   7    0.46    0.35
   3 -12   7    0.87    2.23
  -3 -12  -7    1.12    1.32
   3 -12   8    0.27    0.64
   3 -12   8    0.88    1.33
  -3 -12  -8   -0.23    1.28
   3 -12   9    7.60    2.11
  -3 -12  -9    4.06    2.01
   3 -12  10    0.71    1.69
  -3 -12 -10    1.44    1.62
   3 -12  11   20.48    3.03
  -3 -12 -11   21.13    2.83
   3 -12  12   -1.66    1.70
   3  12  12    0.12    1.02
  -3 -12 -12   -0.19    1.56
   3  13 -14   -0.61    2.36
   3 -13 -14   -0.19    2.84
  -3 -13  14   -0.52    2.82
  -3  13  14   -1.10    2.13
   3  13 -13   -0.19    3.27
   3 -13 -13   -0.23    2.48
  -3 -13  13    0.21    2.32
  -3  13  13   -1.43    3.08
   3  13 -12   -0.06    2.77
   3 -13 -12    0.32    3.40
  -3 -13  12    0.02    3.19
  -3 -13  12   -0.23    0.51
  -3  13  12    0.12    1.56
  -3  13  12    0.28    1.09
   3  13 -11    0.71    1.83
   3 -13 -11   -0.62    2.19
  -3 -13  11   -0.28    0.48
  -3 -13  11   -0.31    1.98
  -3  13  11   -1.83    1.63
  -3  13  11    0.29    1.07
   3  13 -10    3.77    2.39
   3 -13 -10   -0.11    2.78
  -3 -13  10    4.88    2.53
  -3 -13  10    2.73    0.58
  -3  13  10    3.15    1.33
  -3  13  10    4.56    2.19
   3  13  -9   53.52    6.19
   3 -13  -9   54.59    4.75
  -3 -13   9   48.03    1.65
  -3 -13   9   47.76    6.33
  -3  13   9   53.53    3.82
  -3  13   9   50.60    2.43
   3  13  -8    1.79    1.90
   3 -13  -8   -0.57    3.88
  -3 -13   8    1.49    1.90
  -3  13   8    1.65    0.96
  -3  13   8   -0.08    1.78
   3  13  -7   77.08    4.42
   3 -13  -7   81.73    5.02
  -3 -13   7   77.32    4.42
  -3  13   7   74.68    2.46
   3 -13  -6    5.50    2.58
  -3 -13   6    6.64    2.14
  -3  13   6    4.82    0.91
   3 -13  -5    1.35    1.21
  -3 -13   5    0.65    1.63
  -3  13   5   -0.17    0.38
   3 -13  -4    1.87    2.17
  -3 -13   4    3.84    1.82
  -3  13   4    3.43    0.60
   3 -13  -3   45.26    5.71
  -3 -13   3   41.20    2.98
  -3  13   3   41.04    1.09
   3  13  -2    6.91    0.68
   3 -13  -2    7.32    2.31
  -3 -13   2    7.37    1.92
  -3  13   2    6.82    0.42
   3  13  -1    6.35    0.70
   3 -13  -1    7.49    1.98
   3 -13  -1    4.83    2.18
  -3 -13   1    5.37    1.90
  -3 -13   1    5.11    2.95
   3 -13   0   19.00    2.51
   3 -13   0   19.39    2.67
  -3 -13   0   20.27    2.31
  -3 -13   0   21.95    2.32
   3  13   1   12.07    1.16
   3 -13   1    9.64    3.47
   3 -13   1   12.70    2.30
  -3 -13  -1    9.58    1.97
  -3 -13  -1    9.46    2.05
   3  13   2   36.34    1.37
   3 -13   2   41.95    3.01
   3 -13   2   42.49    4.61
  -3 -13  -2   36.90    2.69
  -3 -13  -2   42.19    2.79
   3 -13   3   21.00    3.98
   3 -13   3   23.61    2.62
  -3 -13  -3   18.31    2.29
  -3 -13  -3   22.90    2.42
   3 -13   4    0.34    2.15
  -3 -13  -4    0.71    1.27
  -3 -13  -4    0.23    1.18
   3 -13   5   13.10    2.48
  -3 -13  -5   19.36    2.34
   3 -13   6    6.46    1.93
   3 -13   6    3.66    0.33
  -3 -13  -6    5.44    1.83
   3 -13   7  121.71    5.00
  -3 -13  -7  123.48    4.76
   3 -13   8    8.21    2.28
  -3 -13  -8    6.88    2.15
   3 -13   9   22.76    2.98
  -3 -13  -9   24.49    2.85
   3 -13  10   -0.70    1.71
  -3 -13 -10   -0.55    1.62
   3 -13  11    1.18    1.81
  -3 -13 -11    0.06    1.70
   3  14 -13   32.00    4.07
   3 -14 -13   -0.05    4.86
  -3 -14  13    0.49    4.67
  -3  14  13   20.55    3.67
  -3  14  13   22.42    2.62
   3  14 -12    0.55    2.32
   3 -14 -12   -0.23    2.77
  -3 -14  12    2.48    2.53
  -3  14  12   -0.01    1.36
  -3  14  12    2.45    2.10
   3  14 -11   25.73    6.17
   3 -14 -11    0.17    7.43
  -3 -14  11   27.18    4.16
  -3  14  11   24.30    2.27
  -3  14  11   21.70    5.65
   3  14 -10    0.65    2.24
   3 -14 -10   -0.02    2.70
  -3 -14  10    2.41    2.44
  -3  14  10    1.68    2.08
  -3  14  10    1.81    1.18
   3  14  -9    0.75    1.68
   3 -14  -9    0.67    1.89
  -3 -14   9    0.11    1.68
  -3  14   9   -0.69    0.79
  -3  14   9    0.44    1.53
   3 -14  -8    1.68    3.37
  -3 -14   8   -0.07    1.74
  -3  14   8   -0.58    0.78
   3 -14  -7    0.24    1.83
  -3 -14   7    0.36    1.53
  -3  14   7   -0.35    0.63
   3 -14  -6    4.48    2.62
  -3 -14   6    3.03    2.25
  -3  14   6    4.79    0.86
   3 -14  -5    2.54    2.09
  -3 -14   5   -0.11    2.86
  -3  14   5    1.31    0.61
   3 -14  -4   11.77    2.90
  -3 -14   4   14.44    2.50
  -3  14   4   12.42    1.17
   3 -14  -3    6.09    3.97
  -3 -14   3    6.30    2.02
  -3  14   3    4.67    0.45
   3  14  -2   10.09    0.42
   3 -14  -2   11.73    2.58
  -3 -14   2   10.85    2.23
   3  14  -1   40.66    1.28
   3 -14  -1   47.06    3.38
   3 -14  -1   45.18    3.44
  -3 -14   1   42.76    4.63
  -3 -14   1   44.85    3.09
   3  14   0    5.67    0.77
   3 -14   0   12.30    2.20
   3 -14   0   11.05    2.31
  -3 -14   0   11.06    2.06
  -3 -14   0    9.47    2.05
   3 -14   1   56.90    3.48
   3 -14   1   48.60    3.49
  -3 -14  -1   51.83    3.16
  -3 -14  -1   52.24    3.21
   3  14   2    0.56    0.76
   3 -14   2   -0.76    1.40
   3 -14   2    0.37    1.35
  -3 -14  -2    0.37    1.26
  -3 -14  -2    0.42    1.29
   3 -14   3   38.47    4.82
   3 -14   3   39.41    3.14
  -3 -14  -3   37.87    2.88
  -3 -14  -3   37.48    2.91
   3 -14   4    1.33    2.82
   3 -14   4    1.84    1.80
  -3 -14  -4    1.63    1.68
  -3 -14  -4    3.26    1.66
   3 -14   5   61.07    3.76
  -3 -14  -5   64.33    3.59
   3 -14   6    2.05    1.86
  -3 -14  -6    2.16    1.73
   3 -14   7   -0.02    1.45
  -3 -14  -7   -0.49    1.39
   3 -14   8   -0.92    1.72
  -3 -14  -8   -0.59    1.64
   3 -14   9    1.87    1.84
  -3 -14  -9   -0.07    1.75
   3 -14  10    2.90    2.06
  -3 -14 -10    0.02    1.95
   3  15 -12   -0.70    2.83
   3 -15 -12   -0.04    3.32
  -3 -15  12    2.53    3.00
  -3  15  12    1.86    2.45
  -3  15  12    3.09    1.49
   3  15 -11    3.28    2.75
   3 -15 -11   -0.40    5.35
  -3 -15  11    4.50    4.79
  -3  15  11    1.69    2.49
  -3  15  11    3.28    2.23
   3  15 -10    0.45    1.88
   3 -15 -10    0.34    2.19
  -3 -15  10    1.72    1.89
  -3  15  10   -1.60    1.55
  -3  15  10   -0.31    0.90
   3 -15  -9    8.27    3.21
  -3 -15   9    4.77    2.99
  -3  15   9    5.28    1.30
   3 -15  -8   12.09    3.59
  -3 -15   8   13.37    5.09
  -3  15   8   13.06    1.37
   3 -15  -7   42.61    7.14
  -3 -15   7   33.84    3.88
  -3  15   7   38.75    2.49
   3 -15  -6    2.16    2.23
  -3 -15   6    3.02    1.86
  -3  15   6    0.01    1.03
   3 -15  -5   26.03    3.50
  -3 -15   5   19.52    4.88
  -3  15   5   20.86    1.05
   3 -15  -4    5.93    2.52
  -3 -15   4    5.30    2.25
  -3  15   4    4.39    0.85
   3 -15  -3   38.45    3.73
  -3 -15   3   40.21    3.26
  -3  15   3   30.76    1.04
   3 -15  -2    0.13    1.76
   3 -15  -2    1.98    1.71
  -3 -15   2    0.91    1.56
  -3 -15   2   -0.10    1.54
   3  15  -1    0.15    0.32
   3 -15  -1    0.73    2.29
   3 -15  -1    2.28    1.48
  -3 -15   1    0.81    2.15
  -3 -15   1   -1.60    1.31
   3  15   0    1.18    0.37
   3 -15   0    3.16    3.18
   3 -15   0    3.52    1.77
  -3 -15   0    0.82    1.69
  -3 -15   0    2.04    1.65
   3 -15   1    4.18    1.95
   3 -15   1    2.87    2.06
  -3 -15  -1    2.89    1.87
  -3 -15  -1    3.07    1.83
   3  15   2    1.04    0.75
   3 -15   2    0.33    1.56
   3 -15   2    0.56    1.63
  -3 -15  -2   -0.39    1.46
  -3 -15  -2    0.22    1.46
   3  15   3    4.03    0.78
   3 -15   3    4.55    2.16
   3 -15   3    5.71    2.11
  -3 -15  -3    7.48    1.95
  -3 -15  -3    4.41    1.98
   3 -15   4    2.55    2.00
   3 -15   4    2.92    3.28
  -3 -15  -4    2.88    1.84
  -3 -15  -4    2.85    2.93
   3 -15   5   26.33    4.99
   3 -15   5   24.63    3.05
  -3 -15  -5   30.40    2.95
  -3 -15  -5   30.83    2.98
   3 -15   6    5.97    2.48
  -3 -15  -6    9.92    2.30
   3 -15   7   19.96    3.12
  -3 -15  -7   22.01    2.97
   3 -15   8    1.38    1.82
  -3 -15  -8    0.01    1.75
   3 -15   9   25.42    3.33
  -3 -15  -9   -0.09    5.03
   3 -16 -10   -0.22    2.92
  -3 -16  10    1.37    2.53
  -3  16  10    1.07    1.09
   3 -16  -9    0.69    2.93
  -3 -16   9    2.78    2.66
  -3  16   9    1.93    1.04
   3 -16  -8   -1.91    2.41
  -3 -16   8    2.17    3.54
  -3  16   8    1.18    1.27
   3 -16  -7   19.98    6.54
  -3 -16   7   22.85    3.58
  -3  16   7   18.00    1.33
   3 -16  -6    3.21    2.48
  -3 -16   6    3.10    2.15
  -3  16   6    0.90    1.05
   3 -16  -5    8.27    2.98
  -3 -16   5    9.48    4.27
  -3  16   5    6.56    0.70
   3 -16  -4   10.39    4.89
  -3 -16   4    8.02    2.68
   3 -16  -3   25.12    3.52
  -3 -16   3   23.23    3.24
   3 -16  -2    0.90    1.92
   3 -16  -2    1.41    1.95
  -3 -16   2    2.29    2.83
  -3 -16   2   -0.25    1.69
   3 -16  -1   22.05    3.30
   3 -16  -1   24.62    5.30
  -3 -16   1   23.94    3.00
  -3 -16   1   25.49    2.90
   3 -16   0    1.57    2.46
   3 -16   0    1.45    1.55
  -3 -16   0   -0.58    2.27
  -3 -16   0   -1.08    1.46
   3  16   1   44.27    1.65
   3 -16   1   52.20    3.80
   3 -16   1   55.13    3.83
  -3 -16  -1   50.12    5.35
  -3 -16  -1   54.09    3.48
   3  16   2   -0.22    0.52
   3 -16   2    0.62    2.90
   3 -16   2    3.65    1.74
  -3 -16  -2    2.84    1.59
  -3 -16  -2    4.29    1.57
   3  16   3   30.08    1.33
   3 -16   3   32.59    3.33
   3 -16   3   36.61    3.49
  -3 -16  -3   36.92    4.96
  -3 -16  -3   38.50    3.11
   3 -16   4    0.94    2.60
   3 -16   4    0.40    1.65
  -3 -16  -4    0.15    1.51
  -3 -16  -4    0.31    1.45
   3 -16   5    2.17    1.82
   3 -16   5   -1.35    3.10
  -3 -16  -5    2.04    1.74
  -3 -16  -5    0.02    1.74
   3 -16   6   -0.89    1.51
   3 -16   6    1.46    1.64
  -3 -16  -6   -1.16    1.44
  -3 -16  -6    0.03    1.49
   3 -16   7    0.85    1.79
  -3 -16  -7    0.10    1.69
   3 -16   8   -0.01    1.36
  -3 -16  -8    0.08    2.15
   3 -17  -9    5.43    3.74
  -3 -17   9    7.68    3.28
  -3  17   9    4.53    1.91
   3 -17  -8    1.17    2.27
  -3 -17   8   -1.80    3.28
   3 -17  -7    5.84    5.78
  -3 -17   7    6.07    3.03
   3 -17  -6    4.31    3.10
  -3 -17   6    5.36    2.77
   3 -17  -5   20.52    3.86
  -3 -17   5   19.38    5.64
   3 -17  -4   -1.37    3.49
  -3 -17   4   -0.30    1.95
   3 -17  -3   33.69    4.01
   3 -17  -3   33.87    3.98
  -3 -17   3   29.48    3.71
  -3 -17   3   34.97    3.56
   3 -17  -2    6.68    2.54
   3 -17  -2    4.70    4.15
  -3 -17   2   -0.29    3.71
  -3 -17   2    3.38    2.37
   3 -17  -1    1.68    2.23
   3 -17  -1    2.58    2.16
  -3 -17   1    2.18    2.00
  -3 -17   1   -0.14    1.90
   3 -17   0    4.02    2.25
   3 -17   0    2.87    2.26
  -3 -17   0    2.31    3.38
  -3 -17   0    0.06    2.01
   3 -17   1   17.45    4.71
   3 -17   1   14.43    4.76
  -3 -17  -1   20.03    2.79
  -3 -17  -1    0.04    2.65
   3 -17   2    1.98    1.89
   3 -17   2    1.80    1.92
  -3 -17  -2   -0.41    2.80
  -3 -17  -2   -0.79    1.75
   3 -17   3   10.60    2.95
   3 -17   3   15.28    2.92
  -3 -17  -3   17.43    2.85
  -3 -17  -3   13.37    2.73
   3 -17   4   -0.83    1.68
   3 -17   4    1.53    1.68
  -3 -17  -4    0.28    1.52
  -3 -17  -4    0.13    1.52
   3 -17   5    2.06    1.85
   3 -17   5    1.59    3.09
  -3 -17  -5   -0.37    1.75
  -3 -17  -5   -0.06    1.75
   3 -17   6    1.39    1.97
   3 -17   6    1.15    1.92
  -3 -17  -6   -0.09    1.86
  -3 -17  -6    0.59    1.76
   3 -17   7   24.76    3.73
   3 -17   7   19.27    3.40
  -3 -17  -7   22.58    3.30
  -3 -17  -7   25.29    3.45
   3 -18  -7   -1.41    4.79
  -3 -18   7    1.69    2.54
   3 -18  -6    5.75    3.45
  -3 -18   6    4.75    2.98
   3 -18  -5    1.37    3.10
  -3 -18   5    5.50    2.80
   3 -18  -4    1.23    2.46
   3 -18  -4    1.63    2.62
  -3 -18   4    3.17    2.34
  -3 -18   4    0.06    2.20
   3 -18  -3    6.94    3.00
   3 -18  -3    9.25    3.00
  -3 -18   3   10.16    4.40
  -3 -18   3   -0.30    2.57
   3 -18  -2    3.34    2.36
   3 -18  -2   -0.21    3.84
  -3 -18   2    1.65    2.16
  -3 -18   2   -0.12    2.07
   3 -18  -1    5.16    2.94
   3 -18  -1   10.06    4.61
  -3 -18   1    0.19    4.24
  -3 -18   1    7.89    2.64
   3 -18   0    0.53    1.83
   3 -18   0    0.36    1.84
  -3 -18   0    0.18    1.67
  -3 -18   0   -0.01    1.62
   3 -18   1   15.28    3.34
   3 -18   1   17.90    3.14
  -3 -18  -1    0.02    2.85
  -3 -18  -1   15.49    3.01
   3 -18   2    6.11    4.83
   3 -18   2   10.04    3.06
  -3 -18  -2   11.12    4.52
  -3 -18  -2   10.04    2.77
   3 -18   3   43.10    4.49
   3 -18   3   47.76    4.27
  -3 -18  -3   45.71    6.15
  -3 -18  -3   47.05    4.12
   3 -18   4    1.21    2.09
   3 -18   4    4.69    2.19
  -3 -18  -4   -1.47    1.95
  -3 -18  -4   -0.02    1.94
   3 -18   5    4.78    2.83
   3 -18   5    7.07    2.67
  -3 -18  -5    7.77    2.53
  -3 -18  -5    0.21    2.55
   3 -19  -4    3.91    2.66
   3 -19  -4    1.75    2.88
  -3 -19   4    0.19    2.41
  -3 -19   4    1.50    2.57
   3 -19  -3    3.05    2.44
   3 -19  -3    0.86    2.56
  -3 -19   3   -0.02    2.19
  -3 -19   3   -0.18    3.69
   3 -19  -2   27.94    7.22
   3 -19  -2   29.31    4.26
  -3 -19   2   25.04    3.97
  -3 -19   2   28.25    3.75
   3 -19  -1    2.54    2.53
   3 -19  -1    2.33    2.50
  -3 -19   1   -0.13    2.19
  -3 -19   1    1.40    3.64
   3 -19   0    1.00    4.03
   3 -19   0    2.04    4.18
  -3 -19   0    0.25    3.74
  -3 -19   0    2.39    2.33
   3 -19   1    1.35    2.24
   3 -19   1    0.14    2.17
  -3 -19  -1    1.62    3.26
  -3 -19  -1    0.14    1.96
   3 -19   2   24.29    4.20
   3 -19   2   24.54    6.50
  -3 -19  -2   29.61    3.64
  -3 -19  -2   28.62    3.83
  -4   0  17    0.01    1.28
   4   0 -15   -0.58    2.06
  -4   0  15   -1.32    2.32
   4   0 -13   -1.17    1.75
  -4   0  13    1.26    1.29
   4   0 -12   91.98    4.66
  -4   0  12   72.52    3.47
  -4   0  12   90.44    5.26
   4   0 -11   -0.06    1.47
  -4   0  11   -0.32    1.01
  -4   0  11   -0.06    1.74
   4   0 -10  141.73    5.32
  -4   0  10  147.65    4.25
  -4   0  10  138.41    5.68
   4   0  -9   -1.27    1.30
  -4   0   9   -0.78    2.48
  -4   0   9    1.24    1.44
   4   0  -8   13.03    2.09
  -4   0   8   11.72    4.17
  -4   0   8   12.96    1.49
   4   0  -7    1.23    1.86
  -4   0   7   -0.84    0.77
  -4   0   7    0.03    1.25
   4   0  -6   48.65    2.52
  -4   0   6   44.98    2.63
  -4   0   6   47.29    2.87
   4   0  -5    0.15    0.61
   4   0  -5    0.56    0.79
  -4   0   5    0.16    0.85
  -4   0   5   -0.33    0.60
   4   0  -4  577.49   10.01
   4   0  -4  597.91   11.19
  -4   0   4  601.02   10.26
  -4   0   4  568.25   11.25
   4   0  -3    0.38    0.62
   4   0  -3    0.05    0.62
  -4   0   3    0.34    0.63
  -4   0   3   -0.08    0.64
   4   0  -2  286.43    5.16
   4   0  -2  274.50    4.47
  -4   0   2  281.40    4.38
  -4   0   2  286.08    5.20
   4   0  -1    0.59    0.93
   4   0  -1   -0.13    0.51
  -4   0   1    0.22    0.58
   4   0   0  417.12    5.37
   4   0   0  411.71    7.15
  -4   0   0  428.65    5.27
   4   0   1   -0.21    0.60
   4   0   3    0.24    0.20
  -4   0  -3    0.09    0.15
   4   0   4  503.42    7.24
  -4   0  -4  510.55    7.05
   4   0   5   -0.19    0.38
  -4   0  -5   -0.44    0.44
   4   0   6  162.46    2.95
  -4   0  -6  162.19    3.31
   4   0   7    0.71    0.53
  -4   0  -7   -0.27    0.38
   4   0   8   59.19    2.00
  -4   0  -8   59.08    1.73
   4   0   9   -0.35    1.11
  -4   0  -9    0.20    0.52
   4   0  10   47.36    2.14
  -4   0 -10   40.29    1.82
   4   0  11    0.81    0.76
  -4   0 -11   -0.65    0.62
   4   0  12   56.45    3.89
   4   0  13   -0.16    0.89
   4   0  14   46.71    2.62
  -4   0 -14   39.23    2.48
  -4   0 -15   -0.01    0.76
  -4   1  18   -0.37    1.71
  -4  -1  18    0.12    1.71
   4  -1 -17    2.75    2.44
  -4  -1  17    0.16    1.92
   4   1 -16   38.05    4.10
  -4   1  16   38.00    4.37
  -4  -1  16   20.86    3.26
  -4  -1  15    1.27    1.73
  -4  -1  14   21.65    3.48
  -4  -1  14   10.20    2.34
   4   1 -13    7.55    2.40
  -4   1  13    6.90    2.93
  -4  -1  13    5.76    1.92
   4   1 -12   47.71    3.80
   4  -1 -12   52.38    4.04
  -4  -1  12   59.18    4.78
  -4  -1  12   46.80    2.91
  -4   1  12   50.26    4.40
   4  -1 -11    6.82    2.47
  -4   1  11    8.24    2.75
  -4  -1  11    7.73    2.87
  -4  -1  11    6.64    1.64
  -4   1  11    6.01    1.74
   4   1 -10   99.70    4.29
   4  -1 -10   97.37    4.78
  -4   1  10   93.04    4.93
  -4   1  10   99.71    3.51
  -4  -1  10  100.53    5.05
  -4  -1  10  103.84    3.43
   4  -1  -9   50.67    3.50
   4   1  -9   51.03    3.13
  -4  -1   9   55.35    6.28
  -4  -1   9   52.17    2.34
  -4   1   9   51.10    2.44
  -4   1   9   41.25    3.63
   4  -1  -8  361.55   10.83
   4   1  -8  353.65    7.86
  -4   1   8  326.19    7.86
  -4  -1   8  361.73    7.16
  -4  -1   8  343.89    8.28
  -4   1   8  348.31    7.09
   4  -1  -7    0.17    1.25
   4   1  -7    1.42    1.04
  -4   1   7    0.63    1.24
  -4  -1   7    0.33    0.80
  -4  -1   7   -0.59    1.23
  -4   1   7    0.49    0.82
   4   1  -6  245.93    5.40
   4  -1  -6  256.96    5.86
  -4   1   6  263.36    5.20
  -4  -1   6  259.15    5.09
  -4   1   6  250.96    5.64
  -4  -1   6  248.57    5.71
   4   1  -5   10.54    1.16
   4  -1  -5    8.95    1.69
   4   1  -5   10.30    1.36
  -4   1   5    9.18    1.59
  -4   1   5   10.23    1.19
  -4  -1   5    9.42    2.62
  -4  -1   5    9.86    1.15
   4  -1  -4  137.97    3.10
   4   1  -4  132.48    3.08
   4   1  -4  133.73    3.00
   4  -1  -4  140.46    3.53
  -4  -1   4  133.34    3.99
  -4  -1   4  134.98    4.86
  -4   1   4  134.92    3.09
  -4   1   4  133.66    3.22
   4  -1  -3   48.29    1.94
   4   1  -3   47.02    2.40
   4   1  -3   47.92    1.73
   4  -1  -3   47.41    1.78
  -4   1   3   48.78    1.80
  -4  -1   3   48.80    1.76
  -4  -1   3   47.33    2.85
  -4   1   3   48.51    2.66
   4   1  -2  425.36    7.13
   4   1  -2  431.01    7.33
   4  -1  -2  439.15    7.46
   4  -1  -2  430.38    8.11
  -4   1   2  430.34    6.40
  -4   1   2  432.56    7.37
  -4  -1   2  405.55    7.13
  -4  -1   2  436.45    7.49
   4  -1  -1  143.77    2.48
   4  -1  -1  144.52    3.07
   4   1  -1  144.92    3.12
   4   1  -1  142.31    2.48
  -4   1   1  143.81    3.07
  -4  -1   1  141.68    3.07
   4  -1   0   15.45    1.15
   4   1   0   13.43    1.21
   4  -1   0   14.28    0.89
   4   1   0   14.78    0.44
  -4  -1   0   14.54    0.55
   4   1   1   84.08    2.30
   4  -1   1   85.34    1.23
   4  -1   1   83.24    2.18
   4  -1   1   83.64    1.26
   4  -1   2   24.21    0.43
   4  -1   2   23.87    0.39
   4   1   3   37.84    0.45
   4  -1   3   39.10    1.07
  -4  -1  -3   38.23    0.56
   4   1   4  135.39    2.10
   4  -1   4  135.84    2.15
  -4   1  -4  139.05    2.36
  -4  -1  -4  134.23    1.87
   4  -1   5   27.04    1.04
   4   1   5   28.35    1.27
  -4  -1  -5   29.18    1.11
  -4   1  -5   28.14    1.16
   4  -1   6  231.98    5.15
   4   1   6  229.14    4.48
  -4  -1  -6  229.34    3.79
  -4   1  -6  232.29    4.42
   4   1   7    1.69    1.07
   4  -1   7    0.94    0.76
  -4   1  -7    0.77    0.52
  -4  -1  -7    0.77    0.52
   4   1   8  105.55    2.53
   4  -1   8  110.14    4.14
  -4   1  -8  104.96    3.20
  -4  -1  -8  105.94    3.18
   4  -1   9   13.46    1.47
   4   1   9   14.51    1.28
  -4   1  -9   13.57    1.72
  -4  -1  -9   12.77    1.77
   4  -1  10  107.80    4.47
   4   1  10  111.09    3.04
  -4  -1 -10  102.61    2.86
  -4   1 -10   99.82    2.88
   4   1  11    0.66    1.56
   4  -1  11    0.87    1.06
  -4   1 -11    0.89    0.82
  -4  -1 -11    0.86    0.83
   4   1  12   19.02    2.66
   4  -1  12   17.98    1.90
   4  -1  13    0.08    1.06
   4   1  13   -0.87    0.95
  -4   1 -13   -0.70    1.48
   4  -1  14    1.70    1.30
   4   1  14    2.36    1.20
  -4  -1 -14    0.00    1.16
  -4   1 -14    1.88    1.19
  -4   1 -15    1.00    1.17
  -4  -2  18    0.24    1.58
  -4   2  18   -0.13    2.15
  -4  -2  17   -0.04    1.31
  -4  -2  16   33.59    3.37
  -4  -2  15   -0.23    1.37
   4   2 -14   26.94    3.33
   4  -2 -14   24.49    3.70
  -4   2  14   20.57    3.72
  -4  -2  14   20.83    2.57
   4   2 -13    1.64    2.04
  -4   2  13    3.73    2.35
  -4  -2  13    2.78    1.54
  -4  -2  13    1.39    2.63
   4  -2 -12   76.52    4.88
   4   2 -12   75.03    4.20
  -4   2  12   71.66    4.77
  -4  -2  12   78.71    3.38
   4  -2 -11   24.79    3.43
  -4   2  11   22.99    3.44
  -4  -2  11   25.59    3.68
  -4  -2  11   24.94    2.13
   4  -2 -10  142.21    5.84
  -4  -2  10  142.98    5.95
  -4   2  10  144.14    4.28
  -4   2  10  136.84    5.62
  -4  -2  10  145.16    5.47
   4   2  -9    2.90    1.63
   4  -2  -9    4.60    2.13
  -4   2   9    3.04    2.14
  -4   2   9    1.99    1.33
  -4  -2   9    2.08    4.00
  -4  -2   9    4.41    1.18
   4  -2  -8    6.48    2.21
   4   2  -8    5.30    1.65
  -4   2   8    7.19    2.10
  -4   2   8    3.55    2.06
  -4  -2   8    6.17    2.11
  -4  -2   8    5.51    1.19
   4   2  -7    5.50    1.41
   4  -2  -7    3.94    1.90
  -4   2   7    6.49    1.18
  -4  -2   7    4.80    1.83
  -4  -2   7    5.02    1.08
  -4   2   7    4.78    1.77
   4  -2  -6   37.82    2.62
   4   2  -6   36.11    3.19
  -4   2   6   38.53    1.82
  -4  -2   6   38.27    1.70
  -4  -2   6   38.91    2.40
  -4   2   6   39.03    2.42
   4   2  -5  472.30    8.56
   4   2  -5  479.97    8.36
   4  -2  -5  496.23    9.35
  -4   2   5  469.43    8.60
  -4  -2   5  469.58    8.83
  -4  -2   5  485.67    9.46
  -4   2   5  483.95    8.57
   4   2  -4  347.89    6.23
   4   2  -4  351.50    6.19
   4  -2  -4  355.96    6.40
   4  -2  -4  356.25    6.78
  -4  -2   4  353.37    7.98
  -4   2   4  341.57    6.17
  -4  -2   4  366.18    6.51
  -4   2   4  351.52    7.36
   4  -2  -3   70.54    2.31
   4   2  -3   72.25    1.89
   4   2  -3   73.43    2.04
   4  -2  -3   72.19    2.11
  -4   2   3   72.81    2.11
  -4  -2   3   71.40    2.07
  -4  -2   3   73.49    2.09
  -4   2   3   72.57    2.00
   4   2  -2  553.34    9.25
   4   2  -2  552.92    9.14
   4  -2  -2  557.63    8.78
   4  -2  -2  548.31    9.17
  -4   2   2  550.89    9.26
  -4  -2   2  563.24    9.40
  -4   2   2  544.08    9.08
  -4  -2   2  526.59    8.95
   4   2  -1   71.14    1.31
   4   2  -1   71.67    2.03
   4  -2  -1   69.59    2.36
   4  -2  -1   69.80    1.96
  -4   2   1   71.78    1.32
  -4   2   1   68.75    1.97
   4   2   0  506.28    8.64
   4   2   0  512.48    6.90
   4  -2   0  494.53    8.29
   4  -2   0  506.84    7.03
   4  -2   1   19.65    1.17
   4  -2   1   18.41    0.56
   4  -2   1   16.85    0.56
  -4  -2  -1   19.00    0.45
  -4  -2  -1   18.20    0.46
   4  -2   2 1120.91   16.85
   4  -2   2 1154.55   17.01
  -4  -2  -2 1126.12   15.48
  -4  -2  -2 1153.18   15.94
   4  -2   3  207.80    3.05
  -4  -2  -3  203.01    2.84
   4  -2   4   48.37    1.17
   4   2   4   46.26    1.13
  -4  -2  -4   47.42    1.27
  -4   2  -4   48.34    1.06
   4  -2   5  215.31    3.69
   4   2   5  212.60    3.63
  -4  -2  -5  207.83    3.28
  -4   2  -5  211.87    3.98
   4   2   6  164.08    2.79
   4  -2   6  164.99    3.34
  -4  -2  -6  162.65    2.95
  -4   2  -6  162.91    3.02
   4  -2   7   19.54    1.50
   4   2   7   20.49    1.76
  -4  -2  -7   23.18    1.11
  -4   2  -7   21.42    1.60
   4  -2   8    3.41    0.99
   4   2   8    1.58    0.74
  -4  -2  -8    1.19    0.71
  -4   2  -8    1.82    0.71
   4   2   9    2.56    0.86
   4  -2   9    0.84    1.92
  -4   2  -9    1.75    1.36
  -4  -2  -9    3.45    0.84
   4   2  10   39.05    2.71
   4  -2  10   36.46    2.15
  -4  -2 -10   39.34    2.64
  -4   2 -10   36.08    2.55
   4  -2  11    2.17    2.06
   4   2  11    1.34    1.61
  -4   2 -11    2.21    0.99
  -4  -2 -11    2.24    0.97
   4   2  12   19.04    1.60
   4  -2  12   19.98    2.00
  -4  -2 -12   17.45    1.62
  -4   2 -12   15.04    2.54
   4  -2  13    1.00    0.88
   4   2  13   -0.23    0.71
  -4  -2 -13    0.00    0.73
  -4   2 -13   -0.84    1.15
   4  -2  14   22.34    2.31
   4   2  14   25.01    1.91
  -4  -2 -14   19.72    2.01
  -4   2 -14   20.08    3.15
   4  -2  15   -1.06    1.24
   4   2  15   -0.41    1.05
  -4   2 -15   -0.14    1.11
  -4  -3  18   -0.18    1.56
  -4  -3  17   -0.04    1.25
  -4  -3  16    0.29    1.46
   4   3 -15   -0.67    1.31
  -4   3  15    0.08    1.42
  -4  -3  15    0.35    0.98
   4   3 -14   45.13    3.98
  -4   3  14   42.75    4.28
  -4  -3  14   53.34    3.18
   4  -3 -13   -0.64    2.09
   4   3 -13    0.37    1.70
  -4   3  13   -0.05    1.97
  -4  -3  13    1.52    2.16
  -4  -3  13    1.28    1.24
   4  -3 -12   -1.29    4.26
   4   3 -12    1.91    2.02
  -4   3  12    1.63    2.21
  -4  -3  12    3.09    1.43
   4  -3 -11    3.43    2.45
  -4  -3  11    3.84    2.19
  -4  -3  11    1.52    2.52
  -4   3  11    3.12    2.32
   4   3 -10   38.65    4.56
   4  -3 -10   49.52    6.45
  -4   3  10   34.93    2.44
  -4   3  10   33.56    3.48
  -4  -3  10   32.54    3.85
  -4  -3  10   36.27    2.12
   4   3  -9   64.82    4.65
   4  -3  -9   64.56    4.28
  -4   3   9   63.31    2.70
  -4  -3   9   63.10    3.53
  -4   3   9   60.63    3.90
  -4  -3   9   70.29    6.66
   4  -3  -8  241.90    6.89
   4   3  -8  241.88    7.55
  -4   3   8  240.91    6.66
  -4   3   8  231.91    6.30
  -4  -3   8  241.46    5.11
  -4  -3   8  236.98    6.60
   4  -3  -7  113.50    4.28
   4   3  -7  107.40    3.36
  -4   3   7  105.53    5.93
  -4   3   7  106.27    3.04
  -4  -3   7  106.15    5.97
  -4  -3   7  110.74    2.86
   4  -3  -6  503.59   10.11
   4   3  -6  490.39    9.26
  -4   3   6  498.52    9.07
  -4   3   6  487.61    9.18
  -4  -3   6  499.84    8.82
  -4  -3   6  503.33    9.75
   4   3  -5   32.57    2.23
   4   3  -5   31.35    2.61
   4  -3  -5   32.62    2.30
  -4   3   5   32.47    1.60
  -4   3   5   38.16    3.31
  -4  -3   5   33.30    1.97
  -4  -3   5   34.12    1.49
   4  -3  -4  226.21    4.90
   4   3  -4  226.43    4.40
   4  -3  -4  224.82    4.43
   4   3  -4  221.20    4.17
  -4   3   4  221.15    4.43
  -4  -3   4  220.05    4.55
  -4   3   4  223.80    4.38
  -4  -3   4  230.69    4.31
   4  -3  -3   68.83    2.34
   4  -3  -3   70.49    1.99
   4   3  -3   68.69    1.97
   4   3  -3   68.37    1.89
  -4  -3   3   68.91    1.98
  -4  -3   3   69.38    2.02
  -4   3   3   70.42    2.01
  -4   3   3   67.25    1.99
   4  -3  -2  512.37    8.53
   4   3  -2  503.48    7.98
   4   3  -2  502.00    8.46
   4  -3  -2  511.05    8.22
  -4  -3   2  501.91    8.45
  -4  -3   2  493.96    7.86
  -4   3   2  507.97    8.48
  -4   3   2  495.08    7.62
   4  -3  -1 1128.36   17.40
   4   3  -1 1079.49   18.29
   4   3  -1 1102.91   17.88
   4  -3  -1 1085.64   18.09
  -4   3   1 1071.99   17.97
  -4   3   1 1137.26   17.24
  -4  -3   1 1101.93   17.11
   4  -3   0   42.39    1.46
   4   3   0   39.52    1.61
   4  -3   0   41.48    1.18
   4  -3   1  409.45    6.70
   4  -3   1  391.98    7.53
   4  -3   1  402.91    6.37
  -4  -3  -1  414.63    5.75
   4  -3   2   34.54    1.41
   4  -3   2   33.95    0.94
   4  -3   2   33.32    0.93
  -4  -3  -2   32.79    0.69
   4  -3   3    6.05    0.56
  -4  -3  -3    6.52    0.49
   4   3   4  142.98    2.52
   4  -3   4  146.49    3.14
  -4  -3  -4  144.64    3.04
   4  -3   5    0.30    0.75
   4   3   5    0.08    0.55
  -4  -3  -5    0.34    0.45
  -4   3  -5   -0.01    0.38
   4  -3   6  504.69    8.73
   4   3   6  485.61    7.46
  -4  -3  -6  482.64    8.90
  -4   3  -6  487.21    9.06
   4  -3   7    1.63    0.85
   4   3   7    0.96    0.63
  -4   3  -7    1.73    0.63
  -4  -3  -7    0.75    0.71
   4  -3   8   68.67    2.46
   4   3   8   65.33    2.68
  -4   3  -8   64.52    2.03
  -4  -3  -8   66.27    2.08
   4   3   9    0.39    0.69
   4  -3   9    1.05    0.95
  -4   3  -9    0.34    0.70
  -4  -3  -9    0.62    1.22
   4   3  10   16.85    1.35
   4  -3  10   16.93    1.80
  -4   3 -10   17.06    2.21
  -4  -3 -10   17.75    1.45
   4   3  11    0.21    0.66
   4  -3  11    1.85    1.62
  -4   3 -11   -0.37    0.72
  -4  -3 -11   -0.58    0.70
   4  -3  12    1.10    1.17
   4   3  12    0.92    0.85
  -4   3 -12    0.32    0.92
  -4  -3 -12   -0.02    0.89
   4   3  13   -0.53    0.88
   4  -3  13   -0.27    1.17
  -4  -3 -13    0.00    0.94
  -4   3 -13   -1.13    0.99
   4   3  14   -0.47    0.90
   4  -3  14   -0.95    1.17
  -4   3 -14    0.56    1.59
  -4  -3 -14    0.01    0.97
   4  -3  15    2.27    1.35
   4   3  15    0.14    1.05
  -4   3 -15   -0.92    1.88
  -4  -4  18    0.26    1.59
   4  -4 -17   -0.06    2.85
  -4  -4  17    2.69    1.87
  -4  -4  17    1.82    3.02
   4   4 -16    0.80    2.08
  -4   4  16   -0.45    2.12
  -4  -4  16    0.94    1.52
   4  -4 -15    0.05    2.11
   4   4 -15   -0.21    1.74
  -4   4  15   -0.27    1.89
  -4  -4  15    1.29    1.29
  -4  -4  15   -0.71    2.18
   4   4 -14   23.55    3.33
  -4   4  14   21.17    3.35
  -4  -4  14   21.62    2.44
  -4  -4  14   25.69    4.22
   4  -4 -13   49.92    4.70
   4   4 -13   51.93    3.82
  -4   4  13   45.43    4.11
  -4  -4  13   53.58    8.08
  -4  -4  13   50.86    4.29
   4  -4 -12   85.42    5.32
   4   4 -12   78.54    6.37
  -4   4  12   76.66    4.67
  -4  -4  12   85.39    5.41
  -4  -4  12   79.62    3.29
   4  -4 -11   17.59    3.48
   4   4 -11   15.11    3.98
  -4   4  11   14.86    3.05
  -4  -4  11   12.66    5.53
  -4  -4  11   16.35    1.78
   4  -4 -10  159.66    6.43
   4   4 -10  144.45    6.95
  -4   4  10  145.11    5.48
  -4  -4  10  151.86    6.01
  -4   4  10  148.26    4.39
  -4  -4  10  151.05    4.02
   4  -4  -9    6.94    2.65
   4   4  -9    7.08    1.76
  -4   4   9    7.86    1.48
  -4   4   9    5.40    2.33
  -4  -4   9    6.21    1.27
  -4  -4   9    7.78    4.13
   4  -4  -8   37.88    3.49
   4   4  -8   34.19    2.34
  -4   4   8   34.49    2.02
  -4   4   8   36.30    3.00
  -4  -4   8   38.44    3.10
  -4  -4   8   35.80    2.63
   4  -4  -7   39.43    3.24
   4   4  -7   38.61    2.24
  -4   4   7   36.25    2.65
  -4   4   7   38.69    1.93
  -4  -4   7   40.45    2.67
  -4  -4   7   40.76    2.49
   4  -4  -6   57.64    3.06
   4   4  -6   55.57    3.40
  -4   4   6   55.76    2.06
  -4   4   6   55.86    2.69
  -4  -4   6   57.70    2.64
  -4  -4   6   55.09    2.68
   4  -4  -5   81.77    3.17
   4   4  -5   80.72    3.02
   4   4  -5   79.22    2.51
  -4   4   5   78.64    2.31
  -4   4   5   80.20    2.71
  -4  -4   5   84.62    2.20
  -4  -4   5   81.69    2.75
   4  -4  -4  145.40    3.81
   4   4  -4  150.44    3.33
   4   4  -4  142.15    2.98
  -4   4   4  140.20    3.08
  -4   4   4  140.89    3.30
  -4  -4   4  142.66    3.00
  -4  -4   4  141.84    3.38
   4  -4  -3  397.76    7.21
   4  -4  -3  395.42    6.84
   4   4  -3  394.36    6.75
   4   4  -3  396.44    6.89
  -4   4   3  386.43    6.75
  -4   4   3  386.82    6.62
  -4  -4   3  395.64    6.91
  -4  -4   3  402.12    6.87
   4  -4  -2  892.73   14.44
   4  -4  -2  883.09   14.69
   4   4  -2  901.61   14.80
   4   4  -2  914.50   16.10
  -4   4   2  884.02   14.71
  -4  -4   2  898.65   14.98
  -4  -4   2  897.73   14.67
  -4   4   2  893.69   14.16
   4  -4  -1   78.35    2.07
   4  -4  -1   75.99    1.94
   4   4  -1   77.22    1.69
   4   4  -1   78.89    2.87
  -4   4   1   77.78    1.93
  -4   4   1   77.21    1.86
  -4  -4   1   74.66    2.20
   4  -4   0  322.38    5.05
   4  -4   0  318.64    5.42
   4   4   0  321.81    5.72
  -4  -4   0  324.44    4.89
   4  -4   1    7.35    0.73
   4  -4   1    8.59    0.78
   4  -4   1    8.18    0.86
  -4  -4  -1    8.66    0.57
   4  -4   2  643.31   11.63
   4  -4   2  659.36    9.86
   4  -4   2  655.77   10.56
  -4  -4  -2  656.03    9.33
   4  -4   3   53.19    1.42
  -4  -4  -3   54.53    1.24
   4  -4   4   43.67    1.38
  -4  -4  -4   44.16    1.32
   4  -4   5   57.16    1.71
   4   4   5   54.96    1.33
  -4   4  -5   54.25    1.57
  -4  -4  -5   55.95    1.71
   4  -4   6   35.78    2.40
   4   4   6   35.00    1.80
  -4   4  -6   34.19    1.98
  -4  -4  -6   32.37    1.53
   4  -4   7   73.10    2.40
   4   4   7   69.25    2.53
  -4   4  -7   70.96    2.11
  -4  -4  -7   72.72    3.21
   4  -4   8    4.24    1.28
   4   4   8    5.59    0.88
  -4   4  -8    4.33    0.98
  -4  -4  -8    4.76    1.73
   4  -4   9    4.04    1.28
  -4  -4  -9    2.44    1.05
  -4   4  -9    3.35    0.98
   4  -4  10   61.69    2.80
   4   4  10   61.65    2.08
  -4   4 -10   57.36    3.28
  -4  -4 -10   60.90    2.37
   4  -4  11    4.84    2.89
   4   4  11    5.00    1.13
  -4   4 -11    4.65    1.27
  -4  -4 -11    7.66    1.27
   4  -4  12   23.34    2.23
   4   4  12   19.09    1.55
  -4   4 -12   19.85    1.82
  -4  -4 -12   15.91    1.77
   4  -4  13   -0.77    0.97
   4   4  13   -0.02    0.70
  -4   4 -13    0.78    0.81
  -4  -4 -13   -0.03    0.77
   4  -4  14    5.99    2.92
   4   4  14    4.05    1.26
  -4   4 -14    4.03    1.46
  -4  -4 -14    0.00    2.20
   4  -4  15    2.21    1.51
   4   4  15    0.61    1.11
  -4   4 -15    1.74    1.29
  -4  -4 -15    0.00    1.23
   4  -5 -17   -0.02    2.26
   4   5 -17   -0.14    2.00
  -4   5  17    0.35    1.97
  -4  -5  17    0.18    2.23
  -4  -5  17    0.71    2.34
   4  -5 -16   32.70    4.82
   4   5 -16   31.27    4.08
  -4   5  16   31.67    4.04
  -4  -5  16   28.04    4.65
  -4  -5  16   29.85    4.98
   4  -5 -15   -0.18    2.33
   4   5 -15    0.13    3.25
  -4   5  15    0.12    2.12
  -4  -5  15    1.45    1.42
  -4  -5  15    0.69    2.53
   4  -5 -14    3.33    2.89
   4   5 -14    4.31    3.68
  -4   5  14    0.26    3.85
  -4  -5  14    0.63    2.89
  -4  -5  14    3.93    1.60
   4  -5 -13    0.37    1.77
   4   5 -13   -0.32    2.23
  -4   5  13    0.14    2.46
  -4  -5  13    0.02    0.93
  -4  -5  13    0.19    1.85
   4  -5 -12    0.15    2.29
   4   5 -12    0.73    1.68
  -4   5  12    2.01    1.84
  -4  -5  12    1.35    2.10
  -4  -5  12    0.22    1.10
   4  -5 -11   41.47    7.14
   4   5 -11   44.53    5.11
  -4   5  11   45.09    3.77
  -4  -5  11   45.30    3.48
  -4  -5  11   49.34    4.36
   4  -5 -10    0.82    2.21
   4   5 -10    2.34    2.43
  -4   5  10    0.41    1.80
  -4   5  10    2.05    1.23
  -4  -5  10    0.62    0.98
  -4  -5  10    1.54    1.94
   4  -5  -9   30.18    3.65
   4   5  -9   25.23    2.46
  -4   5   9   26.23    3.05
  -4   5   9   30.03    2.10
  -4  -5   9   30.61    2.61
  -4  -5   9   29.34    3.26
   4  -5  -8  250.60   10.42
   4   5  -8  256.10    6.25
  -4   5   8  251.24    6.69
  -4   5   8  250.85    5.62
  -4  -5   8  260.09    5.28
  -4  -5   8  264.02    6.93
   4  -5  -7   41.88    3.45
   4   5  -7   41.42    2.32
  -4   5   7   38.51    2.81
  -4   5   7   41.16    1.99
  -4  -5   7   40.65    1.68
  -4  -5   7   40.76    2.73
   4  -5  -6  404.06    8.77
   4   5  -6  389.22    7.87
  -4   5   6  393.82    9.97
  -4   5   6  393.33    7.38
  -4  -5   6  402.26    7.17
  -4  -5   6  389.41    8.11
   4  -5  -5  123.90    3.90
   4   5  -5  124.64    3.53
   4   5  -5  118.62    4.29
  -4   5   5  122.48    3.38
  -4   5   5  121.13    2.89
  -4  -5   5  118.19    3.34
  -4  -5   5  123.88    3.45
   4  -5  -4   86.36    3.04
   4   5  -4   85.40    2.46
   4   5  -4   84.03    2.79
  -4   5   4   87.57    2.26
  -4   5   4   83.29    2.57
  -4  -5   4   83.49    2.06
  -4  -5   4   84.99    2.55
   4  -5  -3  252.23    5.11
   4  -5  -3  252.68    4.61
   4   5  -3  253.66    5.27
   4   5  -3  248.87    5.66
  -4   5   3  250.38    4.54
  -4   5   3  246.36    4.70
  -4  -5   3  253.80    4.54
  -4  -5   3  251.31    4.80
   4  -5  -2  580.48    9.74
   4  -5  -2  582.90    9.61
   4   5  -2  574.22    9.69
   4   5  -2  583.13   10.54
  -4   5   2  573.82    9.32
  -4   5   2  583.63   10.31
  -4  -5   2  580.72    9.77
   4  -5  -1   17.64    1.32
   4  -5  -1   19.35    1.04
   4   5  -1   21.23    1.77
   4   5  -1   19.24    1.02
  -4   5   1   18.75    1.01
  -4  -5   1   18.45    1.00
   4  -5   0    2.55    0.65
   4  -5   0    3.08    0.83
   4   5   0    3.27    0.79
  -4  -5   0    2.97    0.92
   4  -5   1  110.62    2.45
   4  -5   1  106.91    2.29
   4  -5   1  112.10    3.22
  -4  -5  -1  112.28    2.12
  -4  -5  -1  112.19    2.05
   4  -5   2   52.61    2.20
   4  -5   2   53.10    1.59
   4  -5   2   52.30    1.57
  -4  -5  -2   53.34    1.34
  -4  -5  -2   54.88    1.68
   4  -5   3  235.34    4.31
   4  -5   3  236.66    4.36
  -4  -5  -3  235.59    4.60
   4  -5   4  161.02    3.29
  -4  -5  -4  158.89    3.02
   4  -5   5   22.86    1.95
   4   5   5   23.02    1.06
  -4  -5  -5   22.67    1.34
   4  -5   6  250.91    5.04
   4   5   6  233.03    4.03
  -4   5  -6  231.73    5.56
  -4  -5  -6  240.95    6.01
   4  -5   7    6.00    1.88
   4   5   7    5.73    0.84
  -4   5  -7    5.22    0.97
  -4  -5  -7    4.74    1.15
   4  -5   8   23.56    1.79
   4   5   8   20.94    1.28
  -4   5  -8   23.11    1.47
  -4  -5  -8   21.10    1.67
   4  -5   9    6.65    1.47
   4   5   9    6.95    1.01
  -4   5  -9    6.52    1.18
  -4  -5  -9    6.26    1.28
   4  -5  10   18.15    3.04
   4   5  10   18.76    1.34
  -4   5 -10   18.28    1.66
  -4  -5 -10   15.65    1.69
   4  -5  11    6.56    3.08
   4   5  11    6.96    1.16
  -4   5 -11    5.99    1.41
  -4  -5 -11    8.51    2.30
   4  -5  12    3.51    1.58
   4   5  12    2.25    0.99
  -4   5 -12    1.80    1.23
  -4  -5 -12    0.48    1.90
   4  -5  13   -0.39    1.11
   4   5  13   -0.41    0.73
  -4   5 -13    0.98    0.91
  -4  -5 -13   -0.45    0.87
   4  -5  14    0.26    1.56
   4   5  14    2.12    1.07
  -4   5 -14    2.75    1.33
  -4  -5 -14   -0.02    1.22
   4  -5  15   -0.67    1.52
   4   5  15    1.31    1.05
  -4   5 -15    1.58    1.30
  -4  -5 -15   -0.04    1.20
   4  -6 -17   -0.85    2.20
   4   6 -17   -0.13    3.00
  -4   6  17   -0.12    3.03
  -4  -6  17    0.03    1.21
  -4  -6  17    1.41    2.22
   4  -6 -16    0.20    2.62
   4   6 -16    2.87    3.44
  -4   6  16   -0.32    3.67
  -4  -6  16    0.50    1.44
  -4  -6  16    1.24    2.73
   4  -6 -15   -0.39    2.11
   4   6 -15    0.14    1.77
  -4   6  15   -0.25    1.77
  -4  -6  15    0.00    2.20
   4  -6 -14    0.19    2.60
   4   6 -14   -0.20    2.08
  -4   6  14   -0.19    2.18
  -4  -6  14   -0.07    2.73
  -4  -6  14    3.59    1.36
   4  -6 -13    2.48    2.69
   4   6 -13    1.55    1.99
  -4   6  13   -0.09    2.11
  -4  -6  13    2.16    1.29
  -4  -6  13    4.25    2.54
   4  -6 -12   75.05    8.26
   4   6 -12   75.41    4.30
  -4   6  12   71.38    7.04
  -4  -6  12   80.09    4.29
  -4  -6  12   75.80    5.25
   4  -6 -11   -1.25    2.15
   4   6 -11   -0.19    1.44
  -4   6  11   -0.51    2.76
  -4  -6  11    1.00    0.93
  -4  -6  11    1.51    1.88
   4  -6 -10  103.60    5.66
   4   6 -10  105.09    6.09
  -4   6  10  100.27    4.68
  -4   6  10  104.05    3.70
  -4  -6  10  107.78    7.58
  -4  -6  10  105.76    4.20
   4  -6  -9   52.96    6.86
   4   6  -9   52.06    2.99
  -4   6   9   51.50    2.54
  -4   6   9   49.55    3.53
  -4  -6   9   52.26    2.09
  -4  -6   9   56.19    3.68
   4  -6  -8   54.86    4.06
   4   6  -8   56.42    2.91
  -4   6   8   54.51    3.52
  -4   6   8   59.57    5.56
  -4  -6   8   55.10    3.44
  -4  -6   8   54.65    1.95
   4  -6  -7   77.21    4.25
   4   6  -7   70.41    2.99
  -4   6   7   70.29    3.43
  -4   6   7   72.12    2.48
  -4  -6   7   73.86    2.16
  -4  -6   7   75.24    5.04
   4  -6  -6   36.41    3.03
   4   6  -6   35.19    2.08
  -4   6   6   34.92    1.70
  -4  -6   6   33.09    2.35
  -4  -6   6   33.84    1.42
   4  -6  -5    8.08    1.88
   4   6  -5    5.85    1.41
   4   6  -5    5.86    1.29
  -4   6   5    8.08    1.04
  -4   6   5    8.84    1.56
  -4  -6   5    7.13    1.35
  -4  -6   5    8.14    1.43
   4  -6  -4  204.93    4.94
   4   6  -4  204.90    4.43
   4   6  -4  199.79    3.73
  -4   6   4  197.70    3.92
  -4   6   4  195.87    4.40
  -4  -6   4  205.73    3.79
  -4  -6   4  204.04    4.51
   4  -6  -3   91.38    2.95
   4   6  -3   87.45    2.08
   4   6  -3   85.66    2.43
  -4   6   3   87.37    2.12
  -4   6   3   88.15    3.89
  -4  -6   3   86.22    2.04
  -4  -6   3   91.63    2.56
   4  -6  -2   70.55    3.83
   4  -6  -2   72.06    1.82
   4   6  -2   73.91    2.10
   4   6  -2   74.51    2.57
  -4   6   2   72.61    2.26
  -4   6   2   68.68    1.75
  -4  -6   2   74.13    2.09
   4  -6  -1   68.94    2.21
   4  -6  -1   71.71    1.75
   4   6  -1   71.99    2.59
  -4   6   1   70.97    1.71
  -4  -6   1   74.09    2.69
   4  -6   0  247.71    4.29
   4  -6   0  254.06    4.67
   4   6   0  256.56    4.70
  -4  -6   0  255.32    4.53
   4  -6   1    3.35    0.90
   4  -6   1    5.81    0.67
   4  -6   1    5.10    0.98
  -4  -6  -1    5.36    0.73
  -4  -6  -1    5.73    0.78
   4  -6   2  372.81    6.74
   4  -6   2  377.07    6.38
   4  -6   2  356.42    6.05
  -4  -6  -2  370.79    5.93
  -4  -6  -2  375.49    6.94
   4  -6   3   13.01    1.44
   4  -6   3   12.32    1.07
  -4  -6  -3   13.70    1.69
   4  -6   4   58.90    1.97
  -4  -6  -4   61.93    2.85
   4  -6   5   65.66    2.18
  -4  -6  -5   66.97    3.22
   4  -6   6    5.28    1.07
   4   6   6    3.76    0.83
  -4   6  -6    4.81    0.97
  -4  -6  -6    3.61    1.10
   4  -6   7   33.99    2.89
   4   6   7   32.97    1.41
  -4   6  -7   30.37    2.51
  -4  -6  -7   35.18    3.00
   4  -6   8   12.92    1.53
   4   6   8    9.78    1.09
  -4   6  -8   10.79    1.32
  -4  -6  -8   11.27    1.48
   4  -6   9    2.33    1.24
   4   6   9    2.33    0.83
  -4   6  -9    1.56    1.66
  -4  -6  -9    2.21    1.17
   4  -6  10   33.17    2.31
   4   6  10   29.62    1.59
  -4   6 -10   26.77    2.01
  -4  -6 -10   29.12    2.09
   4  -6  11    2.94    2.48
   4   6  11    1.88    0.96
  -4   6 -11    1.81    1.22
  -4  -6 -11    3.05    1.24
   4  -6  12   20.46    4.16
   4   6  12   25.02    1.67
  -4   6 -12   21.89    2.14
  -4  -6 -12   20.90    3.19
   4  -6  13    0.84    1.28
   4   6  13   -1.38    0.80
  -4   6 -13   -0.25    1.63
  -4  -6 -13    1.00    0.99
   4  -6  14   11.44    2.27
   4   6  14    8.03    1.47
  -4   6 -14    6.26    2.96
  -4  -6 -14    8.00    1.81
   4  -7 -17   -0.47    3.14
   4   7 -17   -1.06    2.62
  -4   7  17   -0.04    2.56
  -4  -7  17    5.34    2.60
  -4  -7  17    3.14    3.21
   4  -7 -16   -0.08    3.10
   4   7 -16   -0.87    2.52
  -4   7  16    0.25    2.48
  -4  -7  16   -0.48    3.24
  -4  -7  16    7.82    2.49
   4  -7 -15   -0.16    2.02
   4   7 -15    0.24    1.64
  -4   7  15   -0.10    1.60
  -4  -7  15    0.63    2.04
  -4  -7  15   -0.10    1.61
   4  -7 -14    0.03    1.80
   4   7 -14   -0.17    1.39
  -4   7  14    0.22    1.38
  -4  -7  14   -0.19    1.74
   4  -7 -13   -1.20    3.56
   4   7 -13   -1.50    1.64
  -4   7  13    0.47    1.69
  -4  -7  13    1.25    2.05
  -4  -7  13    0.84    0.99
   4  -7 -12    9.26    3.36
   4   7 -12   12.00    2.51
  -4   7  12    0.04    2.70
  -4  -7  12    9.55    3.14
  -4  -7  12   10.98    1.56
   4  -7 -11   12.86    3.20
   4   7 -11   11.70    2.30
  -4   7  11   10.56    4.22
  -4   7  11    2.94    1.80
  -4  -7  11   10.12    2.15
  -4  -7  11    7.93    4.63
   4  -7 -10    3.15    3.53
   4   7 -10   -1.35    1.38
  -4   7  10    1.43    1.62
  -4   7  10    1.42    1.10
  -4  -7  10   -2.33    1.75
  -4  -7  10    0.79    0.80
   4  -7  -9   23.46    3.52
   4   7  -9   21.45    2.38
  -4   7   9   18.47    2.75
  -4   7   9   19.56    1.91
  -4  -7   9   20.56    2.83
  -4  -7   9   20.20    1.41
   4  -7  -8   75.19    4.70
   4   7  -8   72.23    3.35
  -4   7   8   74.55    3.76
  -4   7   8   74.65    3.91
  -4  -7   8   77.10    3.14
  -4  -7   8   78.10    5.80
   4  -7  -7    1.25    1.88
   4   7  -7    0.15    1.91
  -4   7   7    1.65    0.90
  -4   7   7    0.65    1.48
  -4  -7   7    0.82    1.11
  -4  -7   7    0.32    1.41
   4  -7  -6  119.77    4.74
   4   7  -6  118.11    3.62
  -4   7   6  118.86    3.01
  -4   7   6  117.78    5.92
  -4  -7   6  120.04    3.91
  -4  -7   6  120.60    2.65
   4  -7  -5    1.32    1.58
   4   7  -5    1.19    0.67
   4   7  -5    1.62    1.07
  -4   7   5    1.59    1.33
  -4   7   5    1.87    0.78
  -4  -7   5    1.78    1.16
  -4  -7   5    1.95    0.62
   4  -7  -4  334.29    7.21
   4   7  -4  332.48    6.73
   4   7  -4  333.01    5.74
  -4   7   4  338.98    6.07
  -4   7   4  326.06    6.61
  -4  -7   4  336.11    5.76
  -4  -7   4  345.14    6.92
   4  -7  -3   46.15    2.55
   4   7  -3   45.48    1.94
   4   7  -3   46.61    1.45
  -4   7   3   44.02    1.47
  -4   7   3   47.60    2.23
  -4  -7   3   47.02    1.96
   4  -7  -2  206.96    4.61
   4  -7  -2  200.49    3.66
   4   7  -2  201.54    3.75
   4   7  -2  203.09    4.28
  -4   7   2  197.73    3.58
  -4  -7   2  202.10    4.29
   4  -7  -1  325.36    5.44
   4  -7  -1  333.14    6.33
   4   7  -1  325.63    5.70
  -4   7   1  320.92    5.34
  -4  -7   1  332.01    6.16
   4  -7   0   67.90    1.64
   4  -7   0   67.64    3.61
   4   7   0   70.35    1.93
  -4  -7   0   69.25    2.76
   4  -7   1   90.23    2.53
   4  -7   1   88.25    1.92
   4  -7   1   88.42    2.58
  -4  -7  -1   90.90    2.29
  -4  -7  -1   89.65    2.25
   4  -7   2   47.01    1.99
   4  -7   2   47.63    1.85
   4  -7   2   43.91    1.32
  -4  -7  -2   47.32    1.58
  -4  -7  -2   45.52    1.68
   4  -7   3    3.95    1.08
   4  -7   3    3.32    0.96
  -4  -7  -3    4.52    0.96
   4  -7   4   67.43    3.21
   4  -7   4   66.73    1.80
  -4  -7  -4   67.25    2.17
   4  -7   5   51.91    2.11
  -4  -7  -5   53.11    3.11
   4  -7   6   59.34    3.38
  -4  -7  -6   59.66    2.34
   4  -7   7    0.84    0.88
   4   7   7    0.52    0.65
  -4   7  -7   -0.42    0.78
  -4  -7  -7    0.33    1.47
   4  -7   8   85.23    3.15
   4   7   8   82.61    2.34
  -4   7  -8   82.26    2.95
  -4  -7  -8   85.55    2.96
   4  -7   9    4.12    1.47
   4   7   9    3.89    0.98
  -4   7  -9    4.23    1.27
  -4  -7  -9    5.30    1.36
   4  -7  10    3.72    1.51
   4   7  10    3.62    0.98
  -4   7 -10    2.62    1.28
  -4  -7 -10    2.44    1.37
   4  -7  11    3.69    1.82
   4   7  11    4.60    1.10
  -4   7 -11    4.58    2.32
  -4  -7 -11    4.53    1.47
   4  -7  12    8.61    2.29
   4   7  12   13.41    1.41
  -4   7 -12   10.66    2.92
  -4  -7 -12   13.58    1.89
   4  -7  13    2.15    2.60
   4   7  13    2.10    1.57
  -4   7 -13   -0.13    1.27
  -4  -7 -13    0.65    1.99
   4  -7  14   -0.54    1.31
   4   7  14    0.62    1.36
  -4   7 -14    0.34    1.10
  -4  -7 -14    0.05    1.06
   4  -8 -16   -0.05    2.57
   4   8 -16   -0.55    2.06
  -4   8  16   -0.33    1.97
  -4  -8  16   -0.47    2.74
  -4  -8  16    1.11    1.20
   4  -8 -15    0.34    2.46
   4   8 -15    0.32    1.95
  -4   8  15   -0.30    1.88
  -4  -8  15    0.32    2.40
  -4  -8  15   -0.90    1.11
   4  -8 -14    0.05    2.83
   4   8 -14   -0.86    2.15
  -4   8  14   -0.15    2.15
  -4  -8  14    3.37    1.25
  -4  -8  14    0.72    2.73
   4  -8 -13    0.25    4.41
   4   8 -13   24.72    3.37
  -4   8  13   27.19    3.31
  -4  -8  13   25.03    3.01
  -4  -8  13   27.32    4.00
   4  -8 -12   29.66    4.27
   4   8 -12   26.18    3.22
  -4   8  12   22.17    3.20
  -4  -8  12   27.80    6.18
  -4  -8  12   26.68    1.89
   4  -8 -11    5.98    3.19
   4   8 -11    7.82    2.30
  -4   8  11    6.05    2.45
  -4   8  11    7.05    1.76
  -4  -8  11    4.82    2.79
  -4  -8  11    8.23    1.25
   4  -8 -10    3.98    2.91
   4   8 -10    5.95    2.06
  -4   8  10    4.91    1.55
  -4  -8  10    5.26    2.38
  -4  -8  10    5.61    1.13
   4  -8  -9   11.79    3.06
   4   8  -9    9.88    3.42
  -4   8   9   10.29    1.62
  -4   8   9   11.43    2.45
  -4  -8   9    9.67    2.57
  -4  -8   9   10.63    1.83
   4  -8  -8  108.99    8.27
   4   8  -8  103.07    4.00
  -4   8   8  103.46    4.29
  -4   8   8  106.84    3.24
  -4  -8   8  111.20    3.56
  -4  -8   8  104.69    4.53
   4  -8  -7   25.02    3.44
   4   8  -7   30.25    2.34
  -4   8   7   27.03    1.71
  -4   8   7   27.97    2.67
  -4  -8   7   32.67    2.62
  -4  -8   7   27.71    1.95
   4  -8  -6   67.35    4.00
   4   8  -6   62.21    2.92
  -4   8   6   68.29    5.20
  -4   8   6   69.08    2.25
  -4  -8   6   65.47    4.65
  -4  -8   6   66.44    1.79
   4  -8  -5   89.81    4.03
   4   8  -5   90.32    3.11
   4   8  -5   89.65    2.14
  -4   8   5   85.15    3.43
  -4   8   5   89.29    2.39
  -4  -8   5   87.71    4.65
  -4  -8   5   89.58    2.69
   4  -8  -4   20.76    2.44
   4   8  -4   16.52    1.71
   4   8  -4   20.49    1.02
  -4   8   4   18.73    2.04
  -4   8   4   19.09    1.77
  -4  -8   4   20.32    0.98
  -4  -8   4   18.55    1.80
   4  -8  -3   54.83    2.95
   4   8  -3   55.85    1.56
   4   8  -3   54.72    2.28
  -4   8   3   51.71    2.61
  -4   8   3   50.41    1.52
  -4  -8   3   52.80    2.29
   4  -8  -2   78.07    3.11
   4   8  -2   76.20    1.87
  -4   8   2   74.19    1.73
  -4  -8   2   77.68    2.54
   4  -8  -1    7.09    0.71
   4  -8  -1    7.77    2.63
   4   8  -1    7.11    0.80
  -4   8   1    6.71    0.67
  -4  -8   1    6.10    1.78
   4  -8   0  194.75    4.00
   4  -8   0  201.89    6.23
   4   8   0  202.22    3.91
  -4  -8   0  196.56    4.21
   4  -8   1   34.86    2.05
   4  -8   1   34.15    1.56
   4  -8   1   32.51    2.75
   4   8   1   33.54    1.45
  -4  -8  -1   34.31    1.72
  -4  -8  -1   33.56    1.60
   4  -8   2  196.61    4.45
   4  -8   2  187.33    3.90
   4  -8   2  190.82    4.46
  -4  -8  -2  192.43    5.32
  -4  -8  -2  196.37    4.12
   4  -8   3  105.42    2.22
   4  -8   3  100.93    4.10
  -4  -8  -3  109.85    4.03
   4  -8   4    0.47    0.48
   4  -8   4    0.23    0.81
  -4  -8  -4    0.14    0.81
   4  -8   5   22.58    1.15
   4  -8   5   24.07    2.66
  -4  -8  -5   23.82    1.73
   4  -8   6   17.42    1.70
  -4  -8  -6   17.36    1.65
   4  -8   7    4.64    1.34
  -4  -8  -7    5.08    1.37
   4  -8   8   60.08    2.80
   4   8   8   61.32    2.12
  -4   8  -8   58.27    2.65
  -4  -8  -8   62.19    2.64
   4  -8   9    1.19    1.18
   4   8   9    0.90    1.34
  -4   8  -9    0.48    1.10
  -4  -8  -9    0.89    1.12
   4  -8  10    0.49    1.06
   4   8  10    0.28    0.69
  -4   8 -10    2.16    1.51
  -4  -8 -10   -1.18    0.98
   4  -8  11    1.32    1.72
   4   8  11    3.01    1.03
  -4   8 -11    2.77    1.38
  -4  -8 -11    2.86    1.45
   4  -8  12    5.72    2.13
   4   8  12    7.20    2.12
  -4   8 -12    7.13    1.79
  -4  -8 -12    8.44    1.78
   4  -8  13   21.06    2.83
   4   8  13   23.22    2.85
  -4   8 -13   18.50    2.46
  -4  -8 -13   23.53    2.39
   4   8  14    1.63    1.10
   4  -8  14    1.98    1.80
  -4   8 -14    0.02    1.46
  -4  -8 -14    0.67    2.36
   4  -9 -16   -0.34    2.57
   4   9 -16    0.13    3.22
  -4  -9  16    0.93    1.73
  -4   9  16   -0.42    3.20
  -4   9  16   -0.20    1.63
  -4  -9  16    0.54    2.59
   4  -9 -15   -0.61    3.07
   4   9 -15   -0.34    3.82
  -4   9  15   -0.64    1.91
  -4  -9  15    0.25    3.00
  -4  -9  15    5.59    2.04
   4  -9 -14    0.02    1.57
   4   9 -14    0.28    1.95
  -4   9  14    1.18    1.95
  -4   9  14   -0.50    0.98
  -4  -9  14   -0.42    0.64
  -4  -9  14    2.56    1.50
   4  -9 -13    0.23    6.62
   4   9 -13    4.66    4.89
  -4   9  13   15.34    3.00
  -4   9  13    5.94    2.42
  -4  -9  13   16.08    3.77
  -4  -9  13   17.51    1.65
   4  -9 -12    3.98    3.15
   4   9 -12    5.03    2.32
  -4   9  12    3.58    2.33
  -4   9  12    4.85    1.83
  -4  -9  12    3.50    1.90
  -4  -9  12    6.11    2.82
   4  -9 -11   -1.49    2.22
   4   9 -11    0.09    1.69
  -4   9  11    1.86    1.76
  -4   9  11    2.63    1.29
  -4  -9  11   -1.37    3.24
  -4  -9  11    0.35    0.84
   4  -9 -10   13.31    5.84
   4   9 -10   17.26    2.53
  -4   9  10   10.78    2.66
  -4   9  10   13.75    1.88
  -4  -9  10   10.31    2.96
  -4  -9  10   14.08    2.00
   4  -9  -9   45.62    4.22
   4   9  -9   42.53    3.15
  -4   9   9   43.92    3.40
  -4   9   9   44.20    3.50
  -4  -9   9   42.42    3.54
  -4  -9   9   46.06    2.51
   4  -9  -8   21.93    3.46
   4   9  -8   22.68    2.45
  -4   9   8   20.19    1.70
  -4   9   8   19.85    2.68
  -4  -9   8   20.51    1.84
  -4  -9   8   23.29    4.42
   4  -9  -7  105.23    5.09
   4   9  -7  100.35    3.94
  -4   9   7  104.15    4.11
  -4   9   7   95.42    4.05
  -4  -9   7  104.59    3.07
  -4  -9   7  107.12    4.24
   4  -9  -6   31.27    3.28
   4   9  -6   28.66    2.36
  -4   9   6   29.80    2.41
  -4   9   6   28.50    2.70
  -4  -9   6   32.78    1.24
  -4  -9   6   29.95    2.58
   4  -9  -5    3.95    3.59
   4   9  -5    5.62    0.77
   4   9  -5    5.70    1.53
  -4   9   5    6.36    1.81
  -4   9   5    6.81    1.50
  -4  -9   5    5.07    1.60
  -4  -9   5    5.25    1.11
   4  -9  -4  218.51    8.68
   4   9  -4  218.34    6.70
   4   9  -4  213.95    4.48
  -4   9   4  216.08    4.10
  -4   9   4  211.80    5.38
  -4  -9   4  217.45    5.33
   4  -9  -3   65.80    5.26
   4   9  -3   66.65    1.67
  -4   9   3   65.33    2.28
  -4  -9   3   65.61    2.67
   4  -9  -2   26.90    3.90
   4   9  -2   27.53    1.13
  -4   9   2   26.90    1.48
  -4  -9   2   24.83    1.84
   4  -9  -1   70.37    4.74
   4   9  -1   70.98    1.83
  -4   9   1   65.37    1.51
  -4  -9   1   68.56    2.41
   4  -9   0    0.40    0.36
   4  -9   0    0.82    1.61
   4   9   0    0.21    0.77
  -4  -9   0   -0.41    0.73
  -4  -9   0   -0.69    0.69
   4  -9   1  107.43    2.11
   4  -9   1  109.49    3.35
   4  -9   1  108.56    3.45
   4   9   1  108.59    2.62
  -4  -9  -1  108.42    3.01
  -4  -9  -1  109.82    3.02
   4  -9   2   56.51    4.08
   4  -9   2   59.45    2.49
   4  -9   2   57.11    1.41
  -4  -9  -2   60.29    3.53
  -4  -9  -2   56.38    2.15
   4  -9   3    0.39    1.27
   4  -9   3    4.77    2.08
   4  -9   3    4.39    0.61
  -4  -9  -3    7.01    1.21
  -4  -9  -3    6.73    1.06
   4  -9   4  119.04    2.49
   4  -9   4  124.28    3.64
  -4  -9  -4  124.30    3.41
   4  -9   5    0.55    0.51
   4  -9   5   -0.40    0.96
  -4  -9  -5    1.37    0.95
   4  -9   6    4.03    1.27
   4  -9   6    3.11    0.74
  -4  -9  -6    1.08    2.13
   4  -9   7   12.66    2.76
  -4  -9  -7   13.65    1.69
   4  -9   8    1.71    1.21
  -4  -9  -8    0.32    1.15
   4  -9   9   20.35    2.17
   4   9   9   19.30    1.52
  -4  -9  -9   18.01    2.01
   4  -9  10   -0.16    1.20
   4   9  10   -0.50    0.78
  -4   9 -10   -0.32    1.10
  -4  -9 -10    0.26    1.74
   4  -9  11    6.23    2.84
   4   9  11    6.36    1.85
  -4   9 -11    5.09    1.63
  -4  -9 -11   -0.26    1.59
   4  -9  12   -0.22    2.71
   4   9  12    1.83    1.00
  -4   9 -12    0.07    1.43
  -4  -9 -12    1.31    1.42
   4  -9  13    1.74    1.81
   4   9  13    1.97    1.10
  -4   9 -13    0.05    2.47
  -4  -9 -13    1.50    1.54
   4 -10 -15    0.30    4.61
   4  10 -15   -0.54    2.19
  -4  10  15    0.37    1.77
  -4  10  15    2.36    2.10
  -4 -10  15    0.75    1.08
  -4 -10  15   -0.64    4.74
   4 -10 -14   -0.02    2.13
   4  10 -14    0.80    1.69
  -4  10  14   -0.20    1.62
  -4  10  14    0.02    1.31
  -4 -10  14    2.23    2.09
  -4 -10  14   -0.83    1.31
   4 -10 -13    0.16    2.71
   4  10 -13    0.20    2.09
  -4  10  13    0.52    2.00
  -4  10  13   -0.13    1.58
  -4 -10  13    1.76    1.02
  -4 -10  13    3.19    2.50
   4 -10 -12   -0.36    6.64
   4  10 -12   14.88    3.04
  -4  10  12   13.86    2.25
  -4  10  12   15.52    4.94
  -4 -10  12   14.96    1.50
  -4 -10  12   16.01    3.55
   4 -10 -11   32.18    4.38
   4  10 -11   28.78    5.36
  -4  10  11   29.87    2.52
  -4  10  11   33.13    3.31
  -4 -10  11   29.78    3.75
  -4 -10  11   31.50    1.70
   4 -10 -10   15.54    3.70
   4  10 -10   14.28    2.77
  -4  10  10   17.36    2.84
  -4  10  10   16.56    2.01
  -4 -10  10   18.38    1.96
  -4 -10  10   20.34    5.15
   4 -10  -9   41.53    4.30
   4  10  -9   44.66    3.40
  -4  10   9   43.56    5.42
  -4  10   9   43.37    2.38
  -4 -10   9   42.61    2.32
  -4 -10   9   43.04    3.72
   4 -10  -8    0.44    1.31
   4  10  -8   -0.73    0.92
  -4  10   8   -1.31    1.01
  -4  10   8    0.98    0.60
  -4 -10   8   -0.47    1.04
  -4 -10   8   -0.14    0.60
   4 -10  -7   36.72    3.73
   4  10  -7   30.21    2.70
  -4  10   7   30.20    4.78
  -4  10   7   35.09    1.79
  -4 -10   7   31.60    2.87
  -4 -10   7   32.77    1.26
   4 -10  -6   17.05    2.93
   4  10  -6   12.44    2.13
  -4  10   6   16.81    1.30
  -4  10   6   15.33    2.37
  -4 -10   6   14.11    0.91
  -4 -10   6   14.28    3.49
   4 -10  -5   23.08    3.06
   4  10  -5   25.14    3.48
  -4  10   5   26.51    2.57
  -4  10   5   25.28    1.35
  -4 -10   5   27.68    2.37
   4 -10  -4    3.69    1.96
   4  10  -4    3.82    1.36
   4  10  -4    2.91    0.59
  -4  10   4    3.03    0.72
  -4  10   4    0.17    1.48
  -4 -10   4    2.77    1.41
   4 -10  -3   72.45    3.64
   4  10  -3   72.66    1.74
  -4  10   3   70.46    1.75
  -4 -10   3   71.59    2.99
   4 -10  -2    4.43    1.77
   4  10  -2    4.44    0.67
  -4  10   2    3.62    0.58
  -4 -10   2    5.46    1.31
   4 -10  -1    2.38    1.58
   4  10  -1    3.12    0.65
  -4  10   1    2.24    0.49
  -4 -10   1    2.06    1.13
   4 -10   0  132.05    2.39
   4 -10   0  132.76    6.04
   4 -10   0  137.07    4.05
   4  10   0  132.93    2.92
  -4 -10   0  132.06    3.71
  -4 -10   0  132.61    3.66
   4 -10   1    5.67    0.88
   4 -10   1    2.54    2.83
   4 -10   1    5.96    1.52
   4  10   1    7.05    0.92
  -4 -10  -1    6.69    1.31
  -4 -10  -1    8.44    1.41
   4 -10   2   13.21    1.07
   4 -10   2   15.88    1.75
   4 -10   2   11.21    3.16
  -4 -10  -2   13.09    1.48
  -4 -10  -2   17.29    2.69
   4 -10   3    3.05    2.10
   4 -10   3    2.59    0.81
   4 -10   3    4.27    1.42
  -4 -10  -3    2.27    1.09
  -4 -10  -3    3.54    1.26
   4 -10   4    2.34    0.53
   4 -10   4    2.09    1.26
  -4 -10  -4    3.71    2.00
   4 -10   5    6.69    1.46
   4 -10   5    3.97    0.68
  -4 -10  -5    7.18    1.40
   4 -10   6    1.17    0.58
   4 -10   6    1.03    1.21
  -4 -10  -6    1.84    1.16
   4 -10   7   45.06    1.61
   4 -10   7   46.99    2.68
  -4 -10  -7   45.64    3.96
   4 -10   8   19.88    2.18
  -4 -10  -8   24.69    3.44
   4 -10   9   18.19    2.21
  -4 -10  -9   15.22    2.06
   4 -10  10    0.57    0.95
  -4 -10 -10   -0.53    0.89
   4 -10  11    3.60    1.86
   4  10  11    5.89    1.20
  -4 -10 -11    0.12    1.70
   4 -10  12    0.66    1.18
   4  10  12    0.49    0.73
  -4  10 -12    0.21    1.02
  -4 -10 -12   -1.53    1.02
   4 -10  13    0.82    2.05
   4  10  13    4.32    1.25
  -4  10 -13   -0.12    1.75
  -4 -10 -13    1.95    2.84
   4 -11 -15    0.61    3.37
   4  11 -15   -0.37    2.60
  -4  11  15    7.19    2.48
  -4  11  15   -0.19    1.99
  -4 -11  15   -0.32    3.27
   4 -11 -14    0.12    4.19
   4  11 -14   -0.20    2.05
  -4  11  14   -1.07    1.89
  -4  11  14    0.00    1.47
  -4 -11  14   -0.40    0.89
  -4 -11  14    0.76    3.90
   4 -11 -13   -0.22    4.05
   4  11 -13   16.01    3.20
  -4  11  13   18.50    2.97
  -4  11  13   -0.25    2.35
  -4 -11  13   14.11    1.46
  -4 -11  13   18.90    3.90
   4 -11 -12   -0.19    2.40
   4  11 -12    1.69    1.94
  -4  11  12    0.47    1.33
  -4  11  12    1.04    1.84
  -4 -11  12    0.56    2.16
  -4 -11  12    0.53    0.79
   4 -11 -11   -0.26    7.33
   4  11 -11   37.25    3.69
  -4  11  11   34.97    2.63
  -4  11  11   38.90    5.77
  -4 -11  11   35.81    1.69
  -4 -11  11   36.73    3.96
   4 -11 -10    2.65    2.84
   4  11 -10    2.52    2.10
  -4  11  10    4.56    2.16
  -4  11  10    3.95    2.25
  -4 -11  10    3.68    1.31
  -4 -11  10    2.63    2.33
   4 -11  -9    4.24    2.78
   4  11  -9    3.34    2.09
  -4  11   9    3.73    2.11
  -4  11   9    4.94    1.33
  -4 -11   9    4.04    1.19
  -4 -11   9    1.25    3.82
   4 -11  -8   25.89    3.66
   4  11  -8   26.08    2.87
  -4  11   8   25.96    2.76
  -4  11   8   25.88    2.90
  -4 -11   8   30.40    3.09
  -4 -11   8   24.79    1.15
   4 -11  -7   30.62    6.03
   4  11  -7   35.23    2.90
  -4  11   7   32.47    1.78
  -4  11   7   32.15    2.95
  -4 -11   7   34.44    3.09
  -4 -11   7   32.81    1.20
   4 -11  -6    4.43    2.43
   4  11  -6    3.61    2.87
  -4  11   6    4.47    0.97
  -4  11   6    2.09    1.91
  -4 -11   6    5.02    1.85
   4 -11  -5   62.95    4.07
   4  11  -5   60.07    3.19
  -4  11   5   57.51    3.34
  -4  11   5   60.21    1.92
  -4 -11   5   58.73    4.90
   4 -11  -4   10.95    2.54
   4  11  -4   10.94    1.16
  -4  11   4   10.82    1.42
  -4 -11   4   10.35    1.94
   4 -11  -3   18.84    2.71
   4  11  -3   20.72    0.93
  -4  11   3   21.40    1.42
  -4 -11   3   21.46    2.15
   4 -11  -2   17.95    2.51
   4  11  -2   18.13    0.94
  -4  11   2   18.45    1.22
  -4 -11   2   18.29    1.97
   4 -11  -1   10.39    2.09
   4  11  -1    8.85    0.82
  -4 -11   1    8.51    1.60
   4 -11   0    0.95    2.60
   4 -11   0    2.17    1.37
   4  11   0    1.93    0.67
  -4 -11   0    1.45    1.29
  -4 -11   0    2.13    1.19
   4 -11   1   22.69    2.13
   4 -11   1   21.18    2.34
   4 -11   1   17.89    0.73
   4  11   1   21.41    1.22
  -4 -11  -1   23.09    1.89
  -4 -11  -1   21.58    1.95
   4 -11   2   40.53    1.42
   4 -11   2   45.44    2.63
   4 -11   2   44.34    2.76
  -4 -11  -2   45.56    2.42
  -4 -11  -2   44.63    3.43
   4 -11   3  113.40    2.53
   4 -11   3  121.02    4.05
   4 -11   3  120.41    5.61
  -4 -11  -3  118.51    3.63
  -4 -11  -3  118.72    4.87
   4 -11   4   20.48    1.25
   4 -11   4   23.55    3.30
  -4 -11  -4   23.17    1.89
  -4 -11  -4   22.71    1.99
   4 -11   5   47.87    2.72
   4 -11   5   44.82    1.75
  -4 -11  -5   46.59    3.94
   4 -11   6    3.03    1.38
   4 -11   6    1.88    0.57
  -4 -11  -6    1.92    1.34
   4 -11   7    1.58    1.42
   4 -11   7    1.26    0.62
  -4 -11  -7    3.80    1.34
   4 -11   8    8.47    0.93
   4 -11   8    9.69    1.95
  -4 -11  -8    8.06    1.78
   4 -11   9    0.22    1.37
  -4 -11  -9    1.00    1.24
   4 -11  10    4.11    1.65
  -4 -11 -10    0.21    1.49
   4 -11  11    5.74    1.84
  -4 -11 -11   -0.34    1.69
   4 -11  12    2.28    2.59
  -4 -11 -12    0.00    1.41
   4 -12 -14    0.54    3.20
   4  12 -14   -0.29    4.12
  -4  12  14    5.20    3.90
  -4  12  14    0.18    1.77
  -4 -12  14    1.78    0.99
  -4 -12  14    2.41    3.08
   4 -12 -13   -0.46    4.51
   4  12 -13    0.26    2.11
  -4  12  13    0.13    1.43
  -4  12  13    1.87    1.97
  -4 -12  13    1.18    2.42
  -4 -12  13    0.31    1.27
   4 -12 -12   -0.02    3.11
   4  12 -12    2.78    2.53
  -4  12  12    3.19    1.63
  -4  12  12    3.27    2.33
  -4 -12  12    3.08    0.92
  -4 -12  12    4.27    2.82
   4 -12 -11   -0.10    3.65
   4  12 -11   15.11    2.91
  -4  12  11   12.40    2.83
  -4 -12  11   10.31    1.09
  -4  12  11   10.24    3.03
  -4 -12  11   13.18    5.15
   4 -12 -10    0.25    4.79
   4  12 -10    4.07    2.33
  -4  12  10    2.70    1.42
  -4  12  10    4.62    3.72
  -4 -12  10    3.30    2.45
  -4 -12  10    4.19    0.79
   4 -12  -9   34.24    4.44
   4  12  -9   34.00    3.50
  -4  12   9   33.58    3.37
  -4  12   9   35.76    2.16
  -4 -12   9   33.90    1.31
  -4 -12   9   35.66    3.68
   4 -12  -8    5.71    2.92
   4  12  -8    7.47    2.32
  -4  12   8    7.39    1.31
  -4  12   8    6.52    2.27
  -4 -12   8   10.43    4.01
  -4 -12   8    6.99    0.74
   4 -12  -7   33.39    3.81
   4  12  -7   29.40    4.79
  -4  12   7   32.67    2.64
  -4  12   7   31.78    3.10
  -4 -12   7   36.68    3.27
   4 -12  -6   18.27    5.32
   4  12  -6   19.40    2.64
  -4  12   6   18.83    2.62
  -4  12   6   21.27    2.07
  -4 -12   6   21.55    2.65
   4 -12  -5   20.22    3.07
  -4  12   5   17.66    1.17
  -4 -12   5   19.49    2.46
   4 -12  -4    5.40    2.26
  -4  12   4    4.37    0.73
  -4 -12   4    4.13    2.89
   4 -12  -3    7.48    2.35
   4  12  -3    8.55    0.59
  -4  12   3    7.81    0.72
  -4 -12   3    7.34    1.87
   4 -12  -2  185.86    5.73
   4  12  -2  182.14    3.38
  -4  12   2  175.70    3.10
  -4 -12   2  188.22    5.32
   4 -12  -1   11.64    3.93
   4  12  -1   13.32    0.89
  -4 -12   1   13.15    1.88
   4 -12   0   17.19    2.33
   4 -12   0   12.65    2.17
   4  12   0   13.67    0.97
  -4 -12   0   12.98    3.14
  -4 -12   0   14.18    1.86
   4 -12   1    0.74    1.18
   4 -12   1    0.24    1.25
   4  12   1    0.09    0.55
  -4 -12  -1    0.74    1.61
  -4 -12  -1    0.73    1.74
   4 -12   2    1.54    1.46
   4 -12   2    3.24    1.50
   4  12   2    1.66    0.77
  -4 -12  -2    2.10    1.26
  -4 -12  -2    1.30    1.30
   4 -12   3    6.90    2.81
   4 -12   3    5.52    0.66
   4 -12   3    3.98    1.79
  -4 -12  -3    5.75    1.51
  -4 -12  -3    7.68    1.56
   4 -12   4   22.20    3.69
   4 -12   4   25.34    2.37
   4 -12   4   21.56    1.05
  -4 -12  -4   22.55    2.07
  -4 -12  -4   23.36    2.11
   4 -12   5    4.95    2.86
   4 -12   5    5.79    0.85
  -4 -12  -5    6.20    1.60
   4 -12   6    2.93    0.53
   4 -12   6    3.58    2.56
  -4 -12  -6    2.32    2.41
   4 -12   7   20.21    3.82
   4 -12   7   21.43    1.49
  -4 -12  -7   25.42    2.34
   4 -12   8   -0.04    2.00
   4 -12   8    0.13    0.78
  -4 -12  -8    0.83    1.21
   4 -12   9   13.96    3.73
   4 -12   9   11.73    1.60
  -4 -12  -9   15.85    2.19
   4 -12  10    0.40    2.62
   4 -12  10    1.25    0.71
  -4 -12 -10    0.11    1.48
   4 -12  11    8.24    2.12
  -4 -12 -11   -0.23    1.97
   4 -13 -13   -0.14    4.06
   4  13 -13   14.58    3.28
  -4  13  13   13.15    5.06
  -4  13  13   -0.04    3.36
  -4 -13  13   15.53    6.25
   4 -13 -12    0.16    2.14
   4  13 -12    0.99    2.72
  -4  13  12   -0.26    1.61
  -4  13  12   -0.25    1.06
  -4 -13  12   -0.87    1.93
  -4 -13  12    0.46    0.83
   4 -13 -11   -0.31    3.27
   4  13 -11    5.70    2.66
  -4  13  11    5.60    2.51
  -4  13  11    4.77    1.60
  -4 -13  11    4.12    0.80
  -4 -13  11    5.28    2.90
   4 -13 -10    0.22    3.12
   4  13 -10    4.12    2.53
  -4  13  10    6.95    2.40
  -4  13  10    5.33    1.46
  -4 -13  10    4.56    0.75
  -4 -13  10    1.93    4.18
   4 -13  -9    0.39    5.61
   4  13  -9    7.86    2.72
  -4 -13   9    7.89    2.77
  -4  13   9    8.22    1.46
  -4  13   9    9.00    4.30
  -4 -13   9    8.83    1.15
   4 -13  -8    2.14    2.40
   4  13  -8    0.37    1.90
  -4  13   8    1.62    0.97
  -4  13   8    0.77    1.79
  -4 -13   8    1.40    1.99
   4 -13  -7    0.80    2.22
   4  13  -7    2.46    1.84
  -4  13   7    0.81    0.85
  -4  13   7    2.12    1.72
  -4 -13   7    2.93    2.92
   4 -13  -6   37.17    3.82
  -4  13   6   34.96    1.62
  -4 -13   6   33.69    3.24
   4 -13  -5    7.22    4.45
  -4  13   5    6.71    0.89
  -4 -13   5    7.81    2.16
   4 -13  -4   30.35    3.29
  -4  13   4   25.26    1.09
  -4 -13   4   23.25    2.68
   4 -13  -3   12.50    2.66
  -4  13   3   13.66    0.76
  -4 -13   3   12.08    2.25
   4 -13  -2    8.20    2.33
  -4  13   2    9.05    0.56
  -4 -13   2    7.24    1.95
   4 -13  -1   18.42    2.48
   4 -13  -1   19.16    4.18
   4  13  -1   16.11    1.32
  -4 -13   1   15.85    2.14
  -4 -13   1   18.45    2.18
   4 -13   0    0.08    1.41
   4 -13   0   -0.15    1.33
   4  13   0   -0.01    0.81
  -4 -13   0    1.38    1.17
  -4 -13   0    0.87    1.16
   4 -13   1   93.27    3.99
   4 -13   1   85.92    5.77
   4  13   1   86.35    2.27
  -4 -13  -1   90.04    3.51
  -4 -13  -1   89.68    5.14
   4 -13   2    3.64    1.80
   4 -13   2    2.92    2.88
   4  13   2    4.35    1.38
  -4 -13  -2    2.90    1.56
  -4 -13  -2    5.78    1.55
   4 -13   3    5.46    3.15
   4 -13   3    5.87    2.04
  -4 -13  -3    7.96    1.75
  -4 -13  -3    9.42    1.74
   4 -13   4   -1.22    1.56
   4 -13   4   -0.35    0.99
   4 -13   4    0.12    0.24
  -4 -13  -4    0.37    1.38
  -4 -13  -4   -0.74    0.88
   4 -13   5    0.80    1.52
   4 -13   5   -1.71    0.86
   4 -13   5    0.15    0.18
  -4 -13  -5    0.08    0.84
  -4 -13  -5   -1.61    0.81
   4 -13   6   48.10    4.92
  -4 -13  -6   49.79    2.89
   4 -13   7    2.42    0.78
   4 -13   7    4.58    2.84
  -4 -13  -7    3.11    2.66
   4 -13   8   15.12    2.52
  -4 -13  -8   14.46    3.68
   4 -13   9    5.88    2.13
  -4 -13  -9    6.26    3.22
   4 -13  10    3.05    1.93
  -4 -13 -10    0.08    2.83
  -4 -13 -11    2.22    2.86
   4 -14 -12   -0.13    2.51
   4  14 -12    0.85    2.02
  -4  14  12    0.08    1.18
  -4  14  12    0.24    1.91
  -4 -14  12    1.09    3.71
   4 -14 -11    0.60    2.75
   4  14 -11    0.19    2.29
  -4  14  11   -1.23    3.47
  -4  14  11   -1.59    1.24
  -4 -14  11   -1.49    2.44
   4  14 -10   10.07    2.98
   4 -14 -10   -0.41    3.69
  -4  14  10    8.17    1.64
  -4  14  10   10.72    2.85
  -4 -14  10   11.10    3.14
   4 -14  -9    3.25    2.75
   4  14  -9    3.08    2.43
  -4  14   9    3.50    1.16
  -4  14   9    0.77    2.26
  -4 -14   9    0.87    2.49
   4  14  -8    0.23    1.84
   4 -14  -8    1.04    2.31
  -4  14   8    0.84    0.87
  -4 -14   8    0.55    1.91
   4 -14  -7   38.72    4.19
  -4  14   7   31.88    2.55
  -4 -14   7   42.60    5.65
   4 -14  -6   -0.46    1.92
  -4  14   6   -0.43    0.99
  -4 -14   6   -0.32    1.61
   4 -14  -5   92.59    7.55
  -4  14   5   77.47    2.11
  -4 -14   5   82.57    4.25
   4 -14  -4    3.84    2.43
  -4  14   4    4.01    0.96
  -4 -14   4    2.90    1.95
   4 -14  -3    6.01    2.48
   4  14  -3    7.33    0.55
  -4  14   3    6.33    0.88
  -4 -14   3    5.39    2.09
   4 -14  -2    5.16    2.27
  -4 -14   2    5.02    1.91
   4 -14  -1   11.53    2.46
   4 -14  -1   10.73    2.61
  -4 -14   1   11.91    2.22
  -4 -14   1   16.15    2.16
   4 -14   0    0.41    1.26
   4 -14   0    0.28    1.21
   4  14   0    0.14    0.40
  -4 -14   0   -0.99    1.78
  -4 -14   0   -0.39    1.05
   4 -14   1   -0.40    1.37
   4 -14   1    0.12    1.36
   4  14   1    0.14    0.81
  -4 -14  -1    0.26    1.20
  -4 -14  -1   -1.67    1.15
   4 -14   2   26.90    2.92
   4 -14   2   29.79    4.53
   4  14   2   24.72    1.41
  -4 -14  -2   24.95    2.50
  -4 -14  -2   29.44    2.44
   4 -14   3   15.68    2.53
   4 -14   3   17.13    2.52
   4  14   3   16.77    1.30
  -4 -14  -3   12.67    3.46
  -4 -14  -3   17.35    2.18
   4 -14   4    0.09    1.38
   4 -14   4    0.32    2.25
  -4 -14  -4    0.92    1.23
  -4 -14  -4    0.20    1.24
   4 -14   5   40.84    3.16
   4 -14   5   44.65    5.02
  -4 -14  -5   44.26    2.90
  -4 -14  -5   39.12    2.89
   4 -14   6   17.02    4.05
  -4 -14  -6   16.98    2.32
  -4 -14  -6   16.09    2.28
   4 -14   7    0.01    1.23
  -4 -14  -7    0.09    1.08
   4 -14   8    3.88    2.05
  -4 -14  -8    3.38    1.88
   4 -14   9    6.06    2.13
  -4 -14  -9    1.74    1.97
   4 -14  10   20.77    3.18
  -4 -14 -10   19.67    2.88
   4 -15 -11    0.06    7.13
   4  15 -11   10.02    3.46
  -4  15  11   10.59    1.79
  -4  15  11   11.47    3.20
  -4 -15  11   10.44    3.74
   4 -15 -10    0.22    3.29
   4  15 -10    5.65    2.71
  -4  15  10    2.53    1.32
  -4  15  10    3.07    2.52
  -4 -15  10    4.50    2.83
   4 -15  -9   19.30    4.16
  -4  15   9   17.61    1.71
  -4 -15   9   20.94    5.87
   4 -15  -8    3.59    4.39
  -4  15   8    1.04    1.49
  -4 -15   8    2.14    2.25
   4 -15  -7    1.37    2.35
  -4  15   7    1.03    0.77
  -4 -15   7   -0.19    2.00
   4 -15  -6    8.46    2.94
  -4  15   6    5.83    0.90
  -4 -15   6    8.51    2.56
   4 -15  -5    1.46    3.17
  -4  15   5    0.47    0.49
  -4 -15   5   -0.60    1.64
   4 -15  -4   -0.75    1.54
  -4  15   4    0.21    0.55
  -4 -15   4   -1.35    1.34
   4 -15  -3    9.84    2.78
  -4  15   3    8.99    0.57
  -4 -15   3   12.58    2.39
   4 -15  -2   12.40    2.54
   4 -15  -2   10.77    4.40
   4  15  -2    9.79    0.91
  -4 -15   2    8.77    2.21
  -4 -15   2    9.51    2.37
   4 -15  -1   55.92    5.79
   4 -15  -1   63.58    3.97
  -4 -15   1   56.08    3.50
  -4 -15   1   61.17    5.37
   4 -15   0    0.30    1.54
   4 -15   0   -0.88    1.52
   4  15   0   -0.42    0.29
  -4 -15   0    1.64    1.36
  -4 -15   0   -0.63    1.28
   4 -15   1   13.63    4.26
   4 -15   1   15.11    2.60
   4  15   1   11.78    0.93
  -4 -15  -1   17.12    2.34
  -4 -15  -1   15.08    2.23
   4 -15   2   11.16    2.45
   4 -15   2    6.74    2.44
   4  15   2   10.60    1.03
  -4 -15  -2   12.23    2.18
  -4 -15  -2   10.58    2.09
   4 -15   3   19.58    2.73
   4 -15   3   20.13    2.63
   4  15   3   15.09    1.93
  -4 -15  -3   15.77    2.39
  -4 -15  -3   16.32    2.29
   4 -15   4    0.30    1.41
   4 -15   4    2.15    1.40
  -4 -15  -4   -0.21    1.25
  -4 -15  -4   -0.84    1.25
   4 -15   5    8.70    3.60
   4 -15   5    0.06    2.14
  -4 -15  -5    9.27    2.00
  -4 -15  -5    7.14    2.01
   4 -15   6    9.65    3.76
   4 -15   6    0.18    2.26
  -4 -15  -6   10.62    2.10
  -4 -15  -6    8.64    2.11
   4 -15   7    0.33    1.61
  -4 -15  -7   -1.34    1.41
  -4 -15  -7   -0.24    1.44
   4 -15   8    8.07    2.30
  -4 -15  -8   -0.03    2.05
  -4 -15  -9    0.07    1.35
   4 -16 -10    0.08    2.57
  -4  16  10    0.34    0.95
  -4 -16  10    0.14    2.22
   4 -16  -9   12.36    4.09
  -4  16   9   11.69    1.49
  -4 -16   9   10.03    5.80
   4 -16  -8    9.43    6.21
  -4  16   8   10.07    1.33
  -4 -16   8   11.54    3.27
   4 -16  -7   23.60    4.09
  -4  16   7   16.82    1.32
  -4 -16   7   19.69    3.52
   4 -16  -6    1.65    2.28
  -4  16   6    0.84    0.64
  -4 -16   6    0.23    1.99
   4 -16  -5   42.55    6.62
  -4  16   5   30.70    1.69
  -4 -16   5   33.60    3.78
   4 -16  -4    7.94    2.94
  -4 -16   4    7.34    2.57
   4 -16  -3   33.62    3.75
  -4 -16   3   32.00    3.41
   4 -16  -2    9.27    2.48
  -4 -16   2    7.51    2.22
  -4 -16   2    0.05    2.12
   4 -16  -1    1.91    2.11
   4 -16  -1    1.88    2.12
  -4 -16   1    0.72    2.99
  -4 -16   1    2.89    1.77
   4 -16   0    0.47    2.95
   4 -16   0    1.27    1.78
   4  16   0    0.71    0.44
  -4 -16   0   -0.27    1.59
  -4 -16   0    2.27    1.53
   4 -16   1    4.69    2.39
   4 -16   1    3.80    2.32
  -4 -16  -1    6.51    2.16
  -4 -16  -1    5.30    3.29
   4  16   2    6.31    1.38
   4 -16   2    8.79    2.51
   4 -16   2    8.43    2.42
  -4 -16  -2    7.13    2.23
  -4 -16  -2    7.18    3.44
   4 -16   3    3.19    2.99
   4 -16   3    0.97    1.88
   4  16   3    1.40    0.75
  -4 -16  -3    0.69    1.66
  -4 -16  -3    0.71    1.56
   4 -16   4    4.92    2.15
   4 -16   4    5.25    2.29
   4  16   4    4.85    1.03
  -4 -16  -4    4.62    3.18
  -4 -16  -4    0.25    1.95
   4 -16   5    0.18    3.57
   4 -16   5    6.07    3.56
  -4 -16  -5   -0.24    1.99
  -4 -16  -5    8.02    2.02
   4 -16   6    2.83    2.99
   4 -16   6   -0.02    1.74
  -4 -16  -6    0.09    1.63
  -4 -16  -6    2.73    2.52
   4 -16   7   20.40    3.16
   4 -16   7   19.31    2.98
  -4 -16  -7   19.08    2.87
  -4 -16  -7   17.97    2.77
   4 -17  -8   -0.64    4.17
  -4 -17   8   -0.36    2.19
   4 -17  -7   -0.10    2.41
  -4 -17   7    0.69    2.03
   4 -17  -6    1.31    2.35
  -4 -17   6    0.11    2.14
   4 -17  -5   -0.49    3.81
  -4 -17   5    0.95    1.99
   4 -17  -4   36.73    4.28
  -4 -17   4   30.29    5.90
   4 -17  -3    6.98    2.71
   4 -17  -3    6.27    2.73
  -4 -17   3    0.18    2.25
  -4 -17   3    5.60    2.42
   4 -17  -2    0.75    2.38
   4 -17  -2    4.28    3.75
  -4 -17   2    0.31    3.28
  -4 -17   2    3.71    2.10
   4 -17  -1   11.81    2.95
   4 -17  -1    7.61    2.89
  -4 -17   1   10.34    4.14
  -4 -17   1   10.67    2.49
   4 -17   0    1.31    2.57
   4 -17   0   -1.47    1.60
  -4 -17   0   -0.19    1.34
  -4 -17   0    1.29    1.39
   4 -17   1   29.66    3.76
   4 -17   1   34.41    3.67
  -4 -17  -1   34.14    5.27
  -4 -17  -1   33.51    3.20
   4 -17   2   17.61    3.41
   4 -17   2   19.22    3.26
  -4 -17  -2   23.91    3.07
  -4 -17  -2   24.23    2.82
   4 -17   3   39.89    3.75
   4 -17   3   36.80    3.87
  -4 -17  -3   35.25    5.25
  -4 -17  -3   38.87    5.32
   4 -17   4    7.39    2.59
   4 -17   4    9.63    2.66
   4  17   4    6.33    1.12
  -4 -17  -4   12.32    2.37
  -4 -17  -4    0.20    2.31
   4 -17   5    0.47    1.94
   4 -17   5    2.35    2.03
   4  17   5    1.22    0.92
  -4 -17  -5    2.47    2.84
  -4 -17  -5   -0.01    1.80
   4 -17   6   -0.52    2.71
   4 -17   6   -0.04    2.60
  -4 -17  -6   -0.13    1.48
  -4 -17  -6   -0.19    1.43
   4 -18  -6    1.13    2.99
  -4 -18   6    2.66    2.59
   4 -18  -5   49.94    8.65
  -4 -18   5   50.67    4.68
   4 -18  -4    1.09    2.59
   4 -18  -4    3.36    2.42
  -4 -18   4    0.31    3.62
  -4 -18   4   -0.16    2.08
   4 -18  -3   15.87    3.40
   4 -18  -3   13.19    3.37
  -4 -18   3   -0.02    2.83
  -4 -18   3   13.48    3.13
   4 -18  -2   24.91    3.63
   4 -18  -2   15.37    3.54
  -4 -18   2   23.46    3.20
  -4 -18   2    0.33    3.02
   4 -18  -1    6.63    4.59
   4 -18  -1    5.17    2.95
  -4 -18   1    6.02    4.11
  -4 -18   1    7.01    2.63
   4 -18   0   33.33    4.11
   4 -18   0   36.00    4.07
  -4 -18   0   36.10    3.63
  -4 -18   0   32.74    3.45
   4 -18   1    2.15    2.57
   4 -18   1    2.80    2.50
  -4 -18  -1    3.24    2.15
  -4 -18  -1    3.30    2.22
   4 -18   2    0.17    3.45
   4 -18   2    0.91    2.17
  -4 -18  -2    0.40    1.93
  -4 -18  -2    2.09    1.87
   4 -18   3   -1.41    1.90
   4 -18   3    2.19    1.87
  -4 -18  -3    0.95    1.72
  -4 -18  -3   -0.10    1.68
  -5   0  17   -0.20    2.66
  -5   0  16   -0.01    1.89
   5   0 -15    1.04    1.99
  -5   0  15    0.03    2.24
  -5   0  15    0.22    2.54
  -5   0  14    0.25    2.37
  -5   0  14    2.89    2.74
  -5   0  13   -1.16    1.48
   5   0 -12    4.71    2.41
  -5   0  12    6.73    1.82
   5   0 -11    0.80    1.42
  -5   0  11   -0.08    1.06
  -5   0  11    0.04    1.68
  -5   0  10    8.15    1.62
  -5   0  10    8.02    2.64
   5   0  -9    0.71    1.37
  -5   0   9   -0.88    0.98
  -5   0   9   -0.46    1.58
   5   0  -8   27.45    2.51
  -5   0   8   23.26    2.86
  -5   0   8   25.37    1.91
   5   0  -7   -0.47    1.08
  -5   0   7    0.47    1.24
  -5   0   7   -1.04    1.34
   5   0  -6   29.24    1.81
   5   0  -6   27.80    1.98
  -5   0   6   26.80    2.61
  -5   0   6   24.41    2.20
   5   0  -5    0.36    0.76
   5   0  -5    0.50    1.42
  -5   0   5    0.49    1.20
  -5   0   5    0.15    0.88
   5   0  -4  185.66    4.94
   5   0  -4  194.15    5.11
  -5   0   4  192.80    4.05
  -5   0   4  185.88    5.13
   5   0  -3   -0.33    0.68
   5   0  -3    0.60    0.94
  -5   0   3    0.35    0.58
  -5   0   3    0.40    0.67
   5   0  -2  202.28    4.08
   5   0  -2  195.49    3.22
  -5   0   2  198.52    4.06
  -5   0   2  169.55    3.00
   5   0  -1    0.17    1.02
   5   0  -1    0.12    0.26
   5   0   0    5.10    1.01
   5   0   0    4.57    0.30
  -5   0   0    4.73    0.29
   5   0   1    0.69    0.77
   5   0   4  402.20    4.69
   5   0   5   -0.15    0.22
  -5   0  -5   -0.08    0.27
   5   0   6   45.87    1.60
  -5   0  -6   45.59    1.31
   5   0   7    0.43    0.42
  -5   0  -7    0.04    0.33
   5   0   8   57.66    1.62
  -5   0  -8   53.29    1.50
   5   0   9    0.11    0.46
  -5   0  -9   -0.12    0.39
   5   0  10   31.73    1.49
  -5   0 -10   27.64    1.38
   5   0  11   -0.29    1.19
  -5   0 -11   -0.47    0.65
   5   0  12    0.75    1.28
  -5   0 -12    0.78    0.79
   5   0  13   -0.37    0.60
  -5   0 -13    0.33    0.60
   5   0  14    2.18    1.05
  -5   0 -14    1.34    1.08
  -5  -1  18    0.14    1.52
  -5   1  18   -0.02    1.60
  -5  -1  17   -0.08    1.80
  -5  -1  17    3.32    2.56
  -5   1  17   -0.32    1.90
  -5  -1  16   -0.01    1.66
  -5   1  16   -0.39    1.77
  -5   1  16    3.46    2.37
  -5  -1  15    0.02    0.96
  -5   1  15   -0.03    1.00
  -5  -1  14    7.49    2.04
  -5  -1  14    0.06    2.89
  -5   1  14    6.42    3.31
   5   1 -13    0.52    1.57
  -5   1  13   -0.18    2.09
  -5  -1  13    1.36    1.90
  -5  -1  13   -0.23    1.19
   5  -1 -12   21.56    3.13
   5   1 -12   16.44    2.76
  -5  -1  12   16.61    2.19
  -5   1  12   15.65    2.23
  -5   1  12   14.14    3.35
   5   1 -11    2.71    1.95
   5  -1 -11    2.26    2.18
  -5  -1  11    4.42    2.38
  -5  -1  11    1.21    2.45
  -5   1  11    3.99    1.50
  -5   1  11    2.64    2.37
  -5  -1  10   15.81    3.17
  -5  -1  10   18.19    1.88
  -5   1  10   15.84    3.02
  -5   1  10   17.14    3.12
   5   1  -9    0.94    1.46
   5  -1  -9    2.45    1.70
  -5  -1   9    1.69    1.85
  -5   1   9    1.40    1.11
  -5   1   9   -1.29    1.82
  -5  -1   9    0.77    1.07
   5   1  -8  301.03    7.09
   5  -1  -8  310.26    7.56
  -5  -1   8  312.60    6.58
  -5   1   8  305.98    7.90
  -5   1   8  291.52    7.47
  -5  -1   8  298.84    7.62
   5   1  -7    1.38    1.24
   5  -1  -7    1.82    2.45
  -5  -1   7    1.82    1.01
  -5  -1   7    0.99    2.54
  -5   1   7    2.17    1.07
  -5   1   7    1.74    1.55
   5   1  -6    1.41    0.96
   5   1  -6    1.71    1.06
   5  -1  -6    0.58    1.26
  -5  -1   6    0.64    2.23
  -5  -1   6    0.78    0.91
  -5   1   6    2.21    0.95
  -5   1   6    2.38    2.19
   5   1  -5    1.15    0.88
   5   1  -5    1.04    0.83
   5  -1  -5    1.61    0.87
   5  -1  -5    1.76    1.04
  -5   1   5    0.53    0.84
  -5  -1   5    0.68    1.84
  -5  -1   5    1.03    0.86
  -5   1   5    0.36    1.02
   5   1  -4   95.51    3.39
   5  -1  -4   95.61    2.65
   5  -1  -4   93.97    3.91
   5   1  -4   94.99    2.61
  -5  -1   4   89.78    3.80
  -5  -1   4   91.77    2.58
  -5   1   4   92.11    3.67
  -5   1   4   96.70    3.57
   5   1  -3   97.88    2.14
   5   1  -3   94.82    3.56
   5  -1  -3   96.68    2.61
   5  -1  -3   94.14    2.47
  -5  -1   3   95.72    2.61
  -5  -1   3   95.47    2.34
  -5   1   3   99.07    2.57
  -5   1   3   95.81    3.09
   5   1  -2   93.70    1.78
   5  -1  -2   92.79    3.44
   5  -1  -2   92.97    2.09
   5   1  -2   90.75    2.50
  -5  -1   2   93.43    2.54
  -5  -1   2   88.12    2.13
  -5   1   2   92.00    3.42
  -5   1   2   90.99    1.77
   5   1  -1    1.51    0.47
   5   1  -1    1.50    0.83
   5  -1  -1    2.18    0.86
   5  -1  -1    1.40    0.81
  -5   1   1    0.66    0.82
   5   1   0  310.95    5.89
   5   1   0  311.33    3.79
   5  -1   0  292.00    4.25
   5  -1   0  305.58    6.76
  -5  -1   0  316.85    3.74
   5   1   1  148.21    4.50
   5  -1   1  151.16    1.80
   5  -1   1  144.43    1.79
   5  -1   1  148.57    3.39
   5  -1   2  165.91    3.71
   5  -1   3   78.76    0.95
   5  -1   3   82.33    1.09
   5  -1   4   35.74    0.98
   5   1   5   23.25    0.50
   5  -1   5   23.17    0.79
  -5  -1  -5   23.76    0.68
  -5   1  -5   23.05    0.87
   5   1   6   30.83    1.17
   5  -1   6   32.50    1.08
  -5  -1  -6   30.82    1.05
  -5   1  -6   32.13    1.23
   5   1   7    1.74    0.77
   5  -1   7    1.14    1.01
  -5  -1  -7    1.23    0.41
  -5   1  -7    0.54    0.69
   5  -1   8    4.43    0.87
   5   1   8    5.55    0.69
  -5  -1  -8    5.67    1.00
  -5   1  -8    4.70    1.05
   5   1   9    4.96    1.27
   5  -1   9    4.57    0.99
  -5  -1  -9    4.97    1.13
  -5   1  -9    5.49    0.78
   5   1  10    3.56    1.36
   5  -1  10    4.87    1.63
  -5  -1 -10    4.57    1.29
  -5   1 -10    4.04    0.86
   5   1  11    2.48    0.80
   5  -1  11    3.62    0.94
  -5   1 -11    1.82    0.83
  -5  -1 -11    0.00    0.77
   5   1  12   15.63    1.28
   5  -1  12   18.42    2.38
  -5  -1 -12   12.50    1.28
  -5   1 -12   13.79    1.39
   5   1  13    0.52    0.69
   5  -1  13   -0.64    0.78
  -5   1 -13    0.73    0.75
  -5  -1 -13    0.00    0.72
   5   1  14    5.59    1.20
   5  -1  14    5.07    1.34
  -5   1 -14    4.29    1.32
   5   2 -18    2.34    2.30
  -5  -2  18   -0.28    1.83
  -5   2  18   -0.26    2.01
  -5  -2  17    0.10    1.18
  -5   2  17   -0.11    1.26
  -5  -2  16    0.08    1.96
  -5  -2  16    9.06    2.82
  -5   2  16   -0.18    2.14
  -5   2  15   -0.09    2.04
  -5  -2  15    5.07    1.89
   5   2 -14    1.47    1.92
   5  -2 -14    1.72    2.13
  -5  -2  14    0.43    1.44
  -5   2  14    0.11    1.59
   5   2 -13    7.20    2.47
  -5  -2  13    4.88    3.08
  -5   2  13    5.04    3.28
  -5   2  13    5.14    2.81
  -5  -2  13    6.68    1.85
   5   2 -12    0.79    1.70
  -5  -2  12   -0.37    2.07
  -5   2  12    1.01    2.02
  -5   2  12    1.60    1.41
   5  -2 -11    0.98    1.88
  -5  -2  11    0.98    1.16
  -5   2  11    0.68    1.25
  -5   2  11   -0.38    1.89
  -5  -2  10   21.31    3.38
  -5   2  10   22.40    3.14
  -5   2  10   24.20    2.21
  -5  -2  10   22.40    1.97
   5   2  -9    1.39    2.26
   5  -2  -9    1.63    1.84
  -5  -2   9    1.47    1.88
  -5  -2   9    1.39    1.06
  -5   2   9    0.07    1.16
  -5   2   9    2.64    1.84
   5   2  -8   15.30    3.19
   5  -2  -8   17.37    2.60
  -5   2   8   16.08    1.71
  -5  -2   8   16.74    1.57
  -5  -2   8   16.82    4.25
  -5   2   8   14.60    2.60
   5   2  -7   11.01    2.65
   5  -2  -7   13.21    2.24
  -5  -2   7   11.15    1.37
  -5  -2   7   10.76    2.17
  -5   2   7   12.05    1.48
  -5   2   7   10.37    3.40
   5   2  -6    8.04    1.22
   5  -2  -6    6.84    1.81
   5   2  -6    6.68    1.32
  -5  -2   6    7.92    1.17
  -5  -2   6   10.52    1.76
  -5   2   6    7.75    1.27
  -5   2   6    7.74    1.62
   5   2  -5    3.95    1.04
   5   2  -5    5.23    1.72
   5  -2  -5    4.94    1.43
   5  -2  -5    5.56    1.12
  -5  -2   5    5.00    1.07
  -5  -2   5    4.06    1.34
  -5   2   5    2.81    2.17
  -5   2   5    4.42    1.08
   5   2  -4  415.15    7.53
   5  -2  -4  421.05    7.67
   5  -2  -4  424.56    7.76
   5   2  -4  415.83    8.11
  -5  -2   4  403.22    7.31
  -5  -2   4  416.57    7.54
  -5   2   4  417.60    7.61
  -5   2   4  414.04    7.12
   5   2  -3    0.14    0.74
   5   2  -3    0.76    0.86
   5  -2  -3    1.32    0.76
   5  -2  -3    0.68    0.81
  -5  -2   3    0.77    0.77
  -5  -2   3    0.24    1.13
  -5   2   3    0.30    1.08
  -5   2   3    0.62    0.75
   5   2  -2  101.24    2.62
   5  -2  -2   98.71    2.56
   5   2  -2   97.80    1.86
   5  -2  -2   97.71    2.25
  -5  -2   2   94.14    2.64
  -5  -2   2   97.83    2.61
  -5   2   2   98.36    1.93
  -5   2   2   96.96    2.56
   5   2  -1    0.77    0.47
   5   2  -1    1.04    0.78
   5  -2  -1    0.27    1.19
   5  -2  -1    0.64    0.53
  -5   2   1    0.82    0.74
   5   2   0    0.66    1.29
   5  -2   0    0.80    0.39
   5  -2   0    0.47    0.72
  -5  -2   0    0.77    0.38
   5  -2   1    0.63    0.45
   5  -2   1    0.36    0.22
   5  -2   1    1.01    1.11
   5   2   1    0.49    0.74
   5  -2   2   28.55    0.83
   5  -2   2   29.72    1.55
   5  -2   2   29.69    0.81
   5  -2   3   21.89    0.84
   5  -2   3   21.12    0.53
   5  -2   4  129.08    2.51
  -5  -2  -4  125.65    1.56
   5   2   5   35.11    0.66
   5  -2   5   34.75    1.70
  -5  -2  -5   33.27    0.67
   5  -2   6  100.16    3.03
   5   2   6   93.92    1.96
  -5  -2  -6   95.49    2.04
  -5   2  -6   93.78    1.88
   5   2   7    3.26    0.88
   5  -2   7    3.76    0.84
  -5  -2  -7    4.18    0.85
  -5   2  -7    4.19    0.95
   5   2   8   23.52    0.97
   5  -2   8   25.19    1.40
  -5  -2  -8   24.16    1.01
  -5   2  -8   23.27    1.12
   5   2   9    8.33    1.31
   5  -2   9    5.86    1.91
  -5  -2  -9    7.66    0.83
  -5   2  -9   10.47    1.39
   5   2  10   17.07    1.09
   5  -2  10   18.44    1.50
  -5  -2 -10   16.16    1.15
  -5   2 -10   14.56    1.24
   5   2  11    1.14    0.70
   5  -2  11    1.39    1.53
  -5  -2 -11   -0.02    1.16
  -5   2 -11    1.59    0.80
   5   2  12    7.85    1.06
   5  -2  12    6.88    1.36
  -5   2 -12    7.18    1.21
   5   2  13    3.77    0.95
   5  -2  13    2.08    1.17
  -5  -2 -13   -0.01    1.05
  -5   2 -13    4.32    1.10
   5   2  14   -0.15    0.74
   5  -2  14    0.23    0.92
  -5   2 -14    0.93    0.88
  -5  -3  18   -0.08    1.44
  -5   3  18    0.24    1.63
  -5  -3  17   -0.06    1.31
  -5   3  17   -0.03    1.50
  -5  -3  16   -0.06    1.25
  -5   3  16    0.22    1.45
   5   3 -15   -0.03    2.40
  -5  -3  15    3.54    1.78
  -5   3  15    2.49    2.03
   5   3 -14   13.06    2.94
  -5  -3  14   16.27    2.27
  -5   3  14   13.89    2.60
  -5   3  14   -0.10    3.23
   5   3 -13    1.74    1.67
   5  -3 -13    0.70    2.04
  -5  -3  13    0.25    2.06
  -5   3  13    0.06    1.92
  -5   3  13    0.08    1.48
  -5   3  12   34.95    4.33
  -5  -3  12   39.59    4.15
  -5  -3  12   34.04    2.50
  -5   3  12   29.75    3.70
   5  -3 -11   -0.70    1.90
  -5   3  11   -0.07    1.76
  -5   3  11   -1.12    1.22
  -5  -3  11    0.01    1.06
   5  -3 -10  149.66    5.95
  -5  -3  10  148.20    5.98
  -5  -3  10  142.38    5.50
  -5   3  10  143.49    4.45
  -5   3  10  133.38    5.50
   5   3  -9    7.34    2.99
   5  -3  -9    8.88    2.68
  -5   3   9    7.71    1.54
  -5  -3   9    7.16    2.54
  -5  -3   9    6.91    1.37
  -5   3   9    7.07    2.38
   5   3  -8    4.95    1.48
   5  -3  -8    4.65    2.20
  -5   3   8    3.99    1.30
  -5  -3   8    6.71    3.41
  -5   3   8    3.88    3.36
  -5  -3   8    3.14    1.16
   5   3  -7    2.14    1.17
   5  -3  -7    1.62    1.77
  -5  -3   7    2.74    0.97
  -5  -3   7    0.77    1.60
  -5   3   7    1.79    1.06
  -5   3   7    2.53    1.52
   5   3  -6    1.31    0.86
   5   3  -6    0.75    0.93
   5  -3  -6    1.51    2.35
  -5  -3   6    1.55    0.85
  -5  -3   6    1.47    1.24
  -5   3   6    0.52    0.89
  -5   3   6    0.45    1.20
   5   3  -5   10.57    1.17
   5   3  -5   10.65    1.19
   5  -3  -5    9.48    1.28
   5  -3  -5    9.07    1.77
  -5  -3   5   10.52    1.46
  -5  -3   5    8.29    1.12
  -5   3   5   10.89    1.43
  -5   3   5    9.54    1.22
   5   3  -4   13.94    1.73
   5   3  -4   15.51    1.26
   5  -3  -4   15.55    1.30
   5  -3  -4   14.69    1.62
  -5  -3   4   12.52    1.37
  -5  -3   4   14.66    1.24
  -5   3   4   13.57    1.33
  -5   3   4   14.58    1.27
   5   3  -3   65.27    2.41
   5   3  -3   65.94    2.08
   5  -3  -3   63.46    2.26
   5  -3  -3   69.88    2.10
  -5  -3   3   66.08    2.09
  -5  -3   3   65.16    2.79
  -5   3   3   67.12    1.88
  -5   3   3   65.85    2.92
   5   3  -2   60.85    1.44
   5   3  -2   61.63    2.85
   5  -3  -2   60.22    1.88
   5  -3  -2   59.35    2.82
  -5  -3   2   59.92    2.03
  -5  -3   2   60.52    1.56
  -5   3   2   59.74    1.94
  -5   3   2   60.82    1.57
   5   3  -1    8.62    1.15
   5  -3  -1    9.12    0.89
   5  -3  -1   10.96    1.08
   5   3  -1    9.47    0.56
  -5   3   1    9.89    1.06
  -5   3   1    9.41    1.17
   5   3   0  368.04    6.83
   5  -3   0  370.57    5.45
   5  -3   0  370.44    7.56
   5  -3   1    0.25    0.37
   5   3   1    1.80    0.79
   5  -3   1    0.86    0.70
   5  -3   1    0.63    0.33
  -5  -3  -1    0.86    0.32
  -5  -3  -1    0.65    0.31
   5  -3   2    5.65    0.47
   5  -3   2    5.63    0.98
   5  -3   2    5.43    0.49
  -5  -3  -2    4.87    0.39
  -5  -3  -2    5.51    0.30
   5  -3   3    1.09    0.55
   5  -3   3    0.59    0.32
  -5  -3  -3    0.22    0.21
  -5  -3  -3    0.39    0.19
   5  -3   4   99.33    2.31
  -5  -3  -4   95.78    1.46
   5  -3   5   29.10    1.62
  -5  -3  -5   26.18    0.76
   5   3   6   83.04    1.91
   5  -3   6   86.09    2.11
  -5  -3  -6   82.07    1.64
  -5   3  -6   82.26    1.86
   5   3   7    2.55    0.50
   5  -3   7    2.61    0.84
  -5  -3  -7    2.44    0.88
  -5   3  -7    1.96    0.61
   5   3   8    1.91    0.93
   5  -3   8    2.60    0.92
  -5  -3  -8    2.58    0.63
  -5   3  -8    1.94    0.70
   5   3   9   -0.24    0.40
   5  -3   9    0.69    0.62
  -5  -3  -9   -0.28    0.71
  -5   3  -9    0.62    0.81
   5   3  10   21.24    1.79
   5  -3  10   23.73    1.75
  -5   3 -10   19.36    1.40
  -5  -3 -10   21.60    1.30
   5   3  11    4.20    0.80
   5  -3  11    5.30    1.99
  -5  -3 -11    0.00    0.91
  -5   3 -11    3.60    0.99
   5   3  12    6.04    0.95
   5  -3  12    6.61    1.32
  -5   3 -12    5.98    1.18
  -5  -3 -12    0.00    1.07
   5   3  13    3.75    0.90
   5  -3  13    3.85    1.99
  -5  -3 -13    0.00    1.04
  -5   3 -13    2.38    1.77
   5   3  14    2.91    0.99
   5  -3  14    2.92    1.35
  -5  -3 -14   -0.02    1.80
  -5   3 -14    2.82    1.26
   5   4 -17    0.00    2.04
  -5  -4  17   -0.99    1.49
  -5  -4  17    1.59    2.47
  -5   4  17   -0.26    1.79
   5   4 -16   -1.85    2.94
  -5  -4  16    9.85    2.13
  -5   4  16   -0.28    3.02
  -5   4  16    7.31    2.49
   5   4 -15    0.18    1.92
   5  -4 -15   -0.02    2.22
  -5  -4  15   -0.06    2.19
  -5   4  15   -0.17    1.99
  -5   4  15    1.43    1.64
   5   4 -14   12.83    2.85
  -5   4  14    0.21    3.03
  -5  -4  14   12.44    3.27
  -5  -4  14    0.06    3.51
  -5   4  14   14.39    2.51
   5   4 -13   -0.91    2.50
   5  -4 -13   -0.68    1.93
  -5  -4  13    0.39    1.06
  -5   4  13    0.09    1.63
  -5   4  13    0.56    1.28
   5  -4 -12   16.20    3.54
  -5  -4  12   19.89    2.02
  -5  -4  12   15.25    3.66
  -5   4  12   17.90    3.73
  -5   4  12   14.70    3.12
   5   4 -11   17.99    4.19
   5  -4 -11   21.58    3.68
  -5  -4  11   19.17    3.50
  -5   4  11   20.98    2.27
  -5   4  11   17.36    3.08
  -5  -4  11   16.86    3.04
   5   4 -10   15.78    3.70
   5  -4 -10   14.02    3.21
  -5  -4  10   13.36    1.66
  -5  -4  10   14.40    5.25
  -5   4  10   12.81    2.74
  -5   4  10   13.94    1.92
   5   4  -9   61.24    3.15
   5  -4  -9   61.26    4.41
  -5  -4   9   67.97    3.67
  -5  -4   9   65.74    4.03
  -5   4   9   63.46    4.17
  -5   4   9   63.56    3.88
   5  -4  -8  176.68    6.02
   5   4  -8  170.65    4.73
  -5  -4   8  170.79    4.11
  -5  -4   8  172.53    7.86
  -5   4   8  172.04    4.42
  -5   4   8  168.49    7.69
   5   4  -7    2.05    1.11
   5  -4  -7    0.35    1.73
  -5   4   7    1.26    1.42
  -5  -4   7    0.55    1.45
  -5   4   7    0.64    0.98
  -5  -4   7    1.13    0.89
   5   4  -6   85.42    3.95
   5   4  -6   86.23    2.57
   5  -4  -6   86.51    3.70
  -5  -4   6   86.14    4.80
  -5   4   6   84.89    2.68
  -5   4   6   84.29    4.77
  -5  -4   6   87.37    2.54
   5   4  -5    6.26    1.04
   5   4  -5    5.42    1.12
   5  -4  -5    4.74    2.89
  -5  -4   5    6.36    1.37
  -5  -4   5    5.98    1.02
  -5   4   5    8.14    1.13
  -5   4   5    6.12    1.38
   5   4  -4    3.68    0.90
   5   4  -4    3.99    0.92
   5  -4  -4    4.73    1.01
   5  -4  -4    4.45    1.39
  -5  -4   4    2.77    1.77
  -5   4   4    4.27    1.12
  -5   4   4    4.86    0.97
  -5  -4   4    4.36    0.94
   5  -4  -3    2.65    0.81
   5   4  -3    1.50    0.68
   5   4  -3    1.50    0.80
   5  -4  -3    1.74    1.03
  -5  -4   3    1.24    0.80
  -5   4   3    1.52    1.29
  -5   4   3    0.79    1.35
  -5  -4   3    2.03    0.78
   5  -4  -2    9.29    1.02
   5   4  -2    7.65    0.75
   5   4  -2    8.06    1.07
   5  -4  -2    6.67    1.90
  -5   4   2    8.84    1.02
  -5   4   2    7.89    0.93
  -5  -4   2    7.54    0.81
   5   4  -1   33.80    1.46
   5   4  -1   35.69    1.60
   5  -4  -1   34.79    1.39
   5  -4  -1   34.28    1.47
  -5  -4   1   34.91    1.03
  -5   4   1   32.28    1.44
  -5   4   1   34.01    1.24
   5  -4   0  112.99    3.03
   5   4   0  107.50    2.78
   5  -4   0  105.94    2.56
   5   4   1    3.75    1.06
   5  -4   1    4.99    1.38
   5  -4   1    5.46    0.59
   5  -4   1    4.92    0.65
  -5  -4  -1    3.99    0.42
   5  -4   2   56.01    1.81
   5  -4   2   55.73    1.87
   5  -4   2   56.91    1.36
  -5  -4  -2   55.24    1.18
  -5  -4  -2   55.39    1.41
   5  -4   3   11.95    1.23
   5  -4   3   14.10    1.19
   5  -4   3   12.99    0.81
  -5  -4  -3   13.71    0.62
  -5  -4  -3   13.10    0.68
   5  -4   4  165.80    3.60
  -5  -4  -4  162.15    2.65
   5  -4   5    9.00    1.31
  -5  -4  -5    8.35    0.73
   5   4   6   73.24    1.49
   5  -4   6   75.91    2.07
  -5  -4  -6   73.40    1.80
   5   4   7   13.43    1.18
   5  -4   7   10.50    1.87
  -5  -4  -7   11.14    0.92
  -5   4  -7    9.11    1.44
   5  -4   8   41.00    1.85
   5   4   8   37.67    1.20
  -5  -4  -8   38.45    1.47
  -5   4  -8   39.63    1.58
   5   4   9    2.56    0.65
   5  -4   9    2.69    1.70
  -5  -4  -9    3.04    0.80
  -5   4  -9    1.28    1.32
   5   4  10   29.65    1.94
   5  -4  10   33.49    3.34
  -5   4 -10   27.76    1.68
  -5  -4 -10   30.14    2.25
   5   4  11    3.98    1.30
   5  -4  11    4.88    1.29
  -5  -4 -11   -0.02    0.95
  -5   4 -11    4.49    1.03
   5   4  12   -0.49    0.62
   5  -4  12   -0.27    0.96
  -5  -4 -12   -0.02    0.72
  -5   4 -12    0.12    1.29
   5   4  13    0.55    0.71
   5  -4  13    1.72    1.73
  -5  -4 -13    0.00    0.88
  -5   4 -13    1.29    1.52
   5   4  14    0.09    0.56
   5  -4  14   -0.79    0.83
  -5  -4 -14   -0.01    0.68
  -5   4 -14    1.05    1.18
   5   5 -17   -2.17    2.07
  -5  -5  17    1.01    1.47
  -5  -5  17    1.50    2.54
  -5   5  17   -0.35    2.18
  -5   5  17    1.01    1.84
   5   5 -16    1.41    3.64
   5  -5 -16   -0.12    4.29
  -5  -5  16   22.20    2.56
  -5  -5  16    0.59    4.46
  -5   5  16   25.10    3.58
  -5   5  16   23.26    3.19
   5   5 -15    0.16    4.45
   5  -5 -15    0.25    3.36
  -5  -5  15   -0.13    3.42
  -5   5  15    0.56    2.85
  -5   5  15    9.45    2.41
  -5  -5  15   10.55    1.94
   5   5 -14    0.38    2.76
   5  -5 -14    0.44    2.17
  -5   5  14    0.06    1.80
   5   5 -13   30.44    3.46
   5  -5 -13   29.55    4.38
  -5  -5  13   32.63    2.44
  -5  -5  13   29.98    4.25
  -5   5  13   27.16    3.50
  -5   5  13   32.01    2.94
   5   5 -12   52.10    3.77
   5  -5 -12   59.07    4.88
  -5  -5  12   54.49    4.73
  -5   5  12   55.60    4.93
  -5   5  12   46.36    4.02
  -5  -5  12   52.95    4.09
   5   5 -11   31.34    2.97
   5  -5 -11   33.52    4.00
  -5  -5  11   28.40    2.12
  -5  -5  11   29.49    3.79
  -5   5  11   24.66    2.53
  -5   5  11   28.66    3.18
   5   5 -10    1.35    2.59
   5  -5 -10    3.93    2.38
  -5  -5  10    0.00    1.76
  -5  -5  10    0.76    2.19
  -5   5  10    3.16    1.94
  -5   5  10    2.39    1.37
   5   5  -9   -0.72    1.00
   5  -5  -9    0.36    2.48
  -5  -5   9    0.28    0.68
  -5  -5   9    0.68    1.29
  -5   5   9   -2.93    1.37
  -5   5   9    1.39    1.26
   5   5  -8   30.65    2.23
   5  -5  -8   30.59    3.49
  -5  -5   8   31.06    2.99
  -5   5   8   29.61    1.99
  -5   5   8   28.06    2.77
  -5  -5   8   32.02    1.79
   5   5  -7    0.49    1.08
   5  -5  -7    0.26    1.72
  -5  -5   7    1.01    0.82
  -5  -5   7    1.10    1.38
  -5   5   7    1.27    1.38
  -5   5   7    0.80    0.93
   5   5  -6    4.69    1.24
   5   5  -6    5.25    1.06
   5  -5  -6    5.29    1.94
  -5  -5   6    4.23    1.00
  -5  -5   6    4.00    2.49
  -5   5   6    4.28    1.12
  -5   5   6    5.78    1.56
   5   5  -5   49.14    2.96
   5   5  -5   45.84    1.78
   5  -5  -5   48.63    4.67
  -5  -5   5   48.28    2.29
  -5   5   5   44.03    3.73
  -5   5   5   45.77    1.91
  -5  -5   5   48.17    1.80
   5   5  -4   99.65    3.52
   5   5  -4   95.89    2.53
   5  -5  -4   96.03    2.66
   5  -5  -4  101.13    3.38
  -5  -5   4   98.06    2.55
  -5  -5   4   98.78    2.75
  -5   5   4   96.89    4.14
  -5   5   4   96.18    2.58
   5   5  -3   10.32    1.02
   5   5  -3   13.11    1.12
   5  -5  -3   10.55    2.60
   5  -5  -3   11.36    1.77
  -5  -5   3   11.29    1.08
  -5  -5   3   10.83    1.11
  -5   5   3    9.29    1.25
  -5   5   3   12.34    1.71
   5   5  -2    9.00    1.30
   5   5  -2    8.22    1.01
   5  -5  -2    8.91    2.01
   5  -5  -2    7.37    0.98
  -5  -5   2    6.86    0.87
  -5   5   2    8.31    0.96
  -5   5   2    6.26    1.06
   5   5  -1   52.12    1.85
   5  -5  -1   50.65    1.80
   5  -5  -1   50.90    1.67
  -5  -5   1   49.21    1.41
  -5   5   1   51.00    1.66
   5   5   0  134.06    3.16
   5  -5   0  134.08    2.75
   5  -5   0  132.96    2.91
  -5  -5   0  133.34    2.40
   5  -5   1    7.17    1.20
   5  -5   1    6.47    0.90
   5  -5   1    7.27    0.87
   5   5   1    5.80    1.12
  -5  -5  -1    7.09    1.01
   5  -5   2   76.71    1.90
   5  -5   2   76.46    2.66
   5  -5   2   75.97    2.13
  -5  -5  -2   77.05    2.11
   5  -5   3   19.35    1.02
   5  -5   3   20.97    2.02
   5  -5   3   20.27    1.11
  -5  -5  -3   19.79    0.90
   5  -5   4   63.49    2.41
  -5  -5  -4   60.06    2.19
   5  -5   5   65.47    1.87
  -5  -5  -5   59.14    2.32
   5  -5   6   37.63    1.60
  -5  -5  -6   36.73    1.46
   5   5   7    9.35    0.78
   5  -5   7   10.74    1.19
  -5  -5  -7    7.56    1.62
   5   5   8    1.49    0.61
   5  -5   8    1.89    1.66
  -5  -5  -8    3.50    1.34
  -5   5  -8    2.40    0.81
   5   5   9    8.90    0.86
   5  -5   9    6.45    2.25
  -5  -5  -9    8.86    1.69
  -5   5  -9    6.25    1.15
   5  -5  10    1.81    2.17
   5   5  10    2.67    0.72
  -5  -5 -10    2.33    0.93
  -5   5 -10    2.88    0.99
   5   5  11    2.39    1.23
   5  -5  11    1.98    1.31
  -5  -5 -11    1.99    0.94
  -5   5 -11    0.92    1.62
   5   5  12    9.43    1.07
   5  -5  12    8.70    1.76
  -5   5 -12    6.88    1.47
   5   5  13    0.45    0.71
   5  -5  13    0.62    1.17
  -5  -5 -13    0.00    0.90
  -5   5 -13    1.05    1.00
   5  -5  14    4.72    2.65
   5   5  14    4.72    1.02
  -5  -5 -14    0.01    1.30
  -5   5 -14    3.58    1.41
   5   6 -17    1.69    3.95
   5  -6 -17   -0.02    2.98
  -5  -6  17    0.77    1.63
  -5  -6  17    2.45    3.21
  -5   6  17    1.11    2.14
  -5   6  17    0.22    4.12
   5   6 -16   -0.17    1.86
   5  -6 -16   -0.27    2.15
  -5  -6  16   -0.14    1.18
  -5  -6  16   -0.22    2.32
  -5   6  16    0.09    3.11
  -5   6  16    0.04    1.55
   5  -6 -15   -0.55    3.91
   5   6 -15    0.14    3.16
  -5  -6  15   16.86    2.15
  -5  -6  15   17.17    6.75
  -5   6  15   14.70    2.71
  -5   6  15   -0.04    5.35
   5   6 -14   -0.09    1.77
   5  -6 -14    0.45    2.24
  -5  -6  14   -0.37    2.18
  -5   6  14   -0.03    3.11
  -5   6  14   -1.11    1.51
  -5  -6  14   -0.23    1.18
   5   6 -13    6.09    2.50
   5  -6 -13    6.90    3.38
  -5  -6  13    7.08    1.65
  -5  -6  13    7.13    5.00
  -5   6  13    0.00    4.41
  -5   6  13    7.35    2.16
   5   6 -12    4.34    2.11
   5  -6 -12    4.61    5.08
  -5  -6  12    4.43    1.40
  -5  -6  12    4.46    2.73
  -5   6  12    0.02    3.94
  -5   6  12    4.67    2.89
   5   6 -11   12.38    2.46
   5  -6 -11   14.44    3.53
  -5  -6  11   11.95    5.07
  -5  -6  11   14.35    2.62
  -5   6  11   13.42    2.73
  -5   6  11   14.94    2.07
   5   6 -10   25.68    4.10
   5  -6 -10   26.55    3.84
  -5  -6  10   24.36    1.82
  -5  -6  10   28.33    3.40
  -5   6  10   23.61    2.20
  -5   6  10   22.16    3.00
   5   6  -9  108.35    4.15
   5  -6  -9  116.69    5.66
  -5  -6   9  120.56    7.51
  -5   6   9  115.72    3.66
  -5   6   9  113.43    4.71
  -5  -6   9  118.51    4.46
   5   6  -8   48.51    2.74
   5  -6  -8   51.01    3.99
  -5  -6   8   52.27    3.06
  -5  -6   8   53.54    3.40
  -5   6   8   49.16    3.21
  -5   6   8   50.48    2.42
   5   6  -7    2.43    2.05
   5  -6  -7    3.48    2.06
  -5  -6   7    1.60    0.93
  -5  -6   7    3.08    1.58
  -5   6   7    2.93    1.10
  -5   6   7    2.65    1.63
   5   6  -6   24.18    1.52
   5   6  -6   26.46    1.88
   5  -6  -6   26.81    4.88
  -5  -6   6   26.70    2.26
  -5  -6   6   25.93    2.20
  -5   6   6   24.88    2.27
  -5   6   6   25.60    1.62
   5   6  -5    0.97    0.66
   5   6  -5   -0.16    0.82
   5  -6  -5    0.58    1.37
  -5  -6   5    0.91    0.66
  -5  -6   5    0.47    0.98
  -5   6   5   -0.30    1.79
  -5   6   5    0.02    0.73
   5   6  -4  217.65    4.64
   5   6  -4  212.41    4.29
   5  -6  -4  221.13    5.41
  -5  -6   4  217.75    4.31
  -5  -6   4  215.79    4.74
  -5   6   4  214.32    4.35
  -5   6   4  212.18    6.31
   5   6  -3   59.30    1.97
   5   6  -3   59.55    1.94
   5  -6  -3   58.83    1.95
   5  -6  -3   60.47    2.69
  -5  -6   3   59.81    2.06
  -5   6   3   58.52    2.27
  -5   6   3   61.35    2.65
   5   6  -2  134.39    3.76
   5   6  -2  135.74    3.07
   5  -6  -2  134.37    3.00
   5  -6  -2  137.82    5.03
  -5  -6   2  134.54    3.02
  -5   6   2  137.98    3.02
  -5   6   2  138.05    3.22
   5   6  -1   42.42    1.70
   5  -6  -1   40.06    1.52
   5  -6  -1   40.84    2.92
  -5  -6   1   42.77    1.47
  -5   6   1   41.71    1.50
   5   6   0   17.80    1.36
   5  -6   0   19.19    1.36
   5  -6   0   18.39    1.72
  -5  -6   0   17.58    0.97
   5   6   1   45.37    1.91
   5  -6   1   45.86    1.74
   5  -6   1   43.74    1.57
   5  -6   1   45.05    2.32
  -5  -6  -1   44.77    1.74
  -5  -6  -1   46.35    1.37
   5  -6   2   13.72    1.71
   5  -6   2   13.59    1.95
   5  -6   2   16.77    1.69
  -5  -6  -2   14.87    0.95
  -5  -6  -2   15.81    0.79
   5  -6   3   46.71    1.75
   5  -6   3   46.78    2.30
   5  -6   3   47.85    1.70
  -5  -6  -3   48.87    1.24
  -5  -6  -3   43.29    2.12
   5  -6   4   38.88    2.26
   5  -6   4   38.00    1.68
  -5  -6  -4   38.22    1.40
   5  -6   5   28.19    1.43
  -5  -6  -5   25.70    1.33
   5  -6   6    2.30    0.89
  -5  -6  -6    1.95    1.32
   5  -6   7    4.38    1.02
  -5  -6  -7    2.42    0.93
   5   6   8   53.78    1.58
   5  -6   8   55.95    2.31
  -5  -6  -8   54.77    2.08
   5   6   9    7.28    0.83
   5  -6   9    5.05    2.27
  -5  -6  -9    6.32    1.16
  -5   6  -9    5.33    1.17
   5   6  10    5.79    0.86
   5  -6  10    7.03    2.60
  -5  -6 -10    5.58    1.19
  -5   6 -10    5.38    1.94
   5   6  11    1.81    1.05
   5  -6  11   -0.81    1.14
  -5  -6 -11    0.15    0.84
  -5   6 -11    0.81    0.94
   5   6  12    3.43    0.86
   5  -6  12    0.76    1.47
  -5  -6 -12    1.21    1.09
  -5   6 -12    2.53    1.22
   5   6  13    3.72    1.00
   5  -6  13    3.30    1.70
  -5  -6 -13    4.34    2.00
  -5   6 -13    5.03    1.44
   5  -7 -17   -0.29    4.34
   5   7 -17   -0.14    3.65
  -5  -7  17   16.49    3.62
  -5  -7  17   14.09    4.70
  -5   7  17   -0.32    3.54
  -5   7  17   16.91    3.07
   5   7 -16   27.90    3.92
   5  -7 -16   -0.50    4.75
  -5  -7  16   25.30    8.36
  -5  -7  16   26.99    3.88
  -5   7  16    0.33    3.83
  -5   7  16   26.88    3.39
   5   7 -15   17.44    3.40
   5  -7 -15    0.34    4.22
  -5  -7  15   18.51    2.18
  -5  -7  15   15.23    4.28
  -5   7  15    0.04    3.38
  -5   7  15   14.71    2.88
   5   7 -14    7.66    2.66
   5  -7 -14    0.12    3.49
  -5  -7  14    6.63    1.64
  -5  -7  14    5.70    5.40
  -5   7  14    6.41    2.24
  -5   7  14   -0.06    2.69
   5   7 -13   18.96    3.34
   5  -7 -13   25.44    4.47
  -5  -7  13   26.80    2.15
  -5  -7  13   24.44    3.96
  -5   7  13   27.76    3.48
  -5   7  13   21.29    4.33
   5   7 -12    1.93    1.98
   5  -7 -12    3.26    2.74
  -5  -7  12    3.33    4.11
  -5   7  12   -0.04    2.05
  -5   7  12    1.45    1.63
  -5  -7  12    4.18    1.97
   5   7 -11   10.25    2.40
   5  -7 -11   12.05    5.46
  -5  -7  11   11.36    1.56
  -5  -7  11    8.73    3.02
  -5   7  11   10.83    4.30
  -5   7  11   10.00    1.99
   5   7 -10   11.80    2.30
   5  -7 -10   10.64    3.34
  -5  -7  10   14.74    2.34
  -5  -7  10   12.86    2.84
  -5   7  10   10.49    2.52
  -5   7  10   12.30    1.87
   5  -7  -9   13.56    3.27
   5   7  -9   15.37    2.17
  -5  -7   9   12.78    2.68
  -5  -7   9   16.52    1.44
  -5   7   9   13.81    2.60
  -5   7   9   13.34    1.81
   5   7  -8   28.96    2.53
   5  -7  -8   35.22    6.07
  -5  -7   8   33.74    2.98
  -5  -7   8   35.97    1.74
  -5   7   8   34.02    4.76
  -5   7   8   35.52    2.11
   5   7  -7   40.24    3.73
   5  -7  -7   44.07    3.69
  -5  -7   7   44.65    1.79
  -5   7   7   41.42    2.10
  -5   7   7   43.63    2.86
  -5  -7   7   42.22    4.48
   5   7  -6    0.35    1.13
   5   7  -6    1.71    0.82
   5  -7  -6    1.12    1.84
  -5  -7   6    2.38    1.31
  -5  -7   6    1.85    0.79
  -5   7   6    1.79    0.92
  -5   7   6    0.86    1.40
   5   7  -5   70.50    2.94
   5   7  -5   68.36    2.59
   5  -7  -5   63.23    3.55
  -5  -7   5   67.94    2.83
  -5  -7   5   68.63    2.79
  -5   7   5   68.44    2.21
  -5   7   5   63.69    4.60
   5   7  -4   78.99    2.61
   5   7  -4   77.27    2.20
   5  -7  -4   79.14    3.49
  -5  -7   4   78.63    2.17
  -5  -7   4   79.26    2.71
  -5   7   4   75.60    2.22
  -5   7   4   77.51    4.43
   5   7  -3   19.23    1.24
   5   7  -3   18.44    1.38
   5  -7  -3   21.01    2.08
   5  -7  -3   17.66    1.28
  -5  -7   3   18.93    1.51
  -5   7   3   20.13    2.87
  -5   7   3   18.44    1.81
   5  -7  -2   36.85    2.20
   5  -7  -2   33.34    2.16
   5   7  -2   32.22    2.25
  -5  -7   2   34.44    2.48
  -5   7   2   36.63    1.43
   5   7  -1   37.21    1.64
   5  -7  -1   37.69    2.09
   5  -7  -1   38.17    1.45
  -5  -7   1   38.46    1.54
  -5   7   1   35.61    1.39
   5   7   0  152.05    4.50
   5  -7   0  150.78    3.90
   5  -7   0  154.88    3.64
  -5  -7   0  152.30    3.19
   5   7   1   11.35    1.26
   5  -7   1   10.60    1.19
   5  -7   1   11.38    1.00
   5  -7   1   12.72    2.25
  -5  -7  -1   11.10    0.93
  -5  -7  -1   11.03    1.01
   5  -7   2  119.21    3.43
   5  -7   2  120.04    3.90
   5  -7   2  118.22    2.95
  -5  -7  -2  119.52    3.20
  -5  -7  -2  119.49    3.46
   5  -7   3   58.47    1.99
   5  -7   3   58.85    2.06
   5  -7   3   56.26    1.85
  -5  -7  -3   61.70    2.66
  -5  -7  -3   58.32    1.66
   5  -7   4   20.08    1.41
   5  -7   4   21.85    1.33
  -5  -7  -4   22.16    1.07
  -5  -7  -4   21.57    2.09
   5  -7   5   69.97    3.28
   5  -7   5   72.61    2.29
  -5  -7  -5   69.61    3.06
   5  -7   6    6.87    1.13
  -5  -7  -6    4.82    1.04
   5  -7   7   37.54    2.01
  -5  -7  -7   38.51    2.77
   5  -7   8    0.44    1.46
  -5  -7  -8   -0.73    0.79
   5   7   9   25.25    1.29
   5  -7   9   26.06    2.99
  -5  -7  -9   22.37    1.74
   5   7  10    4.24    1.40
   5  -7  10    4.20    2.25
  -5  -7 -10    3.59    1.19
  -5   7 -10    3.68    1.23
   5   7  11   10.81    1.09
   5  -7  11    9.56    3.05
  -5  -7 -11    7.55    1.46
  -5   7 -11    8.52    1.56
   5   7  12    5.32    1.03
   5  -7  12    5.68    1.80
  -5  -7 -12    5.24    1.37
  -5   7 -12    5.51    2.34
   5   7  13    1.59    0.87
   5  -7  13    1.14    1.56
  -5   7 -13    2.10    2.00
  -5  -7 -13    1.28    1.90
   5   8 -16    5.51    2.80
   5  -8 -16   -0.02    3.58
  -5  -8  16    1.28    3.75
  -5  -8  16    4.54    1.67
  -5   8  16   -0.05    2.74
  -5   8  16    2.53    2.36
   5   8 -15   11.03    3.11
   5  -8 -15   -0.50    4.04
  -5  -8  15    9.52    1.87
  -5  -8  15   13.04    6.58
  -5   8  15   -0.13    3.08
  -5   8  15   11.97    2.59
   5   8 -14    0.46    1.89
   5  -8 -14   -0.15    2.49
  -5  -8  14    0.78    1.75
  -5  -8  14   -0.48    2.35
  -5   8  14   -0.04    1.87
  -5   8  14    1.86    2.48
   5   8 -13   24.86    3.44
   5  -8 -13   29.32    4.50
  -5  -8  13   25.56    6.49
  -5   8  13   21.43    4.43
  -5   8  13   23.04    3.45
  -5  -8  13   24.67    2.16
   5   8 -12   26.55    3.24
   5  -8 -12   25.86    7.14
  -5  -8  12   20.79    1.94
  -5  -8  12   24.40    3.72
  -5   8  12   20.79    3.10
  -5   8  12   23.11    2.56
   5   8 -11   35.25    3.30
   5  -8 -11   35.12    4.52
  -5  -8  11   39.60    3.14
  -5  -8  11   35.65    3.82
  -5   8  11   36.62    3.50
  -5   8  11   38.42    2.69
   5   8 -10    1.12    1.39
   5  -8 -10    0.33    1.99
  -5  -8  10    0.65    0.82
  -5  -8  10   -0.59    1.74
  -5   8  10   -0.06    2.52
  -5   8  10   -0.09    1.10
   5   8  -9  168.03    7.35
   5  -8  -9  177.29   10.40
  -5  -8   9  172.93    5.96
  -5  -8   9  172.23    4.15
  -5   8   9  163.48    5.47
  -5   8   9  167.60    4.72
   5   8  -8   79.27    3.55
   5  -8  -8   84.67    4.94
  -5  -8   8   86.12    6.00
  -5  -8   8   80.55    2.46
  -5   8   8   83.98    4.25
  -5   8   8   76.78    3.84
   5   8  -7   -1.20    1.68
   5  -8  -7   -1.41    1.65
  -5  -8   7    1.78    1.25
  -5  -8   7    0.52    0.64
  -5   8   7    0.26    1.29
  -5   8   7    0.02    0.81
   5   8  -6   81.49    3.16
   5   8  -6   80.35    2.34
   5  -8  -6   80.66    4.18
  -5  -8   6   81.62    2.26
  -5  -8   6   81.65    3.41
  -5   8   6   78.78    5.25
  -5   8   6   82.71    2.60
   5   8  -5   -0.83    0.51
   5  -8  -5   -1.54    1.91
   5   8  -5    0.72    0.75
  -5  -8   5    0.43    0.49
  -5  -8   5    1.25    1.34
  -5   8   5   -0.27    0.56
  -5   8   5    0.05    0.93
   5   8  -4   94.78    3.04
   5   8  -4   95.74    2.45
   5  -8  -4  103.24    6.21
  -5  -8   4   94.01    3.16
  -5   8   4   93.73    3.31
  -5   8   4   92.22    2.46
   5   8  -3   56.82    2.31
   5   8  -3   57.77    1.85
   5  -8  -3   58.32    4.89
  -5   8   3   56.66    1.78
  -5   8   3   58.78    2.59
  -5  -8   3   61.38    2.38
   5   8  -2   60.70    1.94
   5  -8  -2   63.81    2.62
   5  -8  -2   61.93    4.53
  -5  -8   2   65.03    2.28
  -5   8   2   61.66    2.47
   5   8  -1  150.61    3.41
   5  -8  -1  155.10    5.83
   5  -8  -1  155.47    3.21
  -5   8   1  149.81    3.06
  -5  -8   1  154.59    3.59
   5   8   0   16.02    1.31
   5  -8   0   14.95    1.59
   5  -8   0   16.66    2.79
  -5  -8   0   15.23    1.21
   5  -8   1  126.77    3.36
   5  -8   1  125.14    2.73
   5  -8   1  123.14    4.77
   5   8   1  125.13    4.15
  -5  -8  -1  123.39    3.69
  -5  -8  -1  123.54    2.84
   5  -8   2    3.14    1.10
   5  -8   2    4.06    1.00
   5  -8   2    1.81    1.14
  -5  -8  -2    2.87    0.89
  -5  -8  -2    2.24    1.26
   5  -8   3   28.75    1.31
   5  -8   3   30.09    1.80
   5  -8   3   29.22    1.71
  -5  -8  -3   32.09    1.53
  -5  -8  -3   30.38    1.40
   5  -8   4    5.29    0.86
   5  -8   4    0.55    1.04
   5  -8   4    5.40    1.74
  -5  -8  -4    5.12    1.01
  -5  -8  -4    3.99    0.83
   5  -8   5   62.43    2.06
   5  -8   5   59.00    2.35
  -5  -8  -5   60.85    3.27
   5  -8   6    6.32    1.04
   5  -8   6    7.30    1.28
  -5  -8  -6    4.69    1.18
   5  -8   7    5.50    2.05
  -5  -8  -7    5.35    1.92
   5  -8   8    5.35    1.24
  -5  -8  -8    0.04    1.07
   5  -8   9   17.53    1.87
  -5  -8  -9   14.10    1.58
   5   8  10   18.56    1.29
   5  -8  10   22.79    2.15
  -5  -8 -10   22.06    1.87
   5   8  11   12.15    1.20
   5  -8  11   12.62    2.12
  -5  -8 -11    9.54    1.64
   5   8  12    2.39    0.88
   5  -8  12    2.32    1.59
  -5  -8 -12    0.83    1.24
  -5   8 -12    1.69    1.34
   5   8  13   10.60    2.02
   5  -8  13   16.82    3.65
  -5  -8 -13    8.34    1.76
  -5   8 -13    7.69    1.92
   5   9 -16    2.00    2.58
   5  -9 -16    0.27    5.40
  -5  -9  16    2.08    5.57
  -5   9  16    0.62    3.32
  -5   9  16    0.21    4.10
  -5  -9  16    1.44    2.23
   5   9 -15    5.17    2.71
   5  -9 -15    0.01    3.45
  -5  -9  15    2.22    1.51
  -5  -9  15    5.31    3.35
  -5   9  15    2.37    3.45
   5   9 -14   14.83    3.11
   5  -9 -14   -0.02    4.08
  -5  -9  14    9.69    1.81
  -5  -9  14   11.33    6.17
  -5   9  14   12.25    5.04
  -5   9  14   13.02    3.98
   5   9 -13   34.49    5.96
   5  -9 -13   33.22    4.84
  -5  -9  13   29.95    4.44
  -5   9  13   35.46    3.09
  -5   9  13   31.02    3.69
  -5  -9  13   32.90    2.25
   5   9 -12   56.09    6.22
   5  -9 -12   53.26    5.31
  -5  -9  12   51.51    2.47
  -5  -9  12   50.92    7.29
  -5   9  12   50.83    3.31
  -5   9  12   51.51    4.01
   5   9 -11   -1.49    1.74
   5  -9 -11    0.02    3.85
  -5  -9  11    1.29    0.93
  -5  -9  11    1.41    2.06
  -5   9  11    1.12    1.70
  -5   9  11    1.00    1.33
   5  -9 -10   41.63    4.29
   5   9 -10   34.11    3.16
  -5  -9  10   40.95    3.78
  -5  -9  10   36.92    1.88
  -5   9  10   37.59    3.77
  -5   9  10   36.93    3.39
   5   9  -9   12.01    2.31
   5  -9  -9   10.48    3.26
  -5  -9   9   12.13    2.69
  -5   9   9   13.00    1.73
  -5   9   9    9.87    2.46
  -5  -9   9   12.18    1.24
   5   9  -8  119.76    4.54
   5  -9  -8  121.78    5.75
  -5  -9   8  125.47    4.97
  -5  -9   8  122.47    3.05
  -5   9   8  113.66    4.48
  -5   9   8  122.95    4.99
   5   9  -7   40.58    2.76
   5  -9  -7   40.94    3.95
  -5  -9   7   40.92    1.64
  -5  -9   7   43.00    3.02
  -5   9   7   40.10    2.08
  -5   9   7   36.16    2.93
   5   9  -6   50.05    2.81
   5  -9  -6   55.55    3.94
  -5  -9   6   54.90    1.80
  -5  -9   6   53.66    3.10
  -5   9   6   53.04    3.05
  -5   9   6   56.29    2.18
   5   9  -5  325.34    7.49
   5   9  -5  331.79    6.26
   5  -9  -5  335.70    8.40
  -5  -9   5  337.34    6.21
  -5  -9   5  325.98    7.52
  -5   9   5  326.68    6.38
  -5   9   5  327.29    7.34
   5   9  -4    8.90    0.97
   5  -9  -4    7.40    2.17
   5   9  -4    9.34    2.38
  -5  -9   4    9.38    1.59
  -5   9   4    7.17    1.82
  -5   9   4    6.86    1.58
   5   9  -3   62.55    2.63
   5  -9  -3   65.32    3.20
  -5   9   3   60.05    1.81
  -5  -9   3   60.18    2.55
   5   9  -2   66.24    2.02
   5  -9  -2   60.60    1.83
   5  -9  -2   67.60    3.08
  -5  -9   2   69.67    2.55
  -5   9   2   64.67    1.78
   5   9  -1   44.82    1.76
   5  -9  -1   48.13    2.62
   5  -9  -1   47.71    1.55
  -5  -9   1   46.85    3.00
   5   9   0   18.44    1.37
   5  -9   0   19.80    1.94
   5  -9   0   19.00    1.60
  -5  -9   0   18.39    2.21
  -5  -9   0   20.39    1.52
   5   9   1    0.42    0.65
   5  -9   1    0.89    0.80
   5  -9   1    1.14    1.49
   5  -9   1   -0.43    0.47
  -5  -9  -1   -0.24    1.02
  -5  -9  -1    0.53    0.70
   5  -9   2   36.14    3.37
   5  -9   2   33.84    1.94
   5  -9   2   35.65    2.02
  -5  -9  -2   35.88    2.43
  -5  -9  -2   35.13    1.76
   5  -9   3   65.46    2.52
   5  -9   3   69.91    3.91
   5  -9   3   64.39    1.86
  -5  -9  -3   66.68    2.29
  -5  -9  -3   67.70    2.25
   5  -9   4   10.13    0.99
   5  -9   4   13.49    1.51
   5  -9   4    9.91    1.45
  -5  -9  -4    9.45    1.83
  -5  -9  -4   11.18    1.30
   5  -9   5  172.57    5.80
   5  -9   5  168.19    4.59
  -5  -9  -5  171.88    3.99
   5  -9   6   38.62    2.19
   5  -9   6   38.16    1.67
  -5  -9  -6   36.90    2.98
   5  -9   7   22.22    1.84
   5  -9   7   19.14    1.41
  -5  -9  -7   18.12    1.68
   5  -9   8   -0.33    0.90
  -5  -9  -8   -0.01    0.80
   5  -9   9   15.18    1.94
  -5  -9  -9   17.82    1.72
   5  -9  10    6.90    1.53
  -5  -9 -10    0.01    1.33
   5  -9  11    2.57    1.68
  -5  -9 -11    2.82    1.36
   5  -9  12    1.53    1.52
   5   9  12   -0.09    0.77
  -5  -9 -12    2.98    1.20
   5  10 -15    1.38    2.47
   5 -10 -15   -0.04    5.21
  -5 -10  15   -0.72    3.14
  -5  10  15    0.32    1.92
  -5  10  15    2.30    2.44
  -5 -10  15    2.86    2.03
   5  10 -14    4.99    2.46
   5 -10 -14   -0.32    3.27
  -5 -10  14    1.87    1.26
  -5 -10  14    4.65    3.04
  -5  10  14    0.23    1.88
  -5  10  14    3.63    2.44
   5  10 -13   15.61    3.22
   5 -10 -13   -0.55    4.23
  -5 -10  13   14.60    3.93
  -5 -10  13   15.73    1.69
  -5  10  13   17.93    2.52
  -5  10  13   15.36    3.17
   5  10 -12    3.58    2.15
   5 -10 -12    1.47    2.83
  -5 -10  12    1.90    1.67
  -5 -10  12    0.77    2.48
  -5  10  12    1.12    1.62
  -5  10  12    4.48    3.58
   5  10 -11   21.17    5.22
   5 -10 -11   21.65    4.20
  -5 -10  11   22.71    5.97
  -5  10  11   27.25    3.73
  -5  10  11   22.97    3.06
  -5 -10  11   24.74    1.70
   5  10 -10    3.36    2.07
   5 -10 -10    3.55    2.72
  -5 -10  10    2.06    2.36
  -5 -10  10    2.99    0.95
  -5  10  10    2.54    2.04
  -5  10  10    3.30    1.46
   5  10  -9   99.51    4.60
   5 -10  -9  108.83    5.75
  -5 -10   9  100.90    2.79
  -5 -10   9  109.31    4.91
  -5  10   9  101.79    3.59
  -5  10   9   99.16    6.75
   5  10  -8  101.81    6.33
   5 -10  -8  115.00    5.56
  -5 -10   8  107.00    4.72
  -5  10   8  106.39    3.41
  -5  10   8  101.88    4.36
  -5 -10   8  104.91    3.57
   5  10  -7   17.98    2.36
   5 -10  -7   20.64    3.18
  -5 -10   7   19.08    1.22
  -5 -10   7   19.02    2.61
  -5  10   7   21.35    2.54
  -5  10   7   18.90    4.13
   5  10  -6  162.57    5.02
   5 -10  -6  166.09    8.88
  -5 -10   6  160.89    3.45
  -5 -10   6  161.83    5.05
  -5  10   6  162.73    4.97
  -5  10   6  149.31    4.83
   5  10  -5   15.65    1.17
   5  10  -5   15.50    3.18
   5 -10  -5   16.04    2.86
  -5 -10   5   14.54    3.36
  -5  10   5   17.14    2.23
  -5  10   5   16.01    1.98
   5  10  -4   61.16    2.60
   5 -10  -4   64.15    3.77
   5  10  -4   58.61    2.92
  -5 -10   4   62.03    3.00
  -5  10   4   60.45    1.93
   5  10  -3   54.12    1.81
   5 -10  -3   55.64    3.32
  -5 -10   3   55.92    2.67
  -5  10   3   53.88    2.32
   5 -10  -2   41.70    2.89
   5  10  -2   38.65    1.64
  -5 -10   2   43.70    2.34
  -5  10   2   42.36    1.44
   5  10  -1  419.65    7.84
   5 -10  -1  421.61    7.34
   5 -10  -1  418.10    8.85
  -5 -10   1  423.09    8.73
   5  10   0   19.52    1.41
   5 -10   0   22.68    2.14
   5 -10   0   20.81    1.08
   5 -10   0   19.80    1.97
  -5 -10   0   19.95    1.71
  -5 -10   0   19.76    1.66
   5  10   1  139.31    3.44
   5 -10   1  138.93    4.15
   5 -10   1  139.37    5.81
   5 -10   1  135.29    2.81
  -5 -10  -1  136.34    3.65
  -5 -10  -1  136.64    4.81
   5  10   2    9.56    1.26
   5 -10   2    7.46    0.82
   5 -10   2   11.45    2.75
   5 -10   2   10.81    1.57
  -5 -10  -2    7.63    1.99
  -5 -10  -2    8.78    1.36
   5 -10   3   70.48    2.83
   5 -10   3   74.44    2.90
   5 -10   3   68.93    1.90
  -5 -10  -3   65.70    3.43
  -5 -10  -3   71.41    3.66
   5 -10   4   10.31    1.64
   5 -10   4   10.21    0.96
   5 -10   4   13.22    1.63
  -5 -10  -4   12.20    1.33
  -5 -10  -4   11.74    1.43
   5 -10   5    7.65    0.91
   5 -10   5    7.68    1.50
  -5 -10  -5    6.49    2.17
  -5 -10  -5    7.76    1.25
   5 -10   6   69.92    3.01
   5 -10   6   70.58    2.97
  -5 -10  -6   73.94    2.73
   5 -10   7    0.48    0.65
   5 -10   7   -0.25    1.62
  -5 -10  -7    0.25    0.91
   5 -10   8   15.51    1.30
   5 -10   8   13.06    2.95
  -5 -10  -8   -0.10    2.64
   5 -10   9   10.94    1.81
  -5 -10  -9    0.17    2.57
   5 -10  10    0.52    1.13
  -5 -10 -10   -0.05    0.96
   5 -10  11    2.69    2.96
  -5 -10 -11    4.52    1.56
   5 -10  12   -3.33    2.81
  -5 -10 -12   -0.63    2.24
   5  11 -15   12.70    3.55
   5 -11 -15   -0.04    4.56
  -5 -11  15   12.54    1.67
  -5 -11  15   16.86    4.43
  -5  11  15   -0.12    2.59
  -5  11  15    9.63    3.39
   5  11 -14    5.92    2.68
   5 -11 -14   -0.31    5.97
  -5 -11  14    3.20    1.95
  -5 -11  14    3.42    3.35
  -5  11  14    4.22    2.62
  -5  11  14   -0.01    2.00
   5 -11 -13   -1.77    3.84
   5  11 -13    8.94    2.85
  -5 -11  13    8.35    3.41
  -5 -11  13    8.90    1.35
  -5  11  13    0.05    2.12
  -5  11  13    7.24    2.83
   5  11 -12   11.47    2.99
   5 -11 -12    0.14    3.75
  -5 -11  12   11.70    2.13
  -5 -11  12    9.99    3.44
  -5  11  12    9.75    2.12
  -5  11  12   10.59    2.87
   5  11 -11    6.00    2.39
   5 -11 -11   -0.27    3.13
  -5 -11  11    4.66    1.04
  -5  11  11    1.73    3.76
  -5  11  11    2.55    1.65
  -5 -11  11    4.74    2.67
   5  11 -10    5.20    3.50
   5 -11 -10    4.53    2.91
  -5 -11  10    3.30    3.94
  -5 -11  10    3.68    0.92
  -5  11  10    2.45    1.47
  -5  11  10    3.42    2.05
   5  11  -9   18.39    2.75
   5 -11  -9   16.83    3.58
  -5 -11   9   15.13    1.22
  -5 -11   9   22.06    3.00
  -5  11   9   18.70    2.76
  -5  11   9   18.01    2.87
   5  11  -8    4.06    1.94
   5 -11  -8    4.71    2.64
  -5 -11   8    3.72    0.81
  -5 -11   8    2.26    2.10
  -5  11   8    2.33    1.95
  -5  11   8    2.99    1.23
   5  11  -7   79.49    3.88
   5 -11  -7   79.18    4.75
  -5 -11   7   74.38    2.09
  -5 -11   7   79.97    5.96
  -5  11   7   75.93    3.82
  -5  11   7   74.83    2.66
   5  11  -6    5.30    3.07
   5 -11  -6    6.12    2.60
  -5 -11   6    6.13    2.06
  -5  11   6    7.91    1.14
  -5  11   6    6.84    2.04
   5  11  -5  131.43    2.98
   5 -11  -5  130.25    5.23
   5  11  -5  122.36    4.48
  -5 -11   5  129.47    4.55
  -5  11   5  127.26    3.13
   5  11  -4   15.43    1.06
   5 -11  -4    9.91    4.32
  -5 -11   4   12.92    3.17
  -5  11   4   12.30    1.09
   5 -11  -3  169.42    5.42
   5  11  -3  162.30    3.49
  -5 -11   3  161.58    4.73
  -5  11   3  158.91    3.33
   5  11  -2    7.00    1.45
   5 -11  -2    5.60    2.04
  -5 -11   2    7.72    1.60
  -5  11   2    5.77    1.21
   5  11  -1   71.90    2.17
   5 -11  -1   75.81    3.46
  -5 -11   1   72.58    2.96
   5  11   0   16.39    2.06
   5 -11   0   19.49    2.16
   5 -11   0   20.67    2.25
   5 -11   0   18.89    0.98
  -5 -11   0   20.09    1.80
  -5 -11   0   17.50    1.80
   5  11   1   37.62    1.81
   5 -11   1   39.48    2.52
   5 -11   1   35.15    1.76
   5 -11   1   42.20    4.15
  -5 -11  -1   36.76    2.21
  -5 -11  -1   36.57    2.12
   5 -11   2  290.04    8.72
   5 -11   2  278.32    5.08
   5 -11   2  293.00    6.68
   5  11   2  288.09    6.19
  -5 -11  -2  288.47    7.79
  -5 -11  -2  291.09    6.07
   5 -11   3   28.24    1.70
   5 -11   3   29.29    2.33
   5 -11   3   29.93    2.28
  -5 -11  -3   31.52    1.95
  -5 -11  -3   34.90    3.09
   5 -11   4    0.56    1.09
   5 -11   4   -0.68    1.10
   5 -11   4    0.73    0.51
  -5 -11  -4    0.65    0.90
  -5 -11  -4    0.43    0.95
   5 -11   5   39.63    2.56
   5 -11   5   41.40    2.46
   5 -11   5   38.10    1.46
  -5 -11  -5   45.02    2.24
  -5 -11  -5   41.41    2.22
   5 -11   6    2.49    1.38
   5 -11   6    2.06    0.72
  -5 -11  -6    3.20    2.00
   5 -11   7   60.01    3.07
   5 -11   7   53.19    1.97
  -5 -11  -7   58.72    2.70
   5 -11   8    1.36    0.74
   5 -11   8    1.27    1.28
  -5 -11  -8   -0.10    1.17
   5 -11   9   19.58    2.37
   5 -11   9   20.72    2.23
  -5 -11  -9   21.51    2.08
   5 -11  10    1.66    1.36
  -5 -11 -10   -0.12    1.18
   5 -11  11   -0.57    1.29
  -5 -11 -11    0.10    1.06
   5  12 -14   -1.11    2.06
   5 -12 -14    0.15    2.69
  -5 -12  14    0.01    4.02
  -5 -12  14    0.63    0.85
  -5  12  14    0.28    1.42
  -5  12  14   -1.71    3.23
   5  12 -13   14.94    5.52
   5 -12 -13    0.14    4.55
  -5 -12  13   21.21    4.18
  -5  12  13    0.10    3.85
  -5  12  13   24.20    3.43
   5  12 -12    0.49    1.86
   5 -12 -12    0.74    2.38
  -5 -12  12   -1.12    3.68
  -5 -12  12    0.08    0.73
  -5  12  12    0.63    1.24
  -5  12  12    1.16    1.79
   5  12 -11   46.67    4.15
   5 -12 -11   46.49    5.08
  -5 -12  11   46.70    4.60
  -5 -12  11   42.72    1.89
  -5  12  11   46.76    2.85
  -5  12  11   46.83    3.99
   5  12 -10    7.01    2.52
   5 -12 -10    0.28    3.31
  -5 -12  10    7.04    0.99
  -5 -12  10    5.52    2.80
  -5  12  10    5.75    3.92
  -5  12  10    6.95    1.62
   5  12  -9   36.82    3.62
   5 -12  -9   44.09    4.57
  -5 -12   9   43.56    5.84
  -5  12   9   35.18    3.34
  -5  12   9   40.94    2.36
  -5 -12   9   37.90    1.59
   5  12  -8    1.56    1.65
   5 -12  -8    0.79    2.12
  -5 -12   8    0.55    0.61
  -5 -12   8    2.61    1.73
  -5  12   8    1.60    1.52
  -5  12   8   -1.52    1.62
   5 -12  -7   32.86    3.89
   5  12  -7   31.35    4.76
  -5 -12   7   31.78    3.15
  -5  12   7   28.56    1.80
  -5  12   7   33.41    3.01
   5  12  -6   33.04    2.92
   5 -12  -6   32.15    3.60
  -5 -12   6   30.96    2.94
  -5  12   6   28.46    1.65
  -5  12   6   24.89    2.88
   5  12  -5   25.53    1.24
   5 -12  -5   29.43    3.26
  -5 -12   5   31.80    2.69
  -5  12   5   26.31    2.09
   5  12  -4   33.86    1.95
   5 -12  -4   34.39    3.23
  -5 -12   4   35.54    2.68
  -5  12   4   32.77    1.39
   5  12  -3   83.00    2.16
   5 -12  -3   89.66    4.20
  -5 -12   3   81.21    5.08
  -5  12   3   80.59    2.63
   5  12  -2  205.92    4.22
   5 -12  -2  221.93    6.18
  -5 -12   2  204.91    5.71
  -5  12   2  204.11    3.81
   5  12  -1   15.36    1.75
   5 -12  -1   13.42    2.27
  -5 -12   1    7.31    1.82
  -5 -12   1   15.67    1.90
   5  12   0   50.39    1.91
   5 -12   0   51.24    3.09
   5 -12   0   51.46    4.64
  -5 -12   0   52.47    2.69
  -5 -12   0   51.57    2.58
   5  12   1  123.91    3.26
   5 -12   1  117.89    2.37
   5 -12   1  124.64    6.00
   5 -12   1  123.76    6.18
  -5 -12  -1  124.69    3.67
  -5 -12  -1  128.94    5.30
   5  12   2    3.68    1.64
   5 -12   2    2.79    0.55
   5 -12   2    3.95    2.51
   5 -12   2    3.50    1.57
  -5 -12  -2    3.30    1.33
  -5 -12  -2    3.54    1.30
   5 -12   3  173.81    3.37
   5 -12   3  194.10    5.20
   5 -12   3  176.38    5.37
  -5 -12  -3  185.86    5.03
  -5 -12  -3  186.84    4.64
   5 -12   4    4.46    1.50
   5 -12   4    2.41    0.60
   5 -12   4    2.57    2.49
  -5 -12  -4    2.64    2.14
  -5 -12  -4    2.19    1.27
   5 -12   5    3.37    1.54
   5 -12   5    3.33    1.08
   5 -12   5    3.83    1.62
  -5 -12  -5    3.74    2.13
  -5 -12  -5    5.01    1.38
   5 -12   6    6.68    0.79
   5 -12   6    0.97    1.50
   5 -12   6    9.32    1.77
  -5 -12  -6    5.68    1.53
  -5 -12  -6    6.07    1.49
   5 -12   7    3.22    0.77
   5 -12   7    3.65    1.68
  -5 -12  -7    4.11    1.44
   5 -12   8    0.02    0.98
   5 -12   8    0.02    0.47
  -5 -12  -8    0.11    1.39
   5 -12   9    2.36    1.53
   5 -12   9    1.18    1.25
  -5 -12  -9   -0.34    2.19
   5 -12  10    1.11    1.47
  -5 -12 -10    0.03    2.19
   5  13 -13    2.08    2.07
   5 -13 -13   -0.12    2.68
  -5 -13  13    2.83    2.42
  -5 -13  13   -0.02    0.71
  -5  13  13   -0.09    1.33
  -5  13  13    0.52    1.97
   5  13 -12   -2.06    1.82
   5 -13 -12    0.40    2.40
  -5 -13  12    0.77    2.13
  -5 -13  12    0.24    1.00
  -5  13  12    0.08    1.18
  -5  13  12   -1.39    1.80
   5  13 -11   -2.66    1.57
   5 -13 -11   -0.39    1.96
  -5 -13  11    0.51    2.74
  -5  13  11   -1.90    1.50
  -5 -13  11    0.68    0.53
  -5  13  11   -0.19    0.95
   5  13 -10    8.26    2.82
   5 -13 -10    0.18    5.87
  -5 -13  10    9.07    1.00
  -5 -13  10   12.14    3.05
  -5  13  10    8.97    1.70
  -5  13  10    7.32    2.75
   5  13  -9   51.66    4.10
   5 -13  -9   59.82    5.05
  -5 -13   9   48.99    1.70
  -5 -13   9   56.20    4.38
  -5  13   9   52.17    2.62
  -5  13   9   52.21    5.84
   5  13  -8    0.43    1.49
   5 -13  -8    0.48    1.82
  -5  13   8    0.55    0.79
  -5  13   8   -1.20    1.38
  -5 -13   8   -0.14    1.53
   5  13  -7  112.99    5.12
   5 -13  -7  116.41    8.83
  -5 -13   7  111.76    5.02
  -5  13   7  110.64    3.21
   5 -13  -6   42.82    4.01
  -5 -13   6   43.53    5.12
  -5  13   6   34.97    1.75
   5 -13  -5   81.40    4.64
  -5 -13   5   77.30    3.97
  -5  13   5   71.32    2.16
   5  13  -4   -0.07    0.47
   5 -13  -4   -0.50    1.47
  -5 -13   4   -1.06    1.19
  -5  13   4    0.04    0.77
   5  13  -3   43.14    2.04
   5 -13  -3   51.54    5.69
  -5 -13   3   44.71    2.94
  -5  13   3   40.82    1.37
   5  13  -2    7.54    0.88
   5 -13  -2    7.56    2.25
  -5 -13   2    7.99    1.90
   5  13  -1   16.52    1.16
   5 -13  -1   20.31    2.51
   5 -13  -1   20.59    2.52
  -5 -13   1   16.98    2.14
  -5 -13   1   15.21    2.04
   5  13   0    5.32    1.48
   5 -13   0    5.61    1.92
   5 -13   0    3.58    3.20
  -5 -13   0    5.72    1.59
  -5 -13   0    5.31    1.57
   5  13   1    3.59    1.00
   5 -13   1    3.56    1.81
   5 -13   1    3.94    1.80
  -5 -13  -1    3.39    2.39
  -5 -13  -1    5.28    1.46
   5  13   2   32.68    1.83
   5 -13   2   38.77    2.81
   5 -13   2   34.97    2.88
  -5 -13  -2   34.78    2.45
  -5 -13  -2   38.36    2.30
   5  13   3   34.10    1.91
   5 -13   3   28.14    0.99
   5 -13   3   38.12    4.22
   5 -13   3   33.80    2.76
  -5 -13  -3   34.12    2.35
  -5 -13  -3   36.74    2.29
   5 -13   4    0.70    1.35
   5 -13   4    0.15    1.37
   5 -13   4    0.97    0.66
  -5 -13  -4    2.24    1.88
  -5 -13  -4    0.37    1.90
   5 -13   5    8.02    1.84
   5 -13   5    6.00    1.79
   5 -13   5    3.95    0.63
  -5 -13  -5    5.91    1.56
  -5 -13  -5    6.83    1.54
   5 -13   6    0.53    0.53
   5 -13   6    2.54    1.39
   5 -13   6    3.54    1.47
  -5 -13  -6    1.33    1.23
  -5 -13  -6    1.55    1.26
   5 -13   7   74.18    3.92
  -5 -13  -7   75.34    3.42
  -5 -13  -7   71.94    3.36
   5 -13   8    2.06    1.50
  -5 -13  -8    0.03    1.33
   5 -13   9    5.43    1.81
  -5 -13  -9   -0.22    1.56
   5  14 -12   -1.50    1.93
   5 -14 -12   -0.68    4.24
  -5 -14  12    0.54    2.24
  -5  14  12   -0.02    1.14
  -5  14  12    0.28    1.84
   5  14 -11   48.33    4.80
   5 -14 -11   52.87    5.75
  -5 -14  11   50.75    4.98
  -5  14  11   48.28    6.94
  -5  14  11   43.59    2.87
   5  14 -10    7.08    4.45
   5 -14 -10    0.15    3.41
  -5 -14  10    5.70    3.04
  -5  14  10    3.32    2.67
  -5  14  10    7.47    1.53
   5  14  -9    1.63    2.43
   5 -14  -9   -0.29    3.02
  -5 -14   9    4.31    2.54
  -5  14   9    4.20    1.25
  -5  14   9    2.51    2.28
   5  14  -8    3.66    2.46
   5 -14  -8    5.39    3.08
  -5 -14   8    8.09    4.15
  -5  14   8    5.74    1.25
   5 -14  -7    1.82    2.58
  -5 -14   7    3.98    2.22
  -5  14   7    2.91    1.00
   5 -14  -6    9.67    2.96
  -5 -14   6    7.29    2.49
  -5  14   6    7.45    1.06
   5 -14  -5   -0.12    1.68
  -5 -14   5   -0.16    1.37
  -5  14   5   -0.20    0.82
   5  14  -4   -0.76    0.34
   5 -14  -4   -0.56    1.73
  -5 -14   4    0.58    1.48
  -5  14   4   -0.04    0.52
   5  14  -3   17.35    0.97
   5 -14  -3   19.57    4.86
  -5 -14   3   20.17    2.47
  -5  14   3   16.87    0.93
   5  14  -2    4.43    1.15
   5 -14  -2    5.44    2.16
  -5 -14   2    4.02    1.75
  -5 -14   2    1.26    1.54
   5  14  -1  107.67    2.71
   5 -14  -1  123.72    4.79
   5 -14  -1  119.02    4.99
  -5 -14   1  119.34    4.52
  -5 -14   1  118.37    4.08
   5  14   0    3.41    0.84
   5 -14   0    3.21    1.95
   5 -14   0    1.14    3.22
  -5 -14   0    4.75    1.56
  -5 -14   0    2.16    1.65
   5  14   1   28.34    1.57
   5 -14   1   30.37    2.98
   5 -14   1   33.26    2.88
  -5 -14  -1   28.98    2.37
  -5 -14  -1   30.57    2.52
   5  14   2    1.04    1.34
   5 -14   2    1.40    1.55
   5 -14   2    1.25    1.53
  -5 -14  -2    1.15    1.34
  -5 -14  -2    0.62    1.25
   5  14   3   32.90    2.79
   5 -14   3   36.20    2.87
   5 -14   3   31.07    2.97
  -5 -14  -3   31.12    3.84
  -5 -14  -3   38.41    3.88
   5  14   4    1.99    1.18
   5 -14   4    5.50    1.75
   5 -14   4    5.33    1.84
  -5 -14  -4    2.98    1.57
  -5 -14  -4    3.81    2.50
   5 -14   5   19.19    2.58
   5 -14   5   20.80    4.00
  -5 -14  -5   21.18    2.25
  -5 -14  -5   15.59    3.48
   5 -14   6    1.76    1.35
   5 -14   6   -1.25    1.43
  -5 -14  -6    0.39    1.24
  -5 -14  -6    0.88    1.20
   5 -14   7   -0.38    1.66
   5 -14   7    4.02    1.76
  -5 -14  -7    2.88    1.50
  -5 -14  -7    2.18    1.55
   5 -14   8   -0.49    2.43
  -5 -14  -8    0.17    1.38
  -5 -14  -8   -1.26    1.28
   5  15 -11    4.74    3.29
   5 -15 -11    0.88    4.11
  -5 -15  11    8.63    3.48
  -5  15  11    8.47    3.05
  -5  15  11    7.25    1.73
   5  15 -10    1.26    2.19
   5 -15 -10   -0.24    2.78
  -5 -15  10    0.19    3.72
  -5  15  10    0.39    2.09
  -5  15  10    1.22    1.74
   5 -15  -9   29.71    7.76
  -5 -15   9   32.15    4.13
  -5  15   9   30.07    2.10
   5 -15  -8   14.09    3.75
  -5 -15   8   12.52    5.00
  -5  15   8   11.38    1.42
   5 -15  -7   78.75    5.51
  -5  15   7   68.18    2.42
  -5 -15   7   80.97    4.84
   5 -15  -6   12.27    5.53
  -5 -15   6   14.01    2.81
  -5  15   6   10.06    1.10
   5 -15  -5   37.09    3.96
  -5 -15   5   36.88    5.30
  -5  15   5   32.31    1.38
   5 -15  -4    1.54    2.14
  -5 -15   4   -0.70    1.82
  -5  15   4    1.86    0.57
   5 -15  -3   46.87    6.25
  -5 -15   3   44.59    3.38
   5  15  -2    0.43    0.41
   5 -15  -2    2.06    1.82
   5 -15  -2    1.03    1.78
  -5 -15   2    2.80    1.54
  -5 -15   2    2.94    1.44
   5  15  -1    5.58    1.23
   5 -15  -1    4.30    2.30
   5 -15  -1    5.62    3.73
  -5 -15   1    5.12    1.99
  -5 -15   1    8.85    1.88
   5  15   0   -0.55    0.58
   5 -15   0    0.01    1.53
   5 -15   0   -0.29    1.48
  -5 -15   0    1.20    2.01
  -5 -15   0    0.96    1.97
   5  15   1   -0.39    1.10
   5 -15   1   -1.14    1.64
   5 -15   1   -0.37    1.56
  -5 -15  -1   -2.04    2.11
  -5 -15  -1   -0.38    1.39
   5  15   2    0.16    0.67
   5 -15   2    0.23    2.17
   5 -15   2    0.81    1.38
  -5 -15  -2   -1.11    1.80
  -5 -15  -2    0.29    1.20
   5  15   3    5.85    1.17
   5 -15   3    5.43    2.14
   5 -15   3    0.33    2.04
  -5 -15  -3    8.05    1.87
   5  15   4   -1.23    0.90
   5 -15   4    0.05    2.46
   5 -15   4    0.69    1.56
  -5 -15  -4   -0.10    1.32
  -5 -15  -4   -1.31    2.16
   5 -15   5   10.67    2.29
   5 -15   5    0.42    2.13
  -5 -15  -5    9.35    2.96
  -5 -15  -5    8.26    3.12
   5 -15   6    8.52    2.31
   5 -15   6   -0.19    3.56
  -5 -15  -6    7.47    1.94
  -5 -15  -6    8.02    3.27
   5 -15   7   10.66    3.92
   5 -15   7    0.48    2.36
  -5 -15  -7   15.05    2.08
  -5 -15  -7   13.29    3.57
   5 -16  -9    0.91    2.79
  -5  16   9    1.09    0.98
  -5 -16   9    0.61    2.42
   5 -16  -8    1.91    2.71
  -5 -16   8    3.11    2.26
  -5  16   8    0.09    1.39
   5 -16  -7   35.70    4.62
  -5 -16   7   33.58    3.97
  -5  16   7   27.10    2.36
   5 -16  -6   -2.11    3.97
  -5 -16   6    0.12    2.08
  -5  16   6    1.50    1.04
   5 -16  -5    0.68    2.24
  -5 -16   5    1.37    3.05
   5 -16  -4    2.73    2.35
  -5 -16   4    1.39    1.98
   5 -16  -3    9.66    2.69
  -5 -16   3   10.42    2.30
  -5 -16   3    0.47    1.90
   5 -16  -2    0.46    1.48
   5 -16  -2    1.79    1.51
  -5 -16   2   -1.11    1.20
  -5 -16   2   -0.06    1.28
   5 -16  -1   33.33    5.62
   5 -16  -1   29.39    3.58
  -5 -16   1   34.76    3.12
  -5 -16   1   36.04    2.89
   5  16   0   -0.12    0.82
   5 -16   0    1.27    1.55
   5 -16   0   -1.49    1.60
  -5 -16   0   -1.10    2.18
  -5 -16   0   -0.48    1.27
   5  16   1   39.79    1.77
   5 -16   1   50.28    3.61
   5 -16   1   42.01    5.82
  -5 -16  -1   44.96    3.34
  -5 -16  -1   48.02    3.06
   5  16   2   11.77    1.22
   5 -16   2   15.88    2.70
   5 -16   2    0.44    2.60
  -5 -16  -2   12.84    3.72
  -5 -16  -2   11.84    2.20
   5  16   3   15.92    1.49
   5 -16   3   18.43    2.93
   5 -16   3   19.71    2.77
  -5 -16  -3   17.91    2.56
  -5 -16  -3   14.44    3.89
   5  16   4    0.31    0.70
   5 -16   4   -1.35    1.33
   5 -16   4   -0.41    1.25
  -5 -16  -4    1.07    1.80
  -5 -16  -4   -0.46    1.82
   5  16   5    0.22    0.87
   5 -16   5   -0.06    1.46
   5 -16   5    0.57    1.52
  -5 -16  -5   -0.21    2.17
  -5 -16  -5    0.59    1.31
   5 -16   6    0.25    1.69
   5 -16   6   -0.46    1.78
  -5 -16  -6    2.90    2.42
  -5 -16  -6    2.87    2.53
   5 -17  -8    3.39    3.49
  -5 -17   8    4.07    2.85
   5 -17  -7   12.18    4.02
  -5 -17   7   11.03    3.35
   5 -17  -6   -1.38    4.71
  -5 -17   6    3.02    2.38
   5 -17  -5   29.17    4.36
  -5 -17   5   27.82    5.88
   5 -17  -4    1.28    2.42
  -5 -17   4    1.28    2.06
   5 -17  -3   52.15    4.69
   5 -17  -3   51.81    4.50
  -5 -17   3   49.92    3.73
  -5 -17   3   51.38    4.08
   5 -17  -2   12.45    5.01
   5 -17  -2   13.92    3.29
  -5 -17   2   14.69    2.65
  -5 -17   2   15.39    2.87
   5 -17  -1    2.69    2.34
   5 -17  -1   -0.47    3.93
  -5 -17   1    3.00    2.02
  -5 -17   1    2.83    3.06
   5 -17   0    0.80    1.86
   5 -17   0   -1.12    1.80
  -5 -17   0    0.44    1.61
  -5 -17   0    1.64    1.51
   5 -17   1    5.18    4.27
   5 -17   1    6.71    2.67
  -5 -17  -1    5.60    2.25
  -5 -17  -1    7.77    2.16
   5 -17   2    0.09    1.59
   5 -17   2    0.23    2.62
  -5 -17  -2   -0.77    1.40
  -5 -17  -2    1.12    1.31
   5  17   3    1.03    1.46
   5 -17   3    4.13    2.08
   5 -17   3    0.47    3.25
  -5 -17  -3    0.06    1.72
  -5 -17  -3    2.58    1.79
   5  17   4    0.23    1.05
   5 -17   4   -0.16    1.39
   5 -17   4   -0.19    1.32
  -5 -17  -4    0.06    1.17
  -5 -17  -4    0.09    1.21
   5 -18  -5    0.90    2.66
   5 -18  -4    0.21    2.56
   5 -18  -4    1.80    2.45
  -5 -18   4   -0.57    2.01
  -5 -18   4    3.48    2.17
   5 -18  -3    9.92    3.25
   5 -18  -3    5.84    3.13
  -5 -18   3    5.86    4.34
  -5 -18   3    6.68    2.57
   5 -18  -2   -0.42    2.07
   5 -18  -2    1.03    2.03
  -5 -18   2   -0.26    1.77
  -5 -18   2    1.29    1.67
   5 -18  -1    1.04    2.55
   5 -18  -1    3.46    2.53
  -5 -18   1    2.87    3.45
  -5 -18   1    2.72    2.06
   5 -18   0    0.71    2.33
   5 -18   0    1.71    2.38
  -5 -18   0    3.38    2.02
  -5 -18   0    0.19    3.15
   5 -18   1    8.53    3.03
   5 -18   1    8.60    2.94
  -5 -18  -1   10.90    2.55
  -5 -18  -1    6.22    2.43
  -6   0  18    0.10    2.88
  -6   0  18    0.31    2.54
  -6   0  17    0.20    2.68
  -6   0  16    0.03    2.18
   6   0 -15   -0.13    1.78
  -6   0  15   -0.16    1.40
  -6   0  14   17.35    2.46
  -6   0  14   -0.06    3.24
  -6   0  13   -0.05    1.12
  -6   0  13    0.27    1.59
   6   0 -12   27.86    3.33
  -6   0  12   29.59    2.68
   6   0 -11    0.19    1.23
  -6   0  11   -0.06    0.94
   6   0 -10  103.36    4.41
  -6   0  10  100.49    3.78
  -6   0   9    0.45    1.06
   6   0  -8   54.09    3.07
  -6   0   8   51.93    2.53
  -6   0   8   52.14    5.54
   6   0  -7    0.10    1.07
  -6   0   7    0.72    2.00
  -6   0   7    0.23    0.86
   6   0  -6   52.32    3.57
   6   0  -6   54.11    2.48
  -6   0   6   50.93    2.68
  -6   0   6   52.02    2.33
   6   0  -5    0.57    0.66
   6   0  -5   -0.11    0.66
  -6   0   5    0.42    0.75
  -6   0   5   -0.62    0.64
   6   0  -4   30.96    1.55
   6   0  -4   32.06    1.85
  -6   0   4   32.97    1.62
  -6   0   4   33.59    1.83
   6   0  -3    0.25    1.33
   6   0  -3    0.00    0.92
  -6   0   3    0.48    1.34
  -6   0   3    0.99    0.96
   6   0  -2  143.30    2.49
   6   0  -2  145.90    3.58
  -6   0   2  145.54    3.56
   6   0  -1   -0.23    0.67
   6   0  -1    0.10    0.36
  -6   0   1    0.14    0.22
   6   0   0  195.98    5.63
   6   0   0  193.82    2.18
   6   0   1    0.15    0.75
   6   0   2   12.10    1.46
   6   0   6    0.75    0.24
   6   0   7    0.00    0.19
  -6   0  -7    0.15    0.29
   6   0   8    8.68    0.86
  -6   0  -8    8.49    0.83
   6   0   9   -0.16    0.32
  -6   0  -9    0.22    0.50
   6   0  10    8.07    0.74
  -6   0 -10    6.99    0.79
   6   0  11   -0.24    0.48
  -6   0 -11   -0.30    0.52
   6   0  12    0.54    0.59
  -6  -1  18    0.08    1.65
  -6   1  18    0.14    1.75
  -6   1  17   -0.04    1.30
  -6  -1  17    0.03    1.26
  -6  -1  16    0.03    1.09
  -6   1  16   -0.03    1.14
  -6  -1  15   -0.06    1.15
  -6   1  15   -0.14    1.56
  -6   1  15    0.29    1.94
   6  -1 -14    6.60    3.01
  -6  -1  14    8.96    2.28
  -6   1  14    8.87    2.33
   6   1 -13    4.08    2.30
  -6  -1  13    4.38    1.84
  -6  -1  13    0.27    2.74
  -6   1  13    5.18    1.92
   6   1 -12   17.28    2.87
  -6  -1  12   18.41    3.63
  -6  -1  12   14.97    3.34
  -6   1  12   19.63    2.36
   6   1 -11   10.49    2.38
   6  -1 -11   11.90    2.66
  -6  -1  11   10.26    1.93
  -6   1  11   11.91    3.18
  -6  -1  11    8.51    2.88
   6   1 -10    0.04    1.19
   6  -1 -10    0.58    1.34
  -6  -1  10   -0.28    0.97
  -6   1  10    0.31    0.99
   6   1  -9    4.84    2.85
  -6   1   9    3.13    2.37
  -6  -1   9    4.78    1.43
   6   1  -8   31.17    3.90
   6  -1  -8   33.69    2.81
  -6  -1   8   29.39    3.20
  -6  -1   8   32.94    3.11
  -6   1   8   32.77    2.16
  -6   1   8   30.07    2.89
   6   1  -7    5.14    1.40
   6   1  -7    5.55    2.45
   6  -1  -7    6.57    1.79
  -6  -1   7    6.22    1.92
  -6   1   7    5.38    1.36
  -6   1   7    5.17    1.84
  -6  -1   7    7.06    1.37
   6   1  -6  104.19    3.23
   6   1  -6  107.59    4.58
   6  -1  -6  110.08    3.59
   6  -1  -6  107.82    3.28
  -6  -1   6  108.67    3.74
  -6  -1   6  111.31    3.26
  -6   1   6  111.32    3.58
  -6   1   6  107.72    3.19
   6   1  -5    8.51    1.31
   6   1  -5    8.80    1.17
   6  -1  -5    8.14    2.20
   6  -1  -5    6.07    2.35
  -6  -1   5    9.81    2.55
  -6  -1   5    8.70    1.31
  -6   1   5    6.67    1.40
  -6   1   5    8.57    1.32
   6   1  -4  283.96    6.98
   6   1  -4  281.94    5.14
   6  -1  -4  284.59    5.86
   6  -1  -4  272.03    5.37
  -6  -1   4  284.89    6.99
  -6  -1   4  275.31    5.23
  -6   1   4  282.19    6.46
  -6   1   4  283.39    5.77
   6   1  -3    1.56    0.60
   6   1  -3    3.01    0.98
   6  -1  -3    1.03    0.98
   6  -1  -3    1.97    0.79
  -6  -1   3    1.83    1.26
  -6   1   3    1.17    0.97
  -6   1   3    2.45    1.16
  -6  -1   3    1.97    0.99
   6  -1  -2  141.45    3.52
   6   1  -2  144.30    2.44
   6   1  -2  145.99    3.58
   6  -1  -2  139.97    2.65
  -6  -1   2  148.45    3.59
  -6   1   2  149.43    4.65
   6   1  -1    7.30    1.95
   6   1  -1    6.31    0.54
   6  -1  -1    6.88    1.17
   6  -1  -1    6.64    0.90
  -6  -1   1    5.98    0.67
   6   1   0    0.50    0.86
   6  -1   0    0.73    0.82
   6  -1   0    0.53    0.34
   6  -1   1    2.56    1.03
   6   1   1    2.19    1.08
   6   1   2   20.60    1.75
   6  -1   2   21.27    1.64
   6  -1   3   -0.03    0.68
   6  -1   5   21.84    0.45
   6  -1   5   21.59    0.32
   6  -1   6   16.88    0.80
   6   1   7    6.22    0.33
   6  -1   7    6.62    0.51
  -6  -1  -7    6.07    0.35
  -6   1  -7    6.36    0.44
   6   1   8   11.01    0.80
   6  -1   8   11.49    0.70
  -6  -1  -8    9.97    0.83
  -6   1  -8   10.48    0.96
   6   1   9    1.19    0.40
   6  -1   9    1.01    0.53
  -6  -1  -9    0.93    0.43
  -6   1  -9    0.78    0.48
   6   1  10   12.45    1.16
   6  -1  10   12.81    0.95
  -6  -1 -10   11.69    0.86
  -6   1 -10   11.26    0.93
   6   1  11    0.31    0.71
   6  -1  11   -0.23    0.84
  -6   1 -11   -0.23    0.54
  -6  -1 -11    0.68    0.50
   6   1  12   -0.23    0.83
   6  -1  12    0.25    0.59
  -6   1 -12    0.71    0.65
   6   2 -18   -0.25    2.09
  -6  -2  18   -0.22    1.60
  -6   2  18    0.08    1.79
  -6   2  17   -0.05    1.74
  -6   2  17   -0.19    2.22
  -6  -2  17   -0.27    1.56
   6  -2 -16    0.38    2.09
  -6   2  16    0.05    1.68
  -6  -2  15   -0.05    1.18
  -6  -2  15    0.22    1.74
  -6   2  15    0.06    1.29
   6   2 -14    0.22    1.89
  -6  -2  14    0.31    1.48
  -6   2  14    2.43    2.56
   6   2 -13   15.34    2.81
   6  -2 -13   12.94    3.20
  -6  -2  13   14.35    3.54
  -6   2  13   12.66    2.44
   6   2 -12   27.33    3.19
  -6  -2  12   34.27    3.97
  -6  -2  12   30.94    2.61
  -6   2  12   31.36    2.75
   6   2 -11    0.58    1.53
   6  -2 -11   -1.03    1.89
  -6  -2  11    0.83    1.99
  -6  -2  11    0.50    1.23
  -6   2  11    1.98    1.35
   6  -2 -10  188.69    6.45
   6   2 -10  183.25    5.67
  -6  -2  10  186.69    5.07
  -6   2  10  184.43    5.29
   6   2  -9   -0.05    1.18
  -6  -2   9    1.25    1.00
  -6   2   9   -0.55    2.45
  -6   2   9   -0.21    1.04
   6   2  -8   66.81    3.00
   6  -2  -8   69.31    3.71
  -6  -2   8   68.20    2.75
  -6  -2   8   69.69    3.87
  -6   2   8   65.79    2.84
  -6   2   8   65.43    3.53
   6   2  -7    2.49    1.19
   6   2  -7    1.45    1.23
   6  -2  -7    1.88    1.63
  -6  -2   7    2.23    1.16
  -6  -2   7    1.80    1.68
  -6   2   7    2.21    1.16
  -6   2   7    2.80    1.54
   6   2  -6   20.08    1.72
   6   2  -6   19.85    1.66
   6  -2  -6   18.98    1.79
   6  -2  -6   17.58    2.30
  -6  -2   6   20.35    2.17
  -6  -2   6   19.62    1.64
  -6   2   6   22.36    2.70
  -6   2   6   19.01    3.25
   6   2  -5   63.55    2.40
   6   2  -5   64.97    3.10
   6  -2  -5   70.08    2.82
   6  -2  -5   70.07    2.53
  -6   2   5   68.44    2.49
  -6  -2   5   64.16    2.39
  -6   2   5   65.86    2.43
  -6  -2   5   50.91    2.62
   6   2  -4   83.24    2.62
   6   2  -4   83.37    2.17
   6  -2  -4   83.16    3.80
  -6  -2   4   82.89    2.65
  -6  -2   4   82.07    2.58
  -6   2   4   84.21    2.38
  -6   2   4   80.69    2.65
   6   2  -3   38.28    1.27
   6   2  -3   38.10    1.86
   6  -2  -3   41.07    1.89
   6  -2  -3   37.27    1.75
  -6   2   3   38.30    2.25
  -6  -2   3   39.20    1.89
  -6  -2   3   38.56    1.56
  -6   2   3   36.20    1.88
   6   2  -2   47.76    2.08
   6   2  -2   49.24    1.17
   6  -2  -2   46.79    1.99
   6  -2  -2   47.76    2.48
  -6   2   2   46.69    1.98
  -6   2   2   49.12    1.29
   6   2  -1    0.52    0.88
   6   2  -1    0.72    0.26
   6  -2  -1    0.63    0.52
   6  -2  -1    0.37    1.34
  -6  -2   1    1.11    0.57
   6   2   0  184.05    4.28
   6  -2   0  171.68    3.13
   6  -2   0  183.15    4.11
  -6  -2   0  181.46    2.24
   6   2   1    4.24    1.23
   6  -2   1    5.54    1.17
   6  -2   1    5.53    0.42
   6  -2   1    5.02    0.63
   6   2   2   85.10    2.91
   6  -2   2   86.93    2.73
   6  -2   2   81.31    1.09
   6  -2   2   83.42    1.23
   6  -2   3    2.52    0.18
   6  -2   3    2.08    0.34
   6  -2   3    2.67    1.06
   6  -2   4    0.60    0.37
   6  -2   4    0.65    0.17
   6  -2   5   17.66    0.62
   6  -2   5   17.39    0.49
   6  -2   6   31.65    1.36
  -6  -2  -6   29.23    0.55
   6  -2   7    6.63    0.65
   6   2   7    5.82    0.32
  -6  -2  -7    5.91    0.52
   6   2   8   14.16    0.83
   6  -2   8   13.48    1.40
  -6  -2  -8   12.31    0.61
  -6   2  -8   13.42    1.14
   6  -2   9    7.43    0.87
   6   2   9    7.12    0.86
  -6   2  -9    6.91    0.73
  -6  -2  -9    5.32    0.95
   6   2  10    5.51    0.61
   6  -2  10    5.59    1.43
  -6  -2 -10    2.91    1.09
  -6   2 -10    7.66    0.83
   6  -2  11    1.75    0.77
   6   2  11    1.73    0.55
  -6  -2 -11    1.79    1.02
  -6   2 -11    2.05    0.75
   6  -2  12    3.58    1.50
  -6   2 -12    4.13    0.95
  -6   3  17    0.08    1.57
  -6  -3  17   -0.17    1.35
  -6  -3  16   -0.14    2.04
  -6   3  16    5.67    2.24
   6   3 -15   -0.09    2.38
   6  -3 -15   -0.01    2.73
  -6  -3  15   -0.07    1.82
  -6   3  15    8.08    2.11
   6   3 -14   29.02    3.67
  -6   3  14   32.18    5.05
  -6  -3  14   32.30    4.42
  -6  -3  14   32.87    4.28
   6   3 -13    0.98    1.90
  -6  -3  13    1.79    1.47
  -6   3  13    0.57    1.60
   6   3 -12    0.42    1.58
  -6   3  12    0.22    1.35
  -6   3  12    1.12    1.77
  -6  -3  12    0.38    1.21
   6   3 -11   -2.00    1.54
   6  -3 -11   -1.08    2.08
  -6  -3  11   -0.01    2.00
  -6  -3  11    0.84    1.93
  -6   3  11   -0.84    1.34
  -6   3  11   -0.66    1.81
   6   3 -10   12.64    2.15
   6  -3 -10   11.47    2.87
  -6   3  10    8.12    4.35
  -6  -3  10   10.14    1.75
  -6  -3  10   10.59    2.90
  -6   3  10   10.71    1.92
   6   3  -9   77.09    3.37
   6  -3  -9   80.42    6.76
  -6   3   9   75.47    3.90
  -6   3   9   79.33    3.22
  -6  -3   9   74.60    4.27
   6   3  -8   69.99    3.00
   6  -3  -8   72.97    3.99
  -6  -3   8   69.38    2.74
  -6  -3   8   69.30    3.90
  -6   3   8   67.92    2.87
  -6   3   8   67.90    3.52
   6   3  -7    2.87    1.20
   6   3  -7    2.74    1.23
   6  -3  -7    2.63    3.24
  -6  -3   7    2.77    1.18
  -6  -3   7    4.62    1.77
  -6   3   7    2.54    1.99
  -6   3   7    2.45    1.61
   6   3  -6  151.19    3.87
   6  -3  -6  152.58    4.06
   6  -3  -6  156.29    4.82
   6   3  -6  151.38    5.01
  -6  -3   6  153.54    4.65
  -6  -3   6  155.20    3.89
  -6   3   6  150.12    4.10
  -6   3   6  150.53    5.15
   6   3  -5    0.50    1.43
   6   3  -5    1.13    0.78
   6  -3  -5    0.83    0.92
   6  -3  -5    0.44    2.09
  -6  -3   5    2.13    1.80
  -6  -3   5    0.06    0.88
  -6   3   5    0.31    1.63
  -6   3   5    0.54    1.45
   6   3  -4   36.26    1.48
   6   3  -4   33.56    1.86
   6  -3  -4   36.82    1.87
   6  -3  -4   38.70    2.19
  -6  -3   4   40.67    1.90
  -6  -3   4   37.56    1.89
  -6   3   4   35.90    2.76
  -6   3   4   35.68    1.83
   6  -3  -3    0.02    0.73
   6   3  -3    0.19    0.44
   6   3  -3   -0.09    0.72
   6  -3  -3    0.13    1.15
  -6  -3   3    0.48    1.15
  -6  -3   3   -0.24    0.61
  -6   3   3    0.09    0.68
  -6   3   3    0.64    0.56
   6   3  -2  210.70    3.50
   6   3  -2  208.15    5.72
   6  -3  -2  209.28    4.52
   6  -3  -2  216.33    5.26
  -6  -3   2  213.03    3.61
  -6   3   2  210.99    4.51
  -6   3   2  215.27    3.62
   6  -3  -1   51.13    2.42
   6   3  -1   52.68    1.11
   6  -3  -1   51.34    2.09
   6   3  -1   53.45    2.17
  -6   3   1   57.04    1.18
   6   3   0    5.65    1.21
   6  -3   0    4.70    1.11
   6  -3   0    5.62    1.12
  -6  -3   0    5.61    0.64
   6   3   1    4.12    1.12
   6  -3   1    4.03    1.70
   6  -3   1    3.42    0.39
   6  -3   1    3.44    0.51
   6   3   2   27.60    1.96
   6  -3   2   31.29    1.74
   6  -3   2   30.47    0.75
   6  -3   2   28.96    0.76
   6  -3   3   33.45    1.87
   6  -3   3   34.22    1.12
   6  -3   3   33.90    0.79
   6  -3   4   23.24    1.02
   6  -3   4   23.83    1.17
   6  -3   5    1.41    0.40
   6  -3   5   -0.01    0.30
   6  -3   6   94.62    2.62
  -6  -3  -6   82.79    1.45
   6  -3   7   11.33    0.89
  -6  -3  -7   10.83    0.47
   6   3   8   22.63    0.70
   6  -3   8   25.84    1.81
  -6  -3  -8   21.48    1.13
   6   3   9    4.11    0.50
   6  -3   9    5.86    1.50
  -6   3  -9    3.96    1.14
  -6  -3  -9    3.67    0.58
   6   3  10    2.10    0.91
   6  -3  10    5.25    0.94
  -6  -3 -10    3.70    0.67
  -6   3 -10    4.58    0.83
   6   3  11    0.92    0.46
   6  -3  11   -0.10    0.73
  -6  -3 -11   -0.34    0.87
  -6   3 -11    0.65    0.66
   6  -3  12   -0.72    0.77
  -6   3 -12   -0.20    1.17
   6   4 -17   -0.06    2.11
   6  -4 -17   -0.20    2.37
  -6  -4  17    0.32    1.53
  -6   4  17    0.66    1.81
   6   4 -16   -0.05    2.02
  -6  -4  16   -0.06    2.40
  -6  -4  16   -0.07    2.50
  -6   4  16    1.19    1.78
   6   4 -15   -0.02    2.50
   6  -4 -15    0.26    4.68
  -6  -4  15   -0.28    2.98
  -6   4  15    9.02    2.21
  -6   4  15   -0.12    2.57
   6   4 -14    0.28    2.42
   6  -4 -14    0.06    2.86
  -6   4  14   17.40    3.29
  -6  -4  14    0.31    4.79
  -6   4  14    0.00    2.39
   6   4 -13   20.44    3.09
  -6  -4  13   25.82    3.84
  -6  -4  13   19.63    2.32
  -6   4  13   23.30    2.67
  -6   4  13   -0.04    3.27
   6   4 -12   52.74    5.88
   6  -4 -12   58.71    4.77
  -6  -4  12   61.54    4.54
  -6   4  12   59.75    3.40
  -6   4  12   50.83    4.03
   6   4 -11   63.50    5.66
   6  -4 -11   67.97    4.77
  -6  -4  11   67.28    3.10
  -6  -4  11   69.88    4.81
  -6   4  11   60.93    4.11
  -6   4  11   67.67    3.41
   6   4 -10   80.59    3.75
   6  -4 -10   83.15    5.01
  -6  -4  10   80.39    3.17
  -6  -4  10   81.50    4.77
  -6   4  10   79.40    3.40
  -6   4  10   72.10    4.09
   6   4  -9    8.05    1.83
   6  -4  -9    9.55    2.74
  -6  -4   9    8.51    1.54
  -6  -4   9    9.19    2.59
  -6   4   9    7.36    2.24
  -6   4   9    8.81    1.71
   6  -4  -8    0.90    1.70
   6   4  -8    0.41    1.11
  -6  -4   8    1.41    0.95
  -6  -4   8   -0.76    1.51
  -6   4   8    0.24    1.05
  -6   4   8    0.94    1.40
   6   4  -7    2.28    1.23
   6   4  -7    2.76    1.13
   6  -4  -7    2.26    3.28
  -6  -4   7    3.20    1.68
  -6  -4   7    1.56    1.75
  -6   4   7    2.38    1.92
  -6   4   7    2.20    1.54
   6   4  -6   56.87    2.31
   6  -4  -6   60.86    3.38
   6   4  -6   57.76    2.35
  -6   4   6   58.01    2.69
  -6  -4   6   58.52    4.45
  -6  -4   6   60.12    3.27
  -6   4   6   54.27    2.36
   6   4  -5    0.23    1.10
   6  -4  -5    0.19    0.82
   6  -4  -5    0.34    1.13
   6   4  -5    1.88    1.24
  -6  -4   5   -0.43    0.75
  -6  -4   5    0.30    0.92
  -6   4   5    0.23    0.88
  -6   4   5    0.28    0.79
   6   4  -4   15.21    1.71
   6   4  -4   14.03    1.38
   6  -4  -4   11.13    1.39
   6  -4  -4    9.85    2.98
  -6  -4   4   11.49    1.36
  -6  -4   4   11.83    1.46
  -6   4   4   13.69    2.10
  -6   4   4   13.11    1.37
   6   4  -3   10.91    0.92
   6  -4  -3   10.89    1.54
   6  -4  -3   11.64    1.34
   6   4  -3    9.86    1.31
  -6  -4   3   13.13    1.33
  -6  -4   3   12.83    1.16
  -6   4   3   11.79    1.28
  -6   4   3   11.87    1.19
   6   4  -2  143.28    3.54
   6  -4  -2  142.73    3.49
   6  -4  -2  145.73    3.30
   6   4  -2  144.68    3.25
  -6  -4   2  143.27    2.85
  -6   4   2  144.09    2.89
  -6   4   2  139.67    3.42
   6   4  -1    0.46    0.82
   6   4  -1    0.52    0.36
   6  -4  -1    0.62    0.68
   6  -4  -1    1.00    1.25
   6   4   0    8.57    1.36
   6  -4   0    9.06    1.48
   6  -4   0    9.66    1.18
   6   4   1    1.67    1.01
   6  -4   1    1.76    0.88
   6  -4   1    1.51    0.54
   6  -4   1    2.38    0.74
  -6  -4  -1    1.32    0.28
  -6  -4  -1    1.50    0.46
   6   4   2  201.58    4.85
   6  -4   2  202.12    4.51
   6  -4   2  204.13    3.85
  -6  -4  -2  192.79    2.69
  -6  -4  -2  195.03    2.55
   6  -4   3   12.67    1.02
   6  -4   3   10.69    1.34
   6  -4   3   12.02    0.69
  -6  -4  -3   10.31    0.46
  -6  -4  -3   10.66    0.26
   6  -4   4   33.92    1.98
   6  -4   4   33.75    1.06
   6  -4   4   35.43    1.01
  -6  -4  -4   32.80    0.75
  -6  -4  -4   33.40    0.67
   6  -4   5    7.15    0.75
  -6  -4  -5    7.71    0.47
  -6  -4  -5    7.01    0.54
   6  -4   6    5.65    1.31
  -6  -4  -6    6.18    0.65
   6  -4   7    2.75    0.80
  -6  -4  -7    3.56    0.44
   6  -4   8   -1.38    0.61
   6   4   8   -0.25    0.29
  -6  -4  -8    0.97    0.57
   6   4   9    2.10    0.78
   6  -4   9    3.15    0.95
  -6  -4  -9    2.36    0.57
   6   4  10    4.78    0.95
   6  -4  10    5.77    1.74
  -6  -4 -10    4.85    1.17
  -6   4 -10    4.01    0.91
   6   4  11    2.17    0.58
   6  -4  11    2.83    1.66
  -6  -4 -11    2.13    0.73
  -6   4 -11    2.73    1.38
   6  -4  12    3.63    1.10
  -6   4 -12    2.14    1.01
   6   5 -17    0.10    2.57
   6  -5 -17   -0.13    3.00
  -6  -5  17    0.23    3.22
  -6  -5  17    0.49    1.80
  -6   5  17    4.73    2.21
  -6   5  17    0.05    2.67
   6   5 -16   -0.29    3.01
   6  -5 -16    0.41    3.56
  -6  -5  16   -0.48    3.55
  -6  -5  16    9.70    2.08
  -6   5  16    8.98    2.55
  -6   5  16   -0.11    3.02
   6  -5 -15   -0.47    1.82
   6   5 -15    0.12    2.48
  -6   5  15    0.97    1.31
  -6  -5  15   -0.07    1.85
  -6  -5  15   -0.44    1.07
  -6   5  15    0.09    1.55
   6   5 -14   -0.16    3.05
   6  -5 -14   -0.23    2.33
  -6  -5  14   -0.13    2.29
  -6  -5  14    1.48    1.32
  -6   5  14    0.09    2.58
  -6   5  14    0.27    1.83
   6   5 -13   20.20    5.05
   6  -5 -13   20.53    4.01
  -6  -5  13   24.09    3.65
  -6  -5  13   25.81    6.77
  -6   5  13   22.04    4.35
  -6   5  13   21.42    3.21
   6   5 -12    0.84    2.04
   6  -5 -12   -1.01    2.80
  -6  -5  12    0.03    0.91
  -6  -5  12    0.20    1.63
  -6   5  12   -0.08    1.10
  -6   5  12    0.08    1.35
   6   5 -11   63.25    5.63
   6  -5 -11   71.88    4.94
  -6  -5  11   67.29    3.06
  -6  -5  11   66.13    4.73
  -6   5  11   60.52    4.06
  -6   5  11   63.08    3.37
   6   5 -10    0.74    1.33
   6  -5 -10    2.31    1.95
  -6  -5  10    0.66    1.04
  -6  -5  10    0.51    1.76
  -6   5  10   -1.09    1.58
  -6   5  10    0.29    1.95
   6   5  -9   15.13    2.11
   6  -5  -9   14.76    3.10
  -6  -5   9   14.31    2.60
  -6  -5   9   14.20    2.84
  -6   5   9   12.43    4.04
  -6   5   9   14.32    1.90
   6   5  -8   71.04    3.13
   6  -5  -8   70.07    4.25
  -6  -5   8   72.34    2.70
  -6  -5   8   68.13    3.78
  -6   5   8   69.95    2.91
  -6   5   8   65.88    3.48
   6   5  -7    0.05    0.89
   6  -5  -7    1.15    1.60
   6   5  -7    0.59    1.58
  -6  -5   7    1.02    0.84
  -6  -5   7   -0.82    1.31
  -6   5   7    0.20    1.54
  -6   5   7    1.97    2.10
   6   5  -6  130.17    3.56
   6   5  -6  123.53    3.43
   6  -5  -6  127.27    4.68
  -6  -5   6  127.57    5.93
  -6  -5   6  122.60    3.32
  -6   5   6  124.52    3.83
  -6   5   6  127.33    3.51
   6   5  -5   51.47    3.13
   6  -5  -5   52.72    2.27
   6  -5  -5   52.47    3.04
   6   5  -5   52.67    2.11
  -6  -5   5   50.87    2.13
  -6  -5   5   51.74    2.55
  -6   5   5   50.69    2.18
  -6   5   5   50.27    2.40
   6   5  -4   23.34    1.60
   6   5  -4   25.09    1.39
   6  -5  -4   29.36    3.75
   6  -5  -4   25.69    1.68
  -6  -5   4   24.75    1.61
  -6  -5   4   26.75    2.73
  -6   5   4   25.15    1.75
  -6   5   4   25.85    2.44
   6   5  -3    4.05    0.81
   6   5  -3    5.23    1.10
   6  -5  -3    3.99    1.09
   6  -5  -3    3.88    1.37
  -6  -5   3    4.22    0.99
  -6   5   3    3.93    1.04
  -6   5   3    4.62    1.07
   6   5  -2  182.61    3.45
   6   5  -2  179.54    4.11
   6  -5  -2  178.04    4.01
   6  -5  -2  186.46    4.05
  -6  -5   2  181.98    3.54
  -6   5   2  174.84    3.92
  -6   5   2  184.18    3.66
   6   5  -1   23.62    1.62
   6  -5  -1   22.58    2.42
   6  -5  -1   23.20    1.50
  -6  -5   1   24.00    1.52
   6  -5   0    0.85    0.97
   6  -5   0    1.66    0.67
   6   5   0    1.18    0.79
  -6  -5   0   -0.08    0.24
   6   5   1    0.66    0.91
   6  -5   1    1.24    0.59
   6  -5   1    1.16    0.49
   6  -5   1    1.00    1.22
  -6  -5  -1    1.26    0.61
  -6  -5  -1   -0.17    0.36
   6   5   2    1.73    0.96
   6  -5   2    0.83    0.78
   6  -5   2    0.83    0.77
   6  -5   2    0.56    0.91
  -6  -5  -2    0.35    0.28
  -6  -5  -2    0.80    0.55
   6  -5   3   34.34    1.20
   6  -5   3   32.96    1.80
   6  -5   3   34.10    1.19
  -6  -5  -3   33.26    0.78
  -6  -5  -3   33.68    0.86
   6  -5   4   25.63    1.10
   6  -5   4   26.63    2.54
   6  -5   4   26.05    1.07
  -6  -5  -4   24.64    0.69
  -6  -5  -4   23.77    0.80
   6  -5   5   10.23    1.41
   6  -5   5    9.84    0.88
  -6  -5  -5   10.53    0.51
  -6  -5  -5    9.76    0.66
   6  -5   6   46.04    1.62
  -6  -5  -6   44.77    1.70
   6  -5   7    2.75    0.85
  -6  -5  -7    3.39    0.56
   6  -5   8    7.31    1.75
  -6  -5  -8    6.34    1.12
   6   5   9   17.07    0.84
   6  -5   9   20.43    2.56
  -6  -5  -9   17.59    1.50
   6   5  10   19.36    0.91
   6  -5  10   22.84    2.68
  -6  -5 -10   17.47    1.13
   6   5  11    2.21    0.56
   6  -5  11    1.17    1.06
  -6  -5 -11    0.00    0.73
  -6   5 -11    2.41    0.89
   6  -5  12    5.91    1.35
  -6   5 -12    5.66    1.21
   6   6 -17    0.07    3.32
   6  -6 -17   -0.38    4.11
  -6  -6  17    0.09    6.96
  -6  -6  17   10.39    2.29
  -6   6  17   11.03    2.91
  -6   6  17   -0.11    3.40
   6   6 -16    0.17    2.68
   6  -6 -16    0.17    3.23
  -6  -6  16    4.23    1.79
  -6   6  16    0.15    4.36
  -6   6  16    2.49    2.29
  -6  -6  16    0.10    3.41
   6   6 -15   -0.05    1.63
   6  -6 -15   -0.06    2.06
  -6  -6  15   -0.11    2.03
  -6   6  15    0.13    2.70
   6  -6 -14   -0.10    3.53
   6   6 -14    0.00    2.83
  -6  -6  14   13.97    3.06
  -6  -6  14   15.48    3.48
  -6   6  14   -0.09    4.46
  -6   6  14   15.32    3.88
   6   6 -13    5.20    2.59
   6  -6 -13    9.69    3.35
  -6  -6  13    7.42    1.77
  -6  -6  13    8.60    3.27
  -6   6  13    0.12    2.48
  -6   6  13    9.24    2.16
   6   6 -12   29.47    3.22
   6  -6 -12   30.40    4.29
  -6  -6  12   29.90    6.43
  -6   6  12   28.63    2.74
  -6   6  12   26.40    3.30
  -6  -6  12   28.05    2.37
   6   6 -11    2.12    1.87
   6  -6 -11    1.17    2.56
  -6  -6  11    3.69    1.29
  -6  -6  11    2.59    2.31
  -6   6  11    1.76    1.62
  -6   6  11    2.33    2.00
   6   6 -10   27.64    4.22
   6  -6 -10   28.62    3.87
  -6  -6  10   29.35    2.04
  -6  -6  10   29.00    5.29
  -6   6  10   26.17    3.01
  -6   6  10   25.78    2.41
   6   6  -9   44.76    2.93
   6  -6  -9   45.67    4.11
  -6  -6   9   45.70    2.31
  -6  -6   9   44.94    3.62
  -6   6   9   43.21    5.26
  -6   6   9   45.94    2.60
   6   6  -8   27.53    2.29
   6  -6  -8   29.43    5.76
  -6  -6   8   31.60    4.56
  -6  -6   8   26.05    1.80
  -6   6   8   26.41    2.67
  -6   6   8   26.88    2.09
   6   6  -7   13.88    1.45
   6   6  -7   12.52    2.71
   6  -6  -7   11.68    2.58
  -6  -6   7   11.42    1.39
  -6   6   7   12.48    3.40
  -6   6   7   12.23    2.50
  -6  -6   7    9.74    2.15
   6   6  -6    4.48    1.29
   6   6  -6    4.65    1.16
   6  -6  -6    5.80    2.06
  -6  -6   6    5.03    1.15
  -6  -6   6    6.18    2.62
  -6   6   6    5.59    1.24
  -6   6   6    5.06    1.58
   6   6  -5    2.03    1.58
   6   6  -5    2.31    1.00
   6  -6  -5    1.82    2.77
  -6  -6   5    1.79    0.97
  -6  -6   5    3.13    1.26
  -6   6   5    2.68    1.00
  -6   6   5    2.11    1.25
   6   6  -4   52.26    2.06
   6   6  -4   48.40    1.97
   6  -6  -4   52.18    4.65
   6  -6  -4   50.07    3.13
  -6  -6   4   51.63    2.06
  -6  -6   4   51.19    2.18
  -6   6   4   49.84    2.27
  -6   6   4   49.21    2.94
   6   6  -3   10.53    1.30
   6   6  -3   11.98    1.10
   6  -6  -3   10.65    1.80
   6  -6  -3   12.33    1.30
  -6  -6   3   13.14    1.92
  -6   6   3   11.77    1.23
  -6   6   3   12.69    1.40
   6   6  -2   17.27    1.09
   6   6  -2   17.34    1.43
   6  -6  -2   18.79    1.71
   6  -6  -2   16.49    1.37
  -6  -6   2   15.23    1.19
  -6   6   2   16.12    1.30
   6   6  -1   16.67    1.46
   6  -6  -1   15.22    1.31
   6  -6  -1   15.35    1.44
  -6  -6   1   15.39    1.01
   6   6   0   68.07    2.45
   6  -6   0   66.17    3.14
   6  -6   0   66.55    3.07
  -6  -6   0   65.27    1.61
   6   6   1    2.23    1.01
   6  -6   1    1.39    0.67
   6  -6   1    2.26    0.82
   6  -6   1   -0.35    1.28
  -6  -6  -1    1.14    0.52
   6   6   2  104.97    3.29
   6  -6   2  105.59    2.88
   6  -6   2  106.81    2.51
   6  -6   2  106.51    2.45
  -6  -6  -2  105.62    1.99
   6  -6   3    3.80    0.75
   6  -6   3    4.66    1.02
   6  -6   3    4.23    0.81
  -6  -6  -3    2.98    0.59
   6  -6   4   26.00    1.26
   6  -6   4   25.99    1.62
   6  -6   4   27.02    1.26
  -6  -6  -4   23.78    1.58
   6  -6   5   34.25    1.94
   6  -6   5   33.34    1.37
   6  -6   5   33.30    1.47
  -6  -6  -5   33.28    1.77
   6  -6   6   23.81    2.05
  -6  -6  -6   21.21    1.54
   6  -6   7   20.10    1.39
  -6  -6  -7   18.66    1.05
   6  -6   8    3.81    1.01
  -6  -6  -8    2.87    0.74
   6  -6   9   20.75    1.75
  -6  -6  -9   17.48    1.18
   6  -6  10    3.41    1.22
  -6  -6 -10    2.66    0.82
   6   6  11    0.83    0.59
   6  -6  11    3.02    1.15
   6  -6  12    2.74    1.29
   6   7 -16    6.55    3.17
   6  -7 -16   -0.07    3.99
  -6  -7  16   11.98    3.29
  -6  -7  16   -0.67    4.14
  -6   7  16   11.69    2.77
  -6   7  16   -0.04    3.17
   6   7 -15    3.76    2.63
   6  -7 -15    0.06    3.37
  -6  -7  15    4.97    3.47
  -6   7  15   -0.19    2.70
  -6   7  15    3.35    2.30
  -6  -7  15    4.79    1.69
   6   7 -14    8.51    2.60
   6  -7 -14    0.32    3.46
  -6  -7  14    6.76    1.77
  -6  -7  14    5.40    3.35
  -6   7  14   -0.07    2.62
  -6   7  14    2.99    3.52
   6   7 -13   14.17    2.92
   6  -7 -13    0.27    3.80
  -6  -7  13   12.60    1.94
  -6  -7  13   15.65    3.46
  -6   7  13    0.04    2.78
  -6   7  13   15.89    2.40
   6   7 -12    0.96    1.40
   6  -7 -12   -0.56    1.87
  -6  -7  12   -2.37    1.71
  -6   7  12   -0.03    2.42
  -6   7  12    1.74    1.16
  -6  -7  12   -0.42    0.92
   6   7 -11   54.44    3.75
   6  -7 -11   57.48    4.83
  -6  -7  11   54.89    2.71
  -6  -7  11   56.51    4.38
  -6   7  11   50.77    3.75
  -6   7  11   52.85    3.19
   6   7 -10   21.75    4.08
   6  -7 -10   22.02    3.67
  -6  -7  10   23.99    1.88
  -6  -7  10   21.00    3.25
  -6   7  10   21.25    2.83
  -6   7  10   19.21    2.22
   6   7  -9   19.03    2.36
   6  -7  -9   16.15    5.69
  -6  -7   9   21.61    2.60
  -6  -7   9   18.59    4.75
  -6   7   9   18.93    2.60
  -6   7   9   19.29    2.05
   6   7  -8   52.93    2.90
   6  -7  -8   59.67    4.19
  -6  -7   8   53.15    3.55
  -6   7   8   54.57    2.61
  -6   7   8   48.88    3.15
  -6  -7   8   52.73    2.25
   6   7  -7    6.46    1.18
   6   7  -7    5.51    1.45
   6  -7  -7    5.49    2.34
  -6  -7   7    4.98    1.81
  -6  -7   7    3.81    1.13
  -6   7   7    4.83    2.08
  -6   7   7    3.62    1.76
   6   7  -6   44.87    2.33
   6   7  -6   46.12    2.08
   6  -7  -6   46.62    5.42
  -6  -7   6   46.85    2.75
  -6  -7   6   49.42    2.04
  -6   7   6   45.97    3.19
  -6   7   6   46.59    2.66
   6   7  -5    2.18    0.93
   6   7  -5    2.55    1.02
   6  -7  -5    0.99    1.67
  -6  -7   5    1.46    1.22
  -6   7   5    1.76    1.53
  -6   7   5    0.89    1.26
  -6  -7   5    1.75    1.45
   6   7  -4   62.20    2.23
   6   7  -4   63.30    2.33
   6  -7  -4   66.51    3.24
   6  -7  -4   65.77    2.34
  -6  -7   4   65.27    3.64
  -6   7   4   60.68    2.55
  -6   7   4   66.44    2.18
   6   7  -3   13.92    1.22
   6   7  -3   13.11    1.33
   6  -7  -3   14.07    1.88
   6  -7  -3   10.87    1.28
  -6  -7   3   11.73    1.36
  -6   7   3   12.64    1.23
  -6   7   3   11.38    1.54
   6   7  -2   65.96    3.26
   6  -7  -2   66.90    2.73
   6  -7  -2   70.07    2.23
  -6  -7   2   68.64    2.16
  -6   7   2   69.54    2.99
   6   7  -1   24.03    1.67
   6  -7  -1   27.35    2.27
   6  -7  -1   27.93    1.80
  -6  -7   1   26.88    1.34
   6   7   0    3.91    1.13
   6  -7   0    2.55    1.09
   6  -7   0    5.04    0.91
  -6  -7   0    2.70    0.71
  -6  -7   0    2.58    0.75
   6   7   1   10.73    1.50
   6  -7   1   12.80    1.16
   6  -7   1   12.67    1.20
   6  -7   1   12.95    1.29
  -6  -7  -1   11.08    0.93
  -6  -7  -1   13.18    0.84
   6   7   2    4.68    1.32
   6  -7   2    6.74    0.96
   6  -7   2    6.33    1.03
   6  -7   2    5.80    1.04
  -6  -7  -2    4.28    0.95
  -6  -7  -2    4.41    1.23
   6  -7   3   21.82    2.18
   6  -7   3   21.27    1.37
   6  -7   3   20.73    1.32
  -6  -7  -3   21.19    1.06
   6  -7   4   -0.19    0.67
   6  -7   4   -0.04    0.59
   6  -7   4    0.48    0.93
  -6  -7  -4   -0.28    0.23
  -6  -7  -4    0.22    0.48
   6  -7   5   39.63    1.95
   6  -7   5   38.35    1.69
   6  -7   5   40.73    1.61
  -6  -7  -5   37.68    1.39
   6  -7   6   22.17    1.64
   6  -7   6   20.47    2.14
  -6  -7  -6   18.75    1.16
   6  -7   7    1.23    0.90
  -6  -7  -7    1.76    0.71
   6  -7   8   20.09    1.66
  -6  -7  -8   19.45    1.97
   6  -7   9    4.05    1.19
  -6  -7  -9    3.57    1.50
   6  -7  10   12.29    2.67
  -6  -7 -10    9.84    1.91
   6  -7  11   13.66    1.79
   6  -7  12    2.34    1.41
   6   8 -16   -1.18    1.94
   6  -8 -16    0.07    2.49
  -6  -8  16   -0.05    1.19
  -6  -8  16   -0.31    2.61
  -6   8  16   -0.11    1.90
  -6   8  16    0.44    1.63
   6   8 -15   13.27    3.28
   6  -8 -15   -0.28    4.29
  -6  -8  15   13.04    2.10
  -6  -8  15   15.21    4.25
  -6   8  15   -0.11    3.23
  -6   8  15   13.47    4.35
   6   8 -14   11.53    2.97
   6  -8 -14    0.53    3.92
  -6  -8  14    9.03    3.68
  -6   8  14    0.11    2.95
  -6   8  14   12.54    2.44
  -6  -8  14   12.16    2.95
   6   8 -13    7.02    2.61
   6  -8 -13    0.83    3.50
  -6  -8  13    9.10    1.68
  -6  -8  13    7.01    3.21
  -6   8  13   -0.01    2.55
  -6   8  13    8.42    2.17
   6   8 -12   20.22    3.21
   6  -8 -12   27.08    4.18
  -6  -8  12   21.83    2.06
  -6  -8  12   24.33    3.82
  -6   8  12   22.81    3.15
  -6   8  12   24.59    2.66
   6   8 -11    3.58    2.11
   6  -8 -11    3.96    2.99
  -6  -8  11    4.27    1.36
  -6  -8  11    3.66    2.58
  -6   8  11    5.19    1.75
   6   8 -10    0.97    1.51
   6  -8 -10    1.95    3.75
  -6  -8  10   -0.43    1.57
  -6  -8  10    0.97    1.83
  -6   8  10    1.12    1.26
  -6   8  10    0.94    1.62
   6   8  -9   26.18    2.57
   6  -8  -9   25.88    3.62
  -6  -8   9   25.31    1.77
  -6  -8   9   25.26    3.07
  -6   8   9   27.09    2.21
  -6   8   9   21.28    2.76
   6   8  -8   15.34    2.05
   6  -8  -8   11.72    3.04
  -6  -8   8   10.46    2.45
  -6  -8   8   13.56    1.42
  -6   8   8   13.84    1.69
  -6   8   8   11.17    2.25
   6   8  -7   32.57    3.77
   6  -8  -7   37.08    3.57
  -6  -8   7   37.42    2.94
  -6  -8   7   34.69    1.85
  -6   8   7   37.98    2.07
  -6   8   7   31.50    2.65
   6   8  -6    6.26    1.16
   6  -8  -6    6.23    2.27
   6   8  -6    4.26    1.47
  -6  -8   6    5.69    1.10
  -6  -8   6    6.26    1.75
  -6   8   6    5.30    2.01
  -6   8   6    5.75    1.73
   6   8  -5   87.16    2.68
   6   8  -5   89.86    3.12
   6  -8  -5   91.86    4.07
  -6  -8   5   90.19    2.63
  -6  -8   5   92.15    3.33
  -6   8   5   87.40    3.35
  -6   8   5   89.33    2.72
   6   8  -4   27.14    1.82
   6  -8  -4   26.66    2.54
   6   8  -4   25.52    2.45
  -6  -8   4   27.77    1.98
  -6   8   4   28.79    3.42
  -6   8   4   27.37    1.56
   6   8  -3   51.26    2.13
   6   8  -3   49.95    2.00
   6  -8  -3   51.87    4.53
   6  -8  -3   50.66    2.00
  -6  -8   3   48.51    2.18
  -6   8   3   50.74    1.91
   6   8  -2   30.94    1.71
   6  -8  -2   27.55    3.57
   6  -8  -2   30.91    2.33
  -6  -8   2   28.34    1.67
  -6   8   2   29.56    2.19
   6   8  -1   13.74    1.34
   6  -8  -1   14.12    2.71
   6  -8  -1   10.26    1.14
  -6  -8   1   10.48    1.15
   6   8   0   14.40    1.46
   6  -8   0   15.97    2.60
   6  -8   0   13.70    1.19
   6  -8   0   12.70    1.40
  -6  -8   0   14.05    1.11
  -6  -8   0   11.69    1.13
   6   8   1    4.06    1.24
   6  -8   1    4.88    1.09
   6  -8   1    5.80    0.96
   6  -8   1    5.56    1.21
  -6  -8  -1    5.10    0.83
  -6  -8  -1    4.25    0.89
   6  -8   2  135.48    3.54
   6  -8   2  132.82    4.18
   6  -8   2  135.05    3.36
   6   8   2  135.93    3.91
  -6  -8  -2  131.19    2.87
  -6  -8  -2  132.38    2.84
   6  -8   3   57.81    2.88
   6  -8   3   55.49    2.13
   6  -8   3   60.49    3.03
  -6  -8  -3   55.72    1.75
  -6  -8  -3   53.76    1.67
   6  -8   4    9.38    1.27
   6  -8   4   11.16    1.92
   6  -8   4   14.01    1.24
  -6  -8  -4   10.55    1.04
  -6  -8  -4   11.33    0.91
   6  -8   5   53.36    3.03
   6  -8   5   53.03    1.97
   6  -8   5   51.58    3.00
  -6  -8  -5   49.00    1.63
  -6  -8  -5   49.60    1.77
   6  -8   6    9.13    1.29
   6  -8   6    8.16    1.27
  -6  -8  -6    9.46    0.91
  -6  -8  -6    7.56    1.64
   6  -8   7   14.44    1.48
   6  -8   7   14.74    1.49
  -6  -8  -7   12.89    1.21
   6  -8   8    7.98    1.16
  -6  -8  -8   -0.20    0.93
   6  -8   9    4.71    2.06
  -6  -8  -9    2.86    1.58
   6  -8  10    2.01    1.91
  -6  -8 -10    0.49    1.42
   6  -8  11    1.44    2.10
   6  -8  12    2.53    2.47
   6   9 -15   -0.72    1.93
   6  -9 -15    0.47    2.65
  -6  -9  15    1.62    2.48
  -6   9  15    0.51    2.49
  -6   9  15   -0.22    3.15
  -6  -9  15    0.20    1.12
   6   9 -14    2.24    2.61
   6  -9 -14    0.93    5.47
  -6  -9  14    3.60    1.51
  -6  -9  14    3.72    3.37
  -6   9  14    4.19    2.11
  -6   9  14    4.82    2.59
   6   9 -13   32.76    5.88
   6  -9 -13   35.23    4.98
  -6  -9  13   32.46    3.48
  -6  -9  13   34.71    7.42
  -6   9  13   33.90    3.12
  -6   9  13   30.10    3.64
   6   9 -12    2.73    2.15
   6  -9 -12   -0.23    2.82
  -6  -9  12    2.62    1.23
  -6  -9  12    3.81    2.59
  -6   9  12    0.83    1.69
  -6   9  12    3.59    2.05
   6   9 -11   29.77    3.19
   6  -9 -11   37.59    4.46
  -6  -9  11   29.55    2.96
  -6  -9  11   33.73    3.80
  -6   9  11   25.81    4.13
  -6   9  11   30.98    3.31
   6   9 -10    1.25    1.67
   6  -9 -10    1.61    2.30
  -6  -9  10    1.48    1.96
  -6   9  10    1.30    1.29
  -6   9  10    0.91    2.90
  -6  -9  10    0.73    0.95
   6   9  -9    4.26    3.10
   6  -9  -9    5.42    4.47
  -6  -9   9    3.98    2.26
  -6  -9   9    5.43    1.15
  -6   9   9    6.91    2.44
  -6   9   9    4.35    2.04
   6   9  -8   57.24    3.26
   6  -9  -8   56.13    4.32
  -6  -9   8   56.88    2.27
  -6  -9   8   61.94    3.74
  -6   9   8   58.36    2.71
  -6   9   8   55.61    3.37
   6   9  -7  176.26    6.94
   6  -9  -7  176.65    6.27
  -6  -9   7  180.46    5.65
  -6  -9   7  173.93    4.16
  -6   9   7  177.52    4.58
  -6   9   7  169.61    5.14
   6   9  -6   16.00    2.04
   6   9  -6   21.17    2.29
   6  -9  -6   20.57    2.86
  -6  -9   6   15.88    3.62
  -6   9   6   17.88    1.60
  -6   9   6   16.50    2.20
  -6  -9   6   18.63    1.41
   6   9  -5   15.01    1.79
   6   9  -5   13.81    1.34
   6  -9  -5   16.12    4.32
  -6  -9   5   14.93    1.97
  -6   9   5   13.66    2.01
  -6   9   5   14.44    1.34
   6   9  -4   12.78    1.59
   6   9  -4   13.07    1.99
   6  -9  -4   11.54    2.31
  -6  -9   4   12.81    1.66
  -6   9   4    8.61    1.83
  -6   9   4   10.66    1.22
   6   9  -3   48.07    2.00
   6  -9  -3   49.29    2.95
  -6  -9   3   49.67    2.35
  -6   9   3   50.99    2.66
   6   9  -2   40.87    1.89
   6  -9  -2   39.55    2.56
   6  -9  -2   41.06    2.50
  -6  -9   2   41.53    2.96
  -6   9   2   39.03    1.64
   6  -9  -1   94.19    3.30
   6  -9  -1   91.03    2.50
   6   9  -1   97.12    3.86
  -6  -9   1   94.69    2.83
   6   9   0    7.82    1.31
   6  -9   0    8.37    1.38
   6  -9   0    7.80    1.02
   6  -9   0    8.25    2.55
  -6  -9   0    6.94    1.12
  -6  -9   0    8.89    1.11
   6   9   1  108.70    3.32
   6  -9   1  108.01    3.28
   6  -9   1  111.56    3.64
   6  -9   1  108.69    4.67
  -6  -9  -1  108.47    2.87
  -6  -9  -1  108.28    2.69
   6  -9   2    1.58    1.03
   6  -9   2    1.94    1.27
   6  -9   2    3.12    1.08
   6   9   2    1.15    1.11
  -6  -9  -2    1.71    0.75
  -6  -9  -2    1.16    0.81
   6  -9   3    3.72    1.09
   6  -9   3    3.90    1.11
   6  -9   3    3.14    0.89
  -6  -9  -3    2.29    1.42
  -6  -9  -3    2.86    0.83
   6  -9   4    9.63    1.16
   6  -9   4   10.44    2.17
   6  -9   4   10.57    1.36
  -6  -9  -4   11.58    1.11
  -6  -9  -4   10.60    1.04
   6  -9   5    4.59    1.20
   6  -9   5    4.97    1.08
   6  -9   5    5.83    1.14
  -6  -9  -5    5.04    0.91
  -6  -9  -5    4.40    1.00
   6  -9   6    7.84    1.34
   6  -9   6    8.60    1.87
   6  -9   6    5.14    1.20
  -6  -9  -6    8.50    1.00
  -6  -9  -6    0.07    1.81
   6  -9   7    2.50    0.93
   6  -9   7    1.19    1.66
  -6  -9  -7    0.17    0.84
   6  -9   8   14.41    1.53
   6  -9   8   16.15    1.73
  -6  -9  -8   13.33    1.39
   6  -9   9    0.74    0.91
   6  -9   9    0.08    1.03
  -6  -9  -9    0.86    1.38
   6  -9  10    8.23    1.80
  -6  -9 -10    6.06    2.11
   6  -9  11    7.58    1.86
   6  10 -15    4.68    2.81
   6 -10 -15    0.44    3.83
  -6 -10  15    3.53    3.66
  -6  10  15   -0.28    2.21
  -6  10  15    5.47    2.81
  -6 -10  15    4.92    2.39
   6  10 -14    7.56    2.63
   6 -10 -14   -0.54    3.59
  -6 -10  14    4.67    1.45
  -6 -10  14    2.90    5.48
  -6  10  14    0.20    2.10
  -6  10  14    3.49    2.70
   6  10 -13    1.87    2.16
   6 -10 -13   -0.03    4.75
  -6 -10  13    1.38    1.14
  -6 -10  13    1.05    2.56
  -6  10  13   -0.09    1.64
  -6  10  13    2.31    3.52
   6  10 -12   19.81    3.15
   6 -10 -12    0.81    4.16
  -6 -10  12   18.23    1.73
  -6 -10  12   14.64    6.12
  -6  10  12   20.18    3.87
  -6  10  12   18.39    3.04
   6  10 -11    0.78    2.43
   6 -10 -11    0.53    2.01
  -6 -10  11   -0.68    0.80
  -6 -10  11    1.31    1.74
  -6  10  11   -0.03    1.15
  -6  10  11   -0.58    1.47
   6  10 -10    0.13    1.53
   6 -10 -10    1.63    2.05
  -6 -10  10   -1.60    2.85
  -6 -10  10    0.54    0.79
  -6  10  10    1.38    1.11
  -6  10  10   -2.30    1.53
   6  10  -9   32.49    2.96
   6 -10  -9   32.30    4.04
  -6 -10   9   29.47    1.77
  -6 -10   9   24.74    3.38
  -6  10   9   30.18    2.25
  -6  10   9   26.86    2.98
   6  10  -8   20.31    2.50
   6 -10  -8   18.54    3.33
  -6 -10   8   18.38    2.23
  -6 -10   8   18.99    2.73
  -6  10   8   20.90    1.85
  -6  10   8   17.54    2.55
   6  10  -7   94.18    4.03
   6 -10  -7  101.85    5.03
  -6 -10   7   95.53    4.30
  -6  10   7   97.08    3.14
  -6  10   7   93.45    3.88
  -6 -10   7   93.77    3.64
   6  10  -6    0.20    1.11
   6  10  -6   -0.31    0.72
   6 -10  -6    1.10    1.55
  -6 -10   6   -0.06    1.22
  -6  10   6    1.37    0.78
  -6  10   6   -0.52    1.19
   6  10  -5   14.32    1.85
   6  10  -5   12.54    1.22
   6 -10  -5   11.61    2.48
  -6 -10   5   14.63    1.95
  -6  10   5    9.78    1.97
  -6  10   5   10.96    1.25
   6 -10  -4    0.44    2.50
   6  10  -4    0.63    0.77
  -6 -10   4   -0.05    1.15
  -6  10   4    1.00    0.72
   6  10  -3  266.33    6.58
   6 -10  -3  269.98    6.73
  -6 -10   3  271.13    6.32
  -6  10   3  254.64    5.22
   6  10  -2    2.73    0.99
   6 -10  -2    3.81    1.65
   6 -10  -2    3.71    0.90
  -6 -10   2    3.44    1.19
  -6  10   2    1.81    0.82
   6  10  -1    5.98    1.16
   6 -10  -1    6.75    1.68
   6 -10  -1    6.79    0.94
  -6 -10   1    4.70    2.06
   6 -10   0   35.09    2.17
   6 -10   0   31.10    1.47
   6 -10   0   31.51    2.25
   6  10   0   34.38    2.80
  -6 -10   0   31.91    2.75
  -6 -10   0   30.82    2.70
   6  10   1    9.71    2.12
   6 -10   1    6.65    2.32
   6 -10   1    5.55    1.49
   6 -10   1    7.41    2.46
  -6 -10  -1    7.08    1.15
  -6 -10  -1    6.01    1.18
   6  10   2   19.05    2.75
   6 -10   2   19.46    1.89
   6 -10   2   22.04    1.83
   6 -10   2   18.73    1.82
  -6 -10  -2   19.55    2.25
  -6 -10  -2   20.62    1.43
   6  10   3   18.87    1.84
   6 -10   3   18.18    1.75
   6 -10   3   17.69    1.27
   6 -10   3   18.89    1.71
  -6 -10  -3   18.13    1.41
  -6 -10  -3   17.20    1.41
   6 -10   4   25.46    1.94
   6 -10   4   26.12    1.84
   6 -10   4   24.41    1.44
  -6 -10  -4   25.53    1.58
  -6 -10  -4   26.16    1.54
   6 -10   5   11.98    1.23
   6 -10   5   16.85    2.42
   6 -10   5   11.36    2.51
  -6 -10  -5   13.56    1.95
  -6 -10  -5   12.72    1.33
   6 -10   6   15.75    1.77
   6 -10   6   15.97    1.43
   6 -10   6   19.42    1.62
  -6 -10  -6   14.29    1.48
  -6 -10  -6   15.15    2.10
   6 -10   7   45.72    3.00
   6 -10   7   44.12    2.42
  -6 -10  -7   44.46    2.05
  -6 -10  -7   43.39    2.05
   6 -10   8   -0.26    0.65
   6 -10   8    0.45    0.79
  -6 -10  -8    0.01    1.06
   6 -10   9   22.23    2.07
  -6 -10  -9   17.76    1.72
   6 -10  10    1.26    1.44
  -6 -10 -10    1.43    1.05
   6 -10  11   -0.71    1.36
   6  11 -14    1.15    2.51
   6 -11 -14    1.00    3.38
  -6 -11  14    2.69    3.20
  -6  11  14   -0.27    1.86
  -6  11  14    3.81    2.49
  -6 -11  14    3.23    1.98
   6  11 -13   17.61    3.56
   6 -11 -13   -0.84    4.57
  -6 -11  13   16.69    4.14
  -6 -11  13   16.65    1.75
  -6  11  13   17.50    2.60
  -6  11  13   19.07    3.37
   6  11 -12    5.68    2.56
   6 -11 -12    0.01    5.64
  -6 -11  12    5.83    1.90
  -6 -11  12    5.64    2.97
  -6  11  12   -0.10    1.80
  -6  11  12    5.65    2.49
   6 -11 -11   72.20    5.55
   6  11 -11   62.46    4.44
  -6 -11  11   70.77    7.63
  -6 -11  11   63.87    2.52
  -6  11  11   61.16    4.15
  -6  11  11   63.63    3.41
   6  11 -10    2.19    2.16
   6 -11 -10   -0.20    2.83
  -6 -11  10    6.10    2.43
  -6  11  10    2.92    2.42
  -6  11  10    5.80    2.13
  -6 -11  10    3.35    1.06
   6  11  -9   32.04    3.19
   6 -11  -9   35.21    4.22
  -6 -11   9   32.85    2.52
  -6 -11   9   33.19    5.49
  -6  11   9   29.40    2.28
  -6  11   9   31.78    3.15
   6  11  -8   32.91    4.51
   6 -11  -8   29.91    3.78
  -6 -11   8   30.99    3.18
  -6 -11   8   29.03    2.34
  -6  11   8   28.80    2.02
  -6  11   8   24.26    2.91
   6  11  -7    3.36    1.79
   6 -11  -7    4.45    2.35
  -6 -11   7    3.02    1.90
  -6  11   7    3.23    1.82
  -6  11   7    2.98    1.78
   6  11  -6    8.34    1.92
   6  11  -6    6.98    1.10
   6 -11  -6    8.67    2.59
  -6  11   6    5.28    1.96
  -6  11   6    6.43    1.19
  -6 -11   6    9.51    2.08
   6  11  -5    5.67    1.63
   6  11  -5    4.50    0.99
   6 -11  -5    3.68    2.20
  -6 -11   5    6.05    1.75
  -6  11   5    2.66    1.61
   6  11  -4    3.23    0.95
   6 -11  -4    3.32    1.91
  -6 -11   4    3.53    1.52
  -6  11   4    4.22    0.91
   6  11  -3   22.51    1.44
   6 -11  -3   18.57    4.09
  -6 -11   3   23.09    3.15
  -6  11   3   20.75    1.29
   6 -11  -2    9.73    2.05
   6  11  -2    8.97    1.94
  -6 -11   2   10.71    1.64
   6  11  -1   23.40    1.60
   6 -11  -1   26.86    2.37
   6 -11  -1   24.68    1.30
  -6 -11   1   24.01    1.96
   6  11   0    3.14    1.06
   6 -11   0    3.46    0.77
   6 -11   0    4.81    2.29
   6 -11   0    2.47    1.45
  -6 -11   0    2.55    1.18
  -6 -11   0    1.93    1.10
   6 -11   1   90.02    2.36
   6 -11   1   93.30    4.92
   6 -11   1   94.25    5.02
   6  11   1   94.83    3.12
  -6 -11  -1   90.97    4.15
  -6 -11  -1   90.75    2.81
   6  11   2   70.50    2.82
   6 -11   2   69.13    3.19
   6 -11   2   70.45    2.82
   6 -11   2   75.28    2.98
  -6 -11  -2   72.93    2.65
  -6 -11  -2   73.32    3.62
   6  11   3  155.82    4.53
   6 -11   3  151.44    4.70
   6 -11   3  146.89    4.29
   6 -11   3  162.56    4.37
  -6 -11  -3  156.34    4.15
  -6 -11  -3  153.37    3.88
   6 -11   4    3.30    1.42
   6 -11   4    3.27    0.87
   6 -11   4    4.31    1.36
  -6 -11  -4    4.01    1.84
  -6 -11  -4    4.59    1.12
   6 -11   5   17.44    1.78
   6 -11   5   15.91    1.29
   6 -11   5   14.95    2.97
  -6 -11  -5   16.46    1.57
  -6 -11  -5   17.69    2.35
   6 -11   6    7.87    1.11
   6 -11   6    7.67    2.59
   6 -11   6    7.36    1.50
  -6 -11  -6    8.55    1.29
  -6 -11  -6    8.73    1.36
   6 -11   7    0.04    1.13
   6 -11   7    1.06    1.00
   6 -11   7   -0.28    1.24
  -6 -11  -7    1.57    0.90
  -6 -11  -7   -0.27    1.53
   6 -11   8    0.58    0.76
   6 -11   8   -0.07    1.06
  -6 -11  -8    0.40    0.82
  -6 -11  -8   -0.02    0.86
   6 -11   9    7.75    1.57
  -6 -11  -9   -0.17    1.31
   6 -11  10    0.30    1.15
  -6 -11 -10   -0.02    0.84
   6  12 -13    1.86    4.13
   6 -12 -13   -0.15    3.41
  -6 -12  13    1.75    3.05
  -6 -12  13    2.87    1.09
  -6  12  13    1.33    2.47
  -6  12  13   -0.17    2.82
   6  12 -12    1.68    2.11
   6 -12 -12   -0.09    2.78
  -6 -12  12    1.29    2.54
  -6 -12  12    1.11    0.91
  -6  12  12   -0.04    1.45
  -6  12  12    1.57    2.08
   6  12 -11    3.70    2.29
   6 -12 -11   -0.11    3.04
  -6 -12  11    3.33    1.00
  -6 -12  11    2.95    2.55
  -6  12  11    0.49    2.26
  -6  12  11    1.44    1.58
   6  12 -10    2.69    1.56
   6 -12 -10   -0.94    2.03
  -6 -12  10    1.28    1.76
  -6  12  10    0.35    1.02
  -6  12  10   -0.42    1.53
  -6 -12  10   -0.26    0.68
   6  12  -9   26.20    3.11
   6 -12  -9    0.53    6.38
  -6 -12   9   22.91    2.19
  -6 -12   9   21.32    3.36
  -6  12   9   25.63    2.07
  -6  12   9   20.86    3.02
   6 -12  -8    2.71    2.44
   6  12  -8    1.33    1.85
  -6 -12   8    2.99    3.14
  -6  12   8    1.69    1.14
  -6  12   8    2.23    2.99
   6  12  -7   54.14    3.54
   6 -12  -7   49.42    4.25
  -6 -12   7   52.16    3.65
  -6  12   7   47.01    3.31
  -6  12   7   48.26    2.28
   6  12  -6   16.69    2.55
   6 -12  -6   18.90    5.21
  -6 -12   6   21.91    2.63
  -6  12   6   19.18    1.49
   6  12  -5   87.70    2.54
   6 -12  -5   94.03    4.69
  -6 -12   5   86.94    3.98
  -6  12   5   81.68    2.55
   6  12  -4   12.50    1.24
   6 -12  -4   11.87    2.57
  -6 -12   4   13.69    2.11
  -6  12   4   14.45    1.19
   6  12  -3   72.30    2.30
   6 -12  -3   73.48    3.82
  -6  12   3   67.85    2.79
  -6 -12   3   72.10    3.24
   6  12  -2    5.67    1.08
   6 -12  -2    7.67    3.33
  -6 -12   2    6.43    1.58
   6  12  -1   46.92    2.95
   6 -12  -1   47.44    3.00
   6 -12  -1   44.64    3.04
  -6 -12   1   46.10    2.60
  -6 -12   1   45.35    2.39
   6  12   0   14.06    1.46
   6 -12   0   15.46    2.17
   6 -12   0   14.14    1.05
   6 -12   0   18.65    2.11
  -6 -12   0   14.38    1.75
  -6 -12   0   16.65    1.68
   6  12   1   -0.18    0.66
   6 -12   1   -0.87    0.90
   6 -12   1    0.13    0.41
   6 -12   1    0.59    1.48
  -6 -12  -1   -1.49    1.16
  -6 -12  -1    0.84    0.68
   6  12   2    2.38    1.21
   6 -12   2    2.63    1.54
   6 -12   2    3.90    0.71
   6 -12   2    4.31    1.51
  -6 -12  -2    1.65    1.23
  -6 -12  -2    4.33    1.97
   6  12   3    5.21    1.37
   6 -12   3    4.22    1.53
   6 -12   3    3.63    1.50
   6 -12   3    3.58    1.23
  -6 -12  -3    4.51    1.27
  -6 -12  -3    2.87    1.22
   6  12   4    3.84    1.43
   6 -12   4    4.76    1.56
   6 -12   4    5.07    1.29
   6 -12   4    7.00    2.43
  -6 -12  -4    3.91    1.24
  -6 -12  -4    0.43    1.99
   6 -12   5   86.14    3.65
   6 -12   5   81.92    3.23
   6 -12   5   90.13    3.36
  -6 -12  -5   86.88    3.17
  -6 -12  -5   91.18    4.42
   6 -12   6    0.77    1.24
   6 -12   6    1.89    1.90
   6 -12   6    1.18    1.14
  -6 -12  -6    1.31    1.04
  -6 -12  -6    0.36    1.01
   6 -12   7   28.47    2.23
   6 -12   7   26.22    2.26
   6 -12   7   32.30    3.76
  -6 -12  -7   27.31    2.00
  -6 -12  -7   26.54    2.07
   6 -12   8    1.60    1.39
   6 -12   8    6.95    2.52
  -6 -12  -8    4.07    1.27
  -6 -12  -8   -0.04    2.11
   6 -12   9   12.66    2.94
  -6 -12  -9    6.79    1.47
  -6 -12  -9   -0.06    2.41
   6  13 -12    1.69    3.03
   6 -13 -12   -0.69    2.48
  -6 -13  12    0.25    3.56
  -6 -13  12    0.37    0.74
  -6  13  12   -0.52    1.85
  -6  13  12    0.08    1.20
   6  13 -11   17.88    3.42
   6 -13 -11   -0.73    7.05
  -6 -13  11   18.92    3.82
  -6  13  11   18.26    3.39
  -6  13  11   14.03    3.28
  -6 -13  11   15.51    1.39
   6  13 -10    0.25    2.19
   6 -13 -10   -0.20    2.81
  -6 -13  10    2.33    0.84
  -6 -13  10    1.53    3.88
  -6  13  10    1.72    1.37
  -6  13  10    0.83    2.07
   6  13  -9   21.16    3.26
   6 -13  -9    1.05    4.05
  -6 -13   9   27.25    3.49
  -6  13   9   22.40    3.01
  -6  13   9   25.12    3.09
   6  13  -8   -0.19    1.91
   6 -13  -8   -0.14    4.17
  -6 -13   8    0.59    2.04
  -6  13   8    2.15    1.07
  -6  13   8    2.79    1.86
   6  13  -7   35.05    3.29
   6 -13  -7   39.53    4.09
  -6 -13   7   28.69    3.35
  -6  13   7   33.85    1.93
   6 -13  -6    0.18    1.50
  -6 -13   6   -0.53    1.25
  -6  13   6    0.18    0.62
   6  13  -5    2.48    0.86
   6 -13  -5    1.19    3.78
  -6  13   5    3.11    0.88
  -6 -13   5    2.25    2.95
   6  13  -4    6.01    1.00
   6 -13  -4    6.22    2.41
  -6 -13   4    5.74    1.98
  -6  13   4    6.97    1.48
   6  13  -3   77.41    2.41
   6 -13  -3   80.31    4.18
  -6 -13   3   78.64    3.64
  -6  13   3   74.75    2.14
   6  13  -2    0.94    0.74
   6 -13  -2   -1.21    2.63
  -6 -13   2    0.47    1.98
   6  13  -1   69.88    2.44
   6 -13  -1   74.52    3.74
   6 -13  -1   75.30    3.82
  -6 -13   1   73.04    3.01
  -6 -13   1   71.28    3.27
   6  13   0    1.16    0.90
   6 -13   0   -0.82    1.50
   6 -13   0    1.69    1.51
  -6 -13   0    2.44    1.28
  -6 -13   0    1.30    1.13
   6  13   1  175.07    5.65
   6 -13   1  177.37    5.84
   6 -13   1  184.85    7.47
  -6 -13  -1  182.45    6.65
  -6 -13  -1  180.42    6.08
   6 -13   2   -0.08    1.10
   6 -13   2    0.17    0.68
   6 -13   2   -0.60    1.07
   6  13   2    0.59    1.26
  -6 -13  -2   -0.47    0.89
  -6 -13  -2   -0.22    0.84
   6  13   3   29.57    2.07
   6 -13   3   23.77    1.19
   6 -13   3   32.66    2.42
   6 -13   3   27.63    2.62
  -6 -13  -3   27.91    2.16
  -6 -13  -3   29.84    2.04
   6  13   4    1.98    1.33
   6 -13   4    1.55    1.49
   6 -13   4    2.23    0.68
   6 -13   4    1.05    1.58
  -6 -13  -4    2.63    1.28
  -6 -13  -4    5.01    1.22
   6 -13   5   10.20    1.94
   6 -13   5    8.85    0.93
   6 -13   5    7.11    1.83
  -6 -13  -5    9.14    1.57
  -6 -13  -5   11.67    1.64
   6 -13   6    3.99    1.53
   6 -13   6    0.53    0.75
   6 -13   6    3.53    1.41
  -6 -13  -6    4.66    2.09
  -6 -13  -6    3.31    1.95
   6 -13   7    0.49    1.10
   6 -13   7   -0.93    1.20
  -6 -13  -7    0.22    1.00
  -6 -13  -7    0.88    0.96
   6 -13   8    0.11    1.35
   6 -13   8    4.46    1.52
  -6 -13  -8    2.93    1.97
  -6 -13  -8   -0.20    1.32
   6  14 -11    4.06    2.63
   6 -14 -11    0.18    3.39
  -6 -14  11    4.79    2.98
  -6  14  11    2.35    1.57
  -6  14  11    3.70    4.25
   6  14 -10    8.01    2.92
   6 -14 -10    0.70    3.68
  -6  14  10    7.94    2.55
  -6  14  10    6.52    2.78
  -6 -14  10    7.55    3.14
   6  14  -9    8.43    2.78
   6 -14  -9    1.14    3.55
  -6 -14   9    9.74    2.99
  -6  14   9    8.91    1.56
  -6  14   9    7.52    2.66
   6 -14  -8    2.14    2.58
  -6 -14   8    0.48    2.19
  -6  14   8    2.35    1.09
   6 -14  -7  103.42    5.79
  -6 -14   7   89.81    7.17
  -6  14   7   85.49    3.87
   6 -14  -6   -0.47    2.09
  -6 -14   6    1.12    1.71
  -6  14   6    0.89    0.77
   6  14  -5   88.77    2.47
   6 -14  -5  101.17    7.73
  -6 -14   5   97.66    4.59
  -6  14   5   89.16    2.57
   6  14  -4    0.07    0.56
   6 -14  -4    0.13    1.50
  -6 -14   4   -0.56    1.27
  -6  14   4    0.32    0.53
   6  14  -3   45.38    2.57
   6 -14  -3   57.92    3.78
  -6 -14   3   50.57    3.28
   6 -14  -2   -0.35    2.48
   6  14  -2    0.45    0.66
  -6 -14   2   -0.56    2.01
  -6 -14   2    0.48    1.15
   6  14  -1   28.93    2.39
   6 -14  -1   30.54    2.95
   6 -14  -1   27.86    4.62
  -6 -14   1   31.76    3.70
  -6 -14   1   25.17    2.46
   6  14   0    3.36    1.01
   6 -14   0    3.66    1.86
   6 -14   0    3.86    1.83
  -6 -14   0    2.40    1.57
  -6 -14   0    2.89    2.32
   6  14   1    1.26    0.93
   6 -14   1    0.05    1.57
   6 -14   1    1.12    1.52
  -6 -14  -1   -0.24    2.06
  -6 -14  -1    1.83    1.19
   6  14   2    2.15    1.00
   6 -14   2    1.83    1.52
   6 -14   2    1.12    1.46
  -6 -14  -2   -0.08    1.27
  -6 -14  -2    0.15    1.17
   6  14   3   16.59    1.80
   6 -14   3   19.82    2.44
   6 -14   3   15.47    3.73
  -6 -14  -3   16.77    1.92
  -6 -14  -3   13.97    3.19
   6  14   4   -0.10    1.81
   6 -14   4    0.32    1.49
   6 -14   4    1.03    1.41
  -6 -14  -4    0.17    1.21
  -6 -14  -4    2.75    1.19
   6  14   5   37.78    2.57
   6 -14   5   44.57    4.42
   6 -14   5   39.82    3.09
  -6 -14  -5   38.81    2.48
  -6 -14  -5   36.92    2.58
   6 -14   6    0.66    1.35
   6 -14   6   -0.03    1.23
  -6 -14  -6   -0.27    1.10
  -6 -14  -6    1.30    1.10
   6 -14   7   10.21    2.16
   6 -14   7    0.11    3.14
  -6 -14  -7   10.51    2.69
  -6 -14  -7    8.37    2.80
   6  15 -10    1.33    1.85
   6 -15 -10   -0.24    3.79
  -6 -15  10   -1.01    1.96
  -6  15  10    0.23    0.97
  -6  15  10   -0.06    1.64
   6 -15  -9   -0.42    3.16
  -6 -15   9    5.76    4.18
   6 -15  -8   -2.20    2.13
  -6 -15   8    1.55    1.77
  -6  15   8    0.29    0.80
   6 -15  -7    3.67    4.69
  -6 -15   7    2.83    2.29
  -6  15   7    2.62    1.02
   6 -15  -6    3.77    2.43
  -6 -15   6    1.42    1.95
  -6  15   6    1.25    0.80
   6 -15  -5    1.99    2.08
  -6 -15   5    0.62    1.78
  -6  15   5    0.96    1.11
   6  15  -4   -0.06    0.86
   6 -15  -4   -1.71    1.67
  -6 -15   4   -1.12    1.42
  -6  15   4    0.00    0.53
   6  15  -3   16.88    1.20
   6 -15  -3   18.50    3.01
  -6 -15   3   17.62    2.59
   6  15  -2    0.23    0.81
   6 -15  -2   -0.08    2.15
   6 -15  -2   -0.92    1.29
  -6 -15   2    0.11    0.98
  -6 -15   2   -0.05    1.75
   6  15  -1   75.14    2.53
   6 -15  -1   84.38    4.37
   6 -15  -1   84.03    4.53
  -6 -15   1   80.71    3.96
  -6 -15   1   86.83    3.55
   6  15   0   -0.24    0.54
   6 -15   0    1.96    1.77
   6 -15   0    0.08    1.08
  -6 -15   0    0.56    0.82
  -6 -15   0   -0.65    0.93
   6  15   1   73.81    3.69
   6 -15   1   80.87    6.35
   6 -15   1   87.33    4.14
  -6 -15  -1   83.63    3.80
  -6 -15  -1   80.71    3.39
   6  15   2    0.14    1.58
   6 -15   2    1.21    1.75
   6 -15   2    0.06    1.62
  -6 -15  -2    2.23    1.40
  -6 -15  -2    2.14    1.32
   6  15   3   31.37    2.15
   6 -15   3   34.60    3.11
   6 -15   3   36.20    2.97
  -6 -15  -3   30.55    4.01
  -6 -15  -3   33.43    2.47
   6  15   4    1.40    0.94
   6 -15   4    0.22    1.32
   6 -15   4   -0.13    1.34
  -6 -15  -4   -1.73    1.09
  -6 -15  -4   -1.39    1.13
   6  15   5   10.31    1.64
   6 -15   5    5.07    2.17
   6 -15   5   -0.18    2.08
  -6 -15  -5    9.08    1.76
  -6 -15  -5    6.09    2.85
   6  15   6    0.58    1.15
   6 -15   6   -0.20    1.32
   6 -15   6    0.16    1.43
  -6 -15  -6    1.44    1.16
  -6 -15  -6   -0.40    1.16
   6 -16  -8    9.72    4.07
  -6 -16   8   13.68    3.38
  -6  16   8   11.92    1.45
   6 -16  -7   25.58    7.27
  -6 -16   7   26.55    3.54
  -6  16   7   20.20    1.50
   6 -16  -6    3.77    2.65
  -6 -16   6    0.69    2.17
   6 -16  -5   60.42    4.87
  -6 -16   5   57.54    4.22
   6 -16  -4    4.70    2.49
  -6 -16   4    1.42    2.10
   6 -16  -3   70.70    4.70
   6 -16  -3   66.32    4.79
  -6 -16   3   65.97    4.25
  -6 -16   3   67.60    3.78
   6 -16  -2    0.81    3.38
   6 -16  -2    2.02    1.98
  -6 -16   2   -1.04    2.71
  -6 -16   2    1.79    2.55
   6  16  -1    0.61    0.71
   6 -16  -1    0.02    1.81
   6 -16  -1    2.38    1.78
  -6 -16   1   -0.41    1.51
  -6 -16   1    1.31    1.37
   6  16   0    1.52    1.37
   6 -16   0    2.85    2.03
   6 -16   0    0.19    3.23
  -6 -16   0    2.17    1.65
  -6 -16   0    1.98    1.51
   6  16   1    0.93    0.77
   6 -16   1   -1.20    1.63
   6 -16   1   -0.28    1.57
  -6 -16  -1    1.64    1.36
  -6 -16  -1   -0.67    1.26
   6  16   2    0.82    0.87
   6 -16   2   -0.60    2.58
   6 -16   2    0.11    2.66
  -6 -16  -2    1.22    1.36
  -6 -16  -2   -0.21    1.26
   6  16   3    2.05    1.22
   6 -16   3    4.39    2.04
   6 -16   3    0.05    2.00
  -6 -16  -3    3.61    1.63
  -6 -16  -3    6.42    1.70
   6  16   4    1.85    2.08
   6 -16   4    4.30    2.10
   6 -16   4    0.01    3.30
  -6 -16  -4    3.66    1.67
  -6 -16  -4    4.70    1.79
   6 -17  -6    1.72    3.10
  -6 -17   6    4.48    2.52
   6 -17  -5   -0.47    1.99
  -6 -17   5    0.01    1.66
   6 -17  -4   26.59    4.16
  -6 -17   4   27.57    3.48
   6 -17  -3   10.58    3.27
   6 -17  -3   12.25    3.22
  -6 -17   3   12.35    2.75
  -6 -17   3   12.10    2.54
   6 -17  -2   -0.25    1.90
   6 -17  -2    0.94    1.90
  -6 -17   2   -0.77    2.55
  -6 -17   2   -1.18    1.48
   6 -17  -1   35.60    3.87
   6 -17  -1   37.80    6.05
  -6 -17   1   33.93    3.39
  -6 -17   1   35.08    3.08
   6 -17   0   -0.32    3.05
   6 -17   0    1.39    1.82
  -6 -17   0    1.28    2.46
  -6 -17   0   -1.19    2.34
   6 -17   1   46.01    4.09
   6 -17   1   48.38    3.98
  -6 -17  -1   49.69    3.56
  -6 -17  -1   47.30    3.16
   6 -17   2    5.09    2.32
   6 -17   2    0.11    3.84
  -6 -17  -2   -0.56    3.11
  -6 -17  -2    5.52    1.80
  -7   0  17   -0.12    2.51
  -7   0  17   -0.04    2.17
  -7   0  16    0.03    1.40
   7   0 -15    0.05    1.53
  -7   0  15    0.02    1.31
  -7   0  14   -0.14    1.39
  -7   0  13    0.71    1.54
  -7   0  12    2.04    2.30
  -7   0  12    2.10    2.69
   7   0 -11   -0.17    1.31
  -7   0  11   -0.16    1.47
  -7   0  11    0.00    1.09
   7   0 -10   26.54    2.88
  -7   0  10   29.50    3.20
  -7   0  10   25.86    3.86
   7   0  -9   -0.27    1.12
  -7   0   9   -0.82    1.28
  -7   0   9    0.44    0.94
   7   0  -8   85.17    3.46
  -7   0   8   82.88    3.83
  -7   0   8   83.90    3.32
   7   0  -7    2.16    1.14
   7   0  -7    0.18    1.19
  -7   0   7   -0.06    1.29
  -7   0   7    1.56    1.88
   7   0  -6  221.31    5.41
   7   0  -6  221.29    5.08
  -7   0   6  215.69    5.08
  -7   0   6  217.09    5.25
   7   0  -5    1.29    1.02
   7   0  -5    0.44    0.81
  -7   0   5    0.01    0.91
  -7   0   5    0.31    0.98
   7   0  -4  205.12    4.15
   7   0  -4  202.34    6.29
  -7   0   4  210.17    5.00
  -7   0   4  201.71    4.04
   7   0  -3   -0.34    0.82
   7   0  -3    1.61    0.91
  -7   0   3   -0.01    0.53
  -7   0   3    1.31    1.46
   7   0  -2  456.24    9.15
   7   0  -2  463.60    7.74
   7   0  -1    0.14    0.87
   7   0  -1    0.17    0.20
  -7   0   1    0.22    0.34
   7   0   0    9.06    1.51
   7   0   1   -0.33    0.93
   7   0   2    2.70    1.30
   7   0   3   -0.14    0.92
   7   0   4   73.52    3.19
   7   0   9    0.14    0.14
   7  -1 -17   -0.20    2.03
  -7  -1  17   -0.22    1.60
  -7   1  17    0.08    1.65
   7   1 -16    0.12    1.59
  -7  -1  16   -0.19    1.30
  -7   1  16    0.20    2.16
  -7  -1  15    0.25    1.85
  -7  -1  15    0.02    1.29
  -7   1  15   -0.03    1.35
   7  -1 -14    0.25    3.23
  -7  -1  14   19.98    2.62
  -7   1  14   -0.31    3.39
  -7   1  14   20.51    2.73
  -7   1  13    0.08    2.42
  -7  -1  13    2.71    2.91
  -7   1  13    4.07    1.86
   7   1 -12   44.87    3.67
  -7   1  12   41.12    3.99
  -7   1  12   45.07    3.15
  -7  -1  12   44.54    3.09
   7   1 -11    5.09    1.99
   7  -1 -11    4.09    2.20
  -7  -1  11    3.03    2.39
  -7  -1  11    4.18    1.70
  -7   1  11    3.93    1.80
  -7   1  11    4.30    2.30
   7   1 -10  105.28    4.32
   7  -1 -10   93.88    4.52
  -7   1  10  106.78    4.03
  -7  -1  10  102.71    3.84
  -7  -1  10  101.53    4.85
  -7   1  10  101.84    4.72
   7   1  -9    1.59    1.57
   7  -1  -9    3.44    1.76
  -7  -1   9    3.02    1.91
  -7   1   9    2.19    1.46
  -7   1   9    2.12    1.87
  -7  -1   9    2.98    1.46
   7   1  -8  122.38    4.06
   7  -1  -8  123.80    4.38
  -7  -1   8  123.70    4.52
  -7  -1   8  123.58    4.03
  -7   1   8  122.94    5.51
  -7   1   8  126.42    4.50
   7   1  -7    3.56    1.47
   7   1  -7    4.09    1.34
   7  -1  -7    4.04    2.53
   7  -1  -7    3.13    1.46
  -7  -1   7    2.92    1.40
  -7   1   7    4.57    2.60
  -7   1   7    3.98    1.38
  -7  -1   7    3.73    1.65
   7   1  -6   16.46    2.88
   7   1  -6   14.88    1.58
   7  -1  -6   17.57    1.84
   7  -1  -6   16.17    1.91
  -7  -1   6   16.53    1.93
  -7  -1   6   16.60    1.69
  -7   1   6   15.31    1.83
  -7   1   6   16.53    1.79
   7   1  -5   18.43    1.80
   7   1  -5   17.02    2.14
   7  -1  -5   17.23    1.70
   7  -1  -5   18.09    1.84
  -7  -1   5   19.21    2.78
  -7  -1   5   19.80    2.69
  -7   1   5   19.81    2.60
  -7   1   5   16.26    1.75
   7   1  -4   64.50    2.71
   7   1  -4   65.74    1.92
   7  -1  -4   66.09    2.23
   7  -1  -4   66.47    2.75
  -7  -1   4   65.38    2.72
  -7  -1   4   66.37    2.16
  -7   1   4   63.33    2.62
  -7   1   4   64.42    3.01
   7   1  -3   44.55    2.30
   7   1  -3   44.06    1.35
   7  -1  -3   43.38    2.35
   7  -1  -3   46.10    3.43
  -7  -1   3   44.49    2.27
  -7   1   3   43.15    1.42
  -7   1   3   42.53    2.21
  -7  -1   3   44.03    1.47
   7   1  -2  204.00    3.67
   7   1  -2  195.16    4.87
   7  -1  -2  201.79    3.46
   7  -1  -2  201.35    4.86
   7   1  -1    2.54    0.41
   7   1  -1    3.66    1.23
   7  -1  -1    3.29    0.67
   7  -1  -1    3.64    1.22
  -7  -1   1    3.20    0.48
  -7   1   1    3.63    0.61
   7   1   0   57.38    2.55
   7  -1   0   57.65    2.47
   7  -1   0   53.10    0.69
   7  -1   0   55.32    0.83
   7  -1   1    5.03    1.38
   7   1   1    5.26    1.43
   7   1   2  236.23    5.80
   7  -1   2  241.19    5.74
   7   1   3   21.41    2.09
   7  -1   3   21.79    3.18
   7  -1   4   14.36    1.87
   7  -1   8    0.01    0.16
   7  -1   9    0.56    0.38
  -7  -2  17    0.06    1.50
  -7   2  17   -0.26    1.64
  -7  -2  16   -0.12    1.53
  -7   2  16    0.03    2.06
  -7   2  16   -0.34    1.65
  -7  -2  15   -0.02    1.09
  -7   2  15    0.16    1.45
  -7   2  15   -0.21    1.90
  -7  -2  14   -0.17    1.71
  -7  -2  14   -0.02    1.15
  -7   2  14    0.00    1.25
  -7   2  14    0.05    1.51
   7  -2 -13    1.06    2.20
   7   2 -13    1.97    1.96
  -7  -2  13    2.82    1.64
  -7   2  13   -0.02    2.12
  -7   2  13    0.75    1.69
   7   2 -12   -0.23    1.36
  -7  -2  12   -0.34    1.15
  -7   2  12   -0.14    1.25
  -7   2  12    0.34    1.54
   7   2 -11   -0.20    1.36
  -7  -2  11   -0.19    1.85
  -7   2  11    0.48    1.24
  -7   2  11    0.80    1.55
   7   2 -10    6.22    1.92
   7  -2 -10    6.63    2.38
  -7  -2  10    5.29    2.53
  -7   2  10    6.18    1.84
  -7   2  10    6.38    2.26
  -7  -2  10    6.76    1.76
   7   2  -9    0.41    1.31
   7  -2  -9    1.81    1.60
  -7  -2   9    1.39    1.72
  -7  -2   9    0.20    1.97
  -7   2   9    1.06    1.56
  -7   2   9    0.34    1.25
   7   2  -8   52.13    2.72
   7  -2  -8   54.01    5.26
  -7   2   8   51.15    3.12
  -7  -2   8   49.45    3.38
  -7  -2   8   51.65    2.66
  -7   2   8   48.88    2.72
   7   2  -7   50.35    2.42
   7  -2  -7   45.23    2.62
   7  -2  -7   46.63    2.98
   7   2  -7   43.92    3.91
  -7  -2   7   49.03    2.97
  -7  -2   7   45.17    2.53
  -7   2   7   44.81    2.68
  -7   2   7   45.85    2.52
   7   2  -6  342.11    9.07
   7   2  -6  349.93    8.33
   7  -2  -6  347.18    7.58
   7  -2  -6  355.06    7.63
  -7  -2   6  346.55    7.42
  -7  -2   6  351.68    7.52
  -7   2   6  346.67    7.54
  -7   2   6  340.99    6.96
   7   2  -5   36.98    1.70
   7  -2  -5   34.93    2.25
   7  -2  -5   36.28    2.24
   7   2  -5   35.20    2.19
  -7  -2   5   37.85    2.18
  -7  -2   5   35.93    2.12
  -7   2   5   33.41    1.91
  -7   2   5   36.38    2.17
   7   2  -4  291.35    5.41
   7   2  -4  288.28    6.36
   7  -2  -4  292.45    7.45
   7  -2  -4  291.79    6.44
  -7  -2   4  295.53    6.49
  -7  -2   4  297.26    7.05
  -7   2   4  292.93    5.36
  -7   2   4  297.85    6.43
   7   2  -3    4.52    0.66
   7   2  -3    3.95    1.35
   7  -2  -3    4.62    1.35
   7  -2  -3    5.86    1.07
  -7  -2   3    4.18    1.35
  -7  -2   3    4.20    0.84
  -7   2   3    4.39    1.39
  -7   2   3    5.89    1.29
   7   2  -2  281.94    4.48
   7   2  -2  275.09    6.12
   7  -2  -2  283.35    6.12
   7  -2  -2  283.05    4.95
  -7   2   2  281.18    6.12
   7   2  -1    6.49    0.53
   7   2  -1    8.20    2.31
   7  -2  -1    9.08    1.45
   7  -2  -1    8.25    0.74
  -7  -2   1    7.37    0.43
   7   2   0    2.27    2.00
   7  -2   0    3.04    0.29
   7  -2   0    1.83    0.67
   7  -2   0    3.07    1.91
   7   2   1   27.05    3.25
   7  -2   1   26.61    0.50
   7  -2   1   26.30    0.59
   7  -2   1   28.22    3.00
   7   2   2   33.69    2.33
   7  -2   2   34.62    2.22
   7   2   3    2.15    1.32
   7  -2   3    2.22    1.23
   7  -2   4    2.56    1.28
   7  -2   7    3.64    0.25
   7  -2   7    3.64    0.34
   7  -2   8   -0.16    0.36
   7  -2   9    2.19    0.39
  -7  -3  17    0.01    1.27
  -7   3  17   -0.03    1.41
  -7  -3  16   -0.33    2.28
  -7  -3  16   -0.22    1.48
  -7   3  16    0.96    1.68
   7   3 -15   -0.13    1.86
  -7  -3  15   -0.07    2.39
  -7   3  15    1.86    2.71
   7   3 -14   -0.33    2.17
  -7   3  14    6.53    1.96
  -7  -3  14   -0.07    1.78
   7   3 -13    6.57    2.27
   7  -3 -13    5.51    4.31
  -7  -3  13    0.07    2.84
  -7  -3  13    4.34    1.86
  -7   3  13   -0.08    2.45
  -7   3  13    5.68    2.09
   7   3 -12   43.12    3.52
   7  -3 -12   41.14    4.14
  -7  -3  12   44.24    4.27
  -7  -3  12   43.73    3.03
  -7   3  12   36.26    3.77
  -7   3  12   45.93    3.27
   7   3 -11    1.24    1.53
  -7  -3  11    0.83    1.35
  -7   3  11   -0.29    1.74
  -7   3  11    1.05    2.31
   7   3 -10  268.54    7.18
   7  -3 -10  265.99    7.94
  -7  -3  10  273.33    6.88
  -7  -3  10  273.80   11.05
  -7   3  10  265.04    7.07
  -7   3  10  252.57    7.17
   7   3  -9   45.53    2.81
   7  -3  -9   45.70    3.64
  -7  -3   9   43.34    3.54
  -7   3   9   46.05    3.24
  -7   3   9   45.07    4.24
  -7  -3   9   48.13    2.69
   7   3  -8    0.33    1.21
   7   3  -8    1.25    1.19
   7  -3  -8    0.88    2.87
  -7  -3   8    0.26    1.88
  -7   3   8    2.57    1.26
  -7   3   8    1.55    2.49
  -7  -3   8    0.55    1.63
   7   3  -7   32.35    3.47
   7   3  -7   32.84    3.19
   7  -3  -7   33.58    2.92
  -7  -3   7   34.61    2.17
  -7   3   7   32.82    2.40
  -7   3   7   35.77    2.26
  -7  -3   7   34.17    2.74
   7   3  -6   35.72    1.89
   7   3  -6   34.63    2.19
   7  -3  -6   36.48    2.30
   7  -3  -6   33.98    2.66
  -7  -3   6   32.90    2.45
  -7  -3   6   34.62    2.14
  -7   3   6   36.74    2.21
  -7   3   6   34.53    3.52
   7   3  -5   19.22    2.08
   7   3  -5   17.97    1.79
   7  -3  -5   18.16    3.22
   7  -3  -5   18.54    2.88
  -7  -3   5   18.64    1.76
  -7  -3   5   16.87    1.77
  -7   3   5   18.18    1.61
  -7   3   5   18.46    1.74
   7   3  -4   31.13    2.05
   7   3  -4   31.54    2.03
   7  -3  -4   29.46    2.04
   7  -3  -4   33.39    3.09
  -7   3   4   31.56    1.63
  -7  -3   4   30.41    1.79
  -7   3   4   30.43    1.99
  -7  -3   4   30.93    2.00
   7   3  -3   64.63    1.66
   7   3  -3   60.90    2.56
   7  -3  -3   63.00    2.58
   7  -3  -3   64.42    3.57
  -7  -3   3   61.53    1.91
  -7   3   3   65.44    2.47
  -7   3   3   62.58    1.84
  -7  -3   3   62.70    2.59
   7   3  -2   84.45    1.73
   7   3  -2   84.45    4.23
   7  -3  -2   85.22    2.92
   7  -3  -2   83.17    2.30
  -7   3   2   85.78    1.91
  -7   3   2   84.20    2.86
   7   3  -1    3.54    2.06
   7  -3  -1    4.24    1.33
   7  -3  -1    3.78    1.25
  -7  -3   1    3.75    0.81
   7   3   0  153.36    5.66
   7  -3   0  151.19    2.63
   7  -3   0  155.93    4.04
  -7  -3   0  152.43    1.95
  -7  -3   0  149.33    1.68
   7   3   1    8.92    2.52
   7  -3   1    7.88    1.41
   7  -3   1    7.61    0.63
   7  -3   1    7.50    0.54
   7   3   2  157.52    4.51
   7  -3   2  163.01    4.35
   7  -3   2  154.51    2.53
   7  -3   2  156.27    2.46
   7   3   3    2.90    1.34
   7  -3   3    2.44    1.17
   7  -3   3    1.85    0.40
   7  -3   3    1.70    0.38
   7  -3   4    5.96    0.44
   7  -3   4    7.44    2.31
   7  -3   4    6.94    0.52
   7  -3   5    6.65    0.30
   7  -3   5    6.28    1.56
   7  -3   5    7.34    0.61
   7  -3   6    0.11    0.46
   7  -3   6    0.49    0.20
   7  -3   7    7.32    0.85
   7  -3   7    7.38    0.42
   7  -3   8    1.29    0.44
   7  -3   9    0.71    0.74
   7  -4 -17   -0.05    2.71
  -7  -4  17    0.20    1.77
  -7   4  17    1.56    2.05
   7   4 -16    0.33    2.77
   7  -4 -16    0.00    3.14
  -7  -4  16   -0.31    5.97
  -7  -4  16    0.09    3.39
  -7   4  16    9.78    2.50
   7   4 -15    0.30    1.90
  -7   4  15    1.08    1.71
  -7  -4  15   -0.06    2.45
  -7  -4  15    0.06    1.46
   7   4 -14    0.26    2.89
   7  -4 -14    0.40    3.47
  -7  -4  14   16.83    2.30
  -7   4  14   17.09    4.16
   7   4 -13   16.12    2.98
   7  -4 -13   17.61    3.69
  -7  -4  13    0.33    6.11
  -7  -4  13   26.06    2.41
  -7   4  13   19.71    2.71
  -7   4  13    0.06    3.16
   7   4 -12    3.15    2.00
   7  -4 -12    2.81    2.62
  -7  -4  12    4.59    1.67
  -7  -4  12    0.03    2.51
  -7   4  12    2.65    1.82
  -7   4  12   -0.04    3.75
   7   4 -11   88.08    4.16
   7  -4 -11   89.07    5.13
  -7  -4  11   83.56    3.78
  -7  -4  11   88.04    5.03
  -7   4  11   84.65    5.80
  -7   4  11   80.35    6.74
   7   4 -10    5.22    1.85
   7  -4 -10    1.11    4.31
  -7   4  10    6.07    1.79
  -7   4  10    2.74    2.05
  -7  -4  10    5.93    1.62
   7   4  -9    7.18    1.79
   7  -4  -9    8.06    2.53
  -7  -4   9    7.08    1.64
  -7  -4   9    5.13    2.40
  -7   4   9    9.52    2.83
  -7   4   9    6.48    2.05
   7   4  -8   80.68    3.25
   7  -4  -8   89.28    4.33
  -7  -4   8   82.52    4.09
  -7  -4   8   82.86    3.14
  -7   4   8   82.71    3.27
  -7   4   8   82.64    5.54
   7   4  -7   25.85    1.89
   7   4  -7   21.08    3.14
   7  -4  -7   24.86    2.77
  -7  -4   7   24.86    2.60
  -7  -4   7   24.68    1.94
  -7   4   7   25.50    2.05
  -7   4   7   21.83    2.19
   7  -4  -6  116.99    3.71
   7   4  -6  112.13    3.25
   7   4  -6  109.69    3.52
   7  -4  -6  115.65    4.21
  -7  -4   6  110.77    3.46
  -7  -4   6  113.03    5.51
  -7   4   6  113.34    4.99
  -7   4   6  112.84    3.59
   7   4  -5   20.52    1.41
   7   4  -5   19.22    1.80
   7  -4  -5   17.41    2.19
   7  -4  -5   18.95    1.88
  -7  -4   5   20.24    1.81
  -7  -4   5   22.06    1.88
  -7   4   5   18.05    2.70
  -7   4   5   18.63    1.76
   7   4  -4   83.58    2.24
   7   4  -4   80.60    2.89
   7  -4  -4   84.28    4.73
   7  -4  -4   80.73    2.90
  -7  -4   4   80.27    2.84
  -7  -4   4   80.64    2.65
  -7   4   4   81.94    2.87
  -7   4   4   80.72    3.55
   7  -4  -3    2.37    1.12
   7   4  -3    2.32    1.00
   7   4  -3    1.18    1.12
   7  -4  -3    3.13    1.12
  -7  -4   3    2.73    0.86
  -7   4   3    2.41    1.08
  -7   4   3    1.62    0.84
   7   4  -2  149.44    3.26
   7  -4  -2  143.80    5.13
   7   4  -2  144.03    5.21
   7  -4  -2  146.58    4.53
  -7   4   2  148.49    3.87
  -7   4   2  154.06    2.98
   7   4  -1   21.19    1.84
   7  -4  -1   19.67    2.07
   7  -4  -1   21.32    2.67
   7   4   0   20.13    1.85
   7  -4   0   19.55    1.07
   7  -4   0   21.75    1.67
  -7  -4   0   19.64    0.52
  -7  -4   0   19.28    0.93
   7  -4   1    2.57    0.73
   7   4   1    1.92    2.05
   7  -4   1    1.75    1.12
   7  -4   1    2.93    0.96
   7   4   2    3.03    1.90
   7  -4   2    1.16    0.66
   7  -4   2    0.95    0.37
   7  -4   2    0.93    1.04
   7   4   3   18.09    2.04
   7  -4   3   17.75    0.69
   7  -4   3   17.06    2.80
   7  -4   3   18.78    0.70
   7  -4   4   36.53    1.36
   7  -4   4   34.51    1.22
   7  -4   4   39.53    2.28
   7  -4   5   32.84    2.32
   7  -4   5   32.83    1.38
   7  -4   5   32.23    1.18
   7  -4   6   47.02    1.07
   7  -4   6   49.97    1.83
   7  -4   7    6.63    0.54
   7  -4   7    5.77    1.09
   7  -4   8    2.63    1.06
   7  -4   9   12.16    1.44
  -7  -5  17   -0.19    2.73
  -7   5  17   -0.10    2.09
   7  -5 -16   -0.14    5.68
   7   5 -16    0.21    2.95
  -7  -5  16   -0.01    3.87
  -7  -5  16    8.19    2.13
  -7   5  16    8.24    2.59
  -7   5  16    0.21    3.10
   7   5 -15    0.02    4.41
   7  -5 -15   -0.12    3.35
  -7  -5  15    7.72    2.00
  -7   5  15   -0.05    2.77
  -7  -5  15    0.30    5.78
  -7   5  15    7.78    2.39
   7   5 -14   -0.01    3.83
   7  -5 -14    0.33    2.87
  -7   5  14    0.09    2.44
  -7   5  14   16.13    3.42
  -7  -5  14   -0.18    3.06
   7   5 -13    2.77    2.63
   7  -5 -13   -0.01    2.08
  -7  -5  13   -0.74    1.25
  -7  -5  13    0.04    2.00
  -7   5  13   -0.10    1.67
  -7   5  13    1.45    1.44
   7   5 -12   41.06    5.38
   7  -5 -12   40.02    4.30
  -7  -5  12   42.42    2.81
  -7  -5  12   37.04    6.60
  -7   5  12   38.42    3.20
  -7   5  12   39.16    3.58
   7   5 -11   56.78    3.66
   7  -5 -11   60.65    4.78
  -7  -5  11   63.68    4.60
  -7  -5  11   60.22    4.54
  -7   5  11   56.27    6.04
  -7   5  11   58.32    5.12
   7   5 -10   17.42    2.36
   7  -5 -10   18.49    3.28
  -7   5  10   18.11    2.29
  -7  -5  10   16.76    3.11
  -7   5  10   17.11    2.57
  -7  -5  10   18.38    2.03
   7   5  -9   39.48    2.71
   7  -5  -9   46.49    3.78
  -7  -5   9   39.21    5.38
  -7  -5   9   37.96    2.38
  -7   5   9   38.90    4.01
  -7   5   9   40.72    2.94
   7  -5  -8   49.65    3.82
   7   5  -8   47.41    2.70
  -7  -5   8   49.52    3.37
  -7  -5   8   51.39    3.74
  -7   5   8   51.18    3.02
  -7   5   8   51.28    2.71
   7   5  -7   35.20    2.14
   7   5  -7   31.37    3.28
   7  -5  -7   34.85    3.17
  -7  -5   7   36.49    2.77
  -7  -5   7   33.17    2.11
  -7   5   7   33.51    2.45
  -7   5   7   32.62    2.24
   7   5  -6    5.81    1.94
   7   5  -6    4.82    1.35
   7  -5  -6    4.68    1.41
   7  -5  -6    4.49    1.95
  -7   5   6    4.86    1.36
  -7  -5   6    5.46    1.31
  -7  -5   6    3.50    2.76
  -7   5   6    6.22    2.40
   7   5  -5   22.94    1.55
   7  -5  -5   20.44    2.34
   7  -5  -5   24.88    2.97
   7   5  -5   21.72    1.83
  -7  -5   5   22.61    1.80
  -7  -5   5   23.95    1.97
  -7   5   5   22.11    2.89
  -7   5   5   24.97    1.78
   7   5  -4   20.82    1.29
   7  -5  -4   20.22    1.77
   7  -5  -4   24.93    3.29
   7   5  -4   21.55    1.78
  -7   5   4   20.01    1.70
  -7  -5   4   20.33    1.75
  -7  -5   4   22.31    1.67
  -7   5   4   16.66    2.51
   7   5  -3   21.32    1.16
   7   5  -3   20.02    1.77
   7  -5  -3   21.22    1.89
   7  -5  -3   22.90    1.76
  -7  -5   3   23.68    2.28
  -7   5   3   22.14    1.64
  -7   5   3   21.03    1.42
   7   5  -2   32.77    1.71
   7   5  -2   32.23    3.10
   7  -5  -2   34.84    1.98
   7  -5  -2   34.22    1.86
  -7  -5   2   33.95    1.39
  -7   5   2   33.67    1.90
   7   5  -1   54.97    2.45
   7  -5  -1   53.40    1.94
   7  -5  -1   55.42    2.34
   7   5   0   28.30    2.05
   7  -5   0   26.48    1.33
   7  -5   0   29.29    1.84
  -7  -5   0   29.40    1.19
  -7  -5   0   29.92    1.27
   7   5   1   11.61    2.72
   7  -5   1   10.95    0.90
   7  -5   1   13.07    0.83
   7  -5   1   13.31    1.47
  -7  -5  -1   11.44    0.73
  -7  -5  -1   12.28    0.77
   7   5   2   73.22    4.48
   7  -5   2   70.85    2.72
   7  -5   2   74.14    2.22
   7  -5   2   73.18    1.69
  -7  -5  -2   71.47    1.05
  -7  -5  -2   72.75    1.25
   7   5   3    5.77    1.59
   7  -5   3    5.37    0.62
   7  -5   3    3.87    1.03
   7  -5   3    6.04    1.34
   7  -5   4   43.33    1.66
   7  -5   4   46.15    2.37
   7  -5   4   43.82    1.75
   7  -5   5   27.89    3.16
   7  -5   5   27.06    0.93
   7  -5   5   28.62    1.58
   7  -5   6   23.97    2.08
   7  -5   6   19.31    0.83
   7  -5   6   19.51    1.04
   7  -5   7   15.45    0.76
   7  -5   7   14.13    1.46
  -7  -5  -7    9.91    0.50
  -7  -5  -7    9.77    0.47
   7  -5   8    3.92    0.79
  -7  -5  -8    1.81    0.45
  -7  -5  -8    1.13    0.46
   7  -5   9    3.83    0.91
   7   6 -16   -0.63    2.80
   7  -6 -16    0.24    3.42
  -7  -6  16    5.69    2.00
  -7   6  16    4.63    2.42
  -7   6  16    0.03    2.78
  -7  -6  16   -0.26    6.21
   7   6 -15    0.27    2.95
   7  -6 -15    0.20    5.97
  -7  -6  15   -0.38    3.86
  -7  -6  15   18.52    3.42
  -7   6  15   17.31    4.11
  -7   6  15    0.05    2.92
   7  -6 -14   -0.31    2.99
   7   6 -14    0.30    2.41
  -7  -6  14   -0.01    3.12
  -7   6  14    0.16    2.38
  -7   6  14   18.83    3.46
   7   6 -13    0.30    2.56
   7  -6 -13   -0.10    5.51
  -7  -6  13   10.80    1.87
  -7  -6  13    6.39    3.26
  -7   6  13    0.06    2.54
  -7   6  13   10.18    2.26
   7   6 -12    5.30    2.13
   7  -6 -12    3.09    2.92
  -7  -6  12    4.08    2.60
  -7  -6  12    6.17    2.78
  -7   6  12    5.48    1.99
  -7   6  12   -0.06    2.22
   7   6 -11   15.49    4.37
   7  -6 -11   24.64    3.70
  -7  -6  11   21.54    2.17
  -7  -6  11   18.39    5.42
  -7   6  11   20.58    3.98
   7   6 -10    3.34    1.70
   7  -6 -10    2.30    2.43
  -7  -6  10    3.58    2.15
  -7  -6  10    1.65    2.21
  -7   6  10    2.82    1.61
  -7   6  10    3.24    3.13
   7   6  -9   32.65    2.59
   7  -6  -9   33.28    3.55
  -7  -6   9   30.64    3.18
  -7  -6   9   30.34    2.15
  -7   6   9   31.03    2.76
  -7   6   9   28.50    3.80
   7   6  -8   29.57    3.62
   7  -6  -8   33.39    3.44
  -7  -6   8   31.87    2.98
  -7  -6   8   32.56    2.12
  -7   6   8   36.35    2.68
  -7   6   8   36.53    2.35
   7   6  -7    1.51    1.02
   7   6  -7   -1.40    1.58
   7  -6  -7    1.35    2.55
  -7  -6   7    0.48    0.95
  -7  -6   7   -1.12    1.33
  -7   6   7    0.92    1.04
  -7   6   7    0.74    1.16
   7   6  -6   59.74    2.49
   7   6  -6   58.01    3.52
   7  -6  -6   56.93    3.50
  -7  -6   6   56.46    2.49
  -7  -6   6   62.72    4.48
  -7   6   6   57.40    2.58
  -7   6   6   59.78    4.20
   7   6  -5   21.57    2.41
   7   6  -5   22.23    1.83
   7  -6  -5   25.56    2.47
   7  -6  -5   20.86    1.92
  -7  -6   5   23.20    1.78
  -7  -6   5   22.13    1.98
  -7   6   5   22.19    3.01
  -7   6   5   24.75    1.82
   7   6  -4   35.17    2.06
   7   6  -4   34.46    2.45
   7  -6  -4   35.87    4.11
   7  -6  -4   33.48    2.06
  -7  -6   4   38.51    2.03
  -7   6   4   34.52    1.99
  -7   6   4   36.15    3.04
   7   6  -3   21.06    1.27
   7   6  -3   22.04    1.80
   7  -6  -3   23.83    1.76
   7  -6  -3   22.58    2.00
  -7  -6   3   23.75    1.51
  -7   6   3   23.18    1.67
  -7   6   3   22.75    1.56
   7  -6  -2   38.90    2.04
   7  -6  -2   36.98    2.00
   7   6  -2   38.34    3.18
  -7  -6   2   37.71    1.56
  -7   6   2   34.84    1.90
   7   6  -1    1.49    1.95
   7  -6  -1    3.05    1.72
   7  -6  -1    2.74    1.01
  -7  -6   1    2.62    0.63
   7   6   0    4.13    1.38
   7  -6   0    4.31    0.96
   7  -6   0    5.88    0.84
   7  -6   0    5.82    1.91
  -7  -6   0    4.05    0.98
   7   6   1   29.27    3.35
   7  -6   1   30.42    1.36
   7  -6   1   29.91    1.29
   7  -6   1   33.33    2.81
  -7  -6  -1   31.22    0.89
  -7  -6  -1   29.08    1.33
   7   6   2    1.49    1.08
   7  -6   2    1.42    1.44
   7  -6   2    0.43    0.60
   7  -6   2    0.56    0.55
  -7  -6  -2    0.99    0.33
  -7  -6  -2    0.20    0.31
   7   6   3   59.90    2.95
   7  -6   3   58.29    3.48
   7  -6   3   57.30    1.67
   7  -6   3   55.98    1.56
  -7  -6  -3   56.83    1.50
  -7  -6  -3   54.98    1.09
   7  -6   4   11.97    1.57
   7  -6   4   12.80    0.91
   7  -6   4   13.10    0.87
  -7  -6  -4   11.20    0.79
  -7  -6  -4   11.62    0.64
   7  -6   5   21.92    1.13
   7  -6   5   23.47    1.82
   7  -6   5   21.24    0.97
  -7  -6  -5   18.54    0.55
  -7  -6  -5   18.05    0.60
   7  -6   6    7.24    2.31
   7  -6   6    7.11    0.73
   7  -6   6    5.79    1.36
  -7  -6  -6    5.43    0.67
  -7  -6  -6    6.04    0.59
   7  -6   7   -0.47    0.91
   7  -6   7   -0.15    0.43
   7  -6   7   -0.44    0.55
  -7  -6  -7    0.20    0.24
  -7  -6  -7   -0.38    0.25
   7  -6   8   32.81    2.40
   7  -6   9    3.25    1.59
   7  -6  10    0.22    0.99
   7   7 -16   14.12    3.59
   7  -7 -16   -0.21    7.20
  -7  -7  16   12.84    2.38
  -7  -7  16    0.03    4.69
  -7   7  16   11.63    3.07
  -7   7  16    0.02    5.80
   7   7 -15    2.83    2.53
   7  -7 -15    0.29    3.20
  -7  -7  15    2.62    1.73
  -7  -7  15    0.58    5.47
  -7   7  15    3.35    3.52
  -7   7  15    0.10    4.24
   7   7 -14    7.60    2.63
   7  -7 -14    0.20    5.68
  -7  -7  14    5.23    3.47
  -7   7  14   -0.08    4.42
  -7   7  14    3.35    2.34
  -7  -7  14    5.93    1.85
   7   7 -13   -0.22    1.78
   7  -7 -13    0.03    2.41
  -7  -7  13   -1.65    2.03
  -7  -7  13    0.85    2.34
  -7   7  13   -0.17    1.79
  -7   7  13   -1.25    1.59
   7   7 -12   17.22    3.03
   7  -7 -12   19.32    6.78
  -7  -7  12   20.70    2.22
  -7  -7  12   18.86    3.67
  -7   7  12   20.00    2.95
  -7   7  12   18.95    2.68
   7   7 -11   18.40    2.60
   7  -7 -11   15.77    3.52
  -7  -7  11   18.66    3.22
  -7   7  11   14.43    3.64
  -7   7  11    0.07    2.67
  -7  -7  11   21.25    3.02
   7   7 -10   22.43    4.26
   7  -7 -10   26.06    6.24
  -7  -7  10   25.31    5.18
  -7  -7  10   26.77    2.16
  -7   7  10   27.35    2.51
  -7   7  10   25.70    2.90
   7   7  -9   14.70    2.06
   7  -7  -9   13.08    2.98
  -7  -7   9   13.10    2.57
  -7  -7   9   11.59    1.63
  -7   7   9   10.68    3.04
  -7   7   9    8.27    2.17
   7   7  -8    5.56    1.63
   7  -7  -8    6.06    3.90
  -7  -7   8    6.01    2.06
  -7  -7   8    6.64    2.17
  -7   7   8    6.16    1.52
  -7   7   8    4.07    1.80
   7   7  -7   30.42    2.21
   7   7  -7   34.68    3.16
   7  -7  -7   37.78    3.29
  -7  -7   7   33.53    2.06
  -7  -7   7   35.06    2.73
  -7   7   7   33.37    2.21
  -7   7   7   32.22    2.43
   7   7  -6    4.30    1.25
   7   7  -6    5.47    2.07
   7  -7  -6    3.32    1.97
  -7  -7   6    4.36    1.23
  -7  -7   6    4.20    1.59
  -7   7   6    2.91    1.28
  -7   7   6    5.13    2.46
   7   7  -5   76.10    3.74
   7   7  -5   76.78    2.75
   7  -7  -5   74.74    5.53
   7  -7  -5   65.72    2.74
  -7  -7   5   76.12    2.75
  -7  -7   5   77.12    3.11
  -7   7   5   72.99    2.86
  -7   7   5   75.69    2.76
   7   7  -4    3.48    1.20
   7   7  -4    4.05    1.64
   7  -7  -4    3.58    1.67
   7  -7  -4    5.44    1.95
  -7  -7   4    3.94    1.28
  -7   7   4    2.02    1.15
  -7   7   4    4.50    1.25
   7   7  -3   90.82    2.62
   7   7  -3   93.66    3.05
   7  -7  -3   94.17    3.38
   7  -7  -3   91.49    2.99
  -7   7   3   89.90    2.86
  -7   7   3   90.79    2.80
  -7  -7   3   96.19    2.78
   7   7  -2   16.01    2.60
   7  -7  -2   15.76    1.71
   7  -7  -2   13.62    1.48
  -7  -7   2   14.20    1.89
  -7   7   2   14.64    1.43
   7   7  -1   20.48    2.83
   7  -7  -1   21.29    1.63
   7  -7  -1   19.75    1.60
  -7  -7   1   20.95    1.19
   7   7   0   40.64    3.44
   7  -7   0   39.75    2.82
   7  -7   0   42.77    1.77
   7  -7   0   41.13    2.00
  -7  -7   0   39.98    1.89
  -7  -7   0   41.52    1.34
   7   7   1   -0.51    1.51
   7  -7   1   -0.43    1.05
   7  -7   1    0.65    0.59
   7  -7   1    0.86    0.75
  -7  -7  -1    0.22    0.40
  -7  -7  -1   -0.03    0.32
   7   7   2   20.02    2.00
   7  -7   2   19.16    1.85
   7  -7   2   22.09    1.61
  -7  -7  -2   20.41    0.88
   7   7   3   13.49    1.90
   7  -7   3   15.59    1.46
   7  -7   3   12.59    1.66
   7  -7   3   11.65    1.67
  -7  -7  -3   12.85    1.12
  -7  -7  -3   12.86    1.03
   7  -7   4   16.39    1.15
   7  -7   4   19.96    1.63
   7  -7   4   17.83    1.70
  -7  -7  -4   16.46    0.72
  -7  -7  -4   15.72    0.79
   7  -7   5    6.48    2.10
   7  -7   5    6.39    1.36
   7  -7   5    8.10    0.96
  -7  -7  -5    6.36    0.54
  -7  -7  -5    6.24    0.94
   7  -7   6    0.62    1.00
   7  -7   6    1.42    0.60
   7  -7   6    2.03    1.11
  -7  -7  -6    0.58    0.39
  -7  -7  -6    0.66    0.43
   7  -7   7   30.83    2.09
   7  -7   7   27.15    1.28
   7  -7   7   28.65    1.55
  -7  -7  -7   24.42    1.32
  -7  -7  -7   23.47    1.44
   7  -7   8    0.34    0.92
   7  -7   8    0.08    0.47
   7  -7   8    0.23    0.66
   7  -7   9    4.32    1.91
   7  -7  10    0.04    1.03
   7   8 -15    9.10    2.96
   7  -8 -15    0.23    3.82
  -7  -8  15    6.36    1.94
  -7  -8  15   10.13    4.12
  -7   8  15    0.05    2.98
  -7   8  15    5.79    4.04
   7   8 -14    2.82    2.39
   7  -8 -14    0.70    3.14
  -7  -8  14    2.35    1.56
  -7  -8  14    5.43    3.19
  -7   8  14   -0.07    2.36
  -7   8  14    1.67    2.04
   7   8 -13   10.00    2.84
   7  -8 -13    0.45    6.38
  -7  -8  13   13.53    3.61
  -7   8  13    0.06    2.83
  -7   8  13   12.14    2.45
  -7  -8  13   12.31    1.95
   7   8 -12    1.30    1.60
   7  -8 -12    1.00    2.12
  -7  -8  12    0.87    1.70
  -7  -8  12    1.97    1.96
  -7   8  12   -1.93    1.38
   7   8 -11   26.81    3.10
   7  -8 -11   26.50    6.74
  -7  -8  11   23.20    6.10
  -7  -8  11   28.20    2.12
  -7   8  11   27.80    2.68
  -7   8  11   23.82    3.00
   7   8 -10   -1.20    2.17
   7  -8 -10    0.84    1.95
  -7  -8  10    1.05    1.66
  -7  -8  10    0.72    1.53
  -7   8  10    0.67    1.17
  -7   8  10   -0.63    1.42
   7   8  -9   36.75    2.95
   7  -8  -9   47.10    6.22
  -7  -8   9   39.45    2.27
  -7   8   9   37.87    2.60
  -7   8   9   39.74    4.84
  -7  -8   9   38.15    5.47
   7   8  -8   34.50    2.61
   7  -8  -8   37.19    3.66
  -7  -8   8   36.03    2.10
  -7  -8   8   36.12    3.06
  -7   8   8   37.42    2.40
  -7   8   8   35.73    2.73
   7   8  -7    3.32    1.39
   7   8  -7    1.59    1.16
   7  -8  -7    2.34    1.97
  -7  -8   7    2.76    1.13
  -7  -8   7    3.56    2.64
  -7   8   7    3.46    1.27
  -7   8   7    0.97    2.46
   7   8  -6   10.17    2.67
   7   8  -6   13.24    2.41
   7  -8  -6   12.29    4.17
  -7  -8   6   11.15    1.50
  -7  -8   6   13.81    2.01
  -7   8   6   13.93    1.87
  -7   8   6   12.37    1.59
   7   8  -5    3.46    1.24
   7   8  -5    4.04    1.25
   7  -8  -5    5.01    1.90
  -7  -8   5    2.26    2.40
  -7   8   5    3.01    1.43
  -7   8   5    4.79    1.18
   7   8  -4   28.82    1.95
   7  -8  -4   32.46    2.62
   7  -8  -4   32.11    1.96
   7   8  -4   30.80    2.80
  -7  -8   4   33.83    2.09
  -7   8   4   29.20    1.84
  -7   8   4   32.93    2.06
   7   8  -3   21.77    1.77
   7  -8  -3   22.69    2.19
   7  -8  -3   23.03    1.67
  -7  -8   3   24.65    1.67
  -7   8   3   20.10    1.58
   7   8  -2    5.32    1.31
   7  -8  -2    3.57    2.39
   7  -8  -2    5.11    1.18
  -7  -8   2    4.83    1.66
   7   8  -1   39.06    2.19
   7  -8  -1   40.57    2.15
   7  -8  -1   40.91    1.95
  -7  -8   1   39.57    1.66
   7   8   0    2.80    1.94
   7  -8   0    3.54    1.04
   7  -8   0    3.01    0.97
   7  -8   0    2.33    0.94
  -7  -8   0    0.92    0.68
  -7  -8   0    1.66    0.72
   7   8   1   49.35    2.62
   7  -8   1   50.71    2.00
   7  -8   1   48.36    2.15
   7  -8   1   52.05    2.08
  -7  -8  -1   50.87    2.17
  -7  -8  -1   48.44    1.50
   7   8   2    1.25    1.14
   7  -8   2    2.25    1.22
   7  -8   2    1.58    0.86
   7  -8   2   -0.10    0.76
  -7  -8  -2    0.18    0.63
  -7  -8  -2    1.00    0.53
   7   8   3   22.31    2.13
   7  -8   3   20.82    1.42
   7  -8   3   21.52    1.61
   7  -8   3   19.69    1.34
  -7  -8  -3   20.73    1.53
   7  -8   4    1.34    0.92
   7  -8   4    2.04    1.23
   7  -8   4    2.08    1.19
  -7  -8  -4    1.99    0.91
  -7  -8  -4    0.25    0.55
   7  -8   5   10.11    1.38
   7  -8   5    9.63    1.14
   7  -8   5   10.47    1.67
  -7  -8  -5    8.23    1.00
  -7  -8  -5    7.67    1.31
   7  -8   6    1.02    1.43
   7  -8   6    0.21    0.64
   7  -8   6    0.04    1.17
  -7  -8  -6    0.60    0.72
  -7  -8  -6    0.91    0.82
   7  -8   7    0.02    0.85
   7  -8   7    0.73    0.68
   7  -8   7    0.61    0.57
  -7  -8  -7    0.61    0.66
  -7  -8  -7   -0.60    0.47
   7  -8   8   11.72    2.59
   7  -8   8   11.05    1.11
   7  -8   8   10.73    1.38
   7  -8   9    1.25    1.73
   7  -8  10    4.92    2.15
   7   9 -15   -0.22    2.02
   7  -9 -15   -0.31    2.76
  -7  -9  15    0.17    1.21
  -7  -9  15   -0.48    2.81
  -7   9  15   -0.31    1.66
  -7   9  15   -1.55    2.02
   7   9 -14    4.82    4.22
   7  -9 -14    0.17    3.64
  -7  -9  14    3.43    1.63
  -7  -9  14    4.35    3.46
  -7   9  14    3.25    2.20
  -7   9  14    6.61    2.62
   7   9 -13    7.29    4.12
   7  -9 -13    0.16    3.47
  -7  -9  13    9.00    2.54
  -7   9  13   -0.02    2.18
  -7   9  13    8.59    2.55
  -7  -9  13    7.09    3.37
   7   9 -12   12.20    2.64
   7  -9 -12    0.03    3.50
  -7  -9  12    9.36    1.64
  -7   9  12   -0.02    3.53
  -7   9  12    9.01    2.59
  -7  -9  12   14.08    5.45
   7   9 -11    5.55    2.26
   7  -9 -11    0.09    3.03
  -7  -9  11    7.62    2.68
  -7  -9  11    4.46    2.26
  -7   9  11    6.20    1.88
  -7   9  11    4.02    3.73
   7   9 -10   17.80    2.58
   7  -9 -10   14.71    6.05
  -7  -9  10   19.01    5.05
  -7  -9  10   15.13    1.76
  -7   9  10   19.01    2.21
  -7   9  10   14.99    2.62
   7   9  -9   17.08    2.39
   7  -9  -9   12.61    3.21
  -7  -9   9   16.80    2.79
  -7   9   9   15.59    2.00
  -7   9   9   14.19    2.48
  -7  -9   9   14.58    1.65
   7   9  -8    7.57    2.04
   7  -9  -8    8.89    2.68
  -7  -9   8    8.85    1.43
  -7  -9   8   11.97    3.70
  -7   9   8    8.49    2.57
  -7   9   8    6.12    2.04
   7   9  -7   30.88    2.51
   7   9  -7   29.35    1.96
   7  -9  -7   32.95    3.39
  -7  -9   7   32.89    2.91
  -7  -9   7   33.58    2.85
  -7   9   7   31.26    2.16
  -7   9   7   28.07    2.51
   7   9  -6   32.34    2.32
   7   9  -6   31.27    1.99
   7  -9  -6   33.08    3.12
  -7  -9   6   34.65    4.12
  -7   9   6   33.04    2.40
  -7   9   6   30.63    2.01
   7   9  -5  142.61    4.24
   7   9  -5  142.78    5.14
   7  -9  -5  147.87    4.96
  -7  -9   5  149.83    4.57
  -7   9   5  137.55    4.14
  -7   9   5  140.42    3.87
   7   9  -4   11.44    1.55
   7  -9  -4   11.12    2.18
   7   9  -4   10.67    1.45
  -7  -9   4   12.19    1.67
  -7   9   4   11.64    1.38
   7   9  -3   27.64    1.90
   7  -9  -3   28.30    2.47
   7  -9  -3   32.08    1.79
  -7  -9   3   29.82    2.90
  -7   9   3   27.53    2.54
   7  -9  -2    5.05    1.43
   7  -9  -2    4.12    1.07
   7   9  -2    3.42    1.25
  -7  -9   2    3.06    1.08
   7   9  -1   12.01    1.55
   7  -9  -1   14.01    1.65
   7  -9  -1    9.55    1.31
  -7  -9   1   13.07    1.26
   7   9   0   14.33    1.73
   7  -9   0   15.91    2.70
   7  -9   0   15.16    2.43
   7  -9   0   17.91    2.18
  -7  -9   0   15.96    1.15
  -7  -9   0   15.61    1.91
   7   9   1   -0.44    0.76
   7  -9   1    0.11    0.63
   7  -9   1    0.96    0.60
   7  -9   1    0.24    0.89
  -7  -9  -1    0.14    0.46
  -7  -9  -1   -0.54    0.44
   7   9   2    9.62    1.67
   7  -9   2    7.36    1.29
   7  -9   2    9.01    1.91
   7  -9   2    7.75    1.27
  -7  -9  -2    9.67    1.48
  -7  -9  -2    9.06    0.92
   7   9   3   11.34    1.81
   7  -9   3   11.03    1.31
   7  -9   3    8.57    2.05
   7  -9   3   10.35    1.25
  -7  -9  -3    8.82    0.89
  -7  -9  -3   10.74    1.53
   7   9   4    9.98    1.96
   7  -9   4   11.70    1.30
   7  -9   4    9.85    1.92
   7  -9   4   13.71    1.37
  -7  -9  -4    8.21    0.77
  -7  -9  -4   12.39    1.54
   7  -9   5   23.73    2.47
   7  -9   5   24.12    1.72
   7  -9   5   23.20    1.48
  -7  -9  -5   20.86    1.85
   7  -9   6    3.77    1.09
   7  -9   6    3.66    0.89
   7  -9   6    2.94    1.00
  -7  -9  -6   -0.04    0.68
  -7  -9  -6    2.13    0.73
   7  -9   7    3.51    1.97
   7  -9   7    4.00    1.55
   7  -9   7    4.09    1.16
  -7  -9  -7    2.47    1.31
   7  -9   8   -0.08    0.98
   7  -9   8    0.76    0.73
   7  -9   8    0.66    1.42
   7  -9   9   -1.22    0.76
   7  -9   9    7.45    1.22
   7  -9  10    1.01    1.17
   7  10 -14    2.92    2.65
   7 -10 -14   -0.29    3.60
  -7 -10  14    6.79    3.51
  -7 -10  14    4.56    1.49
  -7  10  14   -0.15    2.16
  -7  10  14    1.70    4.37
   7 -10 -13   -0.42    3.65
   7  10 -13    8.34    2.66
  -7 -10  13    7.34    5.65
  -7 -10  13    6.90    1.56
  -7  10  13    0.00    2.14
  -7  10  13    5.50    2.61
   7  10 -12    2.66    2.89
   7 -10 -12   -0.63    2.47
  -7 -10  12   -0.16    1.06
  -7  10  12    0.09    1.47
  -7  10  12    2.85    1.84
  -7 -10  12    1.80    2.27
   7  10 -11   17.75    2.82
   7 -10 -11   -0.32    3.87
  -7 -10  11    6.20    5.38
  -7 -10  11   15.76    1.72
  -7  10  11   15.67    2.29
  -7  10  11   16.64    2.84
   7  10 -10    0.37    1.51
   7 -10 -10    0.52    2.03
  -7 -10  10   -0.82    0.92
  -7 -10  10   -0.05    1.75
  -7  10  10   -0.85    1.90
  -7  10  10   -0.73    2.49
   7  10  -9   56.69    5.30
   7 -10  -9   55.67    7.46
  -7 -10   9   55.98    2.47
  -7 -10   9   52.75    5.99
  -7  10   9   55.84    2.95
  -7  10   9   50.65    3.50
   7  10  -8   16.39    2.47
   7 -10  -8   13.65    3.30
  -7 -10   8   17.10    2.72
  -7  10   8   20.53    1.93
  -7  10   8   17.00    4.01
  -7 -10   8   16.80    2.49
   7  10  -7   -0.29    2.04
   7  10  -7    1.66    0.90
   7 -10  -7    0.38    1.78
  -7 -10   7    0.15    0.88
  -7 -10   7    0.68    2.41
  -7  10   7    0.12    1.63
  -7  10   7    0.35    1.34
   7  10  -6   15.73    1.96
   7  10  -6   12.20    1.53
   7 -10  -6   12.78    2.76
  -7 -10   6   15.93    2.21
  -7  10   6   14.56    2.05
  -7  10   6   15.40    2.46
   7  10  -5    9.12    1.68
   7  10  -5    6.77    1.35
   7 -10  -5   10.44    2.29
  -7 -10   5    7.32    1.87
  -7  10   5    9.35    1.77
  -7  10   5   10.02    2.08
   7  10  -4   42.17    3.13
   7 -10  -4   46.20    3.07
  -7 -10   4   41.63    2.62
  -7  10   4   42.87    2.92
   7  10  -3   17.99    1.67
   7 -10  -3   21.91    3.70
  -7 -10   3   20.91    1.88
  -7  10   3   17.25    1.43
   7  10  -2   19.87    1.77
   7 -10  -2   23.96    2.17
   7 -10  -2   20.76    2.30
  -7 -10   2   20.60    2.68
   7  10  -1   94.05    3.14
   7 -10  -1   95.48    3.34
   7 -10  -1   92.26    3.63
  -7 -10   1   93.36    2.93
  -7 -10   1   86.13    2.50
   7  10   0   10.62    1.56
   7 -10   0    8.40    2.46
   7 -10   0   12.02    1.60
   7 -10   0    8.36    1.92
  -7 -10   0    8.25    1.25
  -7 -10   0   11.40    1.13
   7 -10   1   13.36    2.70
   7 -10   1   14.19    2.10
   7 -10   1   14.38    1.69
   7  10   1   16.79    1.84
  -7 -10  -1   14.75    1.35
  -7 -10  -1   16.39    1.24
   7  10   2   -0.19    1.02
   7 -10   2   -0.06    0.84
   7 -10   2    0.28    0.71
   7 -10   2    0.52    0.82
  -7 -10  -2   -0.10    1.00
  -7 -10  -2    1.04    1.00
   7  10   3   29.89    3.61
   7 -10   3   25.71    2.81
   7 -10   3   28.51    2.50
   7 -10   3   26.96    1.76
  -7 -10  -3   24.85    1.43
  -7 -10  -3   27.25    1.41
   7  10   4    1.24    1.14
   7 -10   4   -0.58    0.84
   7 -10   4   -0.14    1.26
   7 -10   4    0.94    1.20
  -7 -10  -4    0.04    0.59
  -7 -10  -4    0.64    0.62
   7 -10   5   10.62    1.45
   7 -10   5   11.64    1.31
   7 -10   5   10.75    1.34
  -7 -10  -5    0.14    1.76
  -7 -10  -5    9.33    1.02
   7 -10   6   20.41    1.67
   7 -10   6   17.30    2.60
   7 -10   6   21.19    1.48
  -7 -10  -6   15.52    1.84
  -7 -10  -6   15.96    1.31
   7 -10   7    4.19    1.17
   7 -10   7    3.52    1.64
   7 -10   7    3.50    1.23
  -7 -10  -7    2.61    0.81
  -7 -10  -7   -0.16    1.47
   7 -10   8   16.01    1.43
   7 -10   8   15.07    1.75
   7 -10   9    6.30    1.64
   7 -10   9    5.47    1.19
   7  11 -13   -0.06    1.80
   7 -11 -13    1.38    3.94
  -7 -11  13    0.48    2.25
  -7 -11  13    0.23    0.93
  -7  11  13   -0.18    2.17
  -7  11  13    0.09    1.78
   7  11 -12    5.81    2.42
   7 -11 -12    0.50    3.28
  -7 -11  12    3.14    2.99
  -7 -11  12    5.74    2.05
  -7  11  12    7.14    3.93
  -7  11  12   -0.16    1.84
   7 -11 -11    0.67    2.61
   7  11 -11    0.59    3.21
  -7 -11  11    2.08    1.09
  -7 -11  11    0.43    2.39
  -7  11  11    1.72    1.52
  -7  11  11    0.22    1.96
   7  11 -10   -0.96    1.55
   7 -11 -10    0.46    2.04
  -7 -11  10    1.11    1.79
  -7  11  10    0.49    1.14
  -7  11  10    0.59    1.48
  -7 -11  10    0.26    0.86
   7  11  -9    1.55    1.97
   7 -11  -9   -0.08    2.58
  -7 -11   9    4.98    2.18
  -7  11   9    3.65    1.42
  -7  11   9    2.97    1.90
  -7 -11   9    2.88    1.79
   7  11  -8    0.69    1.42
   7 -11  -8    4.56    3.24
  -7 -11   8    0.46    0.84
  -7 -11   8   -0.63    2.54
  -7  11   8    0.84    1.04
  -7  11   8   -0.62    1.45
   7  11  -7   35.11    2.86
   7 -11  -7   34.18    3.69
  -7 -11   7   34.64    3.06
  -7  11   7   29.86    2.83
  -7  11   7   34.96    2.11
   7  11  -6    0.46    0.74
   7 -11  -6   -0.47    1.47
   7  11  -6    0.69    1.12
  -7 -11   6   -0.93    1.93
  -7  11   6    0.55    1.13
  -7  11   6   -0.25    0.78
   7  11  -5   25.02    1.69
   7 -11  -5   27.52    4.96
  -7 -11   5   25.26    2.48
  -7  11   5   24.95    1.68
   7 -11  -4    1.51    1.48
   7  11  -4    1.01    0.86
  -7 -11   4    0.02    1.18
  -7  11   4    0.10    0.79
   7  11  -3   39.06    3.03
   7 -11  -3   43.24    2.88
  -7 -11   3   42.11    2.49
  -7  11   3   38.92    1.83
   7  11  -2    3.82    1.85
   7 -11  -2    3.74    2.67
   7 -11  -2    2.69    0.96
  -7 -11   2    2.82    1.26
   7  11  -1   70.02    2.78
   7 -11  -1   77.15    3.24
   7 -11  -1   77.44    3.30
   7 -11  -1   72.13    3.22
  -7 -11   1   73.83    3.87
  -7 -11   1   70.44    2.44
   7  11   0    3.63    1.12
   7 -11   0    1.83    1.31
   7 -11   0    2.16    1.27
   7 -11   0    1.11    1.35
  -7 -11   0    0.68    1.02
  -7 -11   0    0.94    0.90
   7 -11   1    3.77    1.43
   7 -11   1    3.85    0.95
   7 -11   1    4.73    2.26
   7  11   1    3.75    1.41
  -7 -11  -1    2.75    1.08
  -7 -11  -1    4.23    1.01
   7  11   2   53.14    3.99
   7 -11   2   46.79    2.00
   7 -11   2   48.17    2.64
   7 -11   2   50.94    2.46
  -7 -11  -2   48.19    2.99
  -7 -11  -2   47.47    1.92
   7  11   3   11.62    1.93
   7 -11   3   10.19    1.26
   7 -11   3   11.17    2.60
   7 -11   3   12.63    1.54
  -7 -11  -3   11.01    1.26
  -7 -11  -3   11.48    1.23
   7  11   4    4.64    1.56
   7 -11   4    1.84    1.26
   7 -11   4    1.72    1.56
   7 -11   4    1.77    1.89
  -7 -11  -4    3.26    0.95
  -7 -11  -4    3.24    1.50
   7 -11   5   11.21    1.67
   7 -11   5    9.97    2.13
   7 -11   5   14.22    1.47
  -7 -11  -5   11.96    1.30
  -7 -11  -5   12.13    1.27
   7 -11   6   -0.22    1.39
   7 -11   6    0.18    0.81
   7 -11   6   -1.73    0.97
  -7 -11  -6   -0.27    0.71
  -7 -11  -6    0.03    1.19
   7 -11   7   29.14    1.83
   7 -11   7   23.31    2.11
  -7 -11  -7   23.93    1.59
  -7 -11  -7   23.99    1.67
   7 -11   8   -0.78    1.59
   7 -11   8    0.98    1.34
   7 -11   9    6.78    1.37
   7 -11   9   10.36    2.67
   7  12 -13   10.43    3.03
   7 -12 -13   -0.55    4.12
  -7 -12  13    8.34    3.81
  -7  12  13    0.06    2.25
  -7  12  13    7.78    3.02
  -7 -12  13    8.10    1.47
   7  12 -12    1.02    1.72
   7 -12 -12    0.42    3.92
  -7 -12  12    0.06    0.83
  -7 -12  12   -0.12    2.06
  -7  12  12   -0.01    1.23
  -7  12  12   -0.02    1.67
   7  12 -11   14.58    3.12
   7 -12 -11    0.71    4.05
  -7 -12  11   18.52    1.60
  -7 -12  11   20.47    3.74
  -7  12  11   -0.01    3.53
  -7  12  11   12.44    5.01
   7  12 -10    1.11    2.85
   7 -12 -10    0.74    3.87
  -7 -12  10    0.71    1.42
  -7 -12  10    0.19    2.03
  -7  12  10    0.17    1.23
  -7  12  10    1.91    1.73
   7  12  -9   17.82    2.77
   7 -12  -9    0.47    3.54
  -7 -12   9   17.01    3.05
  -7  12   9   14.76    2.97
  -7  12   9   13.91    2.70
  -7 -12   9   15.42    1.49
   7  12  -8   -1.10    1.55
   7 -12  -8   -0.61    2.02
  -7 -12   8    0.44    1.67
  -7  12   8    2.34    1.49
  -7  12   8    0.76    1.00
   7  12  -7   21.39    2.58
   7 -12  -7   14.91    3.33
  -7 -12   7   19.23    2.72
  -7  12   7   18.32    2.51
  -7  12   7   16.62    1.70
   7  12  -6    4.23    1.10
   7 -12  -6    2.16    2.34
  -7 -12   6    5.22    1.90
  -7  12   6    3.47    1.17
   7  12  -5    0.87    1.40
   7 -12  -5    1.81    1.74
  -7 -12   5   -0.60    2.26
  -7  12   5    0.96    0.88
   7  12  -4    2.52    1.04
   7 -12  -4    1.71    1.88
  -7 -12   4    3.35    1.55
  -7  12   4    2.27    0.94
   7  12  -3   22.02    1.66
   7 -12  -3   21.27    2.59
  -7 -12   3   23.59    3.45
   7  12  -2    0.62    0.91
   7 -12  -2    0.83    1.40
  -7 -12   2    1.00    1.13
   7  12  -1    8.99    1.46
   7 -12  -1   10.65    1.97
   7 -12  -1    8.30    1.95
   7 -12  -1    8.24    1.09
  -7 -12   1   10.45    1.41
  -7 -12   1   11.97    1.57
   7  12   0    7.68    2.35
   7 -12   0    9.92    1.83
   7 -12   0    9.73    1.86
   7 -12   0    9.32    1.67
  -7 -12   0    7.87    2.12
  -7 -12   0    6.38    2.31
   7  12   1   51.15    2.55
   7 -12   1   47.74    2.65
   7 -12   1   47.89    2.91
   7 -12   1   55.32    4.20
  -7 -12  -1   53.92    2.46
  -7 -12  -1   49.00    2.14
   7  12   2   16.06    1.88
   7 -12   2   16.39    1.91
   7 -12   2   16.21    1.99
   7 -12   2   15.29    1.90
  -7 -12  -2   15.83    1.59
  -7 -12  -2   11.54    1.42
   7  12   3   77.40    3.44
   7 -12   3   71.64    3.28
   7 -12   3   69.31    4.69
   7 -12   3   78.44    3.05
  -7 -12  -3   71.48    2.57
  -7 -12  -3   71.67    3.73
   7  12   4    0.16    2.00
   7 -12   4    0.71    1.82
   7 -12   4   -1.15    1.17
   7 -12   4    0.80    1.70
  -7 -12  -4   -1.68    0.82
  -7 -12  -4    0.01    0.85
   7  12   5    0.06    1.19
   7 -12   5    1.11    1.11
   7 -12   5   -0.67    0.92
   7 -12   5    0.45    1.03
  -7 -12  -5    0.71    1.22
  -7 -12  -5    0.58    1.31
   7 -12   6    1.17    1.14
   7 -12   6    0.85    0.81
   7 -12   6    1.52    1.63
  -7 -12  -6    0.14    0.87
  -7 -12  -6    0.22    0.89
   7 -12   7    1.29    0.96
   7 -12   7   -0.85    1.11
   7 -12   8    5.17    1.41
   7 -12   8    6.13    1.67
   7  13 -12    0.21    3.44
   7 -13 -12    0.59    2.80
  -7 -13  12    2.21    2.60
  -7  13  12   -0.01    1.44
  -7  13  12   -0.35    2.07
  -7 -13  12    1.03    0.93
   7  13 -11    4.35    2.13
   7 -13 -11    0.29    2.80
  -7 -13  11    1.07    0.92
  -7 -13  11   -1.39    3.92
  -7  13  11   -0.11    1.39
  -7  13  11    0.80    2.06
   7  13 -10    2.04    2.23
   7 -13 -10    0.09    2.92
  -7 -13  10    3.63    2.49
  -7  13  10    2.27    1.41
  -7  13  10    1.09    3.58
   7  13  -9    8.10    4.03
   7 -13  -9    0.16    3.35
  -7 -13   9   12.22    4.52
  -7  13   9   10.28    2.57
  -7  13   9    8.53    1.66
   7 -13  -8    0.31    2.24
   7  13  -8    0.27    1.73
  -7 -13   8    1.18    1.81
  -7  13   8    2.08    1.67
  -7  13   8    0.59    1.04
   7 -13  -7   41.32    4.08
  -7 -13   7   40.73    5.43
  -7  13   7   36.78    3.10
   7  13  -6   -0.53    0.61
   7 -13  -6    1.24    1.46
  -7 -13   6    0.44    1.21
  -7  13   6    0.33    1.03
   7  13  -5   53.04    2.26
   7 -13  -5   59.29    4.15
  -7 -13   5   57.21    3.52
  -7  13   5   54.69    3.12
   7  13  -4    1.17    1.46
   7 -13  -4    1.78    3.05
  -7 -13   4    1.36    1.50
  -7  13   4    1.34    0.83
   7  13  -3   22.74    2.55
   7 -13  -3   24.65    2.88
  -7 -13   3   24.33    2.44
   7  13  -2    1.96    0.94
   7 -13  -2   -0.02    1.55
  -7 -13   2   -0.06    1.11
  -7 -13   2    1.08    1.97
   7  13  -1    4.33    1.25
   7 -13  -1    5.48    1.86
   7 -13  -1    6.31    2.92
  -7 -13   1    3.68    1.31
  -7 -13   1    4.08    1.47
   7  13   0    3.51    1.32
   7 -13   0    6.47    1.77
   7 -13   0    4.68    1.80
  -7 -13   0    4.91    1.27
  -7 -13   0    4.80    2.29
   7  13   1    0.72    1.10
   7 -13   1    2.69    2.27
   7 -13   1    0.64    1.11
   7 -13   1    2.05    2.25
  -7 -13  -1    0.84    1.15
  -7 -13  -1    1.99    1.00
   7  13   2    0.20    0.96
   7 -13   2    0.35    1.81
   7 -13   2    0.07    0.89
   7 -13   2    0.28    1.04
  -7 -13  -2    0.84    0.79
  -7 -13  -2   -0.61    0.89
   7  13   3    6.92    2.63
   7 -13   3    5.63    1.49
   7 -13   3    6.40    2.74
   7 -13   3    5.75    1.65
  -7 -13  -3    7.53    2.10
  -7 -13  -3    6.38    2.20
   7  13   4    3.11    1.44
   7 -13   4    1.84    2.26
   7 -13   4    2.16    1.26
   7 -13   4    1.13    1.32
  -7 -13  -4    2.86    1.13
  -7 -13  -4    0.72    1.09
   7  13   5    6.67    1.84
   7 -13   5    9.17    2.76
   7 -13   5    5.27    1.07
   7 -13   5    6.41    1.61
  -7 -13  -5    7.43    2.16
  -7 -13  -5    7.19    1.37
   7  13   6    3.28    1.71
   7 -13   6    2.78    1.52
   7 -13   6    1.75    1.36
  -7 -13  -6    1.21    1.86
  -7 -13  -6    2.72    1.17
   7 -13   7   36.46    3.72
   7 -13   7   33.26    2.75
   7  14 -10   -1.23    1.76
   7 -14 -10   -0.28    2.26
  -7 -14  10    1.40    2.01
  -7  14  10    0.34    1.72
  -7  14  10    0.46    1.06
   7  14  -9   10.52    2.97
   7 -14  -9    0.69    6.33
  -7 -14   9   11.92    3.15
  -7  14   9   11.82    2.88
  -7  14   9   14.49    1.80
   7 -14  -8   -0.20    2.76
  -7 -14   8    5.12    2.31
  -7  14   8    2.62    1.22
   7 -14  -7   18.81    3.55
  -7 -14   7   18.99    3.01
  -7  14   7   16.78    1.61
   7 -14  -6    1.31    2.02
  -7 -14   6    1.66    1.64
  -7  14   6    0.20    0.82
   7  14  -5    1.03    1.19
   7 -14  -5    0.06    1.73
  -7 -14   5   -0.41    1.46
  -7  14   5    0.43    0.73
   7  14  -4    1.34    0.85
   7 -14  -4    0.28    3.01
  -7 -14   4    1.01    2.49
  -7  14   4    0.99    0.75
   7  14  -3   24.27    1.67
   7 -14  -3   27.18    3.06
  -7 -14   3   24.57    2.65
   7  14  -2   -0.28    1.24
   7 -14  -2   -0.57    1.45
   7 -14  -2    3.11    1.48
  -7 -14   2    0.00    1.06
  -7 -14   2   -0.36    1.93
   7  14  -1   58.16    3.49
   7 -14  -1   62.12    3.61
   7 -14  -1   59.34    3.69
  -7 -14   1   56.62    3.16
  -7 -14   1   58.55    2.69
   7  14   0    4.38    1.83
   7 -14   0    2.24    1.72
   7 -14   0    2.10    1.78
  -7 -14   0    2.57    1.43
  -7 -14   0    2.07    1.24
   7  14   1   24.51    2.96
   7 -14   1   29.05    4.25
   7 -14   1   29.90    4.15
  -7 -14  -1   26.19    2.25
  -7 -14  -1   27.71    2.02
   7  14   2    2.20    2.06
   7 -14   2    2.91    2.62
   7 -14   2    0.04    1.60
  -7 -14  -2    3.50    1.37
  -7 -14  -2    3.42    1.95
   7  14   3   25.81    2.25
   7 -14   3   27.89    3.94
   7 -14   3   25.08    3.88
  -7 -14  -3   24.30    2.17
  -7 -14  -3   23.09    3.08
   7  14   4   -0.04    1.13
   7 -14   4    1.48    1.93
   7 -14   4    0.30    1.15
  -7 -14  -4   -0.16    0.96
  -7 -14  -4    0.58    0.92
   7  14   5    0.27    2.04
   7 -14   5    0.15    2.05
   7 -14   5    0.20    1.96
  -7 -14  -5   -0.02    1.03
  -7 -14  -5    1.29    1.00
   7 -15  -9    0.02    3.46
  -7 -15   9    5.40    2.82
  -7  15   9    5.80    1.42
   7 -15  -8   -0.85    2.61
  -7 -15   8    4.83    3.27
  -7  15   8    0.71    1.56
   7 -15  -7   18.47    4.08
  -7 -15   7   22.17    3.34
  -7  15   7   21.07    2.46
   7 -15  -6   -1.53    4.47
  -7 -15   6    4.09    3.51
  -7  15   6    4.16    1.65
   7  15  -5   21.90    1.53
   7 -15  -5   26.88    3.63
  -7 -15   5   27.41    3.04
  -7  15   5   23.50    2.21
   7  15  -4   -0.50    0.75
   7 -15  -4    0.06    1.72
  -7 -15   4   -0.56    2.39
   7  15  -3   26.65    2.54
   7 -15  -3   33.00    3.45
  -7 -15   3   27.43    2.55
  -7 -15   3   31.47    2.99
   7  15  -2    1.80    0.91
   7 -15  -2   -0.22    1.80
   7 -15  -2    0.77    1.84
  -7 -15   2    0.56    2.20
  -7 -15   2    0.76    2.51
   7  15  -1   10.17    1.33
   7 -15  -1    0.40    2.37
   7 -15  -1    8.48    2.43
  -7 -15   1    7.76    1.98
  -7 -15   1    6.89    1.70
   7  15   0   11.16    1.52
   7 -15   0    0.04    2.45
   7 -15   0   11.92    2.53
  -7 -15   0   15.63    2.06
  -7 -15   0   14.58    1.81
   7  15   1    2.60    1.18
   7 -15   1   -0.28    3.00
   7 -15   1    1.07    1.86
  -7 -15  -1    1.73    2.14
  -7 -15  -1    3.15    1.45
   7  15   2    1.46    1.11
   7 -15   2    1.19    1.56
   7 -15   2    0.11    1.55
  -7 -15  -2    1.64    1.30
  -7 -15  -2   -0.59    1.91
   7  15   3   19.04    2.03
   7 -15   3   16.16    2.62
   7 -15   3    0.25    3.95
  -7 -15  -3   15.32    3.10
  -7 -15  -3   19.85    2.13
   7  15   4   -1.17    1.78
   7 -15   4   -0.25    2.13
   7 -15   4   -0.31    1.25
  -7 -15  -4    1.54    1.06
  -7 -15  -4    0.15    1.00
   7 -16  -7   14.29    3.88
  -7 -16   7   17.17    3.21
  -7  16   7   11.75    1.40
   7 -16  -6    2.64    4.28
  -7 -16   6    1.13    3.42
   7 -16  -5   -0.48    2.37
  -7 -16   5    2.64    1.92
   7 -16  -4    0.05    2.42
  -7 -16   4    6.23    3.24
   7 -16  -3    0.25    2.26
   7 -16  -3    3.61    2.18
  -7 -16   3    2.34    1.69
  -7 -16   3    1.64    1.86
   7  16  -2    1.24    0.91
   7 -16  -2    0.34    2.04
   7 -16  -2    0.47    2.03
  -7 -16   2    1.67    1.70
  -7 -16   2    2.43    1.47
   7  16  -1   41.30    3.09
   7 -16  -1   53.05    3.90
   7 -16  -1   45.15    5.87
  -7 -16   1   45.81    3.31
  -7 -16   1   43.11    2.87
   7  16   0    0.56    1.59
   7 -16   0   -0.26    1.85
   7 -16   0    1.00    1.88
  -7 -16   0    0.87    1.55
  -7 -16   0    3.23    1.35
   7  16   1   27.16    3.01
   7 -16   1   26.99    3.17
   7 -16   1   32.23    3.32
  -7 -16  -1   29.22    2.71
  -7 -16  -1   31.52    3.79
   7  16   2   -0.78    1.42
   7 -16   2    0.18    1.47
   7 -16   2   -0.16    1.40
  -7 -16  -2    0.88    1.79
  -7 -16  -2   -1.39    1.88
  -8   0  17    0.08    2.58
  -8   0  16    0.05    1.47
  -8   0  15   -0.34    1.96
  -8   0  15    0.03    1.46
   8   0 -14    0.05    1.43
  -8   0  14   -0.01    1.25
   8   0 -13    0.79    1.67
  -8   0  13    0.08    1.51
  -8   0  12   36.88    3.19
  -8   0  11   -0.67    1.46
  -8   0  10  106.50    4.29
   8   0  -9    0.71    1.34
  -8   0   9    0.43    1.44
  -8   0   9    1.10    1.34
   8   0  -8  172.37    5.26
   8   0  -8  178.45    5.02
  -8   0   8  172.57    5.00
  -8   0   8  172.85    5.18
   8   0  -7   -0.71    1.24
   8   0  -7    1.44    1.04
  -8   0   7    0.49    1.14
  -8   0   7    0.50    1.17
   8   0  -6  136.18    4.43
   8   0  -6  137.31    4.95
  -8   0   6  135.81    3.67
  -8   0   6  143.30    5.98
   8   0  -5   -0.25    0.83
   8   0  -5    0.10    0.52
  -8   0   5   -0.77    0.80
  -8   0   5    0.37    0.56
   8   0  -4    0.12    1.29
   8   0  -4    1.29    0.70
  -8   0   4    1.49    0.75
  -8   0   4    0.20    1.23
   8   0  -3    1.59    1.00
   8   0  -3   -0.14    0.42
  -8   0   3   -0.20    0.18
  -8   0   3    0.59    0.99
   8   0  -2  536.81   11.27
   8   0  -2  537.00    8.80
  -8   0   2  551.74    8.08
   8   0  -1    0.17    0.13
   8   0  -1    0.58    1.06
   8   0   0  599.30   12.43
   8   0   1   -2.51    2.44
   8   0   2   36.83    2.61
   8   0   3    0.26    1.15
   8   0   4  198.24    7.81
   8   0   5    1.20    1.47
  -8  -1  17    0.28    1.55
  -8   1  17   -0.19    1.64
  -8  -1  16   -0.23    1.61
  -8   1  16    0.08    2.72
   8   1 -15   -0.33    1.68
  -8  -1  15    0.37    1.45
  -8   1  15    0.15    1.50
  -8   1  14   34.20    3.39
  -8  -1  14   26.76    3.26
   8  -1 -13    3.03    2.01
  -8  -1  13    3.73    2.73
  -8  -1  13   -0.66    2.20
  -8   1  13   -0.17    1.75
   8  -1 -12    7.42    2.45
  -8   1  12    6.29    3.53
  -8  -1  12    9.59    2.15
  -8  -1  12    0.09    2.64
  -8  -1  11    1.68    1.65
  -8  -1  11    2.27    1.99
  -8   1  11    1.58    1.63
   8   1 -10   -0.09    1.11
  -8  -1  10    1.80    1.27
  -8  -1  10   -1.20    1.10
  -8   1  10    0.48    1.83
   8   1  -9   12.11    2.04
   8  -1  -9   11.88    2.22
  -8  -1   9   11.34    2.30
  -8  -1   9   14.96    3.40
  -8   1   9   13.56    2.23
  -8   1   9   12.70    2.16
   8   1  -8   40.86    2.85
   8   1  -8   70.22    4.06
   8  -1  -8   44.58    2.91
  -8   1   8   42.31    2.78
  -8  -1   8   48.16    2.87
  -8  -1   8   43.42    2.87
  -8   1   8   44.65    2.84
   8   1  -7    9.13    1.91
   8   1  -7    8.87    2.45
   8  -1  -7    8.81    3.08
   8  -1  -7   10.57    1.82
  -8   1   7    9.49    2.89
  -8  -1   7    9.87    1.78
  -8  -1   7   11.19    1.86
  -8   1   7    9.26    2.99
   8   1  -6  307.25    7.32
   8   1  -6  308.65    6.48
   8  -1  -6  308.45    9.28
   8  -1  -6  312.56    6.79
  -8   1   6  312.15    6.32
  -8  -1   6  311.10    7.36
  -8  -1   6  309.65    8.22
  -8   1   6  309.39    7.30
   8   1  -5    0.46    1.15
   8   1  -5    0.44    0.69
   8  -1  -5   -2.04    1.95
   8  -1  -5    0.39    0.81
  -8  -1   5   -0.48    1.21
  -8  -1   5    0.33    0.81
  -8   1   5    1.17    1.11
  -8   1   5    0.29    0.75
   8   1  -4  713.25   14.56
   8   1  -4  715.88   12.56
   8  -1  -4  712.98   13.70
   8  -1  -4  725.93   16.44
  -8   1   4  722.93   12.03
  -8  -1   4  718.47   13.23
  -8  -1   4  742.72   16.73
  -8   1   4  730.71   14.77
   8   1  -3    3.12    0.62
   8   1  -3    4.14    1.50
   8  -1  -3   -0.88    2.61
   8  -1  -3    4.17    0.72
  -8   1   3    4.94    1.48
   8   1  -2  110.14    1.96
   8   1  -2  111.78    3.75
   8  -1  -2  115.09    5.31
   8  -1  -2  113.00    2.66
  -8   1   2  100.78    2.21
  -8  -1   2  115.97    1.91
   8   1  -1    6.16    0.27
   8   1  -1    9.09    1.69
   8  -1  -1    4.76    2.75
   8  -1  -1    7.77    0.57
  -8  -1   1    6.92    0.28
   8   1   0   73.10    3.23
   8  -1   0   70.67    3.12
   8   1   1    0.67    1.19
   8  -1   1    0.51    1.16
   8   1   2   28.85    3.96
   8  -1   2   31.05    2.45
   8   1   3    3.00    1.67
   8  -1   3    3.11    1.61
   8   1   4  239.29    6.76
   8  -1   4  227.01    6.47
   8   1   5   12.70    2.28
   8  -1   5   11.70    2.17
   8  -1   6    5.75    1.85
  -8   2  16   -0.04    2.35
  -8  -2  16   -0.02    1.35
   8  -2 -15   -0.25    1.77
  -8  -2  15   -0.02    1.38
  -8   2  15   -0.01    1.52
  -8   2  14    0.05    1.40
  -8  -2  14    0.05    2.05
  -8   2  13    4.62    2.21
  -8  -2  13    5.05    2.11
   8  -2 -12   70.30    4.51
  -8   2  12   68.83    6.04
  -8   2  12   69.37    4.42
  -8  -2  12   67.72    3.87
  -8  -2  12   71.60    4.62
   8  -2 -11   10.23    2.64
   8   2 -11    9.79    2.35
  -8   2  11   11.51    2.29
  -8  -2  11   12.12    2.74
  -8  -2  11   12.72    2.30
   8   2 -10  224.80    6.53
  -8   2  10  228.51    6.70
  -8  -2  10  227.79    6.84
  -8  -2  10  238.37    6.69
   8  -2  -9   -1.87    1.56
  -8   2   9    1.24    1.40
  -8  -2   9    1.60    1.51
  -8  -2   9   -0.13    1.34
   8  -2  -8  151.56    4.90
   8   2  -8  142.11    4.65
   8   2  -8  148.86    5.84
  -8   2   8  145.76    4.40
  -8   2   8  147.80    4.72
  -8  -2   8  144.06    4.65
  -8  -2   8  151.55    6.37
   8  -2  -7   19.26    2.19
   8  -2  -7   19.35    2.23
   8   2  -7   16.27    2.19
   8   2  -7   19.41    1.75
  -8   2   7   17.56    3.21
  -8   2   7   17.51    2.17
  -8  -2   7   19.27    2.10
  -8  -2   7   21.93    2.11
   8  -2  -6   49.59    2.56
   8  -2  -6   47.86    2.84
   8   2  -6   49.37    2.74
   8   2  -6   46.32    2.07
  -8   2   6   46.53    2.27
  -8   2   6   49.10    2.75
  -8  -2   6   51.46    2.75
  -8  -2   6   47.65    2.40
   8  -2  -5   35.64    2.04
   8  -2  -5   37.11    2.49
   8   2  -5   35.01    1.64
   8   2  -5   37.39    2.43
  -8   2   5   36.60    1.79
  -8   2   5   35.23    2.45
  -8  -2   5   38.29    2.46
  -8  -2   5   35.25    3.02
   8  -2  -4   30.12    2.68
   8  -2  -4   29.87    2.28
   8   2  -4   29.29    1.28
   8   2  -4   25.50    2.28
  -8   2   4   30.63    1.44
  -8   2   4   27.90    2.21
  -8  -2   4   29.16    2.27
  -8  -2   4   28.76    1.51
   8  -2  -3   11.73    1.09
   8  -2  -3   12.22    1.83
   8   2  -3   11.20    0.79
   8   2  -3   12.51    1.83
  -8   2   3   14.09    1.75
  -8   2   3   13.46    0.89
   8  -2  -2   15.25    1.80
   8   2  -2   14.58    0.89
   8   2  -2   14.99    1.90
   8  -2  -2   14.40    0.93
  -8  -2   2   14.43    1.13
   8   2  -1   -0.08    0.94
   8  -2  -1    0.27    0.94
   8  -2  -1   -0.15    0.52
  -8  -2   1    0.17    0.20
   8  -2   0  311.97    4.42
   8   2   0  343.74    7.90
   8  -2   0  330.65    4.48
   8  -2   0  337.57    7.66
   8   2   1    9.56    1.84
   8  -2   1    6.98    1.68
   8   2   2  129.75    6.16
   8  -2   2  131.54    4.34
   8   2   3   31.54    2.71
   8  -2   3   31.11    3.91
   8   2   4  111.92    4.46
   8  -2   4  112.87    4.23
   8   2   5    0.72    1.40
   8  -2   5    0.36    1.31
   8  -2   6   29.01    2.65
  -8   3  16   34.56    4.68
  -8   3  16   29.56    4.03
  -8  -3  16   34.87    3.65
  -8   3  15   10.39    3.76
  -8  -3  15    0.00    3.49
  -8   3  15    0.17    2.66
   8  -3 -14   40.52    4.50
  -8   3  14   41.92    4.14
  -8   3  14   41.02    3.87
  -8  -3  14   45.85    3.56
   8   3 -13    1.47    1.83
  -8   3  13    1.17    1.78
  -8   3  13   -0.20    1.96
  -8  -3  13    1.14    1.64
   8  -3 -12   -2.64    2.64
   8   3 -12   -0.50    1.33
  -8   3  12    0.01    1.47
  -8   3  12    0.75    1.32
  -8  -3  12   -0.03    1.94
   8  -3 -11    2.27    2.18
   8   3 -11    2.68    1.81
  -8   3  11    3.09    2.00
  -8   3  11    2.82    1.79
  -8  -3  11    2.14    1.73
   8   3 -10   69.18    3.55
   8  -3 -10   75.09    4.19
  -8   3  10   69.93    3.96
  -8   3  10   70.68    3.68
  -8  -3  10   66.77    4.17
  -8  -3  10   70.68    5.18
   8  -3  -9   37.84    4.93
  -8   3   9   35.74    2.84
  -8   3   9   36.65    2.70
  -8  -3   9   34.07    3.10
  -8  -3   9   37.13    2.65
   8  -3  -8   46.81    3.17
   8   3  -8   47.21    2.53
   8   3  -8   42.03    2.75
  -8   3   8   41.99    4.41
  -8  -3   8   47.61    3.03
  -8   3   8   46.97    2.70
  -8  -3   8   50.15    2.79
   8  -3  -7   57.43    3.08
   8  -3  -7   56.58    3.16
   8   3  -7   57.00    2.51
   8   3  -7   54.66    2.87
  -8   3   7   57.70    4.06
  -8   3   7   58.87    2.99
  -8  -3   7   56.36    2.96
  -8  -3   7   57.76    4.35
   8  -3  -6  129.50    6.11
   8  -3  -6  129.07    4.25
   8   3  -6  128.26    4.16
   8   3  -6  129.14    4.54
  -8   3   6  126.35    4.16
  -8  -3   6  131.02    4.19
  -8   3   6  129.88    3.55
  -8  -3   6  126.63    3.81
   8  -3  -5    5.07    1.53
   8  -3  -5    4.28    1.46
   8   3  -5    4.36    0.95
   8   3  -5    4.30    1.53
  -8   3   5    4.03    1.11
  -8   3   5    4.22    1.49
  -8  -3   5    5.20    1.50
  -8  -3   5    4.49    1.23
   8  -3  -4  179.48    4.32
   8  -3  -4  181.17    4.93
   8   3  -4  175.05    4.34
   8   3  -4  174.19    4.91
  -8   3   4  181.18    3.72
  -8   3   4  181.69    4.91
  -8  -3   4  185.21    5.03
  -8  -3   4  179.48    3.87
   8  -3  -3    3.60    1.35
   8  -3  -3    2.45    0.96
   8   3  -3    1.95    0.58
   8   3  -3    4.43    1.39
  -8   3   3    3.19    1.32
  -8   3   3    3.00    0.74
   8  -3  -2  110.10    3.64
   8  -3  -2  110.79    2.59
   8   3  -2  105.17    3.64
   8   3  -2  103.99    2.35
  -8  -3   2  106.37    2.02
   8  -3  -1    0.18    1.08
   8  -3  -1    0.86    0.89
   8   3  -1    0.80    1.12
  -8  -3   1    0.67    0.39
   8  -3   0   15.79    0.84
   8  -3   0   16.78    0.73
   8  -3   0   15.45    1.83
   8   3   0   15.36    2.01
   8  -3   1   -0.28    0.91
   8  -3   1    0.20    0.23
   8  -3   1    0.15    0.30
   8   3   1   -0.19    1.06
   8  -3   2    0.11    1.61
   8   3   2   -0.40    1.14
   8  -3   3    0.15    1.04
   8   3   3   -0.53    1.14
   8  -3   4    7.31    1.84
   8   3   4    8.32    2.06
   8  -3   5   25.99    2.50
   8  -3   6   73.88    3.70
   8  -3   7   27.80    2.73
   8  -4 -16   -0.04    2.76
   8   4 -16    0.19    2.50
  -8   4  16   -0.11    2.51
  -8   4  16    2.72    2.23
  -8  -4  16    3.39    3.13
   8   4 -15   -0.04    2.19
  -8   4  15   -0.06    2.23
  -8   4  15    0.47    3.20
  -8  -4  15    2.47    1.74
   8  -4 -14   -0.05    6.73
   8   4 -14   34.43    3.63
  -8   4  14   22.77    3.60
  -8   4  14   26.73    3.48
  -8  -4  14   31.05    3.07
  -8  -4  14   37.51    4.71
   8  -4 -13   -0.25    2.41
   8   4 -13    0.25    2.03
  -8   4  13    0.18    2.07
  -8   4  13    4.97    1.92
  -8  -4  13    3.46    1.75
  -8  -4  13   -0.36    2.57
   8  -4 -12   53.76    4.28
   8   4 -12   50.22    3.60
  -8   4  12   39.84    3.53
  -8   4  12   44.43    3.69
  -8  -4  12   47.40    3.29
   8  -4 -11   48.76    4.11
   8   4 -11   46.74    3.42
  -8   4  11   50.64    3.43
  -8   4  11   50.34    3.59
  -8  -4  11   48.99    3.22
   8  -4 -10   78.30    4.47
   8   4 -10   78.09    3.70
  -8   4  10   75.04    3.82
  -8   4  10   79.19    3.92
  -8  -4  10   77.08    4.38
  -8  -4  10   79.19    3.62
   8  -4  -9    6.34    2.22
   8   4  -9    6.53    2.71
  -8   4   9    5.00    3.01
  -8   4   9    4.35    1.83
  -8  -4   9    5.35    2.09
  -8  -4   9    6.79    2.73
   8  -4  -8    4.19    2.04
   8   4  -8    4.48    1.42
   8   4  -8    3.09    1.58
  -8   4   8    5.83    2.61
  -8   4   8    4.23    1.55
  -8  -4   8    3.50    1.83
  -8  -4   8    4.85    1.56
   8  -4  -7    5.61    1.74
   8  -4  -7    7.39    1.95
   8   4  -7    6.70    1.35
   8   4  -7    5.68    1.62
  -8   4   7    5.89    1.64
  -8   4   7    6.20    2.49
  -8  -4   7    5.28    1.61
  -8  -4   7    5.60    1.72
   8  -4  -6    3.12    2.91
   8  -4  -6    2.00    2.49
   8   4  -6    4.99    1.14
   8   4  -6    4.63    1.50
  -8   4   6    5.14    1.50
  -8  -4   6    4.08    1.48
  -8   4   6    3.72    1.27
  -8  -4   6    4.97    1.45
   8  -4  -5    5.01    1.42
   8  -4  -5    2.33    2.24
   8   4  -5    3.18    1.44
   8   4  -5    2.11    1.38
  -8   4   5    3.16    1.34
  -8   4   5    2.71    1.05
  -8  -4   5    0.68    2.21
  -8  -4   5    3.09    1.19
   8  -4  -4    3.63    2.39
   8  -4  -4    6.06    1.44
   8   4  -4    5.99    1.51
   8   4  -4    5.50    0.88
  -8   4   4    7.49    1.07
  -8   4   4    6.12    1.48
  -8  -4   4    5.85    1.13
   8  -4  -3    4.96    1.89
   8  -4  -3    4.66    2.28
   8   4  -3    4.20    1.45
   8   4  -3    4.32    1.08
  -8   4   3    4.49    0.88
  -8   4   3    4.26    1.41
  -8  -4   3    4.65    0.85
   8  -4  -2   60.78    4.02
   8  -4  -2   61.13    2.05
   8   4  -2   57.73    1.83
   8   4  -2   60.93    2.86
   8  -4  -1   26.40    2.05
   8  -4  -1   25.38    3.14
   8   4  -1   25.76    2.20
  -8  -4   1   24.64    1.12
   8  -4   0   43.84    1.18
   8  -4   0   42.19    1.30
   8  -4   0   42.52    2.44
   8   4   0   45.68    2.68
   8  -4   1    4.49    0.69
   8  -4   1    4.05    0.90
   8  -4   1    3.29    1.41
   8   4   1    4.75    1.65
   8  -4   2  169.22    2.67
   8  -4   2  170.73    2.59
   8  -4   2  185.08    5.03
   8   4   2  187.94    5.44
   8  -4   3    3.03    0.46
   8  -4   3    3.35    0.28
   8  -4   3    3.46    1.46
   8   4   3    4.33    1.70
   8  -4   4   68.44    4.70
   8   4   4   64.55    3.58
   8  -4   5    0.34    1.15
   8  -4   5    0.23    0.23
   8  -4   5    0.45    0.20
   8  -4   6    2.14    0.28
   8  -4   6    3.61    2.53
   8  -4   6    3.08    0.34
   8  -4   7    9.93    2.09
   8  -4   8    0.83    1.44
   8  -5 -16   -0.04    2.49
   8   5 -16    0.08    2.08
  -8   5  16   -0.04    2.24
  -8   5  16    1.35    1.94
  -8  -5  16    0.47    1.62
  -8  -5  16    0.07    2.79
   8  -5 -15    0.15    2.63
   8   5 -15    0.16    2.14
  -8   5  15   -0.08    2.24
  -8   5  15    2.07    3.17
  -8  -5  15    2.22    1.71
  -8  -5  15   -0.03    2.86
   8  -5 -14    0.11    2.17
   8   5 -14   -0.08    1.75
  -8   5  14    0.03    3.07
  -8   5  14   -0.38    1.64
  -8  -5  14   -0.73    1.44
  -8  -5  14   -0.38    2.41
   8  -5 -13    0.21    3.64
   8   5 -13    0.01    1.78
  -8   5  13    0.00    3.08
  -8   5  13    0.70    1.72
  -8  -5  13    2.00    1.54
  -8  -5  13   -0.10    4.01
   8  -5 -12    2.82    2.24
   8   5 -12    0.94    1.77
  -8   5  12   -0.02    1.88
  -8   5  12    2.25    1.74
  -8  -5  12    1.94    1.54
  -8  -5  12    0.20    2.30
   8  -5 -11    3.55    2.44
   8   5 -11    4.45    1.89
  -8   5  11   -0.07    2.01
  -8   5  11    5.53    1.90
  -8  -5  11    5.30    2.44
  -8  -5  11    2.83    1.65
   8  -5 -10    1.53    1.99
   8   5 -10   -0.09    1.42
  -8   5  10    1.31    1.55
  -8   5  10    1.49    1.49
  -8  -5  10    1.07    2.97
  -8  -5  10    1.21    1.34
   8  -5  -9    4.52    2.18
   8   5  -9    1.64    2.48
  -8   5   9    2.23    2.79
  -8   5   9    3.91    1.65
  -8  -5   9    3.86    1.99
  -8  -5   9    2.79    1.50
   8  -5  -8   41.88    5.16
   8   5  -8   39.33    2.55
   8   5  -8   40.70    2.50
  -8   5   8   41.38    2.59
  -8   5   8   37.29    4.14
  -8  -5   8   43.99    3.07
  -8  -5   8   40.68    3.94
   8  -5  -7   13.06    2.29
   8   5  -7   14.20    1.63
   8   5  -7   11.96    1.88
  -8   5   7    8.40    2.85
  -8   5   7   10.92    1.89
  -8  -5   7   11.83    1.85
  -8  -5   7   12.01    2.06
   8  -5  -6  102.28    5.99
   8  -5  -6   99.71    3.73
   8   5  -6   99.29    3.09
   8   5  -6  101.10    3.65
  -8   5   6  100.33    3.15
  -8   5   6  102.76    3.62
  -8  -5   6  102.16    3.64
  -8  -5   6  101.34    3.50
   8  -5  -5    2.80    1.45
   8  -5  -5    2.23    1.33
   8   5  -5    1.96    0.92
   8   5  -5    2.34    1.34
  -8   5   5    1.29    1.30
  -8   5   5    2.65    1.06
  -8  -5   5    1.59    1.33
  -8  -5   5    4.27    1.94
   8  -5  -4   53.77    2.65
   8  -5  -4   57.48    4.19
   8   5  -4   55.86    2.75
   8   5  -4   53.55    1.89
  -8   5   4   56.81    2.59
  -8   5   4   54.31    2.06
  -8  -5   4   57.22    3.26
   8  -5  -3    5.07    1.25
   8  -5  -3    3.47    1.40
   8   5  -3    2.62    1.15
   8   5  -3    3.41    1.42
  -8   5   3    5.90    1.34
  -8   5   3    4.18    0.95
  -8  -5   3    4.32    1.54
   8  -5  -2   87.57    3.19
   8  -5  -2   83.58    3.66
   8   5  -2   84.88    3.22
   8  -5  -1    8.45    1.61
   8  -5  -1    9.84    1.13
   8   5  -1    8.36    1.69
  -8  -5   1   10.08    0.70
   8  -5   0   12.26    0.96
   8  -5   0   13.64    1.67
   8  -5   0   10.74    0.82
   8   5   0   10.71    1.79
  -8  -5   0   10.62    0.71
  -8  -5   0   10.04    0.40
   8  -5   1    2.37    0.83
   8  -5   1    2.56    0.97
   8  -5   1    1.35    1.25
   8   5   1    2.29    1.47
   8  -5   2    1.75    1.30
   8  -5   2    2.99    0.48
   8  -5   2    2.34    0.84
   8   5   2    2.05    1.60
   8  -5   3   18.10    1.90
   8  -5   3   14.93    1.05
   8  -5   3   14.68    0.71
   8   5   3   17.83    2.26
   8  -5   4   31.45    2.30
   8  -5   4   22.72    1.09
   8  -5   4   23.10    1.18
   8   5   4   31.15    2.66
   8  -5   5   17.67    0.90
   8  -5   5   23.18    2.14
   8  -5   5   17.30    1.08
   8  -5   6   14.39    0.85
   8  -5   6   20.49    2.15
   8  -5   6   14.82    1.06
   8  -5   7    7.21    1.88
   8  -5   8    5.82    1.88
   8  -6 -16   -0.08    2.39
   8   6 -16   -0.03    3.15
  -8   6  16   -0.03    2.03
  -8  -6  16    0.48    1.47
  -8  -6  16    0.17    2.63
   8  -6 -15    0.29    2.06
   8   6 -15    0.02    2.66
  -8   6  15   -0.06    1.68
  -8   6  15    2.14    2.45
  -8  -6  15   -1.33    2.00
  -8  -6  15    0.10    3.58
   8  -6 -14    0.07    2.01
   8   6 -14    0.19    2.50
  -8   6  14    0.04    1.60
  -8  -6  14    0.04    2.08
   8  -6 -13    0.01    1.93
   8   6 -13    1.20    2.46
  -8   6  13    0.09    1.55
  -8   6  13    1.12    1.44
  -8  -6  13   -0.55    1.24
  -8  -6  13   -0.12    2.01
   8  -6 -12   -0.18    4.88
   8   6 -12    9.35    2.37
  -8   6  12    0.02    2.46
  -8   6  12   10.13    2.29
  -8  -6  12   -0.29    4.82
  -8  -6  12   12.08    2.98
   8  -6 -11    3.62    2.65
   8   6 -11    4.33    1.99
  -8   6  11    0.06    3.42
  -8   6  11    5.15    1.92
  -8  -6  11    5.12    2.59
  -8  -6  11    4.42    1.68
   8  -6 -10    7.54    2.74
   8   6 -10    6.97    2.00
  -8   6  10    5.47    2.04
  -8   6  10    7.78    1.98
  -8  -6  10    6.67    2.58
  -8  -6  10    7.29    1.78
   8  -6  -9    2.34    2.19
   8   6  -9    3.85    1.56
  -8   6   9    1.92    1.66
  -8   6   9    1.65    1.60
  -8  -6   9    4.53    3.17
  -8  -6   9    3.43    1.46
   8  -6  -8   22.57    2.90
   8   6  -8   20.45    2.07
   8   6  -8   18.55    2.07
  -8   6   8   23.28    3.49
  -8   6   8   21.74    2.13
  -8  -6   8   22.66    2.09
  -8  -6   8   19.32    2.55
   8  -6  -7    3.77    2.05
   8   6  -7    5.21    1.53
   8   6  -7    5.06    1.39
  -8   6   7    4.99    1.57
  -8   6   7    5.77    1.53
  -8  -6   7    5.96    1.53
  -8  -6   7    5.22    1.75
   8  -6  -6   30.00    2.69
   8  -6  -6   27.76    2.31
   8   6  -6   26.99    1.85
   8   6  -6   32.27    2.22
  -8   6   6   26.33    2.00
  -8   6   6   30.69    2.22
  -8  -6   6   31.13    3.42
  -8  -6   6   26.38    2.23
   8  -6  -5   41.26    2.61
   8  -6  -5   37.84    2.43
   8   6  -5   37.31    1.88
   8   6  -5   37.11    2.42
  -8   6   5   40.11    2.41
  -8   6   5   38.20    2.04
  -8  -6   5   40.28    3.35
   8  -6  -4    8.42    2.66
   8  -6  -4   10.61    2.91
   8   6  -4   10.07    1.69
   8   6  -4    9.72    1.10
  -8   6   4   10.56    1.59
  -8   6   4    9.76    1.31
  -8  -6   4    9.20    1.37
   8  -6  -3   10.12    1.51
   8  -6  -3    7.75    2.51
   8   6  -3    8.17    1.46
   8   6  -3    7.38    1.62
  -8   6   3    7.89    1.53
  -8   6   3    8.26    1.13
  -8  -6   3    8.66    1.13
   8  -6  -2   72.84    4.27
   8  -6  -2   73.83    3.76
   8   6  -2   73.07    3.11
  -8  -6   2   74.88    2.06
   8  -6  -1   14.45    2.94
   8  -6  -1   18.54    1.41
   8   6  -1   21.23    2.02
   8  -6   0   40.94    1.53
   8  -6   0   41.75    1.60
   8  -6   0   39.53    3.42
   8   6   0   42.48    2.59
  -8  -6   0   38.27    0.92
  -8  -6   0   38.97    1.51
   8  -6   1    7.06    0.80
   8  -6   1    6.59    0.79
   8  -6   1    6.80    1.43
   8   6   1    6.21    1.68
  -8  -6  -1    5.22    0.36
  -8  -6  -1    5.96    0.40
   8  -6   2   24.61    1.10
   8  -6   2   23.17    1.04
   8  -6   2   24.42    2.00
   8   6   2   23.88    2.40
   8  -6   3   -0.97    1.00
   8  -6   3    0.22    0.69
   8  -6   3    1.27    0.69
   8   6   3   -0.02    1.24
   8  -6   4    7.85    1.05
   8  -6   4    9.42    1.63
   8  -6   4    7.77    1.12
   8   6   4    8.78    2.10
   8  -6   5    4.23    0.89
   8  -6   5    5.34    1.55
   8  -6   5    5.60    1.03
   8  -6   6    9.71    1.67
   8  -6   6    6.77    1.13
   8  -6   6    3.97    0.90
   8  -6   7    1.16    0.94
   8  -6   7    0.13    0.38
   8  -6   7   -0.29    0.49
   8  -6   8    0.06    0.77
   8  -7 -15    0.18    3.39
   8   7 -15    5.11    2.63
  -8   7  15   -0.07    2.62
  -8   7  15    6.02    3.75
  -8  -7  15    4.43    1.91
  -8  -7  15    0.15    3.60
   8  -7 -14   -0.09    2.50
   8   7 -14    0.34    1.98
  -8   7  14    0.20    1.97
  -8   7  14    1.83    1.82
  -8  -7  14    0.78    1.45
  -8  -7  14   -0.23    2.65
   8  -7 -13   -0.45    4.79
   8   7 -13    4.82    2.29
  -8   7  13   -0.11    2.34
  -8   7  13    4.52    2.11
  -8  -7  13    4.31    3.11
  -8  -7  13    4.91    2.75
   8  -7 -12   -0.21    2.41
   8   7 -12    1.83    2.87
  -8   7  12   -0.03    1.81
  -8   7  12    1.58    2.66
  -8  -7  12    2.80    2.39
  -8  -7  12    1.19    1.42
   8  -7 -11   15.92    5.80
   8   7 -11   22.04    2.75
  -8   7  11   21.08    2.59
  -8  -7  11   20.15    3.52
  -8  -7  11   17.49    3.47
   8  -7 -10    4.48    2.71
   8   7 -10    7.51    1.97
  -8   7  10    4.79    1.98
  -8   7  10    5.03    2.04
  -8  -7  10    6.55    2.48
  -8  -7  10    6.90    1.66
   8  -7  -9   12.86    4.83
   8   7  -9   11.11    2.03
  -8   7   9   11.72    2.09
  -8   7   9   12.64    2.11
  -8  -7   9   12.27    1.89
  -8  -7   9   11.63    2.56
   8  -7  -8   20.90    2.93
   8   7  -8   21.79    2.09
   8   7  -8   16.39    1.97
  -8   7   8   17.80    3.38
  -8   7   8   19.81    3.51
  -8  -7   8   19.90    3.18
  -8  -7   8   16.40    3.98
   8  -7  -7    6.57    3.42
   8   7  -7    6.63    1.46
   8   7  -7    4.75    1.53
  -8   7   7    4.98    1.63
  -8   7   7    4.85    1.60
  -8  -7   7    7.26    1.52
  -8  -7   7    6.02    1.79
   8  -7  -6   37.89    2.94
   8   7  -6   36.10    2.15
   8   7  -6   33.70    2.37
  -8   7   6   35.81    2.18
  -8   7   6   34.20    2.36
  -8  -7   6   40.38    2.36
  -8  -7   6   36.02    2.48
   8  -7  -5    4.15    3.04
   8  -7  -5    5.65    1.57
   8   7  -5    7.81    1.24
   8   7  -5    8.62    1.53
  -8   7   5    6.69    1.51
  -8   7   5    6.38    1.38
  -8  -7   5    5.64    2.43
   8  -7  -4   11.75    1.89
   8  -7  -4   14.97    1.71
   8   7  -4    8.36    1.74
   8   7  -4   12.61    1.28
  -8   7   4   10.77    1.63
  -8   7   4   13.30    1.45
  -8  -7   4   12.56    1.48
   8  -7  -3    2.09    1.29
   8  -7  -3    3.07    1.25
   8   7  -3    1.91    1.32
  -8   7   3    3.13    1.20
  -8  -7   3    2.98    1.00
   8  -7  -2   31.73    3.10
   8  -7  -2   35.18    2.19
   8   7  -2   36.20    2.35
  -8  -7   2   34.75    2.40
   8  -7  -1    4.06    1.30
   8  -7  -1    5.68    1.11
   8   7  -1    6.04    1.48
  -8  -7   1    3.06    0.63
   8  -7   0   -0.17    0.60
   8  -7   0    0.04    0.61
   8  -7   0    0.75    0.84
   8   7   0    0.47    0.98
  -8  -7   0    0.02    0.35
  -8  -7   0   -0.44    0.27
   8  -7   1   28.70    2.07
   8  -7   1   25.64    1.37
   8  -7   1   31.34    2.03
   8   7   1   31.46    2.45
  -8  -7  -1   27.19    0.85
  -8  -7  -1   28.16    1.36
   8  -7   2   -0.37    0.82
   8  -7   2   -0.50    0.86
   8  -7   2    0.16    1.43
   8   7   2   -0.36    1.13
  -8  -7  -2    0.17    0.25
  -8  -7  -2    0.38    0.26
   8  -7   3   24.57    1.78
   8  -7   3   25.80    1.74
   8  -7   3   26.93    2.97
   8   7   3   27.43    2.52
  -8  -7  -3   23.00    0.59
  -8  -7  -3   22.56    0.58
   8  -7   4    0.40    0.90
   8  -7   4    1.04    1.04
   8  -7   4    0.34    0.53
   8   7   4    2.18    1.39
   8  -7   5   19.12    0.99
   8  -7   5   23.55    1.99
   8  -7   5   18.47    1.12
   8   7   5   21.51    2.67
   8  -7   6   15.99    1.89
   8  -7   6   12.46    1.04
   8  -7   6   12.17    0.83
   8  -7   7    1.44    1.14
   8  -7   7    0.35    0.77
   8  -7   7    0.74    0.97
   8  -8 -15    0.63    3.74
   8   8 -15    6.69    2.93
  -8   8  15    0.01    2.95
  -8   8  15    6.37    2.58
  -8  -8  15    7.69    2.01
  -8  -8  15    0.20    6.32
   8  -8 -14    0.20    6.46
   8   8 -14    9.54    3.04
  -8   8  14    0.03    5.05
  -8   8  14   11.50    2.75
  -8  -8  14   10.29    4.19
  -8  -8  14   11.40    2.15
   8  -8 -13   -0.05    2.51
   8   8 -13    1.23    1.88
  -8   8  13   -0.66    3.08
  -8   8  13    0.75    1.65
  -8  -8  13    0.89    2.55
  -8  -8  13    0.66    1.32
   8  -8 -12    0.98    5.59
   8   8 -12   12.32    2.67
  -8   8  12   10.25    2.67
  -8   8  12    8.75    3.89
  -8  -8  12   14.39    5.57
  -8  -8  12   11.55    3.12
   8  -8 -11   -0.14    2.82
   8   8 -11    3.77    3.34
  -8   8  11    4.59    1.94
  -8   8  11    6.06    2.07
  -8  -8  11    5.43    2.65
  -8  -8  11    3.98    1.60
   8  -8 -10   12.12    5.25
   8   8 -10   17.76    2.47
  -8   8  10   13.54    3.62
  -8   8  10   14.46    4.01
  -8  -8  10   14.94    2.00
  -8  -8  10   17.91    3.05
   8  -8  -9   14.15    2.93
   8   8  -9   10.25    2.09
  -8   8   9   10.69    2.06
  -8   8   9   12.19    2.12
  -8  -8   9   11.02    1.83
  -8  -8   9   10.85    2.57
   8  -8  -8   -0.48    2.65
   8   8  -8    0.03    1.01
   8   8  -8    0.59    1.85
  -8   8   8   -0.88    1.12
  -8   8   8    1.56    1.20
  -8  -8   8    0.40    1.03
   8  -8  -7    1.44    1.95
   8   8  -7    1.87    1.36
   8   8  -7    2.72    1.32
  -8   8   7    3.03    1.43
  -8   8   7    2.41    1.39
  -8  -8   7    3.09    1.30
  -8  -8   7    3.30    2.65
   8  -8  -6   -0.59    1.40
   8   8  -6    0.51    0.97
   8   8  -6    1.46    1.02
  -8   8   6    0.89    1.04
  -8   8   6    0.01    1.03
  -8  -8   6   -0.52    1.14
   8  -8  -5   87.96    3.81
   8  -8  -5   80.66    3.21
   8   8  -5   83.64    3.01
   8   8  -5   85.64    3.33
  -8   8   5   90.01    3.28
  -8   8   5   88.90    4.49
  -8  -8   5   87.37    3.30
   8  -8  -4   12.24    1.90
   8  -8  -4    9.57    2.54
   8   8  -4    9.25    1.69
   8   8  -4   10.31    1.33
  -8   8   4    9.89    1.54
  -8  -8   4    9.06    1.50
   8  -8  -3   39.11    3.71
   8  -8  -3   40.43    3.33
   8   8  -3   35.99    2.31
  -8   8   3   39.83    2.13
  -8  -8   3   36.39    1.98
   8  -8  -2    3.37    1.30
   8  -8  -2    4.28    1.25
   8   8  -2    3.01    1.43
  -8  -8   2    3.20    1.59
   8  -8  -1    2.29    0.98
   8  -8  -1    0.91    1.09
   8   8  -1    2.77    1.26
  -8  -8   1   -0.03    0.61
  -8  -8   1    3.07    0.74
   8  -8   0    1.38    1.01
   8  -8   0    3.04    0.82
   8  -8   0    2.12    0.82
   8   8   0    1.32    1.23
  -8  -8   0    0.02    0.51
  -8  -8   0    0.00    0.71
   8  -8   1   -0.40    0.96
   8  -8   1    0.27    1.01
   8  -8   1   -0.11    0.79
   8   8   1   -0.25    1.03
  -8  -8  -1   -0.17    0.27
  -8  -8  -1   -0.01    0.36
   8  -8   2   61.02    1.93
   8  -8   2   58.18    2.07
   8  -8   2   60.44    2.62
   8   8   2   65.02    4.87
  -8  -8  -2   55.78    1.39
  -8  -8  -2   56.88    1.91
   8  -8   3    0.82    0.68
   8  -8   3    1.23    0.72
   8  -8   3    1.63    1.06
   8   8   3    1.26    1.46
  -8  -8  -3    0.93    0.66
  -8  -8  -3    0.91    0.40
   8  -8   4   -0.35    0.45
   8  -8   4    0.35    0.78
   8  -8   4    0.23    1.21
   8   8   4    1.22    1.04
  -8  -8  -4    0.27    0.39
  -8  -8  -4   -0.16    0.39
   8  -8   5    5.37    1.31
   8  -8   5    7.37    1.46
   8  -8   5    5.28    0.96
   8   8   5    7.32    2.09
   8  -8   6    3.16    1.28
   8  -8   6    2.57    0.83
   8  -8   6    1.84    0.68
   8  -8   7    0.97    0.61
   8  -8   7    1.79    0.81
   8  -9 -14    0.24    2.65
   8   9 -14    1.48    3.12
  -8   9  14    0.38    1.94
  -8   9  14    0.95    1.66
  -8  -9  14   -0.22    2.68
  -8  -9  14    0.07    1.26
   8  -9 -13   -0.24    6.46
   8   9 -13   13.81    2.81
  -8   9  13   10.47    2.78
  -8   9  13   -0.07    2.51
  -8  -9  13    9.57    6.36
  -8  -9  13   12.48    3.00
   8  -9 -12   -1.00    2.44
   8   9 -12    0.87    1.75
  -8   9  12   -0.56    1.58
  -8   9  12    1.04    3.00
  -8  -9  12    1.37    2.36
  -8  -9  12    1.59    1.22
   8  -9 -11   -0.06    5.97
   8   9 -11   12.86    2.62
  -8   9  11   16.17    2.36
  -8   9  11   12.26    2.63
  -8  -9  11   12.08    3.06
  -8  -9  11   17.37    5.27
   8  -9 -10    9.21    3.00
   8   9 -10    7.92    3.48
  -8   9  10    9.46    3.17
  -8   9  10    5.92    2.19
  -8  -9  10    6.69    1.63
  -8  -9  10   12.02    2.76
   8  -9  -9   17.83    5.54
   8   9  -9   21.29    2.64
  -8   9   9   27.06    2.43
  -8   9   9   25.08    4.13
  -8  -9   9   24.24    2.08
  -8  -9   9   21.08    3.12
   8  -9  -8   28.86    3.42
   8   9  -8   26.03    3.88
   8   9  -8   26.51    2.06
  -8   9   8   27.51    2.52
  -8   9   8   29.65    2.35
  -8  -9   8   26.44    3.23
  -8  -9   8   26.91    2.89
   8  -9  -7   19.56    3.02
   8   9  -7   23.96    2.25
   8   9  -7   23.11    1.99
  -8   9   7   23.91    2.26
  -8   9   7   25.08    3.29
  -8  -9   7   23.61    2.03
  -8  -9   7   20.84    2.59
   8  -9  -6   10.15    2.40
   8   9  -6   10.39    1.70
   8   9  -6    8.98    1.63
  -8   9   6    8.71    2.92
  -8   9   6   11.10    1.67
  -8  -9   6    8.92    3.11
   8  -9  -5   27.47    2.73
   8   9  -5   26.58    2.01
   8   9  -5   29.71    2.09
  -8   9   5   26.00    1.99
  -8   9   5   25.07    2.10
  -8  -9   5   23.89    2.23
   8  -9  -4   12.38    3.44
   8  -9  -4   12.65    1.64
   8   9  -4   10.56    1.70
  -8   9   4   13.19    1.55
  -8  -9   4    9.51    2.62
   8  -9  -3   17.28    2.06
   8  -9  -3   14.81    1.73
   8   9  -3   17.35    1.89
  -8   9   3   17.26    1.62
  -8  -9   3   17.43    1.67
   8  -9  -2   35.25    2.20
   8  -9  -2   38.53    2.10
   8   9  -2   39.49    2.41
  -8  -9   2   37.72    2.79
   8  -9  -1   47.91    3.48
   8  -9  -1   46.29    2.26
   8  -9  -1   43.98    2.24
   8   9  -1   47.58    2.62
  -8  -9   1   44.23    1.60
  -8  -9   1   47.96    1.91
   8  -9   0    1.87    1.49
   8  -9   0    1.55    0.88
   8  -9   0    0.48    0.90
   8   9   0    0.68    1.16
  -8  -9   0    0.03    0.57
  -8  -9   0    0.90    1.02
   8  -9   1   26.59    1.64
   8  -9   1   28.75    2.83
   8  -9   1   28.43    2.53
   8   9   1   27.68    3.69
  -8  -9  -1   26.07    1.12
  -8  -9  -1   24.09    1.10
   8  -9   2    1.47    1.12
   8  -9   2    0.76    0.83
   8  -9   2    0.53    0.71
   8   9   2   -0.32    1.17
  -8  -9  -2   -0.13    0.45
  -8  -9  -2    0.28    0.48
   8  -9   3    7.74    1.06
   8  -9   3    6.26    1.40
   8  -9   3    6.88    1.76
   8   9   3    8.20    1.98
  -8  -9  -3    5.74    1.15
  -8  -9  -3    8.10    0.74
   8  -9   4   20.54    1.28
   8  -9   4   17.05    1.43
   8  -9   4   17.47    1.77
   8   9   4   21.75    3.86
  -8  -9  -4   17.96    0.90
  -8  -9  -4   16.64    1.40
   8  -9   5    6.67    2.26
   8  -9   5    6.94    1.58
   8  -9   5    6.96    1.75
   8   9   5    8.49    2.15
   8  -9   6   29.41    2.13
   8  -9   6   27.48    1.42
   8  -9   6   26.09    1.68
   8  -9   7    0.31    0.54
   8  -9   7   -0.54    1.09
   8 -10 -13    0.65    3.32
   8  10 -13    5.18    3.94
  -8  10  13    1.41    2.40
  -8  10  13   -0.20    3.24
  -8 -10  13    4.05    3.18
  -8 -10  13    4.28    1.55
   8 -10 -12   -0.21    3.25
   8  10 -12    7.44    2.37
  -8  10  12    0.41    2.00
  -8  10  12    5.64    2.32
  -8 -10  12    4.01    1.56
  -8 -10  12    7.37    4.95
   8 -10 -11   -0.78    2.91
   8  10 -11    4.00    2.17
  -8  10  11   -0.12    1.76
  -8  10  11    3.53    3.43
  -8 -10  11    4.94    1.43
  -8 -10  11    5.56    2.66
   8 -10 -10    0.87    3.98
   8  10 -10    1.89    1.78
  -8  10  10    0.52    1.49
  -8  10  10    0.86    1.75
  -8 -10  10    1.53    1.22
  -8 -10  10    2.82    2.18
   8 -10  -9    7.04    2.99
   8  10  -9    8.04    2.25
  -8  10   9   12.70    1.95
  -8  10   9    9.52    2.21
  -8 -10   9   10.43    2.58
  -8 -10   9   10.82    2.62
   8 -10  -8    1.84    4.01
   8  10  -8    4.20    1.82
  -8  10   8    5.86    1.77
  -8  10   8    4.35    1.52
  -8 -10   8    4.32    1.36
  -8 -10   8    2.72    2.12
   8 -10  -7   80.48    4.45
   8  10  -7   67.83    4.23
   8  10  -7   71.90    3.63
  -8  10   7   73.49    3.40
  -8  10   7   75.65    3.16
  -8 -10   7   82.12    3.88
   8 -10  -6   29.19    3.10
   8  10  -6   29.11    3.61
   8  10  -6   28.23    3.21
  -8  10   6   24.73    3.18
  -8  10   6   29.51    2.40
  -8 -10   6   30.28    2.61
   8 -10  -5   17.49    2.61
   8  10  -5   14.29    2.87
  -8  10   5   20.61    2.71
  -8 -10   5   15.59    3.25
   8 -10  -4    0.80    1.14
   8  10  -4   -0.84    0.87
  -8  10   4    0.11    1.22
  -8 -10   4    0.64    0.89
   8 -10  -3   84.84    5.12
   8 -10  -3   84.99    2.98
   8  10  -3   82.27    3.27
  -8 -10   3   88.60    4.52
   8 -10  -2    2.49    1.36
   8 -10  -2    0.83    1.06
   8  10  -2    3.23    1.28
  -8 -10   2    2.56    1.09
   8 -10  -1    5.13    1.45
   8 -10  -1    5.52    1.41
   8 -10  -1    6.65    1.22
   8  10  -1    4.78    1.56
  -8 -10   1    5.28    1.53
  -8 -10   1    5.08    1.82
   8 -10   0   -0.23    1.39
   8 -10   0    0.03    0.85
   8 -10   0    0.00    0.78
   8  10   0    0.63    1.62
  -8 -10   0    0.53    0.56
  -8 -10   0    0.05    0.64
   8 -10   1    2.70    1.05
   8 -10   1    1.59    1.03
   8 -10   1    2.32    1.70
   8  10   1    1.22    2.31
  -8 -10  -1    1.99    0.70
  -8 -10  -1    1.62    0.78
   8 -10   2   35.06    1.84
   8 -10   2   31.00    1.95
   8 -10   2   31.16    2.92
   8  10   2   38.24    2.73
  -8 -10  -2   31.31    2.03
  -8 -10  -2   33.10    2.07
   8 -10   3   30.52    2.67
   8 -10   3   29.89    1.90
   8 -10   3   33.97    2.97
   8  10   3   34.54    2.82
  -8 -10  -3   31.21    2.00
   8 -10   4   -0.55    0.64
   8 -10   4   -0.04    0.71
   8 -10   4    0.37    0.79
   8  10   4   -1.17    1.21
  -8 -10  -4   -0.17    0.58
  -8 -10  -4    0.20    0.77
  -8 -10  -4    0.02    0.80
   8 -10   5    0.63    0.82
   8 -10   5    0.67    0.92
   8 -10   5    0.03    0.71
   8  10   5    0.39    1.40
   8 -10   6   -0.25    0.60
   8 -10   6    0.03    1.13
   8  10   6    0.51    1.30
   8 -10   7    5.71    1.07
   8 -10   7    6.70    1.29
   8 -11 -13    0.15    3.41
   8  11 -13    4.33    2.55
  -8  11  13    0.02    1.96
  -8  11  13    5.54    4.07
  -8 -11  13    2.87    1.47
  -8 -11  13    6.49    3.33
   8 -11 -12   -0.47    3.28
   8  11 -12    4.41    2.48
  -8 -11  12    5.63    1.45
  -8  11  12   -0.02    1.93
  -8  11  12    4.88    2.40
  -8 -11  12    1.55    3.10
   8 -11 -11    0.60    4.01
   8  11 -11   14.61    2.95
  -8  11  11    0.32    3.70
  -8  11  11   21.84    3.00
  -8 -11  11   17.41    1.90
  -8 -11  11   25.40    3.76
   8 -11 -10   -0.23    2.33
   8  11 -10    1.95    1.81
  -8  11  10    0.20    1.41
  -8  11  10   -0.04    2.93
  -8 -11  10    0.93    1.81
  -8 -11  10    4.21    2.13
   8 -11  -9   -1.05    3.25
   8  11  -9   12.15    3.91
  -8  11   9   14.43    2.39
  -8  11   9   13.76    3.15
  -8 -11   9   14.50    1.73
  -8 -11   9   16.33    2.91
   8 -11  -8    0.44    2.49
   8  11  -8    4.02    1.88
  -8  11   8    6.28    3.02
  -8  11   8    3.94    1.44
  -8 -11   8    3.76    3.46
   8 -11  -7   15.48    4.80
   8  11  -7   11.79    1.59
   8  11  -7   10.33    3.43
  -8  11   7   12.93    2.16
  -8  11   7   13.17    1.73
  -8 -11   7   10.51    2.38
   8 -11  -6    8.21    2.46
   8  11  -6    8.57    1.87
   8  11  -6    6.86    1.50
  -8  11   6    7.12    1.53
  -8 -11   6    8.96    3.23
   8 -11  -5    3.75    1.91
   8  11  -5    4.42    1.27
  -8  11   5    2.75    1.21
  -8 -11   5    1.88    1.59
   8 -11  -4    0.39    1.37
   8  11  -4   -0.97    1.52
  -8  11   4    0.77    0.83
  -8 -11   4   -0.18    1.71
   8 -11  -3   24.86    2.46
   8  11  -3   26.38    3.13
  -8 -11   3   26.99    2.16
   8 -11  -2    4.17    2.65
   8 -11  -2    3.55    1.12
   8  11  -2    4.42    2.16
  -8 -11   2    3.46    2.09
   8 -11  -1   44.09    2.62
   8 -11  -1   43.27    2.57
   8 -11  -1   43.29    2.09
   8  11  -1   42.86    3.71
  -8 -11   1   40.78    1.80
  -8 -11   1   43.92    2.19
   8 -11   0    1.43    0.99
   8 -11   0   -0.60    1.59
   8 -11   0    0.26    0.79
   8  11   0    1.21    1.10
  -8 -11   0    0.01    0.66
  -8 -11   0    0.17    0.78
   8 -11   1   36.59    3.41
   8 -11   1   39.02    3.40
   8 -11   1   38.25    2.01
   8  11   1   39.29    2.58
  -8 -11  -1   37.35    1.61
  -8 -11  -1   34.59    1.81
   8 -11   2    2.67    1.14
   8 -11   2    3.95    1.20
   8 -11   2    2.57    1.07
   8  11   2    4.11    1.59
  -8 -11  -2    1.65    1.33
  -8 -11  -2    1.74    0.91
   8 -11   3   28.34    2.81
   8 -11   3   27.41    2.79
   8 -11   3   25.31    2.00
   8  11   3   31.80    4.09
  -8 -11  -3   28.23    2.19
  -8 -11  -3   26.87    1.40
   8 -11   4    2.95    1.10
   8 -11   4    6.35    1.94
   8 -11   4    2.64    1.17
   8  11   4    4.14    1.81
  -8 -11  -4    3.25    0.86
   8 -11   5    0.60    1.00
   8 -11   5    0.93    0.86
   8  11   5    0.66    1.56
   8 -11   6   10.63    1.34
   8 -11   6    9.93    1.56
   8  11   6   13.83    2.53
   8 -11   7    2.59    1.47
   8 -11   7    0.92    1.11
   8 -12 -12   -0.01    2.40
   8  12 -12   -1.54    1.70
  -8  12  12   -0.23    1.28
  -8  12  12    0.07    2.88
  -8 -12  12    0.60    0.94
  -8 -12  12    2.15    2.20
   8 -12 -11    0.73    3.99
   8  12 -11    1.58    1.85
  -8  12  11   -0.31    1.36
  -8  12  11    0.01    1.79
  -8 -12  11    0.53    1.02
  -8 -12  11    3.09    3.66
   8 -12 -10   -0.15    3.73
   8  12 -10   17.37    2.86
  -8  12  10   16.49    2.17
  -8  12  10   10.50    2.78
  -8 -12  10   13.61    1.69
  -8 -12  10   19.82    3.41
   8 -12  -9   -0.11    2.92
   8  12  -9    5.42    2.23
  -8  12   9    7.69    3.55
  -8  12   9    5.98    1.64
  -8 -12   9    3.70    4.11
   8 -12  -8    0.96    2.17
   8  12  -8    0.74    1.65
  -8  12   8    4.18    1.61
  -8  12   8    0.81    1.90
  -8 -12   8   -2.10    1.84
   8 -12  -7    0.49    2.75
   8  12  -7   11.72    2.18
   8  12  -7   10.05    1.44
  -8  12   7   -0.64    1.89
  -8  12   7   12.66    1.62
  -8 -12   7   11.35    3.68
   8 -12  -6   13.79    2.86
   8  12  -6   11.20    1.58
  -8  12   6   13.05    1.62
  -8 -12   6   10.21    2.21
   8 -12  -5   47.34    3.61
   8  12  -5   45.85    2.38
  -8  12   5   45.04    2.25
  -8 -12   5   42.60    4.45
   8 -12  -4   -0.44    2.34
   8  12  -4    0.79    0.96
  -8  12   4   -0.99    0.83
  -8 -12   4   -1.27    1.17
   8 -12  -3   20.77    2.52
   8  12  -3   20.13    1.89
  -8 -12   3   23.74    3.31
   8 -12  -2    6.35    1.92
   8  12  -2    8.03    1.56
  -8 -12   2    8.16    1.29
  -8 -12   2    8.47    1.62
   8 -12  -1    9.91    1.95
   8 -12  -1   10.33    3.03
   8 -12  -1   11.84    1.34
   8  12  -1    9.67    1.71
  -8 -12   1   11.73    1.31
  -8 -12   1   11.78    2.52
   8 -12   0    1.62    1.10
   8 -12   0    0.46    1.76
   8 -12   0    1.48    0.75
   8  12   0   -0.02    1.08
  -8 -12   0   -0.25    0.74
  -8 -12   0   -0.58    0.89
   8 -12   1    1.39    1.91
   8 -12   1    0.46    1.22
   8 -12   1    1.59    0.87
   8  12   1    1.39    1.28
  -8 -12  -1    1.53    1.45
  -8 -12  -1    0.59    0.80
   8 -12   2   -0.37    1.07
   8 -12   2    2.41    1.13
   8 -12   2    0.49    0.85
   8  12   2   -0.18    1.31
  -8 -12  -2    1.20    0.78
  -8 -12  -2    1.08    0.86
   8 -12   3    2.64    1.97
   8 -12   3    3.55    1.29
   8 -12   3    1.29    1.64
   8  12   3    4.52    1.65
  -8 -12  -3    3.05    1.55
  -8 -12  -3    1.91    0.94
   8 -12   4    0.84    0.84
   8 -12   4   -0.56    0.95
   8 -12   4    0.23    1.25
   8  12   4    0.28    1.26
   8 -12   5   18.40    3.08
   8 -12   5   23.24    2.79
   8  12   5   24.72    4.32
   8 -12   6    0.69    0.91
   8 -12   6    1.00    1.66
   8  12   6   -0.10    1.56
   8 -13 -10   -0.20    3.30
   8  13 -10    4.38    2.45
  -8  13  10    5.55    2.37
  -8  13  10   -0.30    2.61
  -8 -13  10    9.53    2.89
   8 -13  -9   -0.23    3.17
   8  13  -9    7.29    2.42
  -8  13   9    6.14    2.35
  -8  13   9    6.02    1.64
  -8 -13   9    6.58    2.79
   8 -13  -8    0.00    4.37
   8  13  -8    2.49    1.94
  -8  13   8    1.67    1.30
  -8 -13   8    4.63    2.14
   8 -13  -7    0.34    2.51
  -8  13   7    3.96    1.30
  -8 -13   7    2.62    2.03
   8 -13  -6    0.43    4.42
   8  13  -6    8.12    2.17
  -8  13   6    9.69    2.23
  -8 -13   6    6.99    2.20
   8 -13  -5    0.01    1.90
   8  13  -5    0.76    1.63
  -8  13   5    1.30    1.50
  -8 -13   5    1.70    1.50
   8 -13  -4    0.99    1.77
   8  13  -4    0.92    1.08
  -8 -13   4    2.82    1.49
   8 -13  -3   10.02    2.36
   8  13  -3   11.29    1.54
  -8 -13   3    8.85    1.93
   8 -13  -2    6.48    1.94
   8 -13  -2    4.15    1.98
   8  13  -2    5.15    1.43
  -8 -13   2    6.54    1.33
  -8 -13   2    5.63    1.59
   8 -13  -1    6.31    3.13
   8 -13  -1    9.71    1.92
   8  13  -1    6.29    1.55
  -8 -13   1    5.38    1.28
  -8 -13   1    7.77    1.62
   8 -13   0    1.63    1.31
   8 -13   0    0.08    1.30
   8 -13   0    1.80    0.78
   8  13   0    0.55    1.17
  -8 -13   0    1.32    1.44
  -8 -13   0   -0.75    1.06
   8 -13   1    9.16    3.07
   8 -13   1   12.62    1.26
   8 -13   1    8.96    2.03
   8  13   1   11.35    2.95
  -8 -13  -1   12.24    1.56
  -8 -13  -1   12.31    1.36
   8 -13   2    4.41    1.41
   8 -13   2    2.68    0.95
   8 -13   2    3.55    1.48
   8  13   2    4.64    1.55
  -8 -13  -2    2.03    1.05
  -8 -13  -2    2.72    1.17
   8 -13   3    3.78    2.33
   8 -13   3    6.53    1.56
   8 -13   3    3.73    1.64
   8  13   3    4.03    1.72
  -8 -13  -3    3.24    1.21
  -8 -13  -3    3.66    1.80
   8 -13   4    0.67    1.02
   8 -13   4   -0.23    1.13
   8 -13   4    1.04    1.24
   8  13   4    0.28    2.20
   8 -13   5    5.29    1.63
   8 -13   5    4.95    2.36
   8  13   5    7.21    2.10
   8 -14  -9    0.74    4.07
  -8  14   9   19.36    2.98
  -8 -14   9   22.23    3.50
   8 -14  -8    0.34    2.63
  -8  14   8    2.17    1.22
  -8 -14   8    2.83    3.63
   8 -14  -7    0.28    3.66
  -8  14   7   18.38    1.79
  -8 -14   7   20.45    2.98
   8 -14  -6    0.16    3.25
   8  14  -6   15.44    1.52
  -8  14   6   14.99    1.57
  -8 -14   6   12.36    4.03
   8 -14  -5    0.08    2.56
   8  14  -5    7.18    1.31
  -8  14   5    5.18    1.21
  -8 -14   5    8.31    2.06
   8 -14  -4   -0.05    1.36
   8  14  -4    0.16    0.76
  -8 -14   4   -0.14    1.78
   8 -14  -3    0.45    3.06
   8  14  -3    1.52    1.10
  -8 -14   3    0.90    1.27
  -8 -14   3    2.65    1.48
   8 -14  -2    0.38    1.41
   8 -14  -2   -0.06    1.40
   8  14  -2    0.15    1.45
  -8 -14   2    1.04    1.54
  -8 -14   2    0.01    1.82
   8 -14  -1    0.41    3.04
   8 -14  -1    2.29    1.89
   8  14  -1    3.53    2.12
  -8 -14   1    2.60    2.03
  -8 -14   1    5.27    1.56
   8 -14   0    0.07    1.31
   8 -14   0   -1.40    1.32
   8  14   0   -0.48    1.03
  -8 -14   0   -0.15    0.88
  -8 -14   0    0.34    1.68
   8 -14   1    0.10    1.86
   8 -14   1   -0.46    1.20
   8  14   1    0.55    1.00
  -8 -14  -1   -0.17    0.91
  -8 -14  -1    0.47    0.79
   8 -14   2    1.05    1.48
   8 -14   2    2.06    1.50
   8  14   2    2.39    1.42
  -8 -14  -2    1.86    1.06
  -8 -14  -2    1.77    1.88
   8 -14   3    0.29    1.71
   8 -14   3    0.03    1.12
   8  14   3    0.12    1.13
  -8 -14  -3   -0.17    0.87
  -8 -14  -3    1.10    1.29
   8 -15  -7    0.31    2.80
  -8  15   7    2.17    1.83
  -8 -15   7    3.88    2.19
   8 -15  -6    0.39    2.11
   8  15  -6    0.08    0.83
  -8  15   6    1.53    1.38
  -8 -15   6    1.17    1.67
   8 -15  -5   -0.44    3.29
   8  15  -5    0.08    1.41
  -8 -15   5    1.45    1.57
   8 -15  -4   -0.27    1.91
   8  15  -4    1.50    0.94
  -8 -15   4   -0.59    1.51
   8 -15  -3    0.05    2.86
   8 -15  -3   -0.78    1.72
   8  15  -3    0.07    0.96
  -8 -15   3    2.75    1.25
  -8 -15   3    0.37    1.45
   8 -15  -2   -0.08    1.85
   8 -15  -2    0.78    1.80
   8  15  -2    3.09    1.11
  -8 -15   2    0.50    1.22
  -8 -15   2    0.23    2.46
   8 -15  -1   -0.07    3.23
   8 -15  -1    1.92    3.08
   8  15  -1    3.81    1.30
  -8 -15   1    4.41    1.33
  -8 -15   1   -0.28    1.66
   8 -15   0    0.26    1.89
   8 -15   0    2.93    1.93
   8  15   0    4.50    1.34
  -8 -15   0    0.19    2.47
  -8 -15   0    3.24    1.28
   8 -15   1    0.38    3.28
   8 -15   1    8.16    2.13
   8  15   1    8.84    1.64
  -8 -15  -1   -0.18    1.64
  -8 -15  -1    8.08    1.44
  -9   0  16    4.86    2.63
  -9   0  15    1.23    2.03
  -9   0  14    1.03    1.94
  -9   0  13   -0.04    2.09
   9   0 -12    2.72    2.04
  -9   0  12    3.71    2.09
   9   0 -11   -0.27    1.27
  -9   0  11   -0.08    1.35
   9   0 -10    5.52    1.91
  -9   0  10    6.88    2.09
   9   0  -9    0.89    1.10
  -9   0   9   -0.59    1.31
   9   0  -8   25.93    2.60
   9   0  -8   23.52    2.11
  -9   0   8   27.81    2.16
  -9   0   8   25.83    2.60
   9   0  -7   -0.30    1.00
   9   0  -7    1.98    0.72
  -9   0   7   -0.93    1.02
  -9   0   7   -1.39    0.75
   9   0  -6    1.95    1.75
   9   0  -6    4.21    1.71
  -9   0   6    1.66    2.80
  -9   0   6    4.70    1.11
   9   0  -5    0.43    1.28
   9   0  -5    0.28    0.67
  -9   0   5    0.68    1.12
  -9   0   5    0.84    1.23
   9   0  -4    5.32    1.71
   9   0  -4    4.77    1.19
  -9   0   4    3.54    0.74
  -9   0   4    5.27    1.67
   9   0  -3   -0.18    0.66
   9   0  -3    0.27    1.27
  -9   0   3    0.85    0.49
   9   0  -2   82.91    1.54
   9   0  -2   90.97    5.48
  -9   0   2   90.71    1.74
   9   0  -1   -2.35    1.69
   9   0   0    1.51    1.43
   9   0   1   -0.07    1.04
   9   0   2    0.08    1.08
   9   0   3   -1.17    1.50
   9   0   4    1.44    1.63
   9   0   5    0.49    1.48
   9   0   6   14.20    2.62
   9   0   7   -0.69    1.69
   9   0   8    9.14    2.67
  -9  -1  16    3.53    2.53
  -9   1  16    4.68    4.19
   9  -1 -15    0.08    2.35
  -9   1  15    2.17    2.09
  -9   1  15   -0.09    2.75
  -9  -1  15    2.32    2.08
   9   1 -14   28.85    3.64
  -9   1  14   31.45    3.50
  -9  -1  14   30.20    3.56
  -9   1  14   34.25    4.35
   9   1 -13    0.09    1.73
  -9  -1  13   -0.44    1.69
  -9   1  13    1.74    1.72
  -9   1  13    0.96    1.85
   9   1 -12   20.80    2.89
  -9   1  12   23.56    3.01
  -9  -1  12   22.13    2.96
  -9   1  12   20.90    3.04
   9   1 -11    4.25    2.03
   9  -1 -11    6.37    2.16
  -9   1  11    5.47    2.14
  -9   1  11    6.84    2.15
  -9  -1  11    5.75    3.36
   9  -1 -10   10.66    2.23
   9   1 -10   11.79    2.06
  -9  -1  10   11.37    2.31
  -9   1  10   10.66    2.20
  -9   1  10   10.47    2.39
   9   1  -9   21.58    2.15
   9  -1  -9   19.44    2.33
  -9  -1   9   19.33    2.51
  -9   1   9   18.25    2.56
   9   1  -8    3.21    1.82
   9   1  -8    3.51    1.37
   9  -1  -8    3.04    1.80
   9  -1  -8    3.71    1.49
  -9  -1   8    4.39    1.75
  -9   1   8    4.06    1.77
  -9   1   8    4.42    1.45
  -9  -1   8    4.49    1.51
   9   1  -7    8.99    2.05
   9   1  -7    9.07    1.44
   9  -1  -7   12.10    1.57
   9  -1  -7    7.48    2.09
  -9  -1   7    9.36    2.00
  -9  -1   7    8.58    1.56
  -9   1   7    9.41    3.28
  -9   1   7    7.84    1.52
   9   1  -6    1.93    1.40
   9   1  -6    0.85    0.84
   9  -1  -6    0.68    1.41
   9  -1  -6    0.21    0.94
  -9  -1   6    0.63    1.53
  -9   1   6    1.51    0.89
  -9   1   6    1.00    1.41
  -9  -1   6    1.01    1.40
   9   1  -5   54.30    3.17
   9   1  -5   51.29    1.85
   9  -1  -5   52.75    2.02
   9  -1  -5   53.76    3.16
  -9  -1   5   51.67    1.92
  -9   1   5   54.22    1.89
  -9   1   5   54.01    3.07
   9   1  -4    9.86    0.92
   9   1  -4   10.26    2.09
   9  -1  -4    8.99    1.58
  -9   1   4   12.97    0.95
  -9   1   4   10.90    2.00
   9   1  -3  123.86    4.26
   9  -1  -3  119.17    3.03
   9   1  -3  116.99    2.81
  -9  -1   3  114.81    2.05
   9   1  -2   12.68    2.11
   9   1  -2   11.94    0.68
   9  -1  -2   14.49    2.10
   9  -1  -2   11.66    0.59
  -9   1   2   12.87    0.54
  -9  -1   2   12.10    0.44
   9   1  -1   13.84    3.42
   9  -1  -1   15.30    2.17
   9   1   0   11.18    2.03
   9  -1   0    9.21    2.03
   9   1   1   52.61    3.12
   9  -1   1   50.61    3.08
   9   1   2   81.01    3.88
   9  -1   2   73.07    5.34
   9   1   3    2.31    1.72
   9  -1   3    1.80    1.65
   9   1   4   14.81    2.45
   9  -1   4   14.19    2.38
   9   1   5    2.82    3.11
   9  -1   5    2.83    1.76
   9   1   6   33.25    3.38
   9  -1   6   39.00    4.77
   9   1   7    5.63    2.20
   9  -1   7    2.96    2.11
   9  -1   8    0.69    1.72
   9   2 -16   -0.19    2.37
  -9  -2  16    2.43    2.10
  -9   2  16   -0.19    3.56
   9   2 -15    0.07    2.45
  -9  -2  15    3.37    2.22
  -9   2  15    3.40    2.31
   9  -2 -14   -0.10    2.30
  -9  -2  14    0.40    2.70
  -9  -2  14    2.94    3.12
  -9   2  14    2.68    2.09
  -9   2  13    2.56    2.07
  -9  -2  13    2.26    2.06
  -9  -2  12   21.53    2.76
  -9   2  12   17.73    2.94
  -9   2  12   17.31    2.90
  -9  -2  11    0.19    1.46
  -9   2  11   -1.46    1.55
  -9   2  11   -0.08    1.44
   9   2 -10    0.49    0.91
   9  -2 -10   -0.34    1.06
  -9   2  10    0.33    0.96
  -9   2  10    0.82    1.71
  -9  -2  10   -0.93    1.03
   9   2  -9   23.43    2.22
   9  -2  -9   24.64    2.50
  -9  -2   9   22.78    2.48
  -9  -2   9   23.04    2.63
  -9   2   9   21.16    2.64
   9   2  -8    3.33    1.50
   9   2  -8   -0.09    1.15
   9  -2  -8    2.19    1.56
   9  -2  -8    3.00    1.33
  -9   2   8    0.05    1.19
  -9  -2   8    2.11    2.44
  -9   2   8    0.69    1.54
  -9  -2   8    1.05    1.35
   9   2  -7   81.73    4.07
   9   2  -7   82.77    3.80
   9  -2  -7   83.90    3.21
   9  -2  -7   82.26    5.69
  -9  -2   7   90.89    3.85
  -9  -2   7   83.76    3.10
  -9   2   7   83.84    2.90
  -9   2   7   86.92    5.55
   9   2  -6   99.24    2.92
   9   2  -6  102.28    4.14
   9  -2  -6   99.89    3.24
   9  -2  -6  103.77    5.95
  -9  -2   6  101.47    4.10
  -9   2   6   98.50    2.89
  -9  -2   6  101.25    3.06
  -9   2   6  103.68    4.09
   9   2  -5   17.80    1.24
   9   2  -5   20.90    2.38
   9  -2  -5   16.19    2.32
   9  -2  -5   18.29    1.53
  -9   2   5   18.89    1.33
  -9  -2   5   20.19    1.38
  -9  -2   5   21.30    2.32
  -9   2   5   18.14    2.28
   9   2  -4    1.48    0.61
   9   2  -4    0.71    1.45
   9  -2  -4    1.09    0.78
   9  -2  -4    1.87    1.45
  -9  -2   4    1.54    0.64
  -9   2   4    1.23    1.08
  -9   2   4    1.44    1.38
   9   2  -3    0.05    1.14
   9  -2  -3   -0.41    1.13
   9  -2  -3   -0.74    0.80
   9   2  -3   -0.16    0.58
  -9   2   3   -0.26    0.14
   9   2  -2   31.24    1.01
   9   2  -2   39.56    2.67
   9  -2  -2   40.42    2.61
   9  -2  -2   35.69    1.10
  -9  -2   2   37.89    1.06
   9   2  -1   26.18    2.44
   9  -2  -1   26.68    2.38
   9  -2  -1   21.96    0.83
   9   2   0    1.18    2.01
   9  -2   0    0.11    1.18
   9   2   1   42.20    3.00
   9  -2   1   43.96    4.27
   9   2   2    1.26    1.49
   9  -2   2    0.51    1.35
   9   2   3   -0.52    2.34
   9  -2   3   -0.73    1.36
   9   2   4    0.59    1.24
   9  -2   4   -0.29    1.10
   9   2   5    5.63    3.38
   9  -2   5    3.65    1.90
   9   2   6   26.32    3.24
   9  -2   6   27.42    2.98
   9   2   7    6.22    2.46
   9  -2   7    5.87    2.24
   9  -2   8    2.16    1.96
  -9  -3  15    8.55    4.56
  -9   3  15   13.19    4.88
  -9  -3  14    0.46    1.76
  -9   3  14    1.09    1.91
   9  -3 -13    0.56    2.25
  -9  -3  13    2.98    1.90
  -9   3  13    1.50    2.02
   9  -3 -12   10.29    2.69
  -9  -3  12    0.20    2.90
  -9  -3  12    8.68    3.56
  -9   3  12   10.03    4.02
  -9   3  12   11.98    3.82
  -9  -3  11   37.78    3.12
  -9   3  11   32.17    3.14
  -9   3  11   36.79    3.34
  -9  -3  11   39.07    3.75
   9   3 -10  106.92    4.22
   9  -3 -10  111.63    4.82
  -9  -3  10  114.82    4.89
  -9  -3  10  107.71    6.41
  -9   3  10  108.03    4.18
  -9   3  10  111.76    6.85
   9   3  -9    1.21    1.33
   9   3  -9    0.80    1.66
   9  -3  -9    2.68    1.68
  -9  -3   9    1.92    1.65
  -9  -3   9    3.38    1.65
  -9   3   9    1.58    1.41
  -9   3   9    2.06    1.69
   9   3  -8   13.89    1.70
   9   3  -8   10.36    3.32
   9  -3  -8   15.37    2.08
   9  -3  -8    0.24    2.16
  -9  -3   8   14.12    1.98
  -9   3   8   10.54    1.75
  -9   3   8   13.19    2.20
  -9  -3   8   11.82    2.12
   9   3  -7    5.88    1.30
   9   3  -7    6.88    1.90
   9  -3  -7    6.03    1.88
   9  -3  -7    5.86    1.66
  -9  -3   7    4.15    2.97
  -9  -3   7    6.89    1.55
  -9   3   7    5.93    1.39
  -9   3   7    6.57    1.87
   9   3  -6    5.28    1.11
   9   3  -6    5.00    1.80
   9  -3  -6    5.60    2.41
   9  -3  -6    6.08    1.81
  -9  -3   6    5.38    1.80
  -9  -3   6    5.79    1.31
  -9   3   6    4.48    1.18
  -9   3   6    5.96    1.78
   9   3  -5   26.43    1.40
   9   3  -5   28.87    2.49
   9  -3  -5   26.52    2.77
   9  -3  -5   23.84    2.42
  -9  -3   5   26.22    2.52
  -9  -3   5   27.68    2.53
  -9   3   5   27.42    2.42
  -9   3   5   26.34    1.49
   9   3  -4    2.73    1.15
   9   3  -4    3.61    1.67
   9  -3  -4    3.16    1.64
   9  -3  -4    3.28    1.63
  -9  -3   4    4.49    0.82
  -9   3   4    3.80    1.54
  -9   3   4    4.03    1.34
   9   3  -3   23.03    0.96
   9  -3  -3   28.75    2.41
   9   3  -3   29.65    2.44
   9  -3  -3   27.09    2.03
  -9   3   3   27.39    1.04
   9   3  -2    2.62    1.64
   9  -3  -2    3.40    1.54
   9  -3  -2    4.34    1.10
  -9  -3   2    3.02    0.38
   9   3  -1    0.51    1.45
   9  -3  -1    0.78    1.44
   9  -3  -1    1.74    0.43
   9  -3   0   44.48    4.11
   9   3   0   42.90    2.84
   9  -3   0   34.61    0.81
   9  -3   0   36.07    0.88
   9   3   1    0.35    1.47
   9  -3   1    1.33    1.32
   9   3   2   96.42    4.22
   9  -3   2   98.71    4.02
   9   3   3   27.03    2.85
   9  -3   3   25.75    4.03
   9   3   4    6.13    2.06
   9  -3   4    4.14    1.90
   9   3   5    5.83    2.28
   9  -3   5    6.25    2.04
   9   3   6    1.98    1.93
   9  -3   6    1.20    1.65
   9   3   7    3.75    2.33
   9  -3   7    4.22    3.27
   9  -4 -15   -0.23    3.07
  -9  -4  15    0.03    3.34
  -9  -4  15    7.94    2.25
  -9   4  15   -0.06    2.70
  -9   4  15    6.07    4.03
  -9   4  14   -0.05    2.45
  -9   4  14    2.91    2.40
  -9  -4  14    6.00    2.14
   9  -4 -13    0.19    5.60
  -9   4  13   15.54    2.95
  -9  -4  13   17.18    4.26
  -9   4  13   17.51    2.89
   9  -4 -12   -0.43    1.61
  -9   4  12   -0.40    1.46
  -9  -4  12    0.41    2.99
  -9  -4  12    0.46    1.27
  -9   4  12    1.35    2.27
   9  -4 -11   48.16    4.00
  -9  -4  11   46.81    3.36
  -9   4  11   41.77    5.31
  -9   4  11   48.98    3.65
  -9  -4  11   49.79    4.18
   9   4 -10    1.47    1.45
   9  -4 -10    0.95    3.08
  -9  -4  10    0.38    1.85
  -9  -4  10    1.32    1.54
  -9   4  10    1.89    1.50
  -9   4  10    1.07    2.74
   9   4  -9    2.00    1.24
   9   4  -9    2.20    1.42
   9  -4  -9    0.99    1.60
  -9  -4   9    1.90    1.56
  -9  -4   9    1.35    2.27
  -9   4   9   -2.09    1.26
  -9   4   9    0.52    1.47
   9   4  -8   16.50    1.81
   9   4  -8   12.86    3.43
   9  -4  -8   19.25    2.35
  -9   4   8   13.77    1.84
  -9  -4   8   15.43    2.26
  -9   4   8   14.70    3.56
  -9  -4   8   18.48    2.25
   9   4  -7    3.23    1.21
   9   4  -7    4.43    1.71
   9  -4  -7    4.21    1.64
   9  -4  -7    2.73    1.76
  -9  -4   7    4.31    1.68
  -9  -4   7    5.21    1.52
  -9   4   7    4.24    1.29
  -9   4   7    3.60    1.72
   9   4  -6   34.71    2.75
   9   4  -6   36.22    2.75
   9  -4  -6   41.16    3.77
   9  -4  -6   34.76    2.75
  -9   4   6   40.42    2.77
  -9  -4   6   36.65    4.16
  -9  -4   6   36.94    2.17
  -9   4   6   39.87    1.95
   9   4  -5    1.79    1.16
   9   4  -5    1.72    1.37
   9  -4  -5    0.92    1.34
   9  -4  -5    0.82    1.10
  -9  -4   5    0.59    1.38
  -9  -4   5   -0.03    0.90
  -9   4   5   -0.29    1.31
  -9   4   5    1.87    0.82
   9   4  -4   53.02    2.98
   9   4  -4   48.40    1.68
   9  -4  -4   53.88    2.28
   9  -4  -4   57.23    3.00
  -9  -4   4   51.81    2.54
  -9   4   4   54.89    2.62
  -9   4   4   54.85    2.94
   9   4  -3    3.95    0.94
   9   4  -3    4.20    1.63
   9  -4  -3    1.38    2.70
   9  -4  -3    3.98    1.03
  -9   4   3    4.06    0.75
   9   4  -2   74.14    3.58
   9  -4  -2   76.11    2.12
   9  -4  -2   77.92    3.39
  -9  -4   2   73.90    2.00
   9   4  -1   17.66    2.24
   9  -4  -1   20.75    2.13
   9  -4  -1   17.44    1.52
  -9  -4   1   15.16    0.44
   9  -4   0    0.01    0.24
   9  -4   0   -0.11    0.28
   9  -4   0    0.15    0.89
   9   4   0    0.28    0.98
   9   4   1    4.77    1.87
   9  -4   1    4.99    0.30
   9  -4   1    4.38    0.53
   9  -4   1    7.60    1.70
   9   4   2    3.16    1.84
   9  -4   2    4.58    2.56
   9   4   3   20.35    2.54
   9  -4   3   20.14    2.34
   9   4   4    3.92    2.09
   9  -4   4    6.66    1.89
   9   4   5   11.55    2.58
   9  -4   5   10.78    2.21
   9   4   6   27.97    3.27
   9  -4   6   24.32    2.80
   9  -4   7   -0.48    1.44
   9   5 -15    0.03    2.94
   9  -5 -15    0.29    3.47
  -9  -5  15   -0.22    5.91
  -9  -5  15   15.94    2.49
  -9   5  15    0.00    3.04
  -9   5  15   14.54    4.45
   9   5 -14   -0.11    2.58
   9  -5 -14    0.38    3.14
  -9  -5  14    0.52    3.41
  -9   5  14    0.05    2.62
  -9   5  14   14.19    2.56
  -9  -5  14   13.45    3.61
   9   5 -13    0.02    2.09
   9  -5 -13    0.18    2.51
  -9  -5  13   -0.04    2.71
  -9  -5  13    2.76    1.84
  -9   5  13    5.49    2.08
  -9   5  13    3.41    2.08
   9  -5 -12   25.85    6.03
   9   5 -12   23.94    2.98
  -9  -5  12   30.00    3.84
  -9  -5  12   27.43    2.78
  -9   5  12   23.04    3.13
  -9   5  12   30.61    4.84
   9   5 -11   17.73    2.61
   9  -5 -11   21.85    3.18
  -9  -5  11    0.00    5.23
  -9  -5  11   20.23    2.47
  -9   5  11   17.35    2.66
  -9   5  11   20.81    2.80
   9   5 -10   21.17    3.69
   9  -5 -10   17.60    3.03
  -9  -5  10   18.39    2.47
  -9   5  10   18.28    2.35
  -9   5  10   18.79    2.69
  -9  -5  10   20.07    3.02
   9   5  -9    3.08    1.52
   9   5  -9    1.54    1.64
   9  -5  -9    5.47    3.24
  -9  -5   9    1.71    1.67
  -9  -5   9    3.84    1.91
  -9   5   9    2.97    1.51
  -9   5   9    3.47    1.76
   9   5  -8   35.45    2.37
   9   5  -8   35.43    4.12
   9  -5  -8   36.02    3.11
  -9  -5   8   35.70    2.90
  -9   5   8   36.17    3.64
  -9   5   8   38.50    4.29
  -9  -5   8   38.21    4.26
   9   5  -7   21.46    1.86
   9   5  -7   20.19    3.72
   9  -5  -7   27.22    2.54
   9  -5  -7   24.75    2.48
  -9  -5   7   23.33    2.44
  -9  -5   7   23.42    2.27
  -9   5   7   22.18    1.91
  -9   5   7   24.58    2.42
   9   5  -6    3.13    1.52
   9   5  -6    1.43    1.48
   9  -5  -6    2.47    2.30
   9  -5  -6    2.48    2.39
  -9  -5   6    2.26    1.47
  -9  -5   6    1.21    1.20
  -9   5   6    0.89    1.47
  -9   5   6    1.94    1.05
   9   5  -5    6.20    1.63
   9   5  -5    5.38    1.75
   9  -5  -5    7.24    1.56
   9  -5  -5    6.72    1.74
  -9  -5   5    5.77    1.25
  -9   5   5    6.84    1.73
  -9   5   5    5.89    1.13
   9   5  -4    8.48    1.88
   9   5  -4    8.22    0.98
   9  -5  -4    8.66    1.85
   9  -5  -4    7.45    1.44
  -9  -5   4    9.23    1.15
  -9   5   4    9.64    1.76
  -9   5   4    8.42    1.08
   9   5  -3   23.59    1.12
   9   5  -3   28.67    2.41
   9  -5  -3   26.38    2.52
   9  -5  -3   28.84    2.35
   9   5  -2   39.87    2.70
   9  -5  -2   38.99    2.57
   9  -5  -2   36.29    1.63
  -9  -5   2   32.77    1.13
   9   5  -1   25.47    2.38
   9  -5  -1   24.48    2.23
   9  -5  -1   22.05    1.23
  -9  -5   1   20.97    0.92
  -9  -5   1   19.98    0.52
   9   5   0   16.34    2.24
   9  -5   0   14.51    0.82
   9  -5   0   13.84    1.45
   9  -5   0   16.57    2.03
   9   5   1    1.32    1.41
   9  -5   1    0.80    0.37
   9  -5   1    0.70    0.66
   9  -5   1   -1.21    2.06
   9   5   2   60.47    3.46
   9  -5   2   46.70    1.05
   9  -5   2   54.01    3.07
   9  -5   2   46.88    1.30
   9   5   3   21.38    2.78
   9  -5   3   22.97    2.37
   9   5   4   41.49    3.31
   9  -5   4   40.08    4.36
   9  -5   5   18.12    2.42
   9   5   5   15.27    2.73
   9   5   6    8.82    2.53
   9  -5   6    6.65    3.30
   9   5   7    5.06    2.45
   9   6 -15    2.52    1.87
   9  -6 -15    0.33    2.32
  -9  -6  15   -2.87    2.40
  -9  -6  15    0.01    2.47
  -9   6  15   -0.15    1.94
  -9   6  15    0.55    2.89
   9   6 -14   13.23    3.02
   9  -6 -14    0.17    3.70
  -9  -6  14    0.25    3.95
  -9  -6  14   18.89    2.52
  -9   6  14   -0.01    4.92
  -9   6  14   13.26    2.88
   9   6 -13    4.65    2.42
   9  -6 -13    0.03    3.06
  -9  -6  13   -0.38    5.32
  -9  -6  13    7.47    2.05
  -9   6  13    7.29    4.00
  -9   6  13    6.13    2.38
   9  -6 -12    2.73    2.00
   9   6 -12   -0.08    1.58
  -9  -6  12   -0.42    2.03
  -9  -6  12   -1.05    2.22
  -9   6  12    0.79    1.59
  -9   6  12    0.67    2.53
   9   6 -11   22.57    2.90
   9  -6 -11   28.71    6.03
  -9  -6  11   28.85    2.73
  -9   6  11   25.50    2.89
  -9   6  11   28.90    3.06
  -9  -6  11   25.51    3.59
   9   6 -10   -0.55    1.93
   9  -6 -10    0.17    1.66
  -9  -6  10    0.14    1.56
  -9   6  10   -0.54    2.06
  -9   6  10   -0.40    2.16
  -9  -6  10    1.06    1.20
   9   6  -9   29.05    2.48
   9  -6  -9   33.19    3.36
  -9  -6   9   32.01    2.65
  -9  -6   9   36.64    5.12
  -9   6   9   30.57    2.80
  -9   6   9   27.30    2.45
   9   6  -8   36.74    2.45
   9   6  -8   37.11    4.16
   9  -6  -8   36.00    4.96
  -9  -6   8   41.50    2.77
  -9  -6   8   40.20    3.05
  -9   6   8   37.96    2.38
  -9   6   8   37.70    2.90
   9   6  -7   26.58    1.99
   9   6  -7   22.91    2.49
   9  -6  -7   27.82    2.75
  -9  -6   7   26.04    3.94
  -9  -6   7   26.78    2.48
  -9   6   7   29.29    2.05
  -9   6   7   29.82    2.51
   9   6  -6   59.20    2.57
   9   6  -6   62.93    3.22
   9  -6  -6   66.83    5.10
   9  -6  -6   65.36    3.28
  -9  -6   6   66.44    2.93
  -9   6   6   65.30    3.27
  -9   6   6   64.09    2.52
  -9  -6   6   63.13    3.35
   9   6  -5    2.18    0.92
   9   6  -5    3.73    1.51
   9  -6  -5    1.63    1.40
   9  -6  -5    2.46    1.48
  -9  -6   5    1.75    1.13
  -9   6   5    1.34    1.41
  -9   6   5    3.04    1.03
   9   6  -4   31.00    1.54
   9   6  -4   30.76    2.59
   9  -6  -4   32.46    2.49
   9  -6  -4   36.09    2.19
  -9  -6   4   33.90    1.74
  -9   6   4   32.05    2.41
  -9   6   4   35.08    1.70
   9   6  -3    4.88    1.63
   9  -6  -3    3.42    1.18
   9  -6  -3    2.90    1.55
  -9  -6   3    4.09    0.84
   9   6  -2   36.48    2.63
   9  -6  -2   35.69    3.88
   9  -6  -2   33.89    1.76
   9   6  -1   22.44    2.32
   9  -6  -1   20.56    2.21
   9  -6  -1   20.43    1.20
   9  -6  -1   17.80    2.00
  -9  -6   1   17.48    0.64
  -9  -6   1   18.43    1.15
   9   6   0   23.80    2.49
   9  -6   0   24.77    2.19
   9  -6   0   21.68    1.18
   9  -6   0   19.91    1.12
  -9  -6   0   19.42    0.72
  -9  -6   0   19.50    0.63
   9   6   1   50.25    3.23
   9  -6   1   46.09    1.99
   9  -6   1   47.38    2.06
   9  -6   1   57.45    2.94
   9   6   2    3.51    1.72
   9  -6   2    2.03    0.50
   9  -6   2    1.34    0.52
   9  -6   2    2.85    1.40
   9   6   3   30.48    2.93
   9  -6   3   23.66    1.20
   9  -6   3   31.32    2.40
   9  -6   3   23.63    1.25
   9   6   4   17.39    2.75
   9  -6   4   17.88    2.22
   9   6   5    1.24    1.81
   9  -6   5    0.97    2.23
   9   6   6    8.47    2.56
   9  -6   6    6.76    1.98
   9   6   7    2.08    2.18
   9   7 -14   -0.06    3.03
   9  -7 -14    0.56    2.45
  -9  -7  14   -0.06    2.45
  -9  -7  14    0.21    1.46
  -9   7  14    0.04    1.89
  -9   7  14    1.60    1.81
   9   7 -13    0.51    2.76
   9  -7 -13   -0.35    2.18
  -9  -7  13    0.75    2.18
  -9   7  13   -0.09    1.72
  -9   7  13    1.14    1.65
  -9  -7  13   -0.14    2.23
   9   7 -12   13.57    2.74
   9  -7 -12   16.83    5.68
  -9  -7  12    0.18    5.71
  -9  -7  12   17.87    2.40
  -9   7  12   12.54    4.34
   9   7 -11    4.18    1.97
   9  -7 -11    3.57    2.64
  -9  -7  11    3.95    2.61
  -9  -7  11    2.55    2.82
  -9   7  11    4.44    2.02
  -9   7  11    3.76    1.97
   9   7 -10   17.57    2.51
   9  -7 -10   16.12    5.47
  -9  -7  10   17.81    2.38
  -9  -7  10   22.47    3.17
  -9   7  10   22.81    4.12
  -9   7  10   16.61    2.39
   9   7  -9    2.79    1.45
   9  -7  -9    3.75    2.02
  -9  -7   9    0.91    1.91
  -9   7   9    0.89    1.61
  -9   7   9    3.51    2.44
  -9  -7   9    0.96    1.53
   9   7  -8   24.62    2.19
   9   7  -8   22.85    2.30
   9  -7  -8   23.49    2.98
  -9  -7   8   24.34    2.37
  -9  -7   8   17.12    4.26
  -9   7   8   23.03    2.14
  -9   7   8   23.24    2.49
   9   7  -7    5.43    1.40
   9   7  -7    3.79    1.68
   9  -7  -7    5.79    1.97
  -9  -7   7    3.64    1.73
  -9   7   7    4.04    1.43
  -9   7   7    4.40    1.67
  -9  -7   7    4.47    1.71
   9   7  -6   19.14    2.17
   9   7  -6   16.68    2.63
   9  -7  -6   19.88    2.46
   9  -7  -6   16.82    2.29
  -9  -7   6   20.27    2.04
  -9   7   6   18.14    2.26
  -9   7   6   19.92    2.80
   9   7  -5   99.62    4.05
   9   7  -5  105.24    4.07
   9  -7  -5  100.97    5.48
   9  -7  -5   99.57    5.55
  -9  -7   5  105.92    3.44
  -9   7   5  107.80    3.90
  -9   7   5  108.93    4.45
   9   7  -4    0.93    1.19
   9   7  -4   -0.34    0.69
   9  -7  -4   -1.34    1.03
   9  -7  -4    0.38    1.14
  -9  -7   4   -0.37    0.81
  -9   7   4    0.44    1.09
  -9   7   4   -1.03    0.73
   9   7  -3  106.54    4.11
   9  -7  -3  104.37    3.88
   9  -7  -3  101.05    4.59
  -9  -7   3   98.20    3.60
   9   7  -2   66.64    3.36
   9  -7  -2   64.00    2.47
   9  -7  -2   67.47    3.23
   9   7  -1    0.47    1.18
   9  -7  -1   -0.81    1.03
   9  -7  -1   -0.74    0.63
   9  -7  -1    0.74    1.11
  -9  -7   1   -0.43    0.43
  -9  -7   1   -0.01    0.34
   9   7   0   70.15    5.13
   9  -7   0   67.13    2.13
   9  -7   0   65.04    1.99
   9  -7   0   69.44    3.09
  -9  -7   0   60.69    1.36
  -9  -7   0   61.79    1.22
   9   7   1    8.01    1.91
   9  -7   1    7.36    0.85
   9  -7   1    5.96    0.84
   9  -7   1    5.42    2.54
  -9  -7  -1    5.11    0.42
  -9  -7  -1    5.23    0.46
   9  -7   2   10.50    0.90
   9  -7   2   10.49    1.37
   9  -7   2    9.93    1.82
   9   7   2   10.55    2.26
   9   7   3   10.78    3.66
   9  -7   3    9.47    0.81
   9  -7   3    8.94    0.75
   9  -7   3    9.01    1.80
   9   7   4   15.35    2.48
   9  -7   4   13.37    2.89
   9  -7   4    8.96    1.07
   9  -7   4    8.76    0.81
   9   7   5    7.13    3.64
   9  -7   5    5.08    1.68
   9   7   6    1.58    2.00
   9   7   7   10.30    2.86
   9   8 -14   -0.95    1.85
   9  -8 -14    0.01    2.41
  -9  -8  14   -0.01    1.37
  -9   8  14    1.04    1.74
  -9   8  14    2.16    1.84
  -9  -8  14   -0.38    2.40
   9   8 -13    4.31    2.46
   9  -8 -13    0.22    3.30
  -9  -8  13    6.61    5.55
  -9  -8  13    5.70    1.90
  -9   8  13    5.89    2.36
  -9   8  13    2.82    2.45
   9   8 -12    9.54    3.92
   9  -8 -12    6.06    3.33
  -9  -8  12    7.56    3.38
  -9  -8  12    9.90    3.13
  -9   8  12    6.36    2.45
  -9   8  12    9.23    2.54
   9   8 -11   24.45    2.94
   9  -8 -11    1.05    6.03
  -9  -8  11   26.74    2.61
  -9  -8  11   28.43    3.82
  -9   8  11   27.86    2.96
  -9   8  11   24.52    4.74
   9   8 -10    3.85    1.76
   9  -8 -10    2.32    2.44
  -9  -8  10    3.01    3.78
  -9   8  10    0.59    2.93
  -9   8  10    2.70    1.75
  -9  -8  10    3.49    2.58
   9   8  -9   23.51    3.93
   9  -8  -9   28.48    5.70
  -9  -8   9   30.70    2.53
  -9  -8   9   30.97    3.22
  -9   8   9   29.35    2.67
  -9   8   9   27.20    2.56
   9   8  -8   16.68    2.07
   9  -8  -8   14.09    2.80
   9   8  -8   14.87    2.09
  -9  -8   8   19.06    2.18
  -9  -8   8   14.18    2.53
  -9   8   8   16.66    2.06
  -9   8   8   14.98    2.26
   9   8  -7   18.97    1.96
   9   8  -7   15.79    2.15
   9  -8  -7   17.83    2.70
  -9  -8   7   17.30    3.64
  -9   8   7   14.31    3.15
  -9   8   7   22.73    3.44
   9   8  -6   38.20    3.34
   9   8  -6   40.64    2.75
   9  -8  -6   41.52    3.01
  -9  -8   6   41.76    2.69
  -9   8   6   43.55    2.73
  -9   8   6   42.86    2.35
   9   8  -5    0.97    1.70
   9   8  -5    3.19    1.52
   9  -8  -5    1.02    1.56
   9  -8  -5    2.81    1.45
  -9   8   5    3.19    1.39
  -9   8   5    2.60    1.18
  -9  -8   5    1.85    1.28
   9   8  -4  107.15    4.13
   9  -8  -4  108.42    3.77
   9  -8  -4  106.39    4.02
  -9  -8   4  108.77    3.32
  -9   8   4  102.05    3.77
   9   8  -3    4.37    1.66
   9  -8  -3    4.36    1.50
   9  -8  -3    4.13    1.44
  -9  -8   3    4.78    1.62
   9   8  -2   10.21    2.01
   9  -8  -2   12.03    1.50
   9  -8  -2    9.56    2.84
  -9  -8   2    9.52    1.72
   9   8  -1   36.76    2.74
   9  -8  -1   36.24    1.90
   9  -8  -1   35.37    2.70
   9  -8  -1   35.93    2.44
  -9  -8   1   33.65    1.15
   9   8   0    5.70    3.12
   9  -8   0   10.02    1.63
   9  -8   0    7.58    1.15
   9  -8   0    8.04    1.11
  -9  -8   0    7.60    0.73
   9   8   1   48.72    3.21
   9  -8   1   45.89    2.57
   9  -8   1   43.36    2.46
   9  -8   1   49.61    2.64
  -9  -8  -1   43.79    1.37
  -9  -8  -1   41.81    1.52
   9   8   2   -1.69    1.27
   9  -8   2    0.40    0.92
   9  -8   2   -0.28    0.55
   9  -8   2    0.15    0.96
   9   8   3   14.39    3.79
   9  -8   3    8.62    0.99
   9  -8   3   10.38    0.90
   9  -8   3    9.63    1.77
   9   8   4   12.85    2.45
   9  -8   4    6.92    1.30
   9  -8   4   10.75    1.76
   9  -8   4    9.30    0.92
   9   8   5    8.94    3.99
   9   8   6    3.35    2.23
   9   8   7   -1.88    2.17
   9   9 -13    6.39    2.29
   9  -9 -13   -0.27    3.16
  -9  -9  13    1.28    2.69
  -9  -9  13    7.41    3.04
  -9   9  13    0.03    2.07
  -9   9  13    0.70    3.81
   9   9 -12    2.52    1.87
   9  -9 -12   -1.13    4.09
  -9  -9  12    1.08    1.48
  -9  -9  12    4.58    2.57
  -9   9  12   -0.19    1.79
  -9   9  12    0.28    1.95
   9  -9 -11   -0.06    2.02
   9   9 -11   -1.55    2.35
  -9  -9  11   -0.38    1.93
  -9  -9  11    2.46    1.95
  -9   9  11   -0.24    1.39
  -9   9  11    1.14    1.51
   9   9 -10   24.31    2.93
   9  -9 -10   -0.21    6.22
  -9  -9  10   28.14    2.49
  -9  -9  10   31.50    3.54
  -9   9  10   26.29    4.47
  -9   9  10   26.78    2.77
   9   9  -9   15.75    2.39
   9  -9  -9   15.04    3.20
  -9  -9   9   17.71    2.22
  -9  -9   9   17.89    4.59
  -9   9   9   17.48    2.30
  -9   9   9   16.90    2.35
   9   9  -8   31.51    2.64
   9   9  -8   28.04    2.45
   9  -9  -8   33.59    3.43
  -9  -9   8   33.22    2.56
  -9  -9   8   33.32    3.12
  -9   9   8   28.49    4.03
  -9   9   8   33.16    2.67
   9   9  -7   26.16    3.42
   9   9  -7   26.88    2.31
   9  -9  -7   24.40    2.98
  -9  -9   7   24.79    2.68
  -9   9   7   28.10    2.40
  -9   9   7   23.09    2.20
   9   9  -6    5.91    1.66
   9  -9  -6    5.14    3.44
   9   9  -6    4.84    1.49
  -9  -9   6    5.27    2.74
  -9   9   6    5.80    2.61
  -9   9   6    6.70    1.56
   9   9  -5   44.00    2.41
   9   9  -5   47.08    2.85
   9  -9  -5   50.23    3.08
  -9  -9   5   47.77    2.63
  -9   9   5   48.13    2.68
   9   9  -4    5.92    1.75
   9  -9  -4    5.25    2.99
   9  -9  -4    5.93    1.62
  -9  -9   4    6.77    1.38
  -9   9   4    7.49    1.55
   9   9  -3   23.26    2.29
   9  -9  -3   22.45    2.14
   9  -9  -3   23.59    2.09
  -9  -9   3   20.92    2.51
   9   9  -2    3.18    1.54
   9  -9  -2    4.37    1.91
   9  -9  -2    3.74    1.30
  -9  -9   2    1.26    0.64
  -9  -9   2    4.06    1.44
   9   9  -1    6.91    2.81
   9  -9  -1    4.44    1.94
   9  -9  -1    5.99    1.23
   9  -9  -1    5.95    1.48
  -9  -9   1    4.75    0.88
   9   9   0   53.57    3.21
   9  -9   0   51.60    3.89
   9  -9   0   51.39    2.28
   9  -9   0   51.44    2.09
  -9  -9   0   49.10    1.42
   9   9   1    2.67    1.42
   9  -9   1    1.30    1.11
   9  -9   1    0.05    0.79
   9  -9   1    0.39    1.31
  -9  -9  -1    0.74    0.71
  -9  -9  -1    0.92    0.81
   9   9   2   22.74    2.65
   9  -9   2   17.32    1.44
   9  -9   2   18.45    1.29
   9  -9   2   20.05    1.94
   9   9   3    2.52    1.68
   9  -9   3    1.24    1.21
   9  -9   3    0.68    1.16
   9  -9   3    1.04    1.19
   9  -9   4    3.42    0.89
   9  -9   4    2.32    0.77
   9   9   4    7.28    2.04
   9   9   5   14.64    2.75
   9   9   6    1.40    1.97
   9   9   7    5.17    2.53
   9  10 -12    0.20    1.54
   9 -10 -12    0.85    2.09
  -9 -10  12   -1.02    1.73
  -9 -10  12   -0.62    1.99
  -9  10  12   -0.29    1.36
  -9  10  12    0.91    2.49
   9  10 -11   30.70    3.35
   9 -10 -11   27.66    4.39
  -9 -10  11   26.87    4.21
  -9  10  11   25.60    2.98
  -9  10  11   30.93    3.21
  -9 -10  11   28.75    2.53
   9  10 -10    4.47    2.81
   9 -10 -10   -0.62    2.40
  -9 -10  10    2.31    3.64
  -9  10  10    1.86    1.75
  -9  10  10   -0.20    1.60
  -9 -10  10    2.49    1.39
   9  10  -9   21.91    2.65
   9 -10  -9   27.69    3.50
  -9 -10   9   21.23    2.21
  -9 -10   9   20.07    3.13
  -9  10   9   20.92    2.52
  -9  10   9    0.10    3.76
   9  10  -8    5.81    1.65
   9 -10  -8    5.47    2.55
   9  10  -8    8.43    3.04
  -9 -10   8    8.41    2.31
  -9  10   8    7.06    1.86
  -9  10   8    6.76    1.85
   9  10  -7   -0.27    1.32
   9  10  -7    1.18    1.24
   9 -10  -7    3.02    1.80
  -9 -10   7    1.11    2.56
  -9  10   7    2.21    1.31
  -9  10   7    0.07    1.32
   9  10  -6   20.77    2.19
   9  10  -6   24.56    2.20
   9 -10  -6   23.65    2.87
  -9 -10   6   22.74    2.43
  -9  10   6   22.57    2.19
   9  10  -5   -0.66    1.16
   9 -10  -5   -2.05    2.38
  -9 -10   5   -0.51    1.13
  -9  10   5    0.38    1.69
   9  10  -4    9.73    1.90
   9 -10  -4   10.72    2.10
   9 -10  -4   10.05    1.78
  -9 -10   4   13.31    1.65
   9  10  -3   21.71    2.26
   9 -10  -3   24.77    3.63
   9 -10  -3   17.06    3.06
  -9 -10   3   22.12    1.77
   9  10  -2   42.70    4.20
   9 -10  -2   43.72    2.48
   9 -10  -2   42.36    2.44
  -9 -10   2   41.60    1.63
  -9 -10   2   40.75    2.89
   9  10  -1   15.28    2.06
   9 -10  -1   13.69    2.46
   9 -10  -1   12.05    2.49
   9 -10  -1    9.39    1.64
  -9 -10   1   10.92    1.54
  -9 -10   1   11.21    1.21
   9  10   0    4.77    1.68
   9 -10   0    5.10    1.17
   9 -10   0    3.06    1.19
   9 -10   0    3.90    1.30
  -9 -10   0    2.87    0.70
  -9 -10   0    3.04    0.83
   9 -10   1   15.14    1.81
   9 -10   1   16.47    1.58
   9 -10   1   16.99    1.45
   9  10   1   20.96    2.39
  -9 -10  -1   15.55    0.95
   9  10   2    3.86    2.89
   9 -10   2    3.05    1.08
   9 -10   2    2.31    2.06
   9 -10   2    3.51    1.00
   9  10   3   29.16    2.85
   9 -10   3   21.37    1.60
   9 -10   3   20.84    1.44
   9  10   4    2.27    1.50
   9 -10   4   -0.17    0.73
   9 -10   4    0.65    1.08
   9  10   5   21.17    3.05
   9  10   6    6.80    4.00
   9 -11 -11    0.27    2.49
   9  11 -11   -1.62    1.81
  -9 -11  11   -0.54    1.24
  -9 -11  11   -0.52    3.84
  -9  11  11   -2.70    2.95
  -9  11  11    0.34    2.38
   9  11 -10   -0.15    1.50
   9 -11 -10   -0.49    2.07
  -9 -11  10   -0.18    1.08
  -9 -11  10    1.30    1.86
  -9  11  10    2.10    1.46
  -9  11  10   -0.34    1.28
   9  11  -9   11.58    2.22
   9 -11  -9   -0.33    2.91
  -9 -11   9   10.23    2.62
  -9  11   9   11.28    2.12
  -9  11   9    0.02    1.87
   9  11  -8    7.62    2.02
   9  11  -8    4.76    1.60
   9 -11  -8    0.72    2.72
  -9 -11   8    9.50    2.34
  -9  11   8    7.55    1.98
  -9  11   8    6.52    1.76
   9  11  -7   49.42    4.05
   9 -11  -7   56.72    4.07
   9  11  -7   53.54    3.21
  -9 -11   7   57.18    3.55
  -9  11   7   52.99    2.97
  -9  11   7   46.06    3.08
   9  11  -6    1.26    1.68
   9 -11  -6    0.69    1.52
  -9 -11   6   -0.63    1.96
  -9  11   6   -0.04    1.01
   9 -11  -5   18.90    2.55
   9  11  -5   14.25    3.10
  -9 -11   5   14.87    2.03
  -9  11   5   15.58    1.83
   9  11  -4    1.45    2.09
   9 -11  -4    2.50    1.61
  -9 -11   4    0.68    1.25
   9  11  -3   30.57    3.77
   9 -11  -3   33.21    2.52
   9 -11  -3   28.83    2.13
  -9 -11   3   29.55    2.08
   9  11  -2   17.34    2.11
   9 -11  -2   18.28    1.96
   9 -11  -2   14.06    3.20
   9 -11  -2   13.07    2.64
  -9 -11   2   16.25    1.58
  -9 -11   2   13.62    1.26
   9  11  -1   35.12    2.59
   9 -11  -1   31.08    2.27
   9 -11  -1   30.47    2.23
   9 -11  -1   28.16    2.05
  -9 -11   1   29.90    2.20
  -9 -11   1   29.02    2.65
   9  11   0    0.88    1.26
   9 -11   0    1.06    1.54
   9 -11   0   -0.32    0.99
   9 -11   0   -0.11    0.93
  -9 -11   0    0.47    0.59
  -9 -11   0    0.94    0.74
   9  11   1   -0.79    1.38
   9 -11   1    1.63    0.98
   9 -11   1    1.27    0.93
   9 -11   1   -0.22    0.99
   9 -11   2    8.38    2.22
   9 -11   2    7.42    2.14
   9 -11   2   10.25    1.48
   9  11   2    9.57    2.20
   9  11   3    2.49    1.87
   9 -11   3    2.04    1.08
   9 -11   3    2.37    0.96
   9 -11   3    2.19    1.87
   9  11   4    1.84    2.34
   9 -11   4    0.56    0.80
   9 -11   4   -0.73    1.13
   9  11   5    3.37    2.12
   9  12 -10   12.23    2.53
   9 -12 -10   -0.58    5.43
  -9 -12  10   14.51    3.17
  -9  12  10   13.83    3.94
  -9  12  10    0.53    2.03
   9  12  -9    6.50    3.43
   9 -12  -9    0.86    2.92
  -9 -12   9   10.55    2.57
  -9  12   9    7.66    2.10
  -9  12   9    0.12    1.75
   9  12  -8    4.09    1.97
   9 -12  -8   -0.20    4.26
  -9 -12   8    7.55    2.25
  -9  12   8    0.13    2.53
  -9  12   8    3.98    1.95
   9  12  -7   -0.11    1.48
   9 -12  -7    0.30    2.52
  -9 -12   7    8.17    3.42
  -9  12   7   10.11    1.60
   9  12  -6   -0.51    0.82
   9 -12  -6   -0.04    2.09
  -9 -12   6    0.60    1.04
  -9  12   6    0.08    0.79
   9  12  -5    0.23    1.09
   9 -12  -5   -2.08    1.58
  -9 -12   5    0.76    1.25
  -9  12   5    1.41    0.99
   9 -12  -4    2.58    1.62
   9  12  -4    1.50    1.32
  -9 -12   4    1.06    1.33
   9  12  -3    8.66    1.74
   9 -12  -3    6.83    2.01
  -9 -12   3    7.06    1.60
   9  12  -2    2.33    1.32
   9 -12  -2    1.82    1.35
   9 -12  -2    2.33    1.33
   9 -12  -2   -0.35    1.03
  -9 -12   2    1.14    1.40
  -9 -12   2    1.22    1.75
   9  12  -1   15.95    2.10
   9 -12  -1   16.10    2.01
   9 -12  -1   17.77    2.05
   9 -12  -1   11.84    2.47
  -9 -12   1   13.93    1.32
  -9 -12   1   13.89    1.65
   9  12   0    6.22    1.68
   9 -12   0    3.66    1.46
   9 -12   0    3.16    1.48
   9 -12   0    3.16    1.22
  -9 -12   0    4.40    1.17
  -9 -12   0    3.91    0.94
   9  12   1   38.64    4.34
   9 -12   1   33.47    3.50
   9 -12   1   34.71    2.24
   9 -12   1   30.33    2.11
   9  12   2   16.82    2.26
   9 -12   2   10.56    2.58
   9 -12   2   12.25    1.58
   9 -12   2    7.90    1.55
   9  12   3   24.11    2.74
   9 -12   3   18.73    1.94
   9 -12   3   21.67    1.79
   9 -12   3   19.81    2.80
   9  12   4   -1.11    1.19
   9 -12   4    0.17    0.75
   9 -12   4    0.66    0.65
   9 -12   4   -0.78    0.77
   9 -13  -8   -0.24    2.54
  -9 -13   8   -0.36    3.45
  -9  13   8    3.46    1.43
   9  13  -7   24.63    2.10
   9 -13  -7   28.59    3.79
  -9 -13   7   25.94    3.22
  -9  13   7   26.42    2.27
   9  13  -6    0.04    0.98
   9 -13  -6   -0.18    1.69
  -9 -13   6    1.12    1.39
  -9  13   6    0.11    1.51
   9  13  -5   24.88    2.18
   9 -13  -5   26.02    3.31
  -9 -13   5   23.74    2.60
   9  13  -4   -0.03    0.90
   9 -13  -4   -0.26    1.23
  -9 -13   4    0.02    0.99
   9  13  -3   35.78    2.56
   9 -13  -3   34.89    4.88
  -9 -13   3   38.53    3.83
  -9 -13   3   34.44    2.10
   9  13  -2    0.61    1.29
   9 -13  -2    1.01    1.48
   9 -13  -2   -0.39    2.24
  -9 -13   2    1.51    0.92
  -9 -13   2    1.21    1.16
   9  13  -1    8.09    2.75
   9 -13  -1    9.61    2.85
   9 -13  -1    8.47    3.00
   9 -13  -1    6.90    1.29
  -9 -13   1    4.28    1.19
  -9 -13   1    6.17    1.49
   9  13   0    0.32    1.17
   9 -13   0   -1.51    1.10
   9 -13   0   -0.82    1.75
   9 -13   0    1.01    1.26
  -9 -13   0   -0.61    1.17
  -9 -13   0   -0.14    0.88
   9  13   1    5.49    1.67
   9 -13   1    3.21    2.35
   9 -13   1    2.15    2.34
   9 -13   1    2.16    1.10
   9  13   2    4.99    1.81
   9 -13   2    4.87    2.30
   9 -13   2    3.14    1.41
   9 -13   2    3.78    1.18
   9  14  -6   -0.04    1.26
   9 -14  -6   -0.11    1.59
  -9 -14   6   -0.92    2.05
  -9  14   6    0.07    0.81
   9  14  -5   -0.05    1.25
   9 -14  -5    0.15    2.14
  -9 -14   5   -0.05    1.08
   9  14  -4   -0.01    1.50
   9 -14  -4    0.30    1.44
  -9 -14   4    0.12    1.80
   9  14  -3    0.05    2.43
   9 -14  -3    0.06    3.50
   9 -14  -3    9.81    2.17
  -9 -14   3    8.07    1.40
  -9 -14   3   -0.03    1.74
   9  14  -2    0.18    1.00
   9 -14  -2    0.14    1.26
   9 -14  -2   -0.43    1.29
  -9 -14   2   -0.45    0.79
  -9 -14   2   -0.03    1.00
   9  14  -1   10.12    1.82
   9 -14  -1   -0.04    3.33
   9 -14  -1    8.39    2.06
  -9 -14   1    7.09    1.33
  -9 -14   1    8.32    2.62
   9  14   0    4.52    1.70
   9 -14   0    4.20    1.87
   9 -14   0    5.03    1.78
  -9 -14   0    3.39    1.88
  -9 -14   0    5.13    1.47
  10   0 -15    0.27    1.85
 -10   0  15   -1.17    1.84
 -10   0  15    1.55    1.75
 -10   0  14   22.83    3.59
 -10   0  13   -1.09    2.10
 -10   0  13    0.08    3.00
 -10   0  12   23.98    3.37
 -10   0  12   20.64    3.16
 -10   0  11    2.19    1.85
 -10   0  11    1.39    1.90
 -10   0  10   25.63    2.67
 -10   0  10   24.11    3.04
  10   0  -9   -0.87    1.47
 -10   0   9    1.06    2.35
  10   0  -8   22.30    2.77
  10   0  -8   23.51    2.00
 -10   0   8   31.05    2.91
 -10   0   8   25.57    2.03
  10   0  -7    0.86    1.24
  10   0  -7    0.05    0.73
 -10   0   7    0.06    1.25
 -10   0   7   -0.65    0.74
  10   0  -6   24.30    2.81
  10   0  -6   22.05    2.34
 -10   0   6   25.35    1.52
 -10   0   6   27.42    4.31
  10   0  -5   -1.45    1.09
  10   0  -5    0.16    0.49
 -10   0   5    0.79    1.08
 -10   0   5    0.05    0.47
  10   0  -4    0.22    0.44
  10   0  -4   -1.44    1.29
 -10   0   4   -0.24    0.23
  10   0  -3    0.83    0.48
 -10   0   3   -0.43    0.27
  10   0  -1    1.39    1.60
  10   0   0   30.91    2.85
  10   0   1    0.11    1.97
  10   0   2    3.95    2.03
  10   0   3   -1.44    2.86
  10   0   4   32.92    3.41
  10   0   5   -1.51    3.04
  10   0   6    6.88    2.56
  10   0   7   -0.44    1.78
 -10   1  15    2.79    2.21
 -10  -1  15   -0.52    2.15
 -10   1  14   10.57    2.97
 -10  -1  14    8.60    2.89
  10  -1 -13   -0.02    1.56
 -10  -1  13    0.62    1.64
 -10   1  13    0.00    2.74
  10  -1 -12   -1.07    1.32
 -10  -1  12    0.39    1.63
 -10  -1  12   -0.20    1.42
 -10   1  12    0.76    1.41
 -10  -1  11    5.60    3.12
 -10   1  11    2.98    1.81
 -10   1  11    2.04    2.05
 -10  -1  11   -0.11    1.96
 -10   1  10    4.45    1.73
 -10  -1  10    2.67    2.14
 -10   1  10    4.93    2.14
  10   1  -9    2.89    1.83
  10  -1  -9    2.50    1.47
 -10  -1   9    4.52    1.93
 -10   1   9    2.54    1.47
 -10   1   9    2.04    1.91
  10   1  -8    5.79    3.64
  10   1  -8   10.58    1.64
  10  -1  -8   12.06    1.71
  10  -1  -8   13.03    2.46
 -10   1   8   13.18    2.49
 -10  -1   8   13.73    2.47
 -10  -1   8   15.35    1.74
 -10   1   8   10.12    1.66
  10   1  -7   -0.23    1.44
  10   1  -7    1.42    0.86
  10  -1  -7    0.43    0.91
  10  -1  -7    0.01    1.49
 -10  -1   7    1.31    0.93
 -10   1   7   -0.74    1.46
 -10   1   7    0.30    2.41
 -10  -1   7   -0.83    1.46
  10   1  -6   47.93    2.03
  10   1  -6   46.04    3.40
  10  -1  -6   51.70    3.35
  10  -1  -6   44.22    2.12
 -10   1   6   53.23    1.99
 -10  -1   6   54.23    2.03
 -10  -1   6   51.99    3.51
 -10   1   6   51.78    3.36
  10   1  -5    0.31    0.94
  10   1  -5    2.03    1.45
  10  -1  -5    0.37    1.44
  10  -1  -5    0.63    1.07
 -10   1   5    0.44    0.61
 -10  -1   5   -2.61    1.48
 -10   1   5   -0.11    1.38
 -10  -1   5    0.77    0.59
  10   1  -4   70.13    1.88
  10   1  -4   78.30    3.83
  10  -1  -4   67.48    1.95
  10   1  -3    0.26    0.31
  10  -1  -3    0.42    0.59
 -10   1   3    0.34    0.33
 -10  -1   3    0.46    0.47
  10  -1  -2    0.21    0.18
  10  -1  -2    0.33    1.27
  10   1  -1    7.55    2.19
  10  -1  -1    9.36    2.14
  10   1   0   17.27    2.54
  10  -1   0   18.33    3.90
  10  -1   1    2.20    1.69
  10   1   1    1.48    2.87
  10   1   2    1.69    1.72
  10  -1   2    0.73    1.58
  10   1   3    2.36    1.72
  10  -1   3   -0.04    1.68
  10   1   4   15.05    2.81
  10  -1   4   13.04    2.68
  10  -1   5   -1.29    1.50
  10   1   5    1.86    1.55
  10   1   6   -0.23    1.93
  10  -1   6    1.95    1.85
  10   1   7    1.40    2.16
  10   1   8   12.14    3.13
 -10   2  15    0.69    2.15
 -10  -2  15    0.70    1.99
 -10  -2  14   22.69    5.47
 -10   2  14   26.03    3.73
  10   2 -13    0.16    1.97
 -10   2  13    1.07    2.20
 -10  -2  13    4.55    2.05
  10   2 -12   38.67    3.40
  10  -2 -12   42.04    3.61
 -10  -2  12   35.48    3.63
 -10   2  12   46.18    3.85
  10   2 -11    4.25    1.82
  10  -2 -11    4.29    2.00
 -10  -2  11    4.45    2.14
 -10   2  11    5.83    2.24
 -10   2  11    1.88    1.86
  10  -2 -10   55.83    3.34
 -10  -2  10   56.58    3.85
 -10   2  10   53.87    3.11
 -10   2  10   58.12    3.82
  10   2  -9    3.36    1.74
  10  -2  -9    2.32    1.44
 -10  -2   9    1.65    1.84
 -10   2   9    1.52    1.34
 -10   2   9    0.09    1.83
  10   2  -8    8.24    1.60
  10   2  -8   11.09    2.21
  10  -2  -8   11.68    2.36
  10  -2  -8    8.87    1.75
 -10  -2   8   11.41    3.76
 -10  -2   8    8.80    1.74
 -10   2   8   12.07    1.58
 -10   2   8   10.05    2.40
  10   2  -7   -0.64    2.32
  10  -2  -7    0.30    1.01
  10  -2  -7    1.65    1.51
 -10  -2   7    0.89    1.52
 -10  -2   7    1.73    0.99
 -10   2   7   -0.15    0.91
 -10   2   7    1.12    2.46
  10   2  -6   47.03    2.01
  10   2  -6   47.92    3.29
  10  -2  -6   44.95    2.19
  10  -2  -6   47.59    3.36
 -10  -2   6   52.03    2.03
 -10  -2   6   50.02    3.48
 -10   2   6   49.84    1.95
 -10   2   6   48.25    3.37
  10   2  -5   68.68    2.16
  10   2  -5   71.24    3.88
  10  -2  -5   70.12    2.36
  10  -2  -5   73.75    5.74
 -10   2   5   77.88    3.86
 -10   2   5   73.19    2.05
 -10  -2   5   76.58    3.01
  10  -2  -4    6.39    1.31
  10   2  -4    5.14    1.07
  10   2  -4    7.80    1.94
  10  -2  -4    6.54    1.98
 -10   2   4    4.12    0.51
  10   2  -3    1.11    1.11
  10  -2  -3    1.56    1.09
  10  -2  -3   -0.01    0.35
  10   2  -3   -0.06    0.41
 -10  -2   3   -0.40    0.40
 -10   2   3   -0.07    0.30
  10   2  -2    6.87    3.17
  10  -2  -2    9.29    1.91
  10  -2  -2    4.46    0.66
  10   2  -1    2.81    1.87
  10  -2  -1    4.32    2.88
  10   2   0   29.24    2.90
  10  -2   0   27.72    2.80
  10   2   1    4.06    1.89
  10  -2   1    1.54    1.69
  10   2   2   30.73    3.19
  10  -2   2   30.74    4.45
  10   2   3    0.89    1.78
  10  -2   3    1.53    1.62
  10   2   4   28.37    3.29
  10  -2   4   25.49    3.11
  10   2   5    4.85    2.57
  10  -2   5    7.57    2.30
  10   2   6    5.50    2.63
  10  -2   6    5.52    3.76
  10   2   7    0.02    2.27
  10   3 -14    0.39    2.54
 -10  -3  14    0.17    3.06
 -10  -3  14    8.18    2.48
 -10   3  14    9.04    2.73
 -10   3  14    7.22    2.68
  10   3 -13   -0.19    1.61
 -10  -3  13   -0.07    1.62
 -10   3  13   -0.84    1.67
 -10   3  13   -0.29    1.81
  10   3 -12    3.93    1.90
  10  -3 -12    0.97    3.51
 -10  -3  12    0.98    3.31
 -10   3  12    2.94    1.90
 -10   3  12    2.05    2.19
  10   3 -11    2.85    1.67
  10  -3 -11    2.12    1.99
 -10  -3  11    3.30    1.97
 -10   3  11    0.40    2.81
 -10   3  11    2.89    2.10
  10   3 -10   26.43    2.50
  10  -3 -10   24.82    2.83
 -10   3  10   24.87    2.41
 -10  -3  10   22.79    4.75
 -10   3  10   28.59    4.81
  10   3  -9   29.56    3.00
  10  -3  -9   31.91    2.73
 -10   3   9   32.34    2.34
 -10  -3   9   33.72    3.18
 -10  -3   9   34.63    2.72
 -10   3   9   31.93    3.14
  10   3  -8    0.16    1.62
  10  -3  -8    1.98    1.37
  10  -3  -8    0.76    1.75
  10   3  -8    1.47    1.11
 -10  -3   8    2.69    1.69
 -10  -3   8    1.13    1.31
 -10   3   8    1.86    1.87
 -10   3   8    2.34    1.72
  10   3  -7    3.11    2.85
  10  -3  -7    2.81    2.14
  10  -3  -7    3.70    2.86
 -10   3   7    1.56    1.09
 -10  -3   7    2.07    1.20
 -10   3   7    1.88    1.79
 -10  -3   7    2.99    1.76
  10   3  -6   39.01    1.90
  10   3  -6   40.06    3.28
  10  -3  -6   46.56    3.38
  10  -3  -6   44.52    3.19
 -10  -3   6   49.20    3.27
 -10   3   6   45.27    3.20
 -10   3   6   45.32    1.91
 -10  -3   6   44.11    2.97
  10   3  -5    1.60    0.74
  10   3  -5    1.30    1.70
  10  -3  -5    3.93    1.63
  10  -3  -5    0.45    0.94
 -10   3   5    2.04    1.60
 -10  -3   5    1.97    0.81
 -10   3   5    2.23    0.79
  10   3  -4   22.92    1.14
  10   3  -4   22.95    2.71
  10  -3  -4   22.88    1.37
  10  -3  -4   28.41    2.66
 -10   3   4   24.40    1.16
  10   3  -3    0.81    0.36
  10   3  -3    1.24    1.47
  10  -3  -3   -0.81    1.42
  10  -3  -3    0.45    0.57
 -10  -3   3    1.05    0.36
  10   3  -2   19.22    2.42
  10  -3  -2   15.73    3.58
  10  -3  -2   14.26    0.77
  10  -3  -1    8.87    2.01
  10  -3  -1    6.81    0.35
  10  -3  -1    7.65    0.52
  10   3  -1    9.78    3.34
  10   3   0    2.59    1.76
  10  -3   0    3.22    1.71
  10   3   1   13.55    2.44
  10  -3   1   13.85    2.32
  10   3   2    1.07    1.89
  10  -3   2    2.55    1.69
  10   3   3    0.72    1.62
  10  -3   3    0.17    1.43
  10   3   4   -1.54    2.65
  10  -3   4    0.51    2.30
  10   3   5    1.43    1.84
  10  -3   5   -0.08    1.64
  10   3   6   29.33    3.73
  10   3   7    1.77    3.66
  10   4 -14    0.00    2.84
  10  -4 -14   11.38    3.31
 -10  -4  14    0.04    5.70
 -10  -4  14   10.24    2.75
 -10   4  14   13.13    4.74
 -10   4  14   16.53    3.00
  10  -4 -13    1.73    2.36
  10   4 -13    0.09    2.02
 -10  -4  13    0.16    2.54
 -10  -4  13    2.75    3.32
 -10   4  13    2.48    2.15
 -10   4  13    6.38    2.29
  10   4 -12    0.06    2.35
  10  -4 -12   12.97    2.73
 -10  -4  12   12.55    2.54
 -10   4  12   12.47    2.36
 -10   4  12   16.32    4.25
 -10  -4  12    0.17    2.86
  10   4 -11   -0.11    1.56
  10  -4 -11    2.70    2.98
 -10  -4  11    2.49    1.77
 -10   4  11    2.69    1.56
 -10   4  11    1.21    1.92
 -10  -4  11    0.16    1.91
  10   4 -10   50.01    3.10
  10  -4 -10   49.30    3.60
 -10  -4  10   53.43    3.72
 -10  -4  10   55.60    3.69
 -10   4  10   47.51    4.55
 -10   4  10   58.18    5.80
  10   4  -9    5.89    2.84
  10   4  -9   10.54    2.22
  10  -4  -9    5.76    2.13
 -10  -4   9   11.41    3.66
 -10  -4   9    9.37    2.06
 -10   4   9    6.81    1.71
 -10   4   9   10.83    2.31
  10   4  -8    5.20    1.95
  10  -4  -8    3.71    1.69
  10  -4  -8    0.34    1.93
  10   4  -8    5.09    1.36
 -10  -4   8    5.59    2.00
 -10  -4   8    4.90    1.60
 -10   4   8    3.48    2.22
 -10   4   8    3.70    2.00
  10   4  -7   24.60    2.77
  10   4  -7   28.02    4.33
  10  -4  -7   25.45    2.25
  10  -4  -7   25.50    2.74
 -10  -4   7   24.29    2.80
 -10  -4   7   29.86    2.08
 -10   4   7   27.41    2.85
 -10   4   7   25.73    1.82
  10   4  -6    2.24    2.95
  10  -4  -6    1.69    2.02
  10  -4  -6    2.55    1.69
  10   4  -6    3.27    1.51
 -10  -4   6    2.29    1.86
 -10  -4   6    3.81    1.84
 -10   4   6    2.16    1.74
 -10   4   6    3.30    1.00
  10   4  -5   12.66    1.84
  10   4  -5   17.16    2.42
  10  -4  -5   15.30    2.27
  10  -4  -5   17.01    2.42
 -10  -4   5   16.94    1.27
 -10   4   5   14.22    2.35
 -10   4   5   15.36    1.25
  10   4  -4    0.23    0.48
  10  -4  -4   -0.16    1.09
  10   4  -4    0.21    1.27
 -10  -4   4    0.06    0.31
 -10   4   4    1.58    0.85
  10   4  -3   17.60    2.49
  10  -4  -3   15.02    1.80
 -10  -4   3   16.27    0.79
  10   4  -2   15.16    2.36
  10  -4  -2   16.52    2.24
  10  -4  -2   10.69    0.88
  10   4  -1    3.92    2.93
  10  -4  -1    2.90    0.68
  10  -4  -1    3.63    1.71
  10  -4  -1    2.65    0.73
  10  -4   0    9.82    2.10
  10   4   0    7.21    2.19
  10   4   1    4.73    2.07
  10  -4   1    6.17    1.95
  10   4   2   62.32    5.55
  10  -4   2   56.56    3.54
  10   4   3   22.54    3.06
  10  -4   3   21.60    4.27
  10   4   4    6.91    4.14
  10  -4   4    7.58    2.18
  10   4   5    4.29    2.42
  10  -4   5    5.23    3.32
  10   4   6    2.05    2.25
  10   4   7   -1.39    3.62
  10   5 -14    0.19    2.62
  10  -5 -14    8.06    3.00
 -10  -5  14    0.06    3.07
 -10  -5  14    5.89    3.73
 -10   5  14    5.50    2.49
 -10   5  14    7.39    2.64
  10   5 -13   -0.33    2.83
  10  -5 -13   -0.14    3.42
 -10  -5  13    0.49    2.15
 -10  -5  13    0.43    1.74
 -10   5  13    3.38    3.12
 -10   5  13    1.04    1.92
  10   5 -12    2.68    3.24
  10  -5 -12    4.87    2.42
 -10  -5  12    0.17    3.96
 -10  -5  12    3.83    2.01
 -10   5  12    2.51    2.01
 -10   5  12    2.60    3.55
  10   5 -11    5.82    2.11
  10  -5 -11    9.77    2.63
 -10  -5  11    9.76    2.31
 -10  -5  11    0.52    2.64
 -10   5  11    9.60    2.06
 -10   5  11    8.87    2.54
  10   5 -10    0.08    1.28
  10  -5 -10    1.47    2.70
 -10  -5  10    1.05    1.54
 -10  -5  10    1.52    1.62
 -10   5  10   -0.08    1.26
 -10   5  10    0.49    2.56
  10   5  -9   29.08    3.60
  10   5  -9   25.45    2.92
  10  -5  -9   31.15    2.98
 -10  -5   9   29.77    2.99
 -10  -5   9   28.57    2.88
 -10   5   9   27.83    2.22
 -10   5   9   30.94    3.10
  10   5  -8   15.51    1.81
  10   5  -8   13.97    2.42
  10  -5  -8   15.76    2.32
 -10  -5   8   14.55    2.54
 -10  -5   8   16.50    2.20
 -10   5   8   16.75    2.54
 -10   5   8   14.79    1.79
  10   5  -7   -1.12    2.11
  10  -5  -7    0.40    1.16
  10  -5  -7    1.22    1.36
  10   5  -7   -0.33    1.37
 -10  -5   7    0.05    1.35
 -10  -5   7    0.62    1.04
 -10   5   7   -0.11    1.35
 -10   5   7    0.56    0.87
  10   5  -6   39.12    2.76
  10   5  -6   34.30    4.61
  10  -5  -6   37.64    3.73
  10  -5  -6   42.74    3.10
 -10  -5   6   41.88    2.19
 -10   5   6   38.97    3.03
 -10   5   6   40.11    1.93
  10   5  -5    6.66    1.62
  10   5  -5    8.01    2.11
  10  -5  -5    5.72    3.35
  10  -5  -5    9.80    1.51
 -10   5   5    7.99    2.04
 -10   5   5    8.79    1.12
 -10  -5   5    4.77    1.81
  10   5  -4   27.23    2.73
  10   5  -4   21.17    1.23
  10  -5  -4   25.45    2.67
  10  -5  -4   23.11    1.76
 -10   5   4   26.64    1.34
  10   5  -3    8.32    2.04
  10  -5  -3    5.95    1.10
  10  -5  -3    7.47    1.93
 -10  -5   3    5.92    0.71
  10   5  -2   47.79    3.29
  10  -5  -2   51.72    3.17
  10  -5  -2   44.45    1.68
 -10  -5   2   41.81    1.29
  10   5  -1   11.27    3.93
  10  -5  -1   15.17    1.31
  10  -5  -1   21.51    2.38
  10  -5  -1   15.85    0.96
  10   5   0    3.29    1.74
  10  -5   0    1.87    0.62
  10  -5   0    0.97    1.63
  10  -5   0    1.56    0.67
  10   5   1   13.49    2.55
  10  -5   1   13.01    2.29
  10   5   2    3.61    3.37
  10  -5   2    4.29    1.81
  10   5   3    9.08    2.56
  10  -5   3    8.89    2.19
  10   5   4    1.34    3.75
  10  -5   4    5.11    1.93
  10   5   5    2.46    2.23
  10   5   6    3.26    2.40
  10   5   7    1.22    3.55
  10   6 -13   13.61    2.78
  10  -6 -13   15.91    3.52
 -10  -6  13   -0.05    3.52
 -10  -6  13   11.31    2.62
 -10   6  13   13.37    2.92
 -10   6  13   16.75    3.08
  10   6 -12   10.53    2.46
  10  -6 -12   11.45    5.00
 -10  -6  12    9.76    3.79
 -10  -6  12    0.38    2.99
 -10   6  12   10.10    2.46
 -10   6  12   11.59    4.22
  10  -6 -11    1.29    1.97
  10   6 -11    2.48    2.45
 -10  -6  11    0.63    1.60
 -10  -6  11   -0.43    1.93
 -10   6  11    1.66    1.78
 -10   6  11   -0.01    2.46
  10   6 -10    7.26    1.94
  10  -6 -10   10.01    2.46
 -10  -6  10    6.94    3.41
 -10  -6  10   -0.02    3.78
 -10   6  10    6.88    3.65
 -10   6  10    6.07    1.81
  10   6  -9    0.25    1.15
  10   6  -9    0.46    1.38
  10  -6  -9    1.89    2.53
 -10  -6   9    0.28    2.39
 -10   6   9   -0.60    1.84
 -10   6   9    1.04    1.47
 -10  -6   9    0.27    1.40
  10   6  -8   15.66    1.92
  10   6  -8   11.21    2.43
  10  -6  -8   18.22    2.55
 -10  -6   8   19.86    2.52
 -10  -6   8   21.04    2.35
 -10   6   8   20.82    2.62
 -10   6   8   18.06    1.89
  10   6  -7   17.12    2.61
  10   6  -7   13.04    3.76
  10  -6  -7   20.21    2.30
  10  -6  -7   16.22    2.45
 -10  -6   7   17.62    2.49
 -10  -6   7   16.29    2.01
 -10   6   7   12.91    2.48
 -10   6   7   13.42    1.66
  10   6  -6   36.30    2.96
  10   6  -6   40.34    4.87
  10  -6  -6   43.82    4.27
  10  -6  -6   43.25    3.11
 -10  -6   6   43.01    2.33
 -10   6   6   43.01    3.06
 -10   6   6   41.72    3.08
  10   6  -5   44.03    2.78
  10   6  -5   49.77    3.35
  10  -6  -5   47.71    2.57
  10  -6  -5   50.69    3.29
 -10  -6   5   53.73    3.31
 -10   6   5   50.62    3.21
 -10   6   5   53.75    3.06
  10   6  -4    3.88    0.84
  10  -6  -4    3.07    1.78
  10  -6  -4    4.53    1.24
  10   6  -4    5.28    1.89
 -10  -6   4    3.63    0.91
  10   6  -3    7.04    1.97
  10  -6  -3    5.14    1.19
  10  -6  -3    5.68    1.96
  10   6  -2   48.41    3.13
  10  -6  -2   38.84    2.59
  10  -6  -2   43.17    4.41
 -10  -6   2   37.95    1.10
 -10  -6   2   35.31    0.91
  10   6  -1    4.72    2.92
  10  -6  -1    2.57    1.69
  10  -6  -1    2.86    0.71
  10  -6  -1    3.14    1.20
  10   6   0   11.00    2.25
  10  -6   0    7.18    1.12
  10  -6   0   10.60    2.01
  10  -6   0    7.64    1.20
  10   6   1   -0.93    1.68
  10  -6   1   -0.82    1.42
  10   6   2   14.90    4.32
  10  -6   2   16.25    2.39
  10   6   3    7.24    2.45
  10  -6   3    7.42    2.01
  10   6   4    5.90    4.01
  10   6   5   13.56    3.09
  10   6   6    4.73    2.60
  10  -7 -13    9.37    3.28
  10   7 -13    8.13    2.53
 -10  -7  13    2.04    3.68
 -10  -7  13   -0.24    5.15
 -10   7  13    7.16    2.70
 -10   7  13    7.70    2.50
  10   7 -12   -1.09    1.45
  10  -7 -12   -1.80    1.88
 -10  -7  12    0.16    1.39
 -10  -7  12   -0.35    1.85
 -10   7  12   -0.22    1.60
 -10   7  12    1.35    1.47
  10   7 -11   30.80    4.84
  10  -7 -11   37.97    6.57
 -10  -7  11   37.72    3.87
 -10   7  11   35.72    3.56
 -10   7  11   34.10    3.09
 -10  -7  11   41.19    4.91
  10   7 -10    1.35    1.35
  10  -7 -10    0.78    1.83
 -10  -7  10    0.87    1.46
 -10  -7  10    0.09    1.71
 -10   7  10   -0.86    1.27
 -10   7  10    2.79    2.47
  10   7  -9   17.04    2.18
  10   7  -9   18.46    2.47
  10  -7  -9   16.11    2.90
 -10  -7   9    7.92    3.88
 -10  -7   9   18.60    2.69
 -10   7   9   17.20    2.10
 -10   7   9   17.67    2.62
  10   7  -8   12.57    3.32
  10  -7  -8    5.35    3.95
  10   7  -8    7.77    1.76
 -10  -7   8   12.97    2.20
 -10  -7   8    7.13    3.33
 -10   7   8    9.95    2.23
 -10   7   8    7.91    1.66
  10   7  -7    4.44    2.84
  10  -7  -7    2.60    1.80
  10   7  -7    3.24    2.03
 -10  -7   7    3.48    2.68
 -10   7   7    3.61    2.86
 -10   7   7    4.30    2.09
  10   7  -6   33.15    2.85
  10  -7  -6   33.06    2.60
  10  -7  -6   33.40    2.92
  10   7  -6   29.07    2.88
 -10  -7   6   32.33    3.62
 -10   7   6   36.30    2.88
 -10   7   6   31.81    2.00
  10   7  -5    0.58    1.16
  10   7  -5    0.72    1.27
  10  -7  -5    0.16    1.67
  10  -7  -5   -0.83    1.23
 -10  -7   5    1.06    1.42
 -10   7   5   -0.23    1.22
 -10   7   5    0.53    0.79
  10   7  -4   14.45    2.28
  10  -7  -4   11.83    1.70
  10  -7  -4   14.16    3.41
  10   7  -3    0.93    1.64
  10  -7  -3    4.61    1.54
  10  -7  -3    0.90    1.07
  10  -7  -2   32.04    2.53
  10  -7  -2   38.84    2.63
  10   7  -2   34.40    2.86
 -10  -7   2   27.64    0.92
 -10  -7   2   30.34    1.16
  10   7  -1   15.10    3.87
  10  -7  -1   17.54    2.20
  10  -7  -1   14.67    1.23
  10  -7  -1   14.17    1.20
  10  -7   0    0.86    0.64
  10  -7   0    3.15    2.27
  10  -7   0    0.85    0.64
  10   7   0    1.79    1.61
  10   7   1   25.38    2.79
  10  -7   1   12.92    1.53
  10  -7   1   22.78    2.40
  10  -7   1   18.60    1.57
  10   7   2   -0.85    1.52
  10  -7   2   -0.06    1.26
  10   7   3    9.55    2.56
  10   7   4   -0.64    1.81
  10   7   5    0.87    1.96
  10   7   6    5.79    2.71
  10   8 -12    0.63    1.86
  10  -8 -12    0.33    4.11
 -10  -8  12    1.95    1.73
 -10  -8  12    0.16    2.47
 -10   8  12    2.01    1.99
 -10   8  12    2.52    1.89
  10   8 -11    0.92    1.29
  10  -8 -11    2.58    1.79
 -10  -8  11   -0.28    1.28
 -10  -8  11   -0.44    2.63
 -10   8  11   -0.08    1.39
 -10   8  11   -1.14    1.28
  10   8 -10   26.07    4.26
  10  -8 -10   28.43    3.67
 -10  -8  10   27.56    2.81
 -10  -8  10   30.77    3.47
 -10   8  10   24.79    2.68
 -10   8  10   27.90    3.01
  10   8  -9   -1.03    1.10
  10   8  -9    3.25    1.18
  10  -8  -9   -1.12    1.53
 -10  -8   9    0.17    1.21
 -10  -8   9   -0.54    1.40
 -10   8   9   -0.12    1.05
 -10   8   9   -0.01    1.28
  10   8  -8    3.44    2.70
  10  -8  -8    4.83    2.07
  10   8  -8    1.11    2.35
 -10  -8   8    5.94    1.87
 -10   8   8    0.05    1.85
 -10   8   8    4.88    2.41
  10   8  -7    3.72    1.32
  10   8  -7    3.23    1.68
  10  -8  -7    2.38    3.10
 -10  -8   7    3.40    1.65
 -10   8   7   -0.06    2.72
 -10   8   7    2.75    1.32
  10   8  -6    2.32    1.13
  10   8  -6    3.52    1.58
  10  -8  -6    0.75    1.57
  10  -8  -6    0.08    1.60
 -10   8   6    3.38    1.53
 -10   8   6    0.74    1.15
 -10  -8   6    2.59    2.15
  10   8  -5   69.16    2.74
  10   8  -5   82.26    3.96
  10  -8  -5   80.58    3.49
  10  -8  -5   77.93    3.74
 -10  -8   5   80.37    4.38
 -10   8   5   84.66    3.70
  10  -8  -4    0.68    1.07
  10  -8  -4    0.46    1.26
  10   8  -4    0.30    1.38
 -10  -8   4    0.56    1.39
  10   8  -3   40.75    3.07
  10  -8  -3   36.36    2.77
  10  -8  -3   39.77    2.19
 -10  -8   3   34.70    2.41
  10   8  -2    7.16    2.81
  10  -8  -2    6.95    1.77
  10  -8  -2    5.19    2.52
 -10  -8   2    0.01    0.89
 -10  -8   2    2.68    0.58
  10   8  -1    2.74    1.50
  10  -8  -1   -0.10    0.77
  10  -8  -1    0.20    0.78
  10  -8  -1    2.67    1.27
  10   8   0    3.67    1.99
  10  -8   0    4.25    0.93
  10  -8   0    4.49    1.66
  10  -8   0    3.96    0.91
  10   8   1    2.19    1.80
  10  -8   1    1.68    0.70
  10  -8   1    1.37    1.08
  10  -8   1    0.51    1.41
  10   8   2   29.80    3.27
  10   8   3    2.74    2.12
  10   8   4    3.82    2.31
  10   8   5    4.31    2.47
  10   9 -11    5.78    2.14
  10  -9 -11    7.33    2.93
 -10  -9  11    5.64    1.95
 -10  -9  11    7.89    2.78
 -10   9  11    2.82    2.10
 -10   9  11   -0.33    2.21
  10   9 -10    0.18    1.47
  10  -9 -10   -0.56    2.01
 -10  -9  10    0.45    1.44
 -10  -9  10    2.23    1.93
 -10   9  10    1.31    1.44
 -10   9  10    0.35    1.54
  10  -9  -9   37.04    3.74
  10   9  -9   29.60    2.79
 -10  -9   9   32.38    5.26
 -10   9   9   30.52    4.23
 -10   9   9   33.91    3.00
  10   9  -8    3.00    2.32
  10   9  -8    3.08    1.62
  10  -9  -8    1.53    3.33
 -10  -9   8    3.92    1.85
 -10   9   8    0.12    1.72
 -10   9   8    2.66    1.46
  10   9  -7   15.94    1.92
  10   9  -7   15.48    2.23
  10  -9  -7   10.81    2.59
 -10   9   7   18.35    2.29
 -10   9   7   13.82    1.92
 -10  -9   7   13.90    2.30
  10   9  -6   21.55    1.95
  10   9  -6   21.63    2.44
  10  -9  -6   18.61    4.24
 -10  -9   6   21.00    2.23
 -10   9   6   19.66    3.68
  10   9  -5    2.13    1.52
  10  -9  -5    0.45    1.41
  10  -9  -5    1.04    1.40
 -10  -9   5    1.54    1.14
 -10   9   5    1.21    1.37
  10   9  -4    4.94    1.64
  10  -9  -4    0.10    1.38
  10  -9  -4    1.72    2.34
 -10  -9   4    2.09    1.74
  10   9  -3    0.88    1.09
  10  -9  -3    0.13    0.83
  10  -9  -3   -0.90    0.96
 -10  -9   3   -0.17    1.00
  10   9  -2   48.54    4.73
  10  -9  -2   41.07    2.26
  10  -9  -2   42.26    2.25
  10  -9  -2   45.01    2.79
 -10  -9   2   36.88    1.91
  10   9  -1   24.51    2.68
  10  -9  -1   17.93    2.39
  10  -9  -1   20.76    2.19
  10  -9  -1   20.00    2.51
  10   9   0    1.87    1.44
  10  -9   0    0.49    0.76
  10  -9   0   -0.05    0.72
  10  -9   0    0.55    1.80
  10   9   1   14.65    4.02
  10  -9   1   13.22    1.87
  10  -9   1   17.79    2.01
  10  -9   1    9.49    1.84
  10   9   2    1.42    1.85
  10   9   3   21.65    3.09
  10   9   4    0.90    1.87
  10  10 -10    6.18    2.00
  10 -10 -10    0.23    2.72
 -10  10  10    4.35    1.93
 -10  10  10   -0.02    1.96
 -10 -10  10    6.74    2.55
  10  10  -9    4.25    2.97
  10 -10  -9   -0.03    2.59
 -10 -10   9    5.84    2.34
 -10  10   9   -0.17    3.06
 -10  10   9    6.43    1.80
  10  10  -8    2.84    1.70
  10  10  -8    5.52    1.67
  10 -10  -8    0.44    2.37
 -10 -10   8    9.66    2.06
 -10  10   8   -0.51    1.81
 -10  10   8    3.52    1.62
  10  10  -7   24.09    2.44
  10  10  -7   28.35    2.61
  10 -10  -7   30.19    4.91
 -10 -10   7   31.98    4.46
 -10  10   7   27.71    2.61
 -10  10   7   28.87    2.34
  10  10  -6   22.49    2.40
  10 -10  -6   22.83    2.67
 -10 -10   6   21.57    2.36
 -10  10   6    0.06    3.53
  10  10  -5    9.39    2.03
  10 -10  -5    7.17    3.34
 -10 -10   5    8.08    1.74
  10  10  -4    4.82    1.92
  10 -10  -4    5.20    1.70
  10 -10  -4    5.20    1.70
 -10 -10   4    5.31    1.41
  10  10  -3   30.93    4.43
  10 -10  -3   34.08    2.48
  10 -10  -3   30.46    2.51
 -10 -10   3   32.33    2.86
  10  10  -2   18.31    2.37
  10 -10  -2   13.81    1.71
  10 -10  -2   13.86    1.70
  10 -10  -2   12.71    2.03
 -10 -10   2   13.27    1.01
 -10 -10   2   14.51    1.98
  10 -10  -1    3.91    2.33
  10 -10  -1   11.02    1.51
  10 -10  -1   14.16    1.84
  10  10  -1   12.77    2.32
  10  10   0    5.21    1.98
  10 -10   0    4.86    1.17
  10 -10   0    3.02    1.10
  10 -10   0    3.89    1.50
  10  10   1    0.00    1.63
  10 -10   1    1.06    1.32
  10 -10   1    1.06    0.78
  10 -10   1    0.24    1.90
  10  10   2   11.61    2.49
  10 -10   2    8.34    1.84
  10  10   3    7.41    3.80
  10  11  -9   17.56    2.32
  10 -11  -9   -0.25    3.19
 -10 -11   9   14.09    4.48
 -10  11   9    0.11    2.24
 -10  11   9   16.64    2.27
  10  11  -8    4.26    1.61
  10  11  -8    1.85    1.79
  10 -11  -8    0.40    4.06
 -10 -11   8    5.71    2.12
 -10  11   8    0.16    1.73
 -10  11   8    5.46    1.75
  10  11  -7    6.87    1.73
  10 -11  -7    0.25    2.32
 -10 -11   7   11.12    2.07
 -10  11   7   -0.18    1.76
  10  11  -6    3.00    1.59
  10 -11  -6    4.93    3.36
 -10 -11   6    5.28    1.69
 -10  11   6    0.02    1.52
  10  11  -5    0.98    2.48
  10 -11  -5    2.28    1.75
 -10 -11   5    3.12    2.34
  10  11  -4    4.40    2.78
  10 -11  -4    3.40    1.79
 -10 -11   4    4.02    1.42
  10  11  -3   16.17    2.34
  10 -11  -3   14.71    2.14
  10 -11  -3   17.03    1.98
 -10 -11   3   13.45    1.26
 -10 -11   3   14.64    1.70
  10  11  -2    6.24    1.99
  10 -11  -2    1.91    2.47
  10 -11  -2    7.11    1.62
  10 -11  -2    7.05    1.58
  10  11  -1    7.37    2.01
  10 -11  -1    5.07    1.44
  10 -11  -1    4.65    1.42
  10 -11  -1    5.34    2.36
  10  11   0    2.96    3.12
  10 -11   0    4.59    1.31
  10 -11   0    3.34    1.28
  10 -11   0    6.03    1.45
  10  11   1   16.93    2.47
  10 -11   1   11.48    1.54
  10 -11   1    9.17    2.25
  10 -11   1   13.90    1.87
  10  11   2   -0.60    1.42
  10 -11   2    1.08    1.54
  10  12  -7   13.12    3.23
  10 -12  -7    0.53    3.05
 -10 -12   7   22.13    4.06
 -10  12   7   15.32    2.10
  10  12  -6    2.94    2.30
  10 -12  -6    0.66    1.97
 -10 -12   6    3.86    1.63
 -10  12   6    0.11    1.37
  10  12  -5   34.03    2.67
  10 -12  -5   30.88    3.21
 -10 -12   5   27.72    2.67
  10  12  -4    1.90    1.48
  10 -12  -4    1.11    1.61
 -10 -12   4    0.76    1.29
  10  12  -3    4.20    1.81
  10 -12  -3    2.06    1.67
  10 -12  -3    5.39    1.78
 -10 -12   3    4.92    1.09
 -10 -12   3    4.55    2.21
  10  12  -2    5.60    1.96
  10 -12  -2    6.66    1.73
  10 -12  -2    6.06    2.78
  10 -12  -2    6.44    1.53
  10  12  -1   18.99    4.02
  10 -12  -1   19.17    2.11
  10 -12  -1   21.95    2.07
  10 -12  -1   19.13    1.95
  10  12   0    0.12    1.52
  10 -12   0   -0.56    1.06
  10 -12   0    1.18    1.72
  10 -12   0    3.81    1.67
 -11   0  13    0.25    2.86
  11   0 -12    0.19    2.34
 -11   0  12   19.15    2.88
  11   0 -11    0.26    1.32
 -11   0  11   -0.50    1.40
 -11   0  11    1.90    1.74
  11   0 -10    9.48    2.00
 -11   0  10   13.07    2.78
 -11   0  10    8.69    2.02
  11   0  -9   -0.69    1.59
 -11   0   9    0.07    1.61
  11   0  -8   40.74    5.57
  11   0  -8   36.93    2.29
 -11   0   8   40.70    3.70
 -11   0   8   43.55    2.25
  11   0  -7    0.82    1.44
  11   0  -7    0.39    0.71
 -11   0   7   -1.78    1.49
  11   0  -6   40.31    2.69
  11   0  -6   52.66    3.65
 -11   0   6   55.05    3.69
  11   0  -5   -0.48    0.70
  11   0  -5    2.07    1.25
 -11   0   5   -0.04    0.16
  11   0  -4   76.36    2.03
 -11   0   4   82.67    2.25
  11   0  -2   38.01    3.42
  11   0  -1    0.07    1.32
  11   0   0    2.54    2.00
  11   0   1   -0.72    1.72
  11   0   2   -0.03    2.02
  11   0   3    2.21    2.09
  11   0   4    0.63    1.86
  11   0   5    1.79    2.19
  11   1 -13    0.20    1.61
 -11  -1  13   -0.12    1.76
 -11  -1  13    2.52    1.86
 -11   1  13   -2.55    3.05
  11   1 -12   23.72    2.90
 -11  -1  12   23.32    3.14
 -11  -1  12   23.36    3.44
 -11   1  12   27.96    3.54
  11   1 -11    1.76    1.37
 -11  -1  11   -0.31    2.96
 -11  -1  11    0.15    1.50
 -11   1  11   -0.28    1.88
  11   1 -10   33.90    2.69
 -11  -1  10   37.10    3.66
 -11   1  10   34.91    3.67
 -11   1  10   40.13    2.69
  11   1  -9    0.99    1.58
  11  -1  -9   -0.52    1.60
 -11  -1   9    0.06    2.55
 -11   1   9   -0.96    0.97
 -11   1   9    0.34    1.63
  11   1  -8   25.12    1.93
  11   1  -8   28.93    3.07
  11  -1  -8   24.51    3.15
  11  -1  -8   21.17    1.97
 -11  -1   8   28.00    3.17
 -11  -1   8   24.18    1.93
 -11   1   8   24.82    1.85
 -11   1   8   21.23    3.19
  11   1  -7    2.04    0.94
  11   1  -7    1.12    3.02
  11  -1  -7    1.08    0.98
  11  -1  -7    2.19    1.77
 -11  -1   7    0.92    1.85
 -11   1   7   -1.21    2.95
 -11   1   7    0.62    1.43
  11   1  -6    1.51    1.94
  11  -1  -6    2.05    1.91
  11  -1  -6    1.74    1.39
  11   1  -6    2.02    0.85
 -11   1   6    2.82    1.89
  11   1  -5    7.12    0.91
  11   1  -5    7.53    2.37
  11  -1  -5    8.59    0.96
  11   1  -4   -0.02    0.60
  11  -1  -4    0.51    0.43
 -11  -1   4    0.52    0.55
 -11   1   4    0.11    0.61
  11  -1  -3   11.25    0.57
  11  -1  -3   22.98    2.67
  11   1  -2   21.13    2.95
  11  -1  -2   19.04    2.97
  11  -1  -1    7.16    3.94
  11   1  -1    8.26    2.51
  11   1   0   22.13    4.84
  11  -1   0   20.66    3.03
  11   1   1    7.13    2.39
  11  -1   1    5.28    2.32
  11   1   2   23.62    5.10
  11  -1   2   24.86    3.21
  11   1   3    6.80    2.49
  11  -1   3    4.89    2.47
  11   1   4   13.20    4.96
  11  -1   4   15.72    2.99
  11   1   5    2.78    2.43
 -11  -2  13    1.78    1.89
 -11   2  13   -1.94    1.88
 -11   2  13    2.12    2.00
 -11  -2  12    5.09    2.36
 -11   2  12    0.60    2.18
 -11   2  12    5.10    2.48
  11   2 -11    3.13    1.86
 -11  -2  11    8.11    2.45
 -11   2  11    4.99    2.47
  11   2 -10    1.46    1.17
 -11  -2  10   -1.00    1.66
 -11   2  10    0.91    1.69
 -11   2  10   -0.33    1.24
  11   2  -9    4.92    2.30
  11  -2  -9    5.94    2.62
 -11  -2   9    6.12    2.33
 -11   2   9    4.12    1.45
 -11   2   9    6.16    2.40
  11   2  -8    2.54    1.23
  11   2  -8    4.80    2.00
  11  -2  -8    3.32    2.13
  11  -2  -8    3.30    1.32
 -11  -2   8    3.71    2.12
 -11  -2   8    3.52    1.27
 -11   2   8    3.06    1.19
 -11   2   8    3.77    2.16
  11   2  -7    7.59    1.94
  11   2  -7    2.93    3.77
  11  -2  -7    6.18    1.36
  11  -2  -7    7.42    2.46
 -11  -2   7    8.53    2.47
 -11   2   7    7.93    1.95
 -11   2   7    9.77    2.41
  11  -2  -6  106.02    4.93
  11   2  -6   91.97    2.88
  11   2  -6  106.94    4.82
  11  -2  -6   93.77    3.02
 -11   2   6  117.39    5.03
 -11   2   6  101.94    3.61
 -11  -2   6  108.71    2.83
  11  -2  -5    7.78    3.68
  11   2  -5    4.89    1.25
  11   2  -5    7.42    2.20
  11  -2  -5    1.85    1.44
 -11   2   5    5.02    0.77
  11   2  -4   23.53    1.46
  11   2  -4   37.62    3.23
  11  -2  -4   27.73    1.24
  11  -2  -4   39.02    3.23
 -11  -2   4   28.84    0.97
 -11   2   4   31.54    1.49
  11  -2  -3    1.09    0.57
  11  -2  -3    1.24    1.77
  11  -2  -2   20.92    4.41
  11   2  -1    8.11    2.41
  11  -2  -1    5.09    2.31
  11  -2   0   28.80    3.19
  11   2   0   29.40    5.08
  11   2   1    1.69    1.90
  11  -2   1    0.15    2.92
  11   2   2   -0.45    1.71
  11  -2   2    1.46    1.65
  11   2   3   -0.11    1.75
  11  -2   3    1.45    2.54
  11   2   4    7.76    2.76
  11   2   5    3.89    2.57
  11  -3 -13   -0.21    1.94
 -11  -3  13    0.23    1.96
 -11   3  13   -3.41    2.05
 -11   3  13   -0.36    2.12
  11  -3 -12   20.92    3.07
 -11  -3  12   20.28    5.22
 -11   3  12   21.90    2.96
 -11   3  12   25.36    3.50
  11  -3 -11   -1.49    1.37
  11   3 -11   -0.48    1.24
 -11  -3  11    0.72    1.68
 -11   3  11   -0.17    1.29
 -11   3  11    0.95    1.64
  11   3 -10   54.67    3.17
  11  -3 -10   54.21    3.45
 -11  -3  10   57.32    6.44
 -11   3  10   62.90    4.74
 -11   3  10   62.11    6.43
  11   3  -9    5.12    2.16
  11   3  -9    3.26    1.41
  11  -3  -9    1.74    1.64
 -11  -3   9    4.08    2.20
 -11  -3   9    5.59    1.56
 -11   3   9    3.55    1.39
 -11   3   9    4.77    2.30
  11   3  -8    1.61    1.06
  11   3  -8    2.03    1.77
  11  -3  -8    0.58    1.20
  11  -3  -8    2.84    1.85
 -11  -3   8    1.08    1.13
 -11  -3   8   -0.28    2.88
 -11   3   8    0.66    1.81
 -11   3   8    0.19    1.66
  11   3  -7    2.59    1.73
  11   3  -7    1.59    2.07
  11  -3  -7    3.46    1.26
  11  -3  -7    3.31    2.14
 -11  -3   7    4.37    2.12
 -11   3   7    4.41    2.06
 -11   3   7    4.36    1.07
  11   3  -6    4.54    1.94
  11  -3  -6    3.14    1.05
  11  -3  -6    2.66    3.18
  11   3  -6    1.30    1.41
 -11  -3   6    2.98    0.91
 -11   3   6    2.47    1.96
 -11   3   6    2.39    0.89
  11   3  -5   21.34    1.90
  11   3  -5   26.07    3.03
  11  -3  -5   30.71    3.04
  11  -3  -5   25.76    1.53
 -11   3   5   26.91    1.90
  11   3  -4    2.69    1.73
  11   3  -4    1.32    0.73
  11  -3  -4    1.21    1.04
  11  -3  -4    0.65    1.70
 -11  -3   4    0.92    0.70
  11  -3  -3    5.05    1.94
  11  -3  -3    2.48    0.86
  11   3  -3    4.51    2.01
  11   3  -2    2.27    1.78
  11  -3  -2    0.55    1.73
  11   3  -1    4.48    2.15
  11  -3  -1    3.91    2.07
  11   3   0   29.93    3.40
  11  -3   0   29.19    3.19
  11  -3   1    8.30    2.40
  11   3   1    6.91    2.57
  11   3   2   18.65    3.21
  11  -3   2   20.34    2.88
  11   3   3    6.82    2.51
  11  -3   3    3.87    2.32
  11   3   4   26.91    3.75
  11   3   5    1.63    2.34
  11   4 -13    0.02    2.26
  11  -4 -13   10.51    4.21
 -11  -4  13    0.09    2.58
 -11  -4  13   10.40    3.98
 -11   4  13    9.16    2.32
  11  -4 -12    0.04    1.84
 -11  -4  12    0.41    1.85
 -11  -4  12    0.14    1.76
 -11   4  12    2.79    2.56
 -11   4  12    1.46    3.07
  11   4 -11    7.30    3.15
  11  -4 -11    8.04    2.37
 -11  -4  11   11.61    2.61
 -11  -4  11   -0.12    2.30
 -11   4  11    8.63    1.96
 -11   4  11    7.11    2.64
  11   4 -10    6.56    1.82
  11  -4 -10    7.50    2.11
 -11  -4  10    7.77    2.44
 -11  -4  10    6.99    2.02
 -11   4  10    6.94    1.77
 -11   4  10    5.58    4.11
  11   4  -9    5.27    2.30
  11   4  -9    5.26    1.56
  11  -4  -9    4.68    1.83
 -11  -4   9    5.76    2.32
 -11  -4   9    4.90    1.72
 -11   4   9    8.32    2.36
 -11   4   9    5.63    1.52
  11   4  -8   14.75    1.73
  11   4  -8   16.90    2.72
  11  -4  -8   15.59    2.03
  11  -4  -8   19.69    2.84
 -11  -4   8   15.36    2.83
 -11  -4   8   17.26    1.88
 -11   4   8   15.51    2.82
 -11   4   8   15.78    1.65
  11   4  -7    4.42    1.75
  11   4  -7    1.78    2.11
  11  -4  -7    2.81    1.35
  11  -4  -7    3.79    2.07
 -11  -4   7    2.49    1.91
 -11   4   7    4.04    2.05
 -11   4   7    4.48    1.11
  11   4  -6   25.22    2.30
  11   4  -6   30.73    4.96
  11  -4  -6   27.24    1.91
  11  -4  -6   32.65    3.13
 -11  -4   6   28.06    1.65
 -11   4   6   29.42    3.12
 -11   4   6   29.37    1.61
  11   4  -5    2.11    0.80
  11   4  -5    5.88    2.05
  11  -4  -5    5.93    2.00
  11  -4  -5    3.25    1.01
 -11   4   5    4.02    1.31
  11   4  -4   33.55    3.16
  11   4  -4   22.41    1.10
  11  -4  -4   26.76    1.46
  11  -4  -4   32.89    3.03
  11   4  -3    2.95    1.91
  11  -4  -3    1.34    0.96
  11  -4  -3    1.36    1.88
  11  -4  -2   18.73    2.69
  11   4  -2   15.93    2.79
  11   4  -1    8.80    2.45
  11  -4  -1    8.51    2.38
  11   4   0   14.25    2.74
  11  -4   0   10.97    2.55
  11   4   1    9.45    2.72
  11  -4   1    9.95    2.48
  11   4   2   -0.16    1.62
  11  -4   2    1.02    2.28
  11   4   3    5.88    2.62
  11   4   4    2.02    2.31
  11   4   5    1.72    2.35
  11   5 -12   11.95    2.50
  11  -5 -12   16.68    3.01
 -11  -5  12   15.41    2.93
 -11  -5  12   -0.03    2.95
 -11   5  12   11.52    2.43
 -11   5  12   15.76    4.84
  11   5 -11    4.54    1.88
  11  -5 -11    3.83    3.54
 -11  -5  11    0.19    2.15
 -11   5  11    7.59    2.42
 -11   5  11    3.61    2.86
 -11  -5  11    4.38    3.62
  11   5 -10   18.43    2.38
  11  -5 -10   18.71    2.86
 -11  -5  10   23.39    2.63
 -11   5  10   22.42    4.92
 -11   5  10   18.74    2.20
 -11  -5  10   23.57    3.05
  11   5  -9    3.56    2.13
  11   5  -9    3.25    1.51
  11  -5  -9    3.23    1.81
 -11  -5   9    5.00    3.53
 -11  -5   9    4.78    1.68
 -11   5   9    5.36    2.25
 -11   5   9    3.67    2.32
  11   5  -8   23.16    2.03
  11   5  -8   25.96    3.06
  11  -5  -8   26.90    2.50
 -11  -5   8   30.90    3.17
 -11  -5   8   27.94    3.48
 -11   5   8   28.59    3.13
 -11   5   8   25.91    1.95
  11   5  -7   28.31    2.88
  11   5  -7   31.27    3.14
  11  -5  -7   28.09    2.38
  11  -5  -7   34.60    3.22
 -11  -5   7   31.24    3.05
 -11   5   7   32.55    3.17
 -11   5   7   29.75    1.88
  11   5  -6   -0.13    2.48
  11  -5  -6    0.17    0.93
  11  -5  -6    1.49    1.47
  11   5  -6    0.07    1.14
 -11  -5   6    0.40    0.76
 -11   5   6    0.56    1.47
 -11   5   6    0.27    0.72
  11   5  -5   31.68    3.19
  11  -5  -5   33.14    4.71
  11  -5  -5   27.26    2.84
  11   5  -5   23.23    1.39
 -11  -5   5   22.70    1.65
 -11   5   5   28.94    1.48
  11   5  -4    0.45    1.27
  11  -5  -4   -0.56    1.22
  11  -5  -4   -0.05    0.59
  11   5  -3   23.74    2.95
  11  -5  -3   18.20    1.24
  11  -5  -3   24.50    2.76
  11   5  -2    7.12    3.93
  11  -5  -2   10.21    2.35
  11   5  -1    8.36    2.46
  11  -5  -1    7.09    2.29
  11   5   0   10.71    2.64
  11  -5   0   10.08    2.40
  11   5   1    1.02    1.82
  11  -5   1    0.37    2.60
  11   5   2   15.96    3.04
  11   5   3    3.38    2.40
  11   5   4   12.66    3.16
  11   6 -12    1.01    1.61
  11  -6 -12    2.02    2.04
 -11  -6  12    0.84    2.90
 -11  -6  12    0.20    1.90
 -11   6  12   -0.53    1.55
 -11   6  12    3.43    3.13
  11   6 -11   13.43    2.47
  11  -6 -11   16.42    3.04
 -11  -6  11   23.75    2.90
 -11  -6  11    0.33    2.80
 -11   6  11   16.57    2.30
 -11   6  11   23.71    3.07
  11   6 -10   -1.29    1.87
  11  -6 -10    1.22    2.49
 -11  -6  10    1.17    1.53
 -11  -6  10   -0.16    2.22
 -11   6  10   -1.20    2.54
 -11   6  10   -0.81    1.13
  11   6  -9   14.30    2.70
  11   6  -9   14.14    1.97
  11  -6  -9   11.83    2.58
 -11  -6   9   19.26    2.79
 -11  -6   9   14.39    3.54
 -11   6   9   15.85    2.81
 -11   6   9   16.61    1.92
  11   6  -8    7.31    1.51
  11   6  -8    7.70    2.24
  11  -6  -8    7.49    1.92
 -11  -6   8    5.76    2.70
 -11   6   8    5.11    2.37
 -11   6   8    5.20    1.47
  11   6  -7    2.13    1.73
  11   6  -7   -1.22    1.83
  11  -6  -7    1.00    1.45
  11  -6  -7    3.28    1.89
 -11  -6   7    2.61    1.17
 -11   6   7    2.91    1.87
 -11   6   7    3.17    1.75
  11   6  -6   17.30    2.27
  11   6  -6   20.87    4.55
  11  -6  -6   20.31    1.99
  11  -6  -6   19.80    4.32
 -11   6   6   19.79    2.72
 -11   6   6   22.75    2.43
 -11  -6   6   20.48    1.65
  11   6  -5    0.02    0.63
  11   6  -5   -2.04    1.49
  11  -6  -5    0.72    1.47
  11  -6  -5    0.54    1.41
 -11  -6   5   -0.63    0.66
  11   6  -4   45.30    3.57
  11  -6  -4   44.78    3.33
  11  -6  -4   37.84    3.06
  11   6  -3   -0.47    1.24
  11  -6  -3    0.62    0.88
  11  -6  -3   -0.51    1.16
  11   6  -2    7.13    2.48
  11  -6  -2    9.59    2.22
  11   6  -1   19.29    2.99
  11  -6  -1   18.11    2.64
  11   6   0    1.22    1.95
  11  -6   0    1.81    1.71
  11   6   1   29.12    3.50
  11   6   2    5.36    2.45
  11   6   3    7.85    2.78
  11   6   4    1.80    2.30
  11   7 -11    2.55    1.83
  11  -7 -11    2.08    2.40
 -11  -7  11    4.20    2.12
 -11  -7  11    0.56    2.23
 -11   7  11    4.42    1.76
 -11   7  11    4.29    2.30
  11  -7 -10   12.85    2.63
  11   7 -10    9.27    2.02
 -11  -7  10   12.01    2.46
 -11  -7  10   -0.01    2.47
 -11   7  10   11.91    4.13
 -11   7  10    9.21    1.94
  11   7  -9    0.17    1.49
  11   7  -9    2.05    1.20
  11  -7  -9   -0.05    1.56
 -11  -7   9    0.62    1.60
 -11  -7   9    0.44    1.41
 -11   7   9   -0.10    1.66
 -11   7   9    0.02    1.13
  11   7  -8   21.24    3.13
  11   7  -8   20.24    2.84
  11  -7  -8   21.40    4.16
 -11  -7   8   22.19    2.36
 -11   7   8   23.49    2.95
 -11   7   8   19.91    3.09
  11   7  -7   11.56    1.52
  11   7  -7   11.05    3.84
  11  -7  -7    9.64    2.12
 -11  -7   7   11.19    1.75
 -11   7   7    0.42    2.37
 -11   7   7   10.80    1.54
  11   7  -6    8.60    2.01
  11   7  -6    7.34    2.34
  11  -7  -6    9.15    1.81
  11  -7  -6    8.16    2.25
 -11  -7   6    9.00    1.48
 -11   7   6    0.00    2.24
 -11   7   6    8.37    1.33
  11   7  -5   66.96    4.05
  11  -7  -5   58.36    2.90
  11  -7  -5   66.16    3.84
 -11  -7   5   62.40    2.39
  11   7  -4    2.67    1.74
  11  -7  -4   -0.59    2.61
  11  -7  -4    0.29    1.70
  11   7  -3   22.88    3.02
  11  -7  -3   24.32    2.73
  11  -7  -3   21.05    2.42
  11   7  -2   26.55    2.90
  11  -7  -2   11.76    1.36
  11  -7  -2   11.48    1.34
  11  -7  -2   29.09    2.57
  11   7  -1   -0.81    1.75
  11  -7  -1   -0.85    2.48
  11   7   0   20.26    2.96
  11  -7   0   18.45    2.65
  11   7   1   -1.73    1.97
  11   7   2    3.90    2.36
  11   7   3   -0.54    1.91
  11   8 -10    0.84    1.06
  11  -8 -10    0.76    2.31
 -11  -8  10    0.04    1.25
 -11  -8  10   -0.31    1.32
 -11   8  10    0.35    1.35
 -11   8  10   -0.77    1.04
  11   8  -9   14.81    2.52
  11   8  -9   12.59    2.05
  11  -8  -9   13.29    2.79
 -11  -8   9    0.07    2.51
 -11   8   9   18.83    2.68
 -11   8   9   10.99    3.16
  11   8  -8    0.02    1.56
  11  -8  -8    0.54    1.63
  11   8  -8    2.37    1.15
 -11  -8   8    2.23    1.40
 -11   8   8    0.27    1.62
 -11   8   8   -1.04    1.14
  11   8  -7   -0.02    0.81
  11   8  -7    3.23    1.93
  11  -8  -7    1.36    1.78
 -11  -8   7   -0.70    0.94
 -11   8   7   -0.17    1.88
 -11   8   7   -0.47    0.81
  11   8  -6    9.32    1.49
  11   8  -6   19.18    2.44
  11  -8  -6   11.11    1.99
  11  -8  -6   13.83    2.36
 -11   8   6   -0.28    2.30
 -11  -8   6   11.25    1.67
  11   8  -5    0.67    1.00
  11  -8  -5   -0.48    0.73
  11  -8  -5   -2.04    0.91
 -11  -8   5    0.89    0.57
  11   8  -4   13.96    2.48
  11  -8  -4    7.62    1.65
  11  -8  -4   12.72    2.25
  11   8  -3    0.69    2.45
  11  -8  -3   -1.14    1.30
  11  -8  -3    0.18    1.35
  11   8  -2    4.75    1.93
  11  -8  -2    1.11    0.94
  11  -8  -2    3.57    2.67
  11  -8  -2    1.78    0.93
  11   8  -1   15.61    2.85
  11  -8  -1   16.92    2.47
  11   8   0    1.35    3.29
  11  -8   0    2.99    1.77
  11   8   1    8.85    2.65
  11  -8   1    8.48    2.14
  11   8   2    2.75    2.22
  11   9  -9    6.76    2.02
  11   9  -9    6.82    2.74
  11  -9  -9    4.00    3.99
 -11  -9   9    0.07    3.34
 -11   9   9   -0.03    2.12
 -11   9   9    4.68    1.68
  11   9  -8    4.04    2.90
  11   9  -8    3.89    1.48
  11  -9  -8   -0.67    1.98
 -11  -9   8    9.12    2.89
 -11   9   8   -0.25    1.90
 -11   9   8    2.12    1.46
  11   9  -7   11.29    1.62
  11   9  -7    9.94    2.19
  11  -9  -7    9.51    2.26
 -11  -9   7    9.63    3.12
 -11   9   7   -0.06    3.41
 -11   9   7    1.42    1.60
  11   9  -6    2.38    1.68
  11  -9  -6    4.15    2.55
 -11  -9   6    1.14    1.30
 -11   9   6   -0.20    1.58
  11   9  -5   25.51    2.84
  11  -9  -5   19.13    2.25
  11  -9  -5   22.22    2.65
 -11  -9   5   23.09    2.94
  11   9  -4    4.59    2.08
  11  -9  -4    3.36    1.44
  11  -9  -4    2.97    2.86
  11   9  -3   10.96    3.77
  11  -9  -3    7.81    2.48
  11  -9  -3    8.20    2.09
  11   9  -2    2.56    1.67
  11  -9  -2    0.73    0.93
  11  -9  -2    1.80    1.43
  11  -9  -2   -0.92    1.45
  11   9  -1    9.26    2.52
  11  -9  -1    7.89    3.24
  11   9   0    0.30    2.80
  11  -9   0    0.93    1.41
  11   9   1    0.57    1.70
  11  -9   1    0.50    1.35
  11  10  -7    4.36    1.77
  11 -10  -7    6.47    3.12
 -11 -10   7    1.79    1.68
 -11  10   7    0.05    1.77
  11  10  -6    4.44    1.81
  11 -10  -6    1.65    1.81
 -11 -10   6    1.82    2.40
  11  10  -5    0.45    1.63
  11 -10  -5    1.49    1.45
  11  10  -4    0.95    2.62
  11 -10  -4   -0.05    1.27
  11 -10  -4    2.56    1.47
  11  10  -3    8.07    2.30
  11 -10  -3    6.77    1.53
  11 -10  -3    6.99    1.60
  11 -10  -3    7.17    1.98
  11  10  -2   22.99    2.87
  11 -10  -2   15.48    1.81
  11 -10  -2   14.70    1.74
  11 -10  -2   22.58    2.40
  11  10  -1    5.96    2.27
  11 -10  -1    4.90    1.77
  12   0 -11    0.95    1.41
 -12   0  11    0.51    2.12
  12   0 -10   35.09    2.73
 -12   0  10   43.20    2.65
 -12   0  10   46.17    4.16
  12   0  -9   -2.24    1.88
  12   0  -9    0.69    1.63
 -12   0   9   -0.36    1.94
  12   0  -8    4.86    1.27
  12   0  -8    6.28    4.01
 -12   0   8    3.51    1.19
 -12   0   8    7.71    2.57
  12   0  -7   -0.34    1.56
  12   0  -7    0.48    0.68
 -12   0   7   -0.08    0.61
  12   0  -6    8.99    2.75
  12   0  -3   -0.39    1.72
  12   0  -2    7.55    2.68
  12   0  -1    0.58    1.87
  12   0   0   14.84    3.20
  12   0   1    1.04    2.03
  12   0   2   18.31    3.38
  12   0   3   -2.80    2.47
  12  -1 -11    2.39    1.62
 -12  -1  11    1.66    3.79
 -12  -1  11    2.91    1.56
 -12   1  11   -1.00    2.39
  12   1 -10    1.19    0.87
  12  -1 -10   -0.21    0.90
 -12  -1  10   -0.18    1.40
 -12   1  10   -1.49    0.85
 -12   1  10    1.92    1.41
  12   1  -9    2.06    1.33
  12   1  -9    3.57    2.35
  12  -1  -9    3.07    2.13
  12  -1  -9    4.84    2.44
 -12  -1   9    5.38    3.80
 -12   1   9    2.46    2.40
  12   1  -8   17.21    3.06
  12   1  -8   12.07    1.58
  12  -1  -8   17.24    4.81
  12  -1  -8   12.38    1.64
 -12  -1   8   15.69    3.09
 -12   1   8   18.58    3.15
 -12   1   8   14.14    1.50
 -12  -1   8   15.26    1.51
  12   1  -7   -0.96    2.49
  12   1  -7    0.95    1.03
  12  -1  -7    0.34    0.67
  12  -1  -7    2.58    1.51
 -12   1   7   -1.59    1.56
 -12   1   7   -0.20    0.60
 -12  -1   7   -0.12    0.60
  12   1  -6   49.56    4.17
  12  -1  -6   53.14    4.15
  12   1  -5   -0.93    1.99
  12  -1  -3   -1.57    2.07
  12   1  -2   22.14    3.38
  12  -1  -2   15.60    5.22
  12  -1  -1    5.53    2.62
  12   1  -1    6.62    4.19
  12   1   0    9.06    2.83
  12  -1   0    7.28    2.79
  12   1   1    0.93    2.96
  12  -1   1   -1.00    1.81
  12   1   2   -0.45    1.90
  12  -2 -11    3.19    2.67
 -12   2  11    3.20    2.41
 -12  -2  11    0.66    2.41
  12   2 -10   19.30    2.21
  12  -2 -10   16.67    3.51
 -12  -2  10   27.71    3.50
 -12   2  10   20.44    2.22
 -12   2  10   24.49    5.47
  12   2  -9    2.04    2.00
  12  -2  -9    0.06    2.08
  12  -2  -9    0.34    1.94
  12   2  -9   -0.16    1.12
 -12  -2   9    2.68    1.09
 -12  -2   9    0.49    2.02
 -12   2   9    1.28    1.08
 -12   2   9   -0.57    2.05
  12   2  -8   10.87    2.80
  12   2  -8    8.22    1.43
  12  -2  -8    9.85    2.85
  12  -2  -8    7.24    1.50
 -12  -2   8   10.35    2.83
 -12   2   8   13.18    2.80
 -12   2   8   11.78    1.38
  12   2  -7    1.80    1.27
  12   2  -7   -1.25    3.09
  12  -2  -7   -0.04    0.89
  12  -2  -7    1.97    1.95
 -12  -2   7    1.48    0.76
 -12   2   7    0.81    1.92
 -12   2   7    0.56    0.77
  12   2  -6    8.89    2.44
  12  -2  -6    7.01    2.50
  12  -2  -6    1.44    1.56
  12   2  -5   27.79    3.50
  12  -2  -5   23.80    3.47
  12  -2  -4    3.03    2.30
  12   2  -2   15.78    3.14
  12   2  -1   -0.27    3.28
  12  -2  -1   -1.03    1.94
  12   2   0   35.07    3.76
  12  -2   0   24.82    5.63
  12   2   1   -0.65    2.05
  12   2   2   58.55    4.83
  12  -3 -11    0.25    1.36
 -12   3  11   -1.01    1.31
  12   3 -10   -1.14    0.94
  12  -3 -10    0.84    1.04
 -12  -3  10    2.15    1.50
 -12   3  10   -2.17    1.57
 -12   3  10    1.62    2.48
  12   3  -9    1.88    1.94
  12   3  -9    1.93    1.15
  12  -3  -9    1.96    1.24
 -12  -3   9    2.60    1.99
 -12   3   9    3.12    2.03
 -12   3   9   -1.43    1.09
 -12  -3   9    0.66    1.15
  12   3  -8    7.75    2.57
  12   3  -8    5.97    1.35
  12  -3  -8   11.77    2.69
  12  -3  -8    5.64    1.47
 -12   3   8    8.08    4.21
 -12   3   8    5.57    2.05
  12   3  -7    1.26    3.49
  12  -3  -7    2.52    1.06
  12  -3  -7    1.32    2.20
  12   3  -7    2.00    1.36
 -12  -3   7    1.77    0.90
 -12   3   7    2.97    2.15
 -12   3   7    0.89    1.44
  12   3  -6   78.67    4.62
  12  -3  -6   55.33    2.43
  12  -3  -6   74.59    4.53
 -12   3   6   65.65    2.16
  12   3  -5    3.98    2.38
  12  -3  -5    3.34    2.37
  12   3  -2   71.23    4.82
  12  -3  -2   74.92    4.66
  12   3  -1    5.20    4.34
  12  -3  -1    7.19    2.59
  12   3   0    2.32    2.34
  12   3   1    5.30    2.73
  12   3   2   -1.18    2.18
  12   4 -10   42.40    4.15
  12  -4 -10   37.46    3.16
 -12  -4  10   49.62    6.33
 -12   4  10   47.70    6.37
 -12   4  10   40.36    2.71
 -12  -4  10   40.37    2.80
  12   4  -9   -0.32    1.90
  12   4  -9    1.40    1.11
  12  -4  -9   -1.24    1.28
 -12  -4   9   -0.11    2.00
 -12   4   9    0.04    1.96
 -12   4   9    0.64    1.05
 -12  -4   9    2.82    1.14
  12   4  -8   20.49    3.15
  12   4  -8   17.38    1.73
  12  -4  -8   23.23    3.32
  12  -4  -8   18.20    1.99
 -12  -4   8   12.16    2.70
 -12   4   8   20.38    5.05
 -12   4   8   18.76    2.65
  12   4  -7    2.45    1.18
  12   4  -7    7.40    2.50
  12  -4  -7    9.34    4.05
  12  -4  -7    6.82    1.35
 -12   4   7    9.12    2.49
 -12   4   7    5.95    1.14
  12   4  -6   12.61    2.86
  12  -4  -6    9.73    1.37
  12  -4  -6   11.41    2.85
 -12   4   6   13.32    1.81
  12   4  -5    1.85    2.14
  12  -4  -3    5.41    2.41
  12   4  -2   21.41    3.44
  12  -4  -2   21.67    3.22
  12   4  -1    0.31    1.35
  12  -4  -1   -0.24    1.22
  12   4   0   19.91    3.44
  12   4   1    3.76    2.63
  12   4   2   49.27    4.57
  12   5 -10    1.59    2.01
 -12  -5  10    0.31    1.29
 -12   5  10    0.60    1.20
  12   5  -9    2.73    1.30
  12  -5  -9    2.72    1.59
  12   5  -9    4.24    2.18
 -12  -5   9    1.53    2.26
 -12  -5   9    0.94    2.35
 -12   5   9    3.76    2.24
 -12   5   9    0.91    2.09
  12   5  -8   11.31    2.73
  12   5  -8    8.28    1.51
  12  -5  -8    2.81    2.75
  12  -5  -8   10.07    1.83
 -12  -5   8    8.15    1.56
 -12   5   8   12.85    4.31
 -12   5   8   10.88    1.47
  12   5  -7   -0.03    2.13
  12  -5  -7    3.05    2.10
  12  -5  -7    2.09    1.23
  12   5  -7   -0.04    1.54
 -12   5   7    3.30    2.08
 -12   5   7    2.73    0.99
  12   5  -6   32.72    3.45
  12  -5  -6   23.14    1.84
  12  -5  -6   28.29    3.33
 -12   5   6   22.45    1.56
  12   5  -5    1.60    1.98
  12  -5  -5    0.51    3.04
  12  -5  -4   35.89    3.55
  12  -5  -3    3.47    2.30
  12   5  -2   34.81    3.80
  12  -5  -2   37.37    5.51
  12   5  -1   -0.40    1.98
  12  -5  -1   -1.31    1.82
  12   5   0    1.40    2.19
  12   5   1    9.25    3.02
  12   6  -9    3.70    2.25
  12   6  -9    3.42    1.43
  12  -6  -9    2.38    1.76
 -12  -6   9    3.80    1.52
 -12   6   9    6.03    2.34
 -12   6   9    1.13    1.38
  12   6  -8    9.59    2.50
  12   6  -8    5.12    2.20
  12  -6  -8    8.10    1.82
 -12  -6   8    5.41    1.51
 -12   6   8   11.16    4.01
 -12   6   8    4.47    1.41
  12   6  -7    1.48    3.17
  12  -6  -7    0.45    1.98
  12  -6  -7    2.30    1.29
 -12   6   7    1.85    2.03
 -12   6   7    1.77    1.63
  12   6  -6    6.35    2.42
  12  -6  -6    5.25    1.41
  12  -6  -6    2.92    3.84
  12   6  -5    4.16    2.40
  12  -6  -5    5.33    2.29
  12   6  -4    0.97    1.65
  12  -6  -4   -0.35    1.48
  12   6  -3    3.88    3.70
  12  -6  -3    2.29    3.37
  12   6  -2   10.55    2.85
  12  -6  -2   10.60    2.61
  12   6  -1    1.37    2.12
  12  -6  -1    1.65    1.94
  12   6   0   14.29    3.10
  12  -6   0   11.14    2.74
  12   7  -7    3.46    3.44
  12  -7  -7    0.86    2.16
  12  -7  -7    3.67    1.55
 -12   7   7    0.15    2.09
 -12   7   7    3.68    1.19
  12   7  -6   19.07    2.99
  12  -7  -6   20.21    2.91
  12  -7  -6   14.43    1.92
  12   7  -5    0.73    1.72
  12  -7  -5    0.23    1.64
  12   7  -4   22.80    3.24
  12  -7  -4   15.95    4.67
  12   7  -3    1.13    1.80
  12  -7  -3    0.07    1.61
  12   7  -2    9.15    2.84
  12  -7  -2    9.63    2.46
  12   7  -1    2.03    3.38
  12  -7  -1    1.37    1.83
  12  -8  -5    1.71    1.23
  12   8  -4   -0.63    3.11
  12  -8  -4   -1.36    1.75
  13   0  -7   -0.22    1.81
  13   0  -6   26.92    3.88
  13   0  -3    0.32    1.91
  13   1  -6    0.56    2.00
  13  -1  -4    1.47    2.33
  13   1  -3    0.47    1.74
  13  -1  -3   -0.85    2.77
  13   2  -6   34.55    4.13
  13   2  -3    1.89    2.46
   0   0   0    0.00    0.00
;
_shelx_hkl_checksum              39259
loop_
_space_group_symop_operation_xyz
'x, y, z'
'-x, y+1/2, -z+1/2'
'-x, -y, -z'
'x, -y-1/2, z-1/2'
loop_
_atom_site_label
_atom_site_type_symbol
_atom_site_fract_x
_atom_site_fract_y
_atom_site_fract_z
_atom_site_U_iso_or_equiv
_atom_site_adp_type
_atom_site_occupancy
_atom_site_site_symmetry_order
_atom_site_calc_flag
_atom_site_refinement_flags_posn
_atom_site_refinement_flags_adp
Zn1 Zn 0.75666(4) 0.73240(3) 0.46147(3) 0.03426(15) Uani 1 1 d . .
O1 O 0.8194(2) 0.70608(17) 0.5997(2) 0.0409(6) Uani 1 1 d . .
O2 O 0.7014(3) 0.74962(16) 0.7029(2) 0.0478(7) Uani 1 1 d . .
O3 O 0.5961(2) 0.80898(18) 0.4299(2) 0.0430(7) Uani 1 1 d . .
O4 O 0.5041(3) 0.70261(18) 0.4962(2) 0.0518(8) Uani 1 1 d . .
O5 O 0.0279(3) 0.6901(2) 0.4635(3) 0.0582(8) Uani 1 1 d . .
O6 O -0.1046(3) 0.8061(2) 0.4305(2) 0.0547(8) Uani 1 1 d . .
O7 O 0.1049(3) 1.0846(2) 0.3515(3) 0.0653(10) Uani 1 1 d . .
O8 O 0.3291(3) 1.09011(18) 0.3696(3) 0.0525(8) Uani 1 1 d . .
H8A H 0.3115 1.1395 0.3466 0.079 Uiso 1 1 calc R U
N1 N 0.7418(3) 0.33654(18) 0.7803(2) 0.0331(7) Uani 1 1 d . .
N2 N 0.7268(3) -0.10683(19) 0.9021(2) 0.0363(7) Uani 1 1 d . .
C1 C 0.6337(4) -0.0506(2) 0.9195(3) 0.0425(9) Uani 1 1 d . .
H1 H 0.5675 -0.0722 0.9485 0.051 Uiso 1 1 calc R U
C2 C 0.6312(4) 0.0365(2) 0.8967(3) 0.0407(9) Uani 1 1 d . .
H2 H 0.5636 0.0729 0.9092 0.049 Uiso 1 1 calc R U
C3 C 0.7295(3) 0.0703(2) 0.8552(3) 0.0317(7) Uani 1 1 d . .
C4 C 0.8237(4) 0.0123(2) 0.8360(3) 0.0423(9) Uani 1 1 d . .
H4 H 0.8909 0.0321 0.8070 0.051 Uiso 1 1 calc R U
C5 C 0.8184(4) -0.0744(2) 0.8595(3) 0.0436(10) Uani 1 1 d . .
H5 H 0.8823 -0.1126 0.8449 0.052 Uiso 1 1 calc R U
C6 C 0.7332(3) 0.1636(2) 0.8293(3) 0.0315(7) Uani 1 1 d . .
C7 C 0.8544(3) 0.2031(2) 0.8255(3) 0.0368(8) Uani 1 1 d . .
H7 H 0.9347 0.1704 0.8395 0.044 Uiso 1 1 calc R U
C8 C 0.8578(4) 0.2892(2) 0.8017(3) 0.0387(9) Uani 1 1 d . .
H8 H 0.9404 0.3155 0.8002 0.046 Uiso 1 1 calc R U
C9 C 0.6155(4) 0.2146(2) 0.8086(3) 0.0368(8) Uani 1 1 d . .
H9 H 0.5322 0.1900 0.8115 0.044 Uiso 1 1 calc R U
C10 C 0.6223(3) 0.3002(2) 0.7841(3) 0.0364(8) Uani 1 1 d . .
H10 H 0.5433 0.3342 0.7698 0.044 Uiso 1 1 calc R U
C11 C 0.7469(4) 0.4275(2) 0.7524(3) 0.0346(8) Uani 1 1 d . .
C12 C 0.6940(4) 0.4914(2) 0.8007(3) 0.0391(8) Uani 1 1 d . .
H12 H 0.6553 0.4766 0.8511 0.047 Uiso 1 1 calc R U
C13 C 0.6995(4) 0.5770(2) 0.7729(3) 0.0363(8) Uani 1 1 d . .
H13 H 0.6645 0.6210 0.8051 0.044 Uiso 1 1 calc R U
C14 C 0.7556(3) 0.5989(2) 0.6988(3) 0.0309(7) Uani 1 1 d . .
C15 C 0.8092(4) 0.5335(2) 0.6514(3) 0.0377(8) Uani 1 1 d . .
H15 H 0.8484 0.5484 0.6012 0.045 Uiso 1 1 calc R U
C16 C 0.8051(4) 0.4473(2) 0.6778(3) 0.0388(9) Uani 1 1 d . .
H16 H 0.8407 0.4033 0.6461 0.047 Uiso 1 1 calc R U
C17 C 0.7582(3) 0.6925(2) 0.6660(3) 0.0343(8) Uani 1 1 d . .
C18 C 0.3690(3) 0.8269(2) 0.4431(3) 0.0300(7) Uani 1 1 d . .
C19 C 0.2533(3) 0.7830(2) 0.4516(3) 0.0318(7) Uani 1 1 d . .
H19 H 0.2595 0.7236 0.4678 0.038 Uiso 1 1 calc R U
C20 C 0.1292(4) 0.8244(3) 0.4370(3) 0.0397(9) Uani 1 1 d . .
C21 C 0.1201(4) 0.9119(3) 0.4142(3) 0.0413(9) Uani 1 1 d . .
H21 H 0.0366 0.9408 0.4047 0.050 Uiso 1 1 calc R U
C22 C 0.2363(4) 0.9584(2) 0.4049(3) 0.0375(8) Uani 1 1 d . .
C23 C 0.3610(3) 0.9150(2) 0.4194(3) 0.0323(8) Uani 1 1 d . .
H23 H 0.4384 0.9452 0.4132 0.039 Uiso 1 1 calc R U
C24 C 0.4986(3) 0.7746(2) 0.4584(3) 0.0335(8) Uani 1 1 d . .
C25 C 0.0074(4) 0.7682(3) 0.4447(3) 0.0417(9) Uani 1 1 d . .
C26 C 0.2165(4) 1.0511(3) 0.3744(3) 0.0453(10) Uani 1 1 d . .
loop_
_atom_site_aniso_label
_atom_site_aniso_U_11
_atom_site_aniso_U_22
_atom_site_aniso_U_33
_atom_site_aniso_U_23
_atom_site_aniso_U_13
_atom_site_aniso_U_12
Zn1 0.0292(2) 0.0225(2) 0.0538(3) 0.00406(18) 0.01560(19) 0.00296(14)
O1 0.0330(13) 0.0367(14) 0.0557(18) 0.0073(12) 0.0161(12) -0.0016(10)
O2 0.0533(17) 0.0248(13) 0.073(2) 0.0032(13) 0.0304(15) 0.0013(11)
O3 0.0323(13) 0.0463(16) 0.0556(18) 0.0122(13) 0.0209(12) 0.0110(11)
O4 0.0507(16) 0.0322(15) 0.079(2) 0.0140(15) 0.0278(15) 0.0136(12)
O5 0.0467(17) 0.0486(19) 0.081(2) 0.0001(17) 0.0186(16) -0.0132(14)
O6 0.0343(15) 0.068(2) 0.065(2) 0.0183(16) 0.0179(14) -0.0033(13)
O7 0.0492(18) 0.0420(17) 0.107(3) 0.0130(18) 0.0235(18) 0.0193(14)
O8 0.0497(17) 0.0301(15) 0.076(2) 0.0073(15) 0.0128(15) 0.0043(12)
N1 0.0354(15) 0.0225(14) 0.0425(18) 0.0021(12) 0.0120(13) -0.0002(11)
N2 0.0367(16) 0.0230(15) 0.052(2) 0.0008(13) 0.0158(14) 0.0000(11)
C1 0.036(2) 0.0305(19) 0.066(3) 0.0051(18) 0.0223(19) 0.0016(14)
C2 0.040(2) 0.0279(19) 0.061(3) 0.0032(17) 0.0240(18) 0.0029(14)
C3 0.0297(17) 0.0243(17) 0.040(2) -0.0006(14) 0.0078(14) -0.0011(12)
C4 0.039(2) 0.034(2) 0.060(3) 0.0079(18) 0.0242(18) 0.0022(15)
C5 0.047(2) 0.0292(19) 0.062(3) 0.0052(18) 0.0267(19) 0.0071(15)
C6 0.0320(17) 0.0251(17) 0.038(2) -0.0030(14) 0.0109(14) -0.0017(13)
C7 0.0275(17) 0.0296(18) 0.052(2) 0.0047(16) 0.0081(16) 0.0008(13)
C8 0.0305(18) 0.0299(19) 0.055(2) 0.0017(16) 0.0097(16) -0.0041(13)
C9 0.0295(18) 0.0301(19) 0.052(2) 0.0022(16) 0.0118(16) -0.0038(13)
C10 0.0307(18) 0.0291(18) 0.051(2) 0.0025(16) 0.0123(16) 0.0017(13)
C11 0.0379(18) 0.0211(16) 0.045(2) 0.0038(15) 0.0114(15) -0.0004(13)
C12 0.048(2) 0.0296(19) 0.044(2) 0.0010(16) 0.0203(17) 0.0003(15)
C13 0.043(2) 0.0260(18) 0.043(2) -0.0053(15) 0.0171(16) -0.0004(14)
C14 0.0332(17) 0.0238(16) 0.037(2) 0.0027(14) 0.0104(14) -0.0003(12)
C15 0.039(2) 0.0318(19) 0.046(2) 0.0043(16) 0.0177(17) 0.0016(14)
C16 0.045(2) 0.0284(18) 0.049(2) 0.0002(16) 0.0226(18) 0.0058(14)
C17 0.0296(17) 0.0272(18) 0.045(2) 0.0045(16) 0.0084(15) -0.0004(13)
C18 0.0250(16) 0.0282(17) 0.038(2) 0.0027(14) 0.0107(14) 0.0025(12)
C19 0.0342(18) 0.0300(18) 0.0333(19) 0.0025(14) 0.0124(15) -0.0045(13)
C20 0.0301(18) 0.048(2) 0.043(2) 0.0040(18) 0.0132(16) -0.0034(15)
C21 0.0286(18) 0.053(2) 0.044(2) 0.0003(18) 0.0120(16) 0.0108(15)
C22 0.0375(19) 0.0297(19) 0.045(2) 0.0036(16) 0.0103(16) 0.0084(14)
C23 0.0290(17) 0.0269(17) 0.044(2) 0.0029(15) 0.0144(15) -0.0012(12)
C24 0.0312(18) 0.0318(19) 0.038(2) 0.0034(15) 0.0087(15) 0.0060(13)
C25 0.035(2) 0.045(2) 0.043(2) 0.0017(18) 0.0070(16) 0.0009(16)
C26 0.040(2) 0.036(2) 0.060(3) 0.0015(19) 0.0129(19) 0.0044(16)
loop_
_atom_type_symbol
_atom_type_description
_atom_type_scat_dispersion_real
_atom_type_scat_dispersion_imag
_atom_type_scat_source
C C 0.0033 0.0016 'International Tables Vol C Tables 4.2.6.8 and 6.1.1.4'
H H 0.0000 0.0000 'International Tables Vol C Tables 4.2.6.8 and 6.1.1.4'
N N 0.0061 0.0033 'International Tables Vol C Tables 4.2.6.8 and 6.1.1.4'
O O 0.0106 0.0060 'International Tables Vol C Tables 4.2.6.8 and 6.1.1.4'
Zn Zn 0.2839 1.4301 'International Tables Vol C Tables 4.2.6.8 and 6.1.1.4'
loop_
_geom_angle_atom_site_label_1
_geom_angle_atom_site_label_2
_geom_angle_atom_site_label_3
_geom_angle
_geom_angle_site_symmetry_1
_geom_angle_site_symmetry_3
O6 Zn1 O3 102.10(13) 1_655 .
O6 Zn1 O1 106.25(12) 1_655 .
O3 Zn1 O1 113.23(12) . .
O6 Zn1 N2 118.58(13) 1_655 4_565
O3 Zn1 N2 115.14(13) . 4_565
O1 Zn1 N2 101.62(12) . 4_565
C17 O1 Zn1 133.7(2) . .
C24 O3 Zn1 110.2(2) . .
C25 O6 Zn1 112.2(3) . 1_455
C26 O8 H8A 109.5 . .
C10 N1 C8 120.8(3) . .
C10 N1 C11 120.1(3) . .
C8 N1 C11 119.1(3) . .
C5 N2 C1 116.9(3) . .
C5 N2 Zn1 118.9(2) . 4_566
C1 N2 Zn1 123.1(3) . 4_566
N2 C1 C2 123.3(3) . .
N2 C1 H1 118.4 . .
C2 C1 H1 118.4 . .
C1 C2 C3 119.5(3) . .
C1 C2 H2 120.3 . .
C3 C2 H2 120.3 . .
C4 C3 C2 117.2(3) . .
C4 C3 C6 120.4(3) . .
C2 C3 C6 122.3(3) . .
C5 C4 C3 119.9(3) . .
C5 C4 H4 120.1 . .
C3 C4 H4 120.1 . .
N2 C5 C4 123.2(3) . .
N2 C5 H5 118.4 . .
C4 C5 H5 118.4 . .
C7 C6 C9 118.1(3) . .
C7 C6 C3 120.7(3) . .
C9 C6 C3 121.2(3) . .
C8 C7 C6 120.7(3) . .
C8 C7 H7 119.7 . .
C6 C7 H7 119.7 . .
N1 C8 C7 120.0(3) . .
N1 C8 H8 120.0 . .
C7 C8 H8 120.0 . .
C10 C9 C6 119.7(3) . .
C10 C9 H9 120.2 . .
C6 C9 H9 120.2 . .
N1 C10 C9 120.8(3) . .
N1 C10 H10 119.6 . .
C9 C10 H10 119.6 . .
C16 C11 C12 122.1(3) . .
C16 C11 N1 118.5(3) . .
C12 C11 N1 119.5(3) . .
C13 C12 C11 118.5(4) . .
C13 C12 H12 120.7 . .
C11 C12 H12 120.7 . .
C14 C13 C12 121.0(3) . .
C14 C13 H13 119.5 . .
C12 C13 H13 119.5 . .
C13 C14 C15 119.6(3) . .
C13 C14 C17 121.2(3) . .
C15 C14 C17 119.2(3) . .
C16 C15 C14 120.6(3) . .
C16 C15 H15 119.7 . .
C14 C15 H15 119.7 . .
C15 C16 C11 118.3(3) . .
C15 C16 H16 120.9 . .
C11 C16 H16 120.9 . .
O2 C17 O1 124.8(3) . .
O2 C17 C14 119.3(3) . .
O1 C17 C14 115.9(3) . .
C19 C18 C23 119.6(3) . .
C19 C18 C24 117.3(3) . .
C23 C18 C24 123.1(3) . .
C20 C19 C18 121.8(3) . .
C20 C19 H19 119.1 . .
C18 C19 H19 119.1 . .
C21 C20 C19 119.2(3) . .
C21 C20 C25 123.7(3) . .
C19 C20 C25 117.1(3) . .
C20 C21 C22 120.3(3) . .
C20 C21 H21 119.9 . .
C22 C21 H21 119.9 . .
C23 C22 C21 119.6(3) . .
C23 C22 C26 123.3(3) . .
C21 C22 C26 117.0(3) . .
C18 C23 C22 119.5(3) . .
C18 C23 H23 120.2 . .
C22 C23 H23 120.2 . .
O4 C24 O3 124.1(3) . .
O4 C24 C18 118.9(3) . .
O3 C24 C18 117.0(3) . .
O5 C25 O6 125.7(4) . .
O5 C25 C20 117.6(3) . .
O6 C25 C20 116.6(4) . .
O7 C26 O8 124.3(4) . .
O7 C26 C22 122.2(4) . .
O8 C26 C22 113.3(3) . .
loop_
_geom_bond_atom_site_label_1
_geom_bond_atom_site_label_2
_geom_bond_distance
_geom_bond_site_symmetry_2
Zn1 O6 1.930(3) 1_655
Zn1 O3 1.955(2) .
Zn1 O1 1.960(3) .
Zn1 N2 2.080(3) 4_565
O1 C17 1.272(4) .
O2 C17 1.230(4) .
O3 C24 1.269(4) .
O4 C24 1.215(4) .
O5 C25 1.224(5) .
O6 C25 1.239(5) .
O6 Zn1 1.930(3) 1_455
O7 C26 1.205(5) .
O8 C26 1.300(5) .
O8 H8A 0.8200 .
N1 C10 1.341(4) .
N1 C8 1.343(5) .
N1 C11 1.444(4) .
N2 C5 1.323(5) .
N2 C1 1.338(5) .
N2 Zn1 2.080(3) 4_566
C1 C2 1.363(5) .
C1 H1 0.9300 .
C2 C3 1.377(5) .
C2 H2 0.9300 .
C3 C4 1.374(5) .
C3 C6 1.469(5) .
C4 C5 1.365(5) .
C4 H4 0.9300 .
C5 H5 0.9300 .
C6 C7 1.377(5) .
C6 C9 1.387(5) .
C7 C8 1.355(5) .
C7 H7 0.9300 .
C8 H8 0.9300 .
C9 C10 1.354(5) .
C9 H9 0.9300 .
C10 H10 0.9300 .
C11 C16 1.373(5) .
C11 C12 1.376(5) .
C12 C13 1.366(5) .
C12 H12 0.9300 .
C13 C14 1.363(5) .
C13 H13 0.9300 .
C14 C15 1.387(5) .
C14 C17 1.499(5) .
C15 C16 1.367(5) .
C15 H15 0.9300 .
C16 H16 0.9300 .
C18 C19 1.378(4) .
C18 C23 1.379(5) .
C18 C24 1.500(4) .
C19 C20 1.372(5) .
C19 H19 0.9300 .
C20 C21 1.367(6) .
C20 C25 1.524(5) .
C21 C22 1.404(5) .
C21 H21 0.9300 .
C22 C23 1.390(5) .
C22 C26 1.474(5) .
C23 H23 0.9300 .
loop_
_geom_hbond_atom_site_label_D
_geom_hbond_atom_site_label_H
_geom_hbond_atom_site_label_A
_geom_hbond_distance_DH
_geom_hbond_distance_HA
_geom_hbond_distance_DA
_geom_hbond_angle_DHA
_geom_hbond_site_symmetry_A
C9 H9 O2 0.93 2.49 3.208(5) 134.4 2_646
C8 H8 O7 0.93 2.24 3.087(5) 151.9 4_676
C7 H7 O1 0.93 2.48 3.200(4) 134.6 2_746
C5 H5 O5 0.93 2.28 2.865(5) 120.8 4_666
C2 H2 O4 0.93 2.58 3.410(5) 149.2 2_646
C1 H1 O4 0.93 2.24 2.995(5) 137.6 4_566
O8 H8A O2 0.82 1.82 2.635(4) 171.8 3_676
C9 H9 O2 0.93 2.49 3.208(5) 134.4 2_646
C8 H8 O7 0.93 2.24 3.087(5) 151.9 4_676
C7 H7 O1 0.93 2.48 3.200(4) 134.6 2_746
C5 H5 O5 0.93 2.28 2.865(5) 120.8 4_666
C2 H2 O4 0.93 2.58 3.410(5) 149.2 2_646
C1 H1 O4 0.93 2.24 2.995(5) 137.6 4_566
O8 H8A O2 0.82 1.82 2.635(4) 171.8 3_676
C9 H9 O2 0.93 2.49 3.208(5) 134.4 2_646
C8 H8 O7 0.93 2.24 3.087(5) 151.9 4_676
C7 H7 O1 0.93 2.48 3.200(4) 134.6 2_746
C5 H5 O5 0.93 2.28 2.865(5) 120.8 4_666
C2 H2 O4 0.93 2.58 3.410(5) 149.2 2_646
C1 H1 O4 0.93 2.24 2.995(5) 137.6 4_566
O8 H8A O2 0.82 1.82 2.635(4) 171.8 3_676
C9 H9 O2 0.93 2.49 3.208(5) 134.4 2_646
C8 H8 O7 0.93 2.24 3.087(5) 151.9 4_676
C7 H7 O1 0.93 2.48 3.200(4) 134.6 2_746
C5 H5 O5 0.93 2.28 2.865(5) 120.8 4_666
C2 H2 O4 0.93 2.58 3.410(5) 149.2 2_646
C1 H1 O4 0.93 2.24 2.995(5) 137.6 4_566
O8 H8A O2 0.82 1.82 2.635(4) 171.8 3_676
C9 H9 O2 0.93 2.49 3.208(5) 134.4 2_646
C8 H8 O7 0.93 2.24 3.087(5) 151.9 4_676
C7 H7 O1 0.93 2.48 3.200(4) 134.6 2_746
C5 H5 O5 0.93 2.28 2.865(5) 120.8 4_666
C2 H2 O4 0.93 2.58 3.410(5) 149.2 2_646
C1 H1 O4 0.93 2.24 2.995(5) 137.6 4_566
O8 H8A O2 0.82 1.82 2.635(4) 171.8 3_676
C9 H9 O2 0.93 2.49 3.208(5) 134.4 2_646
C8 H8 O7 0.93 2.24 3.087(5) 151.9 4_676
C7 H7 O1 0.93 2.48 3.200(4) 134.6 2_746
C5 H5 O5 0.93 2.28 2.865(5) 120.8 4_666
C2 H2 O4 0.93 2.58 3.410(5) 149.2 2_646
C1 H1 O4 0.93 2.24 2.995(5) 137.6 4_566
O8 H8A O2 0.82 1.82 2.635(4) 171.8 3_676
C9 H9 O2 0.93 2.49 3.208(5) 134.4 2_646
C8 H8 O7 0.93 2.24 3.087(5) 151.9 4_676
C7 H7 O1 0.93 2.48 3.200(4) 134.6 2_746
C5 H5 O5 0.93 2.28 2.865(5) 120.8 4_666
C2 H2 O4 0.93 2.58 3.410(5) 149.2 2_646
C1 H1 O4 0.93 2.24 2.995(5) 137.6 4_566
O8 H8A O2 0.82 1.82 2.635(4) 171.8 3_676
C9 H9 O2 0.93 2.49 3.208(5) 134.4 2_646
C8 H8 O7 0.93 2.24 3.087(5) 151.9 4_676
C7 H7 O1 0.93 2.48 3.200(4) 134.6 2_746
C5 H5 O5 0.93 2.28 2.865(5) 120.8 4_666
C2 H2 O4 0.93 2.58 3.410(5) 149.2 2_646
C1 H1 O4 0.93 2.24 2.995(5) 137.6 4_566
O8 H8A O2 0.82 1.82 2.635(4) 171.8 3_676
C9 H9 O2 0.93 2.49 3.208(5) 134.4 2_646
C8 H8 O7 0.93 2.24 3.087(5) 151.9 4_676
C7 H7 O1 0.93 2.48 3.200(4) 134.6 2_746
C5 H5 O5 0.93 2.28 2.865(5) 120.8 4_666
C2 H2 O4 0.93 2.58 3.410(5) 149.2 2_646
C1 H1 O4 0.93 2.24 2.995(5) 137.6 4_566
O8 H8A O2 0.82 1.82 2.635(4) 171.8 3_676
C9 H9 O2 0.93 2.49 3.208(5) 134.4 2_646
C8 H8 O7 0.93 2.24 3.087(5) 151.9 4_676
C7 H7 O1 0.93 2.48 3.200(4) 134.6 2_746
C5 H5 O5 0.93 2.28 2.865(5) 120.8 4_666
C2 H2 O4 0.93 2.58 3.410(5) 149.2 2_646
C1 H1 O4 0.93 2.24 2.995(5) 137.6 4_566
O8 H8A O2 0.82 1.82 2.635(4) 171.8 3_676
O8 H8A O2 0.82 1.82 2.635(4) 171.8 3_676
C1 H1 O4 0.93 2.24 2.995(5) 137.6 4_566
C2 H2 O4 0.93 2.58 3.410(5) 149.2 2_646
C5 H5 O5 0.93 2.28 2.865(5) 120.8 4_666
C7 H7 O1 0.93 2.48 3.200(4) 134.6 2_746
C8 H8 O7 0.93 2.24 3.087(5) 151.9 4_676
C9 H9 O2 0.93 2.49 3.208(5) 134.4 2_646
O8 H8A O2 0.82 1.82 2.635(4) 171.8 3_676
C1 H1 O4 0.93 2.24 2.995(5) 137.6 4_566
C2 H2 O4 0.93 2.58 3.410(5) 149.2 2_646
C5 H5 O5 0.93 2.28 2.865(5) 120.8 4_666
C7 H7 O1 0.93 2.48 3.200(4) 134.6 2_746
C8 H8 O7 0.93 2.24 3.087(5) 151.9 4_676
C9 H9 O2 0.93 2.49 3.208(5) 134.4 2_646
O8 H8A O2 0.82 1.82 2.635(4) 171.8 3_676
C1 H1 O4 0.93 2.24 2.995(5) 137.6 4_566
C2 H2 O4 0.93 2.58 3.410(5) 149.2 2_646
C5 H5 O5 0.93 2.28 2.865(5) 120.8 4_666
C7 H7 O1 0.93 2.48 3.200(4) 134.6 2_746
C8 H8 O7 0.93 2.24 3.087(5) 151.9 4_676
C9 H9 O2 0.93 2.49 3.208(5) 134.4 2_646
O8 H8A O2 0.82 1.82 2.635(4) 171.8 3_676
C1 H1 O4 0.93 2.24 2.995(5) 137.6 4_566
C2 H2 O4 0.93 2.58 3.410(5) 149.2 2_646
C5 H5 O5 0.93 2.28 2.865(5) 120.8 4_666
C7 H7 O1 0.93 2.48 3.200(4) 134.6 2_746
C8 H8 O7 0.93 2.24 3.087(5) 151.9 4_676
C9 H9 O2 0.93 2.49 3.208(5) 134.4 2_646
O8 H8A O2 0.82 1.82 2.635(4) 171.8 3_676
C1 H1 O4 0.93 2.24 2.995(5) 137.6 4_566
C2 H2 O4 0.93 2.58 3.410(5) 149.2 2_646
C5 H5 O5 0.93 2.28 2.865(5) 120.8 4_666
C7 H7 O1 0.93 2.48 3.200(4) 134.6 2_746
C8 H8 O7 0.93 2.24 3.087(5) 151.9 4_676
C9 H9 O2 0.93 2.49 3.208(5) 134.4 2_646
O8 H8A O2 0.82 1.82 2.635(4) 171.8 3_676
C1 H1 O4 0.93 2.24 2.995(5) 137.6 4_566
C2 H2 O4 0.93 2.58 3.410(5) 149.2 2_646
C5 H5 O5 0.93 2.28 2.865(5) 120.8 4_666
C7 H7 O1 0.93 2.48 3.200(4) 134.6 2_746
C8 H8 O7 0.93 2.24 3.087(5) 151.9 4_676
C9 H9 O2 0.93 2.49 3.208(5) 134.4 2_646
O8 H8A O2 0.82 1.82 2.635(4) 171.8 3_676
C1 H1 O4 0.93 2.24 2.995(5) 137.6 4_566
C2 H2 O4 0.93 2.58 3.410(5) 149.2 2_646
C5 H5 O5 0.93 2.28 2.865(5) 120.8 4_666
C7 H7 O1 0.93 2.48 3.200(4) 134.6 2_746
C8 H8 O7 0.93 2.24 3.087(5) 151.9 4_676
C9 H9 O2 0.93 2.49 3.208(5) 134.4 2_646
O8 H8A O2 0.82 1.82 2.635(4) 171.8 3_676
C1 H1 O4 0.93 2.24 2.995(5) 137.6 4_566
C2 H2 O4 0.93 2.58 3.410(5) 149.2 2_646
C5 H5 O5 0.93 2.28 2.865(5) 120.8 4_666
C7 H7 O1 0.93 2.48 3.200(4) 134.6 2_746
C8 H8 O7 0.93 2.24 3.087(5) 151.9 4_676
C9 H9 O2 0.93 2.49 3.208(5) 134.4 2_646
O8 H8A O2 0.82 1.82 2.635(4) 171.8 3_676
C1 H1 O4 0.93 2.24 2.995(5) 137.6 4_566
C2 H2 O4 0.93 2.58 3.410(5) 149.2 2_646
C5 H5 O5 0.93 2.28 2.865(5) 120.8 4_666
C7 H7 O1 0.93 2.48 3.200(4) 134.6 2_746
C8 H8 O7 0.93 2.24 3.087(5) 151.9 4_676
C9 H9 O2 0.93 2.49 3.208(5) 134.4 2_646
O8 H8A O2 0.82 1.82 2.635(4) 171.8 3_676
C1 H1 O4 0.93 2.24 2.995(5) 137.6 4_566
C2 H2 O4 0.93 2.58 3.410(5) 149.2 2_646
C5 H5 O5 0.93 2.28 2.865(5) 120.8 4_666
C7 H7 O1 0.93 2.48 3.200(4) 134.6 2_746
C8 H8 O7 0.93 2.24 3.087(5) 151.9 4_676
C9 H9 O2 0.93 2.49 3.208(5) 134.4 2_646
loop_
_geom_torsion_atom_site_label_1
_geom_torsion_atom_site_label_2
_geom_torsion_atom_site_label_3
_geom_torsion_atom_site_label_4
_geom_torsion
_geom_torsion_site_symmetry_1
C5 N2 C1 C2 -0.9(6) .
Zn1 N2 C1 C2 166.8(3) 4_566
N2 C1 C2 C3 -1.1(7) .
C1 C2 C3 C4 2.0(6) .
C1 C2 C3 C6 -179.7(4) .
C2 C3 C4 C5 -1.0(6) .
C6 C3 C4 C5 -179.4(4) .
C1 N2 C5 C4 2.0(7) .
Zn1 N2 C5 C4 -166.3(4) 4_566
C3 C4 C5 N2 -1.0(7) .
C4 C3 C6 C7 -28.2(6) .
C2 C3 C6 C7 153.5(4) .
C4 C3 C6 C9 152.2(4) .
C2 C3 C6 C9 -26.1(6) .
C9 C6 C7 C8 -0.4(6) .
C3 C6 C7 C8 -180.0(4) .
C10 N1 C8 C7 1.4(6) .
C11 N1 C8 C7 -178.2(4) .
C6 C7 C8 N1 -0.8(6) .
C7 C6 C9 C10 1.0(6) .
C3 C6 C9 C10 -179.4(4) .
C8 N1 C10 C9 -0.8(6) .
C11 N1 C10 C9 178.9(4) .
C6 C9 C10 N1 -0.4(6) .
C10 N1 C11 C16 -126.1(4) .
C8 N1 C11 C16 53.6(5) .
C10 N1 C11 C12 54.0(5) .
C8 N1 C11 C12 -126.3(4) .
C16 C11 C12 C13 0.2(6) .
N1 C11 C12 C13 -179.8(3) .
C11 C12 C13 C14 0.3(6) .
C12 C13 C14 C15 -0.7(6) .
C12 C13 C14 C17 178.2(3) .
C13 C14 C15 C16 0.7(6) .
C17 C14 C15 C16 -178.2(3) .
C14 C15 C16 C11 -0.2(6) .
C12 C11 C16 C15 -0.3(6) .
N1 C11 C16 C15 179.8(3) .
Zn1 O1 C17 O2 -73.0(5) .
Zn1 O1 C17 C14 106.1(3) .
C13 C14 C17 O2 -4.4(5) .
C15 C14 C17 O2 174.4(4) .
C13 C14 C17 O1 176.4(3) .
C15 C14 C17 O1 -4.7(5) .
C23 C18 C19 C20 0.2(6) .
C24 C18 C19 C20 -178.6(3) .
C18 C19 C20 C21 -0.6(6) .
C18 C19 C20 C25 177.8(3) .
C19 C20 C21 C22 0.6(6) .
C25 C20 C21 C22 -177.6(4) .
C20 C21 C22 C23 -0.2(6) .
C20 C21 C22 C26 176.4(4) .
C19 C18 C23 C22 0.3(6) .
C24 C18 C23 C22 179.0(4) .
C21 C22 C23 C18 -0.2(6) .
C26 C22 C23 C18 -176.7(4) .
Zn1 O3 C24 O4 -2.9(5) .
Zn1 O3 C24 C18 177.7(2) .
C19 C18 C24 O4 -14.8(5) .
C23 C18 C24 O4 166.5(4) .
C19 C18 C24 O3 164.7(3) .
C23 C18 C24 O3 -14.1(6) .
Zn1 O6 C25 O5 9.4(6) 1_455
Zn1 O6 C25 C20 -171.3(3) 1_455
C21 C20 C25 O5 178.3(4) .
C19 C20 C25 O5 0.0(6) .
C21 C20 C25 O6 -1.0(6) .
C19 C20 C25 O6 -179.4(4) .
C23 C22 C26 O7 171.2(4) .
C21 C22 C26 O7 -5.3(7) .
C23 C22 C26 O8 -4.9(6) .
C21 C22 C26 O8 178.6(4) .
