#------------------------------------------------------------------------------
#$Date: 2018-01-01 00:12:59 +0200 (Mon, 01 Jan 2018) $
#$Revision: 204627 $
#$URL: file:///home/coder/svn-repositories/cod/cif/4/51/43/4514330.cif $
#------------------------------------------------------------------------------
#
# This file is available in the Crystallography Open Database (COD),
# http://www.crystallography.net/
#
# All data on this site have been placed in the public domain by the
# contributors.
#
data_4514330
loop_
_publ_author_name
'Angeli, Giasemi K.'
'Sartsidou, Christina'
'Vlachaki, Styliani'
'Spanopoulos, Ioannis'
'Tsangarakis, Constantinos'
'Kourtellaris, Andreas'
'Klontzas, Emmanuel'
'Froudakis, George E.'
'Tasiopoulos, Anastasios'
'Trikalitis, Pantelis N.'
_publ_section_title
;
 Reticular Chemistry and the Discovery of a New Family of Rare Earth (4,
 8)-Connected Metal-Organic Frameworks with csq Topology Based on
 RE4(\m3-O)2(COO)8 Clusters.
;
_journal_issue                   51
_journal_name_full               'ACS applied materials &amp; interfaces'
_journal_page_first              44560
_journal_page_last               44566
_journal_paper_doi               10.1021/acsami.7b16380
_journal_volume                  9
_journal_year                    2017
_chemical_formula_moiety         'C39 H29 Ho2 N O12'
_chemical_formula_sum            'C39 H29 Ho2 N O12'
_chemical_formula_weight         1033.49
_space_group_crystal_system      hexagonal
_space_group_IT_number           191
_space_group_name_Hall           '-P 6 2'
_space_group_name_H-M_alt        'P 6/m m m'
_symmetry_space_group_name_Hall  '-P 6 2'
_symmetry_space_group_name_H-M   'P 6/m m m'
_atom_sites_solution_hydrogens   geom
_audit_creation_method           SHELXL-2014/7
_cell_angle_alpha                90
_cell_angle_beta                 90
_cell_angle_gamma                120
_cell_formula_units_Z            6
_cell_length_a                   26.5159(7)
_cell_length_b                   26.5159(7)
_cell_length_c                   16.5671(6)
_cell_measurement_reflns_used    6839
_cell_measurement_temperature    100(2)
_cell_measurement_theta_max      64.4070
_cell_measurement_theta_min      5.7460
_cell_volume                     10087.6(5)
_computing_structure_refinement  'SHELXL-2014/7 (Sheldrick, 2014)'
_diffrn_ambient_temperature      100(2)
_diffrn_detector_area_resol_mean 10.4223
_diffrn_measured_fraction_theta_full 0.993
_diffrn_measured_fraction_theta_max 0.993
_diffrn_measurement_device_type  'SuperNova, Dual, Cu at zero, Atlas'
_diffrn_radiation_type           CuK\a
_diffrn_radiation_wavelength     1.54184
_diffrn_reflns_av_R_equivalents  0.0305
_diffrn_reflns_av_unetI/netI     0.0145
_diffrn_reflns_Laue_measured_fraction_full 0.993
_diffrn_reflns_Laue_measured_fraction_max 0.993
_diffrn_reflns_limit_h_max       29
_diffrn_reflns_limit_h_min       -32
_diffrn_reflns_limit_k_max       28
_diffrn_reflns_limit_k_min       -31
_diffrn_reflns_limit_l_max       20
_diffrn_reflns_limit_l_min       -19
_diffrn_reflns_number            24535
_diffrn_reflns_point_group_measured_fraction_full 0.993
_diffrn_reflns_point_group_measured_fraction_max 0.993
_diffrn_reflns_theta_full        67.684
_diffrn_reflns_theta_max         69.980
_diffrn_reflns_theta_min         3.289
_diffrn_source                   'micro-focus sealed X-ray tube'
_exptl_absorpt_coefficient_mu    4.565
_exptl_absorpt_correction_T_max  1.00000
_exptl_absorpt_correction_T_min  0.54444
_exptl_absorpt_correction_type   multi-scan
_exptl_absorpt_process_details
;
CrysAlisPro 1.171.38.43 (Rigaku Oxford Diffraction, 2015)
Empirical absorption correction using spherical harmonics,
 implemented in SCALE3 ABSPACK scaling algorithm.
;
_exptl_crystal_colour            colourless
_exptl_crystal_density_diffrn    1.021
_exptl_crystal_description       cube
_exptl_crystal_F_000             3000
_exptl_crystal_size_max          0.1
_exptl_crystal_size_mid          0.1
_exptl_crystal_size_min          0.07
_refine_diff_density_max         0.804
_refine_diff_density_min         -2.182
_refine_diff_density_rms         0.110
_refine_ls_extinction_method     none
_refine_ls_goodness_of_fit_ref   1.492
_refine_ls_hydrogen_treatment    constr
_refine_ls_matrix_type           full
_refine_ls_number_parameters     135
_refine_ls_number_reflns         3649
_refine_ls_number_restraints     23
_refine_ls_restrained_S_all      1.499
_refine_ls_R_factor_all          0.1307
_refine_ls_R_factor_gt           0.1161
_refine_ls_shift/su_max          0.001
_refine_ls_shift/su_mean         0.000
_refine_ls_structure_factor_coef Fsqd
_refine_ls_weighting_details
'w=1/[\s^2^(Fo^2^)+(0.2000P)^2^] where P=(Fo^2^+2Fc^2^)/3'
_refine_ls_weighting_scheme      calc
_refine_ls_wR_factor_gt          0.3540
_refine_ls_wR_factor_ref         0.3866
_reflns_Friedel_coverage         0.000
_reflns_number_gt                2440
_reflns_number_total             3649
_reflns_threshold_expression     'I > 2\s(I)'
_cod_data_source_file            am7b16380_si_003.cif
_cod_data_source_block           '_Ho_5_cu_sq'
_cod_original_cell_volume        10087.6(6)
_cod_database_code               4514330
_shelx_shelxl_version_number     2014/7
_shelx_space_group_comment
;
The symmetry employed for this shelxl refinement is uniquely defined
by the following loop, which should always be used as a source of
symmetry information in preference to the above space-group names.
They are only intended as comments.
;
_oxdiff_exptl_absorpt_empirical_full_min 0.452
_oxdiff_exptl_absorpt_empirical_full_max 1.548
_oxdiff_exptl_absorpt_empirical_details
;
Empirical correction (ABSPACK) includes:
- Absorption correction using spherical harmonics
- Frame scaling
;
_shelx_res_file
;

    _Ho_5_cu_sq.res created by SHELXL-2014/7

TITL Ho structure in P6/mmm
CELL  1.54184  26.5159  26.5159  16.5671   90.000   90.000  120.000
ZERR     6      0.0007   0.0007   0.0006    0.000    0.000    0.000
LATT   1
SYMM  - Y,   X - Y,   Z
SYMM  - X + Y, - X,   Z
SYMM  - X, - Y,   Z
SYMM    Y, - X + Y,   Z
SYMM    X - Y,   X,   Z
SYMM    Y,   X, - Z
SYMM    X - Y, - Y, - Z
SYMM  - X, - X + Y, - Z
SYMM  - Y, - X, - Z
SYMM  - X + Y,   Y, - Z
SYMM    X,   X - Y, - Z
SFAC  C    H    N    O    HO
UNIT  234 174 6 72 12
MERG   2
FMAP   2
MORE -3
OMIT    0 140
OMIT    -3   9   2
OMIT    -3   9   1
OMIT     0   4   4
OMIT    -2   4   1
OMIT    -2   5   1
OMIT    -4   8   7
OMIT    -4  10   7
OMIT    -2   5  14
OMIT    -1   5   8
OMIT    -5  11   6
OMIT    -1   7   7
OMIT    -1   7   8
OMIT    -5  11   7
OMIT    -4  12   7
OMIT    -1   5  10
OMIT    -7  17   9
OMIT    -2   5  16
OMIT     0  12  13
OMIT    -5  13  11
OMIT   -10  25   4
OMIT    -4  14  11
EQIV $1 -x+1, -y+1, z
FREE C11 O6_$1
ACTA
HTAB
PLAN   10
BOND   $H
L.S. 10 0   48
ABIN
WGHT    0.200000
FVAR       1.59941
HO1   5    0.458670    0.541330    0.500000    10.25000    0.16134    0.16134 =
         0.16514    0.00000    0.00000    0.12224
HO2   5    0.634524    0.634524    0.500000    10.25000    0.12541    0.12541 =
         0.17423    0.00000    0.00000    0.05408
O3    4    0.548062    0.548062    0.500000    10.25000    0.09173    0.09173 =
         0.16670    0.00000    0.00000    0.04960
DFIX 1.39 0.01 C1 C2
DFIX 1.49 0.01 C1 C3
C1    1    0.528138    0.710888    1.000000    10.50000    0.20386    0.11791 =
         0.14351    0.00000    0.00000    0.08465
O2    4    0.590355    0.653461    0.602839    11.00000    0.23293    0.26502 =
         0.25648   -0.11941    0.01944    0.06073
C2    1    0.528548    0.738780    0.927746    11.00000    0.19189    0.12741 =
         0.13902   -0.00644   -0.00830    0.08167
O1    4    0.495845    0.607731    0.590168    11.00000    0.32959    0.23848 =
         0.22284   -0.10631   -0.06756    0.15012
C3    1    0.526383    0.653604    1.000000    10.50000    0.34421    0.14521 =
         0.18269    0.00000    0.00000    0.14173
AFIX  33
H3A   2    0.526349    0.641515    0.945370    10.50000   -1.50000
H3B   2    0.559958    0.657535    1.027725    10.50000   -1.50000
H3C   2    0.491717    0.625007    1.026906    10.50000   -1.50000
AFIX  66
C4    1    0.533273    0.713323    0.850594    11.00000    0.21200    0.14569 =
         0.12708   -0.03034   -0.02126    0.09840
C5    1    0.483339    0.677949    0.806194    11.00000    0.24954    0.14816 =
         0.20512   -0.05089   -0.05779    0.09845
AFIX  43
H5    2    0.447115    0.669988    0.825329    11.00000   -1.20000
AFIX  65
C6    1    0.487545    0.654472    0.733192    11.00000    0.31534    0.17844 =
         0.19447   -0.04757   -0.05024    0.11554
AFIX  43
H6    2    0.454136    0.630804    0.703485    11.00000   -1.20000
AFIX  65
DFIX     1.500   0.010 C7 C10
C7    1    0.541686    0.666369    0.704591    11.00000    0.33581    0.17664 =
         0.14415   -0.06356   -0.02266    0.12639
C8    1    0.591621    0.701743    0.748991    11.00000    0.25669    0.31686 =
         0.22164   -0.11005    0.02286    0.13611
AFIX  43
H8    2    0.627845    0.709703    0.729855    11.00000   -1.20000
AFIX  65
C9    1    0.587415    0.725221    0.821993    11.00000    0.21034    0.24690 =
         0.15732   -0.08688   -0.02019    0.09453
AFIX  43
H9    2    0.620825    0.748888    0.851699    11.00000   -1.20000
AFIX   0
C10   1    0.543252    0.638609    0.626426    11.00000    0.22719    0.18634 =
         0.19992   -0.03537   -0.01100    0.09074
DFIX 1.33 0.01 N1 C12
N1    3    0.500000    0.500000    0.770033    10.25000    0.19749    0.19749 =
         0.10315    0.00000    0.00000    0.13229
C11   1    0.500000    0.500000    0.693419    10.25000    0.32367    0.32367 =
         0.09493    0.00000    0.00000    0.22122
AFIX  43
H11   2    0.518233    0.481767    0.668997    10.25000   -1.20000
AFIX   0
DFIX  1.200 0.010 O6 C11
ISOR 0.01 O6 C10 C12
O6    4    0.479479    0.520521    0.648293    10.25000    0.19317    0.19317 =
         0.14764    0.02239   -0.02239    0.10111
C12   1    0.542967    0.542967    0.811193    10.50000    0.36416    0.36416 =
         0.32288   -0.02258   -0.02258    0.16765
AFIX  33
H12A  2    0.535793    0.535793    0.867990    10.50000   -1.50000
H12B  2    0.579155    0.545021    0.797674    10.50000   -1.50000
H12C  2    0.545021    0.579155    0.797674    10.50000   -1.50000
AFIX   0
O5    4    0.732941    0.690932    0.500000    10.25000    0.09936    0.26989 =
         0.37232    0.00000    0.00000    0.05217
O4    4    0.437034    0.619986    0.500000    10.25000    0.15077    0.20019 =
         0.39033    0.00000    0.00000    0.13881
HKLF    4

REM  Ho structure in P6/mmm
REM R1 =  0.1161 for    2440 Fo > 4sig(Fo)  and  0.1307 for all    3649 data
REM    135 parameters refined using     23 restraints

END

WGHT      0.2000      0.0000

REM Instructions for potential hydrogen bonds
HTAB C11 O1_$1
EQIV $2 y, x, z
HTAB C11 O1_$2
HTAB C11 O6_$1

REM Highest difference peak  0.804,  deepest hole -2.182,  1-sigma level  0.110
Q1    1   0.6641  0.6641  0.5000  10.25000  0.05    0.80
Q2    1   0.7101  0.7101  0.5568  10.50000  0.05    0.61
Q3    1   0.5565  0.6375  0.5528  11.00000  0.05    0.60
Q4    1   0.4404  0.6635  0.5000  10.50000  0.05    0.58
Q5    1   0.4436  0.5564  0.5000  10.25000  0.05    0.54
Q6    1   0.3878  0.6122  0.5000  10.25000  0.05    0.49
Q7    1   0.6399  0.6995  0.5839  11.00000  0.05    0.45
Q8    1   0.4732  0.5268  0.8180  10.50000  0.05    0.44
Q9    1   0.7278  0.6356  0.5000  10.50000  0.05    0.36
Q10   1   0.5220  0.6682  0.7025  11.00000  0.05    0.34
;
_shelx_res_checksum              63195
_shelx_hkl_file
;
   0   0   2 967389. 7830.80   1
   0   0  -2 999999. 7829.29   1
   0   0   3 806349. 6637.41   1
   0   0   4 880544. 7374.20   1
   0   0   5 22417.6 576.211   1
   0   0   6 373672. 3800.59   1
   0   0   7 79007.7 932.836   5
   0   0   8 186934. 1865.82   5
   0   0   9 279801. 2685.12   5
   0   0  10 119636. 1473.65   5
   0   0  11 19098.4 525.741   5
   0   0  12 36722.6 802.901   5
   0   0  13 1926.99 202.026   5
   0   0  14 4809.76 92.3866   6
   0   0  14 9165.48 443.435   5
   0   0  15 259.762 36.4352   6
   0   0  15 880.445 155.561   5
   0   0  16 147.106 34.7616   6
   0   0  17 84.7710 25.9914   6
   0   0  18 6.57893 19.4267   6
   0   0  19-24.9062 14.9057   6
   1   0   1 64499.1 647.134   1
   0   1  -2 20667.5 346.255   1
   1   0   2 19396.9 353.333   1
   0  -1   2 20357.4 350.852   1
   1  -1   2 19863.3 361.454   1
  -1   0   2 19592.8 330.750   1
  -1   0   3 37055.0 578.853   1
   0   1   3 35747.3 599.452   1
   1   0   3 35734.3 606.100   1
  -1   1   3 37395.4 592.635   1
   0  -1   3 37076.9 586.563   1
   1  -1   3 37430.9 601.321   1
   0   1  -3 36397.2 570.399   1
  -1   0   4 25274.9 534.222   1
   0   1   4 25281.0 551.338   1
  -1   1   4 24864.1 535.176   1
   1   0   4 25647.4 560.659   1
   0  -1   4 26264.3 542.726   1
   1  -1   4 25980.2 554.336   1
   0   1  -4 25791.4 526.612   1
  -1   1   5 2317.81 104.679   5
   0   1   5 2444.00 192.684   1
  -1   0   5 2353.64 178.680   1
   0  -1   5 2373.17 180.695   1
   1   0   5 2594.90 195.615   1
   1  -1   5 2433.00 189.448   1
  -1   0   5 2295.58 106.566   5
  -1   1   5 2372.27 184.467   1
  -1   1   6 17625.4 567.459   1
   0   1   6 18515.0 589.199   1
  -1   1   6 16336.4 321.640   5
   1   0   6 17892.1 573.419   1
  -1   0   6 17015.7 546.913   1
   0  -1   6 17535.2 564.534   1
   1  -1   6 18185.5 575.644   1
  -1   0   6 15890.7 322.959   5
   0  -1   7 5263.69 195.760   5
   0   1   7 5332.57 190.934   5
  -1   1   7 5265.61 190.725   5
  -1   0   7 5410.37 197.769   5
   0   1   8 8740.13 269.247   5
  -1   1   8 8501.17 268.705   5
   0  -1   8 8314.98 272.999   5
  -1   0   8 8514.26 273.046   5
   0   1   9 15396.7 394.871   5
   1   0   9 15876.2 406.595   5
  -1   0   9 14932.0 401.507   5
   0  -1   9 15410.2 408.392   5
  -1   1   9 16124.8 409.153   5
   1  -1   9 15798.9 411.959   5
  -1   1  10 6805.54 285.841   5
   1  -1  10 6853.12 289.286   5
   0   1  10 6670.11 279.506   5
   0  -1  10 6726.76 288.243   5
   1   0  10 6874.06 285.473   5
  -1   0  10 6670.79 285.923   5
   0   1  11 1001.71 126.583   5
   0  -1  11 1076.47 140.040   5
   1   0  11 1038.11 128.718   5
  -1   1  11 977.961 129.290   5
   1  -1  11 1228.01 144.902   5
  -1   0  11 1003.08 136.150   5
  -1   0  12 1432.46 164.953   5
   0   1  12 1770.69 178.965   5
   1   0  12 1741.17 188.492   5
   0  -1  12 1694.57 183.162   5
  -1   1  12 1688.51 177.843   5
   1  -1  12 1552.11 181.775   5
  -1   0  13 133.898 97.4069   5
   1  -1  13 34.6156 78.9613   5
   0   1  13 119.374 72.5444   5
   1   0  13 81.6243 73.7005   5
  -1   1  13 139.927 80.1551   5
   0  -1  13 108.813 86.8596   5
   0   1  14 167.998 33.6527   6
   0  -1  14 532.614 133.531   5
  -1   0  14 558.745 40.3924   6
  -1   0  14 607.990 150.803   5
   1   0  14 521.664 130.460   5
   1  -1  14 479.846 37.0868   6
   1  -1  14 592.629 135.464   5
   0  -1  14 468.097 38.6298   6
   0   1  14 504.971 122.331   5
  -1   1  14 419.775 119.415   5
  -1   1  14 244.371 32.5177   6
   0  -1  15 3.20077 90.1071   5
   1   0  15 83.9592 90.3804   5
   1  -1  15-9.65095 79.0889   5
  -1   0  15 23.2696 28.4922   6
   1   0  15 13.4106 25.9418   6
  -1   0  15 68.1335 84.4052   5
  -1   1  15 13.0877 26.4101   6
   0   1  15-6.99160 26.1156   6
   0  -1  15-34.7244 29.7577   6
   1  -1  15-7.10666 27.6417   6
  -1   1  15-92.3551 98.0124   5
   1   0  16-47.6283 27.8835   6
  -1   0  16 17.3598 28.5575   6
   0  -1  16 17.7571 29.2873   6
  -1   1  16-1.92710 26.3088   6
   1  -1  16-0.96626 27.7011   6
   0   1  16 20.6296 26.3192   6
   1  -1  17-28.1211 23.5383   6
   1   0  17-25.4648 22.6422   6
   0   1  17 16.4694 21.2682   6
   0  -1  17 1.41000 24.8626   6
  -1   0  17-11.3958 24.5871   6
  -1   1  17-36.9978 23.2005   6
   1  -1  18-8.12444 18.6244   6
   0  -1  18 12.5005 19.7206   6
  -1   1  18-18.8193 18.5369   6
   1   0  18-5.38604 17.3252   6
   0   1  18 36.8673 18.0766   6
  -1   0  18 16.3909 19.8353   6
   1   0  19-10.9692 13.6303   6
  -1   1  19-5.93475 14.4121   6
   0   1  19-16.6064 13.7265   6
  -1   0  19-30.2507 16.3398   6
   1  -1  19-7.76965 13.6931   6
   0  -1  19-4.21166 15.1218   6
   2  -1   0 87336.6 771.401   2
   1  -2   1 153357. 1371.66   2
  -2   1  -1 146150. 1350.47   1
   1   1  -2 49278.3 594.423   1
  -2   1  -2 50120.1 659.629   1
  -1  -1   2 48893.5 599.121   1
   2  -1   2 50007.5 657.791   1
  -2   1   3 38579.9 595.380   1
  -1  -1   3 38398.0 595.818   1
   1   1   3 38502.7 637.784   1
   1   1  -3 39122.3 581.757   1
   2  -1   3 38869.2 628.725   1
   1   1   4 27942.2 590.516   1
  -1  -1   4 28797.3 569.255   1
   2  -1   4 28921.2 601.454   1
   1   1  -4 27635.3 536.278   1
  -2   1   4 27933.2 562.591   1
  -1   2  -5 20608.3 536.331   1
  -1   2   5 19891.8 553.035   1
  -2   1   5 19841.3 340.195   5
   1  -2   5 20495.9 547.450   1
  -1  -1   5 20645.8 542.162   1
  -2   1   5 20643.8 539.967   1
   1   1   5 20943.3 569.045   1
   2  -1   5 20790.4 561.776   1
  -1   2   5 19555.2 323.389   5
  -1   2   6 18668.8 588.085   1
   1   1   6 19866.9 616.631   1
  -2   1   6 18407.2 351.274   5
  -1  -1   6 17431.3 350.959   5
  -1   2   6 17248.7 329.787   5
   2  -1   6 19690.3 607.667   1
  -2   1   6 19537.8 588.201   1
  -1  -1   6 19758.6 589.556   1
  -1   2  -6 18390.4 555.107   1
  -1  -1   7 20548.9 412.634   5
  -2   1   7 21657.2 417.214   5
  -1   2   7 21030.8 395.803   5
   1   1   8 23865.5 462.714   5
  -2   1   8 23228.2 473.653   5
  -1   2   8 23162.6 455.229   5
  -1  -1   8 23702.3 475.588   5
   1   1   9 13258.6 364.253   5
  -1   2   9 12755.1 357.376   5
  -2   1   9 12921.1 372.207   5
  -1  -1   9 13087.8 375.459   5
   1  -2   9 13344.7 383.476   5
  -1   2  10 6772.00 280.978   5
  -1  -1  10 6867.76 296.387   5
   1  -2  10 6742.59 295.622   5
   2  -1  10 6889.02 292.894   5
   1   1  10 6685.76 281.777   5
  -2   1  10 6562.51 286.720   5
   1  -2  11 4503.01 267.894   5
  -2   1  11 4253.46 252.141   5
   2  -1  11 4549.95 259.322   5
  -1   2  11 4547.87 247.969   5
   1   1  11 4573.37 250.706   5
  -1  -1  11 4732.11 267.135   5
   1  -2  12 1869.12 193.654   5
   2  -1  12 2094.48 200.609   5
  -1  -1  12 1950.34 194.388   5
  -2   1  12 2039.54 187.458   5
   1   1  12 2254.60 198.819   5
  -1   2  12 1953.45 181.708   5
  -2   1  13 766.683 142.007   5
   1  -2  13 748.544 152.673   5
  -1   2  13 660.837 126.471   5
  -1  -1  13 628.161 135.663   5
   1   1  13 835.182 142.865   5
   2  -1  13 598.320 132.016   5
   2  -1  14 271.780 110.199   5
  -1   2  14 272.533 31.9302   6
   2  -1  14-15.1646 29.7454   6
  -1  -1  14 75.3569 29.2227   6
  -1   2  14 217.376 105.712   5
   1   1  14-9.48026 27.7115   6
   1  -2  14 319.653 115.899   5
  -1  -1  14 340.745 118.048   5
   1   1  14 329.527 110.394   5
   1  -2  14 42.8938 26.2637   6
  -2   1  14 155.065 31.9318   6
  -2   1  14 161.562 89.3620   5
  -1  -1  15 425.120 136.502   5
  -1   2  15 184.581 30.1421   6
  -2   1  15 304.687 35.8656   6
  -2   1  15 360.901 125.199   5
   2  -1  15 333.124 113.158   5
   1  -2  15 405.240 125.384   5
   1  -2  15 479.074 47.9232   6
   2  -1  15 32.4914 29.2770   6
   1   1  16-16.8043 25.4948   6
   2  -1  16-75.3888 28.5165   6
   1  -2  16-30.2657 31.1846   6
  -1   2  16 12.9366 24.9303   6
  -2   1  16 35.5846 28.6205   6
  -1  -1  16 17.9877 30.6554   6
   1  -2  17-12.7892 26.5528   6
  -2   1  17-4.84164 24.3644   6
   2  -1  17-26.5525 22.6472   6
  -1  -1  17 7.63859 26.4135   6
   1   1  17-17.6189 20.4349   6
  -1   2  17-16.5391 21.5069   6
   1   1  18 13.7078 15.9436   6
   1  -2  18-7.99333 20.1663   6
  -2   1  18-5.15505 20.1735   6
  -1   2  18-20.1817 18.5162   6
  -1  -1  18 48.9260 22.2544   6
   2  -1  18-23.2645 17.8990   6
  -1   2  19 4.33808 13.8962   6
  -1  -1  19 12.5367 17.1375   6
  -2   1  19 21.1562 15.9864   6
   1  -2  19 5.45902 14.8150   6
  -1  -1  20 1.12930 10.8356   6
  -2   2   0 246980. 2102.64   2
   2  -2   0 248608. 2094.38   2
   0   2  -1 477736. 3841.86   2
   2  -2   1 455622. 3856.43   2
   2   0   1 480908. 3824.33   1
   0  -2   1 488885. 3852.77   2
  -2   0  -1 461147. 3815.50   1
  -2   0   1 476385. 3712.12   1
  -2   0   2 83793.9 871.029   1
   2   0   2 85402.2 953.088   1
   2   0   3 113657. 1302.40   1
  -2   0   3 113463. 1226.81   1
   0   2  -3 116688. 1266.69   1
   2  -2   4 65033.5 963.526   1
  -2   0   4 63446.4 908.992   1
   0   2   4 62881.4 965.990   1
   2   0   4 63166.5 965.313   1
   0   2  -4 64746.0 921.637   1
   2   0   5 64256.8 1067.86   1
  -2   2   5 61903.8 1035.32   1
  -2   2   5 61536.6 708.679   5
   0   2   5 62555.1 1061.67   1
   0   2  -5 63266.3 1000.39   1
  -2   0   5 62787.6 1001.19   1
  -2   0   5 61700.2 728.967   5
   2  -2   5 64343.9 1058.28   1
  -2   2  -5 60988.4 1029.51   1
  -2   2   6 65734.4 793.696   5
   0   2   6 64864.5 768.085   5
  -2   2  -6 66425.8 1162.17   1
  -2   2   6 71293.7 1221.24   1
   2   0   6 71816.7 1246.39   1
  -2   0   6 66657.6 810.894   5
   0   2   6 73836.4 1262.04   1
   2  -2   6 70429.2 1217.27   1
  -2   0   6 70979.7 1184.79   1
  -2   0   7 82440.3 985.979   5
   0  -2   7 82733.2 984.193   5
   0   2   7 80718.2 936.031   5
  -2   2   7 82593.5 967.333   5
   0  -2   8 65875.1 868.861   5
  -2   0   8 64559.1 873.896   5
   0   2   8 64818.0 825.642   5
  -2   2   8 66300.0 858.634   5
   0  -2   9 28257.7 572.335   5
  -2   2   9 28645.5 564.290   5
  -2   0   9 28659.0 578.677   5
   0   2   9 28948.6 551.144   5
  -2   0  10 20954.6 526.327   5
   0  -2  10 21264.4 527.472   5
   2   0  10 21787.4 520.682   5
  -2   2  10 20862.0 511.093   5
   0   2  10 21559.3 508.130   5
   2  -2  10 21700.5 540.752   5
   2  -2  11 14878.1 479.064   5
  -2   0  11 14148.7 458.146   5
   0   2  11 15229.8 453.323   5
   0  -2  11 14765.9 472.471   5
  -2   2  11 14535.4 450.828   5
   2   0  11 15524.0 469.973   5
   2   0  12 3737.48 252.939   5
   0  -2  12 3214.76 250.565   5
   2  -2  12 3631.14 258.302   5
  -2   0  12 3095.14 233.217   5
   0   2  12 3441.65 232.217   5
  -2   2  12 3278.55 230.837   5
   2  -2  13 2509.86 233.041   5
   0   2  13 2357.52 209.193   5
   2   0  13 2621.97 229.074   5
  -2   2  13 2215.50 211.465   5
  -2   0  13 2308.95 216.551   5
   0  -2  13 2503.53 238.714   5
   2  -2  14 529.289 35.9610   6
   0  -2  14 895.831 45.4117   6
   0  -2  14 1100.34 168.026   5
  -2   2  14 792.843 38.0770   6
   2  -2  14 1020.70 167.091   5
  -2   0  14 1057.58 165.839   5
  -2   0  14 728.575 40.9801   6
  -2   2  14 1143.19 159.960   5
   2   0  14 1186.80 165.187   5
  -2   2  15 450.747 39.0571   6
  -2   0  15 1090.30 171.700   5
   2  -2  15 399.350 42.9970   6
  -2   0  15 828.870 50.2116   6
   0  -2  15 1019.02 169.166   5
   2  -2  15 1478.47 200.978   5
   0  -2  15 1318.05 59.7192   6
   0   2  16-14.7945 22.6362   6
   2   0  16-53.7987 26.5552   6
   2  -2  16 45.7359 30.5137   6
  -2   2  16-0.64766 25.0103   6
   2   0  17-57.7979 22.4874   6
   0  -2  17 95.1346 31.2157   6
  -2   0  17 57.6095 28.9069   6
   0   2  17-50.3177 21.3442   6
  -2   2  17 5.11160 23.7592   6
   2  -2  17-30.9223 25.2817   6
   0  -2  18-1.54168 23.5185   6
   0   2  18-30.5629 17.6235   6
   2  -2  18-35.4002 20.3745   6
  -2   2  18-28.4118 20.1074   6
  -2   0  18-13.3005 22.1123   6
   2  -2  19-13.3894 13.8149   6
   0  -2  19 14.1870 17.2677   6
  -2   2  19-37.7212 15.8256   6
  -2   0  19-40.1732 18.3339   6
   0  -2  20 3.09292 10.7293   6
   3  -2   0 5518.07 142.315   2
   3  -1   0 5358.67 111.204   2
  -3   2   0 5607.75 147.207   2
  -1  -2   1 39885.3 480.966   2
  -3   1  -1 41686.4 512.938   1
  -1   3  -1 44718.7 565.675   2
   1  -3   1 43643.3 559.397   2
   1   2  -1 39295.7 472.703   2
   2  -3   1 44038.9 571.062   2
  -2  -1   1 38886.5 412.366   2
   2   1  -2 9927.33 205.744   1
  -3   2  -2 10003.0 271.766   1
  -3   1  -2 9789.28 258.955   1
   1   2  -2 9797.95 227.723   1
   3  -1   2 9966.34 260.454   1
   2   1   2 10161.9 259.797   1
   1  -3   2 10695.7 272.348   2
   2   1   3 85.7101 51.4786   1
  -1   3  -3 93.1076 47.3968   1
  -2  -1   3 100.861 42.2966   1
   3  -1   3 225.414 61.1062   1
  -3   1   3 96.2585 44.6285   1
   1   2  -3 235.532 52.1881   1
   2   1  -3 103.411 38.8987   1
   2   1   4 6126.57 271.599   1
  -2  -1   4 6045.01 243.652   1
  -3   1   4 5983.21 241.562   1
   3  -1   4 5974.44 266.282   1
   3  -2   4 6010.79 266.746   1
  -3   2   4 6401.97 166.252   5
  -1   3  -4 6611.81 275.013   1
   1   2   4 6335.87 278.369   1
   1   2  -4 5357.66 231.939   1
   3  -2   5 7785.35 342.171   1
   2   1   5 7855.60 349.157   1
  -2   3   5 7512.93 188.522   5
  -2  -1   5 7204.53 206.133   5
  -3   1   5 7786.92 319.698   1
  -3   1   5 7951.90 211.910   5
   1   2  -5 7139.45 297.769   1
   1   2   5 7762.02 347.726   1
  -1   3   5 7206.64 178.548   5
  -2   3  -5 7763.22 338.992   1
  -1   3  -5 7753.50 329.049   1
  -3   2  -5 7322.04 327.196   1
  -1  -2   5 7344.19 202.237   5
  -2  -1   5 7396.43 310.038   1
  -3   2   5 7311.24 199.658   5
   3  -1   5 7612.94 342.198   1
  -3   2   5 7435.36 320.480   1
  -2   3   6 5766.01 330.171   1
   3  -2   6 5731.11 323.339   1
  -3   2   6 5397.52 186.544   5
  -1  -2   6 5180.16 185.131   5
  -3   2  -6 5055.74 305.872   1
  -2  -1   6 5577.19 303.131   1
  -3   1   6 5323.01 189.158   5
  -2  -1   6 5178.81 189.836   5
  -2   3   6 5074.40 171.293   5
  -3   2   6 5662.65 315.259   1
  -1  -2   6 5338.37 165.249   3
  -1   3   6 5843.25 333.974   1
  -3   1   6 5636.75 310.460   1
  -1   3   6 5278.83 168.472   5
   1   2   6 5436.59 322.684   1
   3  -1   6 6302.52 349.627   1
   2   1   6 5534.99 326.312   1
  -1   3  -6 5638.03 310.019   1
  -2   3  -6 5668.35 316.188   1
   1  -3  -6 5844.48 175.306   4
  -1  -2   7 11460.9 301.870   5
   1  -3   7 11964.9 302.079   3
  -2  -1   7 12057.1 498.448   1
  -2  -1   7 11530.3 305.009   5
  -2   3   7 11699.2 289.839   5
  -3   1   7 11536.2 307.252   5
  -1   3   7 11304.5 278.610   5
  -3   1   7 12687.2 516.219   1
  -1  -2   7 11653.2 274.154   3
  -3   2   7 11702.5 303.656   5
  -2   3   8 7251.14 247.118   5
  -3   2   8 6996.41 254.213   5
  -2  -1   8 7224.69 262.836   5
  -3   1   8 7520.53 267.347   5
  -1  -2   8 7130.58 261.912   5
   1  -3   8 7643.43 256.969   3
   1   2   8 7079.38 239.067   5
  -1   3   8 7123.59 238.425   5
   2   1   9 20.8307 58.1852   5
  -3   1   9 45.5006 74.9442   5
  -3   2   9 94.1526 74.4023   5
  -2   3   9 49.8516 64.1183   5
  -1  -2   9 100.478 78.0917   5
   1  -3   9 94.8665 81.4009   5
  -2  -1   9 55.1771 77.8981   5
   1  -3   9-16.6538 60.4457   3
  -1   3   9 55.0232 58.2793   5
   1   2   9 43.8162 57.9996   5
   1   2  10 1071.76 121.031   5
   2  -3  10 958.471 134.377   5
   1  -3  10 1099.76 140.714   5
  -2   3  10 1175.93 124.594   5
  -1  -2  10 1104.83 144.452   5
  -3   2  10 1000.73 126.433   5
  -3   1  10 1187.44 141.715   5
   2  -3  10 1063.59 122.449   3
  -2  -1  10 1086.55 139.781   5
   2   1  10 1144.58 126.177   5
  -1   3  10 1168.95 128.701   5
  -1  -2  11 1832.15 179.762   5
   3  -1  11 1843.18 175.134   5
  -1   3  11 1988.83 171.749   5
   2  -3  11 2004.70 196.069   5
   3  -2  11 2136.29 196.257   5
  -3   1  11 1999.64 177.099   5
   1  -3  11 1810.10 180.535   5
  -3   2  11 1796.48 167.096   5
   1   2  11 2086.94 176.344   5
  -2  -1  11 1772.75 176.500   5
   2   1  11 2083.95 175.820   5
  -2   3  11 1940.59 166.449   5
   1   2  12 53.6489 68.7766   5
   2  -3  12-42.0259 88.5162   5
   3  -1  12-11.2859 80.8194   5
   3  -2  12 14.4495 84.6180   5
   1  -3  12 36.2042 88.8987   5
   2   1  12 44.6925 72.7228   5
  -3   1  12 99.1738 90.8963   5
  -1   3  12-43.8563 77.4880   5
  -2   3  12-11.2138 67.7211   5
  -1  -2  12-10.0888 82.2385   5
  -3   2  12 16.3616 69.7035   5
  -2  -1  12-43.0684 82.0745   5
  -2   3  13 896.354 135.513   5
  -1  -2  13 667.561 145.966   5
   2   1  13 887.328 145.480   5
  -3   2  13 523.644 120.814   5
  -1   3  13 684.521 125.904   5
   3  -1  13 666.343 136.382   5
   1  -3  13 764.786 152.600   5
  -2  -1  13 590.045 140.217   5
   2  -3  13 520.650 147.246   5
   3  -2  13 526.553 132.795   5
  -3   1  13 592.698 129.447   5
   1   2  13 772.672 131.034   5
  -3   2  14 3.71696 25.5951   6
   1  -3  14 119.558 112.348   5
  -1   3  14-19.0226 23.5450   6
  -3   1  14-53.5462 83.7075   5
  -3   1  14 44.0304 29.6933   6
   2  -3  14 3.78487 23.1671   6
  -2  -1  14-5.94753 30.3757   6
   3  -1  14 9.39656 82.4490   5
   3  -2  14 15.1545 23.8916   6
  -2   3  14 25.9709 24.6495   6
  -1  -2  14-22.7990 30.9357   6
   3  -1  14 11.0854 23.4729   6
  -3   2  14 10.1467 74.2465   5
   3  -2  14-5.34024 100.704   5
   1  -3  14 16.5799 26.3365   6
  -1  -2  14 88.0729 100.047   5
  -2  -1  14 34.3301 91.0312   5
   1   2  14-40.9042 25.0518   6
   2   1  14 25.1996 24.0459   6
   2  -3  14-40.7675 101.155   5
  -3   2  15 180.515 34.1543   6
  -2  -1  15 81.5830 93.9302   5
   1  -3  15 8.51591 107.774   5
  -1  -2  15 204.846 123.580   5
  -1   3  15 22.8322 26.2694   6
   3  -1  15 155.031 98.3736   5
   3  -2  15 183.439 104.937   5
   2  -3  15 180.303 112.396   5
  -1  -2  15 14.0596 34.6794   6
  -3   1  15-71.0981 97.4302   5
   3  -1  15 133.319 33.0992   6
   2  -3  15 176.738 34.2997   6
  -2  -1  15 21.4490 35.7710   6
   3  -2  15 4.93899 29.6403   6
   1  -3  15-22.5198 33.0082   6
  -2   3  15 42.8659 27.0645   6
   1   2  15 21.2811 26.0806   6
  -3   1  15 138.421 33.7021   6
  -3   2  16-18.4338 26.8548   6
   3  -2  16 58.3857 29.0083   6
  -2   3  16-8.03280 25.0144   6
   1  -3  16-2.14647 31.5088   6
   2  -3  16 13.0144 29.3562   6
  -1   3  16-20.6931 22.8484   6
  -2  -1  16-1.96380 32.3309   6
  -3   1  16 79.9179 30.6639   6
   1   2  16-5.94374 21.8864   6
   3  -1  16 22.2288 24.4136   6
  -1  -2  16-11.3171 33.5324   6
  -2  -1  17 21.7775 28.1199   6
  -3   2  17-31.1365 24.0668   6
  -1   3  17 26.3523 19.8732   6
  -3   1  17 66.2065 27.2881   6
  -2   3  17-18.5712 22.1658   6
   3  -1  17-7.31824 20.8951   6
   3  -2  17 63.6942 24.0715   6
  -1  -2  17-46.7856 30.0037   6
   2  -3  17-22.1242 26.7471   6
   1  -3  17-29.3957 29.2177   6
  -2   3  18-61.1032 19.6370   6
  -3   1  18 31.3550 22.0595   6
  -3   2  18-31.0647 21.3327   6
   3  -2  18 56.4686 19.1578   6
   2  -3  18 3.59871 20.4339   6
  -1   3  18-22.2169 17.1472   6
  -2  -1  18 7.37020 22.7772   6
   1  -3  18-18.8147 22.8850   6
  -1  -2  18-0.12739 23.6528   6
  -2  -1  19-16.1805 17.5384   6
   1  -3  19-18.4895 15.4983   6
   2  -3  19 0.91653 14.3023   6
  -3   1  19-0.21415 17.3530   6
  -1  -2  19-3.65363 16.5558   6
  -3   2  19-14.1650 16.1028   6
  -1  -2  20-10.1745 10.7741   6
  -2  -1  20 4.08184 11.3907   6
  -3   3   0 1131.99 79.6232   2
   3   0   1 107934. 1038.83   1
   3  -3   1 106473. 1117.27   2
   0  -3   1 107068. 1113.75   2
   0   3  -1 110563. 1103.60   2
   3   0   2 82228.4 942.039   1
  -3   0   2 82440.6 817.140   1
  -3   0   3 6696.17 210.217   1
   3   0   3 6338.44 243.499   1
   0   3  -3 6047.44 232.492   1
   0   3  -4 4299.83 217.238   1
   3   0   4 4804.90 240.687   1
  -3   0   4 4360.30 202.938   1
  -3   3   4 4336.76 131.332   5
  -3   3   5 3631.58 135.315   5
  -3   3  -5 3567.50 238.880   1
   0   3   5 3664.14 244.113   1
   0   3  -5 3438.36 216.451   1
   0  -3   5 3610.25 132.108   3
  -3   0   5 3416.97 209.752   1
  -3   0   5 3604.57 145.809   5
   3   0   5 3562.54 236.861   1
   0   3   6 2132.11 208.539   1
  -3   3   6 2015.82 112.018   5
   0  -3  -6 1955.58 102.553   4
  -3   0   6 2074.18 185.342   1
  -3   0   6 2057.43 123.656   5
   3  -3  -6 2247.49 111.379   4
  -3   3   6 2391.71 213.745   1
   0   3   6 1998.15 101.657   5
   0   3  -6 2244.92 195.614   1
   3   0   6 2441.45 218.384   1
  -3   0   7 10414.1 294.332   5
  -3   3   7 10091.7 272.565   5
   0  -3   7 10165.3 289.371   5
  -3   0   7 11095.0 478.970   1
   0   3   7 10164.7 255.667   5
  -3   3   8 16727.9 385.479   5
  -3   0   8 17796.0 417.818   5
   0  -3   8 17577.6 408.971   5
   0   3   8 17370.2 372.985   5
   0   3   9 2824.38 165.645   5
  -3   0   9 2965.99 186.981   5
   0  -3   9 2693.81 187.200   5
  -3   3   9 2780.89 169.282   5
   3   0  10 2760.88 194.110   5
   0   3  10 2691.23 175.414   5
  -3   0  10 2652.36 196.117   5
  -3   3  10 2585.77 176.357   5
   0  -3  10 2558.62 197.587   5
  -3   0  11 2313.44 195.032   5
   0  -3  11 2369.09 209.962   5
   3  -3  11 2318.31 205.745   5
   3   0  11 2324.68 195.408   5
  -3   3  11 2396.64 186.839   5
   0   3  11 2461.98 187.013   5
   3   0  12 136.565 92.7405   5
  -3   3  12 96.9777 81.0971   5
   0   3  12 225.422 94.5553   5
  -3   0  12 83.4060 80.7180   5
   0  -3  12 95.3527 92.7729   5
   3  -3  12 130.162 105.026   5
   0  -3  13 617.006 151.220   5
   3   0  13 514.018 125.930   5
  -3   3  13 581.902 124.926   5
   3  -3  13 595.765 146.215   5
  -3   0  13 549.514 137.865   5
  -3   0  14 46.2659 89.7530   5
  -3   3  14 111.088 88.1550   5
   3   0  14 79.8258 85.4532   5
   0  -3  14 85.7227 29.0486   6
   0  -3  14 40.2134 97.0142   5
  -3   0  14 68.8987 30.9817   6
  -3   3  14 90.5516 28.3360   6
   3  -3  14 49.0257 24.8534   6
   3  -3  14 67.4317 93.2311   5
   0   3  14 29.0431 24.6915   6
   3  -3  15 62.6408 31.8807   6
  -3   3  15 188.125 33.0696   6
   0   3  15 5.73582 27.7249   6
  -3   0  15 15.3766 106.486   5
   0  -3  15-62.2771 137.132   5
   0  -3  15 148.804 38.1721   6
   3  -3  15 66.8208 106.710   5
  -3   0  15 165.208 38.4008   6
   0  -3  16 87.4620 35.7996   6
  -3   0  16 61.4056 34.1666   6
  -3   3  16 60.0718 27.3615   6
   3  -3  16 14.7047 28.9115   6
   0   3  16 1.39080 23.0372   6
   0  -3  17 86.1643 33.0420   6
  -3   0  17 121.848 31.3820   6
  -3   3  17 38.9558 25.1091   6
   3  -3  17 31.1300 27.1130   6
  -3   0  18 31.0676 24.7983   6
  -3   3  18 17.7258 20.7011   6
   3  -3  18 6.24941 19.4040   6
   0  -3  18 45.7238 24.6862   6
  -3   0  19 8.38837 18.4860   6
   3  -3  19 12.4121 13.7637   6
   0  -3  19-10.9163 17.5561   6
   0  -3  20-9.85385 10.9328   6
   4  -2   0 44902.1 526.299   2
  -4   2   0 46384.8 539.784   2
   2  -4   1 1403.73 101.658   2
   2   2  -1 1348.86 67.2361   2
  -4   2  -2 67.0658 43.9306   1
  -2  -2   2 57.5239 31.5000   2
   2  -4   2 115.314 48.9259   2
   2   2  -2 54.0726 29.5242   1
  -4   2  -3 433.162 78.3967   1
   2   2  -3 323.467 57.6363   1
   2   2  -4 1775.65 130.112   1
  -4   2   4 1971.61 146.850   1
   2  -4   4 2286.52 107.959   3
  -4   2   4 2089.23 100.206   5
  -2   4  -4 2149.24 166.596   1
   2   2   4 2223.69 170.996   1
   2   2  -5 330.882 69.7634   1
  -2  -2   5 279.881 52.1116   5
   2  -4   5 318.511 52.5462   3
  -2   4   5 334.920 45.0570   5
  -4   2  -5 234.243 69.4190   1
  -4   2   5 181.040 60.8504   1
  -4   2   5 328.715 53.9142   5
  -2   4  -5 275.615 79.6480   1
   2  -4  -5 279.483 50.1535   4
   2   2   5 325.458 83.4826   1
  -2   4   6 9058.57 425.570   1
  -2   4   6 8972.20 224.042   5
   2  -4  -6 9027.83 238.584   4
  -2   4  -6 9391.87 416.553   1
  -4   2   6 9281.81 400.251   1
  -2  -2   6 8400.42 248.300   5
   2  -4   6 8923.58 252.440   3
  -4   2   6 8678.76 242.517   5
  -4   2   7 11198.9 300.445   5
   2  -4   7 11292.7 304.768   3
  -2  -2   7 10809.7 306.197   5
  -2   4   7 10952.6 273.739   5
   2  -4   8 120.066 53.8991   3
  -4   2   8 99.3685 60.1681   5
  -2   4   8 153.898 55.9908   5
  -2  -2   8 96.4188 68.2585   5
   2   2   9 3046.15 172.310   5
  -2  -2   9 2964.82 190.943   5
  -2   4   9 2939.98 168.094   5
  -4   2   9 2742.32 176.802   5
   2  -4   9 3065.55 179.820   3
  -4   2  10 259.773 82.3899   5
   2  -4  10 399.724 84.0478   3
   2  -4  10 299.383 95.1609   5
  -2  -2  10 252.350 84.2499   5
  -2   4  10 272.050 74.7913   5
   2   2  10 302.286 82.0978   5
  -2   4  11 245.184 78.3860   5
   2   2  11 298.246 81.2980   5
  -2  -2  11 273.546 95.2102   5
   2  -4  11 222.186 97.0689   5
  -4   2  11 243.942 84.4753   5
   4  -2  11 194.351 89.1416   5
  -2  -2  12-13.7592 83.4507   5
   2  -4  12 81.0331 92.3527   5
   2   2  12-78.4813 80.7445   5
  -4   2  12 70.3530 74.0073   5
   4  -2  12-102.185 98.4764   5
  -2   4  12 86.3647 83.1301   5
  -4   2  13 80.8735 83.2412   5
   4  -2  13 125.230 88.4165   5
  -2  -2  13 126.544 94.6472   5
   2  -4  13 68.9192 90.8438   5
  -4   2  14 38.8625 29.4504   6
  -2  -2  14 12.1414 31.4774   6
   2  -4  14 32.3373 25.9303   6
  -2   4  14 29.2604 23.7524   6
   4  -2  14-47.3718 98.4520   5
  -2  -2  14-25.8647 105.673   5
  -4   2  14-50.5124 86.6427   5
   4  -2  14 23.3624 24.3134   6
   2  -4  14 44.2146 106.513   5
   4  -2  15 138.578 95.4125   5
   4  -2  15-25.4651 27.1181   6
  -4   2  15 169.833 31.6164   6
  -2  -2  15-2.30195 35.2957   6
   2  -4  15 50.4169 29.5159   6
  -2   4  15 73.4952 25.9289   6
  -4   2  16 31.1547 28.3322   6
   2  -4  16-7.32943 32.2635   6
  -2   4  16 1.21932 22.6662   6
   4  -2  16 58.4087 26.4418   6
  -2  -2  16-29.8593 35.6245   6
  -4   2  17 18.8665 25.9284   6
  -2   4  17-26.4065 21.2548   6
   2  -4  17 2.45532 28.8483   6
  -2  -2  17-16.7050 31.9709   6
   4  -2  17 34.3624 22.4701   6
  -2   4  18-4.57585 17.4282   6
  -2  -2  18-13.8932 24.7372   6
  -4   2  18 24.7825 21.9947   6
   2  -4  18 4.33873 21.9221   6
  -2  -2  19-46.6003 18.5781   6
  -4   2  19-2.60046 16.9325   6
   2  -4  19 1.77538 15.0203   6
  -2  -2  20 2.83226 11.3730   6
   4  -1   0 9830.22 166.950   2
   4  -3   0 10045.3 233.748   2
  -3   4   0 9939.16 268.565   2
  -4   1   0 10540.3 176.071   1
  -4   3   0 10193.4 244.263   2
   4  -3   1 8337.65 227.114   2
  -1   4  -1 9119.05 257.565   2
  -4   1  -1 8978.18 212.217   1
  -1  -3   1 8609.34 215.241   2
  -4   1   1 8506.99 141.870   2
   1  -4   1 9004.33 254.093   2
   1   3  -1 8624.02 211.421   2
   3  -4   1 8353.48 247.031   2
   3  -4   2 454.100 74.8561   2
  -4   1  -2 556.636 77.4120   1
  -1  -3   2 462.473 64.7781   2
   1  -4   2 420.301 71.6751   2
   4  -1   2 565.839 75.2061   1
   3   1  -2 568.325 52.5932   1
   3   1   3 1451.96 127.069   1
   4  -1   3 1490.16 127.062   1
   1   3  -3 1244.27 105.006   1
   3   1  -3 1408.57 96.6178   1
  -4   1  -3 1355.55 123.070   1
   1  -4   3 1577.19 133.969   2
  -4   1   3 1507.37 103.591   1
  -4   1   4 5373.86 227.116   1
   1   3  -4 5342.01 241.628   1
  -4   1  -4 5001.38 252.359   1
   4  -1   4 5566.23 266.136   1
  -1  -3   4 5614.00 168.440   5
   1  -4   4 5490.39 164.058   3
   3   1   4 5686.44 267.438   1
  -1   4  -4 5438.37 259.883   1
  -4   3   4 5368.04 162.234   5
   3  -4  -5 43.2741 40.4211   4
  -1   4  -5 5.73556 53.7536   1
   1   3   5 32.4916 68.3656   1
   1  -4   5 96.3715 51.2125   3
   1  -4  -5 123.465 47.0759   4
  -3   4   5 80.2606 47.2391   5
  -1   4   5 66.3780 40.8405   5
  -1  -3  -5 32.7438 42.1797   4
  -1  -3   5 48.3767 42.1149   3
  -4   3   5 32.2838 53.2587   5
  -1  -3   5 150.477 56.3613   5
   3   1   5 250.938 98.0960   1
   1   3  -5 71.6125 62.0543   1
  -3   4  -5 6.87360 57.6151   1
   4  -1   5 43.9790 72.1911   1
   4  -3  -5 24.4109 37.6665   4
  -4   1   5 47.8864 70.8524   1
  -3  -1   5 52.7022 76.8232   1
  -3  -1   5 53.5380 58.0373   5
  -4   1   5 56.0096 60.4670   5
  -4   3  -5-8.49299 56.6769   1
   1  -4  -6 1718.59 106.425   4
  -3   4   6 1913.53 195.966   1
  -3  -1   6 1698.35 119.571   5
  -4   3   6 1721.01 183.831   1
  -1  -3   6 1590.87 95.9398   3
   1   3  -6 1668.71 168.659   1
  -4   3   6 1690.05 109.225   5
   3  -4  -6 1659.01 104.194   4
  -3  -1   6 1919.55 177.299   1
   1  -4   6 1809.24 111.603   3
  -1  -3   6 1710.25 114.131   5
  -1   4   6 1859.93 99.9728   5
  -4   1   6 1907.28 182.475   1
  -1   4  -6 1799.90 182.691   1
  -4   1   6 1755.28 116.960   5
  -3   4   6 1816.93 105.637   5
   4  -3  -6 1760.78 102.146   4
  -1  -3   7 3395.23 170.227   5
  -3   4   7 3500.05 157.663   5
  -3  -1   7 3734.40 183.138   5
  -4   1   7 3698.52 181.228   5
  -1  -3   7 3435.35 150.303   3
   1  -4   7 3366.67 162.209   3
  -1   4   7 3453.96 152.052   5
  -4   1   7 3517.55 271.109   1
  -4   3   7 3478.57 165.995   5
   1  -4   8 89.9834 67.9052   5
  -4   1   8 62.4407 65.4965   5
  -1  -3   8 39.1372 65.3888   5
  -1   4   8 19.9827 47.3512   5
   1  -4   8 21.4975 48.2295   3
  -3   4   8 84.9468 53.2318   5
  -3  -1   8 198.889 79.0145   5
  -4   3   8 50.7094 54.5221   5
   1   3   8 51.7092 44.5350   5
  -4   3   9 138.138 67.1658   5
  -3   4   9 130.627 62.6554   5
   3  -4   9 154.238 69.2680   3
  -4   1   9 169.404 76.7802   5
  -3  -1   9 101.454 77.4204   5
   1  -4   9 122.620 78.3046   5
   1  -4   9 166.514 62.4981   3
  -1  -3   9 178.398 79.2249   5
   1   3   9 177.503 63.5737   5
  -1   4   9 145.499 58.3712   5
   3   1  10 95.9073 58.3120   5
   1   3  10 89.0821 64.1482   5
  -1   4  10 51.1665 59.9105   5
   1  -4  10 30.0462 71.2788   5
  -4   1  10-0.64736 66.4908   5
  -3   4  10 34.1977 54.7233   5
   3  -4  10 32.3161 59.9880   3
  -4   3  10 98.0956 75.4113   5
  -3  -1  10 49.1221 81.6099   5
   3  -4  10 13.1403 81.8737   5
  -1  -3  10-17.1901 76.6557   5
   1  -4  11 21.8715 88.4197   5
   3  -4  11 43.7353 83.8681   5
  -1   4  11 12.4765 57.0733   5
   4  -1  11-56.1102 76.3384   5
   1   3  11 30.6147 57.2836   5
   3   1  11 7.65482 66.6731   5
   4  -3  11 27.8218 89.9933   5
  -4   3  11 27.1597 69.1250   5
  -3   4  11 35.0397 66.2950   5
  -3  -1  11 71.1435 83.5900   5
  -1  -3  11-1.39336 91.6636   5
  -4   1  11 2.23980 77.6337   5
   4  -3  12 92.5596 89.3921   5
  -4   1  12 66.1545 81.1928   5
   1  -4  12 12.7659 96.1529   5
   3   1  12 53.8621 74.7474   5
  -4   3  12 71.1645 75.3164   5
  -3   4  12 30.5209 59.7558   5
  -1  -3  12 106.670 98.0154   5
   3  -4  12 120.267 98.2008   5
  -3  -1  12 40.2535 85.3750   5
   4  -1  12 14.4145 79.9164   5
   3  -4  13 103.603 96.3690   5
  -4   3  13 194.479 92.5884   5
   3   1  13 118.827 82.7332   5
   1  -4  13 168.039 102.032   5
  -3  -1  13 56.5060 27.9219   6
   4  -3  13 136.668 97.5508   5
  -3  -1  13 163.419 102.626   5
  -4   1  13 234.463 107.527   5
  -1  -3  13 10.7850 99.8001   5
   4  -1  13 157.156 93.9798   5
  -1  -3  14 170.337 111.994   5
   4  -3  14 6.53776 23.5719   6
   1  -4  14 170.907 113.680   5
  -1   4  14-12.6088 22.8814   6
  -3   4  14 74.4828 25.6189   6
  -1  -3  14 120.248 34.0309   6
   1  -4  14 87.9480 28.3725   6
   3  -4  14 83.5188 26.4673   6
  -4   3  14 170.962 96.0648   5
  -4   1  14 101.356 32.9670   6
   3  -4  14 198.659 112.144   5
   4  -3  14 94.8554 98.0418   5
  -4   1  14 248.893 108.037   5
  -3  -1  14 125.303 37.1264   6
  -3  -1  14 297.609 119.352   5
  -4   3  14 142.483 29.9746   6
   4  -1  14 215.681 105.177   5
  -3  -1  15 144.884 37.4495   6
  -4   3  15 46.2930 28.3375   6
   1  -4  15 308.977 40.1720   6
  -1  -3  15 185.071 40.0203   6
  -4   1  15 88.0827 33.3701   6
   4  -3  15 8.05985 28.0159   6
   3  -4  15-2.90597 28.9410   6
  -3   4  15 2.28964 24.7206   6
  -1   4  15-4.27846 22.6387   6
   1  -4  16 252.084 39.2741   6
  -1   4  16-21.1818 21.6807   6
   3  -4  16 6.96231 30.2314   6
  -4   1  16 19.1649 30.9064   6
  -1  -3  16 216.329 40.6431   6
  -4   3  16 42.4331 27.4531   6
   4  -3  16 31.9558 26.9344   6
  -3  -1  16 111.679 36.8053   6
  -3   4  16-15.3966 23.9806   6
   4  -3  17 7.32752 24.0416   6
   1  -4  17 93.1059 33.1502   6
  -3  -1  17 69.5829 31.7652   6
  -4   3  17-10.8576 24.5142   6
  -1   4  17-30.6917 19.8159   6
  -4   1  17 12.2931 27.9586   6
  -3   4  17-8.30574 21.6316   6
   3  -4  17-2.96768 27.6978   6
  -3   4  18 31.4308 19.1548   6
  -3  -1  18 41.8090 25.0883   6
   4  -3  18 59.6186 18.2118   6
   3  -4  18 17.8160 20.8117   6
  -4   1  18 28.4800 23.7684   6
   1  -4  18 59.8364 26.5599   6
  -4   3  18 10.0490 21.2901   6
  -1  -3  18 108.934 27.4507   6
   3  -4  19 30.9331 15.1756   6
  -4   1  19-1.66147 18.4665   6
  -3  -1  19 2.98169 19.6600   6
  -1  -3  19 20.7458 19.1350   6
  -1  -3  20 9.65892 11.7177   6
   1  -4  20 14.4378 10.4609   6
  -4   4   0 34018.0 544.370   2
   0  -4   1 71131.4 848.654   2
   4  -4   1 64801.9 841.678   2
   4   0   1 70250.2 743.671   1
  -4   4  -1 64534.8 868.366   2
   0   4  -1 66718.5 835.647   2
   4  -4   2 1704.52 126.811   2
  -4   0   2 1824.74 75.7185   1
   0  -4   2 1702.82 119.432   2
  -4   0   3 48227.4 628.680   1
   0  -4   3 47830.8 756.351   2
   4   0   3 45936.1 747.299   1
  -4   4   4 625.736 57.3618   5
  -4   0   4 1293.31 110.141   1
   0  -4  -4 524.011 59.6434   4
   4  -4  -4 1108.74 82.4932   4
   0  -4   4 523.288 56.6164   3
   0   4  -4 491.221 84.9199   1
   4   0   4 550.436 98.7919   1
   4  -4  -5 13167.7 289.932   4
   4   0   5 15137.3 494.496   1
   0   4   5 13773.6 239.309   5
   0  -4  -5 13453.0 290.193   4
  -4   4  -5 14539.5 499.444   1
  -4   4   5 13642.8 276.979   5
  -4   0   5 14255.2 303.086   5
   0   4  -5 15196.1 474.610   1
  -4   0   5 13998.7 413.310   1
  -4   0   6 5861.59 304.564   1
   0  -4   6 5459.52 194.774   5
   0   4  -6 5986.25 323.045   1
   0  -4  -6 5364.51 186.188   4
   0   4   6 5319.58 161.414   5
  -4   4   6 6113.34 338.359   1
   4  -4  -6 5627.53 190.420   4
  -4   0   6 5800.86 204.972   5
  -4   4   6 5315.55 182.917   5
   0  -4   7 15720.0 370.147   5
  -4   4   7 15038.9 338.431   5
   0   4   7 14867.1 310.502   5
  -4   0   7 15785.4 374.538   5
  -4   0   8 6214.20 248.151   5
  -4   4   8 5976.63 227.378   5
   0  -4   8 5934.62 246.590   5
   0   4   8 5911.13 209.249   5
   0  -4   9 1211.75 130.475   5
   0   4   9 1300.91 112.374   5
  -4   4   9 1328.33 121.989   5
  -4   0   9 1198.25 128.916   5
  -4   0  10 983.687 129.138   5
   0  -4  10 1075.47 144.238   5
   0   4  10 999.299 108.814   5
   4  -4  10 1122.29 133.430   3
  -4   4  10 1099.65 121.061   5
   0  -4  11 22.5721 88.5425   5
   4  -4  11 23.6910 82.0852   5
  -4   0  11-15.3328 74.7296   5
  -4   4  11 48.8890 72.1996   5
   4  -4  11 113.407 76.9374   3
   4   0  11 110.664 79.9126   5
  -4   4  12 52.1602 60.2538   5
   4   0  12 63.4458 73.9055   5
  -4   0  12 26.3984 83.9337   5
   0  -4  12 78.8747 95.3742   5
   4  -4  12 128.786 100.375   5
  -4   0  13 353.445 37.8288   6
   4  -4  13 388.304 127.764   5
   0  -4  13 309.817 126.234   5
   4   0  13 314.579 97.8765   5
  -4   4  13 252.732 95.8557   5
   0  -4  13 269.814 30.6609   6
  -4   0  13 271.777 119.858   5
  -4   0  14 140.136 35.6366   6
  -4   4  14 303.527 30.9147   6
   4  -4  14 189.547 26.9321   6
  -4   0  14 422.465 125.978   5
   0  -4  14 585.542 145.085   5
   0  -4  14 294.783 33.3166   6
   4  -4  14 343.318 121.401   5
  -4   4  15 59.5630 27.2767   6
   0  -4  15 71.1359 36.1233   6
   4  -4  15-17.0562 27.9057   6
   0  -4  16-26.8873 35.0549   6
  -4   4  16-3.43139 24.8955   6
   4  -4  16 11.3723 27.2602   6
   4  -4  17 16.3869 25.1652   6
   0  -4  17-30.0806 33.2459   6
  -4   4  17-42.9992 24.5596   6
  -4   4  18 0.56965 20.3372   6
   0  -4  18-27.3627 25.9438   6
   4  -4  18 52.3656 19.8086   6
  -4   0  18 50.0441 24.8158   6
  -4   0  19 16.0888 18.4882   6
   0  -4  19 2.36476 17.1055   6
   4  -4  19 11.6669 12.4563   6
   0  -4  20-7.71342 10.5028   6
  -5   3   0 3178.99 137.021   2
   5  -2   0 3374.77 116.459   2
   5  -3   0 3261.15 134.413   2
   2  -5   1 1041.24 104.576   2
   5  -3   1 1057.07 87.8646   2
  -5   2  -1 1099.18 87.5726   1
   3   2  -1 1009.99 56.9706   2
   2   3  -1 1059.77 74.8265   2
  -5   3   1 1081.25 83.0519   2
   3  -5   1 913.420 97.1661   2
  -5   2   1 1099.12 67.5589   2
  -2  -3   2 937.733 81.3003   2
   3   2  -2 836.874 62.7030   1
   3  -5   2 970.077 106.276   2
  -3  -2   2 904.777 69.0150   2
   2  -5   2 860.690 103.959   2
  -5   2  -2 1116.69 107.417   1
  -5   3  -2 851.485 101.453   1
   2  -5   3 8588.29 307.083   2
  -3  -2   3 9167.08 204.030   5
   2  -5   3 8935.16 209.089   3
   2  -5  -3 8520.19 219.545   4
  -5   2  -3 8193.80 300.455   1
   3  -5   3 8566.67 310.941   2
   3   2   3 8652.34 298.902   1
  -2  -3   3 8069.14 258.409   2
  -2  -3   3 9326.03 203.630   5
  -5   3  -3 8059.07 307.654   1
   2   3  -3 7974.75 248.820   1
  -5   3   3 8646.64 198.106   5
   3  -5   3 8927.86 212.388   3
   3  -5  -3 8505.74 216.337   4
   3   2  -3 7818.47 226.034   1
   3  -5   4 1136.90 82.8935   3
   3  -5   4 1123.40 126.750   2
   3   2  -4 942.622 95.7735   1
  -5   2  -4 1021.46 123.166   1
  -3  -2   4 1000.62 78.2623   5
  -2  -3   4 1071.65 80.4910   5
  -3   5  -4 974.904 128.967   1
   2   3  -4 979.858 104.201   1
   3  -5  -4 1105.26 85.2247   4
   2  -5   4 1173.57 80.9800   3
  -5   3   4 999.399 76.4677   5
   3   2   4 1015.69 122.348   1
  -5   3  -4 863.468 119.573   1
  -2   5  -4 993.405 122.441   1
   2  -5   4 1122.86 131.468   2
   2  -5  -4 1021.79 82.5412   4
  -5   2   4 1030.55 106.426   1
  -5   2   4 1054.69 79.6319   5
  -3   5  -5 1131.83 144.455   1
  -3  -2   5 1000.02 87.5618   5
   3  -5   5 1003.83 86.9067   3
  -3   5   5 833.080 65.5222   5
  -2   5  -5 995.538 136.635   1
   5  -3  -5 976.334 83.8675   4
  -5   2  -5 1086.52 141.356   1
  -5   3   5 931.264 84.1920   5
   2  -5  -5 942.542 87.0897   4
  -5   2   5 967.527 120.169   1
  -5   3  -5 811.319 128.439   1
  -5   3   5 822.626 115.986   1
   2   3  -5 886.107 111.737   1
   3   2   5 856.201 135.580   1
   2   3   5 1043.48 147.443   1
  -2  -3   5 1051.82 89.4599   5
   3  -5  -5 950.519 87.2445   4
  -2   5   5 1051.96 68.1212   5
  -5   2   5 972.399 86.2100   5
   2  -5   5 1007.66 83.9047   3
  -5   3   6 346.773 95.1188   1
   2  -5   6 367.360 63.4520   3
  -5   3   6 335.573 62.7577   5
   2   3  -6 282.261 83.4769   1
   3  -5   6 429.598 71.5179   3
  -3  -2   6 370.040 69.8166   5
  -2  -3   6 413.652 52.5342   3
  -2  -3   6 401.359 68.8466   5
   3  -5  -6 352.838 60.7829   4
   2  -5  -6 429.240 66.2104   4
  -5   2   6 458.892 104.306   1
   5  -2  -6 326.240 55.9900   4
   5  -3  -6 368.155 59.3424   4
  -3   5   6 374.056 56.2515   5
  -2   5   6 358.321 51.5891   5
  -5   2   6 382.101 68.9251   5
   2  -5  -7 148.826 60.0952   4
  -5   2   7 27.5373 78.3664   1
  -2  -3   7 121.658 70.4327   5
   3  -5   7 71.3153 64.4678   3
  -3   5   7 90.9388 60.3749   5
   2  -5   7 84.2389 61.7542   3
   3  -5  -7 120.524 63.0476   4
  -5   3   7 83.0689 68.8702   5
  -3  -2   7 101.790 75.7149   5
  -5   2   7 154.315 77.6816   5
  -2   5   7 114.672 58.9095   5
  -5   3   8 78.9146 62.0982   5
  -3   5   8 123.701 53.1837   5
   2  -5   8 78.6330 55.4948   3
  -2   5   8 99.6933 49.8171   5
  -2  -3   8 83.8650 67.7617   5
  -3  -2   8 44.4472 66.5921   5
   3  -5   8 132.507 64.0089   3
  -5   2   8 200.094 76.7682   5
   2  -5   9 47.7889 80.6971   5
   3  -5   9 102.882 66.7378   3
  -5   2   9 125.024 78.0793   5
  -2  -3   9 66.6177 86.0991   5
  -3   5   9 52.3834 55.3848   5
  -5   3   9 54.3377 65.8269   5
  -2   5   9 70.1568 56.5717   5
   2   3   9 53.8308 49.8850   5
   2  -5   9 84.7867 59.9307   3
  -3  -2   9-41.0636 78.0425   5
   3  -5  10 129.092 94.1269   5
  -5   2  10 129.316 83.9754   5
  -3  -2  10 167.454 89.9604   5
  -2   5  10 176.944 75.0151   5
  -3   5  10 161.281 72.5018   5
  -2  -3  10 193.161 102.888   5
   2  -5  10 175.342 100.538   5
   3   2  10 177.866 64.1363   5
  -5   3  10 183.708 91.6795   5
   3  -5  10 118.142 73.1094   3
   2   3  10 121.171 66.9390   5
  -3  -2  11 10.4107 90.8435   5
   2  -5  11 17.8209 96.5324   5
  -5   3  11 143.713 92.4255   5
  -3   5  11 66.6064 70.9473   5
   3  -5  11 75.6765 95.1503   5
  -5   2  11 111.868 90.8015   5
  -2  -3  11 75.3803 91.9409   5
   3   2  11 81.9566 69.5002   5
   2  -5  12 226.179 105.402   5
   3  -5  12 189.020 111.237   5
  -2  -3  12 335.821 110.498   5
   5  -3  12 138.434 96.5516   5
  -5   2  12 169.216 89.5754   5
  -3  -2  12 225.475 100.138   5
   5  -2  12 205.216 100.638   5
   5  -3  12 284.139 98.6551   3
  -5   3  12 288.253 105.899   5
  -5   3  13 54.2652 28.5110   6
   2  -5  13 81.8421 100.606   5
  -5   2  13 52.7834 25.7510   6
   3  -5  13-17.3586 113.996   5
  -3  -2  13-22.7341 97.6661   5
  -2  -3  13 163.150 111.355   5
   5  -3  13-15.8170 95.9776   5
  -3  -2  13 62.3476 32.5895   6
   3  -5  13 45.7453 22.1701   6
  -5   3  13 78.2025 78.6741   5
  -2  -3  13 56.8271 27.8288   6
   2  -5  13-7.85010 22.6409   6
   5  -2  13 14.7128 95.5542   5
  -5   2  13 40.3871 90.4110   5
   2  -5  14 34.2202 28.8649   6
  -3  -2  14 395.830 51.1078   6
   5  -3  14-17.7775 109.236   5
   3  -5  14-131.347 133.481   5
   5  -2  14 69.4154 99.9061   5
   3  -5  14 575.391 40.2898   6
  -3  -2  14-61.4364 101.333   5
  -2  -3  14 127.779 123.370   5
   5  -3  14-51.8202 25.0210   6
  -2   5  14-3.46404 23.2077   6
  -5   2  14-55.1281 95.5727   5
   2  -5  14-77.6378 123.909   5
  -5   3  14 492.247 39.1492   6
  -5   3  14 44.0065 88.9887   5
  -2  -3  14 361.661 43.2911   6
  -5   2  14 71.9729 31.4284   6
  -3   5  14 0.54434 23.4543   6
  -3  -2  15 161.440 43.7192   6
  -3   5  15 20.4881 22.3525   6
   3  -5  15 160.513 32.6750   6
  -5   3  15 133.735 30.0385   6
   5  -3  15-54.4817 26.6896   6
  -2  -3  15 64.0277 39.2025   6
   2  -5  15-20.4096 30.0741   6
  -5   2  15 62.3009 29.2178   6
  -2   5  15-4.94384 22.4768   6
  -3   5  16-31.9177 23.6828   6
   5  -3  16-70.9581 26.4345   6
  -2   5  16-22.1719 22.5151   6
  -2  -3  16 273.558 46.0221   6
   2  -5  16 23.2853 34.5266   6
  -5   3  16 241.964 32.3988   6
  -5   2  16 46.7279 30.7350   6
  -5   2  17 18.6259 27.9060   6
  -2  -3  17 275.209 40.8399   6
  -5   3  17 306.148 32.6057   6
   2  -5  17-26.3995 30.7977   6
  -3  -2  17 898.897 45.7314   6
  -2  -3  18 10.8602 26.7468   6
  -5   3  18 150.590 25.9133   6
  -5   2  18 8.19101 23.1471   6
   2  -5  18 44.5718 24.1965   6
  -3  -2  18 363.589 31.8473   6
   3  -5  18 231.417 28.8965   6
   2  -5  19-25.2907 15.8256   6
  -5   2  19-23.1755 19.1335   6
  -2  -3  19 1.20984 18.9121   6
  -3  -2  19 132.997 21.9251   6
   3  -5  19 125.737 17.6791   6
  -2  -3  20 11.0233 12.6154   6
  -3  -2  20 11.6390 13.3715   6
  -5   4   0 78672.8 953.832   2
   5  -1   0 77144.6 738.279   2
  -1   5   0 78447.1 992.162   2
   4   1   0 75701.8 717.997   1
  -5   1   0 80190.6 753.262   1
   5  -4   1 28457.9 499.464   2
   1   4  -1 29083.0 482.057   2
   4  -5   1 27812.2 533.013   2
  -5   4   1 28766.9 498.110   2
  -1   5  -1 29447.4 542.357   2
  -5   1  -1 29195.6 436.938   1
   4   1   1 29076.4 422.317   1
   5  -4   2 80826.6 1039.97   2
  -5   1  -2 82385.4 1006.49   1
   4  -5   2 85840.9 1099.85   2
   5  -1   2 82467.6 984.309   1
  -4  -1   2 81472.2 796.183   2
   1  -5   2 89393.3 1099.08   2
   4   1   2 81727.9 985.317   1
  -5   1   2 85790.4 815.419   1
  -1  -4   2 83196.4 1014.97   2
  -5   1   3 88568.2 969.847   1
   1  -5   3 92607.6 925.612   3
  -1  -4   3 89497.1 888.272   5
  -5   4  -3 85772.7 1235.54   1
   4   1   3 89443.5 1139.99   1
   4  -5  -3 90884.3 958.352   4
   5  -1   3 85444.8 1128.51   1
  -1  -4  -3 85881.5 935.813   4
  -5   1  -3 82430.4 1130.66   1
  -1  -4   3 86300.7 1103.80   2
   1  -5  -3 91762.0 963.330   4
   1  -5   3 91220.2 1178.12   2
   4  -5   3 85170.3 929.220   3
   4  -5   3 86879.5 1185.17   2
   1  -5  -4 20196.8 378.286   4
  -1  -4   4 20791.2 349.833   5
   5  -4  -4 19944.1 368.190   4
   1   4  -4 19538.4 484.467   1
  -1  -4   4 20341.9 499.601   2
  -1   5  -4 22093.9 560.717   1
   1  -5   4 21287.4 360.547   3
  -1  -4  -4 19203.1 364.456   4
  -5   4  -4 20453.8 561.696   1
   1  -5   4 22494.6 550.642   2
   5  -1   4 20706.8 533.920   1
  -5   4   4 19733.6 337.371   5
  -5   1   4 21649.7 456.116   1
  -4   5   4 20216.1 316.457   5
   4  -5  -4 19927.1 371.396   4
   4   1   4 21665.9 542.835   1
  -4  -1   4 20112.2 352.895   5
   1  -5  -5 34810.2 534.667   4
  -5   1   5 36046.7 531.427   5
  -1  -4   5 35585.8 514.883   5
  -1   5  -5 39976.0 825.062   1
  -5   4  -5 36547.7 846.172   1
  -4   5  -5 39121.9 871.008   1
   4  -5  -5 34713.1 533.567   4
   1  -5   5 35699.9 519.050   3
  -1  -4  -5 33355.7 520.340   4
   5  -1   5 38717.9 830.724   1
   4   1   5 38964.7 840.704   1
  -4  -1   5 35430.0 528.013   5
   5  -4  -5 34736.2 528.252   4
  -4   5   5 34297.9 477.023   5
   1  -5   5 38208.0 802.203   2
  -5   4   5 34462.9 504.004   5
  -5   1   5 37500.6 714.473   1
   1   4  -5 34663.1 729.149   1
   1  -5   6 13600.8 310.037   3
  -1   5   6 13514.1 265.657   5
   4  -5  -6 13744.9 321.858   4
   1   4  -6 14805.4 504.289   1
  -5   4   6 13551.6 308.278   5
  -5   1   6 14061.5 336.316   5
  -5   4   6 14032.1 512.891   1
   5  -4  -6 13379.7 311.184   4
  -4  -1   6 13789.8 328.463   5
   1  -5  -6 13074.1 316.128   4
  -1  -4   6 13862.1 320.414   5
  -5   1   6 15059.3 486.215   1
  -4   5   6 13010.3 286.900   5
  -1   5   7 42227.8 586.257   5
   4  -5  -7 43749.1 646.360   4
  -5   4   7 42543.1 647.474   5
   1  -5   7 42250.7 650.901   3
  -5   1   7 43697.8 678.841   5
   1  -5  -7 42270.4 639.476   4
  -4   5   7 43298.6 621.933   5
  -1  -4   7 42806.3 664.202   5
   1   4   7 42471.5 583.672   5
  -4  -1   7 42896.9 681.662   5
  -1  -4   7 41612.3 616.198   3
  -5   1   8 2738.25 174.977   5
   1   4   8 2605.01 138.353   5
  -1   5   8 2626.46 140.775   5
  -5   4   8 2516.18 155.840   5
  -4  -1   8 2706.86 173.415   5
  -1  -4   8 2646.83 167.578   5
  -4   5   8 2746.22 153.432   5
   1  -5   8 2628.10 172.020   5
   4  -5   8 2793.61 173.944   3
   1  -5   8 2745.48 158.896   3
  -5   4   9 586.869 94.1960   5
   1  -5   9 538.426 107.925   5
   1   4   9 632.824 81.9255   5
  -5   1   9 600.543 100.864   5
  -4  -1   9 578.513 99.9074   5
   1  -5   9 582.228 88.1724   3
   4  -5   9 726.187 107.486   3
  -1   5   9 601.801 82.0057   5
  -4   5   9 528.133 84.5232   5
  -1  -4   9 572.489 106.594   5
   4  -5  10 796.711 112.512   3
  -1  -4  10 707.232 121.789   5
  -4   5  10 708.895 99.4152   5
  -5   1  10 518.322 112.902   5
  -4  -1  10 709.321 119.496   5
  -5   4  10 781.396 114.370   5
   1  -5  10 702.182 124.499   5
  -5   1  11 1439.81 166.224   5
  -1  -4  11 1600.48 176.398   5
  -4   5  11 1551.60 150.040   5
  -5   4  11 1712.09 167.066   5
  -4  -1  11 1468.48 168.159   5
   4  -5  11 1559.16 159.323   3
   5  -4  11 1678.40 167.061   3
   4   1  11 1565.46 154.324   5
   4  -5  11 1693.25 188.358   5
   1  -5  11 1614.98 177.201   5
  -4  -1  12 246.284 105.488   5
   5  -1  12 287.914 101.932   5
   5  -4  12 234.843 85.5845   3
  -4   5  12 397.126 94.3389   5
  -1  -4  12 151.893 96.6342   5
  -5   1  12 244.206 105.973   5
   1  -5  12 232.871 110.468   5
  -5   4  12 291.244 97.1926   5
   4   1  12 196.698 74.9924   5
   4  -5  12 225.064 104.440   5
   5  -4  12 249.998 110.988   5
   1  -5  13 182.466 27.9351   6
  -4   5  13 215.532 27.2083   6
   5  -1  13 410.263 117.986   5
  -4  -1  13 250.611 33.8047   6
   1  -5  13 403.056 132.613   5
  -1  -4  13 217.954 30.5961   6
  -4  -1  13 403.166 122.739   5
   5  -4  13 588.876 150.355   5
   4  -5  13 503.710 140.840   5
  -5   1  13 265.740 110.523   5
   4  -5  13 138.385 22.7942   6
  -5   1  13 291.170 33.3441   6
  -5   4  13 496.827 117.973   5
  -5   4  13 217.112 30.0651   6
  -1  -4  13 444.725 132.654   5
   5  -4  14-91.7510 118.971   5
   5  -4  14-7.86167 21.9933   6
  -1  -4  14-98.7528 114.140   5
  -4   5  14 11.6167 23.0458   6
   1  -5  14 22.1444 27.4823   6
  -5   4  14 14.4741 24.8525   6
   5  -1  14 22.8341 80.4776   5
  -4  -1  14-1.40863 90.0495   5
  -1  -4  14-42.9516 33.2559   6
   4  -5  14 101.424 107.297   5
  -5   1  14 20.6418 29.2861   6
  -4  -1  14-5.97958 33.3653   6
  -5   1  14 113.994 91.4516   5
   4  -5  14-8.34582 23.6138   6
   1  -5  14 76.4744 100.185   5
  -4   5  15 0.45986 24.0885   6
  -5   4  15 36.9248 26.6804   6
   4  -5  15 9.17313 25.4183   6
  -5   1  15 6.50128 33.1695   6
  -4  -1  15-29.3400 36.2032   6
   5  -4  15-43.4227 26.4295   6
   1  -5  15-14.2856 32.2043   6
  -1  -4  15-13.5126 36.1283   6
  -5   1  16 22.9107 31.3223   6
  -4   5  16 11.3193 23.8575   6
  -5   4  16 7.19668 25.6903   6
   1  -5  16-55.0471 35.3746   6
  -4  -1  16-18.4067 34.8047   6
   4  -5  16 2.63580 28.0079   6
  -1  -4  16-3.58854 36.1211   6
   5  -4  16-30.6261 25.4741   6
   4  -5  17 18.7417 25.8875   6
  -5   4  17-8.71555 24.5109   6
   1  -5  17-16.8322 31.8745   6
   5  -4  17-0.36877 22.4418   6
  -5   1  17-3.77318 28.7188   6
  -1  -4  17 29.0970 34.3588   6
  -4  -1  17-25.2384 31.7849   6
  -4   5  17-2.25021 22.4379   6
  -4  -1  18-38.5422 25.5121   6
  -1  -4  18-10.9808 25.4059   6
   1  -5  18-38.3807 25.6158   6
   4  -5  18-3.94145 19.3170   6
   5  -4  18 5.84715 16.8614   6
  -5   4  18 3.36402 20.6427   6
  -5   1  18-47.6163 24.9497   6
  -1  -4  19-43.0782 18.6415   6
  -5   1  19-23.2749 18.9577   6
   1  -5  19-55.9219 17.8576   6
   4  -5  19 21.5226 13.0679   6
  -4  -1  19-21.9121 19.6059   6
  -1  -4  20-23.1796 11.1198   6
  -5   5   0 83093.6 1061.42   2
   0   5  -1 37313.7 624.607   2
   5   0   1 39163.1 511.953   1
  -5   5  -1 38027.8 668.761   2
   5  -5   1 37138.0 631.782   2
   5  -5   2 22095.8 492.780   2
   0  -5   2 22636.1 483.639   2
   5   0   2 22186.3 430.761   1
   0  -5  -2 22291.7 374.372   4
   5  -5   3 46335.3 800.301   2
   0  -5  -3 43441.7 594.607   4
   0  -5   3 46485.0 569.199   3
   0  -5   3 44717.1 761.725   2
   5   0   3 43378.3 731.218   1
   5  -5  -3 43791.2 594.712   4
   5   0   4 132.298 69.1662   1
  -5   0   4 86.2718 40.3013   5
  -5   5  -4 131.622 65.3964   1
   0  -5   4 48.7170 34.4289   3
   0  -5  -4 75.2919 44.0134   4
  -5   5   4 129.465 39.1234   5
   0   5  -4 24.4484 49.4021   1
   0  -5   4 128.107 66.5194   2
   5  -5  -4 99.3113 44.7300   4
  -5   0   4 153.108 46.9935   1
   0  -5   5 12848.2 449.252   2
  -5   0   5 11883.2 288.864   5
  -5   5   5 11526.4 259.083   5
   0  -5  -5 11041.4 286.593   4
   5   0   5 12395.9 455.304   1
  -5   5  -5 12687.6 491.709   1
  -5   0   5 12269.7 380.367   1
   5  -5  -5 11264.7 285.755   4
   0   5  -5 11971.9 434.925   1
   0  -5   5 11658.4 272.680   3
   0  -5   5 11948.4 279.804   5
   0   5   6 2345.93 102.691   5
   0   5  -6 2485.58 221.199   1
   0  -5  -6 2123.19 127.558   4
  -5   5   6 2166.28 121.383   5
   5  -5  -6 2160.02 129.083   4
   0  -5   6 2466.56 214.102   2
  -5   0   6 2336.99 138.758   5
   0  -5   6 2209.97 129.230   5
   0  -5   6 2273.46 124.377   3
   0   5   7 18243.8 338.076   5
  -5   5   7 17910.7 382.919   5
   0  -5   7 18424.3 404.654   5
  -5   0   7 19457.9 608.907   1
   0  -5  -7 18027.5 393.344   4
   5  -5  -7 18700.7 397.891   4
  -5   0   7 18117.1 418.608   5
   0  -5   8 131.190 69.0754   5
  -5   5   8 195.846 67.5034   5
   0  -5   8 132.477 44.7404   3
  -5   0   8 261.242 81.7666   5
  -5   5   9 160.092 64.9706   5
  -5   0   9 166.766 84.0799   5
   0  -5   9 55.7706 72.5680   5
   5  -5  10 110.477 73.4926   3
   0  -5  10-24.0138 85.8533   5
  -5   5  10 113.893 68.0579   5
  -5   0  10 74.0910 85.6377   5
  -5   0  11 21.1177 79.5456   5
   5  -5  11-2.55816 75.2478   3
  -5   5  11 42.6217 67.8724   5
   0  -5  11 112.096 95.6911   5
   5  -5  12-14.4712 84.5646   3
   0  -5  12-76.3296 100.553   5
   5  -5  12-23.8153 96.3733   5
  -5   5  12 121.996 72.2715   5
  -5   0  12 9.51697 82.3100   5
   5   0  12 62.3216 75.7012   5
  -5   0  13 467.095 47.7115   6
   0  -5  13 102.321 116.125   5
  -5   5  13 94.3766 25.4310   6
   5  -5  13 38.5279 23.5338   6
   5  -5  13 49.9362 122.488   5
  -5   0  13 52.2431 108.130   5
   5   0  13 110.144 90.5734   5
   0  -5  13 396.721 39.2438   6
   0  -5  14 62.9393 105.635   5
   5  -5  14 115.216 115.670   5
  -5   5  14 52.0236 24.7898   6
  -5   0  14 76.4183 35.1001   6
   0  -5  14 65.5657 31.8784   6
   5  -5  14 15.1306 21.7352   6
  -5   0  14 183.776 101.687   5
   5  -5  15 85.0029 29.9430   6
  -5   5  15 49.8176 25.8596   6
  -5   0  15 292.663 41.0741   6
   0  -5  15 352.548 45.0262   6
   0  -5  16 433.664 50.8668   6
  -5   0  16 284.333 39.4662   6
   5  -5  16 111.457 30.8686   6
  -5   0  17 392.140 38.0331   6
   0  -5  17 586.737 50.5656   6
   5  -5  17 248.879 31.0225   6
   0  -5  18 292.522 34.3066   6
  -5   0  18 226.547 29.2259   6
   0  -5  19 58.8988 20.2375   6
  -5   0  19 21.7513 20.3841   6
   5  -5  19 32.5615 12.8557   6
   0  -5  20 26.0665 12.4280   6
   6  -3   0 106935. 1111.51   2
   6  -3   1 124330. 1321.47   2
   3   3  -1 127058. 1237.30   2
   3  -6   1 130958. 1492.68   2
  -6   3   1 132137. 1285.29   2
   3  -6   2 485678. 3941.05   3
   3  -6  -2 481135. 3977.91   4
  -6   3  -2 468804. 4202.96   1
   3  -6   2 475834. 4291.62   2
  -3  -3   2 475705. 3990.66   2
   3  -6  -3 200959. 1892.24   4
  -3  -3   3 200004. 1952.50   2
   3   3  -3 192873. 1916.93   1
   3  -6   3 203437. 1843.93   3
  -3  -3   3 205162. 1805.95   5
  -6   3  -3 196989. 2170.44   1
  -3  -3   4 67191.9 956.759   2
   3  -6   4 69215.0 809.980   3
   3   3   4 71317.4 1114.53   1
  -3  -3   4 70464.9 802.217   5
  -6   3   4 67539.5 799.820   5
   3  -6   4 73039.6 1133.20   2
   3  -6  -4 69578.2 845.051   4
  -6   3  -4 67879.0 1115.27   1
   3   3  -4 66060.8 927.017   1
  -6   3  -5 153852. 1998.07   1
   3  -6   5 171437. 2031.22   2
  -3  -3   5 153578. 1513.22   5
  -3   6  -5 172100. 2079.44   1
   3  -6   5 154000. 1505.62   3
   3  -6  -5 142643. 1524.57   4
   3   3   5 160245. 2004.39   1
  -6   3   5 148726. 1804.94   1
   3   3  -5 140603. 1710.39   1
  -6   3   5 149495. 1504.55   5
  -3   6   5 146512. 1377.68   5
   6  -3  -6 66512.0 832.935   4
   3  -6  -6 64923.7 860.555   4
   3  -6   6 68623.4 851.606   3
  -3   6   6 64735.7 747.312   5
  -3  -3   6 67566.2 860.127   5
  -6   3   6 66610.7 856.117   5
  -6   3   7 125062. 1382.73   5
  -3  -3   7 122282. 1397.44   5
   3  -6   7 127530. 1385.91   3
   3  -6  -7 122465. 1371.65   4
  -3   6   7 119638. 1261.39   5
  -3   6   8 47134.5 671.581   5
  -6   3   8 45435.1 741.832   5
   3  -6   8 46712.2 746.295   3
  -3   6   9 37405.2 623.486   5
   3  -6   9 39693.0 714.255   3
  -6   3   9 37713.6 703.971   5
   3   3   9 37583.2 640.017   5
  -3  -3   9 37125.6 708.036   5
   3  -6  10 18251.5 494.008   3
  -3  -3  10 17895.6 508.508   5
  -6   3  10 17787.2 499.620   5
  -6   3  11 14466.3 470.987   5
  -3  -3  11 13883.3 472.342   5
  -6   3  12 8512.08 383.191   5
  -3  -3  12 8915.64 405.191   5
   6  -3  12 10246.0 442.769   5
   3  -6  12 10023.7 441.576   5
  -6   3  13 1568.96 46.3274   6
  -6   3  13 1669.69 183.952   5
   6  -3  13 1701.62 199.876   5
   3  -6  13 2235.93 239.088   5
  -3  -3  13 1320.74 49.3135   6
  -3  -3  13 1880.60 212.910   5
   3  -6  14 921.980 181.195   5
  -3  -3  14 926.046 173.126   5
  -6   3  14 930.043 158.478   5
  -6   3  14 902.512 42.8385   6
   6  -3  14 593.331 150.611   5
  -3  -3  15-40.3606 37.0123   6
   3  -6  15 6.75222 27.0180   6
  -6   3  15 10.6067 28.3727   6
  -3   6  15 13.4095 22.4355   6
   3  -6  16-10.4752 31.5442   6
  -3   6  16-22.9862 23.5332   6
  -6   3  16 27.3400 29.1782   6
  -3   6  17-10.3598 20.7715   6
   3  -6  17-22.3684 29.7388   6
  -6   3  17 21.1199 27.0471   6
  -6   3  18-20.7361 23.2462   6
  -3  -3  18-17.9514 26.8934   6
   3  -6  18-63.3642 24.2168   6
   3  -6  19-23.3830 15.5339   6
  -3  -3  19-34.6026 19.5338   6
  -3  -3  20-9.20381 12.6440   6
  -6   4   0 4676.09 192.779   2
   6  -2   0 4863.53 145.169   2
   6  -2   1 46446.9 622.408   2
   2  -6   1 49780.5 592.692   3
   6  -4   1 47529.9 697.428   2
  -6   2   1 47655.8 539.893   2
  -6   4   1 49616.5 699.778   2
   4  -6   1 48389.1 781.082   2
  -6   2  -1 49863.5 668.621   1
   2   4  -1 46933.3 655.858   2
  -2  -4   2 150902. 1577.60   2
   4   2  -2 152181. 1378.30   1
   4  -6  -2 156678. 1494.05   4
   2  -6  -2 152718. 1498.37   4
  -4  -2   2 158285. 1406.54   5
  -4  -2   2 151599. 1391.87   2
   6  -4   2 151321. 1653.75   2
   2  -6   2 156837. 1744.86   2
   4   2   2 153571. 1602.00   1
   4  -6   2 155538. 1446.76   3
   2  -6   2 159591. 1458.76   3
   4  -6   2 151818. 1729.89   2
  -2   6  -2 156788. 1759.57   2
  -6   2  -2 152701. 1646.31   1
   4   2   3 229.263 71.2604   1
   4  -6  -3 253.516 57.8419   4
   4  -6   3 243.392 49.7281   3
  -2  -4   3 219.337 60.5763   2
  -2  -4   3 284.461 47.8474   5
   2  -6   3 317.758 53.7812   3
   2  -6  -3 229.935 55.7079   4
   4   2  -3 206.096 43.9704   1
  -6   2  -3 227.371 73.2983   1
  -4  -2   3 288.383 50.5594   5
  -4  -2   3 204.662 47.9226   2
   2   4  -3 213.431 54.8953   1
   4  -6   3 250.785 79.6880   2
   2  -6   3 251.447 82.6817   2
   2   4  -4 222.411 62.2609   1
  -2  -4   4 277.136 68.3935   2
  -6   2   4 286.669 55.0964   5
  -2  -4   4 254.564 43.9019   3
   4  -6   4 334.896 87.3254   2
   2  -6   4 266.314 79.8473   2
   2  -6  -4 291.702 57.3105   4
   4   2   4 252.765 69.8371   1
  -6   4  -4 337.925 94.2793   1
  -2  -4   4 288.762 51.9233   5
  -4  -2   4 259.717 50.9656   5
  -4   6  -4 293.910 87.3725   1
   4  -6   4 430.973 63.7476   3
  -6   2   4 285.417 62.9831   1
   4  -6  -4 294.503 59.6949   4
  -6   2  -4 241.505 75.3090   1
   2  -6   4 322.857 54.7232   3
   2  -6   5 2215.42 201.828   2
   4   2   5 2205.84 201.688   1
  -6   2   5 2046.73 164.708   1
  -4  -2   5 2026.13 121.744   5
   2  -6  -5 1831.84 122.368   4
  -2  -4   5 1904.66 102.363   3
   2   4  -5 1857.48 164.899   1
  -4   6  -5 2244.30 207.090   1
   2  -6   5 2013.55 120.753   3
   6  -4  -5 1797.73 119.192   4
  -2  -4   5 1989.36 170.332   2
  -4   6   5 2030.22 101.471   5
   4  -6  -5 1896.99 124.118   4
  -6   4  -5 2031.53 198.595   1
  -6   2   5 2078.48 124.080   5
   4  -6   5 2004.76 123.248   3
  -2   6  -5 2202.87 199.992   1
  -2  -4   5 2083.15 120.733   5
   4  -6   5 2118.75 202.178   2
  -6   4   5 1906.81 117.551   5
  -6   2  -5 1878.73 190.773   1
  -2   6   6 284.673 44.5195   5
  -6   4   6 243.299 89.1469   1
  -6   2   6 212.593 68.6994   1
   2   4  -6 324.747 83.6509   1
   2  -6   6 339.328 65.8539   3
  -6   2   6 350.284 70.4685   5
   6  -4  -6 292.556 59.4472   4
  -6   4   6 410.619 66.9270   5
  -4   6   6 334.651 53.9701   5
  -4  -2   6 367.821 72.6227   5
  -2  -4   6 374.378 55.8283   3
   4  -6  -6 311.079 66.7967   4
  -2  -4   6 382.662 71.8348   5
   4  -6   6 359.680 71.6591   3
   2  -6  -6 237.515 61.3948   4
  -6   2   7 6792.78 251.511   5
   4  -6   7 7044.77 256.222   3
   2  -6  -7 6436.66 238.308   4
  -6   4   7 6901.77 242.637   5
  -4  -2   7 6562.36 250.756   5
  -6   2   7 7149.61 379.959   1
   2  -6   7 6735.59 240.994   3
   4  -6  -7 6468.41 239.808   4
  -2   6   7 6592.17 197.376   5
  -2  -4   7 6578.86 245.408   5
  -4   6   7 6422.47 210.413   5
  -4   6   8 4252.04 185.516   5
   2  -6   8 4339.23 205.578   3
   4  -6   8 4640.69 220.747   3
  -6   4   8 4192.83 204.672   5
  -2  -4   8 4007.73 213.237   5
   2   4   8 4413.91 177.955   5
  -6   2   8 4264.10 214.584   5
  -4  -2   8 4122.47 215.638   5
  -6   2   9 3143.03 198.278   5
  -4  -2   9 3219.93 210.261   5
   2  -6   9 3144.92 211.224   5
   4  -6   9 3424.08 204.595   3
  -2  -4   9 3446.14 209.507   5
   2  -6   9 3483.91 200.009   3
  -4   6   9 3435.61 179.650   5
  -6   4   9 3376.56 201.199   5
  -4  -2  10 3349.48 223.058   5
  -6   2  10 3258.40 218.610   5
  -2  -4  10 3327.78 222.155   5
   4   2  10 3472.12 201.537   5
   2  -6  10 3425.03 230.421   5
   4  -6  10 3642.82 220.891   3
  -6   4  10 3447.12 213.623   5
  -4   6  10 3176.48 185.126   5
   2  -6  11 816.314 140.712   5
   4  -6  11 924.434 150.004   5
  -2  -4  11 780.858 135.418   5
  -4  -2  11 856.186 137.997   5
  -6   4  11 827.926 125.928   5
  -6   2  11 787.240 132.623   5
   4  -6  11 694.799 109.574   3
   6  -4  12 196.510 86.3516   3
   6  -2  12 154.091 86.5031   5
  -4  -2  12 128.280 105.276   5
  -2  -4  12 101.793 91.9497   5
   2  -6  12 159.322 101.178   5
   4  -6  12 102.621 100.804   5
  -6   2  12 169.145 85.4993   5
   6  -4  12 155.627 105.405   5
  -6   4  12 255.332 95.8767   5
   6  -4  13 426.946 127.591   5
   4  -6  13 213.950 22.3319   6
  -6   2  13 403.073 119.815   5
   2  -6  13 414.922 130.527   5
  -4  -2  13 246.285 32.3394   6
  -2  -4  13 354.791 115.575   5
  -2  -4  13 275.541 30.5605   6
   4  -6  13 397.980 131.901   5
  -6   2  13 399.717 33.8902   6
  -4  -2  13 431.721 123.447   5
   6  -4  13 112.697 20.6931   6
   2  -6  13 298.689 28.1578   6
  -6   4  13 286.499 29.8468   6
   6  -2  13 486.091 123.778   5
  -4   6  13 196.798 24.6250   6
  -6   4  13 332.546 100.201   5
   6  -4  14 22.6674 22.8934   6
  -2  -4  14 148.925 106.303   5
  -6   2  14 183.718 34.3191   6
  -2  -4  14 66.7259 37.4139   6
   4  -6  14 202.932 115.488   5
   2  -6  14 156.165 118.021   5
  -6   4  14 85.0283 28.9563   6
  -2   6  14 57.8983 21.5109   6
   2  -6  14 127.980 31.4411   6
   6  -4  14 152.038 108.618   5
   6  -2  14 91.6036 95.1418   5
  -4   6  14 74.1320 23.9034   6
  -4  -2  14 162.564 105.403   5
  -4  -2  14 13.5859 35.7577   6
  -6   2  14 62.0706 88.9239   5
   4  -6  14 21.5013 24.2602   6
  -2   6  15-46.3540 22.4868   6
  -6   4  15 63.8084 27.8580   6
  -4   6  15 57.1373 23.6906   6
   4  -6  15-87.3860 28.0186   6
   6  -4  15-28.3009 24.7051   6
   2  -6  15 6.20902 30.9944   6
  -2  -4  15 13.2414 37.9079   6
  -4  -2  15 46.9879 36.6836   6
  -6   2  15 55.6016 31.2060   6
  -4   6  16-54.4419 23.7297   6
   6  -4  16 11.2948 24.4954   6
  -6   4  16 26.9998 26.8074   6
   4  -6  16-3.92443 28.1394   6
   2  -6  16 75.8302 35.1208   6
  -2  -4  16 47.8382 39.3933   6
  -6   2  16 4.23755 30.0380   6
  -4  -2  16-11.8900 36.4179   6
  -6   4  17 0.43152 24.9933   6
  -2  -4  17 49.5233 35.2839   6
  -6   2  17 39.6272 28.4533   6
  -4  -2  17 18.2944 33.1420   6
  -4   6  17 17.3458 21.3166   6
   2  -6  17 89.9595 33.7400   6
   4  -6  17-30.2511 26.9128   6
   2  -6  18-45.7210 25.1999   6
  -4  -2  18 17.2765 25.1101   6
   4  -6  18-11.6037 20.1533   6
  -6   4  18 23.7392 21.4456   6
  -6   2  18-1.13792 24.2037   6
  -2  -4  18 39.3174 26.7201   6
  -2  -4  19 3.61821 17.5906   6
  -4  -2  19 39.2249 19.5456   6
   4  -6  19-12.5730 13.5110   6
   2  -6  19-12.3334 16.0361   6
  -2  -4  20 0.00543 10.7761   6
   1  -6   0 5082.88 159.824   3
  -6   1   0 4725.77 122.703   1
  -5   6   0 4521.50 226.021   2
  -1   6   0 4620.16 221.699   2
   5   1   0 4448.54 107.778   1
  -6   5   0 4566.41 212.067   2
   6  -1   0 4612.27 117.952   2
   1  -6   1 185275. 1667.70   3
   5  -6  -1 185197. 1698.19   4
  -1   6  -1 178582. 1930.14   2
  -6   1  -1 187425. 1714.79   1
  -1  -5  -1 181696. 1690.13   4
  -6   5   1 180549. 1885.95   2
   6  -5   1 175876. 1864.78   2
   5   1   1 181773. 1681.13   1
   5  -6   1 177206. 1919.40   2
   1  -6  -1 186273. 1700.65   4
   1   5  -1 171530. 1817.20   2
   5  -6   2 58630.4 687.152   3
   1  -6  -2 59172.8 725.600   4
  -1   6  -2 58926.5 909.794   2
   1  -6   2 59006.3 913.136   2
  -6   1  -2 58254.1 806.556   1
   5  -6  -2 59841.4 722.366   4
  -6   1   2 52982.1 550.530   1
   6  -5   2 55307.2 857.081   2
  -1  -5   2 58329.9 846.397   2
  -1  -5  -2 58949.6 717.397   4
   5  -6   2 56221.6 896.730   2
   1  -6   2 58659.3 690.879   3
  -1  -5   2 60647.7 680.692   3
   5   1   2 59782.1 800.589   1
   1  -6   3 27472.3 604.712   2
   6  -5   3 27388.1 605.273   2
  -1  -5  -3 26893.8 454.127   4
  -1  -5   3 27939.1 397.528   5
   5  -6   3 27277.1 436.950   3
   6  -1   3 26804.2 558.462   1
  -6   1   3 29490.8 430.748   1
   1  -6   3 28061.4 430.304   3
  -1  -5   3 26203.4 553.605   2
  -5  -1   3 26406.5 398.707   2
   1  -6  -3 26469.2 459.413   4
   5  -6  -3 26761.9 453.873   4
  -1  -5   3 27947.7 416.916   3
  -6   5  -3 26015.0 626.526   1
  -5  -1   3 26806.6 417.418   5
   5  -6   3 27375.4 616.428   2
   5   1   3 26663.0 564.888   1
   5  -6  -4 7773.91 234.517   4
   1   5  -4 7288.62 308.484   1
  -6   1   4 7880.69 255.396   1
   1  -6  -4 7468.69 234.581   4
   6  -1   4 7686.94 330.357   1
   6  -5  -4 7280.78 230.184   4
  -1  -5   4 7770.78 211.330   5
  -1  -5  -4 7457.05 234.412   4
   1  -6   4 8068.88 221.955   3
  -1  -5   4 7815.81 319.095   2
  -6   5  -4 6896.29 348.215   1
   5   1   4 7610.35 332.622   1
  -5  -1   4 7667.36 220.996   5
   5  -6   4 8037.68 350.501   2
   1  -6   4 7677.89 343.204   2
   5  -6   4 7904.67 234.648   3
  -5   6  -4 8003.74 380.518   1
  -6   1   4 7645.79 225.340   5
  -1  -5  -5 9106.79 268.314   4
  -6   5   5 9079.55 240.756   5
   5  -6   5 9780.42 280.127   3
  -1  -5   5 9244.65 249.213   5
   6  -1   5 9437.79 414.087   1
  -6   1   5 9969.64 339.426   1
  -6   1   5 10397.9 276.492   5
  -5  -1   5 9477.33 263.615   5
   6  -5  -5 8834.55 259.552   4
   1   5  -5 8964.87 371.467   1
   5  -6  -5 9125.03 266.909   4
  -5   6   5 8971.12 223.284   5
   5   1   5 9498.30 415.906   1
   1  -6   5 9394.61 253.452   3
   1  -6   5 10093.1 408.310   2
   5  -6   5 9862.90 427.379   2
  -1  -5   5 9482.73 382.021   2
  -1   6  -5 10314.7 425.270   1
   1  -6  -5 8882.26 268.741   4
  -5  -1   6 3365.24 170.537   5
  -6   5   6 3029.70 150.244   5
   6  -5  -6 2989.15 156.694   4
  -6   1   6 2727.96 204.369   1
  -1  -5   6 3175.21 158.350   5
   1  -6  -6 2996.24 160.081   4
  -6   1   6 3427.98 174.768   5
   1  -6   6 3249.77 160.210   3
   1   5  -6 2933.20 236.193   1
   5  -6  -6 3095.71 162.558   4
  -5   6   6 3147.63 140.444   5
  -1  -5   6 3118.23 243.398   2
   5  -6   6 3626.68 179.210   3
  -1  -5   7 19943.7 430.949   5
   1  -6   7 20103.0 425.413   3
   5  -6  -7 19976.8 430.015   4
   1  -6  -7 19037.2 421.669   4
  -6   5   7 19401.2 413.790   5
   1  -6   7 20732.9 440.452   5
  -5   6   7 18999.8 390.942   5
  -6   1   7 19427.4 447.078   5
   6  -5  -7 19346.3 416.188   4
   5  -6   7 20641.2 455.548   3
  -5  -1   7 20200.2 448.809   5
   1  -6   8 11175.7 345.620   5
   1  -6   8 10886.4 330.748   3
  -5   6   8 10799.7 310.413   5
  -6   1   8 11414.7 353.102   5
  -5  -1   8 11593.7 355.757   5
  -6   5   8 10980.7 327.808   5
   5  -6   8 11657.9 360.107   3
  -1  -5   8 10786.8 345.017   5
   1  -6   9 6741.42 268.229   3
  -5  -1   9 6405.54 291.332   5
  -1  -5   9 6124.80 283.928   5
  -6   1   9 6668.95 290.024   5
   5  -6   9 6479.33 282.343   3
   1  -6   9 6836.50 292.020   5
  -6   5   9 6561.33 268.384   5
  -5   6   9 6352.15 252.053   5
  -1  -5  10 4417.90 255.853   5
   5  -6  10 4212.25 242.582   3
  -5   6  10 4332.48 224.336   5
  -6   5  10 4388.82 238.603   5
  -6   1  10 4294.60 256.204   5
  -5  -1  10 4081.31 251.533   5
   1  -6  10 4018.99 252.404   5
  -1  -5  11 3212.43 238.678   5
   1  -6  11 3221.29 243.361   5
   6  -5  11 3088.69 225.372   3
  -5   6  11 3226.00 205.183   5
   5   1  11 3347.72 219.983   5
  -6   5  11 3115.03 211.907   5
  -6   1  11 3161.55 233.058   5
   5  -6  11 3457.93 232.136   3
  -5  -1  11 3067.35 227.181   5
   6  -1  12 949.800 144.823   5
   6  -5  12 733.238 121.284   3
  -6   5  12 1033.35 140.304   5
   1  -6  12 1006.48 164.707   5
  -1  -5  12 1226.77 169.048   5
  -6   1  12 868.554 146.226   5
  -5  -1  12 1039.98 160.439   5
   6  -5  12 950.261 159.678   5
   5  -6  12 1018.43 168.493   5
  -1  -5  13 1231.52 181.092   5
   6  -5  13 1568.42 206.401   5
  -1  -5  13 1050.23 43.5370   6
   6  -1  13 1423.26 174.303   5
  -6   1  13 1601.37 51.7650   6
  -6   5  13 1437.63 165.553   5
  -6   1  13 1097.43 170.241   5
  -5  -1  13 1023.91 47.4558   6
   1  -6  13 901.785 39.4092   6
  -5  -1  13 1452.89 188.079   5
   5  -6  13 1530.68 210.515   5
   1  -6  13 1733.62 208.223   5
  -1  -5  14 31.7159 91.0408   5
  -1  -5  14 18.9769 32.2914   6
  -6   5  14 66.0898 27.1708   6
  -5   6  14 4.23365 23.9545   6
   6  -5  14 18.9902 102.030   5
  -6   1  14 15.3959 31.3827   6
  -6   1  14 72.5856 86.1537   5
   5  -6  14 16.2697 23.7491   6
  -5  -1  14 123.936 112.517   5
   5  -6  14-12.1752 116.556   5
   6  -5  14-10.7066 21.4082   6
   1  -6  14-62.7583 98.3730   5
   1  -6  14 28.6818 30.6713   6
  -5  -1  14 33.5708 36.2271   6
   5  -6  15 10.5207 25.2559   6
  -5  -1  15 11.8674 36.8252   6
   1  -6  15-17.8467 34.7168   6
  -5   6  15 6.89071 25.0476   6
  -6   1  15 60.3081 32.8038   6
  -6   5  15 23.7814 26.0701   6
   6  -5  15-23.9007 25.5187   6
  -1  -5  15-16.6437 38.7086   6
  -6   1  16 15.6787 31.5591   6
   1  -6  16-11.6091 37.3124   6
  -5   6  16-24.3784 24.8752   6
   5  -6  16 16.0351 28.7567   6
   6  -5  16 31.1514 26.6430   6
  -1  -5  16 61.2362 40.4155   6
  -5  -1  16 110.252 37.0589   6
  -6   5  16 9.50324 26.2386   6
  -5  -1  17 93.9421 33.4263   6
   5  -6  17 110.548 28.6303   6
  -6   1  17 79.7118 31.2989   6
  -5   6  17-38.0917 23.1194   6
   6  -5  17 105.583 24.9476   6
   1  -6  17 25.1776 35.0881   6
  -6   5  17 8.29898 24.4074   6
  -1  -5  17 26.6900 37.0226   6
  -1  -5  18 36.5594 27.9940   6
  -5  -1  18 47.2566 26.0975   6
  -6   1  18 51.4359 26.5302   6
   6  -5  18 35.1661 17.8051   6
   5  -6  18 91.9021 21.3406   6
   1  -6  18 19.5667 27.2452   6
  -5  -1  19-0.74882 19.0712   6
   5  -6  19 19.6421 12.2660   6
  -1  -5  19 9.54664 18.3276   6
  -6   1  19 59.4928 20.0527   6
   1  -6  19 8.75624 17.1840   6
   0   6   0 205818. 2131.84   2
   0  -6   0 213631. 1895.15   3
  -6   6   0 215187. 2204.28   2
   6   0   0 203353. 1717.94   2
   0  -6   0 213637. 1893.16   4
   0  -6   1 1080.01 83.2557   3
   0   6  -1 959.286 106.781   2
   0  -6  -1 992.205 83.2518   4
   6  -6   1 1115.29 116.733   2
   6  -6   1 1183.71 76.5547   3
  -6   6   1 1182.44 126.222   2
  -6   6  -1 1026.52 126.476   2
   6  -6   2 8702.92 323.791   2
   6  -6  -2 8788.28 239.492   4
   6  -6   2 9177.76 223.530   3
   0  -6   2 9089.08 321.365   2
   0   6  -2 8359.85 306.807   2
   6   0   2 9199.24 274.986   1
   0  -6  -2 9033.13 243.256   4
   0  -6   2 9176.36 228.304   3
   0  -6   3 221.028 48.6013   3
   0  -6  -3 160.197 55.5139   4
   6  -6   3 226.692 83.8728   2
   0  -6   3 389.047 49.4429   5
   0  -6   3 102.138 60.7122   2
   6  -6  -3 159.610 53.6442   4
   6   0   3 179.560 60.8226   1
   0  -6   4 31276.6 696.352   2
   6   0   4 29778.4 666.859   1
   0  -6   4 29094.2 443.111   5
  -6   0   4 29588.1 478.096   5
   6  -6  -4 28948.4 502.018   4
   0  -6   4 30172.6 472.810   3
  -6   6  -4 30481.4 772.004   1
   0  -6  -4 28809.9 501.031   4
   6  -6   4 31197.5 723.497   2
  -6   0   5 2851.34 150.976   5
   0  -6   5 2860.41 136.627   5
   6  -6  -5 2617.03 148.327   4
   0   6  -5 2773.73 222.121   1
   0  -6   5 2753.68 137.814   3
   6   0   5 3036.82 233.219   1
   0  -6   5 3122.05 230.556   2
   0  -6  -5 2663.09 148.896   4
  -6   0   6 19708.4 423.403   5
   0  -6   6 19225.2 395.945   3
   0  -6  -6 19098.3 419.113   4
   0  -6   6 19883.6 405.534   5
   6  -6  -6 19551.2 422.077   4
  -6   6   6 19209.1 378.993   5
  -6   6   7 384.259 70.5523   5
   0  -6  -7 332.750 73.6406   4
   0  -6   7 320.507 73.8080   5
  -6   0   7 294.620 75.9648   5
   6  -6  -7 396.587 73.1190   4
   0  -6   7 454.692 72.0187   3
   0  -6   8 3305.65 193.963   5
  -6   0   8 3262.06 201.347   5
  -6   6   8 3186.52 173.135   5
  -6   6   9 269.438 74.4513   5
  -6   0   9 319.561 98.2506   5
   6  -6   9 399.772 93.5449   3
   0  -6   9 289.426 93.3127   5
  -6   6  10 1387.90 135.959   5
  -6   0  10 1802.19 175.393   5
   0  -6  10 1656.90 174.505   5
   6  -6  10 1599.94 164.117   3
  -6   6  11 248.035 74.6404   5
  -6   0  11 153.221 87.8751   5
   6  -6  11 89.7079 75.5513   3
   0  -6  11 275.198 101.514   5
  -6   0  12 7.26922 88.8674   5
   6  -6  12 66.7638 100.635   5
   6   0  12 43.8184 83.1990   5
   0  -6  12-62.4199 101.880   5
   6  -6  12-9.41750 62.3287   3
  -6   0  13-36.5526 31.1195   6
  -6   0  13-68.3273 106.000   5
   6  -6  13 15.5035 107.828   5
   6  -6  13-73.9119 23.7180   6
  -6   6  13 20.0982 23.2434   6
   0  -6  13-75.6511 111.781   5
   0  -6  13-21.5744 27.7607   6
  -6   6  14 362.468 31.5403   6
  -6   0  14 227.435 38.9155   6
  -6   0  14 496.182 128.229   5
   0  -6  14 230.209 36.8886   6
   6  -6  14 171.654 123.943   5
   6  -6  14 70.0090 25.0447   6
   0  -6  14 479.467 143.391   5
  -6   0  15 31.4643 34.4616   6
   6  -6  15-30.8996 24.9884   6
  -6   6  15 47.1062 26.8685   6
   0  -6  15-44.6591 35.8381   6
   0  -6  16-7.35898 38.2609   6
  -6   6  16 32.3003 26.7543   6
   6  -6  16-13.7867 25.4585   6
  -6   0  16 13.9558 33.3444   6
  -6   6  17-9.95246 24.1217   6
   6  -6  17 21.6862 23.1798   6
   0  -6  17-63.6202 36.8153   6
  -6   0  17 9.20431 31.6246   6
   0  -6  18-11.7301 26.6653   6
  -6   0  18-1.99714 25.3846   6
   6  -6  18 8.95828 17.7297   6
   0  -6  19-17.1841 17.2738   6
  -6   0  19-27.9915 19.1629   6
   4  -7   0 78155.2 838.399   3
   4  -7   0 79638.6 874.693   4
   3  -7   0 76857.0 846.523   3
   7  -3   0 76204.3 878.101   2
   3  -7   0 78824.5 878.255   4
   7  -4   1 5032.58 206.805   2
  -7   3  -1 5616.65 217.981   1
   4  -7   1 5893.94 174.847   3
   3  -7   1 5559.69 178.816   3
  -7   4   1 5335.32 203.307   2
   3  -7  -1 5486.70 168.140   3
   7  -3   1 5321.06 198.846   2
   3  -7  -1 5538.55 192.049   4
   4  -7  -1 5745.66 166.015   3
   4   3  -1 5446.53 156.240   2
   3   4  -1 5506.57 190.428   2
  -7   3   1 5378.89 173.555   2
   4  -7  -1 5596.80 188.141   4
   3  -7   2 21537.3 540.672   2
   4  -7   2 21309.3 536.531   2
  -3   7  -2 21129.2 550.323   2
  -4  -3   2 20918.5 327.084   5
  -7   3  -2 20291.1 481.240   1
  -7   4  -2 20528.4 506.684   1
  -7   3   2 21907.4 386.775   2
  -3  -4   2 20746.6 318.803   5
   4  -7   2 20456.5 363.526   3
   4  -7  -2 21286.5 393.002   4
   7  -4   2 19818.6 455.935   2
   3  -7   2 20148.7 362.531   3
   3  -7  -2 20970.8 392.795   4
   4  -7  -2 19939.0 332.752   3
   3   4  -3 40192.1 645.741   1
   3  -7   3 42731.2 812.139   2
   4  -7   3 39064.0 570.456   3
  -4  -3   3 40398.0 538.215   5
  -4  -3   3 41626.9 606.650   2
  -3  -4   3 40727.2 529.383   5
   4  -7   3 42636.3 818.058   2
   4  -7  -3 38694.8 591.893   4
   3  -7   3 39418.0 567.712   3
  -3  -4   3 40434.1 661.537   2
   4   3  -3 40953.4 584.469   1
   3  -7  -3 40187.0 601.471   4
  -7   3  -3 40496.0 778.194   1
  -7   4  -3 40290.4 799.087   1
   4   3   4 23563.1 608.554   1
   3  -7   4 23473.1 417.812   3
  -4  -3   4 23383.6 406.382   5
   3  -7   4 24767.5 646.704   2
  -7   3  -4 22735.8 618.975   1
  -7   4  -4 23215.2 643.324   1
   3   4  -4 22657.0 509.406   1
   4   3  -4 22075.5 461.324   1
  -3  -4   4 22736.8 519.028   2
   4  -7   4 23208.3 414.829   3
  -4  -3   4 23513.0 490.125   2
  -3  -4   4 23081.8 397.014   5
   3  -7  -4 22272.5 435.655   4
  -3  -4   4 22437.5 368.958   3
   4  -7  -4 22422.1 437.621   4
   4  -7   4 25522.3 654.152   2
  -3  -4   5 32014.6 684.368   2
   3   4  -5 30940.5 661.387   1
   4  -7  -5 31672.5 546.650   4
  -3  -4   5 31599.1 469.553   3
   3  -7   5 36633.3 847.680   2
  -7   3  -5 33060.7 825.604   1
   3  -7   5 33071.9 533.402   3
  -4  -3   5 31933.5 653.536   2
   3  -7  -5 33022.1 563.260   4
  -7   3   5 33312.1 532.765   5
  -7   3   5 31165.1 670.110   1
  -4  -3   5 32373.9 530.185   5
   3   4   5 35047.0 836.556   1
   4   3  -5 32388.5 637.169   1
   4  -7   5 32960.5 532.857   3
  -3  -4   5 32917.4 533.629   5
   4   3   5 35728.1 826.782   1
   4  -7   6 18069.5 399.192   3
  -4  -3   6 18237.0 402.869   5
  -7   3   6 18009.3 406.016   5
  -7   4   6 18564.4 584.852   1
  -4   7   6 17857.5 327.383   5
  -7   4   6 17824.8 394.049   5
   7  -4  -6 17504.9 397.711   4
   4  -7  -6 17857.9 407.289   4
  -3  -4   6 18213.0 399.119   5
   3  -7  -6 18703.9 419.763   4
   3   4  -6 17352.9 528.265   1
   3  -7   6 18954.9 402.219   3
  -7   3   6 18773.6 566.094   1
  -3  -4   6 17914.2 552.751   2
  -4  -3   7 20848.1 462.304   5
  -3  -4   7 20889.8 464.759   5
   4  -7   7 21345.8 462.793   3
  -7   3   7 20680.7 461.812   5
  -4   7   7 20586.1 384.460   5
  -7   4   7 20591.8 450.722   5
   4  -7  -7 21084.1 465.626   4
   3  -7   7 21121.9 456.631   3
   3  -7  -7 21197.3 465.640   4
  -7   4   8 8609.77 303.155   5
  -4  -3   8 8385.24 310.206   5
   4  -7   8 9052.23 310.144   3
  -7   3   8 9048.03 315.205   5
   3  -7   8 8862.17 307.360   3
  -3  -4   8 8734.97 311.576   5
   4  -7   9 6293.14 278.392   3
   3  -7   9 6361.64 274.106   3
  -4  -3   9 6330.27 290.762   5
  -3  -4   9 6178.87 286.910   5
  -7   3   9 6506.85 285.117   5
  -7   4   9 6183.23 275.197   5
   3  -7  10 1486.71 149.689   3
  -3  -4  10 1474.35 156.331   5
  -7   4  10 1444.48 152.522   5
   3  -7  10 1413.98 171.330   5
   4  -7  10 1381.22 145.923   3
  -7   3  10 1413.99 151.511   5
  -4  -3  10 1308.87 156.958   5
   4  -7  11 2407.61 194.620   3
  -3  -4  11 2188.77 196.698   5
   3  -7  11 2464.79 219.005   5
  -7   3  11 2017.37 187.732   5
  -7   4  11 2146.79 188.180   5
  -4  -3  11 2374.28 205.757   5
   4  -7  11 2622.24 226.996   5
   4  -7  12 2175.03 221.392   5
   7  -4  12 2075.29 200.835   3
  -4  -3  12 1963.51 200.476   5
   3  -7  12 2248.68 226.111   5
  -3  -4  12 2083.17 210.537   5
  -7   4  12 1865.38 186.792   5
  -7   3  12 1838.53 191.562   5
  -4  -3  13-23.2634 81.9904   5
  -4   7  13-13.8117 19.2308   6
   4  -7  13-7.57577 92.9629   5
   7  -4  13-67.9088 69.3531   3
  -4  -3  13 5.56386 29.3477   6
   7  -4  13 60.8813 93.1493   5
   7  -3  13-90.1417 102.933   5
  -3  -4  13 9.97273 27.3742   6
  -7   3  13 26.8301 25.2674   6
  -3   7  13 7.49203 18.8604   6
   7  -3  13-23.8771 77.6780   3
   4  -7  13 12.8082 19.6326   6
   3  -7  13-3.11759 20.3656   6
  -7   3  13 120.700 81.0125   5
   3  -7  13 2.89367 101.292   5
  -7   4  13 82.8807 24.4992   6
  -3  -4  13 29.4994 92.5946   5
   7  -4  14 2.26811 92.5952   5
   4  -7  14 123.115 101.500   5
  -7   3  14 100.734 28.4807   6
  -7   4  14 166.582 28.9099   6
   3  -7  14-6.74299 25.4546   6
   4  -7  14 33.4497 25.0340   6
  -4  -3  14 33.8777 34.5068   6
   7  -3  14 39.2261 76.6560   5
  -3  -4  14 12.5250 33.1859   6
  -3   7  14-28.2629 21.8738   6
  -3  -4  14 65.9200 109.003   5
  -4  -3  14 122.903 97.4642   5
   3  -7  14 286.338 126.729   5
  -4   7  14 40.3866 22.3249   6
  -4  -3  15-30.9779 36.2474   6
  -3   7  15 8.03405 20.8717   6
  -3  -4  15-40.8849 37.5130   6
  -7   4  15 6.81834 26.8983   6
  -7   3  15 35.0767 29.0918   6
   4  -7  15-5.53985 25.6972   6
  -4   7  15 2.47649 21.9865   6
   3  -7  15-27.4966 28.8279   6
  -7   4  16 44.5346 28.5327   6
   3  -7  16-111.842 33.0148   6
  -3  -4  16 5.87858 38.6757   6
  -3   7  16-36.1277 21.8095   6
  -7   3  16-13.3157 29.2042   6
   4  -7  16 15.3746 28.9927   6
  -4  -3  16 0.46907 37.0467   6
  -4   7  16-19.9467 21.5383   6
   3  -7  17-42.3243 30.3602   6
  -7   4  17 18.3867 27.0483   6
  -4  -3  17 67.0268 35.4398   6
  -3  -4  17 29.6955 36.2961   6
   4  -7  17 28.1209 30.3435   6
  -7   3  17-31.0338 28.6327   6
   3  -7  18-36.6693 23.4198   6
   4  -7  18-1.35546 21.5824   6
  -7   3  18-26.0535 23.5622   6
  -3  -4  18-24.6369 26.5410   6
  -4  -3  18-10.4716 26.0388   6
  -7   4  18 1.98817 22.0786   6
   4  -7  19-5.11918 13.3469   6
  -4  -3  19 0.27090 18.0864   6
  -3  -4  19-20.4103 18.2338   6
   3  -7  19-4.71290 14.3274   6
   5  -7   0 51014.4 656.485   4
  -7   5   0 49924.3 791.174   2
   7  -2   0 53664.4 617.039   2
  -7   2   0 53338.2 624.493   1
  -2   7   0 50046.0 868.491   2
   2  -7   0 51381.4 659.914   4
   5  -7   0 52553.1 621.195   3
   2  -7   0 53073.9 656.605   3
  -2   7  -1 84597.3 1211.50   2
  -5   7   1 90227.7 1259.84   2
  -7   2  -1 89654.2 1025.06   1
   7  -2   1 88873.9 990.336   2
   2   5  -1 85459.4 1065.86   2
  -7   5   1 87682.3 1122.09   2
   5  -7  -1 87342.7 980.482   4
   2  -7  -1 89392.2 952.354   3
   5   2   1 88298.6 978.058   1
   7  -5   1 87996.5 1122.44   2
   2  -7   1 88385.9 957.577   3
   2  -7  -1 90720.6 994.356   4
   5  -7   1 90321.1 940.296   3
   5  -7  -2 13110.4 301.283   4
  -7   2  -2 12946.9 354.948   1
  -2   7  -2 13510.4 431.152   2
  -2  -5   2 13184.4 274.055   3
   5  -7   2 13295.9 417.825   2
   2  -7   2 13043.1 416.996   2
   2  -7   2 12991.0 286.852   3
   7  -5   2 12148.4 368.449   2
   5  -7   2 12481.9 274.935   3
  -7   2   2 12794.4 230.649   2
   5   2   2 12746.9 337.627   1
   2  -7  -2 13186.8 312.206   4
   2  -7   3 4547.49 178.386   3
  -7   2  -3 4509.63 242.072   1
   2  -7   3 4665.15 262.501   2
   5  -7  -3 4689.11 188.510   4
   5  -7   3 5031.18 280.753   2
   5  -7   3 4716.63 180.177   3
   2  -7  -3 5077.65 198.260   4
  -7   5  -3 4767.33 276.281   1
  -5  -2   3 4523.88 153.771   2
  -5  -2   3 4985.97 169.431   5
  -2  -5   3 4946.58 163.291   5
  -2  -5   3 4440.15 221.913   2
   7  -5   3 5604.87 267.568   2
   5   2   3 4929.16 242.120   1
  -7   2   3 4919.64 169.402   1
  -2  -5   4 5229.13 258.818   2
   5  -7   4 5290.90 191.479   3
   5   2   4 5386.38 284.831   1
   2  -7  -4 5210.12 205.038   4
  -7   5  -4 5263.49 314.828   1
  -7   2  -4 4886.41 274.611   1
  -2  -5   4 5509.87 183.908   5
   2   5  -4 4991.12 252.424   1
   5  -7  -4 5196.26 201.884   4
  -5  -2   4 5350.78 206.783   2
  -5  -2   4 5614.11 190.853   5
   5  -7   4 5448.20 303.861   2
   2  -7   4 5370.80 192.002   3
  -7   2   4 5436.32 217.537   1
   2  -7   4 5640.46 301.880   2
   2  -7  -5 5494.69 216.254   4
   2  -7   5 6462.13 349.213   2
   2   5  -5 5545.62 286.388   1
   5  -7  -5 5526.82 217.029   4
   5  -7   5 6024.19 215.912   3
  -7   2   5 4038.72 221.549   1
   7  -5  -5 5189.67 210.215   4
  -2  -5   5 6006.48 208.235   5
  -2   7  -5 6482.23 360.908   1
  -2  -5   5 3735.01 155.776   3
  -2  -5   5 5775.61 297.529   2
   2  -7   5 5860.57 206.678   3
  -5  -2   5 6071.95 214.109   5
   5   2   5 6168.22 338.899   1
  -7   2   5 5687.35 213.706   5
  -7   5   6 6138.48 224.103   5
   5  -7  -6 6146.33 241.911   4
  -5   7   6 5883.22 193.410   5
  -7   2   6 6036.32 237.694   5
  -5  -2   6 6463.85 241.062   5
  -2  -5   6 5882.83 329.174   2
   7  -5  -6 5967.28 228.889   4
  -2  -5   6 6077.91 204.568   3
  -2  -5   6 6443.12 232.606   5
   2  -7  -6 5925.66 233.812   4
   5  -7   6 6564.81 242.088   3
   2  -7   6 6202.18 226.591   3
   2   5  -6 5840.81 323.636   1
   2  -7   7 4223.70 197.509   3
   5  -7   7 4312.99 209.412   3
  -7   5   7 4250.77 195.552   5
   7  -5  -7 4292.94 197.392   4
  -5   7   7 3872.07 165.615   5
  -5  -2   7 4054.09 206.054   5
   5  -7  -7 4326.36 203.094   4
  -7   2   7 4272.27 213.660   5
  -2  -5   7 4019.30 201.476   5
   2  -7  -7 4291.89 204.351   4
   2  -7   8 6642.59 262.947   3
  -7   2   8 6823.74 283.765   5
  -5   7   8 6865.56 237.942   5
   5  -7   8 7134.52 282.971   3
  -7   5   8 6587.22 259.481   5
  -2  -5   8 6947.92 277.470   5
  -5  -2   8 6351.84 276.174   5
   2  -7   8 7076.05 282.571   5
  -5  -2   9 3625.18 220.998   5
   2  -7   9 3871.13 215.726   3
  -2  -5   9 3660.78 221.286   5
  -5   7   9 3602.79 185.744   5
   5  -7   9 3844.23 222.059   3
  -7   5   9 3634.62 211.202   5
  -7   2   9 3671.05 226.750   5
   2  -7   9 3811.81 229.000   5
  -7   2  10 2902.55 212.504   5
  -7   5  10 2817.37 203.018   5
   5  -7  10 2850.75 208.017   3
  -5  -2  10 3187.14 224.754   5
   2  -7  10 3090.54 227.882   5
  -2  -5  10 3059.64 219.211   5
   5  -7  11 1791.03 197.239   5
   7  -5  11 1621.45 173.254   3
  -5  -2  11 1699.65 178.209   5
  -7   5  11 1654.48 165.706   5
   2  -7  11 1916.85 195.959   5
  -2  -5  11 1590.64 175.325   5
  -7   2  11 1483.94 165.690   5
   5  -7  11 1586.19 163.040   3
   5  -7  12 397.719 129.220   5
  -2  -5  12 450.464 120.575   5
   7  -5  12 304.752 97.4276   3
  -7   5  12 266.457 99.6168   5
  -5  -2  12 302.873 108.998   5
  -7   2  12 271.913 106.989   5
   2  -7  12 403.964 127.044   5
   7  -5  13 198.915 91.0504   3
  -7   2  13 63.1325 93.8600   5
  -5   7  13 121.148 23.9863   6
   7  -5  13 58.2305 94.5252   5
   5  -7  13 233.290 119.350   5
   7  -5  13 24.9953 18.7855   6
  -7   2  13 194.277 30.1088   6
  -2  -5  13 92.2208 29.1098   6
   2  -7  13 96.1666 25.3485   6
  -2  -5  13 295.143 119.681   5
  -5  -2  13 90.3749 32.0966   6
  -7   5  13 124.632 26.4817   6
   2  -7  13 137.623 107.433   5
   7  -2  13 78.1954 84.6180   5
   5  -7  13 67.7104 20.9137   6
  -5  -2  13 54.8745 95.8436   5
   2  -7  14-11.2336 27.8541   6
  -7   5  14 61.1515 27.3012   6
  -2  -5  14 14.3979 96.2367   5
  -5   7  14 10.7117 22.7916   6
   5  -7  14-22.0224 24.4504   6
  -5  -2  14 47.0001 91.9447   5
  -2  -5  14 30.6520 35.3174   6
   7  -2  14-6.93795 87.3853   5
   5  -7  14-29.1591 111.595   5
  -5  -2  14 70.0683 37.3785   6
  -7   2  14 65.3528 30.5770   6
   2  -7  14 26.9575 97.6716   5
   7  -5  14 69.1039 94.4036   5
  -5   7  15 36.2169 25.4629   6
  -5  -2  15-0.06931 36.7098   6
  -2  -5  15-38.0191 39.0015   6
   2  -7  15 77.7398 33.8382   6
  -7   2  15 150.519 33.5079   6
   7  -5  15-27.1113 23.4939   6
  -7   5  15 69.7197 28.4966   6
   5  -7  15-13.8077 25.8401   6
   5  -7  16 121.168 29.8112   6
   7  -5  16-12.7034 23.5364   6
  -7   5  16-12.4755 27.5317   6
  -5   7  16 5.07997 23.1198   6
  -7   2  16 18.8012 30.3265   6
   2  -7  16 8.57506 34.2552   6
  -2  -5  16 50.9628 40.3313   6
   2  -7  17-53.5252 33.3081   6
  -7   5  17-33.3560 26.1720   6
  -7   2  17 13.7844 29.2394   6
  -2  -5  17 41.0078 37.6674   6
   5  -7  17 45.3602 28.6433   6
   2  -7  18 6.90513 25.2971   6
   5  -7  18 24.9290 21.4276   6
  -2  -5  18 22.7349 26.9860   6
  -5  -2  18-21.9879 26.5556   6
  -7   2  18 39.6109 24.6130   6
   5  -7  19 3.27344 12.1595   6
  -5  -2  19 1.14735 19.1496   6
   2  -7  19-19.5364 15.6725   6
  -2  -5  19-27.2211 18.0952   6
   1  -7   0 10416.6 254.453   4
   7  -1   0 10233.5 185.894   2
   6  -7   0 10673.7 260.186   4
  -7   6   0 10192.5 352.740   2
  -1  -6   0 9866.18 247.467   4
  -1   7   0 10138.5 360.567   2
   6  -7   0 10756.2 230.239   3
  -6   7   0 10554.5 378.171   2
   1   6   0 9917.03 323.240   2
   1  -7   0 10204.2 255.176   3
  -7   6   1 2798.26 184.310   2
   6  -7   1 3141.35 127.689   3
  -1  -6  -1 2946.00 141.888   4
   1  -7  -1 3012.26 145.007   4
   7  -6   1 2975.48 122.022   3
   1   6  -1 2681.37 169.289   2
  -1   7  -1 2621.92 184.538   2
  -6   7  -1 2851.01 201.872   2
  -1  -6   1 2858.07 133.898   3
  -6   7   1 3009.72 205.125   2
   7  -6   1 2699.68 176.888   2
   1  -7   1 2805.80 126.927   4
   6  -7  -1 3198.43 146.801   4
   6   1   1 3007.58 128.908   1
   6  -7   1 3036.63 195.056   2
   1  -7   1 2927.30 135.130   3
  -1  -6   2 21868.3 385.870   3
   6  -7   2 21108.1 370.493   3
   6  -7   2 22498.0 558.521   2
   1   6  -2 20894.5 498.929   2
  -1  -6  -2 20929.7 403.876   4
   1  -7   2 21620.3 390.523   3
   7  -6   2 20707.3 518.821   2
   1  -7  -2 21408.5 414.662   4
  -1   7  -2 22337.5 563.491   2
   6  -7  -2 21367.8 403.288   4
   6   1   2 23056.4 462.351   1
  -1  -6   3 37645.1 534.900   3
   1  -7   3 38036.4 549.997   3
   6  -7  -3 37038.9 578.660   4
  -1  -6  -3 36819.1 576.458   4
   7  -6   3 38166.2 769.386   2
   6   1   3 38203.1 708.104   1
  -7   1   3 37138.4 452.571   1
   6  -7   3 39034.7 792.284   2
   1  -7  -3 37476.1 591.005   4
   6  -7   3 36826.1 544.289   3
  -1  -6   3 37505.7 496.741   5
  -1  -6   3 37616.6 726.701   2
   1  -7   3 37976.6 776.179   2
   6  -7  -4 27623.5 497.971   4
  -6   7  -4 29240.4 765.487   1
   7  -6  -4 28244.0 504.036   4
  -1  -6  -4 27889.3 505.683   4
   6   1   4 29585.1 677.047   1
  -7   6  -4 29888.3 779.307   1
  -1  -6   4 27982.4 648.559   2
  -6  -1   4 28148.2 470.315   5
   1  -7  -4 28543.8 514.456   4
  -1  -6   4 27822.1 458.362   3
   6  -7   4 31967.6 751.248   2
   1   6  -4 27609.4 649.958   1
   1  -7   4 28479.5 478.372   3
  -1  -6   4 28380.3 448.578   5
   1  -7   4 29157.0 701.732   2
   7  -6   4 30040.2 712.088   2
   6  -7   4 28288.1 486.848   3
   6  -7   5 5535.25 211.107   3
  -1  -6   5 5558.90 305.484   2
   6   1   5 6118.95 335.746   1
   1  -7   5 5694.13 205.141   3
  -7   1   5 5409.96 241.057   1
  -1  -6   5 5646.07 199.032   3
   6  -7  -5 5450.87 214.092   4
   7  -1   5 5614.49 314.655   1
   1   6  -5 5458.71 302.772   1
  -6  -1   5 5670.72 216.281   5
   7  -6  -5 5564.18 215.291   4
  -1  -6  -5 5415.81 215.227   4
  -1   7  -5 6013.54 344.297   1
  -7   1   5 5943.96 216.539   5
  -1  -6   5 5797.89 199.381   5
   1  -7   5 6142.01 337.427   2
   1  -7  -5 5865.06 225.225   4
  -1  -6   6 15051.0 546.179   2
   7  -6  -6 14628.8 371.654   4
   6  -7   6 15340.1 380.699   3
   6  -7  -6 14388.7 368.800   4
   1  -7   6 15244.8 357.618   3
  -6  -1   6 15056.9 376.601   5
   1  -7  -6 14887.2 375.692   4
   1  -7   6 15699.9 358.291   5
  -1  -6   6 15062.3 354.643   5
  -7   1   6 15340.1 378.808   5
   6  -7  -7 2696.88 167.626   4
   1  -7  -7 2461.14 158.777   4
   6  -7   7 2720.39 173.388   3
  -1  -6   7 2342.81 154.026   5
  -6  -1   7 2708.66 173.623   5
   1  -7   7 2687.52 157.009   3
   7  -6  -7 2501.86 159.448   4
   1  -7   7 2602.13 162.932   5
  -7   1   7 2700.18 178.367   5
   6  -7   8 3505.29 204.704   3
  -1  -6   8 3075.87 192.214   5
   1  -7   8 3369.92 200.359   5
  -6   7   8 3290.43 171.140   5
   1  -7  -8 3276.26 189.604   4
  -6  -1   8 3347.18 204.928   5
  -7   1   8 3465.59 214.411   5
   1  -7   8 3358.97 186.280   3
  -7   6   8 3268.00 182.754   5
  -1  -6   9 1445.07 146.477   5
  -7   1   9 1441.32 158.889   5
   6  -7   9 1434.12 148.266   3
  -7   6   9 1360.65 131.966   5
   1  -7   9 1416.16 147.884   5
  -6   7   9 1471.73 126.349   5
  -6  -1   9 1421.85 156.799   5
   1  -7   9 1496.81 136.232   3
   7  -6  10 1277.13 154.748   3
  -1  -6  10 1186.73 153.568   5
  -7   1  10 1260.60 154.138   5
   1  -7  10 1149.38 149.646   5
  -6   7  10 1050.45 115.172   5
  -6  -1  10 1318.61 158.406   5
  -7   6  10 1135.80 133.725   5
   6  -7  10 1224.15 146.749   3
  -7   1  11 462.041 116.256   5
   1  -7  11 445.606 118.430   5
  -1  -6  11 383.626 115.843   5
   7  -6  11 570.416 116.623   3
  -6  -1  11 370.437 114.058   5
   6  -7  11 336.894 103.082   3
  -1  -6  12 36.8773 92.9755   5
  -6  -1  12 174.548 103.641   5
   7  -6  12 124.281 83.8477   3
   6  -7  12 89.8228 100.976   5
   6  -7  12 99.8955 70.6015   3
  -7   1  12 106.107 94.8162   5
   1  -7  12 198.943 109.094   5
  -6   7  13 294.861 28.4578   6
   6  -7  13 640.164 151.448   5
  -6  -1  13 428.863 122.945   5
   7  -1  13 444.429 114.665   5
  -1  -6  13 496.567 135.720   5
  -7   1  13 424.340 37.9081   6
  -1  -6  13 402.224 35.3288   6
   7  -6  13 550.588 142.389   5
   1  -7  13 294.029 29.5993   6
   1  -7  13 551.066 140.482   5
  -6  -1  13 424.582 37.6843   6
  -7   1  13 455.802 136.873   5
   6  -7  13 166.871 23.2943   6
  -7   6  13 382.496 31.3393   6
   7  -6  13 395.570 107.750   3
  -6  -1  14 39.0236 89.6509   5
   1  -7  14-40.6553 88.5591   5
   1  -7  14-33.4577 30.5112   6
   7  -6  14 50.6987 96.6028   5
  -6   7  14 14.4524 24.2968   6
  -6  -1  14 13.7347 33.1440   6
   6  -7  14-35.1691 22.7755   6
  -1  -6  14-10.7852 92.6656   5
  -7   1  14-11.9670 31.2973   6
  -7   6  14 19.0214 24.9342   6
   6  -7  14 41.4937 96.8167   5
   7  -6  14-34.3318 21.0967   6
  -1  -6  14-13.5324 32.4678   6
   1  -7  15 8.75352 33.4337   6
  -6  -1  15 35.3733 34.3176   6
  -7   1  15 61.4713 32.3088   6
  -1  -6  15 25.6798 37.1859   6
  -6   7  15 28.1807 24.4058   6
   7  -6  15 9.28230 21.3385   6
  -7   6  15 34.1758 27.2468   6
   6  -7  15-33.8594 24.6193   6
  -7   1  16 46.8371 31.2562   6
  -6  -1  16 6.12309 32.8129   6
   6  -7 -16-9.93322 20.1266   7
   1  -7  16 49.0249 37.2814   6
   7  -6  16-8.97645 22.2315   6
  -6   7  16-19.7709 24.0564   6
  -1  -6  16 23.3182 39.9944   6
  -7   6  16 34.5630 26.4209   6
   6  -7  16-32.1806 25.7166   6
   7  -6  17 18.6869 20.4377   6
  -6  -1  17 17.1419 31.5018   6
   6  -7  17 10.6667 24.3981   6
   1  -7  17 18.4873 35.0143   6
  -7   1  17 17.2108 30.6659   6
  -7   6  17 9.28750 24.4837   6
  -1  -6  17 114.784 38.7809   6
   7  -6 -17 6.10366 17.4908   7
   6  -7  18-8.63207 17.7834   6
  -1  -6  18 31.0788 27.9495   6
  -6  -1  18-18.8201 25.7900   6
  -7   1  18-7.93130 25.4767   6
   1  -7  18 41.3414 27.1134   6
   6  -7  19 0.11392 10.9436   6
   1  -7  19-2.62391 16.6419   6
  -1  -6  19 5.32001 17.6749   6
  -6  -1  19-5.91040 18.6868   6
  -7   7   0 4745.98 259.428   2
   0   7   0 4688.13 243.252   2
   7   0   0 4150.63 91.0723   2
   7  -7   0 4705.54 147.211   3
   0  -7   0 4314.50 169.489   4
   0  -7  -1 34139.8 535.660   4
   7  -7   1 36668.6 714.443   2
   7  -7   1 35571.4 493.653   3
   0   7  -1 34412.4 690.980   2
   0  -7   1 34877.7 518.618   4
   0  -7   1 36632.7 536.558   3
  -7   7  -1 36518.9 768.222   2
  -7   7   1 35689.6 735.529   2
   7  -7   2 32506.9 489.536   3
   7  -7  -2 32078.6 530.595   4
   7  -7   2 32195.8 700.953   2
   0   7  -2 32298.8 693.236   2
   0  -7   2 32117.0 504.577   3
   0  -7  -2 31281.6 525.292   4
   7   0   2 33172.2 566.869   1
   7   0   3 1314.95 131.184   1
   7  -7   3 1183.76 95.6955   3
   0  -7   3 1205.78 142.357   2
   7  -7   3 1186.85 145.427   2
   7  -7  -3 1223.94 106.052   4
   0  -7   3 1075.64 75.9441   5
   0  -7  -3 1148.62 105.364   4
   0  -7   3 1051.90 89.6283   3
   0  -7   4 3069.12 147.712   3
   7  -7  -4 3267.85 167.183   4
   0  -7   4 3016.24 133.555   5
   7  -7   4 3244.17 242.252   2
   7  -7   4 3111.96 155.037   3
   7   0   4 3181.23 222.301   1
   0  -7   4 3635.08 242.555   2
   0  -7  -4 3180.92 166.896   4
   0  -7  -5 1830.05 135.229   4
   0  -7   5 1891.73 114.848   5
   7  -7  -5 1747.34 129.494   4
  -7   0   5 1924.74 131.486   5
   7  -7   5 1923.24 132.681   3
   0  -7   5 1926.98 121.743   3
   0   7  -5 1945.06 197.005   1
   7   0   5 2030.46 195.969   1
   0  -7   5 1947.97 190.829   2
   0  -7   6 974.773 97.7368   3
   7  -7  -6 842.537 100.860   4
   7  -7   6 1033.88 112.476   3
   0  -7   6 794.554 87.7994   5
  -7   0   6 1027.53 108.333   5
   0  -7  -6 944.557 108.053   4
  -7   0   7 9112.96 314.735   5
   0  -7  -7 8726.80 303.891   4
   0  -7   7 9026.48 289.075   3
   7  -7  -7 9143.44 308.812   4
   0  -7   7 9063.80 296.549   5
   7  -7   7 9589.33 324.807   3
   7  -7   8 3738.32 215.110   3
   0  -7   8 3798.58 207.312   5
  -7   0   8 3729.70 216.760   5
   0  -7   8 3669.89 192.851   3
   0  -7   9 872.541 124.927   5
  -7   0   9 909.103 129.500   5
   7  -7   9 856.830 121.603   3
   7  -7  10 1602.05 169.575   3
   0  -7  10 1711.38 170.114   5
  -7   0  10 1771.49 179.289   5
   0  -7  11 641.338 128.938   5
  -7   0  11 625.302 128.273   5
   7  -7  11 549.040 115.988   3
   0  -7  12 44.3737 82.4929   5
   7  -7  12 21.8940 79.8388   3
  -7   0  12-63.3258 90.2975   5
   7  -7  13 22.1307 18.4682   6
  -7   0  13 150.130 30.7444   6
   0  -7  13 140.368 27.9638   6
   7  -7  13 206.872 113.567   5
  -7   7  13 115.016 24.6038   6
   0  -7  13 196.074 108.825   5
  -7   0  13 155.126 100.422   5
   0  -7  14 102.447 34.4825   6
  -7   0  14 215.835 36.9215   6
   0  -7  14 215.714 111.179   5
  -7   7  14 107.877 27.7530   6
   7  -7  14 43.8201 22.3424   6
   7  -7  14 330.085 125.128   5
   0  -7  15 4.25054 35.4133   6
  -7   0  15-9.46677 31.1548   6
   7  -7  15-15.5904 22.0266   6
  -7   7  15 6.33066 24.7829   6
  -7   7  16-21.7651 25.0792   6
  -7   0  16 60.7882 32.1136   6
   0  -7  16-20.1388 38.3292   6
   7  -7  16-43.1900 23.8274   6
   7  -7 -17 34.5768 17.7445   7
   7  -7  17 37.1416 21.7960   6
   0  -7  17-10.6661 34.9793   6
  -7   0  17 15.2254 30.0082   6
   7  -7  18-9.91422 16.3364   6
  -7   0  18 30.3128 25.1666   6
   0  -7  19-15.1113 16.8537   6
  -7   0  19-14.0689 19.1484   6
   4  -8   0 743.939 81.8664   3
   4  -8   0 721.300 82.2497   4
  -8   4   1 10723.7 292.464   2
   4  -8  -1 10575.8 279.849   4
   4  -8   1 11263.6 269.369   4
   4  -8  -1 10990.7 258.113   3
   4   4  -1 11375.9 275.003   2
   4  -8   1 10813.4 264.099   3
   8  -4   1 10947.5 313.820   2
   4  -8  -2 24460.8 459.225   4
   4  -8   2 25731.8 631.094   2
  -4   8  -2 23518.4 635.353   2
   4  -8   2 24136.7 421.669   3
  -8   4   2 25063.2 471.966   2
  -4  -4   2 23880.3 369.171   5
   4  -8   2 24690.3 406.536   4
   8  -4   2 23742.6 513.648   2
  -8   4  -2 24525.1 569.303   1
   4  -8  -3 86948.1 1034.89   4
  -8   4  -3 87582.7 1301.11   1
   8  -4   3 82970.1 1177.18   2
  -4  -4   3 85304.2 1043.66   2
   4  -8   3 84474.4 981.181   3
   4   4  -3 86259.0 1026.05   1
  -4  -4   3 84040.0 926.308   5
   4  -8   3 85720.0 1336.65   2
  -4  -4   4 40709.2 554.034   3
  -8   4  -4 44199.5 932.163   1
   4  -8   4 46333.9 950.638   2
   4  -8  -4 42028.5 658.230   4
  -4  -4   4 42318.5 606.482   5
   4   4  -4 44572.4 720.132   1
   4   4   4 43463.4 881.591   1
   4  -8   4 43717.2 634.555   3
  -4  -4   4 43939.7 729.181   2
  -4  -4   5 27001.0 474.804   5
   4  -8   5 27933.4 494.598   3
   4   4  -5 27875.2 593.557   1
   4  -8  -5 26724.2 509.270   4
  -4  -4   6 64192.1 886.232   5
   4  -8   6 67142.6 895.893   3
   4  -8  -6 66474.8 933.596   4
  -8   4   7 9167.17 304.515   5
   4  -8   7 9242.79 308.003   3
  -4  -4   7 9020.66 303.296   5
   4  -8  -7 9177.79 314.222   4
   8  -4  -7 9121.87 296.649   4
   4  -8   8 9192.47 323.250   3
   4  -8  -8 8895.61 319.155   4
  -8   4   8 8463.13 311.558   5
  -4  -4   8 9633.39 336.355   5
  -8   4   9 8854.72 343.008   5
  -4  -4   9 9565.19 358.981   5
   4  -8   9 9820.63 355.801   3
   4  -8  10 5547.16 282.779   3
  -4  -4  10 5501.89 286.706   5
  -8   4  10 5365.35 279.958   5
   4  -8  10 5941.76 312.198   5
   4  -8  11 702.945 118.403   3
   4  -8  11 738.153 141.084   5
  -8   4  11 649.609 120.611   5
  -4  -4  11 685.684 132.680   5
  -4  -4  12 1214.34 170.573   5
   4  -8  12 1445.43 191.446   5
  -8   4  13 2224.52 52.8336   6
   8  -4  13 1635.43 186.745   3
   4  -8  13 2943.63 271.205   5
  -4  -4  13 2603.29 243.761   5
   8  -4  13 2554.18 239.899   5
  -4  -4  13 1965.63 57.8035   6
  -4  -4  14 30.5031 34.8470   6
  -8   4  14 149.864 28.2838   6
  -4   8  14 19.2857 20.6049   6
   4  -8  14 365.715 126.043   5
  -4  -4  14 147.193 112.012   5
   4  -8  14 130.941 26.4251   6
   4  -8 -14 200.833 24.0506   7
   8  -4  14 313.226 121.969   5
  -4   8  15 5.27977 20.9759   6
  -8   4  15 61.4789 28.7784   6
   4  -8  15 6.84603 27.0970   6
  -4  -4  15-25.9112 37.7625   6
   4  -8  16 14.9688 28.6225   6
  -8   4  16 0.09166 28.8712   6
  -4  -4  16 25.7549 37.2760   6
  -4  -4  17 31.9741 33.5440   6
  -8   4  17 17.7241 26.9984   6
   4  -8  17-13.2980 27.9527   6
  -4  -4  18-3.93422 24.7741   6
   4  -8  18-11.6281 22.0146   6
   4  -8  19-25.0918 14.2768   6
  -4  -4  19-19.9737 18.1833   6
   5  -8   0 157903. 1509.25   3
   3  -8   0 158307. 1531.98   3
   3  -8   0 159702. 1559.65   4
  -8   5   0 155138. 1724.69   2
   5  -8   0 158322. 1560.50   4
  -3   8   0 160753. 1939.45   2
   5   3  -1 91702.4 905.387   2
  -5   8   1 91212.4 1352.80   2
  -8   3  -1 92267.2 1108.74   1
   3  -8  -1 89876.0 997.102   3
   5  -8   1 91863.1 1002.31   4
   5  -8  -1 89722.4 1030.85   4
  -3   8  -1 91121.6 1330.33   2
   5  -8   1 89193.2 981.739   3
   3  -8   1 92276.5 1006.10   4
   8  -3   1 92322.8 1069.67   2
   3  -8  -1 89617.5 1030.21   4
   3  -8   1 90772.4 1003.28   3
  -8   5   1 91093.8 1148.65   2
   5  -8  -1 89098.4 960.726   3
   8  -5   1 89069.4 1156.83   2
   3   5  -1 90587.6 1098.46   2
  -8   3  -2 140540. 1621.18   1
   5  -8  -2 136872. 1438.79   4
  -3   8  -2 147048. 1839.00   2
   3  -8   2 136283. 1393.04   3
   5   3  -2 138160. 1271.22   1
  -8   3   2 144545. 1364.02   2
   5  -8   2 143797. 1374.85   4
   5  -8   2 140183. 1767.16   2
  -5   8  -2 139610. 1814.27   2
   5  -8   2 134418. 1392.29   3
   5  -8  -2 135244. 1338.91   3
   8  -5   2 136203. 1608.61   2
   3  -8   2 137179. 1356.68   4
  -8   5   2 140897. 1568.54   2
  -3  -5   2 137035. 1293.16   5
   3  -8  -2 138178. 1440.99   4
   8  -3   2 138721. 1538.20   2
   3  -8   2 140253. 1761.93   2
   5   3  -3 211254. 1828.47   1
   3  -8   3 204059. 1886.80   3
  -8   5  -3 213969. 2366.26   1
   5  -8  -3 205558. 1940.55   4
  -5  -3   3 207578. 1842.20   5
  -3  -5   3 207480. 1813.83   5
   3  -8   3 220053. 2383.86   2
  -8   3  -3 203022. 2222.62   1
   3  -8  -3 203488. 1970.35   4
  -3  -5   3 210632. 2080.26   2
   5  -8   3 201544. 1897.14   3
   5   3   3 210219. 2181.29   1
   5  -8   3 214384. 2372.23   2
   8  -5   3 211042. 2230.38   2
   5  -8  -4 141314. 1466.24   4
   3  -8   4 141021. 1429.96   3
   3  -8  -4 145739. 1492.68   4
   5   3   4 151748. 1818.39   1
   3   5  -4 147913. 1646.28   1
   5  -8   4 158924. 1942.42   2
  -8   3  -4 147650. 1846.74   1
   5  -8   4 142881. 1423.04   3
   8  -5   4 146006. 1778.64   2
  -8   5  -4 156686. 1980.19   1
   5   3  -4 146498. 1446.03   1
  -3  -5   4 141851. 1640.94   2
  -3  -5   4 142261. 1372.82   5
  -5  -3   4 146845. 1397.54   5
   3  -8   4 149431. 1896.00   2
   3  -8  -5 126642. 1414.07   4
   5  -8  -5 125004. 1427.22   4
   5   3   5 134701. 1831.74   1
  -3  -5   5 124963. 1292.97   3
  -3  -5   5 129072. 1347.70   5
  -5  -3   5 130339. 1363.78   5
   5  -8   5 131221. 1382.35   3
   3   5  -5 130198. 1641.98   1
   3  -8   5 127821. 1364.25   3
  -8   3   5 134789. 1580.40   1
   5  -8  -6 176383. 1850.17   4
   5  -8   6 179017. 1825.84   3
   3  -8   6 180188. 1816.32   3
  -3  -5   6 175152. 1794.67   5
  -8   5   6 184377. 2272.07   1
  -3  -5   6 177332. 2182.85   2
   8  -5  -6 171635. 1829.26   4
   3  -8  -6 173756. 1852.99   4
  -5  -3   6 176388. 1825.89   5
   5  -8   7 64710.5 926.055   3
   5  -8  -7 64603.3 948.811   4
   3  -8   7 64256.5 915.636   3
  -5  -3   7 64848.4 927.615   5
  -3  -5   7 64462.5 917.915   5
   8  -5  -7 64823.9 916.668   4
   3  -8  -7 62696.5 941.972   4
  -8   3   7 64815.6 934.884   5
   3  -8   8 56468.4 870.844   3
   5  -8   8 55389.6 875.617   3
  -5  -3   8 54561.2 877.803   5
   3  -8  -8 53520.8 864.607   4
   5  -8  -8 54962.8 869.744   4
  -8   3   8 54310.7 877.233   5
  -3  -5   8 53151.3 868.616   5
   3  -8   9 40093.5 746.619   3
  -3  -5   9 38108.3 738.733   5
   3  -8   9 41116.9 793.511   5
   5  -8   9 39766.3 759.668   3
  -8   3   9 37164.1 748.231   5
  -5  -3   9 37821.3 753.341   5
   3  -8  10 19043.6 523.192   3
  -8   3  10 18734.2 534.488   5
   3  -8  10 20506.3 577.289   5
  -3  -5  10 18974.9 532.163   5
  -5  -3  10 18269.9 538.679   5
   5  -8  10 18652.4 530.481   3
   5  -8  11 9088.67 385.083   3
  -8   3  11 8430.84 375.803   5
   3  -8  11 10057.6 422.939   5
  -5  -3  11 8732.66 387.190   5
  -3  -5  11 8964.64 387.339   5
   5  -8  11 10136.0 449.132   5
   5  -8  12 6842.68 397.068   5
  -5  -3  12 5983.91 339.941   5
  -3  -5  12 6044.19 348.414   5
   3  -8  12 6484.70 369.356   5
   8  -5  12 5522.80 324.605   3
  -3  -5  13 1590.09 52.7300   6
  -3  -5  13 2250.29 226.392   5
   8  -5  13 2040.13 227.712   5
   8  -5  13 1210.09 160.272   3
   8  -3  13 1956.71 208.740   5
  -5  -3  13 1722.62 57.5691   6
   5  -8  13 2398.95 260.196   5
   3  -8  13 2395.85 248.132   5
  -5  -3  13 1893.71 213.496   5
  -8   5  13 1795.25 47.9172   6
  -8   3  13 1851.46 50.5525   6
  -3  -5  14 1450.08 195.740   5
  -5  -3  14 560.144 47.2642   6
   8  -3  14 1178.76 174.020   5
   3  -8  14 1341.18 201.107   5
  -5  -3  14 1137.31 181.368   5
  -8   3  14 994.588 43.8688   6
   5  -8  14 1301.59 199.090   5
   8  -5  14 1110.12 178.516   5
  -8   5  14 935.930 41.2740   6
   3  -8  15 74.6187 34.3831   6
  -5  -3  15 99.4107 40.5550   6
  -8   5  15 55.7599 29.2560   6
  -3  -5  15 53.7903 41.2809   6
   5  -8 -15-4.16790 20.2879   7
  -5   8  15 33.8596 23.9343   6
   5  -8  15-29.0488 26.8254   6
  -5  -3  16 27.0520 37.0689   6
   5  -8  16-42.4638 28.1060   6
  -8   5  16 25.9618 28.2375   6
  -8   3  16 120.206 33.2787   6
  -3  -5  16 139.167 40.7644   6
   3  -8  16 53.9983 35.6291   6
  -5  -3  17 41.7068 33.6422   6
   3  -8  17 120.036 34.7947   6
  -8   3  17 89.9914 31.2600   6
   5  -8  17-33.6184 26.2732   6
  -8   5  17-8.17231 26.2886   6
  -3  -5  17 95.2713 37.0907   6
   5  -8  18-58.0948 21.5242   6
  -8   3  18 21.2591 25.5394   6
   3  -8  18 3.67568 24.8917   6
   8  -5 -18 119.631 16.0274   7
  -5  -3  18 9.94253 25.9055   6
  -3  -5  18 72.4310 27.6760   6
  -3  -5  19-27.8427 18.4948   6
  -5  -3  19 9.56469 18.8183   6
   5  -8  19-28.5178 13.7335   6
   3  -8  19-38.2590 15.8738   6
  -8   2   0 304.225 43.0900   1
   6   2   0 318.991 37.4798   1
   6  -8   0 289.518 51.8224   3
  -8   6   0 339.293 82.7901   2
   2   6   0 289.497 65.5279   2
   2  -8   0 338.983 66.0065   3
   6  -8   0 337.742 59.9957   4
   2  -8   0 449.572 67.2722   4
  -6   8   0 325.990 94.0204   2
  -2   8   0 254.415 76.9020   2
   8  -6   0 277.364 42.7196   3
  -6   8  -1 6676.59 323.581   2
   6  -8  -1 6949.31 221.082   4
  -8   2   1 5760.00 117.100   1
   6  -8   1 7029.32 205.040   3
  -2   8  -1 6904.89 319.114   2
   2   6  -1 7107.90 272.051   2
  -8   6   1 6754.40 283.802   2
   6   2   1 7338.66 214.279   1
   8  -2   1 7202.90 218.726   2
   2  -8   1 6975.25 213.139   3
   2  -8  -1 7234.06 228.435   4
   6  -8   1 6898.48 210.716   4
   8  -6   1 6674.25 280.952   2
   6  -8  -1 6770.92 187.318   3
   2  -8   1 6664.40 205.227   4
  -6   8   1 7300.00 337.364   2
  -8   2  -1 7370.59 231.617   1
   6  -8   2 55.1537 49.1500   3
   6  -8  -2 43.1538 34.8001   3
   6  -8   2 82.6410 39.4468   4
   2  -8   2 60.3432 47.8075   3
  -8   2  -2 70.0604 50.6147   1
   6  -8  -2 99.3555 58.2265   4
  -8   6   2 89.9259 60.6629   2
  -2  -6   2 78.5573 49.5671   3
  -2   8  -2 58.9950 61.0146   2
   2  -8   2 41.4137 33.5484   4
   8  -6   2 27.8580 57.9550   2
   6  -8   2 4.55858 64.8761   2
  -2  -6   2 57.9809 29.8695   5
   2   6  -2 39.2123 45.8643   2
   6   2   2 137.176 51.0792   1
   2  -8  -2 123.731 60.8808   4
   6  -8   3 22346.8 615.573   2
   2  -8   3 22260.4 414.256   3
  -8   2   3 21623.8 342.200   2
   6  -8   3 22306.2 382.010   4
   6   2   3 22735.9 541.344   1
   8  -6   3 21449.7 564.465   2
  -2  -6   3 21399.0 362.777   5
  -8   2  -3 21820.5 546.575   1
  -8   2   3 21499.7 338.879   1
  -2  -6   3 21593.7 530.078   2
  -2  -6   3 21061.7 397.290   3
   2  -8  -3 21993.7 445.347   4
   6  -8  -3 21025.2 434.859   4
  -8   6  -3 22413.2 639.816   1
   6  -8   3 21384.1 402.223   3
   2  -8   3 22746.9 624.563   2
  -6  -2   4 301.696 52.2189   2
   2   6  -4 355.113 85.8364   1
  -8   2   4 292.914 60.8085   1
   6  -8  -4 421.834 84.5498   4
  -2  -6   4 269.607 64.0059   5
   2  -8  -4 440.401 91.6712   4
  -8   6  -4 298.365 101.379   1
   6   2   4 258.211 87.7247   1
  -6  -2   4 480.192 80.1548   5
  -2  -6   4 462.192 73.3762   3
  -2  -6   4 269.548 86.6897   2
   2  -8   4 475.920 120.671   2
   8  -6   4 395.309 100.609   2
   2  -8   4 361.159 74.6412   3
   6  -8   4 514.784 83.1900   3
   8  -6  -5 526.434 86.7097   4
   6  -8  -5 655.351 97.8198   4
   2  -8   5 537.920 81.5504   3
  -6  -2   5 579.259 88.3550   5
   6  -8   5 566.071 85.7034   3
  -2  -6   5 377.391 63.0646   3
   6   2   5 576.957 121.276   1
   2   6  -5 394.013 97.3006   1
  -2  -6   5 530.291 78.9391   5
  -2  -6   5 389.749 99.9892   2
   2  -8  -5 541.547 92.0208   4
   2  -8   6 4100.20 194.254   3
   6  -8   6 4143.67 200.633   3
   8  -6  -6 4010.10 202.499   4
   6  -8  -6 3982.03 203.301   4
  -6  -2   6 4090.11 202.823   5
  -8   2   6 3977.44 205.166   5
   2  -8  -6 4206.75 212.038   4
  -2  -6   6 3953.09 277.392   2
  -2  -6   6 3938.85 187.994   5
  -2  -6   7 189.124 66.6382   5
   6  -8   7 308.864 84.7663   3
   2  -8   7 268.955 72.6083   3
  -6  -2   7 219.555 79.2137   5
   8  -6  -7 306.578 79.6033   4
  -8   2   7 223.723 76.8928   5
   2  -8  -7 334.325 78.3054   4
   6  -8  -7 247.000 74.6633   4
   6  -8   8 50.8830 71.7624   3
  -6  -2   8 85.5460 84.1358   5
  -8   2   8-2.46880 80.4211   5
   2  -8   8 162.596 77.0794   5
   2  -8   8 138.821 65.3976   3
   6  -8  -8 35.6865 60.8972   4
   2  -8  -8 157.701 74.3341   4
  -2  -6   8 142.150 76.1946   5
   2  -8   9 305.027 83.1631   3
  -8   2   9 209.205 90.9105   5
  -6  -2   9 309.473 102.262   5
   2  -8   9 396.089 104.221   5
  -2  -6   9 353.536 98.0243   5
   6  -8   9 303.851 91.4305   3
  -6  -2  10 23.6660 84.5621   5
  -8   2  10-34.6048 85.1119   5
   6  -8  10 30.4215 75.0908   3
   2  -8  10 29.8164 86.4093   5
  -2  -6  10 76.1326 82.5147   5
  -6  -2  11 108.102 96.3181   5
   2  -8  11 128.276 96.1393   5
   6  -8  11 137.680 86.6298   3
  -8   2  11 54.4735 92.8379   5
  -2  -6  11 148.437 98.2815   5
   8  -6  11 97.5965 89.6324   3
   8  -6  12 119.386 89.7328   3
  -8   2  12 101.712 93.2490   5
   6  -8  12 195.697 117.077   5
  -6  -2  12 131.205 97.8730   5
   6  -8  12 120.987 72.2942   3
   2  -8  12 156.724 104.715   5
  -2  -6  12 144.751 105.584   5
   8  -6  13 208.072 107.573   5
  -6   8  13 94.5850 25.5605   6
   8  -2  13 264.608 97.9614   5
   8  -6  13 134.461 68.0039   3
   8  -6  13-11.0729 17.9882   6
   2  -8  13 136.942 27.5880   6
  -6  -2  13 140.910 102.406   5
   2  -8  13 273.941 128.100   5
  -2  -6  13 161.455 30.5972   6
   6  -8  13 201.095 118.735   5
  -8   2  13 240.584 32.3799   6
   6  -8  13 37.6012 20.5773   6
  -2  -6  13 250.130 117.433   5
  -6  -2  13 141.707 31.9965   6
  -8   6  13 213.128 29.0178   6
  -8   2  14 35.0267 28.8125   6
  -6   8  14 1.30996 23.5024   6
  -8   6  14 91.5450 28.0037   6
   8  -6  14 41.1876 90.1520   5
   8  -6  14-10.3815 19.0219   6
   2  -8  14-29.7800 29.5486   6
   6  -8  14 52.9335 106.490   5
  -2  -6  14 25.4667 32.2633   6
   6  -8  14-78.3692 26.0316   6
   2  -8  14-15.7844 89.3853   5
  -2  -6  14-56.7870 96.8064   5
  -6  -2  14 4.29524 91.7988   5
  -6  -2  14 47.5876 33.2416   6
   6  -8  15-2.52966 26.1673   6
  -6  -2  15 112.329 40.4236   6
  -8   6  15 134.549 31.2387   6
   2  -8  15-16.4230 32.5909   6
   8  -6  15-7.34725 20.4923   6
  -8   2  15 41.3113 31.6542   6
  -6   8  15 17.8075 23.9370   6
  -2  -6  15 44.8811 42.4229   6
  -8   2  16 19.4621 30.1784   6
   6  -8 -16-6.77905 19.7008   7
  -2  -6  16 36.7534 39.1162   6
  -6  -2  16 58.8825 34.8210   6
   6  -8  16-40.7138 27.2912   6
  -8   6  16 27.1428 28.1028   6
   2  -8  16-77.3274 35.8314   6
  -6  -2  17 55.8736 32.1432   6
   6  -8  17 27.6098 25.5096   6
   2  -8  17-42.2337 32.8466   6
  -2  -6  17-15.6427 36.6289   6
  -8   2  17 1.15827 29.1582   6
   6  -8  18 53.2277 21.2974   6
  -6  -2  18 118.674 27.1301   6
   2  -8  18-11.9385 24.7492   6
  -8   2  18-0.27480 23.9212   6
  -2  -6  18 44.8947 27.1390   6
   8  -6 -18 54.8087 14.0826   7
  -6  -2  19 61.0792 19.6905   6
   6  -8  19 43.7653 12.9934   6
  -2  -6  19 16.9951 18.1304   6
  -8   7   0 18556.2 521.646   2
   1   7   0 16542.5 465.790   2
   1  -8   0 17630.3 365.377   3
   8  -7   0 17254.3 306.028   3
  -7   8   0 18886.0 557.096   2
   1  -8   0 16932.9 363.208   4
  -1   8   0 16925.0 510.835   2
   7  -8   0 18068.3 329.608   3
   7  -8   0 18107.1 375.610   4
  -1  -7  -1 12647.7 322.224   4
   1  -8  -1 13162.5 327.215   4
   7   1   1 14602.0 301.203   1
   1  -8   1 12382.5 300.714   4
   8  -7   1 13215.2 418.312   2
   1   7  -1 12517.6 399.448   2
  -1   8  -1 13169.6 441.975   2
   1  -8   1 13493.6 315.303   3
   7  -8  -1 13133.2 264.224   3
   7  -8   1 13674.1 314.781   4
  -7   8   1 13665.8 469.748   2
   7  -8  -1 13633.4 328.566   4
  -8   7   1 13654.0 440.259   2
   7  -8   1 13969.3 300.807   3
  -7   8  -1 14105.8 483.796   2
   8  -7   1 13120.9 277.985   3
  -1  -7   1 13463.7 307.894   3
   8  -1   1 14352.8 300.094   2
   8  -7   2 1496.55 154.565   2
   1  -8   2 1534.73 115.713   3
   1  -8   2 1011.44 82.8933   4
   1  -8  -2 1662.62 128.849   4
   7  -8  -2 1577.47 122.024   4
  -1   8  -2 1529.84 159.051   2
   7   1   2 1692.49 128.079   1
  -1  -7   2 1530.39 113.149   3
  -1  -7  -2 1565.91 122.799   4
   7  -8   2 1597.09 108.364   3
  -8   7   2 1691.31 164.536   2
   1   7  -2 1488.37 146.706   2
   7  -8   2 1512.36 162.580   2
   7  -8  -2 1741.48 91.2860   3
   7  -8   2 1470.85 100.365   4
   8  -7   2 1664.73 108.976   3
   7  -8   3 20537.3 395.945   3
  -1  -7   3 20336.1 352.017   5
   1  -8  -3 20547.5 442.257   4
  -1  -7  -3 20743.4 448.303   4
   8  -7   3 21211.8 585.010   2
   1  -8   3 21094.4 414.651   3
  -1  -7   3 21341.2 417.462   3
   7   1   3 21183.6 521.532   1
   1  -8   3 22429.8 613.287   2
   7  -8   3 21818.9 384.831   4
   7  -8  -3 19828.6 430.252   4
   7  -8   3 23004.6 624.212   2
   1  -8   4 4673.92 302.562   2
   1  -8   4 4832.85 198.438   3
  -1  -7   4 4625.10 282.022   2
   7   1   4 4709.40 272.300   1
  -1  -7   4 4667.93 176.623   5
  -1  -7   4 4706.90 191.902   3
   8  -7  -4 4640.86 207.628   4
   7  -8  -4 4757.29 212.329   4
   7  -8   4 5094.01 203.006   3
  -1  -7  -4 5210.12 223.558   4
   1  -8  -4 4683.28 214.929   4
   1  -8   5 81.2067 53.2686   5
  -1  -7   5 88.2803 54.9470   3
  -1  -7   5 150.713 78.4751   2
   1   7  -5 119.074 68.2192   1
   7  -8   5 191.830 76.7890   3
   8  -7  -5 64.4757 62.8719   4
   1  -8  -5 111.499 73.5926   4
  -1  -7  -5 83.8027 65.7180   4
  -1  -7   5 55.9109 54.1003   5
   7  -8  -5 71.4027 62.8941   4
   7   1   5 62.8765 68.3368   1
  -7  -1   5 142.216 68.5343   5
   1  -8   5 137.415 65.1959   3
   1  -8   6 1585.64 122.447   5
  -8   1   6 1588.67 138.809   5
  -7  -1   6 1557.12 137.346   5
  -1  -7   6 1541.95 121.847   3
   1  -8   6 1577.13 126.090   3
   1  -8  -6 1452.83 132.901   4
   8  -7  -6 1509.79 131.594   4
   7  -8   6 1782.76 143.240   3
   7  -8  -6 1628.35 136.233   4
  -1  -7   6 1456.27 121.798   5
   1  -8  -7 5365.30 249.393   4
   7  -8   7 6133.65 263.831   3
   7  -8  -7 5698.67 255.420   4
   8  -7  -7 5434.25 243.791   4
   1  -8   7 5593.78 236.681   3
  -7  -1   7 5756.23 263.424   5
   1  -8   7 5680.74 237.535   5
  -8   1   7 5990.94 264.320   5
  -1  -7   7 5807.32 242.686   5
   1  -8   8 877.977 112.712   3
   1  -8  -8 909.634 115.832   4
  -8   1   8 1190.54 148.203   5
  -1  -7   8 806.394 117.521   5
   7  -8  -8 731.725 103.886   4
  -7  -1   8 910.109 132.461   5
   7  -8   8 1041.36 132.045   3
   1  -8   8 894.546 118.117   5
   1  -8   9 596.694 114.617   5
  -7  -1   9 715.078 127.717   5
   8  -7   9 622.423 116.655   3
   7  -8   9 574.812 111.053   3
  -8   1   9 693.338 128.569   5
  -1  -7   9 650.740 117.822   5
  -8   1  10 394.422 118.554   5
  -7  -1  10 443.526 117.475   5
   1  -8  10 353.355 111.224   5
  -1  -7  10 350.763 103.866   5
   7  -8  10 327.379 95.6575   3
   8  -7  10 398.949 110.115   3
   7  -8  11 142.530 84.6851   3
   1  -8  11 81.1643 94.0131   5
  -1  -7  11 86.8221 93.7606   5
   8  -7  11 66.0901 85.0581   3
  -7  -1  11 24.5121 90.7893   5
  -8   1  11-11.9623 82.3485   5
   1  -8  12-74.6627 97.9425   5
   7  -8  12-21.8944 112.448   5
  -1  -7  12 89.4878 96.4182   5
  -8   1  12-11.4137 88.4069   5
   7  -8  12 39.9061 81.4926   3
  -7  -1  12 61.2606 95.8911   5
   8  -7  12 141.559 90.5153   3
   1  -8  13 485.624 136.259   5
   7  -8  13 715.436 159.941   5
  -8   1  13 581.808 38.1236   6
  -7  -1  13 649.847 41.1641   6
   1  -8  13 260.803 33.2089   6
  -7   8  13 260.026 29.8251   6
  -8   7  13 403.675 31.1404   6
   7  -8  13 261.989 23.9201   6
  -1  -7  13 441.584 34.1353   6
  -1  -7  13 721.926 149.956   5
  -7  -1  13 559.269 129.085   5
   8  -7  13 374.191 101.228   3
   8  -7  13 624.833 145.193   5
   8  -7  14-70.0401 106.244   5
  -7   8  14 37.5462 24.9122   6
   7  -8  14-25.5295 21.8716   6
   1  -8  14 6.99870 94.5982   5
  -1  -7  14 43.6696 32.3895   6
   7  -8  14-24.4739 95.4695   5
  -7  -1  14 48.2196 33.7317   6
  -8   7  14 25.7873 25.3094   6
  -8   1  14 57.1219 30.2973   6
   1  -8  14-21.6346 30.3557   6
  -1  -7  14 92.6521 105.699   5
   8  -7  14-38.0354 21.0064   6
  -7   8  15 40.7406 25.6219   6
  -8   1  15 27.4136 31.5651   6
   7  -8  15-38.4328 23.3276   6
  -1  -7  15-47.3125 39.7237   6
   1  -8  15 10.1794 35.4628   6
  -8   7  15 28.4619 26.3450   6
   8  -7  15-6.78588 20.7123   6
  -7  -1  15-41.8832 34.3218   6
  -8   1  16 42.8600 31.1641   6
   1  -8  16-12.7800 38.3043   6
  -8   7  16 7.80339 25.8890   6
   7  -8 -16 1.04282 20.1276   7
   7  -8  16 31.0507 24.0908   6
  -1  -7  16 66.8694 41.4700   6
   8  -7  16-9.88739 22.2008   6
  -7  -1  16-21.6990 33.2861   6
   8  -7  17 20.5770 19.3011   6
   8  -7 -17-26.9283 17.7219   7
  -8   1  17-75.7471 30.9718   6
   7  -8 -17 3.16130 16.9344   7
  -7  -1  17-18.0257 30.0608   6
   7  -8  17 7.79544 21.6266   6
  -1  -7  17-8.69836 35.9272   6
   1  -8  17-20.7163 34.9166   6
   7  -8  18 24.2682 17.4936   6
  -8   1  18-2.78947 24.0728   6
  -1  -7  18-11.6262 27.3344   6
   1  -8  18 0.67891 25.4910   6
   8  -7 -18 83.3648 15.2303   7
  -7  -1  18-1.12900 24.8263   6
   7  -8  19 14.8832 10.3935   6
   1  -8  19-10.8207 15.8418   6
  -1  -7  19 5.06739 17.0323   6
  -7  -1  19-5.04320 18.7383   6
   8  -8   0 44390.3 580.199   3
   0   8   0 44789.9 858.603   2
   0  -8   0 44089.9 650.768   4
   8  -8   1 22483.2 388.596   3
   8  -8  -1 22176.9 434.089   4
   8  -8  -1 22211.0 359.830   3
   0  -8   1 21473.4 415.199   4
   0  -8   1 23168.8 432.637   3
  -8   8  -1 23267.6 644.896   2
   0  -8  -1 22405.5 440.675   4
   0   8  -1 22673.2 589.148   2
   8  -8   2 8368.55 366.993   2
   0  -8   2 8395.93 251.221   3
   0  -8  -2 8080.38 259.660   4
  -8   8   2 8715.56 380.296   2
   8  -8  -2 8662.87 265.085   4
   0  -8   2 8099.89 185.165   5
   8  -8  -2 8964.75 199.929   3
   8  -8   2 7970.18 230.516   3
   0   8  -2 8238.74 358.024   2
   8  -8   3 1263.17 153.394   2
   0  -8   3 1124.07 79.7548   5
   8  -8  -3 1029.24 104.765   4
   8  -8   3 1156.74 99.0689   3
   0  -8  -3 1254.35 114.354   4
   0  -8   3 1099.67 99.3609   3
   0  -8   4 9336.22 273.530   3
   0  -8   4 9124.54 239.397   5
   0  -8   4 9630.58 418.783   2
   8  -8  -4 8751.94 290.141   4
   8  -8   4 8941.37 275.422   3
   0  -8  -4 8903.47 298.538   4
   8   0   4 9433.97 390.515   1
   8  -8   4 9549.53 247.692   4
   8  -8  -5 6426.14 257.191   4
   0  -8  -5 6132.47 254.525   4
   0  -8   5 6448.43 232.756   3
   8  -8   5 6304.83 244.631   3
   0  -8   5 6426.41 218.633   5
   0  -8   6 200.219 60.5718   5
   8  -8   6 215.635 75.1846   3
   0  -8   6 207.303 59.6796   3
  -8   0   6 228.254 76.9228   5
   0  -8  -6 213.596 75.8577   4
   8  -8  -6 232.386 71.4217   4
   0  -8   7 3223.39 181.097   3
   8  -8  -7 3213.78 196.818   4
  -8   0   7 3544.12 208.921   5
   0  -8   7 3197.04 186.008   5
   8  -8   7 3455.57 203.618   3
   0  -8  -7 3113.15 196.432   4
   8  -8   8 1663.92 159.791   3
   0  -8   8 1562.42 134.041   3
   0  -8   8 1610.82 146.263   5
  -8   0   8 1435.02 155.696   5
   8  -8  -8 1555.83 147.319   4
  -8   0   9 1520.32 169.756   5
   0  -8   9 1336.97 149.535   5
   8  -8   9 1433.12 160.097   3
  -8   0  10 775.422 139.594   5
   8  -8  10 822.028 137.043   3
   0  -8  10 1039.25 153.448   5
  -8   0  11 624.716 131.406   5
   0  -8  11 482.302 138.465   5
   8  -8  11 458.413 113.257   3
   0  -8  12 250.026 30.1101   6
  -8   0  12 230.299 34.4200   6
  -8   8  12 228.310 27.0805   6
  -8   0  12 297.166 121.158   5
   8  -8  12 85.3255 86.4210   3
   0  -8  12 439.666 135.041   5
   8  -8  13 293.230 126.646   5
   0  -8  13 221.246 118.262   5
  -8   0  13 189.426 33.3670   6
   8  -8  13 7.43509 19.7738   6
   0  -8  13 87.8579 28.8785   6
   8  -8  13 67.2808 77.4773   3
  -8   8  13 144.470 27.5934   6
  -8   8  14 71.1444 28.3136   6
  -8   0  14 158.640 38.3309   6
   8  -8  14-47.0053 24.8208   6
   8  -8  14-88.6118 132.882   5
   0  -8  14 76.7872 41.0035   6
   8  -8  15 31.9414 24.8669   6
  -8   8  15 87.0865 30.8457   6
   8  -8 -16 37.8025 22.8608   7
  -8   0  16 281.045 39.2191   6
   0  -8  16 337.049 51.3073   6
   8  -8  16 103.609 28.6470   6
   8  -8 -17 69.1545 19.0566   7
   8  -8  17 59.6003 22.5097   6
  -8   0  17 205.337 33.3510   6
   0  -8  17 235.404 42.2829   6
   8  -8  18 110.140 18.4765   6
  -8   0  18 257.735 29.6577   6
   0  -8  19 126.903 20.3423   6
   5  -9   0 26388.0 448.390   3
   4  -9   0 27144.4 479.807   4
   4   5   0 25138.5 500.389   2
   4  -9   0 26196.3 458.296   3
   5   4   0 26380.9 457.507   2
  -5   9   0 26987.0 706.497   2
   5  -9   0 25927.1 466.061   4
  -4   9   0 28496.8 716.427   2
   5   4  -1 24008.6 402.264   2
   4  -9  -1 21269.7 405.898   3
   5  -9  -1 21858.9 431.279   4
   5  -9   1 21936.7 416.073   4
   5  -9   1 21724.0 407.427   3
   4  -9  -1 21948.7 439.021   4
  -9   5   1 22448.6 492.931   2
  -5   9   1 23824.8 662.486   2
  -4   9   1 23202.2 645.984   2
   4  -9   1 21930.9 417.075   3
  -9   4  -1 22803.8 514.105   1
   9  -5   1 22213.2 505.171   2
   5  -9  -1 22150.6 400.973   3
  -5   9  -1 22879.6 645.678   2
   4   5  -1 22787.5 462.625   2
  -4   9  -1 22226.7 631.274   2
   9  -4   1 22494.0 479.908   2
   4  -9   1 22093.1 414.722   4
  -9   5   2 24925.4 511.791   2
  -4  -5   2 23052.7 365.610   5
  -9   4  -2 24841.7 583.495   1
   5  -9   2 23273.6 428.998   3
   4  -9   2 23731.1 437.432   3
   5  -9  -2 22385.2 398.607   3
   5  -9   2 24254.9 644.206   2
   4  -9  -2 23462.2 464.819   4
   5  -9  -2 22358.4 452.988   4
   9  -4   2 24189.3 530.720   2
  -9   5  -2 24673.4 612.776   1
   9  -5   2 24272.4 554.600   2
  -4   9  -2 25128.8 692.788   2
  -5   9  -2 24675.3 685.290   2
  -9   4   2 25370.4 455.625   2
   4  -9   3 6751.37 203.399   4
   4  -9   3 7341.10 365.575   2
  -9   5  -3 7025.57 345.243   1
   4   5  -3 7393.95 264.177   1
   5   4  -3 7699.43 227.982   1
  -9   4   3 5086.30 211.510   2
   5  -9  -3 6586.77 243.331   4
  -9   5   3 5044.93 233.230   2
   5  -9   3 6508.51 226.985   3
  -9   4  -3 6766.60 327.386   1
  -4  -5   3 6911.55 202.659   5
  -5  -4   3 6820.08 207.242   5
   4  -9   3 6660.27 230.532   3
   5  -9   3 7118.69 364.106   2
   4  -9  -3 6724.56 245.665   4
   9  -5   3 6805.61 305.676   2
   9  -4   3 6750.46 299.773   2
   5  -9   3 7085.94 209.146   4
   5  -9  -4 6284.95 243.396   4
   4  -9   4 6083.66 225.090   3
   9  -5   4 6068.22 318.411   2
   4  -9  -4 6115.49 240.809   4
  -4  -5   4 6360.59 209.311   5
  -9   5  -4 6579.84 367.491   1
  -4  -5   4 4429.61 230.697   2
   5  -9   4 6232.95 226.076   3
   5   4   4 6417.24 329.885   1
  -9   4  -4 4435.49 291.027   1
   4   5  -4 6840.07 273.525   1
  -5  -4   4 6437.24 216.472   5
   4  -9   5 8743.05 275.906   3
   5  -9  -5 8531.44 294.799   4
  -5  -4   5 8772.85 274.785   5
  -4  -5   5 8396.10 238.228   3
   5  -9   5 8826.43 280.981   3
   4  -9  -5 8477.39 298.104   4
  -4  -5   5 8840.24 268.817   5
   5  -9   6 17978.9 423.957   3
  -5  -4   6 17622.1 421.556   5
  -4  -5   6 17400.6 414.033   5
   5  -9  -6 16706.2 433.604   4
   4  -9   6 17724.1 423.731   3
   4  -9  -6 17735.6 446.819   4
   5  -9   7 4431.36 221.808   3
   4  -9   7 4660.41 224.877   3
  -5  -4   7 4423.72 220.722   5
   9  -5  -7 4641.51 222.085   4
   4  -9  -7 4387.48 229.831   4
   5  -9  -7 4246.59 224.696   4
   9  -4  -7 4446.82 213.898   4
  -4  -5   7 4460.97 219.953   5
   4  -9  -8 5070.45 253.677   4
  -5  -4   8 5151.46 252.809   5
  -4  -5   8 4875.86 243.055   5
   5  -9   8 5315.60 252.961   3
   5  -9  -8 4725.42 243.009   4
   4  -9   8 4848.95 241.163   3
   5  -9   9 1652.86 155.490   3
  -4  -5   9 1617.81 158.405   5
   4  -9   9 1760.61 157.329   3
  -5  -4   9 1619.23 158.630   5
  -5  -4  10 1610.25 171.351   5
  -4  -5  10 1509.30 167.269   5
   4  -9  10 1892.65 177.948   3
   5  -9  10 1612.10 163.997   3
   4  -9  10 1877.69 188.136   5
  -5  -4  11 663.641 129.788   5
  -4  -5  11 571.204 126.837   5
   5  -9  11 536.273 135.145   5
   5  -9  11 347.807 87.0007   3
   4  -9  11 590.320 136.076   5
   4  -9  12 13.7811 19.6078   6
  -9   4  12 9.81507 22.1805   6
  -9   5  12 63.3901 22.9391   6
   9  -5  12-39.9204 92.1911   3
   5  -9  12 47.9486 85.8576   5
  -5  -4  12 32.9512 91.1505   5
  -4  -5  12-36.3473 88.9463   5
   4  -9  12-10.9404 95.7705   5
   5  -9  13-28.5414 88.3559   5
   4  -9 -13 72.1489 20.9532   7
  -4  -5  13 152.575 97.5712   5
   9  -4  13 108.341 89.2331   5
   4  -9  13-22.0768 21.1617   6
  -5   9  13-10.3200 20.5287   6
  -5  -4  13-9.05496 29.0554   6
  -9   5  13 57.6969 23.6362   6
   4  -9  13 83.6678 95.5493   5
  -4  -5  13-1.49368 28.2685   6
   9  -4  13 139.754 93.2843   3
   9  -5  13-60.9706 76.5296   3
  -5  -4  13 60.2638 92.4040   5
  -9   4  13 14.4473 23.9626   6
   5  -9  13 10.0116 19.4467   6
   4  -9  14 49.5866 27.2153   6
  -4  -5  14 131.055 99.1921   5
   9  -5  14 154.064 92.0154   5
   9  -4  14 186.264 86.6255   5
  -9   5  14 171.685 29.7513   6
   5  -9 -14 228.958 25.7711   7
  -5  -4  14 67.2803 35.7876   6
  -5  -4  14 99.6016 87.7453   5
  -4  -5  14 47.3167 34.5459   6
   4  -9  14 242.400 112.049   5
  -5   9  14 1.81052 23.0605   6
   5  -9  14 45.9331 25.3725   6
   4  -9 -14 122.346 21.1005   7
  -9   4  14 121.769 28.6066   6
   5  -9  14 208.398 109.489   5
  -4  -5  15 27.0232 38.2756   6
   5  -9 -15-20.2984 20.5472   7
   5  -9  15 26.3734 26.7370   6
   4  -9  15 19.7878 29.2052   6
  -9   4  15 54.8616 30.3160   6
  -5  -4  15 78.0291 37.8369   6
  -9   5  15 85.8704 30.5350   6
  -9   5  16 6.43171 27.8977   6
  -4  -5  16 47.4012 37.5358   6
  -9   4  16 29.0904 29.8405   6
   4  -9  16-18.0475 30.2053   6
  -5  -4  16 2.71672 34.5746   6
   5  -9  16-18.0784 26.3885   6
  -9   5  17 21.3861 27.2121   6
   4  -9  17 0.20468 27.4328   6
  -5  -4  17 16.4574 30.6021   6
  -4  -5  17 36.7066 33.4588   6
  -9   4  17 0.36973 27.2062   6
   5  -9  17 6.45633 25.7684   6
  -5  -4  18-3.95159 23.8447   6
  -4  -5  18 36.9133 25.1294   6
   5  -9  18 13.9512 20.0969   6
   9  -5 -18 16.9228 13.0604   7
   4  -9  18-6.18286 21.9253   6
   5  -9  19 13.2039 12.3842   6
   4  -9  19-6.70132 13.5642   6
  -4  -5  19 16.9752 17.5589   6
  -5  -4  19 4.90443 17.1435   6
  -9   3   0 1935.52 112.757   1
   6  -9   0 1693.31 107.821   3
   3   6   0 1685.20 134.889   2
  -6   9   0 1803.95 180.553   2
   9  -6   0 1670.75 89.5180   3
   3  -9   0 1794.51 121.032   3
   6  -9   0 1806.84 117.167   4
  -3   9   0 1812.42 179.925   2
   3  -9   0 1740.73 121.086   4
   3  -9  -1 828.612 94.2496   4
  -3   9  -1 810.832 128.625   2
   9  -3   1 1029.04 96.7523   2
   6   3   1 834.256 84.0668   1
  -6   9  -1 1050.20 147.465   2
   6  -9  -1 824.046 89.0779   4
  -9   3  -1 1058.97 102.452   1
   9  -6   1 863.814 109.497   2
   6  -9   1 821.913 83.1617   4
  -9   6   1 818.157 107.522   2
  -3   9   1 1078.56 139.937   2
   3  -9   1 946.122 88.9269   4
   3  -9  -1 736.536 81.1900   3
   3   6  -1 828.326 101.093   2
   6  -9  -1 869.484 78.7923   3
   3  -9   1 930.575 92.1971   3
   6  -9   1 928.098 85.5720   3
  -6   9   1 977.736 145.612   2
  -9   3  -2 915.252 113.461   1
   6  -9   2 1060.77 96.6467   3
   6  -9  -2 973.713 101.283   4
   3  -9   2 1039.56 103.526   3
  -9   6   2 923.586 116.806   2
   6  -9  -2 868.500 78.3311   3
   6  -9   2 1009.44 137.772   2
   6  -9   2 617.947 72.1759   4
   6   3   2 965.636 108.274   1
   3  -9  -2 1014.83 104.758   4
  -6   9  -2 960.957 144.546   2
  -3   9  -2 820.228 132.823   2
   9  -3   2 842.725 101.266   2
  -3  -6   2 796.939 66.4797   5
   3  -9   2 632.168 71.5557   4
   9  -6   2 755.666 111.897   2
   3  -9   3 1743.51 184.742   2
  -3  -6   3 1345.62 99.9110   3
   6  -9   3 1462.36 112.458   3
  -3  -6   3 1417.76 92.0120   5
   6  -9  -3 1434.88 119.716   4
   6  -9   3 1680.90 105.533   4
  -9   6  -3 1709.95 187.525   1
  -9   3   3 1583.23 95.9109   2
   3  -9   3 1520.96 113.245   3
   9  -6   3 1543.83 158.169   2
   3  -9   3 1403.43 94.1897   4
   6   3   3 1438.96 141.464   1
  -9   3  -3 1071.53 128.665   1
   3  -9  -3 1640.49 131.651   4
  -9   3   3 1438.99 90.5107   1
   6  -9   4 58.6628 56.2643   3
  -3  -6   4 51.4847 45.1339   5
  -3  -6   4 73.1479 43.4798   2
   9  -6   4 5.87140 60.8353   2
   3  -9  -4 50.2553 62.5048   4
  -9   3  -4 77.5276 66.2896   1
  -6  -3   4 49.9012 48.9992   5
   6   3   4 43.9786 70.4216   1
   3   6  -4 26.5549 47.8858   1
   3  -9   4 69.1378 55.2677   3
   6  -9  -4 58.8410 60.2360   4
  -3  -6   4 24.0801 38.2603   3
  -6  -3   5 56.0285 56.1847   5
  -3  -6   5 157.731 56.7450   5
   3  -9  -5 26.8538 61.8830   4
   6  -9  -5 182.049 70.6810   4
  -3  -6   5 109.572 38.1720   3
   3  -9   5 11.7990 49.6512   3
  -3  -6   5 76.5302 60.8720   2
   6  -9   5 215.455 68.2810   3
  -6  -3   6 2141.66 152.997   5
   3  -9   6 2079.36 149.203   3
  -3  -6   6 2269.59 149.423   5
   6  -9   6 2182.98 157.876   3
   3  -9  -6 2147.30 162.097   4
   6  -9  -6 2135.49 158.698   4
   9  -6  -6 2010.47 149.568   4
   6  -9   7 55.0057 58.9512   3
  -3  -6   7 64.8843 60.0343   5
  -6  -3   7 87.8209 66.8091   5
   3  -9   7 42.5527 60.5495   3
   6  -9  -7 124.440 66.1477   4
   9  -6  -7 35.6215 54.5823   4
   3  -9  -7-14.9383 63.8012   4
  -3  -6   8 102.917 72.2639   5
  -6  -3   8 165.932 78.4011   5
   3  -9  -8 95.2979 65.3000   4
   6  -9  -8 258.044 76.6370   4
   6  -9   8 176.018 76.9835   3
   3  -9   8 199.049 75.8035   3
   3  -9   9-14.2393 59.2182   3
  -6  -3   9 37.9555 78.7126   5
   3  -9   9 66.3414 76.3592   5
   6  -9   9 69.6048 75.5652   3
  -3  -6   9 109.955 73.9660   5
  -6  -3  10 42.3201 84.2857   5
   3  -9  10 43.4952 82.9792   5
  -3  -6  10 76.3556 87.1159   5
   3  -9  10 72.1918 68.1725   3
   6  -9  10 33.5528 74.2538   3
   3  -9  11 182.960 104.623   5
  -3  -6  11 176.924 91.7562   5
   9  -6  11 274.165 101.684   3
   6  -9  11 213.963 93.5225   3
  -6  -3  11 191.045 96.2447   5
  -9   6  12 9.27936 20.2498   6
   3  -9  12-6.95150 19.7651   6
  -3  -6  12 11.0420 91.7149   5
   6  -9  12-23.2528 96.3336   5
   3  -9  12-90.7313 100.768   5
  -9   3  12 18.6689 23.3858   6
   6  -9  12-5.50679 18.1111   6
  -6  -3  12-38.3656 27.4561   6
  -3  -6  12 22.5229 22.7498   6
   9  -6  12 75.3157 82.0253   3
  -6  -3  12 40.6135 87.1045   5
   6  -9  12-8.90738 61.8964   3
  -9   6  13 106.059 25.6279   6
   6  -9  13 39.7737 20.1015   6
   3  -9  13 308.452 120.894   5
  -6  -3  13 47.3965 30.9086   6
  -6  -3  13 251.922 115.190   5
   3  -9  13 37.9812 24.4710   6
   9  -6  13 112.956 94.2629   3
   6  -9  13 200.967 109.229   5
  -9   3  13 118.638 27.6887   6
  -3  -6  13 182.585 109.892   5
  -3  -6  13 42.1682 29.0170   6
   9  -3  13 157.926 86.6352   5
  -6   9  13 3.77295 21.9567   6
   6  -9  14 41.1445 99.7199   5
  -6  -3  14 46.4616 34.0915   6
  -6   9  14 8.43186 22.0452   6
  -3  -6  14 32.3555 32.9217   6
   3  -9  14-6.23256 26.9255   6
  -9   6  14 38.9642 27.1729   6
   9  -6  14 0.28642 102.168   5
   6  -9  14 0.77718 22.3524   6
  -9   3  14 63.3179 28.7654   6
  -6  -3  14-100.568 96.0842   5
   3  -9  14 115.487 106.065   5
  -9   6  15 21.4085 28.4823   6
  -6  -3  15-16.9839 36.6652   6
  -3  -6  15 4.33319 38.0490   6
   6  -9 -15 20.0448 21.5239   7
  -9   3  15 13.3094 29.5627   6
   3  -9  15-5.06134 31.6776   6
   6  -9  15-33.1157 25.0057   6
  -9   6  16-8.25438 27.5317   6
  -9   3  16-1.34190 30.3224   6
   3  -9  16-12.2662 32.9007   6
   6  -9  16-49.6496 26.0619   6
   6  -9 -16-13.6020 19.7672   7
  -6  -3  16 0.87186 34.0513   6
  -3  -6  16 11.3264 37.9391   6
  -9   3  17-3.98016 28.7548   6
   6  -9  17-5.95836 23.5853   6
  -3  -6  17 14.1138 33.9271   6
   3  -9  17 34.8605 31.4998   6
  -6  -3  17-19.1486 29.8779   6
  -6  -3  18-27.3565 24.2709   6
   3  -9  18-29.2892 23.9868   6
  -3  -6  18 18.1167 25.1946   6
   9  -6 -18 10.6502 12.4817   7
   6  -9  18 20.4723 18.3238   6
  -3  -6  19-20.2185 16.6556   6
  -6  -3  19-2.74253 17.8934   6
   3  -9  19-0.04003 13.8873   6
   6  -9  19 0.70673 11.7944   6
  -7   9   0 12466.1 473.800   2
   7   2   0 10700.6 192.444   2
   2   7   0 10086.1 359.367   2
  -2   9   0 11487.9 441.218   2
   2  -9   0 11375.4 299.162   4
   7  -9   0 11245.0 267.943   3
   7   2   0 10451.5 186.755   1
  -9   7   0 11662.0 419.451   2
   9  -7   0 10964.4 237.452   3
   2  -9   0 11228.1 297.608   3
   7  -9   0 11180.5 293.682   4
   9  -7  -1 9127.94 200.994   3
  -7   9  -1 9251.66 412.088   2
   2  -9   1 9200.46 262.395   4
   7  -9  -1 9244.05 270.337   4
   2   7  -1 8844.62 334.871   2
   7  -9   1 9428.63 253.726   3
   2  -9   1 9306.95 268.629   3
   9  -7   1 9309.22 356.284   2
   2  -9  -1 9296.17 279.998   4
  -7   9   1 9681.48 422.945   2
   7  -9  -1 8993.13 230.649   3
   9  -2   1 10325.5 272.915   2
   7  -9   1 9710.99 267.833   4
   9  -7   1 8931.99 228.612   3
   7   2   1 10289.0 259.967   1
  -2   9  -1 9453.90 400.409   2
  -9   7   1 9416.56 368.791   2
   7   2   2 8372.40 284.597   1
  -2  -7   2 7333.49 233.705   3
   2   7  -2 7967.74 324.733   2
   7  -9   2 7879.86 238.636   3
   7  -9   2 7982.05 370.010   2
  -9   7   2 7286.28 326.802   2
   7  -9   2 7717.89 232.663   4
   9  -7   2 8459.30 353.104   2
   2  -9  -2 7436.25 260.630   4
   2  -9   2 6202.87 206.204   4
   7  -9  -2 7383.46 251.665   4
  -7   9   2 7931.94 381.587   2
  -2   9  -2 7821.68 371.272   2
   7  -9  -2 7503.15 207.848   3
   2  -9   2 7377.58 243.266   3
  -2  -7   2 7416.21 183.632   5
   7  -9   3 7209.65 220.346   4
   7  -9   3 7134.05 236.860   3
   9  -7   3 6987.08 344.514   2
   2  -9  -3 7135.01 261.229   4
   2  -9   3 6523.32 209.547   4
   7   2   3 7364.34 310.024   1
   2  -9   3 7120.38 237.762   3
  -2  -7   3 7041.71 197.367   5
   2  -9   3 7356.23 364.700   2
  -2  -7   3 7042.05 231.062   3
   7  -9  -3 7323.05 255.229   4
  -9   7  -3 7330.25 382.161   1
  -2  -7   4 852.719 85.3359   5
   2  -9  -4 1152.50 123.759   4
   7   2   4 999.367 142.158   1
  -2  -7   4 692.368 114.345   2
   7  -9   4 1194.92 116.238   3
  -2  -7   4 1122.98 104.446   3
   7  -9  -4 1149.12 120.397   4
   2  -9   4 945.597 105.650   3
   2   7  -5 2913.91 239.280   1
   7  -9   5 3127.77 175.526   3
  -7  -2   5 3114.64 175.442   5
   2  -9   5 3194.81 180.202   3
   7  -9  -5 3208.89 186.450   4
  -2  -7   5 3102.32 162.323   5
   9  -7  -5 2808.76 176.059   4
  -2  -7   5 3090.70 168.209   3
  -2  -7   5 3187.75 243.643   2
   2  -9  -5 3117.09 188.982   4
  -7  -2   6 5795.96 249.423   5
   9  -7  -6 5204.51 240.138   4
   7  -9   6 5982.73 253.418   3
   2  -9  -6 5213.56 250.710   4
  -2  -7   6 5669.48 232.364   5
   7  -9  -6 5818.70 252.984   4
   2  -9   6 5700.46 236.576   3
   2  -9   7 5917.07 251.564   5
   7  -9  -7 5915.77 268.694   4
   2  -9   7 6093.92 255.766   3
   7  -9   7 6218.52 270.490   3
   9  -7  -7 5703.78 259.530   4
  -7  -2   7 6052.21 273.528   5
   2  -9  -7 5803.44 266.680   4
  -2  -7   7 6089.88 257.219   5
   2  -9  -8 1199.17 134.177   4
   2  -9   8 1263.97 127.372   3
   7  -9  -8 1325.61 136.114   4
  -2  -7   8 1270.57 137.729   5
   2  -9   8 1283.08 135.155   5
  -7  -2   8 1229.56 144.808   5
   7  -9   8 1356.04 142.828   3
  -2  -7   9 1264.29 145.643   5
   7  -9   9 1146.04 144.181   3
  -7  -2   9 1297.79 157.194   5
   2  -9   9 1291.98 140.128   3
   2  -9   9 1246.79 148.397   5
   2  -9  10 74.6809 86.7951   5
   7  -9  10 14.5380 74.6623   3
   9  -7  10 87.0071 93.7083   3
  -7  -2  10 59.7514 83.2678   5
  -2  -7  10 60.9633 90.2812   5
  -2  -7  11-6.09073 83.5756   5
  -7  -2  11-11.1165 86.9725   5
   2  -9  11-9.73532 88.4830   5
   9  -7  11 54.6010 82.9495   3
   7  -9  11-8.62444 78.5459   3
  -9   2  12 137.768 28.1045   6
   2  -9  12 82.0206 22.7705   6
   7  -9  12 21.9608 17.1046   6
   7  -9  12 96.1686 109.021   5
  -7  -2  12 63.2746 27.8607   6
   2  -9  12 123.693 105.814   5
  -7   9  12 14.7554 20.7808   6
  -2  -7  12 56.0141 24.9635   6
   7  -9  12 43.4313 77.7552   3
  -2  -7  12 44.9889 84.6235   5
  -7  -2  12-44.5742 91.9594   5
   9  -7  12 48.6651 87.2673   3
  -9   7  12 70.1430 22.6745   6
   7  -9  13-42.3329 22.5954   6
   9  -7  13 103.255 108.488   5
  -9   7  13 126.977 26.5398   6
   7  -9  13 74.2108 108.923   5
   2  -9  13 67.0775 29.8990   6
   9  -7  13 84.8291 87.5807   3
  -2  -7  13 39.0707 30.7680   6
  -7  -2  13 95.2056 106.416   5
   2  -9  13 111.400 109.410   5
  -2  -7  13-28.7448 96.8333   5
  -7   9  13 72.4268 25.6726   6
  -9   2  13 141.906 31.6289   6
  -7  -2  13 71.8886 33.8437   6
   9  -7  13 14.4800 18.5976   6
  -9   2  14 60.2209 30.2106   6
  -7  -2  14 6.79909 33.5231   6
   9  -7  14-7.53226 18.8647   6
  -7   9  14-9.08021 24.0239   6
  -2  -7  14 25.7333 33.6492   6
   2  -9  14 7.36549 30.0047   6
   7  -9  14-7.99640 21.0632   6
  -9   7  14 19.5005 25.9787   6
   2  -9  15 48.7667 35.9521   6
   7  -9 -15 34.0834 23.4800   7
  -9   2  15 61.6088 32.5935   6
   9  -7  15 11.8339 22.6307   6
  -2  -7  15 66.1033 40.8788   6
  -9   7  15 24.3068 28.7650   6
   7  -9  15-67.2518 25.0943   6
  -7  -2  15 44.7170 36.1880   6
   7  -9  16-33.0806 23.8149   6
  -7  -2  16 72.4167 34.5684   6
  -9   2  16 126.692 33.2428   6
   7  -9 -16 9.08932 20.6549   7
  -2  -7  16 94.4516 43.4327   6
   2  -9  16 186.792 42.3067   6
  -9   2  17 37.0279 29.4647   6
   2  -9  17 72.7588 35.7234   6
   9  -7 -17 17.3267 17.8827   7
   7  -9  17 31.6694 23.2028   6
  -2  -7  17 65.9573 36.9641   6
   7  -9 -17 25.6994 17.0631   7
  -7  -2  17 10.1081 29.5529   6
  -9   2  18 21.1423 25.2313   6
   7  -9  18 13.9598 17.4592   6
  -2  -7  18 31.1222 25.6980   6
   2  -9  18 57.4706 26.2363   6
   9  -7 -18-7.92016 12.4518   7
  -7  -2  18 8.43280 24.6228   6
  -2  -7  19 12.7515 17.1609   6
  -7  -2  19 4.09384 18.0460   6
   2  -9  19 39.7646 16.6973   6
   7  -9  19-9.24264 10.5156   6
   9  -8   0 4184.44 151.104   3
   8  -9   0 4332.45 162.379   3
   1  -9   0 4225.67 183.954   4
   1   8   0 4284.65 249.458   2
   1  -9   0 4350.29 186.980   3
  -9   8   0 4325.82 267.987   2
   8  -9   0 4164.87 181.157   4
  -8   9   0 4608.85 293.084   2
  -1   9   0 4440.48 275.608   2
   1  -9   1 4864.36 192.100   4
   9  -8   1 5285.21 178.429   3
   8  -9  -1 4860.31 165.881   3
  -8   9   1 5466.51 318.320   2
  -9   8   1 5217.84 295.677   2
   8  -9   1 4988.53 184.112   3
   1   8  -1 4836.38 266.692   2
   8  -9  -1 5074.14 204.946   4
  -1   9  -1 5183.28 297.169   2
  -1  -8  -1 4695.91 204.328   4
   1  -9  -1 5104.20 211.393   4
   9  -8  -1 4993.60 154.738   3
   9  -1   1 5817.53 187.926   2
   1  -9   1 5315.78 206.765   3
  -8   9  -1 5500.07 327.772   2
   8  -9   1 5000.90 196.917   4
   9  -8   2 796.867 81.2953   3
  -9   8   2 597.090 105.723   2
   8  -9   2 829.656 83.2082   3
   8  -9  -2 892.598 100.715   4
   1  -9   2 857.046 93.2220   3
  -1   9  -2 800.028 122.012   2
   1  -9  -2 762.238 95.4936   4
   8  -9  -2 816.553 68.3522   3
   9  -8   2 835.605 123.332   2
  -1  -8  -2 749.345 92.7379   4
   8  -9   2 879.011 85.6626   4
   1  -9   2 825.642 83.6546   4
   8   1   2 868.905 93.8547   1
   1   8  -2 854.711 119.739   2
  -8   9   2 834.338 136.038   2
  -1  -8   2 855.242 61.6097   5
  -1  -8   2 899.236 94.1638   3
   8  -9   2 714.612 127.082   2
  -1  -8  -3 433.944 85.6714   4
   1  -9  -3 438.802 85.1626   4
   9  -8  -3 455.446 81.2806   4
   8  -9  -3 414.442 81.4820   4
  -1  -8   3 487.562 75.1169   3
   8  -9   3 443.396 76.9703   3
   8  -9   3 218.675 47.0566   4
   8   1   3 544.735 93.1942   1
   1  -9   3 488.391 79.1798   3
  -1  -8   3 273.525 44.4156   5
   9  -8   3 440.217 69.9054   3
   1  -9   3 318.675 46.7232   5
   9  -8   4 6232.01 235.222   3
   9  -8  -4 5844.23 246.725   4
   1  -9   4 6303.04 232.975   3
   8  -9  -4 5887.90 241.911   4
   8  -9   4 6082.67 229.182   3
   1  -9  -4 5964.47 256.750   4
  -1  -8   4 6016.43 331.076   2
  -1  -8  -4 5853.06 250.339   4
   8   1   4 6311.44 325.448   1
   1  -9   4 5979.34 196.824   5
  -1  -8   4 6212.79 228.783   3
  -1  -8   4 5851.46 198.132   5
  -1  -8   5 63.3463 55.4422   5
   8  -9  -5 87.7947 74.7418   4
  -1  -8   5 243.276 101.656   2
   8  -9   5 141.005 72.6846   3
   9  -8  -5 21.1532 66.4136   4
   1  -9  -5 86.2801 72.1911   4
  -1  -8   5 52.8844 52.9059   3
   1  -9   5 62.0505 50.0558   5
   9  -8   5 98.7764 72.9493   3
   1  -9   5 106.922 67.9939   3
   8  -9  -6 901.759 116.546   4
   1  -9   6 851.502 101.629   3
  -1  -8   6 893.377 100.173   3
  -8  -1   6 910.110 112.591   5
   1  -9  -6 839.488 119.211   4
  -1  -8   6 909.497 102.474   5
   1  -9   6 823.526 95.0479   5
   8  -9   6 820.698 106.720   3
   9  -8   6 911.300 117.927   3
   9  -8  -6 911.363 111.960   4
   9  -8   7 843.700 120.757   3
  -1  -8   7 826.847 100.983   3
   8  -9  -7 908.475 123.961   4
   1  -9   7 795.699 106.289   3
  -1  -8   7 666.734 106.940   5
   1  -9  -7 784.993 120.175   4
  -8  -1   7 860.996 128.452   5
   8  -9   7 824.271 117.702   3
   9  -8  -7 859.313 114.545   4
   1  -9   7 771.847 101.361   5
   1  -9  -8 17.1605 70.7263   4
   1  -9   8 80.6024 71.6617   5
   8  -9  -8-45.0547 70.9930   4
   9  -8  -8 14.5128 59.2411   4
   8  -9   8 69.8549 79.4379   3
  -8  -1   8 38.6715 80.2750   5
   9  -8   8 69.3081 84.6797   3
  -1  -8   8 35.0307 73.1785   5
   1  -9   8 39.6586 53.4788   3
  -1  -8   9 270.281 94.9529   5
   1  -9   9 251.473 93.5623   5
   8  -9   9 235.448 89.7516   3
   9  -8   9 305.807 100.983   3
  -8  -1   9 195.217 95.0364   5
  -1  -8  10 604.446 131.750   5
  -8  -1  10 657.023 135.478   5
   9  -8  10 614.693 124.673   3
   8  -9  10 409.228 109.995   3
   1  -9  10 543.447 121.681   5
   1  -9  11 68.3100 93.8680   5
   8  -9  11 15.1367 82.2082   3
   9  -8  11 33.8039 90.3003   3
  -1  -8  11 174.249 98.7387   5
  -8  -1  11 121.278 91.2197   5
  -9   8  12 50.7747 22.3313   6
   1  -9  12-36.4035 89.1578   5
  -8   9  12 31.3320 22.5834   6
   8  -9  12-6.55220 17.5865   6
  -1  -8  12 9.15654 23.1041   6
  -8  -1  12-13.6562 86.3074   5
   9  -8  12 50.7206 82.3313   3
   8  -9  12 28.7032 86.4638   3
  -1  -8  12-15.1123 87.8416   5
   1  -9  12 28.6091 22.0520   6
   9  -8  12 1.03058 15.8966   6
  -8  -1  12 101.815 28.7819   6
  -9   1  12 69.4660 27.8951   6
  -1  -8  13 255.668 32.7796   6
  -9   8  13 278.905 30.0783   6
   9  -8  13 313.986 133.702   5
  -8  -1  13 259.463 36.0806   6
  -9   1  13 184.714 31.1960   6
   8  -9  13 279.981 127.702   5
   1  -9  13 70.6409 29.1718   6
   8  -9  13 272.457 103.473   3
   8  -9  13 22.7091 20.3098   6
  -1  -8  13 47.7117 100.461   5
  -8   9  13 86.3292 26.9551   6
   9  -8  13 22.0072 70.4836   3
   1  -9  13 266.373 121.866   5
   8  -9  14-21.2025 21.6085   6
  -8   9  14 88.8100 28.1320   6
  -9   8  14 22.0015 27.0098   6
   1  -9  14 76.8458 34.3302   6
  -9   1  14 98.9789 31.6616   6
  -8  -1  14 68.3010 32.6734   6
  -1  -8  14-10.6846 33.5435   6
   9  -8  14-47.1832 22.3046   6
   1  -9  15 15.8531 36.9486   6
  -8  -1  15 25.7106 33.5720   6
  -1  -8  15 22.9694 39.6111   6
  -9   8  15 2.73037 28.4611   6
  -9   1  15 36.2110 32.2405   6
   8  -9  15-80.2567 24.7503   6
  -9   1  16-4.21609 31.0449   6
  -8  -1  16 2.06376 32.3913   6
   9  -8  16 29.4448 22.9097   6
   8  -9  16-51.2466 24.1474   6
  -1  -8  16 56.5936 42.9043   6
   8  -9 -16 10.9315 21.4496   7
   1  -9  16 39.3985 41.1500   6
  -8  -1  17-7.46197 28.3136   6
  -1  -8  17-9.44511 35.1392   6
   8  -9 -17-11.1458 16.6717   7
   9  -8 -17 3.87322 17.5557   7
   9  -8  17 82.1594 20.7527   6
   1  -9  17 3.84855 34.5741   6
   8  -9  17-3.42717 20.6611   6
  -9   1  17 3.29552 27.9615   6
   1  -9  18-6.92817 25.8031   6
  -9   1  18 10.1865 23.6916   6
   8  -9  18 22.1943 16.2005   6
  -8  -1  18 30.5339 23.8898   6
   9  -8 -18-22.1812 11.8208   7
  -1  -8  18-3.07258 25.4267   6
   1  -9  19-1.15481 14.7839   6
  -1  -8  19 9.03048 16.2611   6
  -9   9   0 29027.6 762.868   2
   9  -9   0 27817.3 509.058   4
   0   9   0 27242.8 698.431   2
   0  -9   0 27164.1 508.327   4
   9  -9   0 27619.1 444.271   3
   9  -9  -1 30477.0 464.930   3
   9  -9   1 31209.5 499.349   3
  -9   9   1 31611.5 786.845   2
   0  -9   1 31623.4 553.266   3
  -9   9  -1 32970.3 833.460   2
   0   9  -1 31365.7 754.050   2
   9  -9  -1 32372.3 566.305   4
   9   0   1 33997.3 486.105   2
   0  -9  -1 31273.3 565.323   4
   9  -9  -2 21714.3 358.448   3
   9  -9   2 22170.7 420.245   3
   9  -9   2 21554.3 432.591   4
   0  -9  -2 22081.2 473.720   4
   9  -9   2 21974.4 647.667   2
   0  -9   2 23333.1 459.283   3
   0   9  -2 22427.9 641.191   2
   9  -9  -2 22133.7 465.089   4
   0  -9  -3 11887.7 347.371   4
   0  -9   3 12452.7 330.696   3
  -9   9   3 12105.7 485.648   2
   9  -9   3 12378.9 313.427   3
   0  -9   3 11560.7 256.537   5
   9  -9  -3 12020.8 345.937   4
   9  -9   4 33650.5 581.549   3
   9  -9  -4 33636.5 621.972   4
   9  -9   4 33882.4 550.347   4
   0  -9   4 34159.9 595.787   3
   0  -9   4 33871.9 526.846   5
   0  -9  -4 33383.0 649.415   4
   9  -9   5 32905.4 604.247   3
   0  -9   5 32782.9 548.456   5
   0  -9   5 31893.9 583.198   3
   9  -9  -5 32369.9 633.489   4
   0  -9  -5 33224.5 652.203   4
   0  -9  -6 12156.1 393.657   4
   9  -9  -6 12167.7 380.054   4
   0  -9   6 12423.4 358.066   3
   9  -9   6 12643.3 372.573   3
   0  -9   6 12099.7 343.659   5
   9  -9   7 10655.2 364.237   3
   9  -9  -7 9838.10 360.437   4
   0  -9   7 9926.22 332.668   3
   0  -9   7 10049.1 336.202   5
   0  -9   8 3143.99 208.606   5
   9  -9  -8 3493.86 217.272   4
   0  -9   8 3259.41 198.489   3
   9  -9   8 3225.07 214.611   3
   9  -9   9 3775.22 242.926   3
   0  -9   9 4057.87 244.600   5
   0  -9  10 5466.80 304.834   5
   9  -9  10 5313.46 298.754   3
   0  -9  11 1023.78 156.085   5
   9  -9  11 998.168 151.468   3
  -9   9  12 43.1082 23.6252   6
   9  -9  12 16.1110 17.1659   6
  -9   0  12 152.098 28.6201   6
   0  -9  12 35.4451 23.2704   6
   9  -9  12 135.047 85.8238   3
  -9   9  13 136.019 28.1828   6
  -9   0  13 225.082 30.7336   6
   9  -9  13 51.0331 17.8077   6
   0  -9  13 83.8131 29.0943   6
   0  -9  13 184.764 108.225   5
   9  -9  13 142.758 104.707   5
   9  -9  13 164.485 84.1235   3
  -9   9  14 124.613 30.8870   6
  -9   0  14 174.177 32.8725   6
   0  -9  15-81.5796 39.6486   6
  -9   0  15 23.6313 30.4787   6
   9  -9 -16-20.4094 21.6948   7
   9  -9  16-22.6239 20.4162   6
   0  -9  16-80.3605 41.0966   6
  -9   0  16-6.15611 30.4336   6
   0  -9  17-0.50307 34.4180   6
  -9   0  17-29.1252 27.7592   6
   9  -9 -17-12.6394 18.1414   7
   9  -9  17 21.0207 19.1145   6
   9  -9 -18-2.30788 11.3277   7
  -9   0  18-3.62606 24.0899   6
   0  -9  18 35.4801 26.3445   6
   0  -9 -19 9.62034 14.3965   8
   0  -9  19 14.5385 14.4871   6
   5 -10   0 29907.4 538.096   4
   5   5   0 30627.4 559.483   2
  -5  10   0 31822.2 811.420   2
   5 -10   0 30691.2 513.184   3
  -5  10  -1 91059.0 1502.09   2
 -10   5  -1 82182.3 1225.48   1
   5   5  -1 100404. 1113.56   2
   5 -10  -1 90728.0 1108.90   4
   5 -10   1 91930.9 1077.42   4
  10  -5   1 97613.0 1243.67   2
   5 -10   1 90751.3 1065.43   3
   5 -10  -1 89784.0 1052.86   3
  10  -5   2 59062.8 936.408   2
   5 -10   2 57808.2 771.313   3
   5 -10  -2 56860.1 797.015   4
   5 -10   2 58821.6 755.275   4
  -5  -5   3 8520.27 235.032   5
   5 -10  -3 8658.78 292.876   4
  10  -5   3 8857.41 362.333   2
   5 -10   3 8482.59 248.083   4
   5 -10   3 8493.40 265.841   3
   5 -10  -4 67624.0 962.917   4
   5   5   4 71581.8 1233.51   1
   5 -10   4 70571.3 931.045   3
  -5  -5   4 70325.1 877.366   5
  10  -5   4 70086.3 1202.67   2
   5 -10   5 74592.4 999.494   3
  -5  -5   5 78063.0 985.360   5
   5 -10  -5 76773.3 1067.48   4
   5 -10   6 44613.6 745.291   3
   5 -10  -6 44075.6 779.982   4
  -5  -5   6 45619.0 735.113   5
   5 -10   7 7526.32 297.179   3
  -5  -5   7 7380.18 289.131   5
   5 -10  -7 7271.03 303.629   4
  10  -5  -7 7446.39 293.091   4
   5 -10   8 15701.5 448.732   3
   5 -10  -8 15744.4 470.037   4
  -5  -5   8 15726.6 453.808   5
   5 -10   9 4327.20 249.452   3
  -5  -5   9 3774.95 241.142   5
   5 -10  10 5628.82 298.270   3
   5 -10  10 5823.09 315.881   5
  -5  -5  10 5262.63 298.169   5
   5 -10  11 1077.02 142.223   3
   5 -10  11 1543.46 187.471   5
  -5  -5  11 1304.57 166.463   5
 -10   5  12 158.561 24.2684   6
   5 -10  12 280.947 111.177   5
   5 -10 -12 151.663 22.5833   7
  -5  -5  12 129.628 27.8351   6
   5 -10  12 156.584 21.8935   6
  -5  -5  12 237.207 112.070   5
  -5  -5  13 960.383 160.433   5
   5 -10  13 605.560 32.9764   6
   5 -10 -13 753.499 35.1442   7
  10  -5  13 790.467 144.599   3
  -5  -5  13 741.969 42.0583   6
 -10   5  13 890.657 39.0560   6
 -10   5  14 394.564 35.0395   6
  -5  -5  14 327.926 40.3396   6
   5 -10 -14 430.003 29.1698   7
   5 -10  15-15.3407 28.4036   6
  -5  -5  15 27.7908 39.3687   6
   5 -10 -15 68.8325 20.5084   7
   5 -10  16-46.2538 28.6286   6
  -5  -5  16-4.55790 35.9300   6
 -10   5  16 46.2959 29.8733   6
   5 -10  17-12.3906 26.6641   6
  -5  -5  17-65.9587 31.7857   6
  10  -5 -18 15.5778 13.8235   7
   5 -10  18 17.3834 20.2743   6
  -5  -5  18 17.2294 23.1867   6
  -5  -5 -19 33.1713 15.0246   8
   5 -10  19 10.3279 12.2889   6
  -5  -5  19 14.8756 16.8889   6
  -6  10   0 13693.0 525.832   2
 -10   4   0 14864.2 368.417   1
   4   6   0 13658.3 390.613   2
   6 -10   0 14089.8 324.945   3
   6   4   0 14715.0 326.579   2
  -4  10   0 14185.3 530.483   2
   6 -10   0 13767.7 345.662   4
   4 -10   0 14193.8 355.588   4
   4 -10   0 14655.2 343.814   3
   6 -10  -1 33053.4 530.536   3
   6 -10   1 34000.1 546.481   3
 -10   6   1 26050.8 616.448   2
   4 -10   1 33918.8 565.399   4
   6 -10   1 34051.4 560.062   4
   4 -10  -1 33388.6 548.227   3
   6 -10  -1 33355.2 576.911   4
   4   6  -1 36337.3 654.732   2
   4 -10  -1 33682.7 584.962   4
  -4  10  -1 32985.0 832.938   2
   4 -10   1 33745.0 554.501   3
  10  -4   1 36820.6 643.479   2
  10  -6   1 35335.5 701.827   2
  10  -4   2 28342.0 592.811   2
   4 -10   2 26277.9 481.781   3
   6 -10  -2 25928.1 507.731   4
 -10   6  -2 19083.0 591.797   1
   6 -10  -2 26002.3 451.362   3
  10  -6   2 26905.1 630.790   2
   6 -10   2 26829.2 476.860   4
   4 -10   2 25922.2 464.933   4
   6 -10   2 26197.0 475.917   3
 -10   4  -2 19279.7 534.566   1
   6   4   2 27416.1 577.995   1
   4 -10  -2 26157.9 522.256   4
 -10   6   3 15830.8 465.222   2
   6   4   3 20113.5 545.275   1
  10  -6   3 19286.2 562.493   2
   6 -10   3 19408.7 412.987   3
 -10   4  -3 13037.7 471.124   1
  -4  -6   3 19439.4 363.056   5
   6 -10  -3 18816.7 435.415   4
 -10   6  -3 14295.6 542.746   1
   4 -10   3 18837.6 380.645   4
   6 -10   3 19936.3 391.724   4
   4 -10   3 18715.7 407.541   3
   4 -10  -3 19331.9 455.499   4
  10  -4   3 19809.6 534.326   2
   6 -10   4 43850.2 687.803   3
   4 -10   4 44415.5 694.724   3
  -6  -4   4 45484.4 665.854   5
   6   4   4 46853.5 949.089   1
   6 -10  -4 43710.3 731.074   4
 -10   4  -4 44431.5 974.134   1
  10  -4   4 44738.3 910.737   2
   4 -10  -4 43865.0 737.213   4
  -4  -6   4 44079.9 643.548   5
   4 -10   5 40095.6 668.305   3
  -4  -6   5 41791.2 649.350   5
   6 -10   5 40741.4 680.535   3
  -6  -4   5 41857.1 670.124   5
   4 -10  -5 40427.5 721.617   4
   6 -10  -5 40115.9 704.935   4
   6 -10   6 9502.96 317.151   3
   4 -10   6 9211.50 310.683   3
  -4  -6   6 8955.47 301.765   5
   4 -10  -6 8674.53 321.474   4
  10  -6  -6 8891.88 318.796   4
   6 -10  -6 8834.98 324.510   4
  -6  -4   6 9230.62 316.319   5
  -4  -6   7 6788.98 274.400   5
   6 -10  -7 6663.56 295.399   4
  -6  -4   7 6931.89 285.965   5
   4 -10   7 7051.72 287.464   3
  10  -6  -7 6621.58 278.108   4
   4 -10  -7 6592.63 292.900   4
   6 -10   7 7203.71 291.974   3
   4 -10   8 6094.10 278.729   3
   6 -10   8 6411.54 287.169   3
  -4  -6   8 5846.23 274.712   5
  -6  -4   8 6223.25 293.891   5
   6 -10  -8 6299.76 289.998   4
   4 -10  -8 5846.66 289.284   4
   4 -10   9 5368.79 287.631   5
   6 -10   9 5048.12 271.512   3
  -6  -4   9 4859.90 276.678   5
   4 -10   9 5374.75 273.361   3
  -4  -6   9 4918.68 269.802   5
   6 -10  10 1387.95 161.917   3
   4 -10  10 1556.82 165.725   3
  -6  -4  10 1388.74 168.151   5
  -4  -6  10 1760.64 178.028   5
   4 -10  10 1817.97 186.546   5
   6 -10  11 624.858 121.606   3
   4 -10  11 960.348 156.006   5
  -6  -4  11 692.172 136.612   5
   6 -10  11 949.722 160.655   5
  -4  -6  11 712.597 134.309   5
  10  -6  12 1118.88 162.713   3
   4 -10  12 997.772 35.1030   6
   6 -10  12 1317.39 168.512   3
 -10   4  12 1170.16 40.5719   6
   4 -10 -12 904.561 35.7157   7
 -10   6  12 1107.44 38.0343   6
  -6  -4  12 897.342 42.5209   6
  -4  -6  12 1016.78 40.9992   6
  -6  -4  12 1428.13 187.653   5
   6 -10  12 1372.59 191.447   5
   6 -10  12 983.272 33.9196   6
  -4  -6  12 1219.58 175.074   5
   4 -10  12 1421.48 189.289   5
   6 -10  13 493.516 28.9540   6
   4 -10  13 884.304 169.005   5
  -4  -6  13 594.493 38.9219   6
   6 -10  13 777.706 168.739   5
  -6  -4  13 567.717 39.5018   6
 -10   4  13 621.203 35.6289   6
 -10   6  13 702.790 36.2140   6
  10  -4  13 588.075 129.791   3
  -6  -4  13 636.681 141.319   5
  -4  -6  13 749.961 154.308   5
  10  -6  13 469.268 117.756   3
   6 -10 -13 565.121 32.3961   7
   4 -10  13 288.727 30.1717   6
  -6  -4  14-4.53921 33.6039   6
 -10   4  14 10.1414 27.3883   6
   6 -10 -14 6.41615 22.1203   7
   4 -10  14 0.48026 26.1322   6
  -4  -6  14-15.7402 35.0498   6
   6 -10  14-18.3749 23.1055   6
   4 -10 -14-55.9227 21.4125   7
 -10   6  14 25.2424 28.2372   6
   6 -10 -15 20.9100 21.3916   7
 -10   6  15 24.4867 30.1477   6
 -10   4  15 44.9904 31.6108   6
  -6  -4  15 18.7038 36.6152   6
   4 -10  15 17.0192 29.6719   6
  -4  -6  15 13.1214 39.3877   6
   6 -10  15-24.4424 26.0760   6
  -4  -6  16 36.6229 38.9108   6
   4 -10  16 1.10837 31.4872   6
   6 -10 -16 27.0457 19.6686   7
 -10   4  16 14.5093 30.8424   6
 -10   6  16 3.05478 29.3963   6
  -6  -4  16 50.3298 35.5266   6
   6 -10  16 17.2542 25.9365   6
  -6  -4  17 17.9984 28.7132   6
  -4  -6  17 35.8904 32.1331   6
   6 -10  17-19.7195 23.7401   6
   4 -10  17-26.6741 29.1000   6
 -10   4  17 17.3590 28.4499   6
  -4  -6  18 27.4799 24.4066   6
   4 -10  18 34.8126 22.0604   6
   6 -10  18-0.93189 18.8685   6
  10  -6 -18 40.5647 14.0821   7
  -6  -4  18-9.98734 22.8613   6
  -6  -4  19 2.59312 17.2098   6
  -4  -6  19-2.06690 15.8076   6
   6 -10  19-5.21125 11.6356   6
   4 -10  19-8.68606 13.8346   6
  -6  -4 -19 30.8326 15.0108   8
   7   3   0 9723.60 210.093   1
 -10   3   0 9659.88 244.279   1
   7 -10   0 9298.63 281.605   4
   7 -10   0 9679.09 263.237   3
   3 -10   0 9331.12 284.157   4
   3 -10   0 9687.85 282.785   3
   7   3   0 9509.30 216.084   2
  -3  10   0 10095.4 444.809   2
  10  -7   0 8669.16 216.633   3
   3   7   0 8936.22 338.263   2
   7 -10  -1 8964.37 247.573   3
 -10   3  -1 6397.79 243.880   1
   7 -10  -1 9074.74 287.983   4
  10  -3   1 9948.92 295.911   2
   7 -10   1 8870.63 254.622   3
   7   3   1 9674.03 271.102   1
   7 -10   1 8929.33 272.714   4
 -10   7   1 5994.08 300.189   2
   3 -10  -1 9347.64 291.424   4
   3   7  -1 8893.86 338.517   2
   3 -10   1 8998.48 283.213   3
  -3  10  -1 8998.37 425.572   2
  10  -7   1 8102.05 229.400   3
   3 -10   1 8449.20 268.730   4
  10  -3   2 3340.71 189.463   2
  -3  -7   2 2900.09 120.789   5
   7 -10  -2 3401.06 180.724   4
   7 -10   2 3327.75 165.229   4
 -10   7   2 2056.04 175.726   2
   7   3   2 3268.01 190.074   1
   3 -10   2 3097.53 175.883   3
 -10   3  -2 2027.63 160.286   1
  10  -7   2 2730.05 213.528   2
   3 -10   2 2937.00 153.811   4
   7 -10  -2 3081.83 143.409   3
   7 -10   2 3278.52 168.265   3
   3 -10  -2 3332.54 187.702   4
   7   3   3 647.918 109.552   1
  -3  -7   3 554.739 64.8788   5
 -10   3  -3 407.830 95.5829   1
   7 -10   3 357.202 59.1704   4
   7 -10  -3 558.203 91.8466   4
  10  -3   3 461.931 90.3617   2
   3 -10  -3 540.810 93.8469   4
   7 -10   3 524.447 84.4269   3
  10  -7   3 543.293 111.318   2
   3 -10   3 655.639 89.8372   3
 -10   7  -3 560.891 129.972   1
   3 -10   3 444.756 62.5580   4
   3 -10   4 7929.37 269.894   3
   7 -10   4 8136.23 275.133   3
   7 -10  -4 7430.16 283.028   4
  -3  -7   4 7770.55 260.040   3
   3 -10  -4 7963.98 300.758   4
  -3  -7   4 8122.63 243.677   5
   7   3   4 8109.68 380.234   1
  10  -7  -5 17028.3 434.114   4
   3 -10   5 17000.3 412.024   3
  -3  -7   5 16927.4 384.597   5
   7 -10   5 17147.0 417.122   3
  -7  -3   5 17589.4 410.621   5
   7 -10  -5 16969.2 438.912   4
   3 -10  -5 17380.7 454.304   4
  -3  -7   6 77.1738 63.2630   5
   7 -10   6 255.390 90.6294   3
   3 -10   6 165.815 77.8383   3
  10  -7  -6 110.840 69.4334   4
  -7  -3   6 172.710 79.9007   5
   7 -10  -6 172.715 79.3248   4
   3 -10  -6 135.597 84.9053   4
  -7  -3   7 4497.40 239.784   5
   7 -10   7 4946.69 245.717   3
  10  -7  -7 4154.06 227.581   4
   7 -10  -7 4642.98 244.656   4
   3 -10  -7 4513.92 244.086   4
   3 -10   7 4741.77 237.277   3
  -3  -7   7 4475.83 227.758   5
   7 -10   8 886.943 127.185   3
   3 -10  -8 760.965 118.873   4
   7 -10  -8 857.312 120.194   4
  -7  -3   8 851.605 127.261   5
  -3  -7   8 784.872 111.349   5
   3 -10   8 1039.04 126.601   5
   3 -10   8 804.506 113.933   3
   7 -10   9 1739.32 171.260   3
   3 -10   9 1685.17 160.538   3
  -7  -3   9 1591.47 171.444   5
   3 -10   9 1739.76 171.692   5
  -3  -7   9 1834.68 170.654   5
   3 -10  10 62.2669 67.5604   3
  -3  -7  10 75.1915 86.3946   5
   3 -10  10 5.09804 82.5431   5
  -7  -3  10 100.092 93.6290   5
   7 -10  10 113.454 86.7134   3
  10  -7  10 135.579 106.763   3
  10  -7  11 22.4834 79.9928   3
  -3  -7  11 59.9048 82.5536   5
  -7  -3  11 37.5774 86.3703   5
   7 -10  11 67.3197 81.5903   3
   3 -10  11-2.42979 86.7324   5
  -7  -3  12 242.107 107.170   5
 -10   3  12 210.559 25.7622   6
   3 -10  12 374.300 113.143   5
   3 -10 -12 176.890 22.6167   7
   3 -10  12 187.335 23.1430   6
   7 -10  12 206.417 81.7144   3
   7 -10  12 175.261 19.9788   6
  10  -7  12 241.660 99.7004   3
  -3  -7  12 279.760 108.985   5
  -7  10  12 28.2077 20.5917   6
 -10   7  12 156.295 25.6050   6
  -7  -3  12 171.759 30.6834   6
   7 -10  12 282.782 111.322   5
  -3  -7  12 209.926 27.3667   6
  -3  -7  13 201.401 106.531   5
   7 -10  13 185.387 103.825   5
 -10   3  13 117.145 27.4803   6
   7 -10  13 71.3388 20.7265   6
   3 -10  13 338.661 120.730   5
  -3  -7  13 159.126 31.4775   6
  10  -7  13 154.197 89.0737   3
  -7  -3  13 138.881 31.5621   6
 -10   7  13 127.395 28.9575   6
   3 -10  13 20.3346 25.5125   6
  -7  -3  13 184.514 102.293   5
   7 -10  14-3.20927 21.6587   6
 -10   3  14 64.2191 28.6528   6
  -7  -3  14 20.3864 32.4951   6
  -3  -7  14 12.4425 33.7499   6
   7 -10 -14 55.5454 23.7090   7
   3 -10  14 0.17760 27.0957   6
 -10   7  14 26.1505 27.8061   6
 -10   7  15 21.6807 29.4425   6
 -10   3  15 8.61648 29.1582   6
  -7  -3  15-16.3616 34.7335   6
   7 -10 -15-10.0796 22.1668   7
   7 -10  15-23.1999 24.6967   6
  -3  -7  15 46.3337 39.6133   6
   3 -10  15-14.2306 31.9887   6
   7 -10 -16-5.08469 20.6981   7
 -10   3  16-10.1213 30.6659   6
   7 -10  16-24.2774 24.1696   6
   3 -10  16-80.0887 35.2451   6
  -3  -7  16 6.63025 38.9370   6
  -7  -3  16-18.6674 32.0274   6
 -10   3  17 12.6344 27.8540   6
  -3  -7  17-11.9455 32.6681   6
   7 -10 -17 20.3313 17.2073   7
   7 -10  17 10.8681 22.6246   6
  -7  -3  17-14.2889 27.9395   6
   3 -10  17-15.7281 30.6777   6
   3 -10  18-9.76711 22.6683   6
  -7  -3  18 15.2658 22.5482   6
  -3  -7  18 5.87053 23.6589   6
  10  -7 -18-4.38840 13.2765   7
   7 -10  18 14.1754 17.3575   6
   3 -10  19 2.23042 13.2734   6
   7 -10  19 7.14659 10.9154   6
  -7  -3 -19-9.55898 11.4110   8
  -7  -3  19 2.00713 16.8425   6
   3 -10 -19-3.52753 12.8043   8
  -3  -7 -19-7.30143 15.7543   8
  -3  -7  19-0.96943 15.8400   6
 -10   8   0 118.430 67.2343   2
   8 -10   0 175.622 55.6832   3
   2 -10   0 242.003 82.0133   3
   2   8   0 216.571 67.9782   2
  -2  10   0 211.772 78.7219   2
  10  -8   0 190.915 42.7249   3
   2 -10   0 197.965 69.1099   4
   8 -10   0 215.832 70.3775   4
   8 -10   1 4005.31 182.834   4
   2   8  -1 3961.08 244.111   2
  -2  10  -1 3968.94 279.313   2
  10  -8  -1 4032.68 140.177   3
  10  -2   1 4716.05 184.442   2
   8 -10  -1 4012.84 192.103   4
   8 -10   1 4422.47 180.286   3
   2 -10   1 4232.60 194.701   3
   2 -10   1 3951.67 183.171   4
   8 -10  -1 4212.98 163.971   3
  10  -8   1 4105.23 161.034   3
   2 -10  -1 4123.84 198.961   4
   8 -10  -2 1868.61 108.530   3
   8   2   2 1937.37 140.688   1
   8 -10  -2 1675.97 131.837   4
   8 -10   2 1690.73 120.329   4
   8 -10   2 1801.77 121.625   3
   2 -10   2 1706.95 127.216   3
  -2  -8   2 1976.28 95.0671   5
   2   8  -2 1718.56 167.903   2
  10  -8   2 1918.93 185.349   2
   2 -10  -2 1604.98 135.630   4
  10  -2   2 1875.69 140.499   2
   2 -10   2 1676.51 118.758   4
  10  -8   2 1690.34 111.730   3
 -10   8   3 1084.30 149.701   2
   2 -10   3 1143.75 111.061   3
   2 -10   3 630.240 76.1041   4
   8   2   3 1266.43 136.051   1
   8 -10   3 817.839 83.6534   4
   2 -10  -3 1117.23 121.420   4
  10  -8   3 1243.32 106.757   3
   8 -10  -3 1116.30 118.357   4
  -2  -8   3 1146.09 109.231   3
   8 -10   3 1168.12 109.380   3
  -2  -8   3 727.951 67.5039   5
  10  -8  -4 9737.89 322.533   4
   8 -10  -4 10062.4 326.199   4
   2 -10  -4 9652.53 329.687   4
   2 -10   4 9999.27 308.295   3
  -2  -8   4 9896.34 265.593   5
  -2  -8   4 9727.22 296.939   3
   8   2   4 9797.19 411.637   1
   8 -10   4 10076.5 304.320   3
  10  -8  -5 8458.45 310.609   4
   8 -10  -5 8448.81 311.003   4
   2 -10   5 8484.98 259.503   5
   2 -10  -5 8620.96 323.839   4
  -2  -8   5 8943.77 270.788   5
  -2  -8   5 8150.92 281.033   3
   2 -10   5 8515.66 291.482   3
   8 -10   5 8941.28 296.577   3
  -2  -8   6 2175.76 152.390   3
  10  -8  -6 2076.80 165.146   4
   2 -10  -6 2378.74 179.582   4
   2 -10   6 2383.58 166.887   3
  -8  -2   6 2355.41 170.694   5
   8 -10  -6 2215.86 172.504   4
  -2  -8   6 2054.05 148.984   5
   8 -10   6 2307.66 172.658   3
   2 -10   6 2250.68 146.388   5
  -2  -8   7 1731.45 146.959   5
   8 -10   7 1720.01 157.217   3
   2 -10  -7 1631.68 153.245   4
   2 -10   7 1690.35 148.181   3
   8 -10  -7 1722.95 161.216   4
  10  -8  -7 1634.27 155.209   4
   2 -10   7 1582.19 139.918   5
  -8  -2   7 1774.60 162.017   5
  10  -8   8 1233.91 149.747   3
  10  -8  -8 1154.36 135.086   4
   8 -10  -8 1200.61 140.891   4
  -2  -8   8 1127.52 132.973   5
   2 -10   8 1197.05 135.898   3
   2 -10  -8 1297.53 143.247   4
   2 -10   8 1415.36 143.084   5
  -8  -2   8 1338.82 152.494   5
   8 -10   8 1186.60 141.444   3
  -8  -2   9 840.784 134.088   5
  10  -8   9 695.288 127.715   3
   8 -10   9 825.415 132.989   3
   2 -10   9 908.637 131.382   5
  -2  -8   9 781.670 121.925   5
   2 -10   9 758.161 114.330   3
  -8  -2  10 767.077 141.296   5
  10  -8  10 558.878 127.029   3
  -2  -8  10 741.604 132.439   5
   8 -10  10 670.065 128.656   3
   2 -10  10 672.393 131.079   5
  -2  -8  11-23.5122 88.5102   5
  -8  -2  11 10.7203 89.3269   5
   2 -10  11 38.2766 81.2525   5
   8 -10  11 0.23389 84.7333   3
  10  -8  11-44.7250 85.8979   3
  -2  -8  12 2.08817 80.6202   5
   8 -10  12-32.4693 100.249   5
  -2  -8  12-42.1081 24.9355   6
   8 -10  12 5.29556 16.7836   6
   2 -10  12-10.1310 22.5561   6
 -10   8  12 19.6747 22.2417   6
  10  -8  12-119.350 92.2836   3
  -8  10  12-13.7148 20.9335   6
 -10   2  12 36.7424 24.0810   6
  -8  -2  12-42.5569 28.6280   6
  -8  -2  12-93.4023 94.5267   5
   2 -10  12-55.6703 99.6224   5
  10  -8  12 31.8769 14.5878   6
   8 -10  12 20.0793 81.0169   3
   8 -10  13 488.904 147.460   5
 -10   8  13 339.404 32.1926   6
 -10   2  13 433.145 34.6931   6
   2 -10  13 4.97236 29.7526   6
  -8  -2  13 225.472 34.2290   6
  -2  -8  13 239.851 117.499   5
   2 -10  13 281.229 109.908   5
   8 -10  13 100.468 22.6220   6
   8 -10  13 425.642 119.527   3
  10  -8  13 262.294 106.864   3
  -2  -8  13 108.398 33.4472   6
   2 -10  14-26.1161 30.5173   6
 -10   8  14 6.52430 26.9306   6
 -10   2  14 22.6664 27.8122   6
  10  -8  14-35.0012 18.4967   6
  -2  -8  14-23.7644 36.2491   6
   8 -10  14-33.3133 20.9740   6
  -8  -2  14-10.7868 33.7309   6
   8 -10 -15 17.5857 22.5653   7
 -10   2  15 48.6480 29.6577   6
  -8  -2  15-32.0084 32.1108   6
  -2  -8  15-13.7688 38.2579   6
   2 -10  15-83.4408 34.9265   6
   8 -10  15-60.5870 23.6687   6
 -10   2  16-0.32663 29.5090   6
  -2  -8  16 17.5993 39.1539   6
   8 -10  16-58.1895 23.2506   6
   8 -10 -16-6.74531 20.3817   7
   2 -10  16-15.4497 37.1970   6
  -8  -2  16-5.91169 31.2472   6
   8 -10 -17-0.01035 16.8293   7
  10  -8 -17 0.27399 17.2769   7
 -10   2  17 7.30593 27.0086   6
  -8  -2  17 24.9577 27.6152   6
   8 -10  17 9.33312 21.5771   6
   2 -10  17-9.08256 31.9123   6
  -2  -8  17 71.9253 35.2378   6
  10  -8 -18-11.8296 13.5784   7
  -2  -8  18 35.9525 23.6377   6
   2 -10  18-15.8268 23.4396   6
  -8  -2  18 18.2522 22.9730   6
   8 -10  18 38.5365 16.4353   6
   2 -10 -19 1.97549 13.5029   8
  -2  -8  19 8.59639 15.3227   6
   2 -10  19 0.84937 13.6040   6
  -2  -8 -19 11.9423 14.5932   8
   9 -10   0 23427.6 473.867   4
   9 -10   0 23075.3 420.450   3
   1 -10   0 24864.7 496.301   4
  -1  10   0 24458.3 700.438   2
  10  -9   0 23732.4 408.576   3
   1   9   0 23145.2 639.705   2
   9 -10  -1 2426.02 157.283   4
  10  -9   1 2652.98 134.729   3
   1 -10   1 2622.65 155.611   4
   1   9  -1 2268.68 201.757   2
 -10   9   1 2103.99 209.356   2
   9 -10   1 2581.51 141.441   3
  10  -9  -1 2508.23 117.903   3
   9 -10  -1 2450.34 124.574   3
   1 -10  -1 2502.59 161.323   4
   1 -10   1 2807.91 164.835   3
   9 -10   1 2492.68 148.529   4
  -1  10  -1 2635.56 230.847   2
   1 -10   2 13795.4 359.335   3
   9 -10   2 13086.3 326.786   3
 -10   9   2 13857.3 523.019   2
  10  -9  -2 13194.4 364.003   4
   9 -10   2 12432.6 326.635   4
   9 -10  -2 12547.7 355.245   4
   1 -10  -2 13406.7 374.693   4
  -1  -9   2 12660.1 343.219   3
  10  -9   2 12819.0 314.781   3
   9 -10  -2 12746.7 284.193   3
   1 -10   2 12356.4 330.859   4
   1   9  -2 12805.7 489.876   2
   9 -10  -3 7307.10 276.759   4
  -1  -9  -3 6935.22 273.897   4
  10  -9  -3 7283.27 279.686   4
 -10   9   3 7548.55 392.657   2
   9 -10   3 7552.22 252.660   3
  -1  -9   3 7127.18 258.737   3
  -1  -9   3 7036.08 199.025   5
   1 -10  -3 7252.52 279.920   4
  10  -9   3 7305.16 245.685   3
   1 -10   3 7551.96 269.680   3
   1 -10   3 7002.49 194.901   5
  -1  -9   4 5082.81 188.524   5
   9 -10  -4 5152.07 240.299   4
   9 -10   4 5311.61 227.765   3
   1 -10  -4 5400.06 256.292   4
  10  -9   4 5400.54 228.921   3
  -1  -9   4 5022.26 224.136   3
   1 -10   4 5332.75 232.470   3
  10  -9  -4 5382.67 247.816   4
   1 -10   4 4267.72 171.328   5
   1 -10  -5 9963.94 356.456   4
  10  -9  -5 10183.0 344.516   4
   9 -10  -5 10024.9 346.399   4
  10  -9   5 10386.9 332.978   3
   1 -10   5 9827.26 322.482   3
   9 -10   5 9789.81 325.333   3
  -1  -9   5 10098.9 319.916   3
  -1  -9   5 9962.46 292.608   5
   1 -10   5 9640.65 284.731   5
  10  -9  -6 4299.78 236.356   4
  -1  -9   6 4408.06 206.482   5
  -1  -9   6 4367.33 218.208   3
  10  -9   6 4549.39 230.912   3
   9 -10  -6 4409.67 241.843   4
   1 -10   6 4431.49 220.367   3
   1 -10   6 4363.98 203.889   5
   9 -10   6 4413.96 227.176   3
   1 -10  -6 4560.71 252.984   4
   9 -10  -7 3619.52 221.978   4
   1 -10   7 3593.76 208.568   3
  10  -9  -7 3604.85 219.864   4
  -1  -9   7 3591.26 206.328   5
  -1  -9   7 3508.52 201.755   3
  10  -9   7 4002.49 231.561   3
   9 -10   7 3843.61 224.078   3
   1 -10   7 3549.06 202.586   5
   1 -10  -7 3521.49 227.205   4
  10  -9   8 1617.31 165.612   3
   1 -10   8 1632.89 153.594   3
  10  -9  -8 1618.27 161.262   4
   9 -10  -8 1628.74 165.169   4
   1 -10   8 1593.29 152.679   5
   9 -10   8 1712.80 166.698   3
  -1  -9   8 1599.84 155.583   5
  10  -9   9 939.874 139.830   3
   1 -10   9 917.448 132.315   5
   9 -10   9 765.751 132.707   3
  -1  -9   9 968.111 132.306   5
  -1  -9  10 1191.75 163.135   5
  10  -9  10 974.448 147.076   3
   9 -10  10 1010.45 145.599   3
   1 -10  10 1356.71 171.385   5
  10  -9  11 737.798 138.373   3
   9 -10  11 716.958 130.342   3
   1 -10  11 730.646 143.163   5
  -1  -9  11 679.444 135.843   5
  -1  -9  12 54.5910 92.8021   5
   9 -10  12 2.33143 17.4123   6
 -10   1  12 72.2026 25.0601   6
   1 -10  12 28.5055 23.2014   6
  10  -9  12 36.7178 15.5824   6
  10  -9  12 56.1196 81.4175   3
   9 -10  12-36.8348 74.5379   3
  -9  10  12 51.6806 23.5311   6
  -9  -1  12 71.6891 26.9831   6
   1 -10  12 100.692 96.7739   5
  -1  -9  12 28.1096 23.6639   6
 -10   9  12 20.1537 23.8547   6
  -1  -9  13 50.0031 95.4598   5
   9 -10  13-24.0317 88.5106   5
 -10   9  13 10.2913 25.7257   6
  10  -9  13-2.00218 16.5510   6
 -10   1  13 7.37041 25.9095   6
  -9  -1  13-20.7102 29.1561   6
  -1  -9  13-35.5770 28.4960   6
   1 -10  13-31.6052 98.7781   5
   9 -10  13-33.2311 84.1920   3
   1 -10  13 4.48354 26.1342   6
   9 -10  13-32.0191 18.1534   6
  10  -9  13-44.2542 67.2232   3
 -10   1  14 201.413 32.4610   6
  -9  -1  14 172.849 33.1149   6
   1 -10  14 114.020 34.9581   6
   9 -10  14 25.9716 20.3312   6
  10  -9  14-37.4386 21.2466   6
  -1  -9  14 99.3262 34.9269   6
  -9  -1  15 6.45805 28.9143   6
   9 -10 -15 16.0404 23.2275   7
  10  -9  15-32.6285 19.7184   6
   9 -10  15-16.0823 20.2100   6
   1 -10  15-20.0543 34.5098   6
  -1  -9  15-5.60422 37.2071   6
 -10   1  15 22.6013 29.3291   6
  -1  -9  16 0.36760 38.0250   6
   9 -10 -16-15.6569 20.7423   7
  -9  -1  16-5.02695 27.7246   6
 -10   1  16-1.80121 28.9992   6
  10  -9  16 12.3273 19.6548   6
   1 -10  16 26.1721 38.3870   6
   9 -10  16-54.0286 20.4992   6
  10  -9 -16 3.63789 21.1893   7
 -10   1  17 55.3704 27.5671   6
   9 -10 -17-12.7326 17.3574   7
  -1  -9  17-21.1807 33.2095   6
  -9  -1  17 3.23102 26.0892   6
   9 -10  17-17.1181 18.7462   6
  10  -9 -17 5.10074 17.2988   7
   1 -10  17 76.5790 33.5226   6
   9 -10  18-18.1694 14.0987   6
   9 -10 -18-5.92667 10.7802   7
  10  -9 -18 21.9665 12.8143   7
  -1  -9  18-8.50885 22.8722   6
   1 -10  18 35.3391 23.4912   6
  -9  -1  18-3.40625 21.6545   6
  -1  -9  19-12.3208 13.8480   6
   1 -10  19 6.68604 12.8970   6
   1 -10 -19 22.8003 13.3568   8
  -1  -9 -19 14.0714 13.2612   8
   0 -10   0 155.805 63.2773   4
  10 -10   0 314.405 76.1580   4
  10 -10   0 244.044 54.0380   3
   0  10  -1 5533.75 326.275   2
  10 -10   1 5737.40 204.373   3
  10 -10  -1 5717.97 187.130   3
   0 -10  -1 5520.69 241.868   4
  10 -10   1 5914.29 232.388   4
  10 -10  -1 5864.25 239.926   4
  10 -10   2 9970.08 296.516   4
  10 -10   2 9823.40 282.592   3
  10 -10  -2 10090.0 326.707   4
   0 -10  -2 10019.1 332.612   4
   0 -10   2 10246.1 318.466   3
  10 -10  -3 2724.20 177.208   4
   0 -10   3 2544.80 162.967   3
   0 -10  -3 2422.13 177.336   4
  10 -10   3 2565.25 149.211   4
  10 -10   3 2667.46 153.679   3
  10 -10  -4 7065.42 284.844   4
   0 -10   4 6945.03 268.760   3
   0 -10  -4 7158.73 297.830   4
  10 -10   4 6905.39 257.058   3
  10 -10  -5 20051.4 501.664   4
   0 -10   5 19862.4 422.262   5
   0 -10   5 19866.4 476.600   3
  10 -10   5 19890.9 468.332   3
   0 -10  -5 20487.3 521.534   4
  10 -10  -6 12613.7 405.092   4
  10 -10   6 12823.4 388.535   3
   0 -10  -6 12081.2 417.937   4
   0 -10   6 12074.1 372.652   3
   0 -10   6 12389.5 349.372   5
   0 -10   7 3381.76 197.730   5
   0 -10   7 3291.15 201.359   3
  10 -10  -7 3402.97 221.754   4
  10 -10   7 3233.95 210.052   3
  10 -10  -8 1136.15 144.116   4
   0 -10   8 1227.65 131.493   3
   0 -10   8 1200.79 137.339   5
  10 -10   8 1159.02 145.760   3
   0 -10   9 2755.33 213.516   5
  10 -10   9 2502.16 203.367   3
  10 -10  10 785.973 136.082   3
   0 -10  10 1073.58 152.492   5
  10 -10  11 33.8769 90.4260   3
   0 -10  11 27.2985 90.4845   5
   0 -10  12-57.0779 95.3503   5
 -10   0  12-4.01417 26.5034   6
   0 -10  12-34.5871 25.5527   6
  10 -10  12-39.3983 19.5920   6
  10 -10  12 9.62369 99.8072   3
 -10   0  13 372.125 31.5990   6
  10 -10  13 294.808 118.788   5
   0 -10  13 294.758 32.1325   6
  10 -10  13 159.473 19.8775   6
   0 -10  13 271.154 110.496   5
  10 -10  13 366.399 109.479   3
   0 -10  14 31.3138 37.8533   6
 -10   0  14 55.8980 30.8463   6
 -10   0  15 11.3750 29.1626   6
   0 -10  15-50.4861 38.2730   6
  10 -10  15-66.8312 21.4306   6
 -10   0  16-0.16399 27.8230   6
  10 -10  16-26.5519 19.2110   6
   0 -10  16 24.1531 38.0699   6
  10 -10 -16-13.6842 21.3630   7
 -10   0  17-0.19269 25.4780   6
   0 -10  17 29.6347 34.4144   6
  10 -10  17-4.76888 17.4620   6
  10 -10 -17-27.9182 18.0580   7
  10 -10 -18-20.7085 11.2121   7
   0 -10  18 47.1322 23.2419   6
   0 -10  19 11.9038 12.8026   6
   0 -10 -19 23.4547 12.8200   8
   6 -11   0 4241.42 197.678   4
 -11   5   0 4348.35 215.620   1
   5 -11   0 4355.05 201.465   4
   5 -11   0 3984.29 188.267   3
   5   6   0 4069.79 207.735   2
   6 -11   0 4015.03 183.020   3
   5 -11   1 3117.81 166.519   3
   5 -11   1 3274.09 171.732   4
   6 -11  -1 3083.86 176.329   4
   5 -11  -1 3128.09 178.511   4
   6 -11  -1 3247.46 162.707   3
   6 -11   1 3115.62 163.361   3
   6 -11   1 3229.48 169.543   4
  11  -5   1 3411.18 202.481   2
   5 -11  -1 3311.16 167.055   3
   6 -11   2 5392.75 218.674   3
   6 -11  -2 5234.41 234.483   4
  11  -5   2 5633.41 272.664   2
   6 -11   2 5674.20 217.424   4
   6 -11  -2 5139.12 201.571   3
 -11   5  -2 5435.87 295.293   1
   5 -11   2 5522.16 218.964   4
 -11   6  -2 5299.77 307.626   1
  11  -6   2 5399.04 283.334   2
   5 -11  -2 5345.59 232.244   4
   5 -11   2 5433.71 220.453   3
   6 -11   3 7194.93 247.897   4
  11  -6   3 10253.9 413.580   2
   5 -11   3 10197.4 305.732   3
   6 -11  -3 9951.29 321.358   4
 -11   5  -3 9994.09 429.930   1
   5 -11  -3 10108.3 327.186   4
  11  -5   3 10756.2 410.578   2
 -11   6  -3 10560.4 464.614   1
   6 -11   3 10196.1 305.890   3
   6   5   3 10214.2 399.965   1
   5 -11   4 3085.31 184.172   3
   6 -11  -4 2797.70 189.411   4
   5 -11  -4 3033.85 197.013   4
  -6  -5   4 2748.32 154.819   5
  -5  -6   4 2936.19 156.900   5
   6 -11   4 2935.68 178.176   3
   6 -11  -5 2672.47 190.507   4
   5 -11   5 2718.11 180.267   3
   6 -11   5 2764.99 183.583   3
  -5  -6   5 2579.26 162.445   5
  -6  -5   5 2845.77 169.521   5
   5 -11  -5 2725.35 194.690   4
  -5  -6   6 582.138 95.2773   5
   5 -11   6 582.277 100.588   3
  -6  -5   6 576.643 99.5287   5
   6 -11   6 721.832 105.021   3
   5 -11  -6 621.989 107.311   4
   6 -11  -6 625.867 111.798   4
   6 -11  -7 2215.56 187.401   4
  11  -5  -7 2061.50 164.108   4
   6 -11   7 2329.44 175.682   3
  -5  -6   7 2194.65 174.260   5
   5 -11   7 2269.98 178.575   3
   5 -11  -7 2274.65 187.800   4
  11  -6  -7 2167.75 168.675   4
  -6  -5   7 2232.44 171.975   5
  -6  -5   8 492.535 102.590   5
   5 -11   8 483.871 96.0082   3
   6 -11   8 446.655 100.829   3
  -5  -6   8 372.155 90.9523   5
   5 -11  -8 570.685 112.676   4
   6 -11  -8 436.062 102.722   4
   6 -11  -9 1134.12 142.736   4
   6 -11   9 1255.80 152.763   3
   5 -11   9 1205.44 153.495   3
  -5  -6   9 1261.29 156.675   5
   5 -11  -9 1239.04 152.029   4
  -6  -5   9 1192.64 154.954   5
  -6  -5  10 67.3013 81.8035   5
  -5  -6  10 123.761 86.5086   5
   5 -11  10 58.7035 82.0253   5
   5 -11  10-58.5426 79.2860   3
   6 -11  10 174.486 89.0646   3
   5 -11  11 350.983 125.637   5
   6 -11  11 224.823 80.5624   3
  -6  -5  11 218.444 96.8402   5
   6 -11  11 347.499 110.868   5
   5 -11  11 185.487 78.2775   3
  -5  -6  11 265.000 103.831   5
  -5  -6  12 218.222 100.347   5
 -11   6  12 389.240 31.0221   6
 -11   5  12 381.222 29.3977   6
   5 -11  12 366.051 26.7695   6
  -6  -5  12 432.564 119.825   5
  -6  -5  12 145.972 30.5049   6
   5 -11  12 554.525 143.806   5
  11  -6  12 503.964 127.880   3
   6 -11 -12 338.212 27.1764   7
   6 -11  12 473.984 130.402   5
   5 -11 -12 296.306 26.6822   7
   6 -11  12 337.168 25.7454   6
  -5  -6  12 284.145 32.4497   6
  -5  -6  13-117.962 109.317   5
  11  -5  13 54.6492 89.7115   3
  11  -6  13-144.576 103.012   3
   6 -11  13-61.9283 110.876   5
  -6  -5  13-42.0950 34.3360   6
   5 -11  13-25.1595 26.4487   6
  -6  -5  13-28.8025 103.630   5
 -11   5  13 62.5140 27.6593   6
  -5  -6  13 4.02796 32.9116   6
   5 -11 -13 32.0757 24.0020   7
   5 -11  13-14.9499 97.8376   5
 -11   6  13 4.79900 28.5420   6
   6 -11 -13 35.9640 23.9677   7
   6 -11  13-5.55960 25.1088   6
   5 -11 -14 76.7328 23.4484   7
 -11   5  14 101.825 30.3371   6
 -11   6  14 109.171 30.9156   6
   6 -11  14 2.32428 25.3794   6
  -6  -5  14 22.3021 34.7815   6
   6 -11 -14 106.176 24.3937   7
   5 -11  14-17.0879 26.8898   6
  -5  -6  14 46.5331 35.6361   6
   6 -11  15-74.2297 28.8435   6
 -11   6  15 60.3843 31.9989   6
   6 -11 -15 12.0395 22.0410   7
  -6  -5  15-17.3428 36.5008   6
   5 -11 -15 47.7348 22.3710   7
  -5  -6  15 33.8653 38.1364   6
   5 -11  15-29.5233 30.1424   6
 -11   5  15 18.1538 30.1250   6
   5 -11  16-59.2691 30.7288   6
   6 -11  16-66.8079 29.6217   6
 -11   5  16 9.19034 31.0336   6
  -5  -6  16 60.5049 38.1757   6
  -6  -5  16 35.1218 35.4589   6
   6 -11 -16 29.0717 20.1883   7
  -6  -5  17 69.8293 29.4454   6
  -5  -6  17 83.6724 32.2200   6
   6 -11  17 103.791 28.4070   6
  11  -6 -18-7.45317 13.9023   7
  -6  -5  18 12.5446 21.9947   6
   5 -11  18-4.33544 19.8439   6
  -5  -6  18 18.9831 21.2598   6
  11  -5 -18 12.0419 13.6543   7
  -6  -5  19 2.36736 15.7224   6
  -5  -6  19 10.3142 15.5526   6
   5 -11  19-6.21537 11.3452   6
   6 -11  19 30.7870 12.6433   6
  -6  -5 -19 14.9636 12.9202   8
  -5  -6 -19 16.2636 13.7078   8
   4 -11   0 872.941 107.210   4
   7 -11   0 869.488 105.236   4
   4 -11   0 641.174 92.0874   3
   7 -11   0 766.399 90.1191   3
   4   7   0 574.770 93.2845   2
  11  -7   0 556.352 61.5397   3
   7 -11  -1 1126.39 117.286   4
   7 -11   1 1269.31 113.428   4
   7 -11   1 1243.78 108.061   3
   4 -11   1 1314.13 116.296   3
 -11   7   1 971.084 129.304   2
   4 -11  -1 1116.96 116.584   4
   4 -11   1 1059.93 105.934   4
   4   7  -1 1145.07 121.640   2
   4 -11  -1 1178.27 112.558   3
   7 -11  -1 1198.11 101.325   3
 -11   7  -2 404.973 102.950   1
   7 -11   2 532.381 84.4455   3
   7 -11  -2 451.086 70.1697   3
   4 -11   2 571.163 89.0449   3
  11  -7   2 405.102 95.7540   2
   7 -11  -2 507.363 92.8897   4
   4 -11  -2 620.263 99.9388   4
 -11   7   2 547.435 108.010   2
   7 -11   2 399.936 73.3105   4
   4 -11   2 437.710 75.8617   4
  11  -4   2 416.598 84.3296   2
 -11   4  -2 418.211 88.9053   1
  11  -7   3 260.187 88.8392   2
   7 -11  -3 294.419 87.1827   4
   7 -11   3 236.136 56.4913   4
   7 -11   3 466.501 86.8577   3
   7   4   3 424.718 93.3462   1
   4 -11   3 490.158 92.9780   3
  11  -4   3 278.987 78.5414   2
 -11   4  -3 338.599 93.3819   1
  -4  -7   3 215.466 48.6282   5
   4 -11   3 207.107 51.2815   4
   4 -11  -3 319.565 89.5853   4
   4 -11  -4 5369.02 253.488   4
   7 -11   4 5901.35 247.979   3
   7 -11  -4 5481.62 254.776   4
   4 -11   4 5301.06 232.873   3
  -4  -7   4 5419.94 206.496   5
   4 -11  -5 7070.75 296.589   4
   4 -11   5 7104.38 278.558   3
   7 -11  -5 7301.97 297.458   4
   7 -11   5 7132.58 280.371   3
  -7  -4   5 7024.00 265.546   5
  -4  -7   5 7404.32 258.293   5
  -4  -7   6 1571.37 138.327   5
   4 -11   6 1439.69 140.716   3
   7 -11   6 1707.96 152.982   3
  -7  -4   6 1643.04 148.777   5
   4 -11  -6 1490.16 150.540   4
   7 -11  -6 1479.84 152.112   4
  11  -7  -6 1621.62 148.966   4
   7 -11   7 2854.09 200.210   3
  -7  -4   7 2865.81 199.700   5
   7 -11  -7 2516.40 198.879   4
   4 -11   7 2596.09 187.894   3
  11  -7  -7 2366.62 179.633   4
  -4  -7   7 2492.92 175.682   5
   4 -11  -7 2425.78 191.777   4
   7 -11   8 27.0822 67.9896   3
   4 -11   8 41.8947 64.1363   5
   7 -11  -8 58.7972 75.6210   4
  -7  -4   8 61.4084 80.6601   5
   4 -11   8 105.174 71.0996   3
   4 -11  -8-18.4003 81.8122   4
  -4  -7   8 69.0995 68.8249   5
  -4  -7   9 59.6955 74.2962   5
  -7  -4   9 84.1573 78.3450   5
   7 -11  -9 115.891 83.2666   4
   4 -11   9 156.850 79.6467   3
   4 -11  -9 103.716 71.8137   4
   4 -11   9 128.233 82.1464   5
   7 -11   9 186.404 86.7096   3
   7 -11  10 66.8879 80.3624   3
  -7  -4  10-31.1494 85.8868   5
   4 -11  10 165.045 83.5760   3
   4 -11  10 12.0563 83.6985   5
  -4  -7  10 106.824 85.5033   5
  -7  -4  11-0.72664 91.3897   5
   7 -11  11 92.8534 73.7901   3
   4 -11  11 140.004 91.2510   5
   7 -11  11 106.076 91.0510   5
  11  -7  11 74.0468 92.8820   3
  -4  -7  11-77.2944 90.2605   5
   4 -11  12-23.3078 98.9893   5
  -4  -7  12 10.0846 87.0254   5
   7 -11  12 49.0432 72.6069   3
   4 -11 -12 25.6277 18.8421   7
 -11   7  12 6.64227 23.4591   6
 -11   4  12 30.6324 24.1559   6
   4 -11  12 13.2309 21.2718   6
  -4  -7  12 8.90557 24.8789   6
  -7  -4  12 16.6539 27.8726   6
   7 -11  12 20.2248 19.6679   6
  -7  -4  12-21.4834 89.1205   5
  11  -7  12-37.4533 90.5882   3
   7 -11  12 65.0067 101.299   5
  -4  -7  13 73.0550 85.0348   5
   7 -11  13 40.2513 94.7659   5
  -4  -7  13 51.1449 32.1703   6
   4 -11 -13 59.6912 19.4534   7
 -11   7  13 135.514 29.9115   6
 -11   4  13 142.728 27.7178   6
  -7  -4  13 38.6982 96.7140   5
   4 -11  13 7.79840 24.5365   6
   7 -11 -13 106.511 25.3973   7
  -7  -4  13-9.06325 30.9919   6
   4 -11  13 120.104 101.943   5
   7 -11  13 33.3292 21.3126   6
  11  -7  13-59.3422 99.8424   3
 -11   4  14 32.8812 28.7433   6
   4 -11 -14-20.0116 18.1690   7
  -7  -4  14-36.1846 33.6578   6
 -11   7  14 33.7358 29.2827   6
   7 -11  14-42.2004 23.3976   6
  -4  -7  14 23.5743 34.5163   6
   7 -11 -14 22.1110 23.0430   7
   4 -11  14 12.6647 28.0254   6
  -4  -7  15-19.3919 37.5312   6
   7 -11 -15 11.5507 21.9480   7
 -11   7  15 16.1553 29.9490   6
 -11   4  15 24.7726 30.6010   6
   4 -11  15-18.2848 30.6221   6
  -7  -4  15-11.0528 33.3812   6
   7 -11  15-35.1622 24.7174   6
  -7  -4  16-36.5662 32.3269   6
   7 -11 -16-30.7437 20.6561   7
  -4  -7  16-0.64641 35.3639   6
   4 -11  16-53.8096 32.0919   6
   7 -11  16-11.1822 24.0775   6
 -11   4  16 65.7072 31.2799   6
  -7  -4  17 16.9586 26.4454   6
  -4  -7  17 41.0529 30.7985   6
   7 -11  17-17.1729 22.4815   6
   7 -11 -17 0.95813 16.2298   7
   4 -11  17-53.3797 29.4287   6
  11  -7 -18 1.97128 13.2869   7
  -4  -7  18-22.6514 21.3104   6
   4 -11  18 4.46025 20.2746   6
   7 -11  18-4.39444 17.2351   6
  -7  -4  18-5.04747 21.1408   6
  -7  -4  19 4.42171 14.5976   6
   4 -11  19-6.59397 11.8321   6
   4 -11 -19-5.93081 10.7752   8
  -4  -7  19 12.2289 14.6190   6
  -4  -7 -19-8.46236 14.1363   8
   3   8   0 780.999 114.246   2
   8 -11   0 770.944 91.2116   3
   8 -11   0 843.651 102.453   4
  11  -8   0 592.715 64.8532   3
   3 -11   0 701.973 102.080   3
   3 -11   0 826.755 103.919   4
   3 -11   1 11326.3 327.942   4
  11  -8   1 10927.5 272.004   3
   8 -11   1 11708.1 322.913   4
   3 -11  -1 11253.5 347.192   4
   3   8  -1 11373.4 415.136   2
   3 -11   1 12188.8 341.237   3
   8 -11   1 11685.5 309.541   3
 -11   8   1 11252.8 444.188   2
   8 -11  -1 11481.7 332.561   4
   8 -11  -1 11001.4 290.318   3
   3 -11   2 2847.34 167.200   3
 -11   8   2 2587.56 215.164   2
   3 -11  -2 2740.63 176.713   4
   8 -11   2 2688.84 155.017   3
   8 -11  -2 2711.85 169.507   4
   8 -11   2 2677.39 153.872   4
  11  -8   2 2602.29 142.838   3
  11  -8   2 2735.05 228.782   2
   3 -11   2 2559.10 153.353   4
   8 -11  -2 2625.51 138.231   3
 -11   8   3 7048.67 356.328   2
   8 -11   3 5332.26 213.579   4
   8 -11  -3 7223.47 279.572   4
   8 -11   3 7572.84 263.870   3
   3 -11   3 7326.49 266.630   3
  -3  -8   3 5762.95 190.129   5
   3 -11  -3 7456.20 294.841   4
   3 -11   3 4893.41 205.355   4
   8 -11  -4 17318.9 451.641   4
   8 -11   4 18024.4 428.722   3
   3 -11  -4 17631.7 466.494   4
   3 -11   4 17897.4 436.435   3
  -3  -8   4 17794.6 376.757   5
   8 -11  -5 10763.6 361.404   4
   3 -11   5 10958.1 347.542   3
  -3  -8   5 11055.8 312.949   5
  11  -8  -5 11135.0 367.022   4
  -3  -8   5 10384.9 322.974   3
   3 -11  -5 10738.8 375.302   4
   8 -11   5 11048.9 355.564   3
   8 -11   6 8267.48 318.966   3
  -3  -8   6 7733.78 278.238   5
  11  -8  -6 7530.67 313.245   4
   8 -11  -6 8035.75 332.880   4
   3 -11  -6 7606.86 320.408   4
   3 -11   6 7465.73 272.105   5
   3 -11   6 7612.52 301.415   3
   8 -11   7 2698.06 199.594   3
  11  -8  -7 2640.92 198.888   4
   3 -11   7 2724.70 185.027   5
   3 -11   7 2559.11 187.366   3
  -3  -8   7 2653.79 179.228   5
   3 -11  -7 2343.30 195.330   4
  -8  -3   7 2767.88 200.059   5
   8 -11  -7 3017.61 211.409   4
   8 -11   8 1964.34 180.043   3
  11  -8  -8 1755.71 163.064   4
   3 -11   8 2149.89 174.126   5
   3 -11  -8 1841.71 173.296   4
  -8  -3   8 1942.99 177.401   5
  -3  -8   8 2003.44 173.469   5
   8 -11  -8 1964.48 180.620   4
   3 -11   8 1694.31 161.183   3
  -3  -8   9 478.508 111.538   5
  -8  -3   9 469.947 120.803   5
   8 -11  -9 435.846 114.669   4
   3 -11   9 367.162 94.5934   3
   3 -11   9 499.721 113.114   5
   8 -11   9 320.781 100.671   3
  11  -8   9 440.297 122.428   3
   3 -11  -9 514.969 117.505   4
   3 -11  10 814.095 132.490   3
  -8  -3  10 784.228 144.639   5
  11  -8  10 739.156 143.811   3
   3 -11  10 769.364 139.494   5
  -3  -8  10 865.315 153.547   5
   8 -11  10 703.272 134.527   3
  -8  -3  11 172.039 106.236   5
  11  -8  11 173.268 106.134   3
   3 -11  11 146.422 104.902   5
   8 -11  11 79.6325 87.9357   3
  -3  -8  11 182.752 101.318   5
  -3  -8  12-33.7497 26.0290   6
 -11   3  12-5.23428 25.4321   6
   3 -11 -12 22.8366 21.1687   7
 -11   8  12 19.3676 23.0684   6
   8 -11  12-29.8444 21.0250   6
  -8  -3  12 11.0807 28.2651   6
   8 -11  12 42.5713 101.298   5
   8 -11  12 72.4132 83.2319   3
  11  -8  12-18.0240 90.9224   3
   3 -11  12 9.38053 90.0488   5
   3 -11  12 39.8734 23.6134   6
  -3  -8  12-26.2145 99.6951   5
  -3  -8  13 212.089 112.034   5
  -8  -3  13 174.737 35.6094   6
   3 -11  13 111.835 30.6308   6
   8 -11  13 90.2031 23.1230   6
   3 -11  13 279.155 125.572   5
  -3  -8  13 152.845 34.4724   6
   8 -11  13 221.267 118.981   5
 -11   8  13 255.498 32.2014   6
   3 -11 -13 275.500 28.5992   7
 -11   3  13 290.003 33.7137   6
  11  -8  13 179.337 101.205   3
 -11   3  14 83.9812 32.2937   6
  -3  -8  14-30.0066 37.5209   6
   3 -11  14 58.3559 33.9047   6
   8 -11 -14 40.1057 26.3321   7
  -8  -3  14 59.0397 34.9234   6
   8 -11  14-53.8170 23.4924   6
 -11   8  14 32.9355 31.0741   6
  -3  -8  15 46.8870 41.7217   6
   3 -11  15 69.0371 36.6744   6
  -8  -3  15 20.7278 34.3967   6
   8 -11  15-57.7475 25.4348   6
   8 -11 -15 19.7300 24.1366   7
   3 -11  16 242.394 41.0205   6
 -11   3  16 229.941 35.3836   6
   8 -11  16-9.49029 22.7911   6
  -8  -3  16 61.8547 31.4718   6
  -3  -8  16 14.4350 39.4050   6
   8 -11 -16-27.0664 22.2526   7
  11  -8 -17 13.0151 18.4550   7
  -8  -3  17 52.4074 27.9269   6
   8 -11  17 24.8632 20.8440   6
  -3  -8  17 35.4312 32.7717   6
   8 -11 -17 25.4868 17.1894   7
  11  -8 -18 13.5554 14.2217   7
  -8  -3  18 52.1145 23.1087   6
  -3  -8  18 15.1020 22.8350   6
   8 -11  18 2.93161 15.5942   6
  -3  -8 -19 28.9262 14.0164   8
  -3  -8  19-11.8044 13.6581   6
   3 -11  19 24.7323 13.0441   6
   3 -11 -19 30.0376 11.7987   8
   2   9   0 51230.5 1006.24   2
  11  -9   0 54955.6 697.812   3
   9 -11   0 53062.9 799.933   4
   9 -11   0 53740.3 737.778   3
   2 -11   0 56672.5 835.511   4
 -11   9   0 57831.0 1141.73   2
   9 -11  -1 43822.6 635.250   3
   2   9  -1 44590.3 920.552   2
   9 -11   1 43991.2 696.380   4
   9 -11  -1 43733.9 714.742   4
  11  -9   1 42425.9 616.529   3
   2   9   1 41504.6 892.212   2
 -11   9   1 46438.0 1000.44   2
   9 -11   1 45823.7 671.007   3
   2 -11   1 47757.5 740.549   3
   2 -11   1 44097.4 716.266   4
   2 -11  -1 46724.3 752.772   4
   9 -11   2 41934.3 660.712   3
   9 -11   2 39745.7 656.845   4
   9 -11  -2 39935.1 701.899   4
 -11   9   2 42575.8 951.629   2
  11  -9   2 40272.1 618.378   3
   2 -11   2 44367.3 719.400   3
   2   9  -2 43510.0 921.687   2
   9 -11  -2 39956.6 598.481   3
   2 -11  -2 41893.7 738.879   4
   2 -11   2 41884.9 677.092   4
   9 -11  -3 33100.1 631.874   4
   9 -11   3 32945.9 581.079   3
   2 -11   3 34284.5 616.842   3
  11  -9   3 32824.1 564.772   3
   2 -11   4 26953.2 540.019   3
  11  -9   4 26892.8 523.742   3
   9 -11  -4 26942.2 574.210   4
   2 -11  -4 28884.0 604.630   4
  -2  -9   4 26213.7 531.371   3
   9 -11   4 26548.0 524.581   3
  11  -9  -4 27588.0 581.279   4
  11  -9   5 15525.2 411.595   3
  -2  -9   5 14439.1 403.682   3
   9 -11   5 15184.3 416.647   3
  11  -9  -5 14619.5 438.666   4
   2 -11  -5 14760.0 452.883   4
  -2  -9   5 14160.2 358.674   5
   9 -11  -5 14166.5 437.566   4
   2 -11   5 13462.6 343.988   5
   2 -11   5 15042.3 414.449   3
  11  -9   6 18906.2 488.846   3
   9 -11  -6 17371.2 494.864   4
  -2  -9   6 17508.7 452.840   3
  11  -9  -6 17620.8 486.148   4
   9 -11   6 18394.3 475.346   3
   2 -11   6 18160.2 473.512   3
   2 -11  -6 18155.0 509.269   4
  -2  -9   6 17169.3 426.143   5
   2 -11   6 18023.5 430.241   5
   9 -11  -7 16799.3 500.930   4
  11  -9   7 17772.4 496.335   3
   9 -11   7 17392.6 486.938   3
  11  -9  -7 16930.7 490.858   4
   2 -11   7 16180.7 458.328   3
   2 -11  -7 17223.1 510.651   4
   2 -11   7 16947.3 446.097   5
  -2  -9   7 16267.4 443.115   5
  11  -9   8 6790.03 325.822   3
  11  -9  -8 6379.43 302.476   4
   9 -11  -8 6560.78 318.090   4
   2 -11  -8 6411.09 322.457   4
   9 -11   8 6226.20 312.096   3
  -2  -9   8 6720.50 300.146   5
   2 -11   8 6459.99 304.950   3
   2 -11   8 6699.59 303.479   5
   9 -11   9 7439.90 353.778   3
   9 -11  -9 7641.26 351.057   4
   2 -11   9 7556.53 338.610   3
  -2  -9   9 7520.22 335.377   5
  11  -9   9 7620.71 354.307   3
   2 -11   9 8332.71 354.573   5
  11  -9  10 5769.01 326.914   3
   9 -11  10 5738.86 321.711   3
   2 -11  10 6124.88 332.932   5
  -2  -9  10 5709.55 312.501   5
   2 -11  11 906.432 155.794   5
  -2  -9  11 826.450 155.496   5
  11  -9  11 850.907 152.110   3
   9 -11  11 730.970 137.862   3
   9 -11  12 264.928 108.983   3
   2 -11  12 238.210 27.2159   6
   2 -11  12 346.714 121.562   5
  -2  -9  12 268.856 122.039   5
 -11   9  12 215.471 29.0868   6
 -11   2  12 231.373 28.5882   6
  -2  -9  12 237.438 29.5311   6
  11  -9  12 51.7344 92.0799   3
  -9  -2  12 247.853 32.2213   6
  11  -9  12 141.816 17.8487   6
   9 -11  12 118.267 21.3265   6
   9 -11  13 747.172 149.871   3
 -11   9  13 823.198 42.4953   6
 -11   2  13 874.685 39.3627   6
  -9  -2  13 642.169 40.6340   6
   9 -11  13 758.535 161.926   5
   2 -11  13 753.158 155.649   5
  -2  -9  13 916.347 169.581   5
  11  -9  13 955.673 167.559   3
  -2  -9  13 479.963 41.4307   6
   9 -11 -14 207.581 30.5569   7
 -11   2  14 134.842 31.6820   6
   9 -11  14-83.5054 24.8943   6
  11  -9  14-21.6738 19.4080   6
  -2  -9  14 77.6293 39.1424   6
   2 -11  14 63.4720 34.5572   6
  -9  -2  14 172.329 34.4038   6
 -11   2  15-27.9242 30.2130   6
   2 -11  15-37.0490 34.8351   6
  -9  -2  15 27.7910 30.6131   6
   9 -11 -15 10.9364 23.9974   7
  -2  -9  15-14.9552 39.7018   6
   9 -11  15-85.0728 23.9484   6
   9 -11 -16-6.34484 21.4071   7
  -9  -2  16 57.9880 29.7356   6
  -2  -9  16 18.3771 38.8834   6
   9 -11  16-62.3537 22.8446   6
 -11   2  16 2.94938 28.9805   6
   2 -11  16-83.3478 36.6166   6
 -11   2  17-2.17554 26.8954   6
  -9  -2  17 27.6511 25.7198   6
  -2  -9  17 28.6596 33.0534   6
  11  -9 -17 3.00302 17.7965   7
   9 -11 -17-9.61428 17.0001   7
   9 -11  17 43.9619 21.1240   6
   2 -11  17 28.3154 32.1405   6
   9 -11 -18 5.19372 11.8681   7
  -2  -9  18-4.29570 21.1112   6
   2 -11  18 36.4011 22.3240   6
  -9  -2  18 17.2293 20.9928   6
   9 -11  18 51.6892 15.7464   6
  -2  -9 -18-33.4602 20.5086   8
  11  -9 -18 0.00739 12.8478   7
  -2  -9  19-8.73202 13.0261   6
   2 -11  19 8.84327 12.2573   6
   2 -11 -19 26.9894 12.0285   8
  -2  -9 -19 13.7218 12.2991   8
  10 -11   0 18377.9 440.901   4
  10 -11   0 17610.8 379.142   3
  11 -10   0 18406.7 370.102   3
   1 -11   0 19066.8 454.871   4
  11 -10   1 16066.4 353.475   3
   1  10  -1 15981.4 561.564   2
  11 -10  -1 16340.0 431.436   4
  10 -11   1 15975.2 406.170   4
  10 -11   1 16075.3 371.437   3
  10 -11  -1 16201.5 418.225   4
  11 -10  -1 16255.5 328.008   3
   1 -11   1 17274.4 425.782   3
  10 -11  -1 16317.4 350.145   3
   1 -11  -1 16877.3 441.670   4
   1 -11   1 16236.1 415.419   4
  11 -10  -2 6843.53 283.009   4
  10 -11   2 6256.80 249.227   4
  10 -11   2 6231.90 243.385   3
  10 -11  -2 6090.11 205.211   3
   1 -11   2 6796.84 273.340   3
  11 -10   2 6387.48 230.801   3
   1 -11  -2 6793.80 286.126   4
  10 -11  -2 6702.88 278.198   4
  10 -11  -3 18247.3 473.906   4
  10 -11   3 17533.5 418.822   3
  11 -10   3 17953.2 415.147   3
  10 -11   3 17140.7 413.597   4
   1 -11   3 18583.1 455.245   3
  -1 -10   3 17783.8 441.280   3
   1 -11  -3 18853.7 484.690   4
  11 -10  -3 18803.7 475.973   4
  10 -11   4 7545.73 278.363   3
  10 -11  -4 7436.64 307.756   4
  -1 -10   4 6770.75 279.978   3
   1 -11  -4 7290.95 318.799   4
  11 -10  -4 7340.98 306.920   4
  11 -10   4 7034.98 272.678   3
  11 -10   4 7398.42 259.478   4
   1 -11   4 7272.96 288.454   3
  11 -10   5 1232.50 137.922   3
  10 -11   5 1179.32 137.584   3
  -1 -10   5 785.736 116.304   3
  11 -10  -5 967.212 143.508   4
  10 -11  -5 1222.48 150.804   4
   1 -11  -5 1227.37 156.343   4
   1 -11   5 1144.28 132.998   3
  -1 -10   5 679.441 83.7223   5
   1 -11   5 599.666 83.4711   5
  10 -11   6 3310.51 224.268   3
  11 -10   6 3492.46 224.145   3
  11 -10  -6 3098.63 217.752   4
  10 -11  -6 3520.89 229.821   4
  -1 -10   6 2949.87 178.518   5
   1 -11   6 3204.45 187.740   5
  -1 -10   6 3157.25 203.070   3
   1 -11  -6 3395.34 242.680   4
   1 -11   6 3114.15 205.429   3
  -1 -10   7 3334.34 201.382   5
  11 -10  -7 3510.13 230.996   4
   1 -11  -7 3486.73 243.540   4
  10 -11  -7 3299.74 227.725   4
  10 -11   7 3434.17 231.070   3
   1 -11   7 3394.36 216.265   3
  -1 -10   7 3282.30 208.860   3
  11 -10   7 3338.05 228.994   3
   1 -11   7 3314.20 202.827   5
  11 -10   8 2991.81 222.785   3
  10 -11   8 2743.77 216.465   3
  10 -11  -8 2735.23 218.146   4
  -1 -10   8 2708.19 201.029   5
   1 -11   8 2789.49 205.957   3
  11 -10  -8 2919.41 214.984   4
   1 -11   8 2814.62 202.886   5
  10 -11   9 1017.49 152.353   3
  -1 -10   9 1045.70 145.285   5
   1 -11   9 1159.83 151.657   5
  11 -10   9 1298.35 168.700   3
  10 -11  10 605.953 124.853   3
   1 -11  10 770.675 138.590   5
  -1 -10  10 635.785 129.141   5
  11 -10  10 673.863 138.179   3
 -11   1  11 876.722 36.3616   6
  -1 -10  11 671.799 31.8030   6
  11 -10  11 962.685 156.295   3
  -1 -10  11 1054.17 165.646   5
  10 -11  11 610.527 29.2513   6
   1 -11  11 935.217 34.1872   6
   1 -11  11 1067.46 168.802   5
  10 -11  11 943.992 152.849   3
  11 -10  12 213.607 20.4031   6
  -1 -10  12 434.591 128.269   5
 -11   1  12 302.403 30.4546   6
   1 -11  12 445.640 127.206   5
  11 -10  12 326.460 115.254   3
  10 -11  12 151.453 22.0101   6
 -10  -1  12 330.189 32.5233   6
   1 -11  12 224.419 29.9576   6
  -1 -10  12 310.291 30.1467   6
  10 -11  12 403.515 121.551   3
  10 -11  13 39.1745 91.3696   3
 -11   1  13 57.6998 27.0100   6
 -10  -1  13 27.8614 27.6113   6
   1 -11  13-8.89030 28.7355   6
  10 -11  13 1.49278 18.1819   6
  11 -10  13 2.50462 16.4424   6
   1 -11  13-14.5934 85.3685   5
  -1 -10  13 39.7024 28.7657   6
  11 -10  13 51.3875 86.0743   3
  10 -11  13-2.30580 96.6971   5
  -1 -10  13-102.739 107.476   5
 -11   1  14-2.42294 30.5785   6
 -10  -1  14 31.7817 30.0703   6
   1 -11  14 42.6224 35.5310   6
  -1 -10  14-29.0662 35.2484   6
  11 -10  14-45.0685 22.1585   6
  10 -11 -15 6.91690 24.0275   7
   1 -11  15 18.7896 35.2295   6
 -10  -1  15 3.99324 28.0179   6
  -1 -10  15-38.0039 36.6972   6
 -11   1  15 36.4685 29.4726   6
  10 -11  15-62.3431 20.3694   6
  11 -10  15-51.1013 19.5182   6
  11 -10 -16 13.3295 20.9978   7
 -11   1  16-27.1774 28.6534   6
  -1 -10  16 7.12307 36.4196   6
  10 -11  16-11.0979 18.7569   6
   1 -11  16 66.7269 36.8872   6
  11 -10  16 33.6896 19.1075   6
 -10  -1  16 10.4482 27.4161   6
  10 -11 -16-5.21430 21.1606   7
  11 -10 -17-19.2540 17.8360   7
 -11   1  17 43.3813 26.3465   6
 -10  -1  17 53.2146 25.2830   6
  -1 -10  17-27.2646 30.5182   6
  10 -11  17 35.7506 18.1495   6
  10 -11 -17-23.6077 17.5742   7
   1 -11  17 96.7243 32.4515   6
  10 -11 -18-0.35784 10.1024   7
  11 -10 -18 15.7439 13.2897   7
  -1 -10 -18-10.3891 18.5654   8
  -1 -10  18-1.42817 20.1204   6
   1 -11  18 31.7527 21.2418   6
   1 -11 -18-9.01866 17.2561   8
  10 -11  18 13.9910 12.5989   6
  -1 -10 -19-4.91786 11.3117   8
  11 -11   0 211619. 2022.66   3
  11 -11   0 213498. 2181.41   4
  11 -11  -1 129177. 1517.16   4
  11 -11   1 129513. 1386.42   3
   0 -11  -1 129143. 1529.62   4
  11 -11  -1 128563. 1336.11   3
  11 -11   1 129686. 1479.26   4
  11 -11  -2 188798. 2003.83   4
   0 -11  -2 187530. 2043.38   4
  11 -11   2 184195. 1928.91   4
  11 -11   2 186754. 1887.82   3
   0 -11   2 191770. 2000.40   3
  11 -11  -3 140729. 1633.53   4
  11 -11   3 136117. 1510.15   3
   0 -11   3 138503. 1589.11   3
   0 -11  -3 139609. 1668.74   4
  11 -11   4 90641.4 1170.05   3
  11 -11  -4 93044.0 1263.23   4
   0 -11  -4 93184.7 1294.85   4
   0 -11   4 90374.7 1202.76   3
   0 -11   5 91672.1 1117.44   5
  11 -11  -5 95708.9 1299.72   4
  11 -11   5 92914.3 1215.91   3
   0 -11   5 94651.1 1261.37   3
   0 -11  -5 95512.9 1332.57   4
   0 -11   6 80288.1 1153.97   3
  11 -11   6 83430.3 1165.26   3
  11 -11  -6 82073.2 1215.10   4
   0 -11   6 80924.6 1076.03   5
  11 -11   7 44046.8 822.467   3
   0 -11   7 41715.4 797.242   3
   0 -11   7 43272.8 773.453   5
  11 -11  -7 42414.8 848.963   4
  11 -11   8 40870.9 830.840   3
  11 -11  -8 42789.1 868.556   4
   0 -11   8 42917.8 804.368   5
   0 -11   8 39920.1 803.907   3
  11 -11   9 24296.4 647.776   3
   0 -11   9 25103.9 636.137   5
   0 -11  10 7699.50 371.300   5
  11 -11  10 7813.74 377.370   3
   0 -11  11 3861.26 67.7496   6
  11 -11  11 4641.91 309.184   3
 -11   0  11 4963.51 78.4564   6
   0 -11  11 4897.75 313.179   5
 -11   0  12 4181.78 71.4154   6
   0 -11  12 4259.11 303.076   5
  11 -11  12 4299.99 304.770   3
 -11   0  13 1101.91 41.4006   6
   0 -11  13 996.287 43.9409   6
  11 -11  13 965.987 161.650   3
 -11   0  14 1096.69 46.5306   6
   0 -11  14 611.182 48.2587   6
 -11   0  15 105.474 30.0336   6
   0 -11  15 62.5749 37.6170   6
  11 -11 -15 137.707 26.8411   7
 -11   0  16 61.9841 27.9025   6
  11 -11  16 13.1995 18.1096   6
  11 -11 -16 15.7527 21.3307   7
   0 -11  16-27.2233 35.1224   6
   0 -11  17-15.5028 28.9211   6
  11 -11 -17 13.4995 17.5763   7
  11 -11  17 18.1299 15.9316   6
 -11   0  17 45.0271 24.3847   6
  11 -11 -18 17.3683 10.6807   7
   0 -11  18-14.5163 19.1059   6
   6 -12   0 189.048 63.9192   4
   6 -12   0 80.8332 54.2364   3
   6 -12  -1 1161.66 118.824   4
   6 -12  -1 1164.10 110.640   3
   6 -12   1 1139.76 114.499   4
   6 -12   1 1097.61 111.544   3
   6 -12  -2 11074.9 354.169   4
   6 -12   2 11512.9 337.974   4
   6 -12   2 11739.6 339.611   3
   6 -12   3 832.083 110.799   3
   6 -12   3 680.411 85.7137   4
   6 -12  -3 877.607 119.987   4
   6 -12   4 10380.5 341.503   3
   6 -12  -4 10913.8 370.991   4
   6 -12   5 4155.00 226.091   3
   6 -12  -5 4090.68 236.051   4
  -6  -6   5 4069.16 201.814   5
   6 -12   6 94.1827 72.7527   3
  -6  -6   6 53.8520 58.4567   5
   6 -12  -6 132.988 87.4129   4
   6 -12   7 840.115 125.815   3
   6 -12  -7 850.428 134.509   4
  12  -6  -7 806.650 118.462   4
  -6  -6   7 834.705 121.352   5
  -6  -6   8 522.700 107.106   5
   6 -12   8 612.392 114.830   3
   6 -12  -8 659.072 116.856   4
   6 -12   9 22.6188 76.4377   3
  -6  -6   9-18.3563 84.8083   5
   6 -12  -9-36.0101 81.9414   4
   6 -12  10-30.7335 79.1436   3
   6 -12  10-45.2707 83.7453   5
  -6  -6  10-43.9572 94.8449   5
  -6  -6  11-3.92564 97.4828   5
   6 -12 -11 11.7387 19.5840   7
   6 -12  11 11.1926 82.2093   5
   6 -12  11-164.010 107.810   3
 -12   6  11-15.6341 21.7377   6
   6 -12  11-1.06304 22.0635   6
   6 -12  12-10.1077 23.8691   6
   6 -12 -12 38.9894 23.1718   7
 -12   6  12 14.2724 25.7119   6
  -6  -6  12-1.10395 28.5764   6
  -6  -6  12-25.3631 91.4784   5
   6 -12  12-35.5568 98.2297   5
  12  -6  12-39.1151 95.0023   3
   6 -12  13 114.510 110.561   5
   6 -12 -13 69.8530 25.1462   7
 -12   6  13 112.792 30.0357   6
  -6  -6  13-24.7497 33.8289   6
   6 -12  13-32.1324 26.8619   6
  12  -6  13 43.9995 92.6924   3
  -6  -6  13-15.5115 94.2760   5
   6 -12  14-24.0891 26.3603   6
 -12   6  14 62.1171 30.8621   6
  -6  -6  14 9.16349 35.1813   6
   6 -12 -14 6.40007 23.4330   7
   6 -12 -15 109.138 23.5874   7
 -12   6  15 114.058 33.0674   6
  -6  -6  15-3.02970 34.8264   6
   6 -12  15-50.3116 28.2707   6
  -6  -6  16 26.0210 34.0256   6
   6 -12 -16 11.6109 19.7733   7
  -6  -6  17 73.9386 27.5236   6
   6 -12  17-16.6248 24.9791   6
  -6  -6  18 14.8595 19.6285   6
   6 -12  18 14.8480 18.3637   6
  12  -6 -18-3.59055 12.7523   7
  -6  -6 -18 4.60725 17.6953   8
   7 -12   0 4082.05 207.238   4
   7 -12   0 3715.61 182.125   3
  12  -7   0 3621.10 144.180   3
   5 -12   0 3900.49 201.344   4
   5 -12   0 3832.04 197.100   3
   5 -12   1 7052.08 265.189   3
   7 -12  -1 6986.16 270.943   4
   7 -12   1 7170.31 268.547   4
   7 -12   1 7391.34 261.260   3
   5 -12  -1 6920.75 259.352   3
   5 -12  -1 6866.66 279.176   4
   5 -12   1 7249.94 272.826   4
   7 -12  -1 7019.77 246.768   3
 -12   7  -2 302.224 93.8856   1
   5 -12   2 217.899 62.4340   4
   7 -12   2 257.431 74.7487   3
   7 -12   2 198.025 62.0595   4
   5 -12  -2 348.943 89.7430   4
   5 -12   2 280.447 75.4206   3
   7 -12  -2 241.890 77.0937   4
   7 -12  -2 231.420 60.9853   3
  12  -7   2 347.532 93.3719   2
   7 -12   3 3509.05 191.050   3
   5 -12   3 3127.04 186.068   3
   5 -12   3 2207.47 142.247   4
   7 -12   3 2336.17 146.975   4
   7 -12  -3 3457.29 206.498   4
   5 -12  -3 3533.18 207.254   4
   5 -12   4 1784.83 147.087   3
   7 -12  -4 1654.85 152.963   4
   7 -12   4 1651.08 147.085   3
   5 -12  -4 1697.59 160.025   4
  -5  -7   4 1627.50 120.521   5
  -5  -7   5 2959.72 169.495   5
   7 -12   5 3059.14 196.245   3
   7 -12  -5 2924.48 201.000   4
   5 -12  -5 3389.23 219.283   4
   5 -12   5 2933.71 188.365   3
   7 -12   6 29.6349 65.2164   3
   5 -12   6 56.2946 65.3812   3
  12  -7  -6-27.8315 63.9238   4
  -5  -7   6 28.9322 55.5757   5
   7 -12  -6 54.8069 76.5765   4
  -7  -5   6-16.8052 59.7116   5
   5 -12  -6-10.1896 73.4285   4
  -7  -5   7 146.222 77.2110   5
   7 -12  -7 150.504 83.4122   4
   7 -12   7 139.084 79.8404   3
  12  -7  -7 109.400 71.3515   4
   5 -12   7 142.774 81.1690   3
   5 -12  -7 140.812 84.2172   4
  -5  -7   7 143.572 69.7859   5
  -7  -5   8 674.066 116.779   5
   7 -12   8 634.763 110.848   3
   5 -12   8 770.234 123.559   3
   7 -12  -8 941.652 136.435   4
  -5  -7   8 765.062 124.204   5
   5 -12  -8 708.435 124.086   4
   7 -12   9 325.450 100.242   3
  -7  -5   9 386.244 104.898   5
   5 -12   9 353.283 105.912   5
   5 -12   9 320.456 98.7943   3
  -5  -7   9 348.993 97.8728   5
   7 -12  -9 328.829 96.6157   4
   5 -12  -9 339.641 94.7644   4
  -7  -5  10-12.8289 84.9263   5
   7 -12  10 38.7423 83.1539   3
   5 -12  10-17.9158 79.4549   5
   5 -12  10-34.6666 84.6222   3
  -5  -7  10 8.58682 81.2748   5
  -5  -7  11 390.154 107.224   5
   7 -12  11 357.205 27.8962   6
   7 -12  11 316.767 102.545   3
   5 -12  11 472.283 128.509   5
 -12   7  11 400.333 28.3987   6
   7 -12  11 615.275 136.642   5
   5 -12  11 408.325 28.2478   6
  -7  -5  11 396.516 120.528   5
  12  -7  11 418.129 119.147   3
   5 -12  11 113.514 63.3003   3
   5 -12 -11 347.546 27.2485   7
   7 -12 -11 381.672 28.0512   7
 -12   5  11 420.384 28.6856   6
  -5  -7  12-1.34404 89.2204   5
  12  -7  12 128.668 92.8466   3
   5 -12 -12 18.1118 21.4308   7
  -7  -5  12 25.1058 28.0645   6
   7 -12 -12 53.3500 24.3276   7
   7 -12  12 9.44988 87.4828   5
   7 -12  12 10.4449 80.6665   3
  -7  -5  12-26.1510 91.1111   5
 -12   7  12-1.27320 24.6284   6
   5 -12  12 54.9124 97.7405   5
   7 -12  12 9.14902 23.6872   6
 -12   5  12 5.23667 24.4541   6
  -5  -7  12 4.27779 26.7723   6
   5 -12  12-8.78357 23.9539   6
   7 -12  13 65.4213 23.0934   6
   5 -12 -13 94.9811 24.5477   7
   7 -12  13 154.158 109.260   5
   7 -12 -13 113.754 26.0532   7
 -12   7  13 99.2766 29.0949   6
 -12   5  13 119.180 29.1243   6
  -5  -7  13 18.7011 32.0080   6
  12  -7  13 26.0829 83.2056   3
   5 -12  13 306.641 126.811   5
  -5  -7  13 169.113 104.218   5
  12  -5  13 75.5440 94.0740   3
  -7  -5  13-17.1959 32.9598   6
   5 -12  13 51.0034 25.0280   6
  -7  -5  14 68.3461 33.9738   6
   5 -12 -14 46.4848 23.3623   7
   7 -12 -14 60.4956 24.6187   7
 -12   7  14 78.8561 30.7094   6
 -12   5  14 42.5913 29.9220   6
  -5  -7  14-11.0219 34.8263   6
   7 -12  14-30.2627 24.4668   6
   5 -12  14-34.3388 27.8722   6
   5 -12  15-8.45853 29.4163   6
 -12   5  15 20.0846 29.7599   6
  -7  -5  15 38.1216 32.7338   6
   7 -12  15-61.9328 25.9758   6
  -5  -7  15 1.86499 35.1290   6
   5 -12 -15 3.55901 20.8551   7
   7 -12 -15 17.9935 22.1151   7
   7 -12 -16-8.48682 19.8448   7
  -7  -5  16 10.6495 30.1853   6
  -5  -7  16 4.72076 32.7694   6
   7 -12  16-39.5889 25.6419   6
   5 -12  16-16.6504 29.5248   6
   7 -12 -17-9.96803 14.7133   7
  -7  -5  17 25.6495 25.8205   6
  -5  -7  17 17.0093 26.6963   6
   5 -12  17 69.4737 27.6973   6
   7 -12  17 3.93163 22.6279   6
  12  -7 -18 12.2182 13.0853   7
  -7  -5  18 23.1791 19.2202   6
  -5  -7  18 7.22141 19.5283   6
  -5  -7 -18-5.71313 18.4223   8
   5 -12  18 36.2978 19.1571   6
   5 -12 -18 7.37404 14.0522   8
  -7  -5 -18-10.2439 17.8506   8
   7 -12  18 16.1056 16.4874   6
   8 -12   0 17656.2 434.335   4
   4 -12   0 18437.1 447.021   4
   4 -12   0 18639.6 445.901   3
   8 -12   0 17669.3 402.370   3
   8 -12   1 2888.43 170.465   4
   8 -12   1 2966.00 169.025   3
   4 -12   1 3176.57 191.075   3
   8 -12  -1 2919.06 162.231   3
   4 -12  -1 3036.53 187.409   4
   4 -12   1 3186.44 183.218   4
   8 -12  -1 2959.93 182.382   4
  12  -8   1 2762.70 140.454   3
  12  -8   2 11672.7 308.322   3
   4 -12   2 11937.1 347.424   4
   8 -12   2 11995.1 337.968   3
   8 -12  -2 11185.1 351.610   4
   4 -12   2 12605.6 362.190   3
  12  -8   2 12544.3 487.401   2
   4 -12  -2 11851.2 377.865   4
   8 -12  -2 11194.3 308.247   3
   8 -12   2 11691.8 340.731   4
   4 -12   3 1545.87 124.998   4
   8 -12  -3 2363.35 175.809   4
   4 -12   3 2253.74 175.551   3
   8 -12   3 1590.21 127.305   4
   4 -12  -3 2526.33 193.917   4
   8 -12   3 2219.72 166.143   3
   4 -12   4 274.389 120.650   3
  -4  -8   4 79.4172 67.0290   5
   8 -12   4 533.887 118.501   3
   8 -12  -4 316.491 115.287   4
   4 -12  -4 324.217 124.715   4
   4 -12   5 741.247 119.692   3
   8 -12   5 563.999 117.254   3
   8 -12  -5 505.297 114.617   4
  -4  -8   5 432.762 85.6295   5
   4 -12  -5 556.823 121.249   4
  -4  -8   6 559.975 95.7106   5
   4 -12   6 496.405 99.6788   3
   8 -12   6 545.631 106.807   3
  12  -8  -6 542.727 103.834   4
   8 -12  -6 428.518 101.094   4
   4 -12  -6 474.936 110.139   4
   8 -12   7 798.627 130.263   3
   4 -12   7 718.181 120.400   3
  12  -8  -7 607.265 113.153   4
   8 -12  -7 537.684 111.463   4
   4 -12  -7 565.430 118.237   4
   4 -12   7 785.126 114.150   5
  -4  -8   7 640.095 113.481   5
   4 -12  -8 588.515 114.617   4
   8 -12   8 731.580 132.576   3
   4 -12   8 590.165 108.696   5
   4 -12   8 568.286 109.826   3
  12  -8  -8 597.845 115.388   4
   8 -12  -8 519.926 111.750   4
  -8  -4   8 662.188 129.790   5
  -4  -8   8 523.452 109.692   5
  -8  -4   9 414.652 118.666   5
   8 -12   9 318.058 106.549   3
   4 -12   9 428.841 99.5762   3
  -4  -8   9 385.305 103.529   5
   8 -12  -9 306.742 95.7298   4
   4 -12   9 481.614 107.363   5
  12  -8   9 546.676 129.590   3
   4 -12  -9 552.239 117.968   4
   4 -12  10 344.958 110.135   5
  -8  -4  10 318.115 115.674   5
   4 -12  10 176.372 80.9656   3
   8 -12  10 263.302 99.1076   3
  12  -8  10 356.029 115.033   3
  -4  -8  10 361.417 114.077   5
   4 -12  11 31.1552 93.0775   5
   8 -12  11-11.5805 22.4322   6
   4 -12  11 40.5833 21.9840   6
  -4  -8  11 104.891 91.8195   5
   8 -12  11 138.975 95.9083   3
   4 -12 -11 35.4298 21.6894   7
 -12   8  11 18.2156 23.8255   6
  -4  -8  11 22.0927 20.8981   6
  12  -8  11 38.5619 94.7079   3
 -12   4  11 19.4265 21.2156   6
  -4  -8  12 2.96380 93.1775   5
   4 -12 -12 89.9367 24.7814   7
   8 -12  12 105.606 98.9942   5
 -12   8  12 81.5060 26.8263   6
   4 -12  12 179.036 110.390   5
   8 -12  12 2.44423 21.8534   6
   8 -12  12-27.2656 85.1262   3
   8 -12 -12 56.0077 26.0001   7
  12  -8  12 52.2573 91.1236   3
   4 -12  12 47.4319 24.7322   6
  -8  -4  12 2.37681 29.0212   6
  -4  -8  12 29.8704 27.5957   6
 -12   4  12 51.6508 25.2507   6
   4 -12 -13 145.435 25.7923   7
  -4  -8  13 176.781 109.436   5
   8 -12  13 34.6488 22.1276   6
   8 -12  13 2.90959 94.4183   5
   8 -12 -13 70.5434 25.7269   7
 -12   4  13 94.0507 28.9202   6
  12  -8  13 26.4953 78.1126   3
  -8  -4  13 52.5755 31.6579   6
   4 -12  13 20.5743 25.7914   6
   4 -12  13 272.027 127.504   5
  -4  -8  13 32.3498 32.4365   6
 -12   8  13 88.9958 28.9750   6
   4 -12 -14-23.1803 20.2545   7
   8 -12 -14 47.3538 25.9532   7
 -12   4  14 34.1931 29.7444   6
  -8  -4  14 52.8714 32.7166   6
   4 -12  14-31.3429 30.3029   6
   8 -12  14-55.9852 24.4028   6
  -4  -8  14 11.9730 35.9812   6
   8 -12 -15 71.9769 24.2375   7
  -8  -4  15-0.19795 29.2992   6
  -4  -8  15 2.47391 36.8311   6
 -12   4  15 89.5318 30.7313   6
   8 -12  15-38.9425 23.6846   6
   4 -12  15-14.6888 31.3446   6
   8 -12  16-53.7978 23.3256   6
  -8  -4  16-0.18861 27.3664   6
  -4  -8  16 13.1476 34.5170   6
   4 -12  16 7.67310 31.6336   6
   8 -12 -16-11.2331 19.5364   7
   8 -12  17 31.1667 21.3246   6
  -4  -8  17 18.4945 27.2145   6
   8 -12 -17-27.5916 16.8475   7
  -8  -4  17 47.2981 24.9955   6
   4 -12  17 9.90298 27.2994   6
  12  -8 -17-1.15311 17.9301   7
  12  -8 -18-25.1528 13.2195   7
  -8  -4  18 14.4809 19.2175   6
  -4  -8  18 0.07875 19.5826   6
  -8  -4 -18 5.29786 16.2483   8
   4 -12 -18 9.15012 15.1318   8
  -4  -8 -18-8.04905 19.2157   8
   8 -12  18 19.8441 15.7488   6
   4 -12  18 2.07768 19.5957   6
   3 -12   0 599.954 114.656   4
   9 -12   0 623.101 112.560   4
   3 -12   0 589.567 115.246   3
  12  -9   0 282.286 57.5390   3
   9 -12   0 554.786 89.8008   3
  12  -9   1 7333.46 228.107   3
   9 -12  -1 7466.57 282.030   4
   9 -12   1 7372.35 274.356   4
   9 -12   1 7549.55 260.921   3
   3 -12  -1 7755.81 303.771   4
   9 -12  -1 7351.99 247.186   3
   3 -12   1 7311.36 282.672   4
   3 -12   1 8026.72 296.209   3
  12  -9   2 1185.56 114.489   3
   9 -12   2 1354.10 135.419   3
   9 -12   2 1367.31 124.433   4
   3 -12  -2 1401.72 153.682   4
   3 -12   2 1384.96 149.223   3
   3 -12   2 1116.84 118.592   4
   9 -12  -2 1302.93 108.628   3
   3 -12   3 292.701 91.1639   3
   9 -12   3 117.852 53.1270   4
   9 -12  -3 199.558 92.8908   4
   3 -12  -3 220.402 96.8043   4
   9 -12   3 190.881 85.4077   3
  12  -9   3 188.394 69.9106   3
   3 -12   3 135.983 51.5380   4
  12  -9   4 3036.33 179.595   3
  12  -9  -4 2865.02 198.447   4
   9 -12  -4 2831.80 199.483   4
   3 -12  -4 2913.50 206.683   4
  -3  -9   4 2700.65 148.156   5
   9 -12   4 2895.87 185.445   3
   3 -12   4 2750.03 183.140   3
   3 -12  -5 1278.36 150.132   4
   9 -12   5 1225.75 142.173   3
   9 -12  -5 1084.41 137.631   4
  -3  -9   5 909.582 99.8228   5
   3 -12   5 1056.14 129.295   3
  12  -9  -5 1143.69 141.394   4
  12  -9   5 1001.82 129.744   3
   3 -12   5 676.699 84.8373   5
   3 -12   6 136.378 65.6961   5
   3 -12   6 218.396 92.8454   3
  12  -9  -6 185.175 90.1613   4
   9 -12  -6 178.736 92.9661   4
   9 -12   6 155.103 98.9353   3
  -3  -9   6 231.083 73.2213   3
  -3  -9   6 267.884 79.8257   5
  12  -9   6 264.685 98.9450   3
   3 -12  -6 115.335 88.9468   4
  -3  -9   7 463.504 93.9177   5
   9 -12  -7 549.955 118.574   4
   3 -12   7 466.847 86.8537   5
   3 -12   7 483.210 109.485   3
  12  -9  -7 693.433 120.576   4
  12  -9   7 571.866 124.312   3
   3 -12  -7 673.285 128.444   4
   9 -12   7 685.422 122.544   3
   3 -12   8 23.7194 61.4280   5
  -3  -9   8 103.345 75.2155   5
   3 -12   8 97.5056 79.5743   3
  12  -9   8 56.3729 96.8236   3
   9 -12  -8 3.37059 93.4146   4
  12  -9  -8 7.67571 73.8410   4
   3 -12  -8 19.3317 81.9372   4
   9 -12   8 123.188 93.0997   3
   3 -12  -9 217.071 92.1861   4
  12  -9   9 251.690 108.271   3
   3 -12   9 184.514 85.8157   5
   9 -12   9 221.312 96.0736   3
  -3  -9   9 249.931 89.2492   5
   3 -12   9 145.061 80.5600   3
   9 -12  -9 276.182 100.281   4
   3 -12  10 686.679 131.969   5
  12  -9  10 779.796 142.005   3
   9 -12  10 797.413 142.711   3
  -3  -9  10 610.313 126.428   5
  -3  -9  11 71.8000 84.2636   5
 -12   9  11-3.42910 21.9015   6
   3 -12 -11 11.8185 19.6794   7
  -3  -9  11-10.7670 20.9054   6
   9 -12  11 60.8616 76.1155   3
   9 -12  11-47.3422 22.0919   6
   3 -12  11 72.0781 91.8501   5
 -12   3  11 14.6128 21.3543   6
  -9  -3  11-27.7850 23.8149   6
  12  -9  11 82.3622 97.1133   3
   3 -12  11-15.7838 22.2235   6
  -3  -9  12 111.167 27.2762   6
   9 -12  12 90.7364 91.6953   3
   3 -12 -12 43.7085 19.5951   7
   9 -12  12 143.470 102.860   5
 -12   3  12 142.593 26.1692   6
  -9  -3  12 99.8864 28.7179   6
 -12   9  12 86.6541 28.2307   6
   9 -12  12 59.7321 20.7761   6
   3 -12  12 80.1039 24.0863   6
  -3  -9  12 97.8735 86.9225   5
  12  -9  12 225.622 112.963   3
   3 -12  12 134.838 101.416   5
   3 -12 -13-53.8053 22.6957   7
   9 -12 -13 63.6555 26.1529   7
  -9  -3  13 36.8034 29.7444   6
  -3  -9  13-6.56671 30.9464   6
 -12   3  13 14.1748 27.5625   6
   3 -12  13-42.3978 28.8377   6
   9 -12  13 25.2553 81.2654   3
   9 -12  13-35.5781 21.8852   6
  12  -9  13 19.2330 85.6668   3
   9 -12 -14 35.4542 25.9927   7
 -12   3  14 21.5325 28.8656   6
  -9  -3  14-47.1217 30.6954   6
  -3  -9  14 10.3078 35.8514   6
   3 -12  14-36.2448 31.5260   6
   9 -12  14-72.3609 22.8281   6
   9 -12 -15 12.8677 23.2194   7
  -9  -3  15-23.3338 27.9012   6
  -3  -9  15 16.1519 36.3531   6
   9 -12  15-67.3797 22.7644   6
   3 -12  15-95.4496 34.5214   6
 -12   3  15-8.58857 29.2777   6
  -9  -3  16 15.9897 26.9489   6
   9 -12 -16-13.1016 20.9510   7
  -3  -9  16-2.04667 34.2139   6
   3 -12  16 61.6703 33.7230   6
   9 -12  16-14.1792 21.1973   6
 -12   3  16-33.7276 29.3518   6
  12  -9 -17-3.64733 16.9644   7
  -9  -3  17 24.3528 23.7174   6
   9 -12  17 1.34425 18.7328   6
   9 -12 -17-14.3308 16.5993   7
   3 -12  17 47.0426 28.9226   6
  -3  -9  17-8.76645 28.2002   6
   9 -12 -18 1.03087 10.8262   7
  12  -9 -18-0.00706 12.7038   7
   3 -12 -18-23.8865 15.5289   8
   3 -12  18 23.1195 19.7638   6
   9 -12  18 9.65127 13.7273   6
  -9  -3  18 17.9434 19.3810   6
  -3  -9 -18 3.13080 17.9525   8
  -3  -9  18 7.70500 18.2069   6
  -9  -3 -18 1.11411 11.7631   8
  12 -10   0 14612.5 329.108   3
  10 -12   0 15513.5 367.611   3
   2 -12   0 15563.6 419.813   4
  10 -12   0 15416.4 408.233   4
  12 -10   1 10972.1 292.796   3
  10 -12   1 11185.4 345.358   4
  10 -12  -1 11041.5 351.631   4
  10 -12  -1 11104.1 298.206   3
   2 -12   1 11939.0 365.591   3
   2 -12  -1 11221.7 362.307   4
  10 -12   1 11301.5 323.975   3
   2 -12   1 11197.0 357.720   4
  12 -10   2 14577.7 353.044   3
  10 -12   2 15103.0 396.537   4
  10 -12  -2 15184.4 430.057   4
   2 -12   2 16074.5 434.571   3
  10 -12  -2 14756.8 344.210   3
  10 -12   2 15410.6 386.278   3
   2 -12   2 15300.7 407.294   4
   2 -12  -2 15767.0 451.912   4
  12 -10   3 9198.76 291.938   3
  10 -12   3 9185.54 298.651   4
  10 -12  -3 10040.9 349.866   4
   2 -12   3 9729.10 336.310   3
  12 -10  -3 9758.65 355.128   4
  10 -12   3 9689.60 312.837   3
   2 -12  -3 9722.50 363.395   4
  10 -12   4 6879.61 275.119   3
  10 -12  -4 6870.07 302.476   4
   2 -12   4 6731.36 285.357   3
  12 -10   4 6568.70 260.731   3
  12 -10  -4 6605.82 300.862   4
   2 -12  -4 6630.20 304.038   4
  -2 -10   5 4491.86 202.907   5
  10 -12   5 4643.70 244.988   3
  12 -10  -5 4224.01 250.600   4
  10 -12  -5 4416.41 257.313   4
  -2 -10   5 4401.36 231.827   3
   2 -12   5 4590.91 245.376   3
  12 -10   5 4719.73 234.333   3
   2 -12  -5 4685.42 266.783   4
  10 -12  -6 8613.23 355.783   4
  12 -10   6 8738.27 342.358   3
   2 -12   6 8605.82 336.836   3
   2 -12  -6 8447.03 370.847   4
  -2 -10   6 8933.54 304.623   5
   2 -12   6 8683.62 300.794   5
  12 -10  -6 8898.65 360.143   4
  10 -12   6 9002.43 343.324   3
  -2 -10   6 8427.54 324.547   3
  12 -10   7 4633.51 260.560   3
  12 -10  -7 4703.73 266.151   4
  10 -12  -7 4686.06 275.143   4
   2 -12   7 4368.41 248.747   3
  10 -12   7 4287.04 257.444   3
   2 -12   7 4689.85 239.590   5
   2 -12  -7 4636.90 279.247   4
  -2 -10   7 4334.82 228.384   5
  -2 -10   8 2566.46 191.616   5
   2 -12  -8 2597.14 220.140   4
  12 -10  -8 2590.22 206.028   4
   2 -12   8 2466.54 196.661   3
  10 -12   8 2577.86 207.327   3
  10 -12  -8 2515.59 212.137   4
  12 -10   8 2646.94 212.030   3
   2 -12   8 2609.20 199.959   5
  12 -10   9 2131.20 199.022   3
  -2 -10   9 2234.28 191.943   5
   2 -12   9 1892.31 182.945   3
  10 -12  -9 2382.80 211.013   4
  10 -12   9 2105.53 204.110   3
   2 -12   9 2266.86 195.552   5
   2 -12  10 421.944 108.222   5
  -2 -10  10 510.770 116.502   5
  12 -10  10 322.739 114.994   3
  10 -12  10 442.407 120.241   3
  -2 -10  11 43.9523 78.6543   5
   2 -12 -11 28.9546 19.2143   7
 -10  -2  11 35.2189 22.5350   6
   2 -12  11 51.0880 81.8419   5
  12 -10  11 42.9449 16.6757   6
 -12   2  11 35.2633 21.1281   6
   2 -12  11-7.53787 19.9557   6
  12 -10  11 18.1575 89.2385   3
  -2 -10  11 11.6367 19.9656   6
  10 -12  11-49.8856 95.3479   3
  10 -12  11-2.02637 19.7684   6
  12 -10  12 153.653 18.3951   6
 -12   2  12 386.893 29.5866   6
   2 -12  12 289.544 28.7072   6
 -10  -2  12 331.062 30.7259   6
  -2 -10  12 201.516 29.0134   6
  10 -12  12 189.165 22.8363   6
  12 -10  12 269.710 103.115   3
  -2 -10  12 310.978 116.038   5
   2 -12  12 332.766 117.754   5
  10 -12  12 386.382 117.569   3
   2 -12 -12 253.585 25.3459   7
  -2 -10  13 431.872 39.2471   6
   2 -12  13 422.138 35.0503   6
  10 -12  13 403.968 26.4119   6
  10 -12 -14 103.650 26.1686   7
 -12   2  14 114.773 28.9520   6
 -10  -2  14 22.4685 27.4873   6
  -2 -10  14-30.1047 33.7983   6
  10 -12  14-10.7021 19.1602   6
   2 -12  14 49.0783 31.7919   6
  10 -12 -15 31.8983 23.9343   7
 -10  -2  15 24.9934 26.2430   6
  10 -12  15-35.7976 20.5835   6
 -12   2  15 8.47320 27.7751   6
  -2 -10  15 3.69381 34.9336   6
   2 -12  15-25.0173 32.9666   6
  12 -10 -16 55.2438 21.9161   7
  10 -12 -16-3.80077 20.4028   7
 -10  -2  16 14.2283 25.2343   6
  -2 -10  16 20.9969 34.7990   6
 -12   2  16 11.6419 26.8706   6
   2 -12  16-23.0392 32.6965   6
  10 -12  16-18.6313 19.0884   6
  10 -12 -17-23.4468 17.1443   7
  12 -10 -17 2.53161 16.5402   7
 -10  -2  17-14.0264 22.3838   6
  -2 -10  17 19.9866 27.1294   6
   2 -12  17 12.8861 27.6803   6
  10 -12  17 17.2750 17.1966   6
  10 -12 -18-4.96876 10.1066   7
  12 -10 -18-0.51520 11.7765   7
  -2 -10  18-20.6299 17.6683   6
   2 -12  18-3.61300 18.1935   6
  -2 -10 -18 0.41243 17.8049   8
   2 -12 -18 14.5672 15.3684   8
  10 -12  18 5.65571 11.9117   6
   1 -12   0 22061.9 529.050   4
  12 -11   0 22936.5 520.288   4
  11 -12   0 22346.6 508.988   4
  12 -11   0 21343.8 421.787   3
  11 -12   0 21586.3 443.456   3
   1 -12  -1 4381.96 245.938   4
  12 -11   1 4072.31 218.833   4
  12 -11   1 3751.32 186.333   3
  11 -12   1 4672.12 229.434   4
  11 -12  -1 4234.81 240.457   4
  11 -12   1 3823.11 196.318   3
  12 -11  -1 4487.38 240.180   4
  11 -12  -1 3398.37 168.847   3
  11 -12   2 12416.6 370.434   4
  12 -11   2 12969.1 348.298   3
  11 -12  -2 13498.8 409.107   4
  11 -12   2 13494.5 367.661   3
  12 -11  -2 13113.0 422.877   4
   1 -12   2 13810.5 414.544   3
   1 -12  -2 13354.2 435.597   4
  12 -11   2 13290.3 385.881   4
  12 -11   3 6090.05 255.756   4
  11 -12   3 6073.15 254.650   4
  11 -12  -3 6771.92 300.891   4
  12 -11   3 6214.40 256.551   3
  12 -11  -3 7047.22 305.073   4
   1 -12   3 6718.05 295.425   3
   1 -12  -3 6818.33 315.147   4
  11 -12   3 6543.09 272.592   3
  11 -12  -4 8875.83 349.134   4
  -1 -11   4 8297.54 323.603   3
  11 -12   4 8855.05 326.624   3
   1 -12  -4 8963.93 367.575   4
  12 -11   4 8359.55 299.589   3
   1 -12   4 8645.78 336.878   3
  12 -11  -4 8936.70 354.587   4
  11 -12   5 7029.36 302.764   3
  12 -11  -5 6927.05 316.192   4
  11 -12  -5 6858.76 327.309   4
  -1 -11   5 6642.47 294.422   3
   1 -12  -5 6794.16 343.069   4
   1 -12   5 6862.58 301.178   3
  12 -11   5 6842.70 294.003   3
   1 -12   6 3812.17 240.210   3
  -1 -11   6 3645.11 198.929   5
  11 -12   6 4351.12 252.470   3
  12 -11   6 3746.39 235.583   3
  12 -11  -6 3734.63 247.668   4
  11 -12  -6 3941.10 253.296   4
   1 -12  -6 3737.62 260.455   4
  -1 -11   6 3807.49 235.590   3
   1 -12   6 3449.67 197.654   5
  -1 -11   7 1575.59 159.424   3
  11 -12   7 1765.78 184.303   3
  -1 -11   7 1713.34 154.231   5
  12 -11  -7 1636.90 178.861   4
  11 -12  -7 1455.40 173.856   4
  12 -11   7 1861.74 182.758   3
   1 -12   7 1721.86 168.161   3
   1 -12   7 1572.36 148.476   5
  11 -12   8 3432.88 243.122   3
  12 -11  -8 3124.71 230.062   4
  11 -12  -8 3017.04 236.090   4
   1 -12   8 2915.82 219.485   3
  -1 -11   8 3187.16 214.038   5
  12 -11   8 3140.15 234.918   3
   1 -12   8 3385.99 222.301   5
  11 -12   9 1278.42 165.646   3
  -1 -11   9 1188.82 148.428   5
  12 -11   9 1165.83 160.457   3
   1 -12   9 1467.02 166.889   5
  11 -12  -9 1136.59 151.237   4
  -1 -11  10 462.172 113.826   5
   1 -12  10 558.555 119.564   5
  12 -11  10 388.015 110.989   3
  11 -12  10 488.825 124.128   3
 -12   1  11 422.357 27.5124   6
 -11  -1  11 396.147 29.1165   6
  -1 -11  11 213.742 25.7962   6
   1 -12  11 376.590 26.7585   6
  12 -11  11 313.009 22.6754   6
  11 -12  11 278.026 24.6949   6
  -1 -11  11 621.248 130.406   5
  12 -11  11 448.190 121.150   3
   1 -12  11 323.203 103.109   5
  11 -12  11 453.859 117.907   3
  -1 -11  12 134.075 80.4839   5
 -12   1  12 215.515 27.4804   6
  11 -12  12 167.171 21.2208   6
  12 -11  12 150.135 18.7579   6
  -1 -11  12 86.6688 27.7468   6
  11 -12  12 146.387 85.1824   3
   1 -12  12 160.418 86.8571   5
  12 -11  12 284.877 106.687   3
 -11  -1  12 258.206 27.4045   6
   1 -12  12 188.154 26.5736   6
 -12   1  13 20.2004 25.1564   6
 -11  -1  13-33.2011 25.5527   6
  -1 -11  13-34.1732 29.4157   6
  12 -11  13-5.71639 15.8615   6
   1 -12  13-40.1012 28.2056   6
  11 -12  13 2.82012 17.0964   6
  11 -12 -14 47.8789 26.0134   7
 -12   1  14 48.4909 26.8319   6
 -11  -1  14 76.2511 26.8107   6
  -1 -11  14 21.7487 32.2654   6
  11 -12  14-19.0799 18.1555   6
  12 -11  14-7.38956 16.5352   6
   1 -12  14 5.82598 30.6404   6
  12 -11 -15-9.63580 23.6138   7
 -12   1  15-3.83038 25.9497   6
 -11  -1  15 5.34343 24.4501   6
  -1 -11  15 6.58873 33.5403   6
  12 -11  15-22.8215 16.3949   6
  11 -12  15 4.68528 17.3102   6
  11 -12 -15-9.69243 22.4197   7
   1 -12  15 5.25334 32.2084   6
  11 -12 -16 27.3994 19.8443   7
  12 -11 -16-1.84631 19.9350   7
 -12   1  16-6.35268 24.5092   6
  11 -12  16 3.73584 16.1826   6
  -1 -11  16-33.6189 32.8800   6
   1 -12  16 5.58347 31.9061   6
 -11  -1  16-10.6563 24.2504   6
  11 -12 -17 2.46295 15.4480   7
 -11  -1  17 14.9211 21.2872   6
  -1 -11  17-15.1403 25.8888   6
  11 -12  17 21.6273 14.9407   6
  12 -11 -17-21.3684 16.2532   7
   1 -12  17 18.7055 26.0506   6
  -1 -11 -17-6.41326 22.0401   8
   1 -12 -17 3.69316 20.6040   8
  11 -12 -18-4.14266 9.32714   7
  12 -11 -18 0.00658 11.0292   7
  -1 -11  18 9.98828 17.2372   6
   1 -12  18 5.78520 16.5393   6
  -1 -11 -18 34.7991 16.1254   8
   1 -12 -18 15.4163 14.7393   8
  12 -12   0 3672.89 208.054   4
  12 -12   0 3851.42 178.387   3
  12 -12   1 1502.34 142.802   4
  12 -12   1 1544.49 121.678   3
  12 -12  -1 1524.15 110.892   3
  12 -12  -1 1540.27 151.341   4
  12 -12  -2 15024.7 444.631   4
  12 -12   2 14402.3 374.181   3
  12 -12   2 14891.6 406.289   4
  12 -12  -3 1949.53 178.534   4
   0 -12   3 1698.28 158.019   3
  12 -12   3 1866.79 150.438   3
  12 -12   3 1818.81 143.533   4
   0 -12   4 343.488 88.5595   3
  12 -12  -4 291.568 104.110   4
  12 -12   4 313.824 84.5739   3
  12 -12   5 3607.15 212.635   3
  12 -12  -5 3766.53 246.411   4
   0 -12   5 3796.24 229.155   3
  12 -12   6 5152.88 269.911   3
  12 -12  -6 5220.84 286.420   4
   0 -12   6 4911.81 267.610   3
   0 -12   7 623.690 110.246   3
  12 -12   7 703.409 127.680   3
   0 -12   7 819.481 106.581   5
  12 -12  -7 849.750 133.222   4
  12 -12   8 1173.28 155.509   3
  12 -12  -8 1087.15 151.288   4
   0 -12   8 1222.35 138.823   5
  12 -12  -9 836.561 140.444   4
  12 -12   9 710.340 132.403   3
   0 -12   9 857.044 131.154   5
   0 -12  10-19.5073 69.7629   5
  12 -12  10 108.644 83.4290   3
   0 -12  11-22.7710 63.8470   5
 -12   0  11 78.7870 21.7048   6
   0 -12  11-12.7829 19.6135   6
  12 -12  11 7.12719 17.6965   6
  12 -12  11-51.3626 83.8208   3
 -12   0  12 409.941 28.4315   6
   0 -12  12 248.329 28.5704   6
   0 -12  12 411.966 114.551   5
  12 -12  12 247.236 21.3479   6
  12 -12  12 451.428 121.486   3
 -12   0  13 138.055 25.8734   6
  12 -12  13 81.3128 17.3795   6
   0 -12  13 77.5925 28.9369   6
  12 -12 -14 118.597 26.9900   7
   0 -12  14-15.5232 31.1533   6
 -12   0  14 83.3140 26.1544   6
  12 -12  14-42.5371 17.8009   6
  12 -12 -15 14.0645 22.5947   7
 -12   0  15 15.1627 24.1201   6
   0 -12  15 5.08321 31.6441   6
  12 -12  15-17.2936 16.2125   6
 -12   0  16 29.6238 23.4314   6
  12 -12 -16 18.0257 19.4532   7
  12 -12  16-21.6867 15.1429   6
   0 -12  16-17.7883 30.5747   6
   0 -12  17 11.2505 24.6827   6
  12 -12 -17-3.14194 15.4596   7
   0 -12 -17-0.67175 20.2193   8
  12 -12 -18 2.04384 9.01798   7
   0 -12  18-10.8381 15.7174   6
   0 -12 -18 3.49580 13.7456   8
   6 -13   0 11005.5 362.316   4
   6 -13   0 11173.8 348.034   3
   7 -13   0 11043.9 357.181   4
   7 -13   0 11873.7 349.339   3
   7 -13   1 1801.05 146.396   4
   7 -13  -1 1978.82 163.557   4
   6 -13  -1 1547.00 141.521   3
   6 -13  -1 1754.31 155.490   4
   6 -13   1 1690.69 146.203   3
   7 -13   1 1928.09 149.730   3
   6 -13   1 1758.84 149.453   4
   7 -13  -1 1746.54 144.183   3
   6 -13   2 298.374 75.4239   4
   7 -13   2 424.589 94.5581   3
   7 -13  -2 345.126 91.7676   4
   6 -13  -2 200.017 84.4204   4
   6 -13   2 315.154 88.5349   3
   7 -13   2 285.754 76.0553   4
   7 -13   3 4321.07 209.219   4
   7 -13   3 5894.29 260.714   3
   6 -13   3 6089.36 267.981   3
   7 -13  -3 5553.02 264.259   4
   6 -13  -3 5601.14 277.822   4
   6 -13   3 4026.25 203.675   4
   7 -13   4 8845.70 321.789   3
   6 -13   4 8904.97 323.926   3
   6 -13  -4 9105.98 357.388   4
   7 -13  -4 8655.87 342.765   4
   6 -13  -5 1545.99 161.985   4
   7 -13   5 1532.99 150.074   3
   6 -13   5 1731.12 162.621   3
   7 -13  -5 1619.12 171.254   4
   7 -13   6 814.577 121.532   3
   6 -13   6 848.300 120.253   3
  -6  -7   6 964.062 115.653   5
   7 -13  -6 1017.88 142.581   4
   6 -13  -6 888.013 134.722   4
  13  -7  -7 2535.25 195.339   4
   7 -13   7 2605.10 197.446   3
   6 -13   7 2736.71 208.571   3
   7 -13  -7 2701.26 218.100   4
  -6  -7   7 2629.44 193.737   5
   6 -13  -7 2766.63 222.267   4
  -7  -6   7 2812.62 200.702   5
  -7  -6   8 100.241 86.3868   5
   7 -13   8 24.0979 73.5360   3
   6 -13   8 99.2481 84.8373   3
   6 -13  -8 133.002 87.1886   4
   7 -13  -8 94.6842 87.1932   4
  -6  -7   8 124.550 74.7400   5
  -7  -6   9 396.049 107.477   5
  -6  -7   9 281.836 98.1713   5
   7 -13   9 256.095 94.8616   3
   6 -13   9 432.805 109.917   5
   6 -13   9 203.033 91.5750   3
   6 -13  -9 373.314 117.832   4
   7 -13  -9 297.429 107.089   4
   7 -13  10 53.2257 77.5821   3
   7 -13  10 106.974 82.6762   5
   6 -13  10 101.717 84.3861   3
  -7  -6  10 61.9630 78.9574   5
   6 -13  10 136.134 89.6798   5
  -6  -7  10 0.46697 72.1520   5
  -6  -7  11-91.7558 97.3940   5
   6 -13 -11 19.9274 20.7881   7
   7 -13 -11 11.9399 20.8148   7
   7 -13  11 9.77397 96.6650   5
   7 -13  11 158.116 94.2112   3
 -13   7  11 25.6455 23.2755   6
 -13   6  11 6.46267 22.6441   6
   6 -13  11-62.0584 81.0871   3
  -6  -7  11-29.3883 22.8893   6
  -7  -6  11-6.71365 23.6126   6
  -7  -6  11-21.1716 91.0194   5
  13  -7  11 80.8965 88.8028   3
   6 -13  11-17.3045 23.6955   6
   6 -13  11 69.9239 81.0410   5
   7 -13  11-30.7161 22.2537   6
   6 -13  12 146.431 88.5629   5
   7 -13 -12 123.019 26.3576   7
   7 -13  12 139.896 92.9527   5
   7 -13  12 172.255 80.5803   3
 -13   6  12 162.001 28.6593   6
   6 -13  12 94.5825 24.8040   6
  -6  -7  12 191.326 111.298   5
  -7  -6  12 102.263 29.4234   6
  13  -6  12 182.071 106.935   3
  13  -7  12 145.909 97.4074   3
   7 -13  12 81.6479 23.9788   6
   6 -13 -12 175.328 26.8772   7
 -13   7  12 182.488 28.5100   6
  -6  -7  12 17.4038 29.7317   6
   6 -13 -13 253.644 28.5149   7
 -13   6  13 185.232 31.4521   6
   7 -13 -13 232.304 28.5995   7
   6 -13  13 120.271 26.8035   6
  -7  -6  13 8.89315 30.3490   6
 -13   7  13 278.878 33.1373   6
  -6  -7  13 37.2972 32.0179   6
   7 -13  13 127.761 25.4425   6
   6 -13 -14 51.0402 24.7305   7
   7 -13 -14 23.0720 25.3447   7
  -7  -6  14 32.0118 32.5564   6
  -6  -7  14-41.5297 34.6718   6
   7 -13  14-58.0814 27.5398   6
   6 -13  14-6.46239 27.3263   6
 -13   6  14 15.9422 31.1966   6
   6 -13 -15 7.22964 20.9321   7
  -7  -6  15-4.87796 29.6450   6
  -6  -7  15-10.3909 31.7761   6
   6 -13  15-21.0278 28.2688   6
   7 -13 -15 25.1100 21.7180   7
   7 -13  15-37.0061 26.1122   6
   7 -13  16-24.5819 25.0903   6
  -7  -6  16-2.38264 26.9924   6
  -6  -7  16 29.4062 29.9560   6
   6 -13  16-32.1809 28.1933   6
   7 -13 -16-17.5128 19.8721   7
   6 -13 -16 15.2403 18.8368   7
   7 -13 -17 30.7720 14.2862   7
  -7  -6  17 22.8520 22.8071   6
  -6  -7  17 21.6900 22.5338   6
   6 -13  17 52.3197 24.7705   6
  -6  -7 -17 11.9997 22.2999   8
  -7  -6 -17-17.1607 21.4484   8
   7 -13  17-12.4058 20.7174   6
  -6  -7 -18 13.3829 16.2690   8
  13  -7 -18 3.73289 11.8509   7
  13  -6 -18-9.79015 12.2456   7
  -7  -6  18-11.5310 16.4981   6
  -6  -7  18 0.00783 16.8315   6
  -7  -6 -18 0.25108 16.0524   8
   7 -13  18-1.41242 15.1111   6
   6 -13 -18-13.9165 12.3920   8
   6 -13  18 33.2832 16.9071   6
   8 -13   0 299.691 83.0533   3
   5 -13   0 314.598 86.6073   4
   5 -13   0 374.143 88.5393   3
   8 -13   0 258.692 76.0585   4
  13  -8   1 1310.43 101.167   3
   8 -13  -1 1191.39 133.380   4
   5 -13  -1 1539.80 149.055   4
   5 -13   1 1369.94 133.021   4
   5 -13   1 1549.81 140.741   3
   8 -13  -1 1368.08 121.312   3
   8 -13   1 1377.52 128.538   3
   8 -13   1 1433.00 131.042   4
   8 -13  -2 769.894 93.8116   3
   8 -13  -2 906.497 123.923   4
   8 -13   2 974.581 108.350   4
   8 -13   2 882.808 110.978   3
   5 -13  -2 897.898 126.977   4
   5 -13   2 1013.49 120.480   3
   5 -13   2 938.018 109.336   4
   8 -13   3 184.382 81.0461   3
   5 -13   3 183.043 81.1671   3
   8 -13  -3 97.5703 77.0279   4
   5 -13  -3 179.585 98.3082   4
   5 -13   3 42.8569 43.4766   4
   8 -13   3 97.1131 54.5687   4
   8 -13   4 130.567 97.3867   3
   5 -13   4 20.8977 87.8717   3
   5 -13  -4 95.7715 96.4713   4
   8 -13  -4 75.6564 89.4149   4
  -5  -8   5 72.0230 60.5586   5
   5 -13  -5 1.31161 83.7352   4
   8 -13   5 51.3411 85.3201   3
   5 -13   5 140.898 83.8388   3
   8 -13  -5 45.0309 78.6423   4
  -5  -8   6 380.377 80.3319   5
   8 -13   6 222.003 89.9754   3
   5 -13   6 324.508 90.8265   3
  13  -8  -6 331.648 92.9444   4
   8 -13  -6 339.045 103.940   4
   5 -13  -6 237.965 97.9951   4
  -5  -8   7 59.7647 66.9325   5
   5 -13   7 114.081 78.0444   3
   8 -13  -7 59.9970 83.4901   4
  13  -8  -7 66.6971 71.6364   4
   8 -13   7 68.8323 79.6884   3
   5 -13  -7 25.6161 75.7791   4
  -5  -8   8 151.055 81.9285   5
   5 -13   8 263.323 88.4440   5
   5 -13   8 208.767 91.3317   3
   5 -13  -8 173.184 91.7954   4
  13  -8  -8 175.221 83.0820   4
   8 -13  -8 181.006 90.3022   4
   8 -13   8 179.540 89.1052   3
  -5  -8   9 45.1186 69.0595   5
   5 -13   9 4.91877 73.0329   3
   5 -13  -9 113.139 81.5402   4
   5 -13   9-60.1109 81.6437   5
   8 -13  -9 9.20468 84.5020   4
   8 -13   9-72.0738 89.3735   3
  -5  -8  10 72.9054 91.3625   5
   8 -13  10-4.68997 87.4573   3
  13  -8  10 46.1134 100.137   3
   5 -13  10 58.6125 73.6939   3
   5 -13  10 4.61352 78.3569   5
   5 -13  11 100.620 92.5407   5
   5 -13 -11 104.778 24.3910   7
   8 -13  11 125.371 93.1894   3
   8 -13 -11 121.736 25.5930   7
   8 -13  11 82.8729 87.4137   5
 -13   8  11 107.604 25.8226   6
   8 -13  11 48.4861 22.8083   6
 -13   5  11 129.669 25.4534   6
   5 -13  11 84.0876 81.5656   3
  13  -8  11-14.4682 106.217   3
  -5  -8  11 193.340 101.487   5
   5 -13  11 63.3998 24.0374   6
  -8  -5  11-11.6985 26.9217   6
  -5  -8  11 87.2867 24.5286   6
   8 -13 -12 24.0150 24.7628   7
   5 -13 -12 17.0835 24.5141   7
   8 -13  12 90.5129 100.808   5
   8 -13  12-73.7992 84.0171   3
 -13   8  12 27.6932 28.3026   6
  -5  -8  12 50.2922 28.7760   6
   8 -13  12-49.5364 25.1532   6
  -5  -8  12-44.7490 98.6706   5
  -8  -5  12-64.4460 30.8688   6
 -13   5  12 73.8388 27.5644   6
   5 -13  12-53.4157 27.5905   6
   5 -13  12 41.4917 90.3885   5
   8 -13 -13 19.1739 25.5365   7
 -13   5  13 14.7728 27.4476   6
   8 -13  13-44.1755 24.5508   6
   5 -13  13-37.2168 26.7808   6
  -8  -5  13-7.32125 30.3103   6
   5 -13 -13 19.6113 24.7763   7
  -5  -8  13 23.3546 32.9561   6
  -5  -8  14 3.57597 36.0104   6
   8 -13 -14 16.8099 25.5057   7
 -13   5  14 76.1873 30.7852   6
  -8  -5  14 6.95075 32.1835   6
   5 -13  14-82.4715 30.5440   6
   8 -13  14-41.1306 25.9850   6
   5 -13 -14-6.56540 23.5643   7
   5 -13 -15-6.52106 20.8586   7
  -8  -5  15-0.89147 29.2683   6
   8 -13 -15 13.4679 22.7374   7
  -5  -8  15 42.3522 35.0739   6
   5 -13  15-28.5042 30.5935   6
   8 -13  15-56.0459 26.1579   6
  -8  -5  16 61.4914 27.6961   6
  -5  -8  16 49.5895 31.5869   6
   8 -13  16-25.5052 24.0144   6
   5 -13  16-55.4324 30.2090   6
   8 -13 -16 15.4696 19.3685   7
   8 -13 -17 34.6857 14.4131   7
  13  -8 -17-26.1869 17.7565   7
  -8  -5  17 51.6505 23.7787   6
  -5  -8  17 65.6229 25.9027   6
   8 -13  17 63.3573 22.5688   6
   5 -13  17 0.03181 25.1363   6
  -8  -5 -17 1.67081 20.3620   8
  -5  -8 -17 16.6714 22.9929   8
  13  -8 -18-0.00681 12.3649   7
  13  -5 -18-15.5541 12.4577   7
  -5  -8  18 10.7268 17.6441   6
   8 -13  18 74.9336 16.1155   6
  -5  -8 -18 4.01667 16.9376   8
  -8  -5 -18 9.02018 15.0678   8
   5 -13  18 20.6424 17.6199   6
   5 -13 -18-12.0030 13.5662   8
  -8  -5  18 62.6009 18.3456   6
   9 -13   0 1233.55 145.676   4
   4 -13   0 1222.71 172.972   3
   9 -13   0 941.183 132.215   3
   4 -13   0 1550.72 161.825   4
   9 -13  -1 952.673 110.192   3
  13  -9   1 923.258 96.8175   3
   9 -13  -1 1257.44 153.525   4
   9 -13   1 1194.51 140.753   4
   4 -13   1 1257.44 173.896   3
   9 -13   1 897.154 133.326   3
   4 -13   1 1035.40 138.737   4
   4 -13  -1 1556.82 168.925   4
   4 -13   2 588.277 118.398   3
   9 -13   2 189.249 77.8856   4
  13  -9   2 173.452 71.0239   3
   9 -13  -2 518.368 117.130   4
   9 -13  -2 163.218 66.3680   3
   4 -13  -2 196.335 105.059   4
   9 -13   2 252.235 96.6761   3
   4 -13   2 120.769 72.1017   4
   9 -13   3 1530.28 168.900   3
   9 -13  -3 1105.40 165.379   4
  13  -9   3 1224.17 138.354   3
   9 -13   3 359.941 90.0797   4
   4 -13   3 2110.60 198.730   3
   4 -13  -3 1763.42 192.983   4
   4 -13   3 488.137 90.5442   4
   9 -13   4 454.727 125.759   3
   4 -13   4 707.136 135.146   3
   4 -13  -4 405.156 134.685   4
   9 -13  -4 287.735 127.019   4
  13  -9   4 169.018 98.4081   3
  -4  -9   5 91.0493 64.1569   5
   9 -13   5 326.990 109.466   3
   4 -13   5 332.818 108.823   3
  13  -9   5 248.100 103.056   3
  13  -9  -5 158.241 93.4575   4
   4 -13  -5 174.965 111.171   4
   9 -13  -5 223.904 107.980   4
   4 -13   6 23.4140 66.6471   5
  -4  -9   6 10.1113 68.1658   5
   9 -13   6 184.722 100.933   3
  13  -9   6 147.807 98.4488   3
  13  -9  -6 34.9680 87.9908   4
   4 -13  -6 82.7667 99.1447   4
   9 -13  -6 92.9864 102.916   4
   4 -13   6 194.715 102.914   3
  13  -9   7 895.474 150.562   3
   9 -13   7 509.100 123.875   3
   9 -13  -7 451.431 122.698   4
   4 -13   7 543.407 105.452   5
   4 -13   7 543.750 126.041   3
  13  -9  -7 456.175 105.550   4
  -4  -9   7 647.386 117.487   5
   4 -13  -7 686.467 140.446   4
   9 -13   8 126.801 100.602   3
   4 -13   8 18.4915 71.0765   5
   4 -13   8 64.1749 79.6778   3
  -4  -9   8 54.6134 72.2825   5
  13  -9  -8 73.2220 85.4923   4
  13  -9   8 11.4792 99.5619   3
   9 -13  -8-47.8219 87.4518   4
   4 -13  -8-4.51743 85.9543   4
   9 -13   9 890.608 154.777   3
  13  -9   9 958.843 159.186   3
   9 -13  -9 837.708 146.609   4
   4 -13   9 926.798 151.217   3
  -4  -9   9 865.427 140.759   5
   4 -13   9 972.875 143.024   5
   4 -13  -9 916.989 148.270   4
   9 -13  10 293.053 110.800   3
   4 -13  10 341.185 108.185   5
   4 -13  10 215.836 80.5210   3
  13  -9  10 371.184 124.206   3
  -4  -9  10 128.957 87.6683   5
   9 -13  11 12.3752 80.8950   3
   4 -13  11 103.769 86.5037   5
  -4  -9  11 3.31337 89.7145   5
 -13   4  11 44.0596 22.2498   6
  13  -9  11 17.7580 82.3838   3
   4 -13  11 43.6964 22.4772   6
   9 -13 -11 60.8845 24.3856   7
   9 -13  11 6.70281 22.2429   6
   4 -13 -11 26.3868 21.2314   7
  -9  -4  11 7.70261 23.0556   6
  -4  -9  11 28.8347 21.0838   6
   9 -13 -12 10.6430 23.8973   7
  -4  -9  12-13.6792 76.1826   5
   4 -13 -12 16.4422 22.9539   7
   9 -13  12-25.4926 84.9716   3
   9 -13  12-22.6283 94.9955   5
 -13   4  12 24.1162 25.4160   6
  13  -9  12 89.8675 93.8934   3
   4 -13  12 96.2598 80.5711   5
   9 -13  12-5.70533 21.1474   6
  -4  -9  12-40.8479 25.5471   6
  -9  -4  12 123.621 27.8618   6
   4 -13  12 15.6484 23.8495   6
   9 -13 -13 32.1752 25.6086   7
 -13   4  13 51.8756 28.6165   6
  -9  -4  13-45.4659 29.4074   6
   4 -13 -13 61.8197 24.6130   7
   9 -13  13 13.2495 21.8208   6
   4 -13  13 6.92067 26.7726   6
  -4  -9  13-20.9770 30.8643   6
   9 -13 -14 40.5236 25.2332   7
 -13   4  14 44.8629 29.1042   6
   9 -13  14-31.3995 21.6934   6
   4 -13  14 38.9148 29.0515   6
  -4  -9  14 9.62928 34.1386   6
  -9  -4  14 40.5467 28.5763   6
  -4  -9  15 18.3398 34.0151   6
   9 -13 -15 15.9244 22.8699   7
 -13   4  15 65.1652 29.1461   6
  -9  -4  15 27.7451 25.5803   6
   4 -13  15 29.6098 30.3332   6
   9 -13  15-18.1338 21.4714   6
  -9  -4  16-1.83887 23.5880   6
  -4  -9  16 17.7931 31.0944   6
   9 -13  16-37.3247 20.6751   6
   9 -13 -16 6.51209 19.3737   7
   4 -13  16 29.0670 29.5899   6
  13  -9 -17-1.29724 16.5836   7
  -9  -4  17 4.35968 20.6669   6
  -4  -9  17-16.8067 24.1473   6
  -9  -4 -17-4.75033 19.1745   8
   9 -13 -17-5.28333 15.4206   7
   4 -13 -17-1.66577 18.3606   8
   4 -13  17 41.3025 25.9030   6
  -4  -9 -17-16.7985 23.3155   8
   9 -13  17 1.81357 18.7258   6
   4 -13  18-10.4352 16.9612   6
  -9  -4 -18 7.88742 13.2441   8
  -9  -4  18 20.8236 16.2131   6
  -4  -9  18 3.96220 15.8518   6
   4 -13 -18 17.8156 12.9839   8
  13  -9 -18-10.5851 12.0547   7
  -4  -9 -18 8.94028 16.2035   8
   9 -13  18-0.84358 13.5707   6
  13 -10   0 13272.7 311.975   3
  10 -13   0 13562.2 394.649   4
  10 -13   0 14009.9 362.272   3
   3 -13   0 13551.3 407.660   4
  13 -10   1 9878.24 281.266   3
  10 -13  -1 10025.7 350.402   4
  10 -13   1 10165.3 315.729   3
   3 -13   1 11462.9 372.511   3
   3 -13  -1 10685.8 375.069   4
   3 -13   1 10411.4 355.753   4
  10 -13   1 10210.0 334.238   4
  10 -13  -1 10020.2 299.246   3
  13 -10   2 9413.58 283.192   3
  10 -13   2 9987.92 322.767   3
  10 -13  -2 9535.45 348.729   4
  10 -13   2 9866.78 326.304   4
   3 -13  -2 10380.3 371.562   4
   3 -13   2 9967.20 337.969   4
   3 -13   2 10558.4 357.213   3
  10 -13  -2 9969.97 292.664   3
  13 -10   3 8507.01 288.534   3
  10 -13   3 8903.31 314.500   3
  10 -13  -3 9010.25 350.843   4
  10 -13   3 8491.23 302.932   4
   3 -13  -3 9299.52 372.663   4
   3 -13   3 9742.71 347.982   3
  13 -10  -4 4092.36 248.624   4
  10 -13  -4 3810.72 239.972   4
   3 -13  -4 4337.64 260.834   4
  13 -10   4 4015.89 214.655   3
  10 -13   4 4077.60 229.081   3
   3 -13   4 4098.96 234.538   3
  13 -10  -5 3263.97 231.113   4
  10 -13   5 3415.89 215.350   3
  10 -13  -5 3295.69 232.000   4
   3 -13   5 3410.64 215.390   3
  13 -10   5 3553.43 212.699   3
   3 -13  -5 3277.61 242.688   4
   3 -13   6 2686.87 197.223   3
  13 -10   6 2677.55 198.112   3
  10 -13   6 2639.51 201.476   3
  13 -10  -6 2341.85 201.224   4
  10 -13  -6 2629.95 217.243   4
  -3 -10   6 2517.10 166.868   5
   3 -13   6 2536.33 168.132   5
   3 -13  -6 2610.91 220.716   4
  10 -13   7 2333.58 201.000   3
  13 -10  -7 2497.13 205.272   4
  10 -13  -7 2354.14 207.796   4
   3 -13  -7 2504.84 220.222   4
   3 -13   7 2325.42 195.843   3
  13 -10   7 2672.04 206.126   3
  -3 -10   7 2429.26 179.729   5
   3 -13   7 2483.09 175.749   5
   3 -13  -8 1225.73 163.899   4
  13 -10   8 1404.08 171.834   3
  13 -10  -8 1365.46 159.370   4
   3 -13   8 1058.94 141.700   3
  -3 -10   8 1210.75 144.985   5
  10 -13   8 1377.25 169.261   3
  10 -13  -8 1058.25 154.483   4
   3 -13   8 1347.27 151.774   5
  -3 -10   9 872.553 133.070   5
  13 -10   9 1195.84 163.182   3
  10 -13  -9 886.755 138.736   4
   3 -13   9 979.485 141.937   5
   3 -13   9 948.247 142.934   3
  10 -13   9 848.027 143.136   3
  10 -13  10 822.860 144.774   3
  13 -10  10 768.196 148.302   3
  -3 -10  10 857.151 139.038   5
   3 -13  10 928.961 145.777   5
   3 -13 -11 388.866 27.2238   7
  10 -13  11 741.097 143.780   3
 -13   3  11 703.998 33.7318   6
 -10  -3  11 709.654 34.6330   6
  10 -13  11 433.199 29.9326   6
   3 -13  11 840.710 156.772   5
   3 -13  11 718.944 33.3114   6
  13 -10  11 725.482 140.566   3
  -3 -10  11 818.818 145.331   5
  -3 -10  12 130.716 75.5120   5
  10 -13  12 112.123 85.4909   3
   3 -13  12-22.1942 66.2104   5
  10 -13 -12 115.882 26.4772   7
  10 -13  12 20.7462 84.9301   5
 -13   3  12 111.424 25.9266   6
 -10  -3  12 74.6614 23.3933   6
  10 -13  12 63.6950 20.7996   6
  13 -10  12 68.1109 87.3690   3
   3 -13  12 81.6382 24.7619   6
  -3 -10  12 93.8176 26.3022   6
   3 -13 -12 51.6011 18.4763   7
   3 -13 -13-2.62527 18.9910   7
  10 -13 -13-36.3795 27.6274   7
 -13   3  13-32.4033 29.7832   6
 -10  -3  13 13.5795 26.5729   6
  -3 -10  13-59.2434 32.8088   6
  10 -13  13-47.3069 21.6995   6
   3 -13  13-19.3692 28.5885   6
 -13   3  14-4.78247 26.6168   6
 -10  -3  14 25.4196 24.8912   6
  10 -13  14-31.9575 19.6887   6
  -3 -10  14 9.47325 33.3158   6
   3 -13  14-38.3164 29.6976   6
  10 -13 -14-9.13176 24.5657   7
  10 -13 -15-0.97980 22.6087   7
 -13   3  15-15.3593 27.4703   6
 -10  -3  15 14.0761 23.8781   6
  10 -13  15-27.7156 19.4959   6
   3 -13  15-24.5608 32.0266   6
  -3 -10  15-16.2672 34.7860   6
  13 -10 -16-0.25464 20.0768   7
 -10  -3  16 20.5041 23.6051   6
  10 -13  16-12.4527 18.1524   6
  10 -13 -16-18.5772 20.5545   7
   3 -13  16 4.23829 30.6788   6
  -3 -10  16 11.5290 30.8031   6
  10 -13 -17-13.9288 15.7112   7
 -10  -3  17-9.63262 21.1150   6
  -3 -10  17 5.95505 23.5421   6
 -10  -3 -17-14.2457 15.2752   8
   3 -13  17 64.6359 27.2640   6
  10 -13  17-17.8307 16.2734   6
   3 -13 -17-20.3172 19.0894   8
  -3 -10 -17-27.4942 22.8763   8
  13 -10 -17-2.34366 15.9177   7
  13 -10 -18 2.72318 11.0119   7
   3 -13 -18 24.4746 13.4621   8
  -3 -10  18 0.00732 15.5955   6
   3 -13  18 11.9628 16.7396   6
  10 -13  18-1.84655 11.3225   6
  10 -13 -18-6.98171 9.93136   7
  -3 -10 -18-0.23386 15.6695   8
  13 -11   0 38199.7 592.078   3
  11 -13   0 37378.9 697.882   4
   2 -13   0 39224.3 743.516   4
  11 -13   0 38333.4 639.779   3
  13 -11   1 33304.9 568.685   3
  11 -13   1 33248.5 652.481   4
  11 -13  -1 33266.2 661.668   4
   2 -13  -1 35642.4 709.229   4
  11 -13  -1 32937.4 574.920   3
  11 -13   1 33575.3 605.023   3
   2 -13   1 34428.1 685.385   4
  13 -11  -2 31100.6 660.662   4
  11 -13   2 28754.9 567.665   3
  11 -13  -2 29388.3 630.249   4
  11 -13   2 28314.7 590.955   4
   2 -13  -2 31204.1 681.905   4
  13 -11   2 29387.8 553.208   3
   2 -13   2 32030.4 653.941   3
  11 -13   3 47767.8 786.445   3
  11 -13  -3 48082.6 854.868   4
  11 -13   3 47065.2 781.718   4
  13 -11  -3 49764.9 870.196   4
   2 -13   3 49159.5 854.691   3
   2 -13  -3 49653.0 905.357   4
   2 -13  -4 34859.6 755.809   4
  11 -13   4 32686.9 651.033   3
  13 -11  -4 33548.7 715.153   4
  13 -11   4 32139.3 625.780   4
  11 -13  -4 32949.5 706.782   4
   2 -13   4 33101.3 691.041   3
  13 -11   4 31067.1 619.144   3
  13 -11   5 22221.2 526.687   3
  13 -11  -5 22788.0 587.929   4
  11 -13  -5 20967.3 578.864   4
   2 -13  -5 22726.6 610.867   4
  11 -13   5 22376.8 548.943   3
   2 -13   5 22401.9 572.146   3
  -2 -11   6 19858.3 529.010   3
  11 -13   6 22618.0 569.801   3
  13 -11  -6 22088.0 592.327   4
  11 -13  -6 21210.3 590.369   4
   2 -13  -6 22005.2 624.929   4
   2 -13   6 20795.0 563.255   3
  13 -11   6 21855.8 546.240   3
  11 -13   7 13808.2 463.423   3
   2 -13   7 14069.3 420.349   5
  13 -11  -7 13902.9 480.228   4
  11 -13  -7 13731.9 486.527   4
   2 -13  -7 13508.7 495.611   4
  13 -11   7 13845.5 451.552   3
  -2 -11   7 13375.2 409.845   5
   2 -13   7 12681.2 440.476   3
  11 -13   8 12008.6 459.216   3
  13 -11  -8 11699.4 446.299   4
  11 -13  -8 12114.1 461.692   4
   2 -13   8 12855.8 427.527   5
  -2 -11   8 12177.9 416.931   5
   2 -13   8 11227.6 434.251   3
  13 -11   8 12464.3 450.707   3
  11 -13   9 5199.85 308.782   3
   2 -13   9 5341.93 309.776   3
  11 -13  -9 5507.34 324.915   4
  13 -11   9 5251.22 313.429   3
  -2 -11   9 5564.67 301.756   5
   2 -13   9 5875.31 310.694   5
  11 -13  10 1683.85 200.520   3
  13 -11  10 1586.00 188.399   3
  -2 -11  10 1453.64 183.220   5
   2 -13  10 1470.88 183.429   5
   2 -13  11 1316.52 40.8552   6
  13 -11  11 1363.03 178.430   3
 -13   2  11 1390.56 42.0726   6
 -11  -2  11 1078.86 40.5417   6
  -2 -11  11 811.709 37.3150   6
  11 -13  11 1316.55 179.324   3
  13 -11  11 1019.98 32.7494   6
  11 -13  11 1141.31 38.6859   6
  -2 -11  11 1054.46 160.235   5
   2 -13 -11 1212.09 42.0709   7
   2 -13  11 925.969 144.187   5
  -2 -11  12 1702.59 205.558   5
  13 -11  12 1461.08 192.828   3
 -13   2  12 1463.66 44.1397   6
  -2 -11  12 968.587 40.9902   6
   2 -13  12 1134.99 40.8242   6
  11 -13  12 1376.77 182.760   3
  11 -13  12 1157.90 35.8946   6
   2 -13 -12 1364.50 43.1102   7
   2 -13  12 1364.28 180.688   5
  11 -13 -13 895.149 41.3210   7
 -13   2  13 898.613 38.9133   6
 -11  -2  13 405.606 36.0586   6
  -2 -11  13 434.257 40.9017   6
   2 -13  13 457.421 36.3091   6
  13 -11  13 205.632 21.4794   6
  11 -13  13 438.424 27.2533   6
 -11  -2  14 41.6043 25.0242   6
  -2 -11  14 2.31312 33.6506   6
 -13   2  14 111.603 28.4691   6
  11 -13  14-5.93904 18.8218   6
  11 -13 -14 124.087 26.9802   7
   2 -13  14-22.6720 30.4629   6
   2 -13  15 16.4319 31.8586   6
  11 -13 -15 70.0621 24.7086   7
 -11  -2  15 49.9348 25.6031   6
  11 -13  15-59.8626 20.2382   6
  -2 -11  15 52.7651 37.1861   6
 -13   2  15 55.2574 27.3228   6
  11 -13 -16-15.5985 19.8633   7
  13 -11 -16 15.6990 20.0243   7
 -11  -2  16 16.0319 23.5076   6
  11 -13  16-39.7294 18.3296   6
  -2 -11  16 31.7306 30.7799   6
   2 -13  16-26.1423 30.2533   6
  11 -13 -17-10.8052 15.4623   7
  13 -11 -17-13.2305 15.9349   7
 -11  -2  17 43.1962 20.9987   6
  -2 -11  17 71.0305 25.0518   6
   2 -13  17-3.20853 24.5435   6
  -2 -11 -17-14.1396 21.9233   8
   2 -13 -17-11.3120 19.1361   8
  11 -13  17 63.0079 16.7968   6
  11 -13 -18 8.69868 10.1887   7
  -2 -11  18 16.6957 14.5759   6
   2 -13  18-19.1465 16.6573   6
  -2 -11 -18 10.8464 14.7207   8
   2 -13 -18 20.1487 12.7773   8
  13 -11 -18 15.1728 10.9614   7
  13 -12   0 12825.5 400.392   4
  12 -13   0 12655.2 401.610   4
  13 -12   0 11857.3 315.830   3
  12 -13   0 12885.5 341.108   3
  13 -12  -1 34379.2 686.791   4
  13 -12   1 33451.5 672.866   4
  12 -13   1 32772.5 653.548   4
  12 -13  -1 32917.8 671.605   4
  12 -13   1 33449.5 602.961   3
  12 -13  -1 33215.0 569.102   3
   1 -13  -1 33963.2 713.217   4
  13 -12   1 32811.8 582.388   3
  13 -12   2 13564.7 371.526   3
  13 -12  -2 13373.2 426.276   4
  12 -13   2 12718.4 390.161   4
  12 -13  -2 13301.7 428.601   4
  12 -13   2 12857.0 373.251   3
   1 -13  -2 13625.9 459.468   4
  13 -12   2 13121.2 398.441   4
  13 -12   3 24652.4 528.818   3
  12 -13   3 24692.7 536.744   3
  13 -12  -3 26273.1 615.868   4
  12 -13   3 24350.1 547.466   4
  12 -13  -3 25636.5 615.071   4
  13 -12   3 24767.9 551.302   4
   1 -13   3 25417.9 592.868   3
   1 -13  -3 26122.2 645.487   4
  13 -12   4 15588.7 428.824   3
  13 -12  -4 15956.7 487.244   4
  12 -13  -4 15544.5 483.188   4
   1 -13  -4 16080.0 510.098   4
   1 -13   4 15798.7 474.594   3
  12 -13   4 15876.9 442.603   3
  12 -13   5 10471.8 371.144   3
  13 -12  -5 10754.5 407.376   4
  12 -13  -5 10634.2 416.459   4
   1 -13  -5 11166.1 432.422   4
   1 -13   5 10493.4 390.198   3
  -1 -12   5 9879.21 376.119   3
  13 -12   5 10559.0 364.121   3
  12 -13   6 6980.30 322.520   3
  13 -12  -6 6621.99 330.923   4
  12 -13  -6 6283.89 330.755   4
   1 -13   6 6335.24 314.132   3
  -1 -12   6 5936.73 297.423   3
  13 -12   6 6735.19 313.285   3
  12 -13   7 8196.20 364.990   3
  13 -12  -7 7632.45 363.005   4
  12 -13  -7 7831.71 367.224   4
  -1 -12   7 7228.07 334.745   3
  13 -12   7 7642.81 347.621   3
   1 -13   7 7220.95 339.525   3
  13 -12   8 3287.63 246.038   3
  12 -13   8 2974.82 235.299   3
  13 -12  -8 2970.68 240.193   4
  12 -13  -8 3192.77 247.661   4
  -1 -12   8 3063.45 213.780   5
   1 -13   8 2967.03 231.052   3
  13 -12   9 1278.76 169.173   3
  12 -13   9 1351.57 178.653   3
  13 -12  -9 1602.94 182.310   4
  12 -13  -9 1754.39 190.484   4
  -1 -12   9 1323.80 152.502   5
   1 -13   9 1532.74 163.358   5
  13 -12  10 1431.76 182.880   3
  12 -13  10 1444.60 183.036   3
  -1 -12  10 1204.53 36.1489   6
   1 -13  10 1295.66 39.0352   6
  12 -13  10 1075.05 37.9983   6
   1 -13  10 938.760 135.909   5
  -1 -12  10 1148.28 152.296   5
   1 -13 -10 1313.15 42.7610   7
  13 -12  10 1064.47 35.1453   6
  -1 -12  11 644.004 127.118   5
 -13   1  11 629.787 30.9421   6
 -12  -1  11 851.188 36.7980   6
  -1 -12  11 765.164 33.5573   6
   1 -13  11 821.524 35.5834   6
  13 -12  11 782.976 30.8286   6
  12 -13  11 617.111 33.1606   6
  12 -13  11 1171.06 175.089   3
   1 -13  11 708.555 132.162   5
  13 -12  11 1080.24 167.798   3
   1 -13  12 181.384 101.621   5
  12 -13  12 227.117 97.3459   3
  -1 -12  12 161.925 98.4719   5
 -12  -1  12 234.478 26.2299   6
 -13   1  12 175.728 25.8140   6
   1 -13  12 62.3960 26.8090   6
  -1 -12  12 145.341 27.3242   6
  13 -12  12 162.836 19.5557   6
  12 -13  12 174.718 21.1561   6
  13 -12  12 279.122 113.885   3
 -13   1  13 255.518 30.5684   6
 -12  -1  13 186.752 28.6076   6
  -1 -12  13 183.820 34.5299   6
   1 -13  13 89.1059 31.9717   6
  12 -13  13 160.900 21.5063   6
  13 -12  13 121.511 18.8755   6
 -13   1  14 39.5720 24.9749   6
 -12  -1  14 44.4493 24.1536   6
   1 -13  14-17.4963 30.1958   6
  13 -12  14-17.0792 16.1069   6
  12 -13  14-12.1305 17.0745   6
  12 -13 -14 20.8099 25.2669   7
  -1 -12  14 15.9167 31.0901   6
  13 -12 -15 21.6311 23.2636   7
 -12  -1  15 35.4262 24.0826   6
  13 -12  15 1.95165 15.4022   6
 -13   1  15 39.4208 25.5732   6
  12 -13  15-4.85691 16.7869   6
  -1 -12  15-13.2416 32.8781   6
  12 -13 -15 57.0850 23.8448   7
   1 -13  15-28.5336 32.1158   6
  12 -13 -16 7.66142 19.3163   7
 -12  -1  16 10.2949 21.3165   6
   1 -13  16-4.35936 28.9950   6
  13 -12 -16-17.3810 19.7612   7
  12 -13  16 0.12944 15.1023   6
  -1 -12  16 15.5350 29.2515   6
   1 -13 -16-10.7074 23.7196   8
  -1 -12 -16-0.72389 25.4556   8
  12 -13 -17 9.15842 14.7060   7
  13 -12 -17 19.5211 15.0531   7
  12 -13  17 27.0395 13.8295   6
  -1 -12  17 2.56979 22.9535   6
  -1 -12 -17 22.1840 19.8196   8
   1 -13  17-11.1479 22.3437   6
   1 -13 -17 6.83917 18.6462   8
  12 -13 -18 8.25373 9.74541   7
  13 -12 -18-6.45640 9.20077   7
  -1 -12  18-7.83466 13.6514   6
   1 -13  18 12.5561 13.9616   6
  -1 -12 -18 16.6821 13.7112   8
   1 -13 -18 25.9307 13.1404   8
  13 -13   0 12725.2 415.242   4
  13 -13   0 12749.0 341.818   3
  13 -13   1 34947.0 701.109   4
  13 -13  -1 35947.3 718.263   4
  13 -13   1 35236.9 619.996   3
  13 -13  -2 36625.4 748.766   4
  13 -13   2 35740.6 651.577   3
  13 -13   2 35698.1 694.119   4
  13 -13   3 33695.1 649.254   3
  13 -13   3 34723.2 677.288   4
  13 -13  -3 35260.0 741.981   4
  13 -13   4 21216.3 516.913   3
   0 -13   4 21852.9 565.048   3
  13 -13  -5 27738.6 675.712   4
   0 -13   5 25842.2 635.912   3
  13 -13   5 27152.6 611.082   3
  13 -13   6 18793.0 528.965   3
  13 -13  -6 18585.4 564.172   4
  13 -13   7 14409.9 479.463   3
   0 -13   7 13550.5 476.840   3
  13 -13  -7 14352.6 512.254   4
  13 -13   8 7662.72 365.155   3
  13 -13  -8 7171.63 366.747   4
  13 -13   9 2414.61 218.371   3
  13 -13  -9 2395.91 218.316   4
  13 -13  10 2252.91 225.207   3
   0 -13  10 1804.53 43.3019   6
   0 -13  10 2291.96 208.952   5
 -13   0  11 2795.49 56.5274   6
  13 -13  11 2624.33 242.442   3
  13 -13  11 2100.97 48.7204   6
   0 -13  11 2934.75 248.169   5
  13 -13  12 1019.37 158.383   3
 -13   0  12 996.518 36.9921   6
   0 -13  12 587.237 34.1842   6
  13 -13  12 734.354 29.1021   6
 -13   0  13 440.061 31.6267   6
  13 -13  13 322.882 22.1402   6
 -13   0  14 248.883 28.0167   6
  13 -13 -14 309.945 29.8794   7
   0 -13  14 28.5283 31.4754   6
   0 -13 -15 145.239 30.8903   8
  13 -13 -15 137.096 25.6276   7
 -13   0  15 66.6513 24.6195   6
   0 -13  15 8.86124 32.3792   6
  13 -13  15-7.00083 15.4145   6
   0 -13  16 5.21790 28.4558   6
  13 -13  16 1.91140 13.8377   6
  13 -13 -16 6.26208 18.5229   7
   0 -13 -16 21.5895 24.0374   8
  13 -13 -17 4.37975 14.4327   7
   0 -13 -17 24.1818 18.2475   8
   0 -13  17 25.6532 21.1106   6
   0 -13  18 3.65124 11.9413   6
   0 -13 -18 19.2195 11.5693   8
   7 -14   0 4684.51 237.086   3
   7 -14   0 4351.46 243.494   4
   7 -14   1 8558.14 314.703   3
   7 -14  -1 8008.82 334.752   4
   7 -14  -1 7905.81 303.316   3
   7 -14   1 8267.45 320.631   4
   7 -14  -2 24392.3 586.717   4
   7 -14   2 23992.9 548.553   3
   7 -14   2 24714.3 559.590   4
   7 -14   3 3455.64 203.703   4
   7 -14   3 3968.10 235.954   3
   7 -14  -3 3896.02 247.795   4
   7 -14  -4 13403.0 450.455   4
   7 -14   4 14261.4 431.624   3
   7 -14   5 13481.5 429.342   3
   7 -14  -5 13974.5 472.808   4
   7 -14   6 4055.15 246.179   3
   7 -14  -6 3722.68 252.646   4
   7 -14   7 754.254 137.571   3
  14  -7  -7 737.808 124.384   4
   7 -14  -7 800.259 153.156   4
   7 -14   8 3714.14 261.991   3
   7 -14  -8 3726.55 272.365   4
  -7  -7   9 359.115 106.946   5
   7 -14   9 297.082 99.2859   3
   7 -14  -9 455.875 118.959   4
   7 -14  10 904.959 146.197   5
   7 -14  10 908.624 149.530   3
   7 -14 -10 638.280 33.4806   7
   7 -14  10 574.728 35.4381   6
  14  -7  11 1367.97 195.143   3
 -14   7  11 1387.61 46.1514   6
   7 -14  11 1301.35 44.2844   6
   7 -14  11 1443.90 185.984   3
   7 -14 -11 1220.46 44.1139   7
   7 -14  11 1669.77 199.933   5
 -14   7  12 82.9598 29.3522   6
   7 -14 -12 99.9224 26.5960   7
   7 -14  12-37.7319 98.9801   5
  -7  -7  12-74.0657 27.4292   6
   7 -14  12 43.8531 24.7191   6
  14  -7  12 42.1378 92.9741   3
   7 -14 -13 95.7791 25.5120   7
   7 -14  13 69.2235 24.2324   6
  -7  -7  14-18.9459 28.9676   6
   7 -14  14 2.21206 23.9007   6
   7 -14 -14 40.8289 23.5000   7
   7 -14 -15 9.13421 21.1079   7
  -7  -7  15 23.7674 26.9304   6
   7 -14  15-31.7938 25.7745   6
  -7  -7  16 24.0613 23.3990   6
   7 -14  16-24.4982 23.4351   6
   7 -14 -16 12.5403 16.8204   7
  -7  -7 -16 13.9808 24.3350   8
  -7  -7  17-5.03706 19.4554   6
   7 -14  17 2.04584 19.4088   6
  -7  -7 -17-15.0409 19.7375   8
   7 -14 -17 35.0049 14.4801   8
  14  -7 -18 1.22148 11.4254   7
  -7  -7  18-17.8610 12.1920   6
  -7  -7 -18 13.8982 13.8167   8
   7 -14  18 4.29265 13.5724   6
   8 -14   0 41823.4 760.004   4
   8 -14   0 42823.6 732.332   3
   6 -14   0 42784.2 754.115   3
   6 -14   0 42176.5 771.484   4
  14  -8   1 25849.8 474.709   3
   8 -14  -1 27530.7 559.298   3
   8 -14  -1 27327.3 597.206   4
   6 -14   1 26818.4 594.211   4
   6 -14   1 28046.1 601.666   3
   6 -14  -1 26053.8 611.737   4
   8 -14   1 27421.5 572.995   3
   8 -14   1 26060.7 573.704   4
   8 -14  -2 36982.5 736.038   4
   8 -14   2 38662.8 701.552   3
   6 -14  -2 37189.3 742.597   4
   8 -14   2 38249.9 716.092   4
   6 -14   2 38131.2 714.352   3
   6 -14   2 37431.4 708.467   4
   6 -14   3 36537.8 702.554   3
   8 -14   3 36533.0 681.906   4
   6 -14   3 35666.9 678.037   4
   6 -14  -3 36356.9 746.943   4
   8 -14   3 36963.3 695.044   3
   8 -14  -3 35142.7 731.216   4
   8 -14   4 60151.3 954.783   3
   8 -14  -4 58649.6 1001.98   4
   6 -14   4 57942.9 954.744   3
   6 -14  -4 57156.2 1002.96   4
   8 -14   5 40021.7 776.732   3
   6 -14  -5 39065.8 808.829   4
   8 -14  -5 41758.4 839.593   4
   6 -14   5 39473.2 769.692   3
  14  -8  -6 14358.0 467.012   4
   8 -14   6 15220.9 471.782   3
   8 -14  -6 15441.2 508.320   4
   6 -14   6 14726.2 467.775   3
   6 -14  -6 14645.2 494.605   4
   8 -14   7 13641.0 457.995   3
   6 -14   7 13078.3 446.862   3
   6 -14  -7 13103.9 487.145   4
  14  -8  -7 12627.7 443.444   4
  -6  -8   7 13762.3 434.426   5
   8 -14  -7 13686.2 488.183   4
   6 -14   8 10542.9 393.299   5
  14  -8  -8 9536.17 387.942   4
   6 -14   8 9827.51 403.196   3
  -6  -8   8 9821.79 398.222   5
   6 -14  -8 9551.23 419.070   4
   8 -14   8 9946.79 411.551   3
   8 -14  -8 10116.4 430.830   4
   8 -14   9 4169.36 283.070   3
   6 -14   9 3814.74 267.837   3
   8 -14  -9 4311.01 292.653   4
  -6  -8   9 4324.01 274.037   5
   6 -14  -9 4260.90 294.569   4
   6 -14   9 4592.57 275.459   5
   6 -14  10 2508.22 58.7170   6
   8 -14  10 2534.27 60.2457   6
   6 -14  10 2714.42 240.710   3
   8 -14  10 2620.45 235.475   3
   8 -14 -10 2321.63 56.2146   7
   8 -14  10 2961.84 244.363   5
  14  -8  10 2751.72 245.184   3
  -6  -8  10 2764.70 233.797   5
   6 -14 -10 2162.09 54.6699   7
   6 -14  10 2956.80 239.150   5
  14  -8  11 3246.16 272.410   3
 -14   6  11 3283.35 67.2806   6
   6 -14  11 3170.45 64.4743   6
   8 -14  11 3138.71 63.0573   6
   8 -14 -11 2972.25 66.2234   7
   8 -14  11 3346.33 270.014   3
   8 -14  11 3608.85 278.870   5
  -6  -8  11 3224.62 262.257   5
   6 -14 -11 2913.83 64.7882   7
   6 -14  11 3488.75 273.302   5
   6 -14  12 1650.71 48.2710   6
   8 -14  12 1732.41 202.250   3
   6 -14 -12 1619.54 50.7614   7
  14  -6  12 1683.36 209.636   3
   6 -14  12 1470.98 195.935   5
   8 -14  12 1296.52 178.904   5
   8 -14  12 1260.31 42.3742   6
 -14   6  12 1986.00 56.0081   6
  14  -8  12 1575.05 208.285   3
   8 -14 -12 1673.34 51.5912   7
   8 -14  13 39.8625 23.4970   6
   6 -14 -13 103.355 26.3516   7
 -14   6  13 154.095 30.6812   6
  -8  -6  13 13.0059 28.6104   6
   6 -14  13 60.9000 26.2280   6
   8 -14 -13 115.144 27.2630   7
  -6  -8  13-26.7720 30.4050   6
   6 -14 -14 164.799 25.9344   7
   8 -14 -14 243.019 29.3752   7
  -8  -6  14-7.71009 29.0036   6
   6 -14  14 78.4591 30.2110   6
   8 -14  14-67.3636 25.1078   6
  -6  -8  14-9.37724 31.6678   6
   8 -14 -15 79.7751 23.6487   7
  -8  -6  15-23.1394 26.6802   6
  -6  -8  15-10.1248 29.4113   6
   8 -14  15-53.1251 24.9020   6
   6 -14  15-1.67761 29.8235   6
   6 -14 -15 59.1783 21.8120   7
   6 -14 -16-7.26971 16.6789   7
  -8  -6  16-0.13141 22.8135   6
  -6  -8  16-2.57651 24.0705   6
   8 -14  16-46.6098 22.4117   6
   6 -14  16-29.0056 25.2171   6
   8 -14 -16 27.1571 18.3196   7
  -8  -6 -16 13.7485 23.4546   8
  -6  -8 -16-4.77387 25.2041   8
   8 -14 -17 3.19756 11.3317   7
   8 -14  17-10.9390 18.4056   6
  14  -8 -17 0.12669 16.0501   7
  -8  -6  17 17.6593 19.2385   6
  -6  -8  17-9.17777 19.0488   6
   6 -14  17 1.70633 21.8278   6
  -8  -6 -17 5.69982 19.4224   8
   6 -14 -17 22.3973 15.8555   8
  -6  -8 -17 9.37845 20.4812   8
  -8  -6 -18-3.52486 10.9295   8
  14  -6 -18 20.3685 11.9373   7
  -8  -6  18-9.31770 12.0565   6
  -6  -8  18-9.87088 12.9795   6
  14  -8 -18 9.34105 11.1907   7
   6 -14  18 26.3770 15.5009   6
   8 -14  18-12.1649 13.5864   6
  -6  -8 -18 10.5755 14.5533   8
   9 -14   0 145.988 77.1527   3
   9 -14   0 169.990 91.7366   4
   5 -14   0 79.3668 90.5162   4
   5 -14   0 184.395 97.1650   3
   9 -14  -1 2485.95 183.887   4
   9 -14   1 2462.44 178.466   4
   5 -14  -1 2641.72 202.769   4
   9 -14  -1 2609.38 167.617   3
   5 -14   1 2477.93 184.382   4
  14  -9   1 2401.56 137.378   3
   9 -14   1 2618.16 177.376   3
   5 -14   1 2840.73 194.508   3
   9 -14   2 497.161 110.259   3
   5 -14   2 689.164 128.231   3
   9 -14   2 304.078 87.6994   4
   9 -14  -2 308.495 85.0081   3
   5 -14  -2 510.576 119.870   4
   9 -14  -2 502.110 119.102   4
  14  -9   2 358.956 82.4914   3
   5 -14   2 281.988 88.1719   4
   9 -14   3 591.489 120.281   3
  14  -9   3 512.639 94.9510   3
   9 -14   3 499.593 93.1308   4
   9 -14  -3 534.725 122.801   4
   5 -14  -3 567.006 135.236   4
   5 -14   3 846.103 132.472   3
   5 -14   3 393.144 87.0116   4
  14  -9   4 1215.74 139.578   3
   9 -14   4 1379.56 160.744   3
   9 -14  -4 1099.11 160.316   4
   5 -14   4 1311.19 162.655   3
   5 -14  -4 1213.46 176.576   4
   5 -14   5 319.386 116.999   3
   5 -14  -5 388.599 136.523   4
   9 -14   5 390.769 126.132   3
   9 -14  -5 250.304 123.638   4
   9 -14  -6 379.892 117.030   4
   9 -14   6 459.106 122.326   3
   5 -14   6 448.334 120.662   3
  14  -9  -6 251.693 100.579   4
  -5  -9   6 183.266 75.8844   5
   5 -14  -6 376.875 126.499   4
  -5  -9   7 201.980 87.4912   5
   9 -14   7 267.133 112.803   3
   5 -14   7 213.286 95.9722   3
   9 -14  -7 245.203 110.699   4
  14  -9  -7 179.813 85.6429   4
   5 -14  -7 166.435 109.478   4
   5 -14   7 120.247 66.6803   5
  14  -9   7 262.312 115.729   3
  -5  -9   8 240.146 88.1733   5
   9 -14   8 250.125 110.357   3
   5 -14   8 133.152 79.3517   5
   5 -14   8 312.672 116.312   3
   9 -14  -8 142.535 95.9610   4
  14  -9   8 306.724 127.127   3
   5 -14  -8 281.885 117.612   4
  14  -9  -8 191.463 89.3587   4
  -5  -9   9 53.9279 73.9133   5
   5 -14   9 97.4692 77.9438   5
   5 -14   9-22.3186 88.1717   3
   9 -14   9 31.2332 90.5956   3
  14  -9   9 64.9579 97.1541   3
   9 -14  -9-41.8677 83.2098   4
   5 -14  -9-42.0807 91.3355   4
  -5  -9  10-34.2450 82.6207   5
   5 -14 -10 95.5921 24.4464   7
   9 -14  10 54.9289 87.4545   3
   9 -14 -10 69.3381 23.5995   7
 -14   5  10 25.9074 22.2638   6
  14  -9  10 89.4646 102.972   3
   5 -14  10 77.5934 26.3587   6
   9 -14  10 51.7412 26.3869   6
   5 -14  10 10.3172 85.6129   3
   5 -14  10 140.580 95.4625   5
   5 -14 -11 112.105 26.7651   7
   5 -14  11 58.3303 69.6329   5
   9 -14 -11 49.8587 25.2547   7
   9 -14  11-51.0699 91.6938   3
   9 -14  11 49.4353 90.0802   5
  -5  -9  11-7.41921 24.3686   6
  -5  -9  11 70.4545 83.5480   5
   5 -14  11 45.9505 26.0661   6
  14  -9  11 82.7928 91.1584   3
   9 -14  11 10.7032 24.7857   6
 -14   5  11 47.6031 24.8065   6
  -5  -9  12 163.095 102.875   5
   9 -14 -12 8.29287 26.3970   7
  14  -9  12-52.0610 94.9865   3
   9 -14  12-71.1842 83.8330   3
 -14   5  12 2.55601 27.3387   6
   5 -14  12 135.913 85.4219   5
  -9  -5  12 11.5021 22.6713   6
   9 -14  12-45.1191 26.5504   6
  -5  -9  12 58.8319 28.6821   6
   5 -14 -12 62.3371 25.9772   7
   5 -14  12 11.9241 24.1160   6
   9 -14  13-64.2680 24.7540   6
   5 -14 -13 60.6122 24.6174   7
   9 -14 -13 23.1714 26.6996   7
 -14   5  13 30.7200 28.9285   6
  -9  -5  13 24.6258 26.4615   6
   5 -14  13-28.0966 27.3042   6
  -5  -9  13-29.3502 31.4721   6
   5 -14 -14-12.2262 21.7608   7
  -9  -5  14 4.24018 25.0786   6
  -5  -9  14-61.2697 33.5662   6
   9 -14 -14-6.19593 25.5717   7
   9 -14  14-80.4437 24.5252   6
   5 -14  14-16.3584 27.3515   6
   5 -14 -15 20.5542 19.5599   7
   9 -14 -15-0.01307 22.8006   7
  -9  -5  15 4.79677 23.8170   6
   9 -14  15-20.2998 21.9532   6
   5 -14  15-5.06656 28.5063   6
  -5  -9  15 1.11866 30.8525   6
  -9  -5 -16-16.3315 22.6347   8
   9 -14 -16-72.0431 20.7550   7
  -5  -9  16-22.3969 26.9771   6
  -5  -9 -16 24.9451 25.8144   8
   9 -14  16 5.53611 19.6290   6
  -9  -5  16-27.4952 22.1657   6
   5 -14  16-2.83542 26.1744   6
   5 -14 -17 12.6438 15.9339   8
   9 -14 -17-23.4827 14.1766   7
  14  -9 -17-3.36122 15.6594   7
  -9  -5  17 15.3131 19.1180   6
  -5  -9  17-15.9482 19.5191   6
   5 -14  17-2.86282 22.4383   6
  -9  -5 -17-6.47488 17.6449   8
   9 -14  17 23.3696 17.8818   6
  -5  -9 -17-23.2726 21.4678   8
  14  -9 -18-6.35922 11.0524   7
  14  -5 -18-15.2279 11.3587   7
  -5  -9  18 6.48977 12.6215   6
  -5  -9 -18 16.1107 14.5112   8
   9 -14  18-3.33638 12.3008   6
   5 -14 -18 5.14753 11.0154   8
   5 -14  18-11.6776 15.5582   6
  10 -14   0 430.620 115.375   4
  10 -14   0 338.573 93.3889   3
   4 -14   0 308.312 110.887   4
  10 -14   1 277.836 104.535   4
  10 -14   1 201.548 111.209   3
  10 -14  -1 467.010 128.015   4
  10 -14  -1 197.857 81.2530   3
   4 -14   1 436.746 113.268   4
  14 -10   1 162.676 68.2375   3
   4 -14  -1 548.875 134.337   4
  10 -14  -2 778.852 143.373   4
  10 -14   2 794.474 126.471   3
   4 -14   2 1026.79 155.412   3
   4 -14  -2 846.826 154.372   4
  10 -14  -2 559.359 95.6332   3
  14 -10   2 381.356 86.5061   3
  10 -14   2 438.209 109.539   4
   4 -14   2 313.800 103.611   4
  10 -14   3 679.472 129.959   3
   4 -14   3 614.738 157.311   3
  10 -14  -3 552.507 143.404   4
   4 -14   3 226.771 87.7870   4
  14 -10   3 395.326 102.820   3
  10 -14   3 234.575 83.4228   4
   4 -14  -3 633.333 152.398   4
  14 -10  -4 2296.99 219.450   4
  10 -14   4 3051.98 211.751   3
  10 -14  -4 2599.82 219.198   4
   4 -14   4 2953.29 217.669   3
  14 -10   4 2271.73 173.665   3
   4 -14  -4 2224.37 219.038   4
  14 -10   5 1459.59 153.451   3
  10 -14   5 1398.62 169.456   3
  14 -10  -5 1221.05 167.386   4
  10 -14  -5 1434.37 177.870   4
   4 -14   5 1452.26 164.940   3
   4 -14  -5 1278.56 178.543   4
  10 -14   6 480.595 124.389   3
  14 -10   6 301.858 109.740   3
  14 -10  -6 187.875 95.9527   4
   4 -14   6 381.600 109.738   3
  10 -14  -6 432.990 122.157   4
   4 -14  -6 363.132 121.931   4
  -4 -10   7 142.842 85.7060   5
  10 -14   7 144.522 104.586   3
  14 -10   7 121.861 103.962   3
   4 -14   7 175.335 100.989   3
  14 -10  -7-54.4353 83.7767   4
   4 -14  -7 82.2716 111.201   4
  10 -14  -7 82.5577 97.4575   4
  -4 -10   8 48.6825 75.6747   5
  10 -14   8 128.035 100.506   3
   4 -14   8 91.0948 69.8908   5
  10 -14  -8 64.3538 88.1678   4
   4 -14   8 137.248 90.4655   3
  14 -10   8 131.474 99.0599   3
  14 -10  -8-10.5033 81.7661   4
   4 -14  -8 111.088 103.890   4
   4 -14  -9-18.0792 93.3109   4
  14 -10   9 96.7496 107.995   3
  10 -14   9 66.0506 94.0224   3
   4 -14   9 215.135 90.0686   5
  -4 -10   9-83.8387 90.1647   5
   4 -14   9-44.7784 78.7963   3
  10 -14  -9 7.88787 79.1267   4
  -4 -10  10 221.473 93.9453   5
  10 -14  10 439.748 122.264   3
 -14   4  10 350.021 28.4563   6
   4 -14  10 339.662 29.7324   6
  10 -14  10 337.255 30.0050   6
  14 -10  10 347.648 117.689   3
   4 -14 -10 373.288 30.4719   7
   4 -14  10 174.219 80.6573   5
  10 -14 -10 437.584 32.2553   7
   4 -14  10 241.548 92.5248   3
  14 -10  11 126.606 100.959   3
  10 -14 -11 112.947 26.5829   7
   4 -14 -11 90.1114 25.0298   7
   4 -14  11-7.22141 66.3948   5
  10 -14  11-4.92977 94.7496   3
 -14   4  11 86.7756 25.1876   6
  -4 -10  11 48.9055 71.3269   5
  -4 -10  11 148.150 25.2957   6
   4 -14  11 112.059 26.0908   6
  10 -14  11 85.4482 25.6789   6
  -4 -10  12 133.601 90.6817   5
  14 -10  12 95.6227 95.5829   3
   4 -14  12 80.0638 88.1582   5
  10 -14 -12 72.2366 27.1274   7
  10 -14  12-30.5138 84.4975   3
  10 -14  12-53.9877 94.1767   5
 -14   4  12 54.9662 26.2617   6
 -10  -4  12-57.8664 22.7713   6
  -4 -10  12-26.9580 26.0624   6
   4 -14  12 27.8783 25.2983   6
   4 -14 -12 80.2222 24.6126   7
  10 -14  12 53.3369 22.9424   6
   4 -14 -13 59.2193 24.1914   7
  10 -14 -13 54.2732 27.8486   7
 -14   4  13 88.4101 28.6538   6
 -10  -4  13 80.1009 27.2408   6
  10 -14  13-5.67792 21.6258   6
   4 -14  13 26.7543 27.6169   6
  -4 -10  13 29.6568 31.8503   6
  10 -14 -14 7.51090 25.0664   7
 -14   4  14-9.62828 27.7590   6
 -10  -4  14 6.93156 23.8034   6
  10 -14  14-20.8539 20.5060   6
   4 -14  14-13.7391 27.2790   6
  -4 -10  14 14.5239 32.1682   6
   4 -14 -14-5.22658 20.5356   7
  10 -14 -15-17.8938 22.9074   7
 -10  -4  15 40.2278 23.4331   6
  -4 -10  15 27.0172 30.8282   6
  10 -14  15 0.95238 19.7467   6
   4 -14  15-48.1018 29.7985   6
  10 -14 -16-1.10124 19.3918   7
  14 -10 -16 13.2020 20.0481   7
 -10  -4  16 7.55639 21.4753   6
   4 -14  16 30.8876 27.5100   6
  -4 -10  16 17.1518 28.3322   6
 -10  -4 -16 3.37082 20.5607   8
  -4 -10 -16 18.0682 26.3653   8
   4 -14 -16-16.0985 21.2609   8
  10 -14  16-23.0115 18.3502   6
  10 -14 -17-7.23390 14.5984   7
  14 -10 -17-10.0865 15.1877   7
 -10  -4  17 28.0220 18.2147   6
  -4 -10  17 29.7133 20.3488   6
   4 -14 -17 15.3779 16.7273   8
   4 -14  17-0.38336 22.1005   6
  -4 -10 -17-8.72312 20.5205   8
 -10  -4 -17-11.2069 13.7109   8
  10 -14  17 26.1907 16.7825   6
  10 -14  18 5.61373 10.7476   6
   4 -14  18 15.7522 14.9472   6
   4 -14 -18 3.62300 10.2893   8
  -4 -10 -18 9.18914 14.1239   8
  14 -10 -18-9.20277 10.4942   7
  11 -14   0 2313.24 181.335   4
  11 -14   0 2155.83 153.093   3
   3 -14   0 2082.60 182.009   4
  11 -14  -1 9065.84 342.713   4
  11 -14   1 9414.59 338.878   4
  11 -14   1 9563.79 317.935   3
   3 -14  -1 8648.16 360.678   4
  11 -14  -1 9160.34 300.927   3
  14 -11   1 8961.13 279.808   3
   3 -14   1 9207.53 351.678   4
   3 -14   2 4467.30 254.731   3
  14 -11   2 4157.70 197.831   3
  11 -14  -2 4311.21 249.806   4
  11 -14   2 4531.85 233.556   4
  11 -14   2 4548.16 227.192   3
  11 -14  -2 4234.94 198.077   3
   3 -14   2 4090.08 232.971   4
   3 -14  -2 4336.81 262.783   4
   3 -14  -3 2941.13 229.703   4
  14 -11   3 2766.51 170.518   3
  14 -11  -3 3004.77 225.724   4
  11 -14   3 2867.24 194.801   3
  11 -14  -3 3036.06 219.977   4
  11 -14   3 2969.37 188.527   4
   3 -14   3 2926.09 208.953   3
  11 -14   4 712.989 119.313   3
   3 -14   4 840.234 128.090   3
  11 -14  -4 773.379 135.937   4
  14 -11   4 690.557 103.910   3
  14 -11  -4 618.271 120.499   4
   3 -14  -4 790.214 139.587   4
  11 -14   5 804.213 126.437   3
  14 -11   5 610.906 107.441   3
  14 -11  -5 713.245 130.463   4
   3 -14   5 745.295 126.167   3
  11 -14  -5 727.306 132.705   4
   3 -14  -5 655.634 132.506   4
  11 -14   6 683.551 132.413   3
  11 -14  -6 598.470 130.971   4
   3 -14  -6 621.943 138.149   4
  14 -11   6 711.390 119.763   3
   3 -14   6 677.271 122.963   3
  14 -11  -6 523.353 116.230   4
  14 -11  -7 1358.09 161.423   4
   3 -14   7 1233.08 154.935   3
  11 -14  -7 1363.16 167.957   4
  14 -11   7 1265.42 157.125   3
  11 -14   7 1161.28 157.455   3
   3 -14  -7 1273.29 172.149   4
   3 -14  -8 59.6450 106.325   4
  11 -14   8 80.6864 85.2120   3
  11 -14  -8 32.4990 89.0453   4
  14 -11  -8 129.604 89.4763   4
  -3 -11   8 98.7708 71.0472   5
  14 -11   8 74.0856 86.5314   3
   3 -14   8 77.6954 73.2487   3
  11 -14   9 243.168 101.496   3
   3 -14   9 72.5251 63.4882   5
  14 -11   9 125.422 89.1020   3
  11 -14  -9 204.501 93.4757   4
  -3 -11   9 130.663 69.6723   5
   3 -14   9 127.777 70.9554   3
  11 -14  10 703.878 144.012   3
   3 -14  10 509.167 113.741   5
 -14   3  10 658.591 31.6661   6
   3 -14  10 555.903 33.1100   6
  11 -14  10 445.502 30.6426   6
   3 -14 -10 578.484 32.1646   7
  -3 -11  10 509.381 111.853   5
  14 -11  10 697.770 140.098   3
  11 -14 -10 630.460 33.9162   7
   3 -14  11 325.028 104.370   5
  11 -14 -11 201.878 28.2470   7
 -14   3  11 225.705 26.5828   6
   3 -14  11 178.612 26.1296   6
  -3 -11  11 31.3960 19.0212   6
  11 -14  11 137.987 24.7144   6
  14 -11  11 181.345 103.343   3
  -3 -11  11 120.316 73.4486   5
   3 -14 -11 183.130 26.1152   7
  11 -14  11 154.771 100.209   3
  11 -14 -12 57.1299 26.5276   7
  11 -14  12 34.1515 78.8649   3
 -14   3  12 28.0168 25.6402   6
  -3 -11  12 25.6145 25.7046   6
   3 -14  12 4.23409 24.6883   6
  11 -14  12-5.10771 21.8966   6
  14 -11  12 40.7724 81.0070   3
   3 -14 -12 43.3191 23.2275   7
 -11  -3  13 31.7198 24.6701   6
  11 -14  13 17.1539 20.9613   6
   3 -14  13 14.0319 28.6787   6
   3 -14 -13 63.8156 20.2817   7
  -3 -11  13-3.94658 30.0278   6
  11 -14 -14 15.9229 25.3625   7
 -14   3  14 14.9324 26.7153   6
 -11  -3  14-1.95068 22.2847   6
  -3 -11  14-13.6194 31.1551   6
   3 -14  14-0.34130 28.9075   6
  11 -14  14-35.4520 19.6504   6
  11 -14 -15 38.9059 23.7543   7
 -11  -3  15 11.6538 21.8251   6
  11 -14  15-6.56668 17.9667   6
   3 -14  15 18.7251 29.8840   6
  -3 -11  15 5.04059 30.8436   6
  11 -14 -16 18.5678 19.3274   7
  14 -11 -16 9.21637 19.2864   7
 -11  -3  16 17.4425 20.6223   6
  -3 -11  16 32.4309 27.1435   6
  -3 -11 -16 1.68617 25.8036   8
 -11  -3 -16 46.6538 20.6276   8
  11 -14  16-8.41823 16.6971   6
   3 -14  16-21.4513 27.2262   6
   3 -14 -16 22.7991 20.9434   8
  11 -14 -17-11.6700 14.4262   7
  14 -11 -17 13.7866 15.0950   7
 -11  -3  17 38.0614 17.7938   6
  -3 -11  17 4.68896 19.3674   6
  -3 -11 -17-8.74601 19.9947   8
   3 -14  17-11.4858 22.7985   6
  11 -14  17-14.5634 14.6749   6
   3 -14 -17 11.8362 16.3213   8
  14 -11 -18 4.41674 10.6629   7
   3 -14  18-2.33014 14.0618   6
  -3 -11 -18-1.60729 13.1322   8
   3 -14 -18 6.30065 11.0401   8
   2 -14   0 548.196 115.290   4
  12 -14   0 648.415 94.2546   3
  12 -14   0 633.726 111.224   4
  14 -12   0 604.859 110.567   4
  14 -12   1 477.308 78.1393   3
  12 -14   1 476.036 90.7077   3
  14 -12   1 594.211 111.932   4
  12 -14  -1 528.259 109.392   4
  14 -12  -1 592.715 115.365   4
  12 -14   1 508.016 105.315   4
  12 -14  -1 526.497 82.4667   3
   2 -14  -1 527.287 120.302   4
  12 -14   2 33.9091 61.9476   3
  14 -12   2 68.5309 67.4762   4
  12 -14   2 70.4059 62.2054   4
  12 -14  -2 69.7036 83.6708   4
  14 -12  -2 24.6677 85.5586   4
  14 -12   2-7.09978 53.6060   3
   2 -14  -2 23.8643 82.9197   4
  12 -14   3 97.5414 73.9558   3
  14 -12  -3 103.120 93.9602   4
  14 -12   3 65.1473 58.9753   4
  12 -14  -3 131.207 93.4686   4
  12 -14   3 82.5951 57.2487   4
   2 -14   3 165.010 90.2165   3
  14 -12   3 36.6975 60.8027   3
   2 -14  -3 91.8414 94.8588   4
  14 -12  -4 101.544 95.3157   4
  12 -14   4 46.0583 75.0610   3
  12 -14  -4 78.4114 92.2162   4
   2 -14  -4 15.9629 91.8750   4
  14 -12   4 105.236 77.0580   3
   2 -14   4 23.6058 72.4685   3
  12 -14   5 54.6872 74.4312   3
  14 -12  -5 248.715 101.534   4
   2 -14   5 110.622 83.8486   3
  12 -14  -5 120.787 98.3228   4
  14 -12   5 159.195 78.8956   3
   2 -14  -5 195.190 105.234   4
   2 -14  -6-28.3284 97.5753   4
  12 -14   6 86.6674 80.4955   3
  14 -12   6 122.615 85.8803   3
  12 -14  -6-21.1078 87.2652   4
  14 -12  -6 34.5140 81.4630   4
   2 -14   6 86.2394 83.2056   3
  12 -14   7 10.8752 83.6265   3
  14 -12   7 144.099 92.0807   3
  12 -14  -7-0.94049 88.8311   4
   2 -14   7 39.8582 73.4503   3
  14 -12  -7 37.4248 76.2084   4
  12 -14   8 59.1311 89.2432   3
  14 -12   8-35.0757 81.6885   3
  12 -14  -8-25.2147 84.3996   4
   2 -14   8 3.40480 79.2465   3
  14 -12  -8 28.1400 76.6425   4
  12 -14   9 69.6554 85.7580   3
  14 -12  -9 81.2254 83.6849   4
  12 -14  -9 158.999 98.2567   4
  14 -12   9 69.4026 84.3114   3
  12 -14  10-115.638 90.7133   3
 -14   2  10 12.9816 19.9908   6
   2 -14  10 22.1125 19.9505   6
  -2 -12  10-12.3532 17.4506   6
  14 -12  10-17.7190 17.8152   6
   2 -14 -10 44.1173 20.5316   7
  -2 -12  10 30.0732 64.2280   5
  14 -12  10-55.3557 102.802   3
  12 -14  10 4.37549 20.1897   6
  12 -14  11 21.8000 77.1741   3
   2 -14 -11 0.55093 17.8507   7
   2 -14  11 17.0080 66.8751   5
  14 -12  11 1.89190 16.5073   6
  12 -14 -11 85.2314 25.0941   7
 -14   2  11 13.3804 18.0807   6
   2 -14  11 4.80595 21.5646   6
  -2 -12  11 19.6856 74.9734   5
  12 -14  11 12.7707 21.0302   6
  14 -12  11 42.8809 78.8501   3
  -2 -12  11-51.9784 20.1415   6
  12 -14 -12-2.94163 24.8662   7
  14 -12  12 18.5067 15.5222   6
 -14   2  12 38.1414 23.1840   6
 -12  -2  12-38.9706 20.5951   6
   2 -14  12 5.45779 23.7459   6
  12 -14  12-2.50332 19.8634   6
   2 -14 -12 18.6254 17.4447   7
  -2 -12  12-12.4091 24.0166   6
  12 -14 -13 188.349 30.4921   7
 -14   2  13 267.710 29.3109   6
 -12  -2  13 258.094 26.9110   6
  -2 -12  13 33.7906 29.3652   6
  14 -12  13 47.9615 16.1036   6
   2 -14  13 26.1852 29.6416   6
  12 -14  13 105.627 20.1915   6
  12 -14 -14 0.06741 24.3301   7
 -14   2  14-11.0669 23.5688   6
 -12  -2  14-11.0063 21.4891   6
  12 -14  14-5.42192 16.5576   6
   2 -14  14-23.7774 27.9742   6
  -2 -12  14 10.1884 29.4989   6
  14 -12 -15 8.69847 22.7198   7
 -12  -2  15-2.60452 21.4451   6
  -2 -12 -15 27.8457 30.2103   8
  12 -14  15 2.00861 16.0184   6
   2 -14  15-7.99109 28.5288   6
   2 -14 -15 7.65240 25.8243   8
  -2 -12  15-21.1507 31.2659   6
  12 -14 -15 16.8543 22.5382   7
  12 -14 -16-15.1657 18.6063   7
  14 -12 -16-4.22153 18.4969   7
 -12  -2  16-16.1186 19.2900   6
   2 -14  16 7.27425 26.7237   6
   2 -14 -16-5.73270 21.1834   8
  -2 -12  16-18.2465 27.0586   6
  12 -14  16 4.62114 14.9592   6
  -2 -12 -16-10.3285 25.1754   8
  -2 -12 -17-23.6524 19.0433   8
  12 -14 -17-10.7401 13.4732   7
  14 -12 -17 4.80830 14.4553   7
  -2 -12  17 19.7960 19.1676   6
   2 -14  17 12.2946 21.4930   6
  12 -14  17 6.79138 12.9019   6
   2 -14 -17-7.55466 16.3814   8
   2 -14  18-13.1579 12.0081   6
  -2 -12 -18 2.69771 11.8230   8
  14 -13   0 1409.91 149.181   4
  13 -14   0 1142.58 141.975   4
  13 -14   0 1240.04 114.771   3
  14 -13   1 1998.82 173.312   4
  14 -13  -1 2386.67 198.220   4
  13 -14   1 2133.41 178.040   4
  13 -14  -1 2239.82 194.337   4
  14 -13   1 2022.60 146.019   3
  13 -14   1 2228.08 156.112   3
  14 -13  -2 3922.80 248.658   4
  14 -13   2 3560.56 197.579   3
  13 -14   2 3642.48 215.999   4
  13 -14  -2 3396.70 230.244   4
  13 -14   2 3415.15 198.419   3
  14 -13   2 3699.01 220.253   4
  14 -13   3 3276.57 195.721   3
  14 -13   3 3167.38 203.490   4
  14 -13  -3 3148.39 230.309   4
  13 -14   3 3178.26 199.827   3
  13 -14   3 3142.43 200.610   4
  13 -14  -3 3208.62 232.491   4
  14 -13   4 2154.14 175.621   3
  13 -14   4 1960.14 166.011   3
  14 -13  -4 1977.17 198.348   4
  13 -14  -4 1982.38 191.873   4
   1 -14   4 1846.19 182.363   3
  14 -13   5 2188.10 187.099   3
  14 -13  -5 2433.65 216.883   4
  13 -14  -5 2316.84 207.195   4
   1 -14   5 2130.17 193.924   3
  13 -14   5 2383.49 194.821   3
  14 -13   6 1081.94 145.247   3
  14 -13  -6 992.473 155.531   4
   1 -14   6 1032.98 146.923   3
  13 -14  -6 987.724 153.597   4
  13 -14   6 933.712 144.805   3
  14 -13   7 1133.20 160.354   3
  14 -13  -7 1025.43 155.486   4
  13 -14  -7 952.628 158.473   4
   1 -14   7 1032.98 147.655   3
  13 -14   7 1170.56 160.766   3
  14 -13  -8 497.556 121.996   4
   1 -14   8 230.752 78.9487   3
  13 -14  -8 467.716 119.744   4
  14 -13   8 425.497 116.185   3
  13 -14   8 527.185 128.698   3
  13 -14  -9 210.553 93.1647   4
  14 -13  -9 165.772 93.4303   4
  14 -13   9 49.6357 79.5011   3
  13 -14   9 133.510 94.4588   3
   1 -14  10 173.535 20.8028   6
  13 -14  10 43.8249 21.5806   6
  14 -13  10 101.179 20.1068   6
  13 -14  10 112.117 92.5288   3
   1 -14 -10 121.268 22.3547   7
  -1 -13  10 73.8882 18.3433   6
  14 -13  10 167.609 93.5250   3
 -14   1  11 351.379 26.8203   6
  -1 -13  11 213.735 26.2961   6
   1 -14  11 277.405 25.8372   6
  14 -13  11 255.426 22.9190   6
  13 -14  11 253.994 24.9794   6
   1 -14 -11 330.671 27.5225   7
  13 -14  11 375.798 119.801   3
  13 -14 -12 93.2853 26.2729   7
 -13  -1  12 96.5979 21.8814   6
  14 -13  12 59.7943 17.2439   6
  -1 -13  12 16.3314 24.5727   6
   1 -14  12 76.4367 25.0626   6
  13 -14  12 53.0998 18.7525   6
  13 -14 -13 12.5091 26.2389   7
 -14   1  13 13.4652 23.2512   6
 -13  -1  13-63.6996 21.9927   6
   1 -14  13 10.9818 27.6455   6
  13 -14  13-38.4290 17.3878   6
  14 -13  13-3.34224 15.2335   6
  -1 -13  13-21.8627 27.6098   6
  -1 -13  14-5.87124 29.1823   6
  13 -14 -14-1.38294 24.3965   7
  14 -13 -14 10.9480 23.8756   7
 -14   1  14-6.12366 22.7241   6
 -13  -1  14 12.9383 21.3905   6
   1 -14  14-10.6046 28.0243   6
  13 -14  14-17.8884 15.8490   6
   1 -14 -14 29.4469 27.7877   8
  -1 -13 -14 19.5023 30.6939   8
  14 -13  14 16.7146 14.3385   6
  13 -14 -15-11.1231 22.6105   7
  14 -13 -15-2.89828 21.8708   7
 -13  -1  15-3.48212 20.3813   6
  14 -13  15-12.8289 14.9214   6
   1 -14 -15 0.78771 25.4144   8
  13 -14  15 3.55302 14.6500   6
  -1 -13 -15 2.02592 28.3270   8
   1 -14  15-10.6338 28.9524   6
  -1 -13  15-5.14245 29.5370   6
  13 -14 -16 9.71633 18.0248   7
  14 -13 -16 10.5881 17.9748   7
   1 -14  16 36.0305 26.5085   6
   1 -14 -16 29.1842 21.9005   8
  -1 -13  16 1.15213 25.3327   6
  -1 -13 -16-8.23811 22.8584   8
  13 -14  16-8.11376 13.6614   6
  -1 -13 -17 1.58860 17.0571   8
  13 -14 -17 8.10210 13.3274   7
  14 -13 -17 2.83794 13.8867   7
  -1 -13  17 8.20130 18.5963   6
  13 -14  17 0.52212 11.1416   6
   1 -14  17 9.82438 19.0362   6
   1 -14 -17-6.03493 16.2114   8
  14 -14   0 5708.70 234.527   3
  14 -14   0 5991.74 290.316   4
  14 -14   1 5199.90 267.877   4
  14 -14  -1 5516.26 284.879   4
  14 -14   1 5220.80 232.522   3
  14 -14   2 4984.07 260.426   4
  14 -14  -2 4960.57 280.084   4
  14 -14   2 4818.75 234.835   3
  14 -14   3 4353.48 230.613   3
  14 -14   3 4288.14 238.372   4
  14 -14  -3 4232.59 269.712   4
  14 -14   4 4811.84 254.345   3
  14 -14  -4 5157.77 296.496   4
  14 -14   5 1673.38 163.284   3
  14 -14  -5 1867.40 192.987   4
  14 -14   6 1370.96 159.667   3
  14 -14  -6 1279.90 166.965   4
  14 -14   7 1095.22 156.826   3
  14 -14  -7 1086.15 158.989   4
   0 -14   7 887.761 135.481   3
  14 -14   8 1016.50 151.552   3
  14 -14  -8 972.236 156.872   4
   0 -14  -9 510.721 33.7500   8
  14 -14   9 373.721 26.6112   6
  14 -14  -9 556.333 123.164   4
  14 -14   9 678.215 142.102   3
   0 -14  -9 383.895 27.8736   7
   0 -14 -10 99.5650 21.8419   7
   0 -14  10 39.1374 17.3390   6
  14 -14  10 71.5520 21.5141   6
  14 -14  10 114.313 94.3932   3
  14 -14  11 94.6341 81.5347   3
  14 -14  11 73.6753 20.6621   6
   0 -14  11 55.8166 22.6665   6
  14 -14 -12 56.9311 27.1169   7
   0 -14  12 30.5737 25.0051   6
  14 -14  12 21.1468 17.8611   6
   0 -14 -12 68.5629 31.9826   8
  14 -14 -13 8.53783 25.6281   7
 -14   0  13-10.2663 21.0362   6
   0 -14  13-18.7874 26.8415   6
   0 -14 -13-16.6094 30.1508   8
  14 -14  13 3.61855 15.6390   6
  14 -14 -14 14.6396 24.6371   7
 -14   0  14 32.5041 21.6706   6
  14 -14  14 5.45262 14.6534   6
   0 -14  14 6.79529 27.5933   6
   0 -14 -14 18.4395 28.6780   8
   0 -14  15-29.5356 28.6634   6
  14 -14 -15 38.4731 22.4650   7
   0 -14 -15 20.5296 26.3392   8
  14 -14  15-7.88567 14.0303   6
   0 -14 -16 41.8418 22.2129   8
  14 -14 -16 29.5408 18.1914   7
  14 -14  16 33.9484 13.4624   6
   0 -14  16 2.10211 25.1416   6
   0 -14  17 7.66097 17.3728   6
   0 -14 -17 18.4976 15.7219   8
  14 -14 -17 21.5182 12.9232   7
   8 -15   0 8520.89 322.561   3
   7 -15   0 8215.32 346.406   4
   8 -15   0 8633.51 344.596   4
   7 -15   0 8883.79 339.141   3
   7 -15   1 7064.30 309.209   4
   7 -15  -1 6840.09 310.852   4
   8 -15   1 6994.98 300.943   3
   8 -15  -1 6836.38 288.466   3
   7 -15   1 7329.68 310.697   3
   8 -15  -1 6590.60 304.416   4
   8 -15   1 7057.43 310.319   4
   7 -15  -2 7721.27 339.056   4
   7 -15   2 7805.89 324.043   4
   7 -15   2 8346.17 332.232   3
   8 -15  -2 7454.05 336.732   4
   8 -15   2 7813.77 320.449   4
   8 -15   2 8214.25 324.356   3
   7 -15  -3 7462.83 341.672   4
   8 -15  -3 7451.33 350.505   4
   8 -15   3 7564.39 326.968   3
   7 -15   3 8027.73 337.451   3
   7 -15  -4 6491.97 328.659   4
   8 -15  -4 6363.40 324.746   4
   8 -15   4 6606.96 313.963   3
   7 -15   4 6654.86 315.876   3
   7 -15   5 4527.41 268.970   3
   7 -15  -5 4568.17 290.282   4
   8 -15   5 4477.86 266.738   3
   8 -15  -5 4622.31 292.328   4
   8 -15   6 2369.88 200.900   3
   7 -15   6 2359.87 204.665   3
   8 -15  -6 2301.25 211.465   4
   7 -15  -6 2272.33 218.150   4
  15  -7  -7 3043.16 224.089   4
  15  -8  -7 3209.85 233.148   4
   8 -15   7 2949.50 231.642   3
   7 -15   7 3218.84 238.186   3
   7 -15  -7 3403.48 258.676   4
   8 -15  -7 2880.89 245.815   4
  15  -8  -8 1963.91 186.439   4
   8 -15   8 1592.08 181.589   3
   7 -15   8 1728.47 187.932   3
   8 -15  -8 1480.30 185.914   4
   7 -15  -8 1822.58 202.559   4
   8 -15   9 1177.47 162.196   3
   7 -15   9 1153.83 168.347   3
   8 -15  -9 1406.82 185.868   4
   7 -15  -9 1310.47 176.508   4
   7 -15   9 1270.41 162.406   5
  15  -8  10 651.231 149.484   3
   7 -15  10 467.809 109.022   5
   8 -15  10 625.869 136.945   5
   7 -15  10 686.698 35.9517   6
   8 -15  10 652.735 134.886   3
   7 -15  10 683.568 144.330   3
   8 -15  10 580.333 35.0315   6
   7 -15 -10 515.596 33.1032   7
   8 -15 -10 527.194 32.2431   7
   8 -15  11 589.583 129.307   5
   8 -15  11 640.881 36.5685   6
   8 -15  11 692.687 148.317   3
   7 -15  11 349.503 101.049   3
  15  -7  11 709.480 159.049   3
   7 -15  11 499.213 116.939   5
  15  -8  11 848.822 166.358   3
   7 -15  11 705.262 36.4512   6
   7 -15 -11 706.818 38.3573   7
   8 -15 -11 701.641 37.2434   7
   7 -15  12 360.374 30.0078   6
   8 -15  12 365.018 30.3018   6
  15  -7  12 491.809 142.822   3
   7 -15 -12 432.716 34.0390   7
  15  -8  12 507.237 130.184   3
   8 -15 -12 502.954 34.8391   7
   7 -15 -13 61.1133 25.0844   7
   8 -15 -13 74.9359 26.5818   7
  -7  -8  13 40.2793 25.8946   6
   7 -15  13 31.5419 23.6812   6
   8 -15  13 22.6577 22.6319   6
   7 -15 -14-0.15544 22.4219   7
   8 -15 -14 28.9220 23.8028   7
  -8  -7  14-18.5378 24.6621   6
  -7  -8  14-9.46848 25.7464   6
   8 -15  14-41.1831 24.2918   6
   7 -15  14-13.6068 25.1536   6
   7 -15 -15 19.7542 20.2507   7
   8 -15 -15-4.80168 21.1007   7
  -7  -8 -15-8.72302 26.6602   8
  -8  -7  15 13.0277 22.5703   6
  -7  -8  15-17.1362 24.3085   6
   8 -15  15-65.3016 24.0574   6
   7 -15  15-74.1514 26.1328   6
  -8  -7 -15-10.8294 25.8976   8
   7 -15 -16-24.5155 16.2181   7
   8 -15 -16-7.39753 16.3679   7
  -8  -7  16-19.8501 19.3703   6
  -7  -8  16 15.5939 19.6251   6
   7 -15  16 6.77051 21.4289   6
   8 -15  16 2.31225 19.9511   6
  -8  -7 -16 22.1848 21.8060   8
  -7  -8 -16-3.43741 22.4544   8
   7 -15 -16 24.1833 15.6391   8
  15  -8 -17 2.78723 14.6142   7
  -8  -7  17 15.7186 15.8456   6
  -7  -8  17 4.15706 16.1880   6
   8 -15  17-14.4846 17.4947   6
   7 -15  17 3.88824 18.1350   6
   8 -15 -17-8.72219 10.5868   7
  -7  -8 -17-20.4249 18.1201   8
  -8  -7 -17 12.2671 16.8336   8
  15  -8 -18 4.89725 10.1313   7
  15  -7 -18-3.16815 9.69641   7
   7 -15  18 8.16861 11.5342   6
   8 -15  18-8.95539 11.1332   6
   9 -15   0 1138.80 142.216   4
   9 -15   0 1377.10 149.013   3
   6 -15   0 1352.40 161.626   4
   6 -15   0 1126.58 156.541   3
   6 -15   1 902.132 140.295   3
   9 -15  -1 832.394 132.861   4
   9 -15   1 886.507 124.477   4
   9 -15   1 831.839 119.556   3
   9 -15  -1 757.223 111.829   3
   6 -15   1 606.853 119.595   4
   6 -15  -1 841.333 136.886   4
   9 -15  -2 575.044 121.447   4
   9 -15   2 724.517 125.879   3
   6 -15   2 684.361 138.432   3
  15  -9   2 530.272 87.0779   3
   9 -15   2 685.976 116.794   4
   6 -15  -2 804.874 141.092   4
   6 -15   2 519.412 102.991   4
  15  -9   3 2138.08 158.816   3
   6 -15  -3 2308.93 213.017   4
   6 -15   3 2403.86 198.373   3
   9 -15  -3 2047.57 196.126   4
   9 -15   3 2558.42 195.804   3
  15  -9   4 620.918 107.923   3
   9 -15   4 914.434 147.743   3
   6 -15  -4 849.409 159.933   4
   6 -15   4 850.366 146.521   3
   9 -15  -4 865.665 161.048   4
   9 -15   5 374.979 117.276   3
   9 -15  -5 391.343 123.594   4
   6 -15   5 476.620 122.080   3
   6 -15  -5 371.792 126.018   4
   9 -15   6 382.456 113.498   3
   9 -15  -6 336.415 113.497   4
  15  -9  -6 282.402 99.2034   4
   6 -15  -6 333.999 112.538   4
   6 -15   6 357.346 105.792   3
   9 -15   7 148.715 94.3527   3
   6 -15   7 152.493 93.0866   3
   9 -15  -7 250.125 118.510   4
  15  -9  -7 261.111 91.9031   4
  15  -9   7 163.415 96.6458   3
   6 -15  -7 112.074 92.1211   4
   6 -15   8 292.760 85.6311   5
   9 -15   8 266.206 102.004   3
  15  -9  -8 193.883 88.6608   4
  15  -9   8 220.854 100.338   3
   6 -15   8 362.921 112.477   3
   9 -15  -8 260.120 108.012   4
   6 -15  -8 224.105 104.890   4
   9 -15  -9 124.658 91.3347   4
   6 -15   9 31.9801 66.5265   5
   9 -15   9-6.57212 81.5171   3
  15  -9   9 89.7277 97.3583   3
   6 -15   9 67.5046 81.4058   3
  -6  -9   9 136.562 82.0753   5
   6 -15  -9 61.6515 83.5575   4
   6 -15 -10 11.7732 21.8062   7
   9 -15 -10 21.7680 22.3681   7
 -15   6  10 12.7639 23.6832   6
   9 -15  10 186.717 108.098   3
   6 -15  10 30.0555 56.6779   5
   6 -15  10 70.7042 78.3246   3
   9 -15  10 14.1090 24.1173   6
  15  -9  10-29.2939 81.9744   3
   6 -15  10 4.96419 24.6202   6
   6 -15  11 54.4513 79.8659   5
   9 -15 -11 116.416 26.0567   7
   9 -15  11 62.0111 71.9258   5
   9 -15  11 24.4197 95.6827   3
   9 -15  11 107.123 26.3491   6
   6 -15  11 130.776 26.2097   6
   6 -15  11 177.474 97.8150   3
   6 -15 -11 122.170 26.8536   7
  15  -9  11 186.306 116.056   3
   6 -15  12 94.2076 24.5045   6
   6 -15 -12 124.866 27.1251   7
   9 -15 -12 127.783 27.5127   7
   9 -15  12 86.8561 24.6672   6
   6 -15 -13 23.6471 23.2692   7
   9 -15 -13 19.5831 25.6458   7
   6 -15  13 2.44075 24.0842   6
   9 -15  13-37.3971 23.0934   6
   6 -15 -14-3.56344 21.2673   7
   9 -15 -14 24.9277 23.9620   7
  -9  -6  14 7.14161 22.8938   6
  -6  -9  14-14.2383 27.1989   6
   6 -15  14-13.2553 24.6752   6
   9 -15  14-24.1484 22.0174   6
   6 -15 -15 10.6501 18.9458   7
  -9  -6  15 2.23284 21.3411   6
  -6  -9  15 39.7553 25.5235   6
   9 -15  15-10.8702 20.8665   6
   6 -15  15 17.5738 25.4497   6
   9 -15 -15-6.06590 21.2445   7
  -9  -6 -15-14.4968 24.3325   8
  -6  -9 -15 2.93737 27.1957   8
  -9  -6 -16 4.58924 20.2197   8
   6 -15 -16-38.5987 14.3855   7
   9 -15 -16-3.83196 16.7663   7
  -9  -6  16-8.46749 18.2298   6
  -6  -9  16-16.4098 20.9945   6
   6 -15  16-1.87934 22.3983   6
   6 -15 -16 8.46618 16.4342   8
  -6  -9 -16-3.96531 23.5107   8
   9 -15  16 9.14079 18.7899   6
   9 -15 -17-13.1117 10.4550   7
  15  -9 -17 6.04907 14.7093   7
  -6  -9 -17 4.77098 18.4701   8
  -9  -6  17-12.9422 14.0060   6
  -6  -9  17 2.09844 15.8852   6
   6 -15  17 3.07439 18.3369   6
   6 -15 -17 1.93032 12.6740   8
   9 -15  17 5.19021 15.9061   6
  -9  -6 -17 12.1418 15.7271   8
  15  -9 -18 3.56289 9.89316   7
  15  -6 -18-7.14920 10.4023   7
   9 -15  18 1.54324 10.4221   6
  -6  -9 -18 0.33447 11.3710   8
   6 -15  18-2.35262 12.4590   6
   5 -15   0 10002.3 378.987   4
  10 -15   0 10236.4 378.989   4
  10 -15   0 10143.0 340.875   3
  10 -15  -1 10841.5 389.491   4
  10 -15   1 10655.1 378.321   4
  10 -15  -1 11007.7 349.653   3
   5 -15   1 11046.1 390.646   3
   5 -15   1 10566.6 381.179   4
  10 -15   1 10704.7 356.290   3
   5 -15  -1 10600.9 396.094   4
  15 -10   2 8013.62 274.436   3
  10 -15  -2 8528.40 353.401   4
  10 -15   2 8176.07 324.139   4
   5 -15  -2 8495.07 360.999   4
  10 -15  -2 7813.55 289.916   3
  10 -15   2 8438.37 329.766   3
   5 -15   2 8220.24 334.066   4
   5 -15   2 8596.77 349.859   3
  15 -10   3 5941.87 250.508   3
  10 -15  -3 6261.80 308.878   4
  10 -15   3 6456.80 291.741   3
   5 -15   3 6074.53 301.451   3
   5 -15  -3 6170.79 325.896   4
  10 -15   3 6401.95 281.542   4
  15 -10   4 8896.85 320.912   3
  10 -15   4 10367.3 382.515   3
  10 -15  -4 10137.0 398.009   4
   5 -15   4 9949.34 387.695   3
   5 -15  -4 9872.34 408.140   4
  15 -10   5 6388.32 290.559   3
  15 -10  -5 6701.55 329.401   4
  10 -15   5 7082.32 321.426   3
   5 -15   5 6691.43 321.533   3
   5 -15  -5 6847.65 349.254   4
  10 -15  -5 6749.15 335.943   4
  10 -15   6 4038.53 255.846   3
   5 -15  -6 3982.17 282.864   4
  10 -15  -6 3837.91 264.474   4
   5 -15   6 4048.70 254.792   3
  15 -10   6 3983.98 240.435   3
  15 -10  -6 4098.24 261.351   4
  15 -10  -7 3343.26 249.366   4
   5 -15  -7 3336.19 259.151   4
  10 -15   7 3442.06 251.118   3
  15 -10   7 3562.49 242.907   3
  10 -15  -7 3792.28 271.032   4
   5 -15   7 3410.81 246.975   3
  15 -10  -8 1941.28 190.612   4
  10 -15   8 1892.91 199.359   3
  10 -15  -8 1987.44 211.154   4
   5 -15   8 1911.48 192.485   3
   5 -15  -8 1949.63 209.836   4
  15 -10   8 2126.11 204.365   3
  -5 -10   8 2372.68 196.278   5
  15 -10   9 1121.85 162.590   3
  10 -15   9 1173.58 161.569   3
   5 -15  -9 1087.56 179.574   4
   5 -15   9 1018.69 154.801   3
  10 -15  -9 1147.90 178.787   4
  -5 -10   9 788.186 124.386   5
   5 -15   9 1430.16 162.912   5
  10 -15  10 1784.07 200.936   3
  15 -10  10 1957.27 211.014   3
 -15   5  10 1375.77 44.5479   6
   5 -15  10 2043.28 52.4083   6
  10 -15  10 1698.27 48.5827   6
   5 -15  10 1129.58 161.458   3
  -5 -10  10 1248.31 164.959   5
   5 -15 -10 1634.37 50.4200   7
  10 -15 -10 1660.76 49.2921   7
   5 -15  10 2138.73 205.712   5
   5 -15  11 759.576 142.778   5
 -15   5  11 571.312 38.1095   6
  10 -15  11 584.221 127.955   5
   5 -15  11 750.270 35.9612   6
  10 -15  11 650.644 35.4375   6
  15 -10  11 661.373 144.566   3
  -5 -10  11 650.475 137.126   5
   5 -15 -11 625.525 35.2169   7
  10 -15  11 793.336 147.103   3
  10 -15 -11 652.030 36.4969   7
   5 -15 -12 59.5205 23.7877   7
  10 -15 -12 51.1185 25.6494   7
 -15   5  12 59.3771 26.4830   6
  -5 -10  12-20.8828 22.0250   6
   5 -15  12 70.4152 24.5263   6
  10 -15  12 55.6617 22.3994   6
   5 -15 -13 36.0117 23.0252   7
  10 -15 -13 38.7142 26.2769   7
 -10  -5  13 27.8102 22.0044   6
  10 -15  13-15.9559 20.9928   6
   5 -15  13-17.2823 25.5269   6
  -5 -10  13-28.7012 28.0161   6
   5 -15 -14 0.97640 20.6134   7
  10 -15 -14 16.9374 24.3899   7
 -10  -5  14-9.83982 21.8689   6
  10 -15  14 15.1832 19.6095   6
  -5 -10  14-33.1124 27.6764   6
   5 -15  14 27.6510 25.8303   6
   5 -15 -15-6.23212 17.9178   7
  10 -15 -15 14.2681 22.0620   7
 -10  -5  15-5.65249 20.9378   6
  -5 -10  15 42.3650 27.4655   6
  10 -15  15-16.9268 18.8637   6
   5 -15  15 5.25471 26.3888   6
 -10  -5 -15 11.7413 22.8654   8
  -5 -10 -15-8.40533 28.3444   8
   5 -15 -15 26.6063 21.5516   8
  10 -15 -16-2.18688 17.8072   7
  15 -10 -16-15.3639 18.8847   7
 -10  -5  16 20.7713 18.9575   6
  -5 -10  16 31.1103 21.9406   6
   5 -15  16 15.4059 23.5493   6
 -10  -5 -16 8.24542 19.3319   8
  10 -15  16 12.1196 17.2177   6
   5 -15 -16 16.6549 17.7667   8
  -5 -10 -16 14.6964 23.5670   8
  10 -15 -17 8.59183 12.3609   7
  15 -10 -17 7.86405 14.3419   7
 -10  -5  17-5.42895 12.7503   6
  -5 -10  17-12.2510 16.2235   6
  10 -15  17-6.68130 14.4422   6
   5 -15 -17-10.8174 13.8441   8
   5 -15  17 14.8997 19.5611   6
 -10  -5 -17-12.3426 12.2106   8
  -5 -10 -17-2.83140 18.0713   8
   5 -15  18 0.57613 12.6077   6
  -5 -10 -18 5.45725 11.7428   8
  11 -15   0 869.123 133.583   4
  11 -15   0 822.037 117.316   3
   4 -15   0 1005.56 137.756   4
  11 -15   1 408.477 98.2802   4
  11 -15   1 476.777 101.807   3
  11 -15  -1 402.234 88.3777   3
  11 -15  -1 460.023 115.202   4
   4 -15   1 432.052 131.126   3
   4 -15  -1 319.926 114.242   4
  15 -11   1 239.789 62.9678   3
   4 -15   1 357.959 99.4320   4
  11 -15  -2 141.199 103.834   4
  11 -15   2 65.0039 60.1695   4
  11 -15   2 147.099 82.3387   3
  15 -11   2 113.183 66.8617   3
  11 -15  -2 3.17898 55.1819   3
   4 -15  -2 177.286 110.654   4
   4 -15   2 130.345 76.1257   4
  11 -15   3 515.692 112.434   3
  15 -11  -3 557.363 131.655   4
  11 -15  -3 416.045 120.636   4
   4 -15   3 739.958 137.833   3
  11 -15   3 340.866 85.9484   4
  15 -11   3 314.935 86.4819   3
   4 -15  -3 516.226 135.398   4
  11 -15   4 596.786 121.838   3
  15 -11   4 577.032 107.326   3
  15 -11  -4 474.592 132.577   4
   4 -15   4 566.921 134.825   3
  11 -15  -4 482.332 133.879   4
   4 -15  -4 494.681 140.251   4
  15 -11   5 871.874 128.824   3
  15 -11  -5 930.251 147.612   4
  11 -15   5 1227.89 164.059   3
  11 -15  -5 922.243 154.670   4
   4 -15   5 990.810 149.365   3
   4 -15  -5 926.717 159.819   4
  11 -15   6 49.1859 80.9351   3
   4 -15   6 106.369 84.8911   3
  11 -15  -6 93.1718 91.7879   4
  15 -11  -6-81.0756 89.7500   4
  15 -11   6 7.16210 68.5444   3
   4 -15  -6-64.3566 99.2158   4
  11 -15  -7 128.622 108.461   4
   4 -15   7 120.074 91.2128   3
  15 -11  -7 106.012 87.3307   4
  15 -11   7 85.8049 92.8566   3
  11 -15   7 121.919 92.6435   3
   4 -15  -7 42.5030 88.1747   4
   4 -15  -8 125.077 91.8291   4
  11 -15   8 135.547 88.8816   3
   4 -15   8 235.305 94.6907   3
  15 -11   8 141.977 100.014   3
  15 -11  -8 137.606 88.8275   4
  11 -15  -8 130.425 98.2794   4
  11 -15   9 89.6722 88.6231   3
   4 -15   9 20.0333 68.1216   3
  15 -11   9 59.0201 82.6076   3
  11 -15  -9 111.221 88.0506   4
  -4 -11  10 72.8801 75.5703   5
   4 -15 -10 48.4463 23.8413   7
  11 -15  10-8.69318 84.2775   3
  11 -15 -10 29.5410 22.3487   7
   4 -15  10 20.8227 23.3543   6
 -15   4  10 21.7005 22.3278   6
  11 -15  10 21.8824 23.7114   6
  15 -11  10 49.7260 88.2092   3
   4 -15  10-63.2851 71.4090   3
   4 -15 -11 56.1387 24.1857   7
  11 -15 -11 61.4092 25.1146   7
  11 -15  11 30.5416 77.7496   3
 -15   4  11 46.6047 24.4801   6
   4 -15  11 53.3283 23.7655   6
  11 -15  11 26.2486 23.7902   6
  -4 -11  11-28.8111 83.8714   5
  15 -11  11 107.204 91.6350   3
   4 -15  12 199.794 26.6026   6
   4 -15 -12 180.477 25.8121   7
  11 -15 -12 206.211 28.7354   7
 -15   4  12 223.680 27.9112   6
  11 -15  12 162.496 23.6816   6
   4 -15 -13 1.99205 21.1797   7
  11 -15 -13 4.72921 25.9680   7
 -11  -4  13 64.7358 22.2681   6
   4 -15  13-15.0351 25.7206   6
  -4 -11  13 26.5830 28.4506   6
  11 -15  13-46.0045 20.2798   6
  11 -15 -14 31.5743 25.0720   7
 -11  -4  14 18.0267 20.6714   6
   4 -15  14-2.89754 26.4257   6
  11 -15  14-24.0665 18.8188   6
   4 -15 -14-14.4889 19.7295   7
  -4 -11  14 5.89782 28.5202   6
 -11  -4 -14-0.06593 23.0161   8
  -4 -11 -14 3.36517 30.4887   8
   4 -15 -15 1.64358 22.3169   8
  11 -15 -15-1.48071 22.1434   7
 -11  -4  15 20.5552 20.4855   6
  -4 -11 -15 13.5887 28.1368   8
  11 -15  15-24.2514 18.3130   6
  -4 -11  15-15.8208 27.5813   6
 -11  -4 -15-3.48300 21.4566   8
   4 -15  15-7.25639 26.4918   6
  11 -15 -16-27.8413 18.4249   7
  15 -11 -16-8.92190 18.5285   7
 -11  -4  16 2.50366 18.0516   6
  -4 -11  16-12.4482 22.5838   6
  11 -15  16 10.0342 15.6370   6
 -11  -4 -16-26.6033 15.8257   8
  -4 -11 -16-3.89506 23.7308   8
   4 -15 -16 0.78091 18.2970   8
   4 -15  16 1.51895 24.0489   6
  11 -15  17 3.71152 13.5906   6
  11 -15 -17 4.48132 12.7690   7
  15 -11 -17 5.48260 13.8651   7
  -4 -11  17 8.92108 16.1829   6
   4 -15 -17 14.3348 13.6942   8
  -4 -11 -17 17.5774 17.7734   8
   4 -15  17 8.55709 19.6999   6
  12 -15   0 7893.66 328.661   4
  12 -15   0 7620.69 290.376   3
   3 -15   0 7538.01 344.967   4
  15 -12  -1 2470.30 197.526   4
  15 -12   1 2291.05 145.472   3
  12 -15  -1 2348.11 192.160   4
  12 -15   1 2231.36 179.716   4
   3 -15   1 2454.82 195.337   4
  12 -15   1 2450.04 169.035   3
   3 -15  -1 2594.14 209.850   4
  12 -15  -1 2335.83 159.292   3
  15 -12   2 2041.79 145.754   3
  15 -12  -2 2159.09 196.176   4
  12 -15  -2 1979.97 180.810   4
  12 -15   2 2041.74 169.020   4
  12 -15   2 2121.93 164.918   3
   3 -15   2 1983.67 182.654   3
   3 -15  -2 2103.72 200.578   4
  15 -12   3 2351.29 164.134   3
  15 -12   3 2411.01 179.748   4
  12 -15   3 2449.21 181.855   3
  12 -15  -3 2416.33 207.986   4
  12 -15   3 2386.56 175.644   4
   3 -15   3 2438.69 199.920   3
  15 -12  -3 2429.87 211.632   4
   3 -15  -3 2341.57 212.995   4
  15 -12   4 3239.93 201.087   3
  15 -12  -4 3331.73 243.910   4
  12 -15   4 3446.71 220.160   3
  12 -15  -4 3168.26 234.750   4
   3 -15   4 3446.03 237.160   3
   3 -15  -4 3621.76 264.689   4
  15 -12   5 3559.19 221.350   3
  15 -12  -5 3795.97 263.689   4
  12 -15   5 3914.87 248.971   3
  12 -15  -5 3776.16 271.148   4
   3 -15   5 3489.43 245.646   3
   3 -15  -5 3807.76 281.591   4
  12 -15   6 951.918 142.640   3
  15 -12  -6 978.309 148.011   4
  15 -12   6 763.591 118.468   3
  12 -15  -6 984.017 155.392   4
   3 -15   6 695.969 126.433   3
   3 -15  -6 829.769 149.616   4
  15 -12   7 1343.14 157.900   3
  12 -15   7 1334.98 169.877   3
  15 -12  -7 1280.62 166.914   4
  12 -15  -7 1302.69 170.949   4
   3 -15   7 1150.21 161.600   3
   3 -15  -7 1288.73 178.829   4
  12 -15   8 476.373 123.362   3
   3 -15   8 480.458 117.709   3
  15 -12  -8 508.715 119.338   4
  15 -12   8 469.838 113.041   3
  12 -15  -8 390.242 110.276   4
  12 -15   9 836.405 148.031   3
  15 -12   9 1028.39 151.174   3
   3 -15   9 645.667 34.7978   6
   3 -15   9 595.281 118.941   3
  12 -15  -9 1025.24 160.784   4
  12 -15   9 847.439 35.4862   6
   3 -15  -9 772.296 34.8089   7
  12 -15  -9 781.118 34.0265   7
  12 -15  10 356.058 28.7599   6
  12 -15  10 513.888 131.487   3
 -15   3  10 389.712 28.1774   6
   3 -15  10 428.452 28.5507   6
  12 -15 -10 453.274 30.1969   7
   3 -15 -10 361.264 29.0304   7
  15 -12  10 461.611 118.526   3
   3 -15 -11 132.340 24.8845   7
  12 -15  11 140.827 96.6280   3
  12 -15 -11 123.445 26.9351   7
 -15   3  11 111.157 20.6632   6
  12 -15  11 102.751 23.5053   6
  -3 -12  11 90.1856 22.0574   6
  15 -12  11 135.943 86.5963   3
   3 -15  11 143.925 24.1377   6
   3 -15 -12 81.9951 23.1893   7
  12 -15 -12 66.7735 26.5656   7
  12 -15  12 29.6605 20.4389   6
  -3 -12  12 60.1207 25.6919   6
 -15   3  12 50.0352 24.1856   6
   3 -15  12 56.5412 24.5367   6
  12 -15 -13-1.01727 25.8643   7
  -3 -12  13-1.64334 26.8784   6
  12 -15  13-27.7110 18.5515   6
  -3 -12 -13 9.87936 31.3925   8
   3 -15  13-10.0733 25.6387   6
  12 -15 -14 11.9269 24.7161   7
 -12  -3  14 16.9822 20.6966   6
  -3 -12  14-52.3210 29.9581   6
  12 -15  14-9.72326 17.1257   6
  -3 -12 -14 19.7280 31.2775   8
   3 -15 -14 15.0075 25.6147   8
   3 -15  14 0.21428 26.3947   6
  12 -15 -15 18.5608 22.3107   7
  -3 -12  15-37.2798 27.7271   6
  15 -12 -15-8.06926 21.8531   7
 -12  -3  15 17.8047 19.2809   6
  12 -15  15-6.85368 16.1115   6
   3 -15  15 24.2054 26.7186   6
  -3 -12 -15 0.03104 28.3015   8
   3 -15 -15 9.19318 22.7762   8
  12 -15 -16 21.1202 17.6890   7
  15 -12 -16-10.0041 17.6021   7
 -12  -3  16 29.0384 18.5361   6
  -3 -12  16 0.23284 22.2369   6
  -3 -12 -16 4.02139 22.8091   8
   3 -15  16-10.6389 24.7281   6
   3 -15 -16 3.31849 18.5567   8
  12 -15  16-8.27136 15.1784   6
  12 -15 -17 0.00708 12.2912   7
  15 -12 -17-10.9111 13.4851   7
  -3 -12  17 7.69798 15.8476   6
  12 -15  17-10.3768 12.1042   6
  -3 -12 -17-2.43581 17.1084   8
   3 -15 -17 5.81566 13.7120   8
   3 -15  17 2.49718 18.8333   6
  13 -15   0 129.672 63.5143   3
  15 -13   0 204.448 91.2855   4
  13 -15   0 269.500 92.0463   4
  15 -13   1 1557.43 158.440   4
  15 -13  -1 1459.45 164.747   4
  15 -13   1 1439.93 121.335   3
  13 -15  -1 1402.59 153.917   4
  13 -15   1 1397.62 150.952   4
  13 -15   1 1383.53 134.452   3
   2 -15  -1 1525.98 171.694   4
  15 -13   2 537.541 91.1879   3
   2 -15  -2 535.908 127.142   4
  13 -15   2 654.496 104.796   3
  15 -13   2 562.093 104.572   4
  15 -13  -2 604.049 126.979   4
  13 -15  -2 595.575 126.369   4
  13 -15   2 557.220 105.803   4
   2 -15  -3 939.268 158.083   4
  13 -15   3 576.308 110.225   3
  15 -13   3 856.270 112.567   3
  15 -13   3 728.854 112.431   4
  13 -15   3 730.290 112.181   4
  13 -15  -3 646.911 129.358   4
  15 -13  -3 790.738 142.022   4
  15 -13   4 1201.96 137.995   3
  15 -13  -4 1287.48 173.736   4
  13 -15   4 1145.43 140.968   3
  13 -15  -4 1250.68 168.460   4
   2 -15  -4 1301.37 177.098   4
   2 -15   4 1191.77 152.513   3
  15 -13   5 1143.14 145.375   3
  15 -13  -5 1264.37 170.110   4
  13 -15  -5 1100.98 161.075   4
   2 -15   5 1175.67 159.814   3
  13 -15   5 1258.50 155.745   3
   2 -15  -5 1215.21 176.522   4
  13 -15  -6 351.673 116.058   4
  13 -15   6 312.447 103.029   3
  15 -13  -6 228.324 105.508   4
   2 -15   6 409.333 109.044   3
  15 -13   6 231.873 91.8294   3
  13 -15   7 692.281 137.161   3
  13 -15  -7 777.504 151.870   4
  15 -13  -7 670.191 133.433   4
   2 -15   7 740.304 142.214   3
  15 -13   7 622.144 128.027   3
  13 -15   8 39.1691 83.9311   3
  15 -13  -8 16.2212 73.4548   4
  15 -13   8 65.1467 79.6753   3
   2 -15   8 34.3858 66.7621   3
  13 -15  -8 33.4327 75.3975   4
  13 -15   9-29.5190 91.6574   3
   2 -15  -9 52.8947 20.4639   7
  13 -15  -9 40.0168 20.8218   7
  15 -13   9 41.2578 18.2587   6
   2 -15   9 30.9935 18.5371   6
  13 -15   9 37.3846 21.3392   6
  13 -15  -9 79.5535 81.1965   4
  -2 -13  -9 36.5897 26.3671   8
   2 -15  -9 84.8479 25.3878   8
  15 -13   9 33.3046 82.9185   3
  15 -13  -9 155.946 102.796   4
   2 -15  10 365.220 26.0666   6
   2 -15 -10 376.219 32.9519   8
  13 -15  10 275.166 26.7088   6
   2 -15 -10 293.178 27.6263   7
  13 -15  10 334.275 119.379   3
  15 -13  10 282.186 23.5317   6
  -2 -13 -10 360.578 34.0387   8
  13 -15 -10 327.048 28.3797   7
  15 -13  10 296.148 109.545   3
  13 -15  11 394.282 119.107   3
   2 -15  11 344.992 27.1837   6
  15 -13  11 253.274 21.0442   6
  -2 -13 -11 388.699 37.4194   8
  13 -15  11 287.857 26.0305   6
   2 -15 -11 352.873 28.4411   7
  13 -15 -11 339.172 29.6496   7
  15 -13  11 273.293 108.037   3
  13 -15 -12 74.5793 26.8142   7
 -15   2  12 19.3211 20.3576   6
  15 -13  12 28.4969 15.3822   6
  -2 -13  12-5.78452 23.5733   6
   2 -15  12 28.0623 23.7962   6
   2 -15 -12 34.0341 18.2269   7
  13 -15  12 25.7824 19.0072   6
  -2 -13 -12 61.7639 32.3386   8
   2 -15 -12 68.5625 29.1725   8
  13 -15 -13 98.5743 27.1535   7
 -15   2  13 115.608 24.4606   6
  13 -15  13 44.8418 17.0993   6
   2 -15  13 18.2443 26.5744   6
  -2 -13  13-24.9608 26.6813   6
  -2 -13 -13 91.7116 33.3756   8
   2 -15 -13 107.336 30.5308   8
  13 -15 -14-0.55191 24.4554   7
  15 -13 -14 4.75707 24.5913   7
 -13  -2  14 11.4396 20.0870   6
  -2 -13  14-15.7606 27.9619   6
  13 -15  14-21.9467 16.2388   6
   2 -15  14-9.20289 26.2171   6
   2 -15 -14 1.56497 26.4752   8
  -2 -13 -14 7.51720 30.4084   8
  13 -15 -15-4.48313 21.5776   7
  15 -13 -15-0.51626 21.1241   7
 -13  -2  15-12.9081 19.0876   6
   2 -15  15 3.88207 26.2547   6
  -2 -13  15-43.8006 27.9069   6
  -2 -13 -15 13.9768 27.1090   8
   2 -15 -15 8.30675 23.1878   8
  13 -15  15-1.98621 14.8861   6
  13 -15 -16 14.5549 17.0747   7
  15 -13 -16-4.86869 17.1381   7
  -2 -13  16-14.2499 22.1022   6
   2 -15  16 24.6057 24.5388   6
  -2 -13 -16 4.54736 21.7735   8
  13 -15  16-3.67185 13.5180   6
   2 -15 -16 9.48148 19.1011   8
  13 -15 -17-5.59872 11.8516   7
   2 -15 -17 1.65514 13.4478   8
  15 -13 -17 3.36602 12.4923   7
  -2 -13  17 2.95258 14.3890   6
  13 -15  17 9.82346 11.2038   6
  -2 -13 -17 5.40848 15.6830   8
   2 -15  17 5.16105 17.1247   6
  15 -14   0 1762.37 177.093   4
  14 -15   0 1752.45 174.185   4
  14 -15   0 1826.91 145.930   3
  14 -15   1 614.630 96.7890   3
  15 -14   1 636.489 92.1516   3
  14 -15   1 644.498 114.728   4
  15 -14  -1 745.053 130.180   4
  15 -14   1 620.302 110.948   4
  14 -15  -1 641.010 122.456   4
  15 -14   2 1374.04 152.568   4
  15 -14  -2 1528.52 177.790   4
  15 -14   2 1233.97 131.884   3
  14 -15   2 992.359 133.265   4
  14 -15  -2 1407.76 166.802   4
  14 -15   2 1210.77 132.321   3
  15 -14   3 1508.36 148.310   3
  15 -14   3 1532.93 152.558   4
  15 -14  -3 1534.37 180.427   4
  14 -15   3 1295.14 146.966   3
  14 -15  -3 1458.71 175.474   4
  14 -15   3 1274.79 141.307   4
  15 -14   4 2086.45 172.578   3
  14 -15   4 2263.28 188.620   3
  15 -14  -4 2347.43 216.129   4
  14 -15  -4 2258.18 211.111   4
  15 -14   5 1192.98 144.444   3
  14 -15   5 1132.25 150.994   3
  15 -14  -5 1241.01 172.269   4
  14 -15  -5 1169.52 170.235   4
  15 -14  -6 677.418 136.403   4
  14 -15   6 717.163 129.726   3
   1 -15   6 629.739 127.381   3
  15 -14   6 822.234 134.646   3
  14 -15  -6 603.855 137.708   4
  15 -14  -7 495.888 129.276   4
  14 -15  -7 561.577 139.169   4
   1 -15   7 326.121 99.5024   3
  14 -15   7 436.715 121.324   3
  15 -14   7 413.966 120.183   3
  14 -15   8 154.353 95.3294   3
  15 -14   8 216.865 92.6027   3
  14 -15  -8 33.8458 86.0894   4
   1 -15   8 14.1834 62.0112   3
  15 -14  -8 176.773 97.5482   4
  14 -15   9 288.374 108.864   3
   1 -15   9 267.665 22.8735   6
  15 -14   9 241.185 24.0241   6
  14 -15   9 165.394 25.2071   6
  14 -15  -9 259.087 26.4947   7
  -1 -14  -9 308.891 33.1239   8
   1 -15  -9 350.789 31.6245   8
  15 -14  -9 273.304 106.355   4
   1 -15  -9 277.894 25.2318   7
  15 -14   9 356.730 124.246   3
  14 -15  -9 384.518 117.686   4
   1 -15  10 257.111 23.9321   6
  14 -15  10 247.856 100.453   3
  -1 -14 -10 312.186 33.9179   8
  15 -14  10 185.432 23.4392   6
  14 -15  10 207.053 25.3659   6
   1 -15 -10 97.4461 19.7682   7
  14 -15 -10 324.799 29.1826   7
   1 -15 -10 283.464 34.0565   8
  15 -14  10 395.461 121.342   3
  15 -14  11 171.809 102.065   3
   1 -15 -11 32.4387 17.6719   7
  14 -15 -11 99.3187 26.7633   7
   1 -15  11 9.33060 21.4517   6
  15 -14  11 40.8886 19.0652   6
  14 -15  11 21.4846 20.6274   6
  -1 -14 -11 69.2279 32.2916   8
   1 -15 -11 46.6729 30.1440   8
  14 -15  11-36.8893 90.9027   3
  14 -15  12 5.10539 19.3554   6
  14 -15 -12 83.0530 28.7890   7
   1 -15 -12 52.7041 30.5519   8
   1 -15  12-13.1561 24.7440   6
  -1 -14  12 17.8976 25.0424   6
  -1 -14 -12 87.4070 33.7476   8
  15 -14  12 21.4741 16.7471   6
   1 -15  13-24.9281 26.5726   6
  14 -15 -13 63.5212 27.4267   7
  15 -14 -13 47.9836 26.6292   7
  -1 -14  13 33.6538 27.9406   6
  14 -15  13-11.6024 16.7081   6
  15 -14  13 4.40578 14.6486   6
  -1 -14 -13 20.0681 31.7238   8
   1 -15 -13 21.2739 28.7855   8
  -1 -14 -14 18.0681 29.6860   8
  14 -15 -14 47.1278 25.4853   7
 -14  -1  14-13.6464 20.8099   6
  15 -14  14-23.1218 14.5332   6
  -1 -14  14 52.6649 29.0305   6
  15 -14 -14-11.5644 25.1100   7
   1 -15  14 5.31668 26.8901   6
   1 -15 -14 8.81311 27.1462   8
  14 -15  14-2.52879 15.0466   6
  14 -15 -15-21.5905 21.3688   7
  15 -14 -15 8.33309 20.5656   7
   1 -15 -15-17.6029 23.7187   8
  -1 -14 -15-1.44067 25.4654   8
   1 -15  15-25.0756 26.9277   6
  -1 -14  15 16.4632 27.2246   6
  14 -15  15 8.54557 14.1584   6
  -1 -14 -16 8.06231 20.2959   8
  -1 -14  16 22.1215 22.5415   6
  14 -15 -16 1.31773 17.0424   7
  15 -14 -16 11.5687 16.5999   7
  14 -15  16 16.3527 12.5296   6
   1 -15  16 33.3098 24.1605   6
   1 -15 -16 6.38514 18.8611   8
  14 -15 -17-11.9465 11.6754   7
  15 -14 -17-8.53846 12.2475   7
  -1 -14  17-35.7956 12.4879   6
   1 -15  17-3.93430 15.6232   6
  -1 -14 -17 13.3516 13.7015   8
   1 -15 -17 5.14136 13.3349   8
  15 -15   0 4430.80 269.731   4
  15 -15   1 141.780 59.8946   3
  15 -15  -1 264.849 99.5330   4
  15 -15   1 255.642 81.4343   4
  15 -15   2 268.240 83.4131   3
  15 -15   2 186.946 88.3338   4
  15 -15  -2 360.241 110.056   4
  15 -15   3 100.024 72.8315   3
  15 -15   3 123.085 72.6680   4
  15 -15  -3 120.186 94.9907   4
  15 -15  -4 113.126 95.3727   4
  15 -15   4 116.517 79.9961   3
  15 -15   5 289.792 95.5980   3
  15 -15  -5 319.175 117.233   4
  15 -15   6 243.051 97.1174   3
  15 -15  -6 35.7939 93.9111   4
  15 -15   7 111.603 90.5580   3
  15 -15  -7 27.8567 94.9063   4
  15 -15   8 278.384 109.124   3
   0 -15  -8 173.122 22.4081   7
  15 -15   8 203.266 22.9306   6
  15 -15  -8 240.190 97.4749   4
   0 -15  -8 268.333 28.4260   8
  15 -15   9 594.127 133.169   3
  15 -15   9 347.197 26.5557   6
   0 -15  -9 487.349 35.6236   8
  15 -15  -9 604.657 136.236   4
   0 -15  -9 432.515 28.8423   7
   0 -15  10 456.085 26.1849   6
  15 -15  10 399.977 28.4885   6
   0 -15 -10 632.995 41.8193   8
  15 -15  10 489.455 129.025   3
  15 -15 -10 602.782 34.4377   7
   0 -15 -10 540.618 30.5168   7
  15 -15 -11-20.3611 24.1872   7
   0 -15  11 43.8374 21.4230   6
   0 -15 -11 12.6642 29.9063   8
  15 -15  11 0.93031 19.3688   6
  15 -15 -12 104.144 27.0936   7
  15 -15  12 41.5334 17.4735   6
   0 -15  12 37.3193 24.6778   6
   0 -15 -12 117.619 32.4533   8
  15 -15 -13 40.5675 26.0117   7
  15 -15  13 3.89890 14.5160   6
   0 -15 -13 44.0567 29.2682   8
   0 -15  13 2.27501 24.6487   6
  15 -15 -14 42.2227 25.6876   7
  15 -15  14-4.34237 14.0145   6
   0 -15  14-31.7113 26.6232   6
   0 -15 -14 69.8656 29.0118   8
  15 -15 -15 15.4770 20.7035   7
   0 -15 -15-23.1005 23.7665   8
   0 -15  15 32.8935 24.8761   6
  15 -15  15-10.0291 13.0867   6
  15 -15 -16 11.2859 16.0417   7
   0 -15  16 17.5683 20.8975   6
   0 -15 -16-4.61377 18.0895   8
  15 -15 -17 2.79095 11.0576   7
   0 -15  17 3.88054 12.5306   6
   0 -15 -17 2.76766 12.1874   8
   8 -16   0 51124.4 931.857   4
   8 -16   0 53123.8 909.109   3
   8 -16   1 40483.2 790.848   3
   8 -16   1 39601.8 793.742   4
   8 -16   2 49039.3 883.882   3
   8 -16   2 48145.6 886.372   4
   8 -16  -2 46798.8 908.627   4
   8 -16   3 46934.5 871.873   3
   8 -16  -3 44688.3 901.743   4
   8 -16   4 25466.6 633.638   3
   8 -16  -4 25367.2 684.080   4
   8 -16   5 11654.1 431.717   3
   8 -16  -5 11756.2 464.055   4
   8 -16   6 20716.4 589.233   3
   8 -16  -6 20582.8 627.747   4
  16  -8  -7 8048.47 373.889   4
   8 -16  -7 8416.67 413.311   4
   8 -16   7 8078.10 381.975   3
  16  -8  -8 10438.5 429.325   4
   8 -16   8 10709.3 453.581   3
   8 -16  -8 11294.3 486.814   4
   8 -16   9 4120.04 289.326   3
   8 -16  -9 4075.44 298.461   4
   8 -16  -9 3668.92 73.5136   7
   8 -16   9 4194.11 76.9604   6
  -8  -8  -9 4001.95 85.5001   8
   8 -16  10 4272.53 79.8816   6
   8 -16  10 4356.87 309.572   3
   8 -16 -10 3818.17 76.0464   7
   8 -16  10 3976.50 279.882   5
  16  -8  11 4808.94 323.633   3
   8 -16  11 4248.39 76.9344   6
   8 -16  11 4181.42 308.114   3
   8 -16 -11 4007.80 80.4015   7
   8 -16  11 4681.27 308.860   5
   8 -16  12 1364.11 43.1084   6
   8 -16 -12 1429.46 49.3613   7
   8 -16 -13 225.704 28.9376   7
   8 -16  13 158.090 25.3679   6
  -8  -8 -13 254.346 32.8795   8
   8 -16 -14 183.221 26.8376   7
  -8  -8  14 61.7090 24.3501   6
   8 -16  14 53.3997 25.1041   6
  -8  -8 -14 164.859 30.3004   8
   8 -16 -15 44.6253 20.4545   7
  -8  -8  15 0.73685 20.9196   6
   8 -16  15 3.31809 22.5780   6
  -8  -8 -15 41.0727 24.9686   8
   8 -16 -16 7.33247 15.2387   7
  -8  -8  16-0.71508 15.1627   6
   8 -16  16-21.9527 19.1376   6
  -8  -8 -16-5.86983 19.7010   8
   8 -16 -17 9.21297 10.0734   7
  16  -8 -17 16.0152 13.5852   7
  -8  -8  17 1.65679 13.2500   6
   8 -16  17 0.57089 15.4561   6
  -8  -8 -17 18.2571 15.2252   8
   9 -16   0 8613.71 339.502   3
   7 -16   0 8847.61 353.355   3
   9 -16   0 8997.63 366.110   4
   7 -16   0 8879.05 369.240   4
   9 -16   1 7863.18 342.830   4
   9 -16  -1 7930.42 348.769   4
   7 -16  -1 7735.36 347.569   4
   9 -16  -1 7286.08 316.231   3
   7 -16   1 7560.10 336.263   3
   9 -16   1 8195.70 342.916   3
   7 -16   1 7456.67 335.943   4
  16  -9   2 6155.08 246.592   3
   9 -16   2 7219.03 331.979   3
   9 -16  -2 7115.97 340.345   4
   7 -16  -2 6774.24 347.032   4
   7 -16   2 7343.24 343.023   3
   7 -16   2 6495.24 315.125   4
   9 -16   2 6754.62 312.350   4
  16  -9   3 9406.41 322.179   3
   9 -16  -3 10020.6 422.353   4
   9 -16   3 10296.6 386.482   3
   7 -16  -3 10090.5 420.225   4
   7 -16   3 10776.2 414.040   3
   9 -16  -4 5173.63 305.086   4
   9 -16   4 5149.13 283.895   3
  16  -9   4 4456.34 238.727   3
   7 -16  -4 5068.53 313.497   4
   7 -16   4 4892.73 288.138   3
   9 -16   5 672.102 140.798   3
   9 -16  -5 629.805 146.243   4
   7 -16   5 687.275 132.190   3
   7 -16  -5 739.443 149.642   4
  16  -9  -6 3566.38 257.499   4
   9 -16   6 4237.59 272.639   3
   9 -16  -6 3898.02 281.903   4
   7 -16  -6 4018.17 287.687   4
   7 -16   6 3975.60 263.911   3
  16  -9   7 1159.52 158.910   3
  16  -9  -7 949.101 149.306   4
   9 -16   7 1004.51 159.842   3
   7 -16   7 986.285 158.074   3
   9 -16  -7 974.212 162.163   4
   7 -16  -7 1047.48 168.096   4
  16  -9  -8 980.186 153.547   4
  16  -9   8 1100.73 170.973   3
   9 -16   8 875.781 151.199   3
   9 -16  -8 1274.19 188.604   4
   7 -16   8 1026.95 158.919   3
   7 -16  -8 993.652 182.101   4
   7 -16   9 522.265 35.6369   6
   9 -16   9 472.633 34.8710   6
   9 -16   9 450.511 126.536   3
   7 -16   9 474.515 126.467   3
  16  -9   9 491.229 130.885   3
  -9  -7  -9 522.536 36.2980   8
  -7  -9  -9 533.763 37.4002   8
   9 -16  -9 355.948 128.058   4
   7 -16  -9 495.934 32.4709   7
   9 -16  -9 462.978 31.6754   7
   7 -16  -9 497.634 142.920   4
   9 -16  10 605.775 118.829   5
   9 -16  10 889.808 40.8481   6
   9 -16  10 794.624 154.829   3
   7 -16  10 833.382 153.666   3
  16  -9  10 799.454 151.908   3
   7 -16  10 875.006 42.1233   6
   7 -16  10 830.841 142.941   5
   7 -16 -10 904.345 42.1982   7
   9 -16 -10 814.548 40.2011   7
   7 -16 -11 400.146 34.4124   7
   9 -16  11 354.727 113.884   5
   9 -16  11 294.152 114.618   3
   7 -16  11 173.563 101.539   3
  16  -9  11 182.979 112.582   3
   9 -16  11 288.338 31.2093   6
  16  -7  11 280.966 119.109   3
   7 -16  11 317.329 31.1631   6
   9 -16 -11 261.862 33.1203   7
   7 -16  11 50.9919 86.9960   5
   7 -16 -12 94.3466 27.2615   7
   9 -16 -12 13.5901 26.4953   7
   7 -16  12 57.1528 24.1122   6
   9 -16  12 53.1361 24.1769   6
  -9  -7 -12 75.3923 28.6832   8
  -7  -9 -12 87.9999 30.8545   8
   7 -16 -13 75.1240 25.7163   7
  -7  -9 -13 27.6150 27.9066   8
   9 -16  13 0.42422 21.6293   6
   7 -16  13 23.2470 23.1889   6
   9 -16 -13 35.8541 25.3812   7
  -9  -7 -13 54.5311 27.1342   8
   7 -16 -14 19.3601 21.9391   7
   9 -16 -14 34.6342 23.8664   7
  -9  -7  14 15.3692 21.1570   6
  -7  -9  14 4.17669 24.0558   6
   7 -16  14 23.0312 24.3340   6
   9 -16  14-38.3695 22.8034   6
   7 -16 -14 31.0602 20.4009   8
  -7  -9 -14 13.1948 27.2424   8
  -9  -7 -14 24.7615 25.2894   8
   7 -16 -15 25.1469 18.8249   7
   9 -16 -15 1.18182 20.0660   7
  -9  -7  15-1.10758 18.3749   6
  -7  -9  15 9.75988 20.9677   6
   9 -16  15-25.2851 20.9145   6
   7 -16  15-3.07334 23.0999   6
  -7  -9 -15 22.8982 25.1659   8
  -9  -7 -15 26.8362 23.2484   8
   7 -16 -15-13.3817 17.7297   8
   7 -16 -16 28.5510 14.2426   7
   9 -16 -16 8.31839 15.4142   7
  -9  -7  16-19.6775 13.6676   6
  -7  -9  16 28.1277 16.4370   6
   7 -16  16 15.1371 19.6680   6
   9 -16  16-9.10976 18.1112   6
  -9  -7 -16-11.0564 18.4780   8
  -7  -9 -16-12.2522 20.3651   8
  16  -9 -17 4.62336 13.5825   7
  -9  -7  17 0.63115 12.9454   6
  -7  -9  17 13.1751 13.1386   6
   9 -16  17 12.2919 14.9093   6
  -9  -7 -17-21.7961 13.2178   8
  -7  -9 -17 16.4711 15.2318   8
   9 -16 -17 4.19160 9.64949   7
   7 -16  17-3.12006 15.8060   6
   6 -16   0 10631.4 407.521   4
  10 -16   0 11105.4 375.687   3
  10 -16   0 10477.5 392.627   4
   6 -16   1 10491.8 404.595   4
  10 -16   1 11278.8 393.931   3
  10 -16  -1 10479.0 361.440   3
   6 -16   1 11231.1 411.140   3
  10 -16  -1 11217.8 406.353   4
  10 -16   1 10522.6 385.989   4
   6 -16  -1 10392.7 408.328   4
  16 -10   2 7096.55 267.892   3
   6 -16  -2 7857.94 367.213   4
   6 -16   2 7024.39 325.639   4
  10 -16   2 7989.08 344.550   3
  10 -16  -2 8182.68 367.561   4
  10 -16   2 8131.57 344.312   4
   6 -16   2 8409.59 371.939   3
  16 -10   3 11717.1 362.647   3
   6 -16  -3 12621.8 470.921   4
  10 -16   3 13981.0 446.530   3
  10 -16  -3 12967.5 459.978   4
   6 -16   3 13180.0 462.763   3
  16 -10   4 6613.28 290.978   3
  10 -16  -4 7401.54 358.610   4
   6 -16   4 6951.57 338.436   3
  10 -16   4 7728.38 338.418   3
   6 -16  -4 7021.24 366.470   4
   6 -16  -5 1961.43 209.554   4
  16 -10   5 1819.38 165.474   3
  16 -10  -5 1851.13 192.112   4
  10 -16   5 2254.68 204.219   3
  10 -16  -5 2244.36 228.585   4
   6 -16   5 2094.74 199.598   3
  16 -10  -6 3969.68 273.343   4
  10 -16   6 4848.93 290.213   3
  10 -16  -6 4262.91 292.776   4
   6 -16   6 4217.78 275.667   3
   6 -16  -6 4381.35 305.672   4
  16 -10   6 4481.50 267.961   3
  16 -10   7 3820.53 258.181   3
  16 -10  -7 3394.45 251.195   4
  10 -16   7 4282.57 285.078   3
  10 -16  -7 3587.56 286.047   4
   6 -16   7 3549.11 259.352   3
   6 -16  -7 3877.92 289.386   4
  16 -10   8 1502.98 177.424   3
  16 -10  -8 1679.06 187.090   4
  10 -16   8 1559.01 194.084   3
   6 -16   8 1492.89 187.005   3
  10 -16  -8 2056.74 223.849   4
   6 -16  -8 1878.77 220.870   4
  16 -10   9 1054.11 167.573   3
   6 -16   9 1053.07 44.4744   6
  10 -16   9 1061.08 167.063   3
 -10  -6  -9 1153.67 47.7091   8
  10 -16  -9 1037.95 40.2966   7
  10 -16  -9 1090.01 171.665   4
  10 -16   9 1033.06 42.8143   6
  -6 -10  -9 1226.53 49.9291   8
   6 -16  -9 950.652 40.4493   7
   6 -16  -9 872.680 158.614   4
   6 -16   9 1129.72 168.618   3
   6 -16  10 2064.70 54.0058   6
  10 -16  10 1823.21 52.6539   6
  10 -16  10 1842.19 206.515   3
 -10  -6 -10 1275.05 51.4233   8
   6 -16  10 1417.88 187.833   3
  -6 -10 -10 1947.42 61.5621   8
  16 -10  10 1758.55 203.969   3
  10 -16 -10 1757.57 52.0200   7
   6 -16 -10 1609.98 51.5259   7
  10 -16  11 950.267 152.991   5
   6 -16  11 926.831 40.6099   6
  10 -16  11 925.146 40.4357   6
  10 -16  11 896.181 161.454   3
 -10  -6 -11 1103.34 48.6534   8
  -6 -10 -11 1141.97 51.2308   8
  16 -10  11 843.393 156.016   3
   6 -16 -11 960.854 41.9233   7
  10 -16 -11 894.606 42.3089   7
   6 -16 -12 161.516 28.0322   7
  10 -16 -12 209.322 30.7833   7
   6 -16  12 197.338 26.3288   6
 -10  -6 -12 195.541 31.1105   8
  -6 -10 -12 255.387 34.0096   8
  10 -16  12 177.330 25.9232   6
   6 -16 -13 97.4907 24.9272   7
  10 -16 -13 107.609 27.9392   7
  10 -16  13 60.3966 21.9091   6
 -10  -6 -13 94.9552 27.2217   8
  -6 -10 -13 153.632 32.9345   8
   6 -16 -13 104.743 24.9003   8
   6 -16  13 89.3348 25.1360   6
   6 -16 -14 51.9474 21.6523   7
  -6 -10 -14 80.2502 30.0003   8
  10 -16 -14 76.8949 25.2095   7
  10 -16  14 2.78388 20.0340   6
  -6 -10  14-41.6966 26.3658   6
 -10  -6 -14 80.3098 25.3978   8
   6 -16 -14 61.6930 22.3939   8
   6 -16  14 14.4889 24.7852   6
   6 -16 -15 12.0683 17.5882   7
 -10  -6  15-4.11516 18.3809   6
  -6 -10  15-3.91616 22.2244   6
   6 -16  15 24.6539 24.6272   6
  10 -16 -15 30.1978 21.2156   7
   6 -16 -15 33.1268 19.0278   8
 -10  -6 -15 15.5142 21.7200   8
  -6 -10 -15 15.8250 26.2897   8
  10 -16  15-3.66376 18.7029   6
 -10  -6 -16 34.3141 18.5896   8
   6 -16 -16 50.1600 13.9651   7
  10 -16 -16-8.79845 15.7723   7
  16 -10 -16-5.40695 17.1537   7
 -10  -6  16 12.5107 13.8599   6
  -6 -10  16 32.7306 18.5013   6
   6 -16  16 33.5816 21.1071   6
  10 -16  16 9.82916 16.5931   6
   6 -16 -16 19.3116 15.3156   8
  -6 -10 -16-18.0011 21.0917   8
  10 -16 -17 0.00644 9.06946   7
  16 -10 -17 7.85533 13.1782   7
  -6 -10  17-4.34130 13.1677   6
  10 -16  17-8.31034 13.8962   6
   6 -16 -17 12.6512 10.1732   8
 -10  -6 -17-0.78313 12.4870   8
   6 -16  17 1.19719 16.4743   6
  -6 -10 -17-8.98694 16.1722   8
   5 -16   0 432.642 111.011   4
  11 -16   0 426.753 103.244   4
  11 -16   0 307.575 88.0332   3
  11 -16  -1 1318.77 161.191   4
  11 -16   1 1469.83 152.305   4
  11 -16  -1 1528.17 146.005   3
  11 -16   1 1604.49 151.861   3
   5 -16   1 1579.12 173.829   3
   5 -16   1 1520.77 167.249   4
   5 -16  -1 1606.52 175.221   4
  16 -11   2 490.172 84.1330   3
  11 -16   2 508.064 104.768   4
  11 -16  -2 525.489 125.462   4
  11 -16   2 693.956 117.884   3
   5 -16   2 693.616 139.290   3
   5 -16   2 592.898 109.384   4
   5 -16  -2 569.575 127.080   4
  11 -16   3 98.7648 86.3431   3
  11 -16  -3 57.9387 90.6385   4
   5 -16   3 209.136 100.363   3
  16 -11   3 39.1289 58.4885   3
   5 -16  -3 84.2215 100.542   4
  11 -16   4 216.653 94.1145   3
  16 -11   4 206.927 70.6719   3
  11 -16  -4 105.732 91.7737   4
  16 -11  -4 81.0958 90.5864   4
   5 -16  -4 171.694 109.181   4
   5 -16   4 76.9348 85.6023   3
   5 -16   5 624.221 125.011   3
  11 -16   5 666.433 125.332   3
  11 -16  -5 556.721 124.437   4
  16 -11   5 626.537 104.141   3
   5 -16  -5 631.195 133.904   4
  16 -11  -5 414.372 107.731   4
  11 -16   6 30.9940 94.2542   3
  16 -11  -6 61.3693 86.5775   4
   5 -16   6 72.6931 86.7479   3
  16 -11   6 13.6558 77.5037   3
   5 -16  -6 59.2050 101.932   4
  11 -16  -6-66.9088 104.020   4
  11 -16   7 243.524 105.050   3
  16 -11   7 101.925 93.0015   3
   5 -16   7 168.856 101.663   3
  16 -11  -7 88.2332 83.9103   4
  11 -16  -7 223.335 109.861   4
   5 -16  -7 115.598 103.772   4
  11 -16   8 80.8463 89.7154   3
  11 -16  -8 37.6054 84.8981   4
  16 -11  -8-11.4970 92.7395   4
   5 -16   8 9.70214 70.4121   3
  16 -11   8 32.7544 83.4876   3
   5 -16  -8 117.907 96.4475   4
   5 -16  -9 95.0261 25.3440   7
  11 -16  -9 73.3371 23.9346   7
  11 -16   9 97.7235 91.5909   3
  11 -16   9 76.4702 24.7061   6
   5 -16   9 24.4107 86.7216   3
  11 -16  -9 64.5355 89.1288   4
  16 -11   9 54.4549 94.8211   3
   5 -16   9 52.5671 25.8497   6
  -5 -11  -9 121.624 27.8140   8
   5 -16  -9 116.084 25.3977   8
   5 -16 -10 144.938 26.5170   7
  11 -16 -10 158.753 28.1157   7
  11 -16  10 137.579 95.7674   3
   5 -16  10 82.9308 81.8121   3
   5 -16  10 142.088 26.6255   6
  16 -11  10 163.379 104.170   3
  -5 -11 -10 215.000 32.7913   8
 -11  -5 -10 147.747 28.1657   8
  11 -16  10 142.600 26.8906   6
   5 -16 -11 30.5425 24.9042   7
  11 -16 -11 52.3411 26.7901   7
  11 -16  11-54.5320 85.0597   5
  11 -16  11-93.8956 88.7731   3
   5 -16  11-8.51465 25.0822   6
  11 -16  11-19.4881 24.9655   6
 -11  -5 -11 11.1440 21.9725   8
  -5 -11 -11 19.5826 31.2783   8
  16 -11  11 49.3125 91.6022   3
   5 -16 -12 0.76588 23.8503   7
  11 -16 -12 23.3875 26.9133   7
 -11  -5 -12 28.2011 23.6504   8
  11 -16  12-29.1115 23.3966   6
   5 -16  12 20.3168 23.5961   6
  -5 -11 -12 36.3524 31.6642   8
   5 -16 -12 37.3931 25.7128   8
   5 -16 -13-14.1399 22.8310   7
  11 -16 -13 13.8827 26.2299   7
  -5 -11 -13 20.3192 30.0074   8
  -5 -11  13 15.1902 27.1657   6
   5 -16  13-15.1153 24.9000   6
  11 -16  13-15.0792 20.4722   6
 -11  -5 -13-38.4061 26.1477   8
   5 -16 -13-3.94351 24.5266   8
   5 -16 -14 5.60158 22.0520   8
   5 -16 -14-4.90692 19.8420   7
  11 -16 -14 18.7782 24.7232   7
  11 -16  14-26.9513 19.4618   6
  -5 -11  14 19.1903 26.0935   6
   5 -16  14-9.73441 24.9255   6
 -11  -5 -14 43.9342 24.2396   8
  -5 -11 -14 17.1258 28.8941   8
   5 -16 -15 25.1602 17.1618   7
  11 -16 -15 15.0658 21.0522   7
 -11  -5  15 36.6178 18.9991   6
  -5 -11  15 3.16808 23.9902   6
  -5 -11 -15 9.16720 26.3548   8
   5 -16 -15 5.20623 19.8383   8
  11 -16  15-14.9601 18.6105   6
   5 -16  15-29.3655 24.6451   6
 -11  -5 -15 4.45444 20.4367   8
   5 -16  16-3.41783 21.2529   6
  11 -16 -16 16.4212 16.6974   7
  16 -11 -16 18.4907 17.4228   7
 -11  -5  16-19.3249 14.7682   6
  -5 -11  16 18.9620 18.5085   6
  11 -16  16 1.78147 16.2023   6
  -5 -11 -16 24.0877 21.4017   8
 -11  -5 -16-6.43884 13.3794   8
   5 -16 -16-2.81691 15.7391   8
  11 -16 -17 13.4426 11.9207   7
  16 -11 -17 6.64108 13.0725   7
  -5 -11  17 3.75460 12.8272   6
  -5 -11 -17 11.1152 15.6739   8
   5 -16 -17 13.8015 10.4935   8
  11 -16  17 19.0142 12.9476   6
   5 -16  17-7.41856 16.4860   6
  12 -16   0 138.778 90.9252   4
  12 -16   0 148.527 76.5854   3
   4 -16   0 106.252 98.2131   4
  12 -16  -1 248.798 99.6234   4
  12 -16   1 328.446 89.7706   3
  12 -16  -1 286.712 77.4961   3
   4 -16  -1 332.791 110.991   4
   4 -16   1 416.008 106.057   4
  12 -16   1 277.242 93.0762   4
  16 -12   2 1354.42 122.580   3
  16 -12  -2 1391.73 170.289   4
  12 -16  -2 1296.90 163.387   4
  12 -16   2 1306.47 148.747   4
   4 -16   2 1294.43 150.407   4
   4 -16   2 1633.15 177.604   3
  12 -16   2 1437.69 147.002   3
   4 -16  -2 1396.53 173.256   4
  12 -16   3 51.2599 76.2671   3
  16 -12  -3 14.9182 89.0702   4
  12 -16  -3 58.9104 90.5703   4
   4 -16   3 68.8678 87.0646   3
  16 -12   3-25.2836 58.2865   3
   4 -16  -3 60.2988 98.0802   4
  12 -16   4-9.46228 78.3434   3
  12 -16  -4 112.369 95.5222   4
  16 -12  -4 17.0957 86.6437   4
  16 -12   4 65.5907 60.4493   3
   4 -16   4 90.8598 86.2589   3
   4 -16  -4-26.4885 86.8529   4
  12 -16  -5 364.505 117.899   4
  12 -16   5 465.566 110.740   3
   4 -16   5 430.030 116.641   3
  16 -12  -5 304.286 109.844   4
  16 -12   5 319.990 93.5323   3
   4 -16  -5 305.959 111.242   4
  16 -12  -6 9.04040 82.0985   4
  12 -16   6 31.9467 85.4183   3
   4 -16   6 74.6796 84.0326   3
  12 -16  -6-0.48983 87.3979   4
  16 -12   6-23.8723 73.1523   3
   4 -16  -6 25.5264 94.3329   4
   4 -16  -7 24.0101 95.9023   4
  12 -16   7 17.3716 92.8894   3
  16 -12  -7 88.1251 85.6212   4
   4 -16   7-46.5784 87.2019   3
  12 -16  -7-45.6896 92.9812   4
  16 -12   7 37.8033 75.0118   3
  12 -16  -8 109.550 94.8231   4
  12 -16   8 86.1566 91.7166   3
   4 -16   8 181.731 92.0874   3
  16 -12  -8 96.6743 78.1181   4
  16 -12   8 66.0424 81.0424   3
   4 -16  -9 41.2731 22.8411   7
  12 -16  -9 32.5650 21.9705   7
  -4 -12  -9 31.8783 27.2568   8
   4 -16   9 10.8913 22.1544   6
  12 -16   9 24.1364 22.6932   6
   4 -16   9 29.9348 71.0291   3
  12 -16  -9-28.1977 77.5618   4
   4 -16  -9 2.35519 22.6466   8
  16 -12   9-34.0164 95.1202   3
  12 -16   9 150.623 106.603   3
   4 -16 -10 13.4277 22.4816   7
  12 -16 -10 1.74794 23.5980   7
  12 -16  10 31.0632 81.4404   3
   4 -16  10 12.6532 22.7712   6
  12 -16  10 2.27869 22.9252   6
  -4 -12 -10 17.7437 28.9839   8
   4 -16 -10-2.81271 24.9333   8
  16 -12  10 11.7496 87.5882   3
   4 -16 -11 2.79164 23.5102   7
  12 -16 -11 36.5327 26.6599   7
  12 -16  11-45.3083 83.2975   3
   4 -16  11-1.40385 22.7908   6
  -4 -12 -11 22.3500 30.8575   8
   4 -16 -11 22.6551 25.3238   8
  16 -12  11-48.3532 87.8148   3
  12 -16  11-26.6181 23.9106   6
   4 -16 -12 45.6776 24.0722   7
  12 -16 -12 64.1707 27.5725   7
   4 -16  12 36.3569 23.9496   6
  12 -16  12 14.2170 21.3779   6
  -4 -12 -12 25.2145 29.9878   8
   4 -16 -12 54.3840 26.4185   8
   4 -16 -13 15.2780 20.7710   7
  12 -16 -13 36.2711 26.4967   7
  -4 -12  13-20.6160 26.2621   6
   4 -16  13 2.54933 25.0445   6
  -4 -12 -13 21.3680 30.2630   8
   4 -16 -13 37.8230 25.4315   8
  12 -16  13-1.66793 18.6793   6
   4 -16 -14 1.15811 22.9195   8
   4 -16 -14-21.6566 19.2124   7
  12 -16 -14 13.8207 24.6987   7
   4 -16  14 9.41005 25.3157   6
  12 -16  14-32.0018 17.8876   6
  -4 -12 -14 8.13736 29.6231   8
  -4 -12  14 5.24034 26.7262   6
  12 -16 -15 27.2991 21.1419   7
  16 -12 -15 22.4263 20.7413   7
  -4 -12  15 3.79011 23.6503   6
   4 -16  15-6.39280 24.5325   6
  12 -16  15-31.0876 16.6734   6
  -4 -12 -15 13.9182 26.5315   8
   4 -16 -15 18.9335 19.9885   8
  12 -16 -16-9.27118 16.3351   7
  16 -12 -16 9.53100 16.8659   7
  -4 -12  16 25.6166 18.7684   6
   4 -16  16 7.18344 21.4341   6
  12 -16  16-22.5862 14.4497   6
   4 -16 -16-8.76009 16.2115   8
  -4 -12 -16 12.5527 20.6959   8
  -4 -12 -17-1.80738 14.9096   8
  12 -16 -17 0.00633 11.2815   7
  16 -12 -17 13.2202 12.3026   7
  -4 -12  17 0.00603 12.2354   6
   4 -16 -17 6.26514 10.8304   8
  12 -16  17-0.25046 11.6979   6
   4 -16  17-6.22036 15.7828   6
  16 -13   0 1087.37 142.803   4
  13 -16   0 957.349 132.845   4
   3 -16   0 970.254 140.766   4
  13 -16   0 1146.17 123.801   3
   3 -16  -1 99.4513 78.9283   4
  13 -16  -1-1.20523 73.4278   4
  13 -16   1 3.17147 57.1992   3
  16 -13  -1 14.6577 70.5108   4
  13 -16  -1 40.1417 47.7871   3
  13 -16   1-43.7434 74.8146   4
  16 -13   1-3.50695 64.3120   4
  13 -16   2 54.9454 77.5588   3
  16 -13  -2 120.049 91.7372   4
  16 -13   2 5.15414 58.5336   4
  13 -16  -2 120.744 85.4650   4
  13 -16   2 37.4247 60.5968   4
   3 -16  -2 13.1411 87.6740   4
  16 -13   2 118.279 52.5740   3
  13 -16   3 15.7965 65.4057   3
  16 -13   3 55.5705 57.8727   4
  16 -13  -3 94.3675 94.1599   4
  13 -16  -3-6.05344 78.9569   4
   3 -16   3 95.8466 85.1035   3
  16 -13   3 22.0434 57.5055   3
   3 -16  -3 104.257 97.3824   4
  13 -16   4 52.0495 69.1952   3
  16 -13  -4 87.3915 89.8346   4
  13 -16  -4 131.267 97.3330   4
   3 -16   4 16.0653 79.4070   3
  16 -13   4 30.9343 67.6806   3
   3 -16  -4 53.0134 94.5390   4
   3 -16  -5 250.948 114.007   4
  13 -16   5 203.715 97.3070   3
   3 -16   5 118.186 90.3936   3
  16 -13  -5 42.4336 89.4631   4
  13 -16  -5 238.185 109.831   4
  16 -13   5 153.272 82.0292   3
   3 -16  -6-3.76555 84.6515   4
  13 -16   6-15.3018 78.2297   3
   3 -16   6 2.08584 73.8202   3
  16 -13  -6 13.6231 81.9569   4
  16 -13   6-41.6144 76.6445   3
  13 -16  -6-61.1016 90.1220   4
   3 -16   7-18.5562 75.6028   3
  13 -16   7 46.1669 80.9965   3
  13 -16  -7 26.0011 95.8391   4
  16 -13  -7 37.0269 84.7459   4
  16 -13   7 33.2448 81.5954   3
   3 -16  -8 33.0675 20.5501   7
  13 -16   8 2.41755 76.3667   3
  13 -16  -8 29.9553 20.0872   7
  16 -13  -8 71.7069 91.5527   4
   3 -16   8-32.7428 73.9311   3
  13 -16  -8 3.03543 96.1101   4
  -3 -13  -8 69.3764 27.0448   8
  16 -13   8 177.189 98.9900   3
  13 -16   8-5.17539 21.4024   6
  16 -13  -9 60.0350 84.9976   4
   3 -16  -9 192.132 26.0381   7
  13 -16   9 222.979 103.796   3
  13 -16  -9 215.743 26.4911   7
   3 -16   9 129.634 83.9079   3
  -3 -13  -9 287.282 32.7596   8
  13 -16   9 162.921 26.4527   6
   3 -16   9 106.041 21.5002   6
  13 -16  -9 303.684 117.105   4
   3 -16  -9 247.298 30.0979   8
  16 -13   9 250.916 103.206   3
   3 -16 -10 28.5563 23.8598   7
  13 -16 -10 30.5262 24.9725   7
  13 -16  10-106.264 98.8037   3
   3 -16  10 11.1052 22.1347   6
  -3 -13 -10 60.1362 30.5824   8
  13 -16  10-27.7723 24.5074   6
   3 -16 -10 49.8326 26.6345   8
  16 -13  10-26.5683 98.0816   3
   3 -16 -11 158.349 25.5313   7
  13 -16 -11 139.057 28.2155   7
  13 -16  11 98.9317 24.7905   6
  -3 -13 -11 178.112 34.3666   8
   3 -16 -11 167.140 29.9666   8
   3 -16  11 154.619 24.9906   6
   3 -16 -12 13.6668 22.5679   7
  13 -16 -12 16.7291 27.6300   7
   3 -16  12 15.1101 24.7531   6
  13 -16  12-33.5569 21.6032   6
   3 -16 -12 9.61374 28.3872   8
  -3 -13 -12 5.58721 32.2583   8
  13 -16 -13 14.9062 26.0466   7
   3 -16  13 31.8357 25.7919   6
  13 -16  13-19.7466 18.0645   6
  -3 -13 -13 18.9689 30.6911   8
   3 -16 -13 6.32042 26.8347   8
   3 -16 -13 15.0309 20.0005   7
  -3 -13  13 13.1959 26.7172   6
  13 -16 -14 21.4440 25.1987   7
  16 -13 -14 25.1536 24.7712   7
   3 -16  14 39.9115 27.0329   6
  -3 -13  14-17.9212 27.6226   6
  13 -16  14-8.32665 16.6552   6
  -3 -13 -14 17.7283 30.8382   8
   3 -16 -14 40.0330 26.1179   8
  13 -16 -15 25.7401 20.9358   7
  16 -13 -15 2.54831 20.2202   7
   3 -16  15 7.52716 24.3749   6
  -3 -13  15 35.3473 24.1292   6
  -3 -13 -15 4.17441 25.5708   8
   3 -16 -15 4.59271 20.7535   8
  13 -16  15-6.55627 14.8701   6
  13 -16 -16-10.9118 16.3682   7
  16 -13 -16 27.6683 16.6945   7
  -3 -13  16 18.7277 18.4891   6
  13 -16  16 9.92736 13.1302   6
   3 -16  16 23.2096 22.2336   6
   3 -16 -16 14.8019 16.7588   8
  -3 -13 -16 7.75836 20.0467   8
  13 -16 -17-7.81583 11.3928   7
  16 -13 -17-9.18031 12.1643   7
  13 -16  17-2.73822 10.2660   6
   3 -16  17 19.7384 15.8682   6
  -3 -13 -17 7.58965 13.7247   8
   3 -16 -17-3.70447 11.5493   8
  14 -16   0 1472.39 164.918   4
  14 -16   0 1605.12 138.097   3
  16 -14   0 1536.55 171.448   4
  14 -16   1 92.3920 62.4711   3
  14 -16  -1 63.1769 85.7270   4
  16 -14   1 31.3318 65.4771   4
  16 -14  -1 50.3348 81.8155   4
  14 -16   1 62.7361 67.3475   4
  16 -14   2 349.219 81.0485   3
  14 -16   2 331.025 89.3993   3
  16 -14  -2 385.465 115.153   4
  16 -14   2 235.089 82.3190   4
  14 -16  -2 259.063 97.6531   4
  14 -16   2 318.376 92.9389   4
  16 -14   3 650.625 104.390   3
  14 -16   3 628.034 112.014   3
  16 -14   3 581.076 103.324   4
  14 -16  -3 637.083 140.643   4
  16 -14  -3 643.324 137.127   4
  14 -16   4 596.869 117.794   3
  16 -14  -4 560.302 130.626   4
  14 -16  -4 641.891 137.663   4
  16 -14   4 531.865 107.212   3
  14 -16   5 194.141 94.0042   3
  14 -16  -5 27.5935 96.9204   4
  16 -14  -5 155.511 100.494   4
   2 -16   5 185.953 96.8704   3
  16 -14   5 129.102 83.0757   3
  14 -16   6 191.377 98.7887   3
  16 -14  -6 250.626 108.864   4
  14 -16  -6 128.649 108.303   4
   2 -16   6 167.873 89.1807   3
  16 -14   6 219.608 95.9103   3
  14 -16   7 199.032 104.695   3
  14 -16  -7 10.0293 95.4245   4
   2 -16   7 7.14639 78.7625   3
  16 -14  -7 120.865 95.3264   4
  16 -14   7 246.580 102.244   3
   2 -16  -8 184.847 24.3559   7
   2 -16   8 121.758 74.5190   3
  14 -16   8 267.158 110.556   3
  16 -14   8 197.665 21.8349   6
  14 -16   8 203.178 24.1074   6
  16 -14  -8 246.044 105.071   4
  -2 -14  -8 264.795 29.9789   8
   2 -16  -8 235.794 27.2258   8
  14 -16  -8 216.901 23.5451   7
  16 -14   8 284.071 110.018   3
  14 -16  -8 329.804 115.199   4
   2 -16  -9 66.0772 24.5712   7
  14 -16   9 127.294 110.863   3
  14 -16  -9 84.2727 24.7552   7
  16 -14  -9-19.5190 74.1262   4
  14 -16  -9-0.27745 89.4007   4
   2 -16   9 90.8254 21.4679   6
  16 -14   9 31.0876 20.3786   6
  14 -16   9 25.9826 23.4940   6
  -2 -14  -9 94.0285 30.2258   8
   2 -16  -9 66.2629 28.4939   8
  16 -14   9 28.1832 85.0011   3
  14 -16  10-32.9470 95.2259   3
  14 -16 -10 52.8960 27.3922   7
  14 -16  10-0.43403 24.2190   6
   2 -16 -10 7.30597 28.8624   8
  16 -14  10-13.8884 20.2303   6
  -2 -14 -10 66.4771 33.4916   8
   2 -16 -10 42.0876 23.8876   7
   2 -16  10 50.7158 21.9881   6
   2 -16 -11 63.7015 23.4671   7
  14 -16 -11 55.8048 27.2012   7
  16 -14  11 25.0831 18.4111   6
  14 -16  11-9.27174 22.4561   6
  -2 -14 -11 90.7262 33.3247   8
   2 -16 -11 74.0065 29.2923   8
   2 -16  11 29.2358 22.1940   6
   2 -16 -12 15.5388 29.7011   8
  14 -16 -12 36.2260 28.2022   7
  14 -16  12-36.4215 20.4726   6
  -2 -14 -12 34.2139 31.8574   8
  16 -14  12 2.03729 15.4225   6
   2 -16  12-2.97731 23.7948   6
  14 -16  13 5.52905 17.0816   6
  14 -16 -13 99.3637 28.8013   7
  16 -14 -13 40.7528 26.3469   7
   2 -16  13-18.1559 25.9025   6
  -2 -14  13 22.6621 27.3645   6
  -2 -14 -13 66.1524 32.4305   8
   2 -16 -13 54.4970 29.3720   8
  14 -16  14-48.8088 17.1437   6
  14 -16 -14 13.9832 25.4677   7
  16 -14 -14 5.77800 24.0410   7
   2 -16 -14-23.1751 26.5210   8
  -2 -14 -14 1.90689 30.2303   8
   2 -16  14-8.19055 25.7401   6
  -2 -14  14 2.08804 29.1987   6
  14 -16 -15 12.1287 20.3571   7
  16 -14 -15-5.14309 19.4936   7
  14 -16  15-28.4407 14.5048   6
   2 -16 -15-6.04730 21.1435   8
  -2 -14 -15 2.36901 24.4127   8
  -2 -14  15-10.6957 23.5040   6
   2 -16  15 19.6205 24.8478   6
  14 -16 -16 4.23300 15.9171   7
  16 -14 -16-3.38667 15.6486   7
  -2 -14  16 3.52011 17.4146   6
   2 -16  16-27.4240 20.7886   6
  -2 -14 -16 2.49821 18.7753   8
   2 -16 -16 24.6854 16.9049   8
  14 -16  16-10.9805 12.6298   6
  14 -16 -17-8.61347 10.2646   7
  16 -14 -17-11.7068 11.0295   7
   2 -16  17-5.56105 12.8607   6
   2 -16 -17 5.36837 10.9372   8
  -2 -14 -17-0.03687 12.6675   8
  16 -15   0 2872.82 226.734   4
  15 -16   0 3132.25 228.287   4
  15 -16   1 546.630 99.5414   3
  16 -15   1 416.926 105.921   4
  15 -16  -1 500.126 119.371   4
  16 -15  -1 482.678 118.634   4
  15 -16   1 549.598 109.098   4
  16 -15   2 1567.47 164.460   4
  16 -15  -2 1273.53 168.511   4
  16 -15   2 1519.36 141.641   3
  15 -16  -2 1534.69 182.957   4
  15 -16   2 1620.56 169.375   4
  15 -16   2 1587.48 149.803   3
  16 -15   3 1589.65 162.222   4
  16 -15   3 1777.25 166.128   3
  16 -15  -3 1821.69 202.233   4
  15 -16  -3 1906.86 200.310   4
  15 -16   3 1855.85 172.550   3
  16 -15   4 1513.89 159.457   3
  16 -15  -4 1538.55 191.535   4
  15 -16   4 1498.09 163.950   3
  15 -16  -4 1550.14 193.982   4
  16 -15   5 760.234 125.135   3
  15 -16   5 793.941 135.257   3
  16 -15  -5 678.109 146.474   4
  15 -16  -5 724.513 144.870   4
  16 -15   6 469.159 115.735   3
  15 -16   6 584.927 125.932   3
  16 -15  -6 573.826 134.457   4
  15 -16  -6 578.181 137.207   4
  15 -16   7 510.057 119.745   3
  16 -15   7 498.363 121.303   3
  15 -16  -7 543.845 138.059   4
  16 -15  -7 421.981 119.632   4
  16 -15   8 45.7356 79.8234   3
   1 -16  -8 33.2890 20.5611   7
  15 -16   8 27.4889 79.9274   3
  15 -16  -8 37.0630 20.6408   7
  16 -15  -8 105.839 89.8965   4
  -1 -15  -8 45.4123 20.3189   7
  15 -16  -8 123.274 101.918   4
  16 -15   8 25.0052 19.9374   6
   1 -16  -8 35.8469 24.4207   8
  -1 -15  -8 24.7492 25.6278   8
  15 -16   8 23.5639 21.2800   6
  16 -15   9 87.5864 85.3286   3
   1 -16  -9 147.750 24.4728   7
  15 -16  -9 159.935 109.392   4
  15 -16   9 340.076 119.653   3
  15 -16  -9 198.571 25.3925   7
  -1 -15  -9 186.346 29.8047   8
  -1 -15  -9 158.435 22.8736   7
  16 -15  -9 88.0222 84.6635   4
  16 -15   9 113.117 21.5252   6
  15 -16   9 130.000 24.0587   6
   1 -16  -9 172.064 28.7886   8
  16 -15  10 385.385 124.912   3
  15 -16  10 437.783 122.979   3
   1 -16  10 151.747 19.6999   6
  16 -15  10 284.402 25.2212   6
  15 -16  10 319.764 27.0955   6
  -1 -15 -10 434.804 38.0253   8
   1 -16 -10 402.258 36.6509   8
   1 -16 -10 280.737 27.5064   7
  15 -16 -10 325.059 29.1748   7
   1 -16 -11 8.82731 19.4743   7
  15 -16 -11 118.260 27.0632   7
  16 -15 -11 121.444 25.9267   7
  -1 -15 -11 149.558 34.1252   8
  16 -15  11 134.063 20.5705   6
  15 -16  11 63.3073 21.1186   6
   1 -16  11 41.4890 22.4327   6
   1 -16 -11 177.347 32.6964   8
  15 -16 -12 29.7406 25.8515   7
   1 -16  12 25.8272 23.6142   6
  15 -16  12 37.1390 18.1118   6
  16 -15  12-1.72033 16.0716   6
  -1 -15 -12 32.3403 31.5608   8
  16 -15 -12 53.9098 25.7494   7
   1 -16 -12 64.2106 29.6222   8
  15 -16 -13 24.7830 25.8872   7
  16 -15 -13-7.28219 23.8728   7
  -1 -15  13-5.79402 23.6596   6
  16 -15  13 6.60451 13.5481   6
  15 -16  13-0.45238 14.7731   6
   1 -16  13 13.7507 24.2688   6
  -1 -15 -13-15.5548 29.3135   8
   1 -16 -13 7.98113 26.9841   8
  15 -16 -14 27.1391 23.4606   7
  16 -15 -14 2.36239 23.1975   7
   1 -16 -14 3.57540 24.8773   8
  -1 -15  14 2.70756 25.0567   6
  -1 -15 -14-11.7578 27.0453   8
  16 -15  14 10.5905 12.7807   6
  15 -16  14-9.20607 13.9213   6
   1 -16  14-5.99504 23.8345   6
  -1 -15 -15-10.7938 22.4659   8
  15 -16 -15 19.2497 19.1736   7
  16 -15 -15 43.8174 19.5628   7
   1 -16  15 16.4891 22.8604   6
  15 -16  15-16.3112 12.4085   6
  -1 -15  15 32.5235 22.9255   6
   1 -16 -15 19.2380 20.6982   8
  15 -16 -16 3.91961 14.7398   7
  16 -15 -16 7.08027 15.1074   7
  -1 -15  16-10.6085 14.3377   6
   1 -16  16 18.0543 17.6938   6
  15 -16  16-0.91615 10.6413   6
  -1 -15 -16 8.53624 16.4901   8
   1 -16 -16-0.89375 15.3633   8
  15 -16 -17-7.07031 10.0281   7
  16 -15 -17-4.51204 10.5721   7
  -1 -15 -17-8.27877 11.0969   8
  16 -16   0 70.2355 82.1022   4
  16 -16   1 1370.69 158.944   4
  16 -16  -1 1248.93 165.307   4
  16 -16   2 679.364 107.656   3
  16 -16   2 756.400 131.186   4
  16 -16  -2 673.187 130.786   4
  16 -16  -3 1427.48 186.015   4
  16 -16   3 1498.33 154.325   3
  16 -16   4 769.077 122.037   3
  16 -16  -4 858.334 156.430   4
  16 -16  -5 423.160 127.263   4
  16 -16   5 308.824 101.169   3
  16 -16   6 120.283 93.5785   3
  16 -16  -6 253.409 119.654   4
  16 -16   7 497.357 120.697   3
  16 -16   7 405.650 28.4011   6
 -16   0  -7 418.549 30.2964   9
   0 -16  -7 440.938 32.2957   8
  16 -16  -7 338.952 125.620   4
   0 -16  -7 376.160 28.6732   7
  16 -16  -7 366.045 26.2077   7
   0 -16  -8 55.6281 22.3890   7
  16 -16   8 120.435 93.8328   3
  16 -16  -8 16.9308 21.1709   7
   0 -16  -8-14.1610 25.8739   8
  16 -16   8-1.03861 21.1007   6
  16 -16  -8-14.7641 96.3437   4
  16 -16   9 95.4660 23.3010   6
   0 -16  -9 36.6428 18.9480   7
  16 -16  -9 106.361 23.7978   7
  16 -16   9 80.5557 95.6351   3
   0 -16  -9 129.939 31.2854   8
   0 -16 -10 2.58723 17.1290   7
  16 -16 -10 52.1568 24.8162   7
  16 -16  10-1.39947 21.3854   6
   0 -16 -10 25.5396 30.0134   8
  16 -16 -11 109.799 27.3305   7
  16 -16  11 66.0787 20.9766   6
   0 -16 -11 107.560 31.6331   8
  16 -16 -12 25.3034 25.0676   7
   0 -16  12-22.1343 23.0069   6
  16 -16  12-1.65283 16.3959   6
   0 -16 -12 7.38449 28.9698   8
  16 -16 -13 6.79909 24.3549   7
  16 -16  13-33.9781 14.8336   6
   0 -16 -13 1.53650 27.3936   8
   0 -16  13-14.1271 24.1639   6
   0 -16 -14-23.1214 24.9849   8
  16 -16 -14 20.8304 22.4298   7
  16 -16  14 4.27473 12.7612   6
   0 -16  14-5.65924 23.5521   6
  16 -16 -15 11.0271 18.3950   7
   0 -16  15-10.7771 21.9002   6
   0 -16 -15 3.85356 20.1136   8
  16 -16  15 8.99995 12.0982   6
  16 -16 -16-3.87900 13.3008   7
   0 -16  16 1.61004 12.5731   6
 -16   0 -16-1.48365 11.3700  10
   0 -16 -16 28.0235 15.1520   8
   9 -17   0 91.3295 81.2928   3
   8 -17   0 118.612 89.9687   4
   8 -17   0 109.211 89.1701   3
   9 -17   0 239.466 97.5193   4
   8 -17   1 512.036 125.945   3
   9 -17  -1 343.867 111.271   4
   9 -17   1 577.470 127.045   3
   9 -17   1 312.144 99.2385   4
   8 -17  -1 384.768 116.475   4
   8 -17   1 352.882 104.905   4
   9 -17  -2 185.815 108.428   4
   9 -17   2 54.5962 74.5023   4
   8 -17   2 20.2376 68.1160   4
   8 -17   2 102.983 105.354   3
   9 -17   2 211.176 106.884   3
   8 -17  -2 103.921 95.9867   4
  17  -9   3 110.219 70.5934   3
   8 -17   3 196.263 110.597   3
   9 -17   3 192.405 100.045   3
   9 -17  -3 300.601 111.993   4
   8 -17  -3 105.264 100.518   4
   8 -17   4 424.808 131.509   3
  17  -9   4 218.310 79.8522   3
   9 -17   4 364.337 117.394   3
   9 -17  -4 238.717 111.763   4
   8 -17  -4 231.087 106.402   4
   8 -17   5 173.204 104.960   3
   9 -17   5 137.166 104.821   3
   9 -17  -5-39.9287 95.5964   4
   8 -17  -5 128.582 102.332   4
   8 -17   6 113.321 98.2035   3
  17  -9  -6 17.4492 82.0078   4
   9 -17  -6 140.989 122.724   4
   8 -17  -6 30.5641 105.688   4
   9 -17   6 30.0248 91.5948   3
   9 -17   7 248.698 101.282   3
   8 -17   7 254.733 97.8255   3
  17  -8  -7 169.851 83.4160   4
   9 -17  -7 216.132 107.615   4
  17  -9  -7 164.694 82.4940   4
  17  -9   7 149.714 89.7244   3
   8 -17  -7 15.1960 88.2955   4
   8 -17  -8 34.0798 22.9965   7
   9 -17  -8 15.7044 22.0062   7
   9 -17   8-30.4029 84.4892   3
   9 -17   8 1.91779 23.0282   6
  17  -9   8-10.1258 79.0886   3
   8 -17   8 46.9679 23.7339   6
   9 -17  -8 21.9182 97.1848   4
   8 -17   8-84.1078 89.5402   3
   8 -17  -8-70.6651 109.539   4
  17  -9  -8 9.25618 70.1197   4
  17  -9   9 38.8141 82.4674   3
   9 -17  -9 25.1430 22.9590   7
  17  -8   9 67.9600 87.7647   3
   9 -17   9 34.1652 86.4668   3
   8 -17   9 8.24360 24.0453   6
   8 -17  -9 31.1764 22.8734   7
  -9  -8  -9 48.5618 26.4866   8
  -8  -9  -9 47.9440 27.5317   8
   8 -17   9 38.4711 79.7359   3
   9 -17  -9-63.2536 92.6498   4
   8 -17  -9-32.7738 95.1457   4
   9 -17   9 30.6349 23.9586   6
   8 -17 -10 55.1994 28.0509   7
   9 -17 -10 63.6650 28.5523   7
   9 -17  10 35.1544 98.1255   3
   8 -17  10 13.5276 84.0490   3
  17  -9  10-36.9931 100.757   3
   8 -17  10 52.1827 27.9371   6
   9 -17  10 64.6853 28.2289   6
  -9  -8 -10 98.8065 31.5812   8
  -8  -9 -10 66.0035 32.1181   8
   9 -17 -10-55.0693 89.3848   4
  17  -8  10 15.6364 89.6524   3
   8 -17 -10 24.2660 90.5289   4
   8 -17  11 74.2984 25.4433   6
   8 -17 -11 51.6434 26.8100   7
   9 -17 -11 51.5986 26.3799   7
  -8  -9 -11 69.2202 29.5595   8
  -9  -8 -11 76.9287 29.4502   8
   9 -17  11 61.4013 26.4212   6
   8 -17 -12-0.18414 24.3460   7
   9 -17 -12 32.2905 25.9052   7
   9 -17  12-14.3061 22.9975   6
  -9  -8 -12 25.6361 25.9046   8
   8 -17  12-3.27673 22.0922   6
  -8  -9 -12 23.9986 26.9730   8
   8 -17 -13-10.8104 23.7361   7
   9 -17 -13 20.0863 25.0548   7
   8 -17  13-0.44497 21.1330   6
  -8  -9 -13 39.0854 27.3756   8
  -9  -8 -13-15.0663 25.8962   8
   9 -17  13-7.08021 21.2223   6
   8 -17 -14 0.11454 21.1833   7
   9 -17 -14 33.6526 22.7048   7
   9 -17  14 4.86762 20.7168   6
  -9  -8 -14-20.7268 24.5040   8
   8 -17  14-11.4356 21.5843   6
  -8  -9 -14 5.24447 24.6403   8
   8 -17 -15-1.19830 17.5559   7
   9 -17 -15-7.88088 18.7176   7
   8 -17  15-11.0258 20.0573   6
   9 -17  15 0.65688 19.0190   6
  -8  -9 -15 10.2690 21.5408   8
  -9  -8 -15 12.7206 20.8427   8
   8 -17 -16 7.86076 13.3230   7
   9 -17 -16-6.27922 13.7221   7
  -8  -9 -16 21.2274 18.0004   8
   8 -17  16-10.8405 17.3299   6
   9 -17  16 3.37593 16.5579   6
  -9  -8 -16-6.27860 17.1851   8
  17  -9 -17 8.71804 12.4040   7
  17  -8 -17 10.1184 12.2888   7
   8 -17  17-4.44298 14.1972   6
   9 -17  17-2.90512 12.9869   6
  -8  -9 -17 6.68919 12.2914   8
  -9  -8 -17 1.59886 11.2932   8
  10 -17   0 2320.97 201.038   4
  10 -17   0 2501.77 191.396   3
   7 -17   0 2522.47 216.444   4
  10 -17  -1 3986.79 266.553   4
  10 -17   1 4309.08 262.822   4
  10 -17   1 4500.14 257.274   3
   7 -17  -1 4293.04 274.938   4
   7 -17   1 4542.23 271.845   3
  10 -17  -1 4081.51 238.852   3
   7 -17   1 3955.45 256.332   4
  10 -17  -2 2606.50 220.432   4
  10 -17   2 2808.78 213.924   4
  10 -17   2 3144.02 225.669   3
   7 -17   2 2856.54 221.611   4
   7 -17  -2 2788.58 229.817   4
   7 -17   2 3053.45 230.929   3
  17 -10   3 2515.06 176.175   3
  10 -17  -3 2678.89 227.855   4
  10 -17   3 2814.88 214.398   3
   7 -17   3 2859.23 229.678   3
   7 -17  -3 2631.83 231.634   4
  17 -10   4 2106.65 165.946   3
  10 -17   4 2217.07 200.800   3
  10 -17  -4 2173.73 216.643   4
   7 -17   4 2213.23 205.983   3
   7 -17  -4 2305.39 219.322   4
  17 -10   5 1211.13 144.775   3
  17 -10  -5 1204.96 159.883   4
   7 -17  -5 1345.69 179.386   4
  10 -17  -5 1286.19 177.669   4
  10 -17   5 1413.57 173.681   3
   7 -17   5 1384.43 167.604   3
  17 -10   6 1274.18 152.075   3
  17 -10  -6 1001.36 157.370   4
  10 -17   6 1355.87 172.596   3
   7 -17  -6 1215.59 180.915   4
   7 -17   6 1501.98 177.063   3
  10 -17  -6 1375.71 185.196   4
  17 -10   7 1286.04 164.102   3
  17 -10  -7 1258.23 165.388   4
   7 -17  -7 1270.70 180.449   4
   7 -17   7 1267.28 172.854   3
  10 -17   7 1157.21 167.964   3
  10 -17  -7 1277.07 179.801   4
  -7 -10  -8 412.651 35.1268   8
   7 -17   8 279.081 31.2060   6
  10 -17   8 378.515 30.3711   6
  17 -10  -8 544.708 120.579   4
  10 -17   8 550.058 132.969   3
   7 -17   8 513.037 127.706   3
  10 -17  -8 519.664 131.086   4
  17 -10   8 422.365 113.809   3
   7 -17  -8 410.955 29.7393   7
  10 -17  -8 388.628 29.7979   7
   7 -17  -8 416.207 126.771   4
   7 -17   9 556.129 36.5516   6
  10 -17   9 445.599 119.203   3
   7 -17  -9 450.586 123.153   4
   7 -17   9 570.928 132.198   3
  10 -17   9 510.982 35.0727   6
  17 -10   9 612.744 134.085   3
  -7 -10  -9 614.822 39.7459   8
 -10  -7  -9 264.949 29.3866   8
   7 -17  -9 471.780 33.2480   7
  10 -17  -9 449.479 128.145   4
  10 -17  -9 568.054 34.0189   7
   7 -17 -10 815.579 168.860   4
  17 -10  10 864.128 157.558   3
  10 -17  10 511.686 114.316   5
   7 -17  10 790.884 39.7993   6
  10 -17  10 805.086 38.9105   6
  10 -17  10 1023.76 171.582   3
   7 -17  10 683.913 145.563   3
  -7 -10 -10 822.903 46.0990   8
 -10  -7 -10 782.655 43.2282   8
   7 -17 -10 798.169 39.8854   7
  10 -17 -10 725.234 39.7339   7
  10 -17 -11 255.297 31.8277   7
   7 -17  11 247.759 28.6254   6
  10 -17  11 247.427 29.5844   6
  -7 -10 -11 257.820 35.3900   8
   7 -17 -11 272.996 30.5016   7
 -10  -7 -11 289.030 33.0072   8
   7 -17 -12 43.9852 25.1246   7
  10 -17 -12-1.86151 26.3046   7
  10 -17  12 40.9669 23.0097   6
 -10  -7 -12 41.8753 26.1977   8
  -7 -10 -12 58.9878 30.0619   8
   7 -17 -12 38.9418 22.3846   8
   7 -17  12 50.4035 23.0896   6
   7 -17 -13 29.9732 20.7508   8
   7 -17 -13 53.1095 24.2555   7
  10 -17 -13 38.7020 25.8371   7
  10 -17  13 21.1914 21.0735   6
  -7 -10 -13-0.88017 28.1407   8
 -10  -7 -13 41.4413 25.7620   8
   7 -17  13 53.8752 23.5421   6
   7 -17 -14 9.41730 20.7313   7
  10 -17 -14 18.8878 23.5845   7
  10 -17  14 4.72266 19.7614   6
 -10  -7 -14 15.7550 23.3915   8
  -7 -10 -14-2.30990 26.1190   8
   7 -17 -14-7.41353 18.4518   8
   7 -17  14 12.9390 22.4384   6
  10 -17 -15-18.6570 19.7263   7
   7 -17  15 20.1938 21.5572   6
  10 -17  15-7.20056 17.6651   6
 -10  -7 -15 22.7764 19.6713   8
  -7 -10 -15 6.87043 22.9856   8
   7 -17 -15-4.09112 16.9430   7
   7 -17 -16 3.68923 10.3055   7
  10 -17 -16 24.4937 14.6879   7
  17 -10 -16 19.1480 16.1832   7
  -7 -10 -16-5.90314 18.0772   8
  10 -17  16 10.0958 15.5696   6
   7 -17  16 16.1817 18.6064   6
 -10  -7 -16 11.4989 15.6393   8
  10 -17 -17 3.79800 9.19137   7
  -7 -10 -17 16.1818 13.1123   8
  17 -10 -17 0.00651 11.3309   7
  17  -7 -17-7.98036 12.4499   7
  10 -17  17 17.7678 13.0749   6
   7 -17  17 16.3152 14.4412   6
  11 -17   0 1839.40 164.496   3
  11 -17   0 1520.32 167.985   4
   6 -17   0 1611.19 182.029   4
  11 -17   1 866.090 130.633   4
  11 -17   1 945.865 134.253   3
  11 -17  -1 813.772 115.783   3
  11 -17  -1 755.273 137.089   4
   6 -17  -1 691.710 135.758   4
   6 -17   1 703.264 129.420   4
   6 -17   1 871.092 146.490   3
  11 -17   2 1788.95 170.278   4
   6 -17   2 1822.12 180.684   4
  11 -17   2 1932.92 174.614   3
  11 -17  -2 1704.84 180.746   4
   6 -17   2 1955.59 197.927   3
   6 -17  -2 1913.10 200.789   4
  17 -11   3 1789.66 145.124   3
  11 -17   3 1870.97 183.289   3
   6 -17   3 2131.27 201.559   3
  11 -17  -3 1807.37 195.338   4
   6 -17  -3 1769.88 199.454   4
  17 -11   4 1202.69 131.996   3
  17 -11  -4 1277.79 168.693   4
   6 -17   4 1143.86 162.261   3
   6 -17  -4 1191.79 168.560   4
  11 -17   4 1240.52 160.206   3
  11 -17  -4 1202.55 164.162   4
  11 -17   5 508.316 124.956   3
  17 -11   5 508.205 102.597   3
  17 -11  -5 509.179 126.526   4
  11 -17  -5 462.541 134.740   4
   6 -17   5 551.996 130.040   3
   6 -17  -5 484.395 129.501   4
  17 -11   6 1290.49 151.867   3
  17 -11  -6 1330.72 168.299   4
  11 -17   6 1482.96 181.103   3
  11 -17  -6 1427.66 188.192   4
   6 -17  -6 1341.09 187.327   4
   6 -17   6 1255.07 166.669   3
  11 -17   7 129.495 95.6812   3
  17 -11  -7-2.38598 81.4256   4
   6 -17   7 54.9763 92.8097   3
  17 -11   7 8.31579 80.9750   3
  11 -17  -7 75.6929 93.9804   4
   6 -17  -7 109.602 98.5363   4
   6 -17   8 379.724 34.7087   6
  11 -17   8 617.470 33.9226   6
  11 -17   8 683.000 133.929   3
  17 -11   8 812.105 140.328   3
  17 -11  -8 553.281 125.034   4
   6 -17  -8 633.854 33.9753   7
   6 -17   8 580.177 130.287   3
  -6 -11  -8 631.775 39.3067   8
  11 -17  -8 792.690 158.790   4
  11 -17  -8 569.673 33.3617   7
   6 -17  -8 879.493 166.876   4
   6 -17  -9 121.738 113.724   4
  17 -11   9 297.043 114.776   3
  11 -17   9 176.757 99.4999   3
  11 -17   9 195.748 29.9972   6
   6 -17   9 81.6027 29.6796   6
   6 -17  -9 228.292 29.0728   7
 -11  -6  -9 234.495 31.0261   8
  -6 -11  -9 170.306 31.0819   8
   6 -17  -9 227.491 26.8052   8
   6 -17   9 243.579 104.812   3
  11 -17  -9 193.804 107.631   4
  11 -17  -9 235.930 29.9255   7
   6 -17 -10 75.4287 26.9949   7
  11 -17 -10 77.7774 27.8618   7
  11 -17  10 71.5111 98.9753   3
   6 -17  10 17.0659 25.6529   6
  11 -17  10 57.0142 26.6451   6
 -11  -6 -10 40.1585 23.2018   8
  17 -11  10 31.6283 102.183   3
  -6 -11 -10 77.0383 31.7573   8
   6 -17 -10 32.3108 24.0989   8
   6 -17  10 63.7220 84.0938   3
   6 -17 -11 80.4774 26.4553   7
  11 -17 -11 105.370 28.5085   7
   6 -17  11 62.0701 25.4613   6
  11 -17  11 0.24806 27.1705   6
  -6 -11 -11 87.5483 33.4287   8
   6 -17 -11 83.3036 24.7581   8
   6 -17 -12 41.7305 25.2352   7
  11 -17 -12 58.9592 28.4602   7
  11 -17  12-20.8111 23.7454   6
   6 -17  12 50.7346 23.6390   6
   6 -17 -12 30.8141 23.6991   8
 -11  -6 -12 52.4016 26.3512   8
  -6 -11 -12 23.7508 30.4551   8
   6 -17 -13 33.1837 23.7594   7
  11 -17 -13 6.65049 27.0453   7
  11 -17  13-30.3894 21.2030   6
   6 -17  13 3.45693 23.6358   6
 -11  -6 -13-19.7973 23.9415   8
   6 -17 -13 15.2901 22.3261   8
   6 -17 -14-18.9213 20.4957   7
  11 -17 -14 12.6692 23.8932   7
  11 -17  14-10.2416 18.8179   6
 -11  -6 -14-9.71001 21.8637   8
  -6 -11 -14 14.5588 27.6701   8
   6 -17 -14-6.98171 20.0035   8
   6 -17  14 42.7604 24.3671   6
   6 -17 -15-15.9260 16.6388   7
  11 -17 -15 8.48686 19.6178   7
   6 -17  15-8.83853 21.9335   6
   6 -17 -15 3.79189 16.4450   8
 -11  -6 -15 15.5525 18.5674   8
  -6 -11 -15-1.90239 23.6850   8
  11 -17  15 4.58491 17.1004   6
  11 -17 -16-4.97010 15.2164   7
  17 -11 -16 7.58894 15.9381   7
  -6 -11 -16 12.2635 19.0439   8
  11 -17  16-16.8172 15.2785   6
 -11  -6 -16-8.88972 13.5705   8
   6 -17  16 10.8137 18.9100   6
   6 -17 -16 36.4282 13.1904   8
  11 -17 -17-23.0199 9.16600   7
  17 -11 -17 3.86727 11.2491   7
   6 -17  17 5.88197 14.8305   6
  -6 -11 -17 11.9750 12.3935   8
  11 -17  17 3.38447 11.9655   6
  12 -17   0 436.504 117.453   4
  12 -17   0 498.671 111.819   3
   5 -17   0 293.307 116.668   4
  12 -17   1 460.594 109.508   3
   5 -17  -1 305.813 116.374   4
  12 -17  -1 392.985 103.916   3
  12 -17  -1 323.521 113.877   4
  12 -17   1 199.841 91.8487   4
   5 -17   1 322.539 110.275   4
   5 -17   2 199.065 82.8333   4
  12 -17   2 334.497 97.7758   3
  12 -17  -2 342.899 115.525   4
  12 -17   2 192.857 84.4831   4
   5 -17   2 450.175 121.049   3
   5 -17  -2 411.034 128.266   4
  12 -17   3 113.002 96.0858   3
   5 -17   3 325.078 119.849   3
  17 -12  -3 141.844 97.4870   4
  12 -17  -3 29.8213 85.1251   4
  17 -12   3 63.8283 69.1331   3
   5 -17  -3 55.4461 97.2495   4
  12 -17   4 189.887 102.261   3
  17 -12  -4 16.6232 82.2224   4
   5 -17   4 84.2386 88.1768   3
  17 -12   4-34.9465 63.9608   3
  12 -17  -4 55.8458 93.3138   4
   5 -17  -4 91.9229 98.8756   4
  12 -17   5 377.407 116.162   3
  17 -12  -5 266.082 110.831   4
   5 -17   5 352.555 112.454   3
  12 -17  -5 232.084 113.672   4
  17 -12   5 62.8184 78.8618   3
   5 -17  -5 85.8443 98.7449   4
  12 -17   6 141.433 98.4369   3
   5 -17  -6 140.720 109.755   4
  17 -12  -6 177.367 107.608   4
  12 -17  -6-19.2407 93.7192   4
   5 -17   6 58.1709 98.0128   3
  17 -12   6 149.409 84.7505   3
  12 -17  -7 399.460 139.790   4
  12 -17   7 462.202 133.915   3
   5 -17   7 466.584 127.771   3
  17 -12  -7 272.842 106.955   4
  17 -12   7 306.476 107.741   3
   5 -17  -7 329.851 124.949   4
   5 -17  -8-67.2310 106.621   4
   5 -17  -8 58.3607 24.0720   7
  12 -17  -8 34.5321 22.5724   7
  12 -17   8 12.8429 89.4470   3
   5 -17   8 17.2917 88.2862   3
  17 -12  -8 31.9916 82.3127   4
   5 -17   8 91.0863 25.1273   6
  12 -17   8 41.7803 25.2456   6
  -5 -12  -8 59.2259 28.1065   8
   5 -17  -8 32.9951 22.2133   8
  12 -17  -8-64.4549 98.1821   4
  17 -12   8-13.8871 79.3269   3
   5 -17  -9 91.8256 27.4212   7
  12 -17  -9 67.3888 27.2462   7
  12 -17   9 84.1224 103.787   3
  12 -17   9 86.7614 27.0604   6
   5 -17   9 153.456 28.1133   6
  12 -17  -9-43.9840 96.6675   4
  -5 -12  -9 139.583 34.2841   8
   5 -17  -9 96.4819 27.9449   8
  17 -12   9 67.3837 91.2809   3
   5 -17   9 16.3208 98.3026   3
   5 -17 -10 112.258 27.2198   7
  12 -17 -10 93.5421 28.2441   7
  12 -17  10-16.7614 90.7358   3
   5 -17  10 55.7587 25.9912   6
   5 -17  10 71.8675 93.8725   3
  12 -17  10 25.9437 26.5869   6
  -5 -12 -10 103.700 32.1474   8
   5 -17 -10 66.8320 26.6562   8
  12 -17 -11 65.8549 28.0209   7
   5 -17  11 96.6158 25.0156   6
  12 -17  11 32.5116 25.3372   6
   5 -17 -11 94.7709 27.2757   7
  -5 -12 -11 86.2879 31.7897   8
   5 -17 -11 85.1509 26.5413   8
   5 -17 -12 46.7727 24.3744   7
  12 -17 -12 29.5894 27.7734   7
  12 -17  12-18.1278 22.4263   6
   5 -17  12-4.27506 23.6150   6
  -5 -12 -12 48.3142 32.2785   8
   5 -17 -12 47.3769 25.2540   8
   5 -17 -13 31.9348 21.3093   7
  12 -17 -13 36.9647 27.4666   7
  12 -17  13-0.77867 19.5287   6
   5 -17  13-17.1301 23.7065   6
 -12  -5 -13 27.3342 23.1896   8
  -5 -12 -13 40.8781 30.8530   8
   5 -17 -13 31.3331 23.3751   8
   5 -17 -14 29.9860 18.8099   7
  12 -17 -14-16.9027 24.6409   7
   5 -17  14 17.1649 24.1631   6
  12 -17  14-21.1139 18.1256   6
  -5 -12 -14 14.0755 27.8452   8
   5 -17 -14 25.0782 20.9051   8
   5 -17 -15-39.6473 15.2012   7
  12 -17 -15-21.0956 20.1604   7
  17 -12 -15 5.79353 19.1946   7
   5 -17  15 26.9849 22.2953   6
   5 -17 -15-0.59549 17.5972   8
  -5 -12 -15-0.66015 23.9585   8
  12 -17  15-3.83921 15.7100   6
  12 -17 -16 6.59135 15.1175   7
  17 -12 -16 17.7630 15.6630   7
  -5 -12  16 4.07499 14.3890   6
   5 -17  16 19.8787 19.4104   6
  12 -17  16 5.11287 14.3887   6
  -5 -12 -16 4.00929 18.5534   8
   5 -17 -16-2.75717 13.4451   8
  12 -17 -17-8.91629 8.87949   7
  17 -12 -17 1.06679 11.3150   7
  -5 -12 -17-8.80729 12.9588   8
  12 -17  17-11.2677 11.1237   6
   4 -17   0 617.367 129.008   4
  13 -17   0 586.617 122.709   4
  17 -13   0 594.882 122.571   4
  13 -17   0 702.323 108.197   3
  17 -13   1 319.723 102.473   4
  13 -17   1 328.691 89.5543   3
  13 -17   1 358.553 96.4515   4
  17 -13  -1 353.086 112.148   4
  13 -17  -1 305.259 109.230   4
  13 -17  -1 371.759 84.2595   3
   4 -17  -1 414.204 122.563   4
  13 -17  -2-61.6192 92.9808   4
  13 -17   2 29.9894 74.9878   3
  17 -13  -2 34.3836 82.8421   4
  17 -13   2-55.5410 72.4961   4
  13 -17   2-24.0295 60.5673   4
   4 -17  -2 125.497 100.190   4
  13 -17   3-25.7495 78.2053   3
  17 -13   3 65.4795 62.9341   4
  17 -13  -3 21.6752 86.4803   4
  13 -17  -3 72.3487 92.7062   4
   4 -17   3 42.7338 89.2804   3
  17 -13   3 39.7134 55.4521   3
   4 -17  -3 58.0460 86.0079   4
  13 -17   4 134.501 88.7357   3
  17 -13  -4 93.5082 102.059   4
  13 -17  -4 65.2128 89.9514   4
   4 -17   4-9.41454 83.2177   3
  17 -13   4 108.903 70.8712   3
   4 -17  -4 144.455 101.496   4
  13 -17   5 265.593 110.918   3
   4 -17   5 276.621 103.028   3
  13 -17  -5 318.046 122.446   4
  17 -13  -5 369.800 114.826   4
  17 -13   5 142.919 73.8430   3
   4 -17  -5 220.302 115.147   4
   4 -17  -6-54.8150 106.140   4
  13 -17   6-26.3822 97.1779   3
  17 -13  -6 103.517 95.2668   4
   4 -17   6 16.3336 81.9365   3
  13 -17  -6 81.0737 97.3848   4
  17 -13   6 149.310 87.2325   3
  13 -17   7 440.572 123.734   3
   4 -17   7 253.914 99.4673   3
  17 -13  -7 337.329 122.946   4
  13 -17  -7 391.484 130.554   4
  17 -13   7 341.359 99.8265   3
   4 -17  -8 29.1914 23.1270   7
  13 -17  -8 33.4587 20.9131   7
  13 -17   8 37.0489 81.4112   3
  13 -17   8 13.8503 22.8552   6
  17 -13  -8-67.0085 80.1343   4
   4 -17   8 95.2516 87.2100   3
  13 -17  -8 88.9388 91.5451   4
  -4 -13  -8 43.7435 26.7189   8
   4 -17  -8 38.2022 23.0745   8
  17 -13   8-50.0810 87.8653   3
   4 -17   8 23.9893 21.7472   6
   4 -17  -9 153.007 26.8958   7
  13 -17  -9 154.974 26.4097   7
  13 -17   9 58.9234 93.1356   3
  13 -17   9 103.319 26.2833   6
   4 -17   9 145.569 26.2799   6
  -4 -13  -9 118.006 32.2706   8
   4 -17  -9 144.124 27.2190   8
  13 -17  -9-14.2099 102.178   4
  17 -13   9 122.053 94.6359   3
   4 -17   9 82.1707 66.2016   3
   4 -17 -10-12.0833 24.6111   7
  13 -17 -10 44.4560 26.2761   7
  13 -17  10-15.8110 98.2293   3
   4 -17  10-16.2372 23.0094   6
  13 -17  10-23.5738 25.2563   6
  -4 -13 -10 49.7057 29.9857   8
   4 -17 -10 8.09995 26.0973   8
  17 -13  10 69.5770 92.2414   3
   4 -17 -11-4.97065 23.8626   7
  13 -17 -11 5.22976 26.7585   7
   4 -17  11 23.0286 21.9441   6
  13 -17  11-31.0621 24.2296   6
  -4 -13 -11-5.84766 30.6673   8
   4 -17 -11 5.55719 25.6567   8
   4 -17 -12 9.97827 21.9369   7
  13 -17 -12 40.7721 28.4695   7
  -4 -13 -12 9.96287 32.3402   8
   4 -17  12-8.11652 23.5965   6
  13 -17  12-21.7910 21.5022   6
   4 -17 -12-9.23817 24.9052   8
   4 -17 -13 29.6551 20.3227   7
  13 -17 -13 37.8156 26.7226   7
   4 -17  13-4.97056 23.5416   6
  -4 -13 -13 2.27152 30.9770   8
  13 -17  13-30.0781 18.6374   6
   4 -17 -13 7.97934 23.9016   8
   4 -17 -14-28.8882 17.8461   7
  13 -17 -14 25.4424 23.7522   7
  17 -13 -14 11.6376 22.5043   7
  -4 -13  14 4.13446 23.9921   6
   4 -17  14-24.3861 24.4921   6
  13 -17  14-25.2965 16.5093   6
   4 -17 -14-7.39043 20.9395   8
  -4 -13 -14 8.90460 28.5558   8
  -4 -13 -15-14.5630 23.4242   8
  13 -17 -15-6.94968 19.3647   7
  17 -13 -15-10.7750 19.1811   7
   4 -17  15-4.67022 21.8618   6
  13 -17  15-3.44210 14.6490   6
   4 -17 -15 5.74141 17.8882   8
  13 -17 -16 3.84378 14.3117   7
  17 -13 -16 3.47814 14.7095   7
  -4 -13  16 7.80816 14.3265   6
  13 -17  16-5.40811 12.8432   6
   4 -17  16-10.2997 19.0158   6
   4 -17 -16 3.41024 13.2776   8
  -4 -13 -16 0.66194 17.5854   8
  13 -17 -17 6.61000 9.61615   7
  17 -13 -17-5.86657 10.1676   7
   4 -17  17 16.7461 13.3040   6
  -4 -13 -17-9.18702 12.4555   8
  17 -14   0 5421.63 303.611   4
  14 -17   0 5758.55 313.443   4
  14 -17   0 5418.18 267.667   3
  17 -14   1 6843.70 342.722   4
  17 -14  -1 7404.79 364.189   4
  14 -17  -1 7651.07 367.325   4
  14 -17   1 7225.58 344.249   4
  14 -17   1 7426.49 318.853   3
  17 -14   2 5110.45 291.135   4
  17 -14  -2 5228.34 304.608   4
  17 -14   2 4984.14 242.269   3
  14 -17  -2 5013.62 304.918   4
  14 -17   2 5064.00 285.409   4
  14 -17   2 5348.38 282.157   3
  17 -14   3 4770.67 246.233   3
  17 -14   3 4309.26 260.878   4
  17 -14  -3 4391.90 300.640   4
  14 -17  -3 4893.89 306.111   4
  14 -17   3 5016.56 276.101   3
  17 -14   4 2860.32 206.197   3
  17 -14  -4 2802.04 240.403   4
  14 -17   4 3082.64 232.720   3
  14 -17  -4 3293.30 262.497   4
  17 -14   5 3702.54 244.652   3
  17 -14  -5 3594.81 269.784   4
  14 -17   5 3674.08 262.016   3
  14 -17  -5 3656.93 279.240   4
   3 -17   5 3262.46 251.329   3
  17 -14   6 1743.11 180.853   3
  17 -14  -6 1586.26 192.585   4
  14 -17   6 1882.99 200.043   3
  14 -17  -6 1906.39 217.743   4
   3 -17   6 1786.41 200.635   3
   3 -17   7 2548.05 238.923   3
  17 -14   7 2830.45 234.774   3
  14 -17   7 2648.83 59.9644   6
  17 -14  -7 2865.95 249.733   4
  14 -17   7 3134.30 251.564   3
  -3 -14  -7 3227.87 72.1362   8
  14 -17  -7 2579.37 250.879   4
   3 -17  -7 2619.91 62.5027   7
  14 -17   8 625.631 133.647   3
   3 -17   8 437.130 28.4949   6
  14 -17   8 480.462 30.8362   6
   3 -17   8 365.423 111.192   3
   3 -17  -8 492.232 32.9882   8
  14 -17  -8 522.745 131.782   4
  17 -14  -8 579.760 129.797   4
  -3 -14  -8 568.426 38.2911   8
   3 -17  -8 457.312 31.4753   7
  14 -17  -8 472.414 29.3966   7
  17 -14   8 681.648 131.382   3
  17 -14   9 1229.63 181.878   3
  14 -17   9 921.953 38.9460   6
  14 -17   9 1306.30 179.131   3
  17 -14  -9 1520.35 186.641   4
  -3 -14  -9 1210.30 50.9885   8
  14 -17  -9 1236.76 184.821   4
   3 -17  -9 1154.83 47.2606   8
   3 -17  -9 990.885 41.9193   7
  14 -17  -9 1058.62 41.2075   7
  14 -17  10 1125.69 172.713   3
   3 -17  10 978.911 36.8855   6
  14 -17  10 779.733 37.5286   6
   3 -17 -10 1158.30 47.4195   8
  -3 -14 -10 1239.38 53.7341   8
   3 -17 -10 959.173 40.9213   7
  14 -17 -10 1139.13 43.6391   7
  17 -14  10 1055.72 161.536   3
   3 -17  11 233.869 26.4835   6
  14 -17  11 293.242 27.4183   6
  -3 -14 -11 417.592 38.6652   8
   3 -17 -11 364.227 33.5019   8
   3 -17 -11 320.219 28.4243   7
  14 -17 -11 427.762 33.6261   7
   3 -17 -12 157.103 24.0162   7
  14 -17 -12 204.206 30.1859   7
  -3 -14 -12 216.683 34.7187   8
   3 -17 -12 194.048 29.9735   8
  14 -17  12 94.5919 20.8238   6
   3 -17 -13 150.801 27.5827   8
   3 -17 -13 130.774 20.8400   7
  14 -17 -13 130.517 28.5673   7
  17 -14 -13 123.680 25.5149   7
   3 -17  13-1.04748 23.9839   6
  14 -17  13 35.6770 17.1420   6
  -3 -14 -13 170.541 33.6278   8
  14 -17 -14 47.4124 24.0709   7
  17 -14 -14 55.4502 22.8259   7
  14 -17  14-8.48282 14.9646   6
  -3 -14 -14 54.7147 29.1149   8
   3 -17 -14 41.3297 22.3782   8
  -3 -14  14 4.07978 23.1165   6
   3 -17  14-25.7486 24.4806   6
  14 -17 -15 28.8098 18.8744   7
  17 -14 -15-8.49851 17.9266   7
  -3 -14  15-3.90431 15.8827   6
  -3 -14 -15 32.5046 22.9910   8
  14 -17  15 1.82639 13.2294   6
   3 -17 -15 11.4229 17.5109   8
   3 -17  15 8.78589 21.0553   6
   3 -17 -16 2.77181 12.8368   8
  17 -14 -16 4.76852 13.9985   7
  -3 -14  16-2.09042 13.4644   6
   3 -17  16 4.63898 17.9650   6
  14 -17  16-2.63880 11.1578   6
  14 -17 -16 0.54687 13.9400   7
  -3 -14 -16 4.16359 16.6300   8
  17 -14 -17 0.00549 9.56615   7
  -3 -14 -17 19.9182 11.7028   8
  15 -17   0 169.748 101.564   4
  17 -15   0 270.803 110.958   4
  17 -15   1 279.703 102.924   4
  15 -17   1 277.053 97.8131   4
  15 -17  -1 251.332 110.495   4
  17 -15  -1 309.397 109.222   4
  15 -17   1 291.251 88.2512   3
  17 -15   2 431.157 91.2127   3
  15 -17   2 431.411 102.710   3
  17 -15   2 398.466 99.6265   4
  17 -15  -2 301.760 119.568   4
  15 -17  -2 383.652 124.176   4
  15 -17   2 388.837 99.9105   4
  17 -15   3 368.861 103.366   4
  17 -15   3 398.468 97.4750   3
  15 -17   3 364.810 102.396   3
  17 -15  -3 509.625 133.440   4
  15 -17  -3 419.723 126.947   4
  15 -17  -4 353.117 128.112   4
  17 -15   4 276.281 99.8761   3
  15 -17   4 248.222 105.107   3
  17 -15  -4 269.898 114.616   4
  17 -15   5 542.846 119.691   3
  15 -17   5 514.510 123.351   3
  17 -15  -5 415.469 129.608   4
  15 -17  -5 557.951 139.194   4
  15 -17   6 158.867 95.0204   3
  15 -17  -6 122.791 108.068   4
  17 -15  -6 145.544 99.5981   4
  17 -15   6 185.193 106.561   3
  15 -17   7 647.741 141.048   3
  17 -15   7 539.915 29.4738   6
  15 -17   7 566.687 34.2121   6
   2 -17  -7 613.863 34.6755   8
  15 -17  -7 636.671 141.560   4
 -15  -2  -7 490.627 31.2737   9
 -17   2  -7 551.305 33.3511   9
  17 -15  -7 640.237 140.321   4
  -2 -15  -7 660.110 39.1805   8
  -2 -15  -7 485.453 30.4153   7
   2 -17  -7 536.656 33.5758   7
  15 -17  -7 533.994 30.4247   7
  17 -15   7 590.853 128.657   3
  -2 -15  -8 24.1578 19.9220   7
   2 -17  -8 64.5790 24.4637   7
  15 -17  -8 23.0278 22.2366   7
  15 -17   8 12.5850 88.5857   3
  17 -15   8 47.2114 20.1913   6
  15 -17   8 60.7911 24.0650   6
  17 -15  -8 204.771 95.2941   4
   2 -17  -8 64.5831 26.4758   8
  -2 -15  -8 85.8752 30.2191   8
  15 -17  -8 88.5874 99.9468   4
  17 -15   8 17.1328 82.1363   3
  17 -15   9 93.9387 92.3469   3
   2 -17  -9 9.10901 22.3970   7
  15 -17  -9 19.0398 23.7858   7
  15 -17   9 76.2835 94.9193   3
   2 -17   9 123.782 21.4869   6
  17 -15   9 12.3729 19.9789   6
  15 -17   9-3.35816 23.5734   6
  17 -15  -9-26.1546 78.6657   4
  15 -17  -9-62.6763 103.826   4
  -2 -15  -9 32.6997 30.5556   8
   2 -17  -9 49.5917 28.3680   8
   2 -17 -10 22.3784 22.3791   7
  15 -17 -10 16.4190 24.9114   7
  15 -17  10 9.11101 23.1094   6
   2 -17  10 83.7108 20.5315   6
  17 -15  10 19.7190 19.4096   6
   2 -17 -10 35.2647 28.9613   8
  -2 -15 -10 61.8813 31.8832   8
   2 -17 -11 32.8019 21.1084   7
  15 -17 -11 23.1132 25.1645   7
  17 -15 -11 29.8594 23.8065   7
   2 -17  11-4.00334 20.3595   6
  17 -15  11 8.83800 16.8553   6
  15 -17  11 9.62316 21.2887   6
  -2 -15 -11 40.2013 30.1284   8
   2 -17 -11 24.1310 26.9039   8
   2 -17 -12-3.38729 19.2758   7
  15 -17 -12 13.4889 25.3770   7
  17 -15 -12-2.81272 23.6302   7
  -2 -15 -12 11.4648 30.2106   8
  17 -15  12-25.5284 14.6622   6
  15 -17  12-4.26095 17.8131   6
   2 -17 -12 23.3784 27.1174   8
   2 -17  12-5.67713 21.4647   6
  15 -17 -13 23.2247 25.5107   7
  17 -15 -13 15.0942 22.4914   7
  15 -17  13 0.20404 14.8492   6
   2 -17  13-13.8344 22.3458   6
   2 -17 -13 14.8236 24.7098   8
  -2 -15 -13-18.3398 29.1673   8
  15 -17 -14 11.9792 22.5358   7
  17 -15 -14-3.19926 20.9258   7
  15 -17  14-25.5477 13.9513   6
  -2 -15  14-25.9232 23.0781   6
   2 -17  14 16.1393 22.2142   6
   2 -17 -14-19.8130 22.2344   8
  -2 -15 -14-0.12535 25.5311   8
  15 -17 -15-4.72265 17.3762   7
  17 -15 -15-8.59989 17.7456   7
   2 -17 -15 1.18010 17.6764   8
  -2 -15  15 6.08512 15.9407   6
   2 -17  15-38.9266 21.9023   6
  15 -17  15-18.1561 12.5316   6
  -2 -15 -15 10.0929 20.5239   8
  15 -17 -16-0.84048 13.2602   7
  17 -15 -16 17.4477 13.3502   7
  -2 -15  16 12.1478 13.2593   6
  15 -17  16 2.37506 9.98022   6
  -2 -15 -16 15.7082 14.7741   8
   2 -17 -16 1.14187 12.4946   8
   2 -17  16 0.80679 15.4556   6
  17 -16   0 1726.19 195.909   4
  16 -17   0 1989.15 206.114   4
  17 -16   1 1195.98 165.989   4
  17 -16  -1 1451.07 189.005   4
  16 -17  -1 1458.72 183.602   4
  16 -17   1 1524.94 179.417   4
  17 -16   2 1950.53 193.059   4
  17 -16  -2 1739.88 205.434   4
  16 -17  -2 1947.95 209.528   4
  16 -17   2 1791.77 185.025   4
  17 -16   2 1636.85 158.904   3
  16 -17   2 1951.89 177.714   3
  17 -16   3 579.483 119.137   3
  16 -17   3 711.753 130.352   3
  17 -16  -3 500.511 139.004   4
  16 -17  -3 595.713 144.811   4
  17 -16   4 718.126 133.113   3
  16 -17   4 801.418 142.560   3
  17 -16  -4 874.369 168.311   4
  16 -17  -4 1006.49 174.012   4
  16 -17   5 898.216 151.156   3
  17 -16   5 864.058 145.708   3
  17 -16  -5 1146.23 182.426   4
  16 -17  -5 840.978 162.089   4
  17 -16   6 271.754 115.794   3
  16 -17   6 572.104 131.327   3
  16 -17   6 543.948 34.7204   6
  -1 -16  -6 519.915 35.6254   7
  -1 -16  -6 774.813 41.3879   8
  17 -16  -6 398.763 139.421   4
   1 -17  -6 670.464 40.0268   8
  16 -17  -6 417.506 145.086   4
   1 -17  -6 610.693 36.7478   7
  -1 -16  -7 483.158 30.3102   7
  17 -16   7 744.193 141.525   3
  16 -17  -7 689.485 150.054   4
  16 -17   7 745.036 138.379   3
  17 -16   7 567.087 32.2943   6
  16 -17   7 535.459 33.1581   6
   1 -17  -7 637.446 34.9092   7
 -17   1  -7 627.414 35.1747   9
  17 -16  -7 652.546 143.174   4
  -1 -16  -7 850.934 40.9473   8
   1 -17  -7 805.265 39.7094   8
  16 -17  -7 632.745 31.9902   7
  17 -16  -7 611.129 30.7411   7
 -16  -1  -7 576.304 34.3984   9
  -1 -16  -8 60.0020 20.2120   7
   1 -17  -8 320.562 34.0807   8
  17 -16   8 147.234 116.300   3
  16 -17   8 177.053 109.536   3
  16 -17  -8 165.585 27.0146   7
  17 -16  -8 111.894 24.8708   7
  17 -16   8 138.051 26.7211   6
  16 -17   8 133.893 29.0906   6
  16 -17  -8 136.523 102.999   4
  17 -16  -8 66.2996 96.4515   4
  -1 -16  -8 380.713 37.3234   8
   1 -17  -8 241.963 30.0046   7
  -1 -16  -9 110.748 20.1522   7
  17 -16   9 232.394 105.049   3
  16 -17   9 427.840 130.265   3
  17 -16   9 253.567 26.1621   6
  16 -17   9 255.001 28.4439   6
  17 -16  -9 324.342 28.4695   7
   1 -17  -9 345.939 35.1886   8
   1 -17  -9 282.767 28.3537   7
  -1 -16  -9 404.356 38.7804   8
  17 -16  -9 312.098 124.940   4
  16 -17  -9 326.299 30.0692   7
  16 -17  -9 191.216 103.843   4
   1 -17 -10 201.835 25.9900   7
  17 -16 -10 226.671 28.3821   7
  17 -16  10 195.778 25.0703   6
  16 -17  10 233.316 27.6075   6
  -1 -16 -10 372.218 38.7739   8
   1 -17 -10 310.618 36.1548   8
  16 -17 -10 305.851 30.2505   7
   1 -17 -11 113.238 31.5526   8
   1 -17 -11-0.96607 19.0821   7
  16 -17 -11 98.7030 27.5046   7
  17 -16 -11 72.2673 26.5245   7
  17 -16  11 61.1643 19.5321   6
  16 -17  11 81.6797 21.9157   6
  -1 -16 -11 149.993 33.8897   8
  -1 -16 -12 65.2214 30.8455   8
  16 -17 -12 78.3423 26.8664   7
  17 -16 -12 43.4175 25.0782   7
  17 -16  12 39.2987 15.5051   6
  16 -17  12 32.3049 17.5179   6
   1 -17  12-22.2333 22.1233   6
   1 -17 -12 82.8456 28.8638   8
  16 -17 -13 67.0203 25.4542   7
  17 -16 -13 51.7483 23.5299   7
  16 -17  13 15.2448 13.7894   6
  -1 -16 -13 85.7173 28.8879   8
  17 -16  13-3.34892 12.9121   6
   1 -17 -13 67.4484 25.9153   8
  -1 -16  13 14.4793 22.6290   6
   1 -17  13-13.9570 22.3690   6
  16 -17 -14 26.0250 21.3248   7
  17 -16 -14 22.6998 20.7357   7
  -1 -16  14 1.66359 21.5365   6
   1 -17 -14 36.6721 22.2286   8
   1 -17  14 24.5597 22.2555   6
  -1 -16 -14 27.7248 24.1866   8
  16 -17  14 2.28327 12.2124   6
  16 -17 -15 6.78503 17.3350   7
  17 -16 -15 1.84073 16.8526   7
  -1 -16  15-21.8788 15.6685   6
   1 -17  15 18.9602 19.8933   6
  16 -17  15 12.6383 11.2173   6
  -1 -16 -15 5.70648 18.7996   8
   1 -17 -15 4.10599 16.9529   8
  16 -17 -16-0.00657 11.8265   7
  17 -16 -16-15.0128 12.7440   7
   1 -17  16 18.9026 13.9725   6
 -17   1 -16 1.07806 11.3989  10
   1 -17 -16-5.47776 12.3365   8
  -1 -16 -16-13.4907 13.3115   8
  17 -17   0 1089.28 161.221   4
  17 -17  -1 155.243 89.4990   4
  17 -17   1 11.8554 68.3671   4
  17 -17   2 53.6718 64.3532   3
  17 -17   2-2.21489 67.8874   4
  17 -17  -2 183.081 108.099   4
  17 -17   3 99.6606 73.0969   3
  17 -17  -3 39.6491 84.8377   4
  17 -17   4 28.5420 83.3144   3
  17 -17  -4 9.49410 100.754   4
  17 -17   5 96.9160 83.5680   3
  17 -17  -5 0.54394 100.671   4
   0 -17  -6 153.815 25.6654   7
  17 -17   6 198.140 100.412   3
  17 -17  -6 85.6710 107.408   4
 -17   0  -6 144.870 25.8410   9
   0 -17  -6 125.454 26.8434   8
  17 -17   6 99.5846 25.1191   6
   0 -17  -7 179.987 25.5591   7
  17 -17   7 181.564 91.3535   3
  17 -17  -7 181.133 23.3358   7
   0 -17  -7 167.129 28.5695   8
  17 -17   7 139.410 25.4018   6
 -17   0  -7 182.038 26.7785   9
   0 -17  -8 981.397 47.0527   8
  17 -17   8 1012.56 163.170   3
  17 -17   8 728.788 35.1134   6
   0 -17  -8 828.183 38.4913   7
  17 -17  -8 855.973 164.854   4
  17 -17  -8 847.521 37.0354   7
  17 -17  -9 146.969 25.9643   7
   0 -17  -9 90.6600 23.7032   7
   0 -17  -9 147.044 32.6145   8
  17 -17   9 110.296 24.9687   6
   0 -17 -10-25.1248 19.4035   7
  17 -17 -10 8.12732 23.7038   7
  17 -17  10 3.28618 20.8980   6
   0 -17 -10 16.3943 28.9356   8
  17 -17 -11 14.5683 24.2257   7
  17 -17  11-15.5031 18.9234   6
   0 -17 -11-25.5987 28.6850   8
  17 -17 -12 27.3971 24.2020   7
  17 -17  12 13.5170 15.1350   6
   0 -17 -12 26.2369 27.5899   8
   0 -17 -13 36.5436 24.8998   8
  17 -17 -13 11.7322 21.5783   7
   0 -17  13 16.4462 20.4925   6
  17 -17  13-15.3446 13.0119   6
  17 -17 -14 8.41965 19.3095   7
   0 -17 -14 19.7802 21.1282   8
   0 -17  14-17.0093 18.7691   6
  17 -17  14 1.05585 10.9059   6
  17 -17 -15 10.2763 15.7097   7
   0 -17 -15-22.1547 16.4801   8
   0 -17  15-2.76443 15.3069   6
  17 -17 -16-12.3697 11.4438   7
   0 -17 -16 1.64714 11.1123   8
   9 -18   0 3225.59 246.087   4
   9 -18   0 3153.71 227.650   3
   9 -18   1 7269.18 351.965   4
   9 -18   1 6890.31 343.913   3
   9 -18  -1 6908.64 355.469   4
   9 -18  -2 3094.75 246.663   4
   9 -18   2 3183.80 242.145   3
   9 -18   2 3088.50 231.447   4
   9 -18   3 2683.23 228.643   3
   9 -18  -3 2434.09 223.175   4
  18  -9   4 2020.04 171.559   3
   9 -18  -4 2088.02 211.785   4
   9 -18   4 2004.90 198.047   3
  18  -9   5 3189.56 220.278   3
   9 -18   5 3407.59 258.065   3
   9 -18  -5 3230.92 273.106   4
  18  -9  -6 148.175 94.8515   4
  18  -9   6 196.640 86.8731   3
   9 -18  -6 69.3961 98.3113   4
   9 -18   6 151.961 94.4045   3
  18  -9   7 1783.99 188.767   3
  18  -9  -7 1899.08 198.510   4
   9 -18   7 1892.33 209.734   3
   9 -18  -7 1812.08 52.3833   7
   9 -18  -7 2076.26 232.784   4
   9 -18   8 258.211 28.3955   6
   9 -18   8 323.746 104.831   3
  -9  -9  -8 283.597 31.6333   8
  -9  -9  -8 207.144 21.8295  10
  18  -9   8 398.484 113.808   3
   9 -18  -8 247.971 27.0001   7
  18  -9  -8 323.340 108.739   4
   9 -18  -8 302.334 117.790   4
  18  -9   9 1067.85 161.464   3
   9 -18   9 882.337 39.7198   6
  -9  -9  -9 910.880 45.4835   8
   9 -18   9 696.379 148.383   3
   9 -18  -9 762.317 39.3526   7
   9 -18  -9 859.986 155.165   4
   9 -18 -10 171.536 28.6834   7
   9 -18  10 90.9276 84.1822   3
  18  -9  10 198.432 109.124   3
   9 -18  10 161.822 28.6569   6
  -9  -9 -10 183.191 33.2835   8
   9 -18 -11 202.796 30.3632   7
   9 -18  11 186.933 27.2922   6
  -9  -9 -11 191.040 31.5869   8
   9 -18 -12 113.487 27.4470   7
  -9  -9 -12 107.256 28.5421   8
   9 -18  12 104.897 23.4387   6
   9 -18 -13 18.2824 24.9272   7
  -9  -9 -13 13.4985 25.3991   8
   9 -18  13-21.2137 21.8318   6
   9 -18 -14-2.16952 21.5345   7
   9 -18  14 1.97049 20.0877   6
  -9  -9 -14 15.1498 22.5998   8
   9 -18 -15 4.36562 16.7023   7
   9 -18  15-14.4105 18.4989   6
  -9  -9 -15-13.2844 19.7279   8
   9 -18 -16 5.77450 12.5528   7
   9 -18  16-1.82864 15.5120   6
  -9  -9 -16-1.40345 14.7174   8
  18  -9 -17 11.9032 10.9099   7
   9 -18  17 9.67282 11.9968   6
   8 -18   0 1726.86 187.116   4
  10 -18   0 1862.04 191.880   4
  10 -18   0 1867.51 182.285   3
   8 -18   1 4337.50 278.823   3
  10 -18   1 4127.03 267.207   4
  10 -18  -1 3942.99 269.357   4
  10 -18   1 4417.55 266.830   3
   8 -18  -1 3941.70 277.491   4
   8 -18   1 4286.48 280.803   4
   8 -18  -2 1808.41 196.393   4
   8 -18   2 1746.84 180.208   4
  10 -18   2 2036.30 193.649   4
  10 -18   2 1871.85 186.582   3
  10 -18  -2 1701.84 186.882   4
   8 -18   2 1908.97 196.289   3
  10 -18   3 1289.09 163.139   3
  10 -18  -3 1253.08 167.333   4
   8 -18   3 1547.50 185.368   3
   8 -18  -3 1185.66 172.151   4
  10 -18   4 764.129 138.299   3
  18 -10   4 692.375 106.720   3
   8 -18   4 836.793 145.007   3
  10 -18  -4 752.374 145.295   4
   8 -18  -4 852.336 151.163   4
  18 -10   5 1392.62 153.608   3
  10 -18  -5 1464.41 190.068   4
  10 -18   5 1539.22 187.435   3
   8 -18   5 1690.24 193.984   3
   8 -18  -5 1613.67 202.981   4
  10 -18   6-6.70098 82.6553   3
   8 -18   6 74.5667 84.4356   3
  18 -10   6 30.0191 68.3272   3
  18 -10  -6-14.3669 85.9604   4
  10 -18  -6 33.4204 88.4535   4
   8 -18  -6-69.4275 89.7135   4
  10 -18   7 669.594 35.6801   6
  18 -10   7 761.461 133.373   3
  10 -18   7 671.066 150.913   3
  18  -8  -7 607.016 135.557   4
   8 -18   7 644.723 137.197   3
  18 -10  -7 500.004 121.687   4
  10 -18  -7 790.627 169.883   4
   8 -18  -7 640.021 35.9401   7
  10 -18  -7 586.791 34.4674   7
   8 -18  -7 456.193 138.991   4
   8 -18   8 121.490 26.7757   6
   8 -18  -8 114.031 24.8851   7
  10 -18  -8 123.375 24.1171   7
  10 -18   8 153.900 104.926   3
  18 -10   8 146.988 86.9939   3
  18 -10  -8 168.700 84.3506   4
  10 -18   8 139.217 26.5407   6
 -10  -8  -8 81.8466 24.5804   8
  -8 -10  -8 150.800 28.3399   8
  10 -18  -8 117.541 100.384   4
   8 -18   8 164.361 95.0670   3
   8 -18  -8 139.322 94.4629   4
  18 -10   9 556.587 131.379   3
   8 -18   9 487.602 35.9892   6
  10 -18   9 466.273 33.6080   6
  10 -18   9 465.500 127.791   3
   8 -18  -9 455.559 33.0192   7
  18  -8   9 608.410 143.179   3
   8 -18   9 301.031 113.375   3
 -10  -8  -9 521.345 38.2704   8
  -8 -10  -9 512.746 38.8557   8
  10 -18  -9 491.625 35.3145   7
  10 -18  -9 563.485 137.896   4
   8 -18  -9 401.977 123.612   4
   8 -18 -10 254.215 30.6681   7
   8 -18  10 292.193 30.8183   6
  18  -8  10 279.347 104.231   3
  18 -10  10 411.557 124.027   3
  10 -18  10 240.467 30.3710   6
  10 -18  10 164.611 101.412   3
  -8 -10 -10 323.131 35.7688   8
   8 -18  10 153.170 91.0546   3
 -10  -8 -10 284.373 32.6339   8
  10 -18 -10 283.317 31.6850   7
   8 -18  11 360.745 30.6524   6
  10 -18  11 387.077 30.7878   6
 -10  -8 -11 391.296 34.8142   8
  -8 -10 -11 400.406 36.7574   8
   8 -18 -11 362.099 32.4372   7
  10 -18 -11 372.069 33.3218   7
   8 -18 -12 108.524 26.6254   7
  10 -18 -12 115.299 28.3511   7
   8 -18  12 96.6004 23.3890   6
 -10  -8 -12 117.179 28.2075   8
  10 -18  12 78.4647 22.8053   6
  -8 -10 -12 91.9683 28.9557   8
   8 -18 -13 7.59868 23.1526   7
  10 -18 -13 39.3229 24.7481   7
   8 -18  13 10.4975 21.5507   6
  10 -18  13 21.0667 20.9518   6
 -10  -8 -13 27.4605 24.4704   8
  -8 -10 -13 27.1702 26.6527   8
   8 -18 -14 11.1194 20.1820   7
  10 -18 -14 5.65354 21.2678   7
   8 -18  14-17.2638 20.8847   6
  10 -18  14 5.47323 19.1423   6
 -10  -8 -14 5.57233 21.4951   8
  -8 -10 -14 0.45696 23.7363   8
   8 -18 -15-3.52721 15.7419   7
 -10  -8 -15 22.6322 18.6147   8
   8 -18  15 18.9284 18.5867   6
  10 -18  15-29.5249 17.7507   6
  -8 -10 -15 22.3523 20.1472   8
  10 -18 -15 5.83939 17.3669   7
   8 -18 -16 0.00668 9.68335   7
  10 -18 -16-9.89315 12.5241   7
  18 -10 -16 4.88796 14.3658   7
  10 -18  16 10.7099 14.4316   6
   8 -18  16-3.84489 15.9195   6
 -10  -8 -16-9.83951 11.7433   8
  -8 -10 -16 7.27817 15.4211   8
  18 -10 -17 2.79443 9.93481   7
  18  -8 -17-3.78733 10.3473   7
  10 -18  17 7.64168 11.3410   6
   8 -18  17 5.86967 11.9392   6
   7 -18   0 3096.86 245.780   4
  11 -18   0 3266.41 240.532   4
  11 -18   0 3374.01 230.081   3
   7 -18   1 2980.34 233.722   4
  11 -18   1 3170.05 239.192   4
   7 -18  -1 2992.95 244.189   4
  11 -18   1 3259.40 229.470   3
  11 -18  -1 2872.39 233.119   4
  11 -18  -2 2496.14 226.699   4
  11 -18   2 2526.54 211.041   4
   7 -18  -2 2569.67 232.894   4
   7 -18   2 2573.30 218.274   4
   7 -18   2 2743.43 229.102   3
  11 -18   2 2708.63 221.483   3
  18 -11   3 1413.84 138.450   3
  11 -18  -3 1718.17 197.016   4
  11 -18   3 1540.20 179.251   3
   7 -18   3 1541.61 181.579   3
   7 -18  -3 1495.02 188.586   4
  18 -11   4 1259.40 135.536   3
  11 -18  -4 1367.63 184.832   4
   7 -18  -4 1350.21 176.804   4
   7 -18   4 1340.10 173.798   3
  11 -18   4 1518.19 179.458   3
  18 -11   5 1946.78 175.966   3
  18 -11  -5 1994.10 209.631   4
  11 -18   5 2243.89 211.413   3
  11 -18  -5 2004.64 220.620   4
   7 -18  -5 2124.88 229.794   4
   7 -18   5 2081.35 210.823   3
  11 -18   6 239.759 102.051   3
  18 -11  -6 184.891 96.4142   4
   7 -18   6 190.301 102.941   3
  11 -18  -6 108.357 99.0251   4
  18 -11   6 305.119 95.0159   3
   7 -18  -6 264.730 116.521   4
  11 -18  -7 1041.59 173.859   4
  18 -11   7 918.827 144.948   3
  11 -18   7 898.838 39.7256   6
  11 -18   7 883.871 155.986   3
   7 -18  -7 804.213 37.8237   7
  18 -11  -7 823.799 149.438   4
   7 -18   7 828.620 147.606   3
  -7 -11  -7 906.398 42.9984   8
  11 -18  -7 851.235 36.7837   7
   7 -18  -7 787.691 155.221   4
  18 -11   8 464.639 119.322   3
   7 -18   8 303.535 32.4968   6
  11 -18   8 439.772 30.6503   6
  11 -18   8 483.333 122.186   3
   7 -18   8 444.854 121.326   3
 -11  -7  -8 421.850 33.2086   8
  -7 -11  -8 503.837 37.3309   8
  18 -11  -8 347.407 111.111   4
  11 -18  -8 418.394 125.624   4
   7 -18  -8 379.892 29.5879   7
  11 -18  -8 423.092 30.8919   7
   7 -18  -8 425.903 124.404   4
   7 -18  -9 545.032 140.279   4
   7 -18   9 262.194 33.4289   6
  11 -18   9 332.564 30.8227   6
  11 -18   9 476.861 127.332   3
   7 -18   9 580.682 134.992   3
  -7 -11  -9 448.116 37.7131   8
  18 -11   9 295.834 107.196   3
 -11  -7  -9 235.955 27.8524   8
   7 -18  -9 358.705 32.1730   7
  11 -18  -9 231.296 114.020   4
  11 -18  -9 393.997 32.4886   7
   7 -18 -10 93.8342 26.5856   7
  11 -18 -10 116.682 28.0648   7
  11 -18  10 118.439 89.0301   3
   7 -18  10 148.203 96.3954   3
   7 -18  10 84.9803 26.9414   6
  11 -18  10 88.3320 27.5287   6
  18  -7  10-20.4144 103.137   3
 -11  -7 -10 154.747 29.5347   8
  -7 -11 -10 63.6561 28.8180   8
  18 -11  10 37.9602 81.6931   3
   7 -18 -11 159.764 27.9875   7
  11 -18 -11 172.217 29.7643   7
   7 -18  11 184.417 25.7299   6
  11 -18  11 181.380 26.5311   6
 -11  -7 -11 202.149 29.3471   8
  -7 -11 -11 162.799 31.9763   8
   7 -18 -12 80.4181 25.7013   7
  11 -18 -12 77.7648 27.7994   7
   7 -18  12 100.159 23.4624   6
  11 -18  12 88.7214 23.4402   6
 -11  -7 -12 104.134 26.5871   8
  -7 -11 -12 100.180 30.4265   8
   7 -18 -13 3.97706 22.2399   7
  11 -18 -13 12.8455 24.9565   7
   7 -18  13-5.42612 21.1720   6
 -11  -7 -13-2.03683 22.3206   8
  -7 -11 -13 1.90749 27.7009   8
  11 -18  13-11.8368 20.0034   6
   7 -18 -14-0.44301 18.5906   7
  11 -18 -14-9.79033 21.9655   7
   7 -18  14-24.5248 20.7606   6
  11 -18  14 6.20855 17.7715   6
  -7 -11 -14-7.54791 24.0841   8
 -11  -7 -14-5.94706 20.1152   8
   7 -18 -15-3.83905 14.7316   7
  11 -18 -15-1.33619 17.6355   7
  18 -11 -15 2.49447 17.8278   7
  -7 -11 -15-20.0746 20.9952   8
  11 -18  15-5.97981 15.8262   6
 -11  -7 -15-10.9540 17.1339   8
   7 -18  15-6.28183 19.1148   6
   7 -18 -16 0.00616 10.3785   7
  11 -18 -16-14.6764 13.2839   7
  18 -11 -16 5.50417 13.8818   7
  11 -18  16-12.0040 13.4779   6
   7 -18  16-6.96226 16.0178   6
 -11  -7 -16-2.46907 12.3320   8
  -7 -11 -16-7.05740 15.4268   8
  18 -11 -17 13.3567 10.6195   7
  18  -7 -17 0.00575 10.5893   7
  12 -18   0 387.989 111.565   3
  12 -18   0 370.724 116.201   4
   6 -18   0 233.374 111.279   4
  12 -18  -1 95.8843 93.7886   4
  12 -18   1 18.0530 85.0017   4
  12 -18  -1 70.8168 81.0942   3
   6 -18  -1 18.8688 99.0516   4
  12 -18   1 158.218 96.4707   3
   6 -18   1 105.018 98.3991   4
  12 -18   2 111.602 100.440   3
  12 -18  -2 65.7798 95.3199   4
  12 -18   2-53.9923 76.5176   4
   6 -18   2 269.617 125.259   3
   6 -18  -2 240.791 119.356   4
   6 -18   2 117.236 75.0444   4
  12 -18  -3 88.1183 100.805   4
  12 -18   3 127.047 100.158   3
  18 -12  -3 63.5351 94.7486   4
  18 -12   3 1.85291 55.9230   3
   6 -18   3 115.633 98.7567   3
   6 -18  -3 196.321 111.325   4
  12 -18  -4 36.0434 90.6208   4
  12 -18   4-21.7644 83.8778   3
  18 -12  -4 21.3606 87.0008   4
   6 -18   4 43.7365 90.1964   3
  18 -12   4-30.2689 61.9535   3
   6 -18  -4-53.0136 92.3054   4
  12 -18   5 79.8584 101.531   3
  18 -12  -5 85.2463 88.8495   4
   6 -18   5 134.855 97.9046   3
  12 -18  -5 68.3505 100.625   4
  18 -12   5 14.3330 68.9927   3
   6 -18  -5 102.229 116.527   4
  12 -18   6 555.968 135.971   3
  18 -12  -6 447.030 127.241   4
   6 -18   6 585.520 139.056   3
  12 -18  -6 330.324 116.208   4
  18 -12   6 356.477 96.8696   3
   6 -18  -6 569.191 148.282   4
   6 -18  -7 192.971 27.9418   7
  12 -18  -7 149.794 25.6683   7
  12 -18   7 126.492 103.575   3
  18 -12  -7 81.9987 89.9081   4
  12 -18   7 185.356 28.8580   6
   6 -18   7 151.015 27.6833   6
   6 -18   7 189.123 112.641   3
  -6 -12  -7 180.624 31.2060   8
  12 -18  -7 166.199 108.349   4
  18 -12   7 29.3053 78.8337   3
   6 -18  -7 33.7637 104.607   4
   6 -18  -8-150.904 118.493   4
   6 -18  -8 28.0500 22.9876   7
  12 -18  -8 22.2004 23.5593   7
  12 -18   8-95.4196 87.5359   3
  12 -18   8 55.5216 24.2712   6
   6 -18   8 19.0280 77.4555   3
  18 -12  -8 106.873 86.7067   4
   6 -18   8 24.3643 23.7301   6
  18 -12   8-15.9941 83.0133   3
  12 -18  -8-18.9939 93.4680   4
  -6 -12  -8 69.4716 29.0394   8
   6 -18  -9 54.0260 26.9308   7
  12 -18  -9 41.8668 25.7256   7
  12 -18   9 22.0941 96.2227   3
  12 -18   9 65.3091 28.0672   6
  18 -12   9 116.919 96.7084   3
   6 -18   9 48.9598 89.5190   3
   6 -18   9 64.3293 26.4496   6
   6 -18  -9 64.1021 24.2640   8
  12 -18  -9 184.626 109.360   4
  -6 -12  -9 86.9932 32.0639   8
   6 -18 -10 55.8655 25.9794   7
  12 -18 -10 44.3599 26.7638   7
  12 -18  10-56.9502 85.8006   3
   6 -18  10 60.9270 26.0369   6
   6 -18  10 45.6752 78.3205   3
  12 -18  10 43.0806 25.8167   6
  -6 -12 -10 61.8108 29.5136   8
   6 -18 -10 42.0143 23.1094   8
  18 -12  10 43.5140 82.1859   3
   6 -18 -11 13.0331 24.1690   7
  12 -18 -11 30.7605 27.9343   7
   6 -18  11 13.9254 22.0409   6
  12 -18  11 1.47037 24.3106   6
 -12  -6 -11 90.3342 25.9366   8
  -6 -12 -11 24.1780 30.3870   8
   6 -18 -11 26.5322 23.2329   8
   6 -18 -12-6.41624 23.0441   7
  12 -18 -12 41.0338 27.1381   7
  12 -18  12-19.2013 21.7784   6
 -12  -6 -12-2.11470 23.0852   8
   6 -18 -12 8.73165 21.2000   8
  -6 -12 -12 29.0853 30.1098   8
   6 -18  12-7.60384 21.0775   6
   6 -18 -13 1.31383 20.5704   7
  12 -18 -13-4.14991 25.3367   7
   6 -18  13 3.08545 21.2994   6
  12 -18  13-14.4639 18.9184   6
 -12  -6 -13-14.8746 20.9387   8
   6 -18 -13-7.74512 19.9481   8
  -6 -12 -13 34.1995 28.2974   8
   6 -18 -14 15.6028 18.0001   7
  12 -18 -14 5.14312 21.9679   7
   6 -18  14-5.15333 21.3558   6
 -12  -6 -14 7.85117 18.8879   8
   6 -18 -14-2.21738 17.1738   8
  -6 -12 -14-8.05154 25.1353   8
  12 -18  14 1.94103 16.8286   6
   6 -18 -15 7.21449 13.8991   8
   6 -18 -15 19.1025 13.8935   7
  12 -18 -15 6.66851 17.4234   7
  18 -12 -15 15.1713 17.6355   7
  12 -18  15-31.2467 15.3239   6
   6 -18  15 26.5927 19.8211   6
  -6 -12 -15 16.9362 20.7639   8
  12 -18 -16-0.00718 13.0834   7
  18 -12 -16-2.06648 13.4796   7
  12 -18  16 20.6897 12.6909   6
   6 -18  16 13.1390 16.7037   6
  -6 -12 -16 12.6316 15.7664   8
  18 -13   0 785.487 134.841   4
  13 -18   0 687.862 113.005   3
  13 -18   0 607.929 124.769   4
   5 -18   0 692.411 137.074   4
  18 -13  -1 1906.40 194.299   4
  13 -18  -1 2064.75 200.169   4
  13 -18   1 2067.86 197.566   4
   5 -18   1 2064.77 207.668   4
  13 -18   1 1953.93 176.758   3
  13 -18  -1 1957.87 167.092   3
   5 -18  -1 1962.84 213.363   4
  13 -18  -2 933.195 154.863   4
  13 -18   2 859.588 129.870   4
  13 -18   2 925.884 135.396   3
  18 -13  -2 739.041 136.774   4
   5 -18  -2 825.631 151.250   4
  18 -13   3 986.693 140.118   4
  18 -13  -3 923.903 154.483   4
   5 -18   3 938.980 151.695   3
  13 -18   3 794.632 128.146   3
  13 -18  -3 819.372 147.301   4
  18 -13   3 680.725 103.446   3
   5 -18  -3 833.170 150.956   4
  13 -18   4 592.758 125.183   3
  13 -18  -4 656.701 136.344   4
  18 -13  -4 668.943 140.427   4
   5 -18   4 537.526 130.709   3
  18 -13   4 680.215 112.283   3
   5 -18  -4 457.988 135.151   4
  18 -13   5 1080.08 140.597   3
  18 -13  -5 1181.58 173.018   4
  13 -18   5 1068.74 160.931   3
  13 -18  -5 1089.45 180.534   4
   5 -18  -5 1152.64 182.276   4
   5 -18   5 944.982 159.174   3
  13 -18   6-65.5809 94.6126   3
  18 -13  -6-14.6842 96.2343   4
   5 -18   6 106.602 91.0733   3
  13 -18  -6 47.7152 100.354   4
  18 -13   6 92.2869 87.9512   3
   5 -18  -6 4.36400 96.8167   4
   5 -18  -7 794.147 169.334   4
   5 -18   7 496.575 35.3324   6
  13 -18   7 808.205 37.3314   6
  13 -18   7 770.954 144.213   3
  18 -13  -7 812.492 145.803   4
 -13  -5  -7 684.191 34.7331   9
 -18   5  -7 860.337 38.5504   9
   5 -18  -7 993.936 37.8444   8
  -5 -13  -7 819.470 41.1249   8
   5 -18   7 738.836 143.597   3
  13 -18  -7 736.910 151.594   4
   5 -18  -7 736.741 37.0719   7
  18 -13   7 720.358 128.707   3
  13 -18  -7 751.382 35.4280   7
   5 -18  -8 109.480 26.1028   7
  13 -18  -8 96.7001 24.4608   7
  13 -18   8 62.3952 87.2220   3
  13 -18   8 67.5276 25.6330   6
  18 -13  -8 81.9941 89.6751   4
   5 -18   8 130.274 26.0854   6
   5 -18  -8 86.3711 24.2466   8
  -5 -13  -8 112.639 28.7693   8
  13 -18  -8 121.633 98.6067   4
   5 -18   8 158.721 85.5403   3
  18 -13   8 150.315 93.6280   3
   5 -18  -9 181.373 27.5761   7
  13 -18  -9 198.491 29.0111   7
  13 -18   9 182.006 103.819   3
   5 -18   9 143.604 26.3022   6
   5 -18   9 173.412 92.7283   3
   5 -18  -9 172.259 26.0913   8
  -5 -13  -9 162.724 32.7947   8
  13 -18  -9 12.8905 104.418   4
  18 -13   9 267.201 103.382   3
  13 -18   9 152.049 27.8172   6
   5 -18 -10 153.489 27.4705   7
  13 -18 -10 152.608 29.4417   7
  13 -18  10 133.250 27.4676   6
   5 -18  10 179.783 25.9203   6
   5 -18 -10 160.378 27.6031   8
  -5 -13 -10 195.900 35.2160   8
   5 -18 -11 140.338 25.9672   7
  13 -18 -11 199.591 30.1841   7
   5 -18  11 153.575 24.0639   6
  13 -18  11 123.382 25.1657   6
   5 -18 -11 162.901 26.9741   8
  -5 -13 -11 169.374 33.9868   8
   5 -18 -12 40.0760 22.9041   7
  13 -18 -12 50.1767 27.2841   7
  13 -18  12 11.2569 20.7388   6
   5 -18  12 11.5140 21.5026   6
   5 -18 -12 63.1968 23.3045   8
  -5 -13 -12 39.9651 29.7127   8
   5 -18  13 16.0871 21.6915   6
   5 -18 -13-4.82906 20.6823   8
   5 -18 -13 4.16326 19.5613   7
  13 -18 -13-1.94800 25.5903   7
  13 -18  13-28.3789 18.0994   6
  -5 -13 -13 17.5289 28.0209   8
   5 -18 -14-8.00707 16.7994   7
  13 -18 -14 39.7815 22.6560   7
  18 -13 -14-7.13953 20.2061   7
  13 -18  14-14.2230 15.8445   6
  -5 -13 -14 21.1307 25.2879   8
   5 -18  14-14.8356 21.8350   6
   5 -18 -14-5.66009 18.6410   8
   5 -18 -15 52.1007 13.4460   7
  13 -18 -15 6.47544 17.5612   7
  18 -13 -15-2.91921 17.3335   7
   5 -18  15-6.46550 18.9578   6
   5 -18 -15 4.23776 14.5189   8
  -5 -13 -15-7.39250 20.5020   8
  13 -18  15 2.95253 14.1778   6
  13 -18 -16-11.1698 12.6986   7
  18 -13 -16-0.69294 13.3591   7
  -5 -13 -16 1.87423 15.4060   8
   5 -18  16 9.69467 16.3906   6
  13 -18  16-4.97961 11.8838   6
   5 -18 -16-2.68750 10.5275   8
  18 -14   0 1404.80 178.550   4
  14 -18   0 1323.50 174.240   4
  14 -18   0 1350.64 155.026   3
   4 -18  -1 455.735 134.320   4
  14 -18   1 523.856 126.763   4
  18 -14  -1 575.579 132.662   4
  14 -18   1 653.417 122.612   3
  14 -18  -1 560.233 137.623   4
  18 -14   1 579.931 129.493   4
  18 -14   2 1610.48 176.491   4
  18 -14  -2 1241.97 180.082   4
  14 -18  -2 1393.52 183.127   4
  14 -18   2 1388.83 162.527   4
   4 -18  -2 1632.08 207.496   4
  14 -18   2 1544.47 170.196   3
   4 -18  -3 979.239 166.399   4
  18 -14   3 1027.53 122.509   3
  14 -18  -3 1067.53 163.931   4
  18 -14   3 508.114 100.653   4
  18 -14  -3 758.458 144.782   4
  14 -18   3 927.410 139.281   3
   4 -18  -4 646.264 156.234   4
  14 -18   4 548.632 127.763   3
  18 -14  -4 616.385 146.266   4
  14 -18  -4 715.018 153.611   4
  18 -14   4 552.013 108.808   3
  14 -18   5 508.499 127.123   3
  18 -14  -5 383.959 128.557   4
  14 -18  -5 468.283 140.118   4
   4 -18   5 508.152 131.258   3
  18 -14   5 363.183 103.214   3
  14 -18   6 785.399 147.204   3
  14 -18  -6 1012.79 172.644   4
  -4 -14  -6 911.209 42.1248   8
  18 -14  -6 748.487 149.871   4
   4 -18   6 818.249 152.460   3
   4 -18  -6 804.421 38.1307   7
  18 -14   6 824.084 140.968   3
   4 -18  -7 182.565 28.2558   7
  14 -18  -7 161.900 24.8970   7
   4 -18   7 217.203 26.8855   6
  14 -18   7 243.421 104.210   3
 -14  -4  -7 136.603 24.0949   9
 -18   4  -7 138.457 25.8190   9
  14 -18   7 205.151 28.6793   6
  18 -14  -7 115.211 100.830   4
  -4 -14  -7 177.048 29.3897   8
  14 -18  -7 231.145 111.530   4
   4 -18  -7 172.527 25.6643   8
   4 -18   7 162.830 98.5130   3
  18 -14   7 253.695 99.7284   3
   4 -18  -8 212.209 27.2563   7
  14 -18  -8 206.980 27.5005   7
  14 -18   8 254.678 108.454   3
   4 -18   8 50.2924 93.4939   3
   4 -18   8 173.512 24.3675   6
  18 -14  -8 382.785 130.997   4
   4 -18  -8 218.042 28.5510   8
  -4 -14  -8 222.154 32.1470   8
  14 -18  -8 197.700 115.512   4
  14 -18   8 207.156 27.4783   6
  18 -14   8 246.984 109.707   3
   4 -18  -9 216.780 27.9552   7
  14 -18  -9 245.543 29.9015   7
   4 -18   9 248.351 25.9071   6
  14 -18   9 304.523 115.372   3
  14 -18   9 237.359 29.3886   6
   4 -18  -9 229.589 28.4289   8
  -4 -14  -9 269.875 35.7780   8
   4 -18   9 207.471 95.1565   3
  14 -18  -9 431.508 130.219   4
  18 -14   9 158.423 98.5041   3
   4 -18 -10 160.138 27.1611   7
  14 -18 -10 176.758 28.8728   7
   4 -18  10 129.436 23.7063   6
  14 -18  10 137.112 27.6154   6
   4 -18 -10 181.048 28.7171   8
  -4 -14 -10 222.499 36.0523   8
   4 -18 -11 43.3255 23.0877   7
  14 -18 -11 59.2900 26.9801   7
  14 -18  11 3.28723 22.7947   6
   4 -18 -11 19.8975 24.8860   8
  -4 -14 -11 32.2905 30.4716   8
   4 -18  11 13.8843 20.4952   6
   4 -18 -12 35.2795 21.5175   7
  14 -18 -12 25.5038 26.2675   7
   4 -18  12 8.32883 21.2677   6
  14 -18  12 16.1606 19.5626   6
   4 -18 -12 31.9697 23.9521   8
  -4 -14 -12 32.5539 30.2635   8
   4 -18 -13 49.2053 18.9436   7
  14 -18 -13 48.1053 26.3076   7
  18 -14 -13 42.1091 22.3971   7
   4 -18  13-1.54452 21.4943   6
   4 -18 -13 18.3400 21.7031   8
  -4 -14 -13 35.6582 28.7521   8
  14 -18  13 13.7850 16.2208   6
   4 -18 -14-11.6358 15.3778   7
  14 -18 -14-0.99733 21.7506   7
  18 -14 -14-9.51666 19.7181   7
   4 -18  14 35.2260 21.3687   6
 -14  -4 -14-15.8075 17.0767  10
  14 -18  14-17.2326 14.7612   6
   4 -18 -14 10.8448 18.9378   8
  -4 -14 -14-5.02737 24.1955   8
  14 -18 -15-11.3669 16.9408   7
  18 -14 -15 1.50646 15.9944   7
  14 -18  15-24.1663 12.8837   6
   4 -18 -15 7.72117 14.9477   8
  -4 -14 -15-10.6732 20.1636   8
   4 -18  15 13.5126 19.2114   6
   4 -18  16 5.96056 15.2890   6
  14 -18 -16 9.31482 12.0406   7
  18 -14 -16 6.01270 12.4864   7
  14 -18  16-11.2062 10.5472   6
   4 -18 -16-0.48892 10.7564   8
  -4 -14 -16 14.8213 14.3851   8
  18 -15   0 1089.07 152.066   4
  15 -18   0 1298.74 168.638   4
  15 -18   1 943.381 142.240   4
  18 -15   1 1003.94 147.057   4
  15 -18  -1 1085.04 158.676   4
  15 -18   1 928.848 130.702   3
  18 -15  -1 824.056 146.192   4
  15 -18  -2 442.884 122.651   4
  15 -18   2 543.571 106.898   3
  18 -15   2 544.629 112.034   4
  18 -15  -2 426.283 121.728   4
  15 -18   2 417.901 99.3282   4
  18 -15   3 1047.29 140.866   4
  18 -15   3 824.867 117.517   3
  15 -18   3 923.911 138.436   3
  18 -15  -3 772.185 149.787   4
  15 -18  -3 927.459 154.054   4
  18 -15   4 443.647 98.8904   3
  15 -18   4 646.658 123.410   3
  18 -15  -4 421.366 126.148   4
  15 -18  -4 604.200 141.936   4
  18 -15   5 598.547 112.066   3
  15 -18   5 514.684 121.612   3
  15 -18  -5 607.020 149.221   4
  18 -15  -5 709.796 149.264   4
   3 -18  -6 97.9587 24.6377   7
  15 -18  -6 120.608 22.4680   7
  15 -18   6 98.0092 93.6440   3
 -15  -3  -6 103.073 24.1327   9
 -18   3  -6 130.659 25.5509   9
  18 -15  -6 177.508 113.445   4
  15 -18  -6 230.160 118.670   4
   3 -18  -6 94.2631 23.8308   8
  -3 -15  -6 126.293 28.8813   8
  15 -18   6 102.572 25.3035   6
  -3 -15  -6 96.4883 22.6509   7
  18 -15   6 166.554 86.6119   3
  18 -15   7 361.800 26.1583   6
  15 -18   7 425.490 128.695   3
  15 -18   7 410.623 30.9770   6
  -3 -15  -7 306.729 26.9199   7
 -18   3  -7 375.925 31.0250   9
 -15  -3  -7 375.907 29.9852   9
  15 -18  -7 401.961 126.682   4
  -3 -15  -7 435.527 35.4675   8
  18 -15  -7 396.080 116.008   4
   3 -18  -7 374.452 30.4329   8
   3 -18  -7 407.775 31.2255   7
  15 -18  -7 361.532 28.0385   7
  18 -15   7 362.122 114.189   3
   3 -18  -8 12.2588 23.0909   7
  15 -18  -8-9.34155 22.4370   7
  15 -18   8 25.2902 93.8907   3
  15 -18   8 15.4245 25.3239   6
   3 -18  -8-4.70628 23.9357   8
  18 -15  -8-13.6217 85.6346   4
  15 -18  -8 20.8890 112.606   4
  18 -15   8-10.9859 20.1504   6
  -3 -15  -8 14.0142 28.5872   8
  18 -15   8 48.3861 82.6914   3
   3 -18   9 204.849 20.3666   6
  15 -18   9 307.922 29.6657   6
  15 -18   9 420.714 119.541   3
  18 -15  -9 168.783 87.7609   4
   3 -18  -9 339.057 32.6622   8
  15 -18  -9 225.124 102.042   4
  -3 -15  -9 317.871 35.2723   8
   3 -18  -9 300.192 29.1872   7
  15 -18  -9 316.793 30.2534   7
  18 -15   9 352.068 108.244   3
   3 -18 -10 194.233 26.6466   7
  15 -18 -10 191.303 28.6889   7
  15 -18  10 198.644 26.5328   6
   3 -18  10 178.113 22.4313   6
   3 -18 -10 184.616 29.3615   8
  -3 -15 -10 238.769 33.8445   8
   3 -18 -11 96.2000 23.0549   7
  15 -18 -11 73.0276 26.6413   7
  18 -15 -11 68.4952 23.0256   7
   3 -18  11 31.5190 20.0596   6
  15 -18  11 52.3581 22.0249   6
   3 -18 -11 100.388 26.7959   8
  -3 -15 -11 60.1227 31.3826   8
   3 -18 -12 45.3349 19.8025   7
  15 -18 -12 33.7846 25.8586   7
  18 -15 -12 34.0934 22.8262   7
  15 -18  12 9.49998 18.4835   6
   3 -18 -12 26.1655 24.6659   8
  -3 -15 -12 39.4721 30.2533   8
   3 -18  12-18.4791 21.3153   6
   3 -18 -13-15.9509 16.6667   7
  15 -18 -13 30.4383 25.0365   7
  18 -15 -13-2.33415 21.3504   7
  15 -18  13-17.2099 15.0385   6
   3 -18  13-6.85839 20.8080   6
  -3 -15 -13 9.43797 28.2020   8
   3 -18 -13 5.35203 21.3382   8
  15 -18 -14 15.6525 20.9534   7
  18 -15 -14 26.2557 19.3561   7
   3 -18  14-6.84202 20.2448   6
   3 -18 -14-4.81261 18.8925   8
  -3 -15 -14 29.1643 24.2443   8
  15 -18  14-19.3078 13.3082   6
  15 -18 -15 2.60710 15.9972   7
  18 -15 -15 15.8913 15.7063   7
  -3 -15 -15 13.2950 18.3629   8
  15 -18  15-1.32005 11.4479   6
   3 -18 -15 16.4474 14.9546   8
   3 -18  15-10.2067 17.9230   6
  15 -18 -16 0.00631 11.0210   7
  18 -15 -16 5.47956 11.7001   7
   3 -18  16-6.68406 11.4509   6
  15 -18  16 4.82049 9.17657   6
   3 -18 -16 7.35093 10.1231   8
  -3 -15 -16 1.20540 13.0620   8
  18 -16   0 407.274 130.454   4
  16 -18   0 485.276 125.093   4
  18 -16   1 1464.55 176.422   4
  18 -16  -1 1385.57 181.497   4
  16 -18  -1 1155.95 170.433   4
  16 -18   1 1279.25 170.016   4
  16 -18   1 1431.89 148.880   3
  18 -16   2 1384.03 165.030   4
  18 -16  -2 1334.74 182.974   4
  16 -18  -2 1354.49 185.084   4
  16 -18   2 977.871 138.335   4
  16 -18   2 1529.93 160.122   3
  18 -16   3 541.853 106.818   3
  16 -18   3 611.186 125.715   3
  16 -18  -3 556.119 136.250   4
  18 -16  -3 524.014 134.080   4
  18 -16   4 628.491 118.328   3
  16 -18   4 741.872 139.238   3
  16 -18  -4 896.595 168.821   4
  18 -16  -4 791.687 154.128   4
  18 -16   5 534.493 118.065   3
  16 -18  -5 718.344 162.062   4
  16 -18   5 579.577 124.222   3
  -2 -16  -5 683.121 37.5673   8
  18 -16  -5 581.294 148.567   4
  16 -18   5 625.347 36.1547   6
   2 -18  -5 623.837 35.9878   7
  18 -16   6 801.120 144.739   3
  16 -18   6 918.123 155.391   3
  18 -16   6 761.855 35.1514   6
  16 -18   6 877.714 39.4769   6
   2 -18  -6 909.701 39.7665   8
 -16  -2  -6 935.618 41.8008   9
 -18   2  -6 861.751 41.4182   9
  18 -16  -6 889.665 159.274   4
  -2 -16  -6 1110.17 45.5726   8
   2 -18  -6 909.832 39.9459   7
  -2 -16  -6 934.082 40.3014   7
  16 -18  -6 826.634 35.7457   7
  16 -18  -6 1041.98 174.738   4
  18 -16   7 208.146 99.9865   3
  16 -18  -7 220.746 25.2095   7
  16 -18   7 329.350 123.673   3
  18 -16   7 238.175 25.9019   6
  -2 -16  -7 265.894 31.8807   8
 -18   2  -7 228.065 28.1815   9
 -16  -2  -7 231.981 27.6259   9
  16 -18   7 223.566 27.5888   6
  16 -18  -7 228.744 113.622   4
   2 -18  -7 263.035 29.4185   8
  18 -16  -7 380.462 132.133   4
   2 -18  -7 277.624 28.3183   7
  18 -16  -7 224.314 23.4843   7
  -2 -16  -7 73.0799 20.1445   7
  16 -18  -8 899.252 174.899   4
  16 -18   8 1003.41 170.789   3
  18 -16   8 737.369 34.0386   6
  16 -18   8 941.036 39.0604   6
  18 -16   8 1065.16 171.207   3
   2 -18  -8 990.397 44.7599   8
  -2 -16  -8 1198.97 49.9659   8
  18 -16  -8 921.981 164.071   4
  -2 -16  -8 737.881 34.9194   7
   2 -18  -8 975.483 41.2875   7
  16 -18  -8 938.813 39.5416   7
  18 -16  -8 730.113 34.2841   7
   2 -18  -9 233.402 27.8851   7
  18 -16  -9 229.966 26.0911   7
   2 -18  -9 270.319 32.8429   8
  16 -18   9 240.786 28.3646   6
  18 -16   9 204.608 24.1997   6
  -2 -16  -9 262.290 34.1398   8
  16 -18  -9 344.845 30.8334   7
   2 -18 -10 59.7850 23.1279   7
  16 -18 -10 84.8816 26.5864   7
  18 -16 -10 61.9854 23.7216   7
   2 -18  10 142.891 20.6222   6
   2 -18 -10 107.308 29.3841   8
  16 -18  10 62.9407 23.9974   6
  18 -16  10 83.1125 20.7488   6
  -2 -16 -10 88.9253 31.1582   8
   2 -18 -11-12.8729 20.5078   7
  16 -18 -11 48.8616 25.4245   7
  18 -16 -11-3.88281 22.8752   7
  18 -16  11 14.7050 16.5793   6
  16 -18  11 2.32314 20.3642   6
   2 -18 -11 59.3939 26.7897   8
  -2 -16 -11 60.3219 30.9300   8
   2 -18 -12 31.8701 18.8235   7
  16 -18 -12 47.1708 25.2939   7
  18 -16 -12 41.8024 23.1379   7
  16 -18  12 2.34095 17.2147   6
   2 -18  12 7.92930 20.6195   6
  -2 -16 -12 75.2132 30.4968   8
   2 -18 -12 26.7891 25.2090   8
  16 -18 -13 60.6792 23.6927   7
  18 -16 -13 33.0088 21.0217   7
   2 -18  13-14.4722 20.3980   6
   2 -18 -13 25.7172 22.2057   8
  -2 -16 -13 36.0925 26.7899   8
  16 -18  13-9.27360 13.9529   6
  16 -18 -14 9.66380 19.1508   7
  18 -16 -14-3.89821 18.5695   7
   2 -18  14-6.78775 19.7505   6
   2 -18 -14 2.33581 18.1090   8
  -2 -16 -14 22.0218 21.8757   8
  16 -18  14-32.6878 12.6246   6
  16 -18 -15 24.4151 15.6008   7
  18 -16 -15-4.29328 15.0089   7
   2 -18  15 6.33338 16.1634   6
  16 -18  15-18.4748 10.7227   6
  -2 -16 -15 9.74780 16.7460   8
 -16  -2 -15-14.5113 13.4432  10
   2 -18 -15 14.3030 14.7214   8
  -2 -16 -16 14.5896 12.4054   8
  16 -18 -16 10.8234 10.7271   7
  18 -16 -16 6.66369 10.4847   7
   2 -18 -16-6.82346 10.0234   8
  18 -17   0 132.012 90.6195   4
  17 -18   0 141.282 94.6649   4
  18 -17   1 10.1606 96.7743   4
  18 -17  -1-61.5064 87.4556   4
  17 -18  -1 18.1680 85.7119   4
  17 -18   1 67.0127 80.3101   4
  18 -17   2-24.1064 70.3860   4
  18 -17  -2 50.3699 93.6138   4
  17 -18   2-35.2364 67.0077   4
  17 -18   2 8.99204 69.3913   3
  17 -18  -2-81.0111 100.312   4
  18 -17   3 87.5523 86.3878   3
  17 -18   3-39.5749 74.2749   3
  18 -17  -3-2.89030 93.7510   4
  17 -18  -3 7.42505 88.4636   4
  18 -17   4 78.1090 76.2311   3
  17 -18   4 214.110 90.6202   3
  18 -17  -4 268.722 123.400   4
  17 -18  -4 98.2223 99.5928   4
   1 -18  -4 155.824 27.2916   7
  18 -17   5 8.47858 73.5002   3
  17 -18   5 107.642 90.4650   3
  17 -18  -5 56.6971 100.365   4
  17 -18   5 72.1276 24.8025   6
   1 -18  -5 63.2130 23.3812   8
 -18   1  -5 14.1782 22.8600   9
  -1 -17  -5 92.1658 26.5241   8
  18 -17   5 67.5512 24.0152   6
 -17  -1  -5 32.9313 24.6707   9
  18 -17  -5 162.877 114.050   4
  -1 -17  -5 96.3815 24.5875   7
   1 -18  -5 55.1223 25.1487   7
   1 -18  -6 70.6294 25.4356   7
  18 -17   6 92.4532 80.3662   3
  17 -18  -6 57.1552 20.8799   7
  17 -18   6 12.3513 82.3007   3
  -1 -17  -6 94.4050 28.2129   8
 -17  -1  -6 79.2581 27.0194   9
 -18   1  -6 60.8771 24.9511   9
  18 -17  -6 111.665 104.490   4
  17 -18  -6 127.736 111.425   4
   1 -18  -6 97.7180 25.0316   8
  18 -17   6 43.3196 23.9373   6
  17 -18   6 92.6019 25.9644   6
  -1 -17  -6 69.5472 24.3153   7
   1 -18  -7 84.4527 25.4255   7
  17 -18  -7 156.680 100.876   4
  18 -17   7-13.7807 83.9451   3
  17 -18  -7 68.3901 22.8946   7
  18 -17  -7 79.5609 21.6581   7
  17 -18   7-36.5789 87.5489   3
  17 -18   7 116.580 26.2974   6
  -1 -17  -7 175.239 31.2761   8
 -18   1  -7 46.6238 24.7039   9
  18 -17  -7 45.9701 94.4736   4
  18 -17   7 106.319 24.7406   6
   1 -18  -7 128.441 27.5234   8
  -1 -17  -7 90.1091 24.6754   7
 -17  -1  -7 67.5583 25.0925   9
   1 -18  -8 104.928 26.3450   7
  18 -17   8-19.3282 84.1791   3
  17 -18  -8 105.659 24.8431   7
  18 -17  -8 95.5167 23.6910   7
  17 -18   8 45.6893 89.5789   3
 -18   1  -8 116.028 26.0363   9
 -17  -1  -8 97.4569 25.3743   9
  -1 -17  -8 134.829 32.0846   8
  17 -18   8 149.344 27.0005   6
  18 -17   8 116.415 24.1906   6
  17 -18  -8 264.277 107.745   4
   1 -18  -8 106.783 29.5556   8
  -1 -17  -8 163.183 25.7323   7
   1 -18  -9 29.8216 22.6352   7
  17 -18  -9 9.84813 22.6315   7
  18 -17  -9 22.7852 22.6326   7
  17 -18   9 20.5116 23.4170   6
   1 -18  -9 40.9005 28.1059   8
  18 -17   9-1.94472 20.7121   6
  -1 -17  -9 3.00232 29.2097   8
  -1 -17  -9-55.1107 21.0796   7
   1 -18 -10 1.11693 20.1985   7
  17 -18 -10-0.57552 23.1146   7
  18 -17 -10 7.80116 21.9698   7
   1 -18 -10 17.7832 27.4518   8
  18 -17  10-6.61032 18.9659   6
  17 -18  10 17.6322 20.8420   6
  -1 -17 -10 10.6603 28.3560   8
   1 -18 -11 8.27910 18.5312   7
  17 -18 -11 24.1824 23.3164   7
  18 -17 -11 38.5965 22.8477   7
   1 -18 -11 38.9246 26.5671   8
  18 -17  11-13.3551 16.6007   6
  17 -18  11 28.6502 18.3349   6
  -1 -17 -11 18.5246 27.8839   8
  17 -18 -12 9.84643 22.5312   7
  18 -17 -12 13.2440 21.3525   7
   1 -18  12 5.03763 19.5924   6
  17 -18  12-0.68661 15.2327   6
  18 -17  12 1.32249 13.4000   6
   1 -18 -12 21.6262 24.6363   8
  -1 -17 -12 8.03176 25.8532   8
  17 -18 -13 24.5163 20.9723   7
  18 -17 -13 7.39122 20.0605   7
   1 -18  13 6.34150 18.4938   6
  18 -17  13 1.64731 10.9485   6
  17 -18  13-27.8780 12.6471   6
   1 -18 -13-22.4691 22.1052   8
  -1 -17 -13 18.1243 23.3456   8
  17 -18 -14 2.41186 17.9442   7
  18 -17 -14 4.70746 17.0801   7
   1 -18 -14 24.2862 18.0415   8
   1 -18  14-1.33783 15.2709   6
  17 -18  14 1.24082 10.7949   6
  -1 -17 -14 1.69750 19.0854   8
  17 -18 -15 10.7298 13.9628   7
  18 -17 -15 3.70179 13.2348   7
  -1 -17 -15-4.90513 15.0773   8
  17 -18  15-6.64217 9.01033   6
   1 -18  15 16.2128 14.6453   6
   1 -18 -15-2.19991 13.5755   8
 -17  -1 -15 7.65522 12.9343  10
  17 -18 -16 12.9050 9.41302   7
  18 -17 -16-9.06624 9.53840   7
  -1 -17 -16-1.88391 10.5309   8
  18 -18   0 1101.92 163.937   4
  18 -18  -1 1160.27 163.016   4
  18 -18   1 839.826 134.972   4
  18 -18  -2 1491.01 192.237   4
  18 -18   2 1008.64 144.333   4
   0 -18  -3 979.535 39.7116   8
  18 -18  -3 989.013 165.235   4
  18 -18   3 986.977 133.799   3
   0 -18  -3 1001.33 43.0139   7
 -18   0  -3 946.338 40.9111   9
  18 -18   4 703.246 121.915   3
 -18   0  -4 644.516 36.8877   9
   0 -18  -4 597.705 34.4526   8
   0 -18  -4 606.386 35.7599   7
  18 -18  -4 742.847 152.442   4
  18 -18   5 854.262 143.486   3
  18 -18  -5 881.531 162.776   4
 -18   0  -5 822.030 41.8282   9
   0 -18  -5 784.007 38.7416   8
   0 -18  -5 834.418 39.7519   7
  18 -18   6 656.271 127.216   3
   0 -18  -6 823.208 39.1291   8
 -18   0  -6 753.389 39.1744   9
   0 -18  -6 729.002 37.8077   7
  18 -18   7 1075.24 39.8178   6
  18 -18  -7 1138.65 180.858   4
 -18   0  -7 1182.41 46.0075   9
   0 -18  -7 1065.50 42.2359   7
   0 -18  -7 1260.49 47.5108   8
  18 -18  -7 1064.62 37.9152   7
   0 -18  -8 499.543 36.3534   8
  18 -18   8 459.555 29.9062   6
 -18   0  -8 448.184 32.5181   9
   0 -18  -8 434.340 30.8769   7
  18 -18  -8 448.362 29.0557   7
   0 -18  -9 128.001 29.8526   8
  18 -18  -9 127.461 23.5113   7
  18 -18   9 114.921 22.9749   6
   0 -18  -9 137.950 23.6078   7
  18 -18 -10 46.9665 22.4286   7
  18 -18  10 51.3830 19.8064   6
   0 -18 -10 51.1918 26.4799   8
   0 -18 -10 4.26987 18.7862   7
  18 -18 -11 30.0539 22.3084   7
  18 -18  11-4.11983 16.5732   6
   0 -18 -11 18.4805 24.9301   8
  18 -18 -12 14.4743 20.6434   7
  18 -18  12 11.4434 12.9481   6
   0 -18 -12 29.1005 23.8292   8
  18 -18 -13 16.8942 18.8052   7
  18 -18  13-14.3882 10.8611   6
   0 -18 -13 10.7075 20.7649   8
  18 -18 -14 32.3902 16.1735   7
  18 -18  14-1.42043 9.38541   6
   0 -18 -14-4.49239 16.6087   8
  18 -18 -15 0.24991 11.8878   7
 -18   0 -15-10.7880 12.0532  10
   0 -18 -15-3.83413 13.1573   8
  10 -19   0 2.14334 70.7012   4
   9 -19   0-18.9493 82.2458   4
  10 -19   1 79.2501 80.5596   3
  10 -19   1 157.797 80.1472   4
   9 -19   1 37.6992 81.8925   3
  10 -19  -1 16.7428 84.5442   4
   9 -19  -1-11.1230 86.6351   4
   9 -19   1-17.0782 76.1263   4
   9 -19   2 47.0316 85.4906   3
  10 -19   2-25.1135 81.5664   3
  10 -19  -2 105.328 87.6453   4
   9 -19  -2 68.8857 81.2336   4
  10 -19   2 43.8933 76.5931   4
   9 -19   2 31.6593 64.8057   4
  10 -19   3 55.4470 80.5050   3
   9 -19  -3-13.4857 82.5341   4
   9 -19   3 56.8748 85.8406   3
  10 -19  -3-16.3587 85.5426   4
  10 -19   4 47.1617 89.8575   3
  19  -9   4 59.8838 66.7762   3
  19 -10   4 60.6917 57.7955   3
   9 -19   4 107.184 95.9590   3
  10 -19  -4 35.2303 88.7519   4
   9 -19  -4 17.9378 81.7430   4
  10 -19  -5-16.4836 89.8222   4
   9 -19   5 56.1693 86.8405   3
  19 -10   5 11.1902 59.9547   3
  19  -9   5-18.7350 68.4041   3
   9 -19  -5-88.2209 103.998   4
  10 -19   5-60.0647 91.2317   3
   9 -19  -6 24.4231 22.2466   7
  10 -19  -6 14.2799 21.5206   7
  10 -19   6-97.2841 100.200   3
   9 -19   6 30.3002 23.7156   6
  10 -19   6 35.7654 22.5467   6
  19  -9  -6-230.847 99.5434   4
  19 -10  -6-68.9612 94.6339   4
  19  -9   6-67.2688 78.1536   3
  19 -10   6-38.3821 79.2092   3
   9 -19   6-35.2979 94.7039   3
  10 -19  -6-79.3965 95.3404   4
   9 -19  -6 184.109 105.031   4
   9 -19  -7 63.1685 25.2514   7
  10 -19  -7 35.2171 25.2811   7
   9 -19   7 40.5893 83.5077   3
  -9 -10  -7 27.5092 20.7756  10
 -19   9  -7 20.7670 23.5125   9
 -10  -9  -7 22.2573 21.5993  10
  19  -9  -7-104.956 97.7308   4
  19 -10  -7 131.231 89.6583   4
 -19  10  -7 55.5647 24.3919   9
  19  -9   7 118.857 87.0763   3
  19 -10   7 184.519 94.1165   3
   9 -19   7 32.0917 25.7707   6
  10 -19   7 49.0307 25.5116   6
 -10  -9  -7 31.1293 23.8003   8
  -9 -10  -7 29.7502 27.3484   8
  10 -19  -7 27.5795 89.6531   4
  10 -19   7 78.8619 98.4633   3
   9 -19  -7 106.385 97.7276   4
   9 -19  -8 36.5752 24.3591   7
  10 -19  -8 0.15714 23.9062   7
  10 -19   8 30.5530 25.2799   6
  19  -9   8-6.73557 75.5129   3
  10 -19   8 111.766 97.3657   3
 -10  -9  -8 25.7654 19.9879  10
   9 -19   8-9.79653 74.9242   3
  19 -10   8-27.6006 79.7141   3
  -9 -10  -8-12.7666 19.0279  10
 -10  -9  -8-25.1476 26.9494   8
  -9 -10  -8-0.84715 24.6098   8
  10 -19  -8-20.1359 99.3690   4
   9 -19  -8-7.23056 91.4233   4
   9 -19   8 1.72955 24.1431   6
  19 -10  -8 123.380 77.5950   4
   9 -19  -9 50.9497 27.0675   7
  10 -19  -9 11.8090 26.8793   7
 -10  -9  -9 32.1315 20.8047  10
  19 -10   9 42.2927 82.4536   3
   9 -19   9 41.6602 84.0709   3
  10 -19   9 0.83025 84.8169   3
   9 -19   9-11.6962 26.7093   6
  10 -19   9-3.30346 26.3647   6
  19  -9   9 21.4385 85.7917   3
  -9 -10  -9 13.4103 28.9005   8
 -10  -9  -9 43.8197 27.9096   8
  10 -19  -9-105.888 105.751   4
   9 -19  -9-30.2470 93.4870   4
   9 -19 -10 48.4653 27.2834   7
  10 -19 -10 46.9875 26.5133   7
   9 -19  10 23.7433 25.9839   6
  10 -19  10 37.6016 26.5277   6
 -10  -9 -10 35.7113 27.1294   8
  -9 -10 -10 33.9268 29.2106   8
   9 -19 -11 25.0475 26.1334   7
  10 -19 -11 15.8422 26.7628   7
   9 -19  11 13.4332 23.1910   6
  10 -19  11-3.58917 23.2916   6
 -10  -9 -11 30.0352 25.6064   8
  -9 -10 -11 28.3994 27.6154   8
   9 -19 -12 14.5778 25.3714   7
  10 -19 -12-12.2694 25.7306   7
  -9 -10 -12-3.83616 25.1089   8
 -10  -9 -12 7.55116 24.4523   8
  10 -19  12-33.1292 21.9032   6
   9 -19  12 27.1100 21.8452   6
   9 -19 -13 24.4656 23.6861   7
  10 -19 -13 8.75410 24.3010   7
   9 -19  13 9.83898 20.5913   6
  10 -19  13-7.84765 19.9740   6
 -10  -9 -13 14.1642 22.5350   8
  -9 -10 -13 18.8724 24.0112   8
   9 -19 -14 23.6860 20.2134   7
  10 -19 -14 5.98781 20.2787   7
   9 -19  14 21.1909 19.3486   6
  10 -19  14 6.80090 17.7790   6
 -10  -9 -14-17.5323 19.7262   8
  -9 -10 -14 16.6570 21.1877   8
   9 -19 -15-14.6033 15.6401   7
  10 -19 -15 0.45880 15.7635   7
  -9 -10 -15 6.46081 16.6886   8
 -10  -9 -15 0.73065 15.7319   8
  10 -19  15 4.84879 16.1178   6
   9 -19  15 9.85940 16.7819   6
   9 -19 -16 3.10061 8.68536   7
  10 -19 -16 2.30283 10.0597   7
  19 -10 -16-23.6533 13.2440   7
  19  -9 -16-2.16801 12.7210   7
  10 -19  16 5.48596 12.9415   6
   9 -19  16 3.21758 13.9878   6
  -9 -10 -16-2.11241 11.3734   8
 -10  -9 -16 8.57391 11.7666   8
  11 -19   0 1052.36 154.395   4
   8 -19   0 1154.02 158.018   4
  11 -19   0 985.877 141.753   3
  11 -19   1 965.164 141.631   3
  11 -19   1 1039.66 145.683   4
  11 -19  -1 940.148 149.712   4
   8 -19  -1 936.352 148.258   4
   8 -19   1 992.163 144.051   4
  11 -19  -2 1383.33 177.228   4
   8 -19  -2 1597.69 188.368   4
   8 -19   2 1494.04 185.082   3
  11 -19   2 1498.57 168.829   4
  11 -19   2 1455.16 171.332   3
  11 -19   3 720.233 135.707   3
   8 -19   3 674.181 140.312   3
  11 -19  -3 616.060 131.243   4
   8 -19  -3 710.905 150.826   4
  11 -19   4 803.381 146.214   3
   8 -19   4 810.157 149.669   3
  19 -11   4 760.783 111.814   3
  11 -19  -4 879.002 153.510   4
   8 -19  -4 770.970 152.658   4
  11 -19   5 419.488 121.403   3
  19 -11  -5 352.661 117.327   4
   8 -19   5 616.490 138.614   3
  11 -19  -5 500.188 133.867   4
  19 -11   5 565.555 105.465   3
   8 -19  -5 692.637 147.129   4
  11 -19  -6 351.030 132.815   4
   8 -19  -6 232.153 27.5069   7
  11 -19  -6 256.727 27.0754   7
   8 -19   6 237.053 28.9757   6
  11 -19   6 297.962 29.2591   6
 -11  -8  -6 224.790 24.5842  10
  19 -11  -6 346.616 115.045   4
   8 -19   6 385.037 119.122   3
  11 -19   6 330.935 118.922   3
  -8 -11  -6 220.218 30.2145   8
  19 -11   6 282.418 91.7828   3
   8 -19  -6 147.894 100.606   4
   8 -19   7 660.198 38.8940   6
  11 -19   7 765.696 38.0621   6
  -8 -11  -7 616.945 31.2241  10
 -19   8  -7 661.953 37.3762   9
  -8 -11  -7 742.572 42.3964   8
 -19  11  -7 930.007 41.6656   9
   8 -19   7 781.608 148.610   3
  19 -11  -7 682.365 138.774   4
  19 -11   7 782.609 140.130   3
  11 -19   7 649.640 136.467   3
 -11  -8  -7 609.012 33.2705  10
  19  -8  -7 793.583 142.128   4
 -11  -8  -7 681.149 38.4061   8
   8 -19  -7 659.666 36.9765   7
  11 -19  -7 662.451 36.1904   7
  11 -19  -7 718.557 158.671   4
   8 -19  -7 756.960 161.452   4
   8 -19   8 268.813 32.1630   6
  11 -19   8 358.597 32.1408   6
 -11  -8  -8 297.216 28.2797  10
  11 -19   8 479.184 128.024   3
   8 -19   8 383.170 115.129   3
  19  -8   8 336.814 112.938   3
 -11  -8  -8 230.224 27.0450   8
  19 -11   8 336.002 105.992   3
  19 -11  -8 307.239 105.147   4
   8 -19  -8 339.089 30.8532   7
  11 -19  -8 380.685 32.1217   7
  11 -19  -8 388.216 128.652   4
  -8 -11  -8 375.992 33.8170   8
   8 -19  -8 268.708 120.899   4
   8 -19  -9 164.044 100.234   4
   8 -19  -9 186.992 31.1350   7
  11 -19   9 142.496 101.188   3
   8 -19   9 170.529 30.2196   6
 -11  -8  -9 169.101 25.7093  10
  11 -19   9 216.028 31.1830   6
  19  -8   9 211.191 95.4688   3
 -11  -8  -9 261.504 32.8981   8
  -8 -11  -9 155.223 32.3352   8
  19 -11   9 105.314 90.3524   3
  11 -19  -9 252.651 31.6865   7
  11 -19  -9 296.223 120.201   4
   8 -19   9 239.986 107.916   3
   8 -19 -10 82.2610 27.4948   7
  11 -19 -10 119.995 30.2226   7
 -11  -8 -10 50.2605 21.9045  10
   8 -19  10 73.8133 26.4962   6
  11 -19  10 55.5425 28.0250   6
 -11  -8 -10 71.0752 27.4397   8
  -8 -11 -10 32.6197 30.5543   8
   8 -19 -11 8.93570 25.7364   7
  11 -19 -11 29.0293 27.2096   7
  11 -19  11-6.37845 24.4478   6
   8 -19  11 4.72458 23.0917   6
 -11  -8 -11 35.7110 24.8253   8
  -8 -11 -11 17.3172 28.9267   8
   8 -19  12 102.582 23.2639   6
   8 -19 -12 21.5187 25.1251   7
  11 -19 -12 37.4017 27.1688   7
  11 -19  12-14.2821 22.4690   6
 -11  -8 -12 22.1794 24.0474   8
  -8 -11 -12 11.3129 27.1248   8
   8 -19 -13 9.16417 22.5088   7
  11 -19 -13 26.4073 25.3235   7
   8 -19  13-0.27221 20.4528   6
 -11  -8 -13 12.6371 22.3440   8
  -8 -11 -13 18.6253 25.3371   8
  11 -19  13 9.71114 20.6043   6
   8 -19 -14-10.3604 19.0084   7
  11 -19 -14 27.1753 21.3438   7
 -11  -8 -14 1.84000 18.7898   8
   8 -19  14 13.5063 19.5489   6
  11 -19  14 15.2149 18.0928   6
  -8 -11 -14 32.9803 22.3959   8
   8 -19 -15-8.87432 14.8352   7
  11 -19 -15-2.42661 16.4444   7
  19 -11 -15 1.81788 16.6781   7
   8 -19  15-5.50873 17.0154   6
  -8 -11 -15 21.7956 18.1613   8
 -11  -8 -15 5.84538 12.4808   8
  11 -19  15-5.67605 15.5740   6
   8 -19 -16 8.40985 9.95293   7
  11 -19 -16 11.4724 11.2832   7
  19 -11 -16 9.53341 13.3625   7
   8 -19  16 4.32180 14.2571   6
  11 -19  16 2.34405 12.8512   6
  -8 -11 -16-0.98243 13.5416   8
  12 -19   0 257.241 105.211   3
  12 -19   0 11.1257 93.0225   4
   7 -19   0 205.214 104.443   4
  12 -19   1 296.989 117.237   3
  12 -19  -1 133.239 101.238   4
  12 -19   1-30.0315 85.5163   4
   7 -19  -1 198.862 123.458   4
   7 -19   1 106.642 99.9348   4
  12 -19   2 189.342 108.336   3
  12 -19  -2 79.6787 100.045   4
  12 -19   2 27.1194 77.1342   4
   7 -19  -2 175.670 115.768   4
  19 -12  -3 113.373 107.409   4
  12 -19   3 143.983 106.532   3
  12 -19  -3 20.3329 97.6723   4
   7 -19   3 240.695 125.097   3
   7 -19  -3 23.2180 98.2575   4
  12 -19   4 167.282 114.399   3
   7 -19   4 353.113 127.817   3
  12 -19  -4 172.631 114.258   4
  19 -12   4 42.6691 70.4552   3
  19 -12  -4 127.027 111.637   4
   7 -19  -4 179.154 120.921   4
   7 -19   5 206.609 120.114   3
  12 -19   5 159.421 108.911   3
  12 -19  -5 131.449 111.403   4
  19 -12   5 89.0552 80.9947   3
   7 -19  -5 121.586 106.401   4
  19 -12  -5 142.558 107.753   4
   7 -19   6 300.465 31.1275   6
  12 -19   6 235.353 33.4358   6
 -12  -7  -6 299.018 30.6627  10
  12 -19   6 187.714 124.444   3
  19 -12  -6 124.849 112.808   4
  -7 -12  -6 313.965 34.2707   8
 -19   7  -6 90.5918 26.4532   9
   7 -19   6 247.847 128.971   3
   7 -19  -6 353.177 34.4056   7
  12 -19  -6 217.122 127.468   4
  19 -12   6 73.3929 82.7355   3
  12 -19  -6 198.067 29.3204   7
 -12  -7  -6 151.623 26.6230   9
   7 -19  -6 46.3130 109.355   4
  19 -12  -7-20.5507 83.4138   4
   7 -19  -7 96.3297 26.7978   7
  12 -19  -7 47.0456 25.5987   7
  12 -19   7-78.6217 97.6027   3
  12 -19   7 97.7349 26.2396   6
 -19   7  -7 21.3686 23.8493   9
   7 -19   7 90.7310 95.0977   3
   7 -19   7 54.1627 26.6309   6
  -7 -12  -7 106.841 29.6530   8
  19 -12   7-89.1799 90.4402   3
  12 -19  -7 17.1474 97.8405   4
 -12  -7  -7 8.37510 21.3228   9
   7 -19  -7 80.7444 98.2476   4
   7 -19  -8-40.3821 103.055   4
   7 -19  -8 86.6833 29.5068   7
  12 -19  -8 92.0811 29.0742   7
  12 -19   8 23.5047 94.6491   3
  12 -19  -8-24.1814 113.961   4
   7 -19   8 62.1382 94.9781   3
   7 -19   8 147.651 29.6852   6
  19 -12  -8-44.4181 90.4893   4
  12 -19   8 98.9035 28.7007   6
  -7 -12  -8 164.811 34.7066   8
  19 -12   8 69.0856 87.7171   3
   7 -19  -9 71.7235 27.2122   7
  12 -19  -9 97.5481 28.4890   7
  19 -12   9-2.69646 80.7276   3
  12 -19   9-5.52359 94.8509   3
   7 -19   9-12.2621 90.1307   3
   7 -19   9 80.2226 27.7190   6
  12 -19   9 59.8795 28.1598   6
 -12  -7  -9 147.294 28.3606   8
  -7 -12  -9 71.0864 32.5884   8
  12 -19  -9 27.6029 92.7520   4
   7 -19 -10 78.3433 28.6248   7
  12 -19 -10 87.4339 30.0674   7
   7 -19  10 103.716 27.4822   6
  12 -19  10 23.8003 27.3928   6
 -12  -7 -10 44.2563 22.0860   8
  -7 -12 -10 76.6570 31.8315   8
   7 -19 -11 53.0241 26.3143   7
  12 -19 -11 68.7480 28.4872   7
   7 -19  11 17.8995 22.4160   6
  12 -19  11 54.3091 25.3735   6
 -12  -7 -11 42.4835 23.1199   8
  -7 -12 -11 38.7405 28.8202   8
 -12  -7 -11 78.7488 22.1849  10
   7 -19 -12 17.8249 24.7639   7
  12 -19 -12 18.6109 27.2115   7
  12 -19  12-16.5430 22.4983   6
   7 -19  12 26.3174 21.4600   6
 -12  -7 -12-0.06270 22.5472   8
  -7 -12 -12-4.37853 27.2199   8
   7 -19 -13 19.1789 21.8475   7
  12 -19 -13 5.39382 24.9662   7
  12 -19  13-11.0804 19.1375   6
   7 -19  13-13.4835 20.7607   6
 -12  -7 -13-16.2692 21.0997   8
  -7 -12 -13-0.90719 25.3753   8
   7 -19 -14 35.7402 17.8255   7
  12 -19 -14 35.8743 21.1855   7
  12 -19  14-31.3321 17.2772   6
   7 -19  14 6.86158 19.6476   6
 -12  -7 -14-2.64552 17.8855   8
  -7 -12 -14-19.0972 22.5697   8
   7 -19 -15-13.9172 13.2318   7
  12 -19 -15 9.62617 16.3244   7
  19 -12 -15-3.12994 15.9159   7
   7 -19  15-6.21193 17.2310   6
  12 -19  15-9.80202 14.5708   6
  -7 -12 -15 8.27819 18.1016   8
  12 -19 -16 10.4180 10.9938   7
  19 -12 -16 17.3816 12.9349   7
   7 -19  16 6.62328 14.0160   6
  12 -19  16-0.87630 11.8109   6
  -7 -12 -16 14.1075 13.3867   8
  13 -19   0 391.974 107.877   3
  13 -19   0 203.952 107.505   4
   6 -19   0 453.153 130.872   4
   6 -19   1-9.16498 79.6902   4
  13 -19  -1 67.5500 97.4303   4
  19 -13  -1 91.7430 104.918   4
  13 -19   1 99.6037 86.4592   3
  13 -19   1-49.1107 93.3124   4
   6 -19  -1-41.8114 100.224   4
  13 -19   2 87.7196 78.7019   4
  13 -19   2 72.1490 90.5765   3
  19 -13  -2 89.0057 100.692   4
  13 -19  -2 99.5855 102.360   4
   6 -19  -2 54.8418 98.5879   4
  13 -19  -3 40.1567 100.728   4
  13 -19   3-38.3723 87.2749   3
  19 -13  -3 117.747 104.278   4
   6 -19  -3 212.964 116.387   4
  13 -19   4 260.618 119.302   3
  19 -13  -4 132.362 110.789   4
   6 -19   4 88.8095 110.045   3
  13 -19  -4 181.755 129.999   4
  19 -13   4 9.94228 71.5349   3
   6 -19  -4 161.684 115.847   4
  13 -19   5 52.5409 98.4979   3
   6 -19   5 197.810 121.571   3
  19 -13  -5 87.8969 107.503   4
  13 -19  -5 100.136 114.463   4
  19 -13   5-35.8625 75.6653   3
   6 -19  -5 9.67900 103.782   4
   6 -19  -6 132.054 29.4488   7
  13 -19  -6 61.7376 27.3875   7
 -13  -6  -6 86.9430 25.2010   9
  19 -13  -6 15.3220 108.649   4
 -19   6  -6 48.8183 26.5981   9
  13 -19   6 208.715 120.579   3
   6 -19   6 124.002 29.3748   6
   6 -19   6 33.6850 107.072   3
  -6 -13  -6 134.189 32.1070   8
  13 -19   6 120.539 29.4423   6
  13 -19  -6 11.5137 113.617   4
  19 -13   6 53.4157 89.7277   3
   6 -19  -6-66.7162 110.045   4
   6 -19  -7 56.5168 108.816   4
  -6 -13  -7-2.39657 27.2009   8
   6 -19  -7 42.2341 24.5409   7
  13 -19  -7-11.3548 23.3080   7
  13 -19   7 94.5024 105.930   3
 -13  -6  -7 20.0316 21.8198   9
 -19   6  -7 16.0160 23.5333   9
   6 -19   7-71.6048 23.5260   6
  13 -19   7-5.51965 26.2625   6
  13 -19  -7 102.290 107.199   4
  19 -13   7-42.1172 86.4367   3
   6 -19   7-71.5085 89.3737   3
  19 -13  -7-77.6937 88.3014   4
   6 -19  -8 172.084 31.4870   7
  13 -19  -8 55.0874 28.9774   7
  13 -19   8 57.6300 102.150   3
   6 -19   8-62.0158 95.1902   3
   6 -19   8 118.502 28.9034   6
  13 -19   8 72.1905 30.7998   6
  -6 -13  -8 155.057 34.0956   8
  13 -19  -8-47.8390 111.645   4
  19 -13   8-68.6996 94.9791   3
  19 -13  -8 0.77680 85.0745   4
   6 -19  -9 55.2567 27.3323   7
  13 -19  -9 23.3577 27.4298   7
  13 -19   9 105.347 99.2432   3
   6 -19   9 19.6691 86.1221   3
   6 -19   9 47.7919 26.1019   6
  13 -19   9 30.8386 27.5362   6
   6 -19  -9 29.1899 22.9358   8
  -6 -13  -9 16.2390 31.0587   8
  13 -19  -9-39.7165 97.4516   4
  19 -13   9-46.7214 84.4310   3
   6 -19 -10 60.4906 26.9225   7
  13 -19 -10 54.5042 28.9134   7
   6 -19  10 49.8638 24.1984   6
  13 -19  10 12.3204 27.1167   6
   6 -19 -10 20.8076 23.2386   8
  -6 -13 -10 16.6639 31.0423   8
   6 -19 -11 28.5452 25.5799   7
  13 -19 -11 45.3428 29.0906   7
   6 -19  11 22.6404 21.4577   6
  13 -19  11-12.4984 24.9930   6
   6 -19 -11-4.73650 21.4573   8
  -6 -13 -11 53.5718 30.6257   8
   6 -19 -12 53.0356 23.8392   7
  13 -19 -12 48.0524 27.8733   7
 -13  -6 -12 14.5076 20.5230  10
  13 -19  12-41.6810 22.2327   6
   6 -19 -12 13.0860 20.2725   8
  -6 -13 -12 33.0758 29.1756   8
   6 -19  12 15.0134 21.5130   6
   6 -19 -13 20.8240 20.2223   7
  13 -19 -13 44.3685 26.1028   7
   6 -19  13 4.19078 20.7307   6
  13 -19  13-21.1902 18.0397   6
   6 -19 -13-1.32744 18.5454   8
  -6 -13 -13 13.4985 26.6171   8
   6 -19 -14 24.4335 16.3919   7
  13 -19 -14 35.2843 21.3677   7
  19 -13 -14 32.1873 19.1641   7
  13 -19  14 1.54348 15.3202   6
   6 -19 -14 19.9396 15.7528   8
  -6 -13 -14 15.2373 22.5787   8
   6 -19  14-8.08687 19.7780   6
   6 -19 -15 6.76175 10.3068   7
  13 -19 -15-3.05523 15.4927   7
  19 -13 -15 43.4715 16.2093   7
  13 -19  15-11.0360 13.3852   6
  -6 -13 -15-18.4991 18.4167   8
   6 -19  15 23.7883 17.5666   6
  13 -19 -16 7.78118 11.3982   7
  19 -13 -16 7.42287 12.0306   7
   6 -19  16-2.79823 13.6161   6
  13 -19  16-0.10915 10.9820   6
  -6 -13 -16 8.27102 12.7326   8
  19 -14   0 10616.8 450.067   4
  14 -19   0 11040.7 409.049   3
  14 -19   0 10560.8 452.873   4
  19 -14   1 6483.13 345.561   4
  19 -14  -1 6431.45 359.229   4
  14 -19  -1 6522.70 349.924   4
   5 -19  -1 6861.41 396.879   4
  14 -19   1 6647.78 331.002   3
  14 -19   1 6085.50 335.428   4
  19 -14   2 6590.32 345.907   4
  19 -14  -2 6495.90 354.275   4
  14 -19  -2 6317.02 358.490   4
   5 -19  -2 6937.20 388.320   4
  14 -19   2 6292.10 335.755   4
  14 -19   2 6982.43 339.864   3
  19 -14  -3 6362.63 364.532   4
  14 -19  -3 6051.19 352.627   4
  14 -19   3 6543.81 339.657   3
   5 -19  -3 6317.37 385.442   4
  19 -14   4 7083.58 323.949   3
  19 -14  -4 7160.01 389.528   4
  14 -19  -4 7450.41 403.892   4
   5 -19  -4 6935.36 408.282   4
  14 -19   4 7492.10 365.712   3
  19 -14   5 3571.57 243.708   3
  19 -14  -5 3985.26 295.286   4
  14 -19   5 3883.12 75.9296   6
  14 -19   5 3904.89 284.616   3
  14 -19  -5 3848.83 307.687   4
   5 -19  -5 3899.61 309.757   4
   5 -19   5 4064.50 301.341   3
   5 -19  -5 3678.05 73.2368   7
  -5 -14  -5 3768.41 78.9651   8
  19 -14   6 4308.20 275.738   3
  19 -14  -6 4753.55 319.729   4
  14 -19   6 4696.59 83.7199   6
  14 -19  -6 4819.78 338.794   4
 -14  -5  -6 4331.69 81.9940   9
 -19   5  -6 4277.34 83.9737   9
   5 -19   6 4075.07 310.428   3
   5 -19  -6 4807.97 82.8630   8
  -5 -14  -6 4744.38 91.6700   8
  14 -19   6 4985.54 317.246   3
   5 -19  -6 4265.87 83.6148   7
  14 -19  -6 4441.15 79.6859   7
   5 -19  -7 1741.76 52.7668   7
  19 -14   7 1727.64 189.425   3
   5 -19   7 1665.24 50.7868   6
  14 -19   7 1914.34 53.0776   6
  19 -14  -7 1666.39 200.993   4
  14 -19  -7 1938.52 225.655   4
 -19   5  -7 1678.65 53.3944   9
 -14  -5  -7 1683.36 51.4279   9
   5 -19   7 1600.82 205.456   3
   5 -19  -7 1747.68 49.3304   8
  -5 -14  -7 1809.65 58.1144   8
  14 -19   7 2022.35 223.816   3
  14 -19  -7 1759.27 50.5265   7
  19 -14   8 2231.40 216.848   3
  14 -19   8 2237.89 59.0943   6
  19 -14  -8 1704.64 202.244   4
  14 -19   8 2348.80 246.481   3
  14 -19  -8 2028.29 235.250   4
   5 -19   8 2015.33 230.210   3
   5 -19  -8 2151.16 57.4409   8
  -5 -14  -8 2535.44 68.3501   8
   5 -19  -8 2307.50 59.5308   7
  14 -19  -8 2282.97 58.6559   7
   5 -19   9 1749.89 46.7663   6
  14 -19   9 1603.21 49.2020   6
  -5 -14  -9 1726.43 58.3441   8
   5 -19  -9 1611.12 49.7033   8
   5 -19  -9 1573.37 50.6808   7
  14 -19  -9 1651.62 50.9900   7
   5 -19  10 1283.76 39.6036   6
  14 -19  10 1167.98 43.3222   6
   5 -19 -10 1248.96 44.4620   8
  -5 -14 -10 1335.83 51.9543   8
   5 -19 -10 1263.42 44.9404   7
  14 -19 -10 1187.43 46.1096   7
   5 -19  11 326.611 26.4172   6
  14 -19  11 298.744 28.0954   6
   5 -19 -11 419.029 30.7752   8
  -5 -14 -11 429.219 38.2419   8
   5 -19 -11 346.722 30.4759   7
  14 -19 -11 400.261 34.2322   7
  14 -19 -12 266.238 31.4841   7
  19 -14 -12 263.567 26.3286   7
  14 -19  12 169.189 22.7668   6
   5 -19 -12 242.132 26.2843   8
  -5 -14 -12 296.359 34.9228   8
   5 -19 -12 265.938 26.6536   7
   5 -19 -13 98.9653 19.4582   7
  14 -19 -13 131.880 26.3741   7
  19 -14 -13 130.039 22.7866   7
 -14  -5 -13 92.5678 19.4935  10
  14 -19  13 72.6843 17.4297   6
   5 -19 -13 125.022 20.9388   8
  -5 -14 -13 130.643 28.6461   8
   5 -19 -14 50.5365 16.5832   8
   5 -19 -14 32.5090 15.2742   7
  14 -19 -14 51.0785 20.8285   7
  19 -14 -14 71.1083 19.6463   7
  14 -19  14-26.9417 14.5263   6
   5 -19  14-0.55425 18.8308   6
  -5 -14 -14 42.7072 22.3571   8
  14 -19 -15 14.3913 14.8627   7
  19 -14 -15 14.4919 14.8163   7
   5 -19 -15 13.1496 12.4537   8
  -5 -14 -15 14.0493 17.5370   8
   5 -19  15 4.62315 16.6600   6
  14 -19  15-11.3479 12.8916   6
  14 -19 -16 0.00578 10.7797   7
   5 -19  16-3.31100 12.2810   6
  19 -14 -16 9.45975 11.6898   7
  -5 -14 -16-2.70164 12.2790   8
  14 -19  16-21.1663 9.79512   6
  19 -15   0 2045.25 211.021   4
  15 -19   0 1830.30 199.571   4
  19 -15   1 2060.45 213.497   4
  19 -15  -1 2096.82 217.151   4
  15 -19  -1 2074.14 220.321   4
  15 -19   1 1995.29 200.879   4
  15 -19   1 2343.19 199.620   3
  19 -15   2 1233.18 169.160   4
  19 -15  -2 1458.19 196.169   4
  15 -19  -2 1335.20 187.229   4
  15 -19   2 1288.22 165.360   4
  15 -19   2 1299.58 165.755   3
  19 -15   3 1308.76 162.180   4
  19 -15  -3 1282.36 193.500   4
  15 -19  -3 1375.63 191.549   4
  15 -19   3 1450.72 176.595   3
  19 -15   4 1755.03 172.612   3
  19 -15  -4 1851.70 222.010   4
  15 -19  -4 2060.93 232.122   4
  15 -19   4 1896.53 204.291   3
  19 -15   5 879.266 136.787   3
  15 -19  -5 1218.04 184.776   4
   4 -19  -5 903.800 38.9100   8
  15 -19   5 1171.71 171.278   3
  15 -19   5 1209.70 45.6768   6
  19 -15  -5 822.276 161.100   4
 -19   4  -5 1095.41 45.1885   9
 -15  -4  -5 1092.07 44.2108   9
  -4 -15  -5 957.101 40.5736   7
  -4 -15  -5 1045.81 45.3502   8
   4 -19  -5 1051.16 43.0450   7
  15 -19  -5 895.647 39.0947   7
  19 -15   6 1943.63 192.293   3
  19 -15  -6 1859.79 220.492   4
  15 -19   6 2251.12 57.2672   6
  15 -19  -6 2153.19 246.999   4
   4 -19  -6 1900.13 53.0988   8
 -19   4  -6 2122.95 58.7307   9
 -15  -4  -6 1846.27 54.8803   9
  -4 -15  -6 2198.56 62.0965   8
  -4 -15  -6 1900.93 54.4531   7
   4 -19  -6 2123.95 57.3012   7
  15 -19   6 2009.15 219.968   3
  15 -19  -6 1923.83 52.7772   7
  15 -19  -7 243.694 27.4076   7
  15 -19   7 317.952 111.582   3
  15 -19   7 209.992 30.5248   6
 -15  -4  -7 191.527 27.0737   9
 -19   4  -7 245.701 30.1037   9
  19 -15  -7 439.629 123.610   4
  -4 -15  -7 287.898 33.2127   8
   4 -19  -7 197.940 26.6828   8
  15 -19  -7 138.992 99.1156   4
   4 -19  -7 223.815 29.3602   7
  19 -15   7 121.412 89.7068   3
  19 -15   8 1252.33 175.165   3
   4 -19   8 1294.55 41.3355   6
  15 -19   8 1284.44 45.1867   6
 -15  -4  -8 1038.70 42.1493   9
  15 -19  -8 1206.97 45.0678   7
  15 -19   8 1383.07 192.177   3
  19 -15  -8 913.630 166.534   4
   4 -19  -8 1226.74 46.4943   8
  -4 -15  -8 1344.32 53.0984   8
  15 -19  -8 1204.97 196.473   4
   4 -19  -8 1288.80 47.1823   7
   4 -19   9 365.644 27.2678   6
  15 -19   9 291.276 31.4803   6
   4 -19  -9 362.590 31.7076   8
  -4 -15  -9 374.030 37.9300   8
   4 -19  -9 344.124 31.6853   7
  15 -19  -9 340.614 31.9323   7
  19 -15 -10 278.401 27.3219   7
   4 -19  10 274.883 24.3875   6
  15 -19  10 254.325 28.7302   6
   4 -19 -10 306.643 30.1613   8
  -4 -15 -10 332.996 35.8490   8
   4 -19 -10 289.168 28.9801   7
  15 -19 -10 361.234 32.4042   7
   4 -19 -11 143.784 24.5203   7
  15 -19 -11 188.012 28.9894   7
  19 -15 -11 174.591 24.7574   7
   4 -19  11 99.2522 21.3876   6
  15 -19  11 145.714 24.0009   6
   4 -19 -11 169.698 26.2315   8
  -4 -15 -11 147.628 31.4868   8
   4 -19 -12 62.8015 20.5325   7
  15 -19 -12 89.2609 26.9520   7
  19 -15 -12 52.4693 22.1056   7
  15 -19  12 43.7479 18.4934   6
   4 -19  12 11.5388 19.2621   6
   4 -19 -12 70.5351 22.1007   8
  -4 -15 -12 71.9259 29.2784   8
   4 -19 -13 22.7819 16.9127   7
  15 -19 -13 25.9541 22.8872   7
  19 -15 -13 21.3455 19.9359   7
   4 -19  13-12.2293 19.2017   6
 -15  -4 -13 25.7426 18.8691  10
   4 -19 -13 16.7646 18.5885   8
  -4 -15 -13 38.4683 25.8627   8
  15 -19  13 31.2827 15.3106   6
 -15  -4 -14-3.10400 14.6866  10
  15 -19 -14 17.9729 18.7705   7
  19 -15 -14 15.7466 17.4460   7
   4 -19  14-7.48885 18.1377   6
   4 -19 -14 18.6310 15.8501   8
  -4 -15 -14 33.5807 21.3321   8
  15 -19  14-9.81373 12.5844   6
  15 -19 -15 0.05363 13.8356   7
  19 -15 -15-24.0255 14.3643   7
   4 -19  15 0.84438 15.7836   6
  15 -19  15-0.50241 10.8863   6
   4 -19 -15 14.0433 12.1337   8
  -4 -15 -15-8.74851 16.1464   8
  15 -19 -16 4.35268 9.77954   7
  19 -15 -16 10.8230 10.6220   7
  -4 -15 -16-1.25057 11.3413   8
  19 -16   0 9331.22 419.341   4
  16 -19   0 9532.56 433.094   4
  19 -16   1 8432.81 396.851   4
  19 -16  -1 8604.30 408.566   4
  16 -19  -1 9257.98 424.340   4
  16 -19   1 8652.26 410.869   4
  16 -19   1 8578.09 360.857   3
  19 -16   2 7313.32 368.861   4
  19 -16  -2 7295.42 382.306   4
  16 -19  -2 7422.05 398.980   4
  16 -19   2 7516.65 368.823   4
  16 -19   2 7637.47 350.184   3
  19 -16  -3 7359.57 388.644   4
  16 -19  -3 7724.06 412.098   4
  16 -19   3 7369.64 350.229   3
  19 -16   4 6208.86 308.836   3
  19 -16  -4 6646.64 380.712   4
  16 -19  -4 6845.49 387.089   4
  16 -19   4 6470.48 343.267   3
  -3 -16  -4 6557.44 103.689   8
  -3 -16  -4 5827.31 100.852   7
   3 -19  -4 6151.80 98.5666   7
 -16  -3  -4 6199.14 103.385   9
 -19   3  -4 6531.01 104.218   9
  19 -16   5 5307.06 298.368   3
  19 -16  -5 5500.95 354.461   4
  16 -19  -5 5915.38 366.343   4
 -19   3  -5 5110.90 91.9201   9
  16 -19   5 5472.08 327.491   3
  19 -16   5 4740.01 80.2791   6
 -16  -3  -5 5382.17 91.9486   9
  16 -19   5 5427.17 90.3947   6
   3 -19  -5 4726.62 84.8903   8
  -3 -16  -5 5326.43 94.8695   8
  -3 -16  -5 4942.28 88.5078   7
   3 -19  -5 5101.73 88.1540   7
  19 -16   6 5486.36 314.448   3
  19 -16   6 4975.96 81.0950   6
  19 -16  -6 5319.36 347.275   4
  16 -19   6 5637.13 89.8579   6
  16 -19   6 5861.64 344.552   3
  16 -19  -6 6139.39 378.316   4
 -16  -3  -6 5314.19 93.4635   9
 -19   3  -6 5511.54 95.1124   9
   3 -19  -6 5054.72 88.0602   8
  -3 -16  -6 5425.54 97.5683   8
   3 -19  -6 5302.26 89.0245   7
  16 -19  -6 5131.19 84.9515   7
  19 -16   7 1126.81 38.0098   6
  16 -19   7 1301.59 45.9359   6
  19 -16   7 1258.63 165.272   3
  19 -16  -7 1331.37 187.171   4
  16 -19   7 1538.95 186.546   3
  16 -19  -7 1660.85 220.122   4
  -3 -16  -7 1197.10 43.1270   7
 -16  -3  -7 1275.61 46.5101   9
   3 -19  -7 1249.62 44.5004   8
  -3 -16  -7 1374.83 51.5688   8
   3 -19  -7 1231.96 44.3595   7
  16 -19  -7 1226.81 43.0111   7
 -19   3  -7 1285.53 47.8260   9
  19 -16   8 2618.24 55.2061   6
  16 -19   8 3020.85 63.2080   6
  19 -16   8 3079.06 256.757   3
  19 -16  -8 2623.90 256.541   4
  16 -19   8 3382.24 271.612   3
  16 -19  -8 3105.44 282.528   4
 -19   3  -8 2654.72 65.9610   9
   3 -19  -8 2851.55 66.5297   8
  -3 -16  -8 3135.41 75.4265   8
  16 -19  -8 3009.55 64.4085   7
   3 -19  -8 2717.06 63.5718   7
  19 -16  -8 2621.23 57.2740   7
 -16  -3  -8 2700.86 64.1226   9
  16 -19   9 1862.94 50.0755   6
   3 -19  -9 1820.55 55.7083   8
   3 -19  -9 1797.65 52.0538   7
  16 -19  -9 1911.26 52.8184   7
  19 -16  -9 1719.67 47.0612   7
   3 -19 -10 775.405 38.7963   8
  16 -19  10 775.804 34.8138   6
  -3 -16 -10 876.212 45.9619   8
   3 -19 -10 717.755 35.5693   7
  16 -19 -10 812.027 37.9123   7
  19 -16 -10 719.848 33.3261   7
  16 -19  11 337.497 25.8658   6
   3 -19 -11 359.996 30.4551   8
  -3 -16 -11 418.382 37.4657   8
   3 -19 -11 342.266 26.0762   7
  16 -19 -11 394.674 31.4832   7
  19 -16 -11 366.201 27.7872   7
  16 -19  12 190.527 19.7039   6
  -3 -16 -12 305.399 33.0697   8
   3 -19 -12 246.637 26.5315   8
   3 -19 -12 216.430 22.8262   7
  16 -19 -12 307.213 28.5723   7
  19 -16 -12 246.555 24.9418   7
  16 -19 -13 106.282 22.7830   7
  19 -16 -13 122.963 21.1478   7
  16 -19  13 38.9597 14.2353   6
   3 -19 -13 94.4848 21.0390   8
  -3 -16 -13 120.348 26.2809   8
   3 -19 -13 89.7336 17.1920   7
  16 -19 -14 38.5086 18.1601   7
  19 -16 -14 24.2947 17.0538   7
 -16  -3 -14 32.6442 15.6062  10
  16 -19  14-14.8779 11.9938   6
   3 -19  14 5.90036 17.4911   6
   3 -19 -14 38.2449 16.0837   8
  -3 -16 -14 45.8670 20.3264   8
  16 -19 -15 11.0482 13.0883   7
  19 -16 -15 19.0163 13.3362   7
   3 -19  15 8.38293 12.1523   6
  16 -19  15-2.15077 9.58099   6
  -3 -16 -15 6.11218 14.9229   8
   3 -19 -15-0.69171 12.0731   8
  19 -17   0 258.301 119.067   4
  17 -19   0 221.813 106.738   4
  17 -19  -1 37.3598 96.0196   4
  19 -17   1 132.920 106.829   4
  19 -17  -1 16.1277 90.0804   4
  17 -19   1-21.2542 83.4441   4
  17 -19   2 97.3918 82.6975   3
  17 -19  -2 48.2668 102.183   4
  19 -17   2 136.731 88.0538   4
  19 -17  -2 178.902 118.813   4
  17 -19   2 100.285 81.6153   4
  17 -19   3 203.507 99.4899   3
 -17  -2  -3 276.987 32.5377  10
   2 -19   3 300.102 30.1760   7
 -19   2  -3 334.625 32.6010   9
   2 -19  -3 306.075 28.4738   8
 -17  -2  -3 234.173 31.3599   9
  19 -17  -3 176.621 117.535   4
  -2 -17  -3 364.999 31.8849   8
  17 -19  -3 90.5928 108.045   4
  -2 -17  -3 341.321 35.0239   7
   2 -19  -3 358.507 33.8228   7
  19 -17   4 4.21734 78.6748   3
  17 -19   4 86.7123 95.8304   3
   2 -19  -4 221.372 29.4144   8
 -17  -2  -4 195.244 30.8086   9
   2 -19  -4 328.120 32.3685   7
 -19   2  -4 171.410 31.0006   9
  19 -17  -4 91.2060 109.505   4
  -2 -17  -4 221.105 32.3412   8
  17 -19  -4 37.7049 109.434   4
  -2 -17  -4 325.843 32.7914   7
   2 -19  -5 290.896 31.1829   8
  19 -17   5 60.1404 88.0485   3
  17 -19   5 87.9684 89.2199   3
  19 -17   5 212.161 29.2310   6
  17 -19   5 374.515 33.5256   6
 -17  -2  -5 278.280 32.2628   9
 -19   2  -5 290.850 32.9422   9
  19 -17  -5 335.486 127.057   4
  -2 -17  -5 431.990 35.1427   8
  -2 -17  -5 326.278 33.6252   7
   2 -19  -5 350.685 33.2044   7
  17 -19  -5 246.297 122.060   4
  19 -17   6 222.420 104.475   3
  17 -19   6 293.633 112.439   3
  19 -17   6 228.417 27.7283   6
  17 -19   6 284.670 31.9734   6
   2 -19  -6 285.242 31.2344   8
 -19   2  -6 263.323 32.1245   9
 -17  -2  -6 219.071 30.0089   9
  19 -17  -6 152.409 114.878   4
  -2 -17  -6 399.061 35.9521   8
  -2 -17  -6 239.725 30.4552   7
   2 -19  -6 297.586 31.3640   7
  17 -19  -6 323.746 126.186   4
  17 -19  -6 227.459 26.7441   7
   2 -19  -7 29.7865 24.3151   7
  19 -17   7 115.875 93.1666   3
  17 -19  -7 53.1300 23.2739   7
  17 -19   7-88.1252 93.6515   3
  19 -17  -7-7.90825 96.8046   4
  -2 -17  -7 67.7146 29.4029   8
 -17  -2  -7 9.71724 25.1916   9
 -19   2  -7 13.6217 25.2182   9
  17 -19  -7-13.2978 88.9922   4
  19 -17   7 31.1015 23.3794   6
  17 -19   7 29.1774 26.0827   6
   2 -19  -7 64.5765 26.6399   8
  -2 -17  -7 3.15663 21.8577   7
   2 -19  -8 92.6369 27.3168   7
  17 -19  -8 54.6341 25.5504   7
  19 -17  -8 25.7451 22.2696   7
 -19   2  -8 29.1937 25.1047   9
   2 -19  -8 93.8423 29.6031   8
  19 -17   8 83.5710 23.9221   6
  17 -19   8 84.8211 28.9222   6
  -2 -17  -8 176.720 33.9998   8
 -17  -2  -8 1.37116 24.5265   9
  -2 -17  -8-44.9461 22.8194   7
   2 -19  -9 138.939 25.9530   7
  17 -19  -9 132.475 26.3587   7
  19 -17  -9 119.758 23.8385   7
  17 -19   9 105.354 25.6723   6
  19 -17   9 98.5129 21.3356   6
   2 -19  -9 133.820 29.3625   8
  -2 -17  -9 134.518 33.1070   8
   2 -19 -10 54.0355 21.6126   7
  17 -19 -10 52.6073 24.5468   7
  19 -17 -10 42.5735 21.8753   7
  19 -17  10 80.0306 18.7163   6
  17 -19  10 41.1064 22.0217   6
   2 -19 -10 73.3748 25.9258   8
  -2 -17 -10 75.3539 30.0132   8
   2 -19 -11 7.99696 18.6565   7
  17 -19 -11 61.2545 23.7379   7
  19 -17 -11 9.51305 20.5425   7
  19 -17  11-7.80859 14.6540   6
   2 -19 -11 28.1249 24.0825   8
  -2 -17 -11 17.7040 27.8117   8
  17 -19  11 18.7155 18.4799   6
  17 -19 -12 23.0515 22.2333   7
  19 -17 -12 28.0094 20.1691   7
   2 -19  12 1.18467 17.6386   6
  17 -19  12-5.25135 14.8794   6
   2 -19 -12 5.04474 21.6551   8
  -2 -17 -12 34.0720 25.9454   8
   2 -19 -12 4.24675 16.8205   7
  17 -19 -13 37.7530 19.8010   7
  19 -17 -13 8.74932 17.9520   7
   2 -19  13 1.91916 17.3088   6
  17 -19  13 1.25833 11.8799   6
   2 -19 -13 13.6179 19.0702   8
  -2 -17 -13 3.29662 22.1359   8
  17 -19 -14 7.22731 15.9836   7
  19 -17 -14 12.1065 15.5991   7
   2 -19 -14 4.12972 15.4295   8
   2 -19  14 7.25396 13.4300   6
 -17  -2 -14-12.5177 15.6495  10
  -2 -17 -14 17.9384 17.9212   8
  17 -19  14 6.66750 10.2733   6
  17 -19 -15 9.13379 11.9084   7
  19 -17 -15-3.99394 12.3009   7
 -17  -2 -15 15.2904 11.0029  10
  -2 -17 -15 1.32982 13.1949   8
   2 -19 -15-3.16734 11.6640   8
  17 -19  15-2.89752 8.42128   6
 -18  -1   0 570.505 35.4282   9
  19 -18   0 434.508 128.661   4
 -19   1   0 611.315 35.8530   9
  -1 -18   0 719.811 39.6896   7
  18 -19   0 512.611 128.366   4
   1 -19   0 708.165 39.7280   7
  18 -19  -1 1092.64 168.983   4
  19 -18  -1 1191.79 176.266   4
  19 -18   1 1128.65 167.355   4
  18 -19   1 1038.02 165.302   4
 -18  -1  -1 1051.35 45.8506  10
 -18  -1   1 1086.18 44.2110   9
 -18  -1  -1 1203.82 46.5508   9
 -19   1   1 1259.39 46.3744   9
 -19   1  -1 1255.95 46.6621   9
  -1 -18   1 1368.21 51.0982   7
   1 -19   1 1383.11 50.5577   7
  -1 -18  -1 1348.80 52.1497   7
   1 -19  -1 1467.23 51.6607   7
  19 -18  -2 1185.30 183.429   4
 -19   1  -2 1343.82 49.7083  10
 -19   1   2 1229.67 46.7565   9
 -18  -1   2 1171.59 46.1638   9
 -18  -1  -2 1238.17 48.2308   9
 -19   1  -2 1342.96 49.1882   9
 -18  -1  -2 1168.09 48.5017  10
  -1 -18   2 1752.34 55.4282   7
  18 -19  -2 1097.21 180.404   4
  19 -18   2 676.508 123.256   4
  -1 -18  -2 1457.47 49.9159   8
   1 -19   2 1550.20 50.4670   7
  -1 -18  -2 1545.17 55.7729   7
   1 -19  -2 1599.31 52.8809   7
   1 -19  -2 1329.98 47.5044   8
 -18  -1  -3 677.538 40.5344  10
  18 -19  -3 558.224 143.537   4
   1 -19  -3 715.932 36.7507   8
 -18  -1  -3 648.591 38.8678   9
 -19   1   3 572.253 34.9093   9
 -19   1  -3 672.892 39.8459   9
  18 -19   3 616.108 122.996   3
 -18  -1   3 544.018 34.5663   9
  -1 -18  -3 878.409 40.5194   8
  19 -18  -3 536.353 141.816   4
  -1 -18  -3 855.314 43.9394   7
   1 -19  -3 759.467 42.4208   7
  19 -18   4 375.647 104.652   3
  18 -19   4 457.440 122.164   3
 -18  -1  -4 762.479 41.6439   9
 -19   1  -4 771.283 40.8541   9
  -1 -18  -4 761.599 41.1115   8
  19 -18  -4 484.596 140.024   4
  18 -19  -4 590.109 149.327   4
   1 -19  -4 755.960 39.7714   8
  -1 -18  -4 889.178 42.9641   7
   1 -19  -4 896.219 42.3248   7
   1 -19  -5 810.297 39.3432   8
  -1 -18  -5 842.167 43.1606   8
  19 -18   5 386.422 111.977   3
  18 -19   5 595.587 132.635   3
  19 -18   5 667.264 37.6555   6
  18 -19   5 794.444 40.5438   6
 -18  -1  -5 672.319 40.4087   9
  19 -18  -5 499.189 139.384   4
  18 -19  -5 594.448 153.440   4
  -1 -18  -5 786.983 42.3094   7
   1 -19  -5 800.437 42.3028   7
 -19   1  -5 671.455 40.8527   9
  19 -18   6 577.717 129.818   3
  18 -19   6 493.839 123.837   3
  19 -18   6 459.091 33.0981   6
  18 -19   6 541.011 35.1080   6
  19 -18  -6 613.443 141.211   4
 -18  -1  -6 493.426 36.5594   9
 -19   1  -6 574.263 39.0039   9
   1 -19  -6 582.178 36.5998   8
  -1 -18  -6 598.725 38.3675   8
  18 -19  -6 646.909 156.612   4
  -1 -18  -6 593.905 35.9825   7
   1 -19  -6 609.172 37.0802   7
  18 -19  -7 127.084 25.4621   7
  19 -18   7-32.9149 95.7043   3
  19 -18   7 191.450 28.7743   6
  18 -19   7 229.731 30.6610   6
  18 -19   7 64.9536 96.5006   3
 -18  -1  -7 101.605 28.2306   9
 -19   1  -7 96.7667 30.1918   9
   1 -19  -7 301.731 33.8516   8
  -1 -18  -7 288.261 34.1904   8
  19 -18  -7-49.3193 92.5627   4
  18 -19  -7 68.4094 93.4774   4
  -1 -18  -7 219.722 29.9373   7
   1 -19  -7 243.723 31.1265   7
  -1 -18  -8 326.600 33.5716   8
  19 -18   8 292.787 26.4947   6
  18 -19   8 311.376 29.5314   6
 -19   1  -8 216.620 28.6115   9
 -18  -1  -8 213.275 28.2595   9
   1 -19  -8 333.668 33.5118   8
  -1 -18  -8 269.754 28.5824   7
   1 -19  -8 239.384 28.0260   7
  18 -19  -8 261.958 27.2918   7
  19 -18  -8 227.153 25.2860   7
  18 -19  -9 51.6130 23.6477   7
  19 -18  -9 113.447 23.4084   7
  19 -18   9 114.557 22.2377   6
  18 -19   9 108.031 24.7629   6
   1 -19  -9 120.464 29.7476   8
  -1 -18  -9 108.225 29.0171   8
  -1 -18  -9 105.811 21.9376   7
   1 -19  -9 68.3313 23.4856   7
  18 -19 -10 35.6140 22.2165   7
  19 -18 -10 58.5669 21.8523   7
  19 -18  10 40.2629 18.3119   6
  18 -19  10 85.9561 21.4444   6
  -1 -18 -10 57.2901 27.0578   8
   1 -19 -10 60.6052 26.1921   8
   1 -19 -10 38.4085 20.0207   7
  18 -19 -11 35.4424 22.3731   7
  19 -18 -11 45.7363 21.4580   7
  19 -18  11 42.3062 15.3890   6
  18 -19  11 31.5552 17.5290   6
   1 -19 -11 39.3746 24.3246   8
  -1 -18 -11 44.7593 26.0064   8
   1 -19 -11 29.8347 18.4641   7
  18 -19 -12 23.7394 20.4828   7
  19 -18 -12 15.0953 19.2277   7
  -1 -18 -12 13.9546 23.3379   8
  19 -18  12 5.71685 11.3559   6
  18 -19  12 17.5734 13.4417   6
   1 -19 -12 29.1979 21.6488   8
  18 -19 -13 30.9443 18.1597   7
  19 -18 -13 30.7079 17.4410   7
  -1 -18 -13 23.7478 20.3528   8
   1 -19 -13 5.90202 18.5270   8
  18 -19  13 13.2995 10.9584   6
  18 -19 -14 24.2440 15.0111   7
  19 -18 -14 13.3044 14.2104   7
  -1 -18 -14 27.0617 16.4005   8
   1 -19 -14 3.50575 14.6151   8
 -18  -1 -14 9.12825 14.8120  10
  18 -19  14-13.0656 9.00367   6
  18 -19 -15 16.9993 11.2716   7
  19 -18 -15-9.97389 11.0923   7
 -19   1 -15 6.65601 11.0463  10
   1 -19 -15-13.5099 11.1852   8
  -1 -18 -15-10.0327 12.1400   8
   0 -19   0 294.483 32.5459   7
 -19   0   0 249.430 28.7897   9
 -19   0   0 200.790 27.8512  10
  19 -19   0 302.885 106.354   4
 -19   0  -1 49.5867 24.5705  10
 -19   0   1 101.162 25.0598   9
 -19   0  -1 50.3075 24.5316   9
  19 -19  -1 146.120 93.7827   4
  19 -19   1 77.9049 70.5556   4
   0 -19   1 100.321 27.3356   7
   0 -19  -1 98.0239 27.9889   7
   0 -19  -2 123.300 26.0966   8
 -19   0  -2 81.8992 26.5483  10
 -19   0   2 52.6836 22.8594   9
 -19   0  -2 85.3189 26.3526   9
  19 -19  -2 148.021 93.0272   4
   0 -19   2 89.9727 28.2314   7
   0 -19  -2 107.729 27.8714   7
 -19   0   3 135.204 24.7895   9
 -19   0  -3 82.3093 27.9142  10
 -19   0  -3 155.844 27.2516   9
   0 -19  -3 136.460 26.1284   8
   0 -19  -3 156.413 28.8833   7
  19 -19   4 135.848 74.9421   3
 -19   0  -4 10.7285 26.2846   9
  19 -19  -4-26.6622 97.7389   4
   0 -19  -4 38.4803 24.6265   8
   0 -19  -4 20.2724 26.3640   7
  19 -19   5 141.583 80.6005   3
 -19   0  -5 131.948 28.5689   9
  19 -19  -5 99.7668 99.0421   4
   0 -19  -5 117.204 26.0300   8
  19 -19   5 101.036 27.0936   6
   0 -19  -5 135.577 28.0699   7
  19 -19   6-82.7379 88.0724   3
 -19   0  -6-16.5852 25.9743   9
   0 -19  -6 0.99576 25.6743   8
  19 -19   6 1.89981 24.1292   6
   0 -19  -6-2.55443 24.3647   7
  19 -19   7 552.580 34.5004   6
   0 -19  -7 667.031 39.3580   8
 -19   0  -7 694.579 40.5365   9
   0 -19  -7 618.321 36.5971   7
  19 -19  -8 26.8485 21.0416   7
 -19   0  -8-8.44467 24.0085   9
  19 -19   8 35.2022 22.6878   6
   0 -19  -8 19.0685 25.6129   8
   0 -19  -8 5.50059 22.3589   7
  19 -19  -9 7.22405 20.3845   7
  19 -19   9-42.3911 21.4270   6
   0 -19  -9 3.81716 25.7776   8
   0 -19  -9 10.1422 21.0627   7
  19 -19 -10 10.0927 20.6968   7
  19 -19  10-4.51117 17.9016   6
   0 -19 -10 9.79078 25.0173   8
   0 -19 -10 49.5427 19.9152   7
  19 -19 -11 10.8222 20.7939   7
  19 -19  11-0.47272 15.0898   6
   0 -19 -11 8.93502 23.8303   8
  19 -19 -12 18.0701 18.5692   7
  19 -19  12 20.2362 12.1611   6
   0 -19 -12 19.4235 21.6487   8
  19 -19 -13 23.4795 16.5932   7
  19 -19  13 1.72177 9.57397   6
   0 -19 -13 18.1189 18.1790   8
  19 -19 -14 24.3069 13.3040   7
   0 -19 -14 8.95950 14.1075   8
 -19   0 -14-16.0508 14.6133  10
  19 -19 -15 4.55189 9.81618   7
   0 -19 -15 4.88002 10.2675   8
  10 -20   0 320.999 99.8547   4
  10 -20   1 330.433 110.860   3
  10 -20  -1 265.479 98.5464   4
  10 -20   1 306.683 99.2810   4
  10 -20   2 1305.35 176.179   3
  10 -20  -2 908.212 160.527   4
  10 -20   3 782.169 150.542   3
  10 -20  -3 762.787 148.851   4
  10 -20   4 90.6045 90.1509   3
  10 -20  -4 68.7049 93.8929   4
  10 -20   5 431.042 32.8854   6
 -20  10  -5 524.857 34.9231   9
 -10 -10  -5 439.571 28.9436  10
  10 -20   5 596.077 136.821   3
 -10 -10  -5 465.569 32.9526   8
  20 -10   5 489.527 103.952   3
  10 -20  -5 416.034 29.1550   7
  10 -20  -5 531.134 140.431   4
  10 -20  -6 146.024 26.3612   7
 -10 -10  -6 107.504 22.7337  10
  20 -10  -6-0.78008 89.6182   4
  10 -20   6 174.845 107.437   3
  20 -10   6 102.113 82.1531   3
 -20  10  -6 123.450 25.7671   9
 -10 -10  -6 125.315 26.0825   8
  10 -20   6 124.870 26.6449   6
  10 -20  -6 151.380 108.045   4
  10 -20  -7 235.111 28.3432   7
  10 -20   7 228.390 29.8890   6
  20 -10   7 231.601 92.3116   3
  20 -10  -7 228.665 96.6890   4
  10 -20   7 191.135 109.640   3
 -10 -10  -7 213.368 24.7324  10
 -10 -10  -7 235.852 31.0190   8
 -20  10  -7 215.318 28.9248   9
  10 -20  -7 67.1466 103.494   4
  10 -20  -8 25.8060 25.6141   7
  10 -20   8-89.6139 95.4067   3
  20 -10   8-12.6748 83.1823   3
  10 -20   8-14.1277 25.0002   6
 -10 -10  -8 10.4454 25.3316   8
 -10 -10  -8 16.6916 20.8478  10
  10 -20  -8-111.997 96.1518   4
  10 -20  -9 128.370 28.6906   7
 -10 -10  -9 102.300 21.8143  10
  10 -20   9 103.410 28.6915   6
 -10 -10  -9 130.151 28.4887   8
  10 -20 -10 39.0571 26.4959   7
 -10 -10 -10-3.85715 25.6061   8
  10 -20  10-24.5276 25.0537   6
  10 -20 -11 15.1855 25.4827   7
  10 -20  11 6.22534 22.3376   6
 -10 -10 -11 14.2164 24.3025   8
  10 -20 -12 16.1362 24.9849   7
  10 -20  12-5.57043 20.6523   6
 -10 -10 -12-6.73884 23.0813   8
  10 -20 -13-1.51284 21.5813   7
  10 -20  13 18.0585 18.2563   6
 -10 -10 -13 28.0982 20.8929   8
  10 -20 -14 7.05368 18.1022   7
  10 -20  14 16.2593 16.7978   6
 -10 -10 -14 1.27021 18.1431   8
  10 -20 -15 2.61677 13.1590   7
  20 -10 -15 0.00750 14.9499   7
  10 -20  15 22.5277 14.8837   6
 -10 -10 -15 13.3950 14.4855   8
  20 -10 -16-9.97606 11.1918   7
  10 -20  16 5.69816 11.1668   6
  11 -20   0 167.757 86.1120   4
   9 -20   0 137.845 89.8444   4
  11 -20   1 561.941 125.194   3
  11 -20  -1 508.752 124.435   4
  11 -20   1 515.936 115.205   4
   9 -20  -1 414.949 118.806   4
   9 -20   1 666.688 130.951   4
  11 -20   2 647.427 134.436   3
   9 -20   2 736.019 149.342   3
  11 -20  -2 652.947 143.680   4
   9 -20  -2 565.155 136.440   4
   9 -20   3 334.555 120.250   3
  11 -20  -3 318.102 127.152   4
   9 -20  -3 485.634 134.348   4
  11 -20   3 317.068 121.760   3
  11 -20  -4 155.437 102.651   4
  11 -20   4 184.088 97.4610   3
   9 -20   4 121.733 101.528   3
   9 -20  -4 70.6484 93.8488   4
   9 -20   5 462.008 33.5510   6
  11 -20   5 555.748 34.8269   6
 -20   9  -5 468.723 34.6187   9
  11 -20   5 521.052 135.441   3
  20 -11  -5 479.721 131.579   4
   9 -20   5 380.251 128.634   3
 -20  11  -5 451.750 33.6286   9
 -11  -9  -5 485.673 34.0980   8
  -9 -11  -5 515.410 35.4664   8
  20  -9   5 529.471 109.808   3
   9 -20  -5 544.921 33.8349   7
  -9 -11  -5 431.673 29.4115  10
 -11  -9  -5 431.687 30.4356  10
  20 -11   5 468.791 107.294   3
  11 -20  -5 482.164 136.975   4
  11 -20  -5 502.078 32.4245   7
   9 -20  -5 526.680 138.093   4
 -20  11  -6 53.5800 25.5827   9
   9 -20  -6 98.5022 26.2691   7
  11 -20  -6 91.0244 25.1115   7
  -9 -11  -6 87.2599 22.7099  10
  11 -20   6 68.8754 27.9095   6
 -11  -9  -6 85.4987 24.1847  10
  11 -20   6 113.968 107.188   3
  20  -9  -6 12.3000 84.2775   4
   9 -20   6-17.5207 93.9665   3
 -20   9  -6 33.1847 24.7826   9
  20  -9   6 19.7097 71.8784   3
   9 -20   6 75.7798 26.8510   6
 -11  -9  -6 109.100 26.8340   8
  -9 -11  -6 67.4358 25.9103   8
  20 -11   6 14.9643 73.1900   3
  11 -20  -6 35.5791 107.375   4
   9 -20  -6-16.2324 101.321   4
  20 -11  -6-45.4677 91.9853   4
   9 -20   7 315.994 32.3420   6
  11 -20   7 268.561 31.7251   6
  -9 -11  -7 268.454 26.2098  10
 -11  -9  -7 282.707 27.9321  10
 -20  11  -7 292.119 30.7187   9
  20 -11  -7 225.119 108.052   4
  20  -9  -7 198.129 98.5383   4
   9 -20   7 267.660 112.971   3
  11 -20   7 415.336 121.199   3
 -11  -9  -7 263.265 29.7249   8
  -9 -11  -7 339.422 33.4418   8
  20  -9   7 276.080 102.393   3
  20 -11   7 278.672 94.9960   3
 -20   9  -7 300.569 31.2109   9
   9 -20  -7 307.159 31.3119   7
  11 -20  -7 366.546 32.0786   7
  11 -20  -7 610.233 145.387   4
   9 -20  -7 367.079 125.995   4
   9 -20  -8 29.5294 27.1072   7
  11 -20  -8 44.0641 25.9012   7
  20  -9   8-2.17200 83.0839   3
  -9 -11  -8 20.6318 20.0070  10
 -11  -9  -8 28.8083 22.0712  10
  11 -20   8-4.72978 89.4524   3
   9 -20   8-18.5919 81.5811   3
  20 -11  -8-103.768 101.437   4
   9 -20   8-1.15035 25.8317   6
  11 -20   8 44.4315 26.9778   6
 -11  -9  -8 42.3185 25.1697   8
  -9 -11  -8 45.3184 27.8962   8
  20 -11   8-107.096 98.6388   3
  11 -20  -8-73.6914 110.379   4
   9 -20  -8-120.514 106.317   4
   9 -20  -9 153.674 29.4579   7
  11 -20  -9 204.300 31.3420   7
   9 -20   9 125.514 28.6161   6
  11 -20   9 133.834 28.7143   6
 -11  -9  -9 198.328 29.5298   8
  -9 -11  -9 176.927 32.0499   8
 -11  -9  -9 147.894 24.7541  10
   9 -20 -10 21.6756 27.0476   7
  11 -20 -10 85.0989 27.9639   7
   9 -20  10 2.43068 24.5660   6
  11 -20  10 26.5417 25.3490   6
 -11  -9 -10 27.1510 24.9951   8
  -9 -11 -10 30.2704 27.7600   8
   9 -20 -11 2.90448 25.2142   7
  11 -20 -11 46.3820 27.1916   7
   9 -20  11 14.9225 21.8506   6
  11 -20  11-3.80980 23.1957   6
 -11  -9 -11 10.2943 23.6586   8
  -9 -11 -11 16.7326 26.1676   8
   9 -20 -12 14.2906 24.6204   7
  11 -20 -12 50.6927 26.7495   7
   9 -20  12 12.4266 19.9171   6
  11 -20  12-6.02768 21.1876   6
  -9 -11 -12 20.8011 24.8647   8
 -11  -9 -12-7.95197 22.7558   8
   9 -20 -13 7.41317 21.0041   7
  11 -20 -13 40.4298 23.4549   7
   9 -20  13-6.91247 19.1964   6
 -11  -9 -13 16.4200 19.6297   8
  -9 -11 -13 5.91561 22.1765   8
  11 -20  13 20.6539 18.3529   6
   9 -20 -14-8.40195 17.6039   7
  11 -20 -14 20.0613 18.6417   7
 -11  -9 -14-8.27683 17.2802   8
  11 -20  14-15.4464 16.3071   6
  -9 -11 -14 21.2906 18.7867   8
   9 -20  14-10.7861 17.5024   6
   9 -20 -15-3.99862 13.2153   7
  11 -20 -15-1.52719 13.6244   7
  20 -11 -15 32.1294 14.8893   7
  11 -20  15-10.5492 14.0049   6
   9 -20  15 3.59555 14.4328   6
  -9 -11 -15 3.70901 15.0699   8
 -11  -9 -15-6.51692 11.1866   8
  20 -11 -16-2.88720 11.2930   7
  20  -9 -16-3.36291 11.1919   7
  11 -20  16 3.80314 11.3454   6
   9 -20  16 12.1810 11.6809   6
  12 -20   0 233.756 104.575   4
   8 -20   0 121.034 86.9692   4
  12 -20   1 50.3627 83.2185   3
  12 -20  -1 31.6272 77.5583   4
  12 -20   1 163.891 78.9087   4
   8 -20  -1 106.271 90.5099   4
   8 -20   1 96.7487 80.6826   4
  12 -20   2 172.594 102.337   3
  12 -20  -2 226.492 101.126   4
   8 -20  -2 223.151 114.306   4
  12 -20   3-50.9137 96.3831   3
  12 -20  -3-9.94687 92.6420   4
   8 -20   3 6.72851 87.1479   3
   8 -20  -3-3.02950 92.0250   4
  12 -20   4-21.1315 87.6696   3
  20 -12  -4-52.8803 90.7210   4
   8 -20   4 70.9846 95.4327   3
  12 -20  -4 45.5830 92.2711   4
   8 -20  -4 9.02750 106.062   4
   8 -20  -5 73.9687 24.3855   7
  12 -20  -5 91.7913 24.1741   7
 -12  -8  -5 76.8200 23.1318  10
  12 -20   5 159.640 105.897   3
  -8 -12  -5 78.0677 21.5552  10
 -12  -8  -5 54.7635 23.7735   9
 -20   8  -5 66.5440 24.6683   9
   8 -20   5 35.4684 90.7188   3
  12 -20  -5 106.523 105.439   4
  -8 -12  -5 69.5950 24.9994   8
   8 -20   5 55.6974 24.2381   6
 -12  -8   5 81.9832 24.4231  10
  12 -20   5 77.4234 26.4294   6
  20 -12   5 62.8190 73.1898   3
   8 -20  -5 148.549 110.071   4
  20 -12  -5 81.3199 96.4372   4
   8 -20  -6 66.8217 25.8969   7
  12 -20  -6 61.6222 23.5200   7
 -12  -8  -6 74.3107 23.9304  10
  -8 -12  -6 54.0902 21.3960  10
   8 -20   6 99.0402 26.6569   6
  20 -12   6 94.7047 75.2477   3
  12 -20   6 159.209 106.822   3
  20 -12  -6 150.063 101.616   4
 -12  -8  -6 88.0838 24.1264   9
 -20   8  -6 76.9145 26.9316   9
   8 -20   6 47.0751 93.0120   3
 -20  12  -6 39.8637 26.7236   9
  12 -20   6 62.4077 26.5832   6
  -8 -12  -6 102.232 27.5674   8
  12 -20  -6 3.26911 104.500   4
   8 -20  -6 55.0490 101.780   4
   8 -20  -7 168.664 27.6686   7
  12 -20  -7 170.180 28.3085   7
   8 -20   7 179.858 28.3920   6
 -12  -8  -7 137.424 26.3430  10
  20  -8  -7 99.3781 80.6934   4
  12 -20   7 150.699 28.4843   6
  20 -12  -7 61.1503 86.3928   4
 -20   8  -7 137.990 26.8961   9
  20  -8   7 35.9080 87.1387   3
   8 -20   7 64.0820 89.8595   3
 -20  12  -7 121.442 28.3482   9
 -12  -8  -7 173.431 28.1650   8
  -8 -12  -7 185.347 30.0217   8
  20 -12   7 310.888 107.008   3
  12 -20  -7 221.357 127.317   4
  12 -20   7 256.614 106.836   3
   8 -20  -7 173.771 115.642   4
   8 -20  -8-29.7198 101.311   4
   8 -20  -8 43.1824 27.2419   7
  12 -20  -8 54.6925 26.5202   7
  12 -20   8-0.27604 91.9629   3
  20 -12   8 44.6980 84.8697   3
  20 -12  -8-29.6170 83.4408   4
   8 -20   8 28.7014 25.5234   6
   8 -20   8 124.989 81.7590   3
  20  -8   8-67.0420 80.0461   3
  12 -20   8 16.2729 26.7214   6
 -12  -8  -8-70.3427 24.7972   8
  -8 -12  -8 21.5247 27.4253   8
  12 -20  -8 86.8438 98.8261   4
 -12  -8  -8 42.1291 23.8583  10
   8 -20  -9 47.6935 27.0626   7
  12 -20  -9 17.7068 27.0430   7
   8 -20   9 13.2061 25.5780   6
 -12  -8  -9 1.93491 22.2609  10
  12 -20   9-48.7829 28.7313   6
 -12  -8  -9-77.3070 26.1417   8
  -8 -12  -9 30.0578 28.9087   8
   8 -20 -10-5.53524 25.3285   7
  12 -20 -10 2.22926 26.6812   7
 -12  -8 -10 17.4770 21.4200  10
   8 -20  10-10.3656 24.0702   6
  12 -20  10-25.9023 25.5899   6
  -8 -12 -10 4.84434 27.6350   8
   8 -20 -11 42.0018 26.1681   7
  12 -20 -11 51.9258 27.9745   7
 -12  -8 -11 10.5949 19.9190  10
   8 -20  11 30.5822 21.7931   6
  12 -20  11-37.9870 24.7215   6
 -12  -8 -11 19.4348 22.3654   8
  -8 -12 -11 34.0692 26.8399   8
   8 -20 -12 12.1437 23.1195   7
  12 -20 -12 26.4449 26.8337   7
  12 -20  12-37.7251 22.0372   6
   8 -20  12-6.14418 19.7959   6
 -12  -8 -12 6.61511 21.1378   8
  -8 -12 -12 12.0183 25.6312   8
   8 -20 -13 4.51492 20.3655   7
  12 -20 -13 28.8423 23.5373   7
 -12  -8 -13-7.47856 18.5822   8
  12 -20  13 12.3217 18.0372   6
   8 -20  13 7.45728 19.3623   6
  -8 -12 -13 5.33542 22.5429   8
   8 -20 -14 5.66512 16.8635   7
  12 -20 -14 11.0550 18.7383   7
  20 -12 -14 3.37977 17.0140   7
   8 -20  14 12.0451 17.6560   6
 -12  -8 -14-28.4668 14.0686   8
  -8 -12 -14-17.8203 19.9605   8
  12 -20  14 4.51945 15.4485   6
   8 -20 -15 0.00677 12.4151   7
  12 -20 -15 4.92665 13.6586   7
  20 -12 -15 27.2353 14.5240   7
  12 -20  15 0.29884 13.4731   6
   8 -20  15 8.46983 15.0243   6
  -8 -12 -15 8.97480 15.5333   8
  20 -12 -16 8.64243 10.8443   7
  20  -8 -16-15.5140 10.6739   7
  12 -20  16 8.79390 10.7087   6
  13 -20   0 306.716 112.280   4
  13 -20   0 225.036 88.6542   3
   7 -20   0 366.283 122.379   4
   7 -20   1 365.595 109.722   4
  20 -13  -1 504.406 126.880   4
  13 -20   1 454.412 119.313   3
  13 -20  -1 439.554 120.505   4
  13 -20   1 574.481 123.909   4
   7 -20  -1 477.954 132.845   4
  20 -13  -2 198.023 108.454   4
  13 -20   2 169.772 101.040   3
  13 -20  -2 182.718 104.837   4
   7 -20  -2 161.930 105.223   4
  13 -20   3 302.797 114.318   3
  20 -13  -3 309.935 116.964   4
  13 -20  -3 327.905 123.334   4
   7 -20  -3 309.117 128.237   4
 -13  -7  -4 303.391 29.7663  10
 -13  -7  -4 255.955 27.8450   9
  13 -20   4 232.009 99.4967   3
 -20   7  -4 312.210 31.5135   9
  20 -13  -4 342.233 118.647   4
  -7 -13  -4 298.717 31.5210   8
  13 -20  -4 242.765 116.577   4
   7 -20   4 305.600 121.195   3
   7 -20  -4 263.570 28.8542   7
   7 -20  -4 353.626 130.524   4
   7 -20  -5 165.903 27.2202   7
  13 -20  -5 177.699 25.1436   7
 -13  -7   5 130.806 26.7070  10
  -7 -13  -5 185.163 31.4422   8
 -13  -7  -5 167.877 28.0551  10
 -13  -7  -5 133.053 25.3186   9
  13 -20   5 159.787 100.913   3
  20 -13  -5 230.503 110.837   4
 -20   7  -5 118.687 28.0091   9
  -7 -13  -5 112.062 22.4654  10
   7 -20   5 257.454 111.266   3
  13 -20   5 198.040 29.2234   6
  13 -20  -5 113.050 100.929   4
   7 -20   5 184.109 27.6162   6
  20 -13   5 212.082 92.5375   3
   7 -20  -5 58.7429 104.104   4
  13 -20  -6 243.638 28.1006   7
  13 -20   6 288.603 30.6207   6
  13 -20   6 421.743 124.081   3
 -13  -7  -6 225.345 28.0877  10
 -13  -7  -6 275.977 29.5407   9
  20 -13  -6 291.082 125.533   4
   7 -20   6 177.528 103.456   3
 -20   7  -6 205.428 29.1702   9
  -7 -13  -6 329.580 34.4059   8
   7 -20   6 149.705 26.2415   6
  13 -20  -6 236.214 128.744   4
   7 -20  -6 284.186 30.3253   7
  20 -13   6 243.330 86.1446   3
   7 -20  -6 394.322 135.262   4
   7 -20  -7 6.59219 94.9387   4
   7 -20  -7 102.354 29.1432   7
  13 -20  -7 80.8169 26.2732   7
 -13  -7  -7 67.4305 25.6134  10
   7 -20   7-14.6969 93.2061   3
  20 -13  -7-154.448 105.538   4
 -20   7  -7 22.4220 25.9121   9
   7 -20   7 104.621 27.7846   6
 -20  13  -7 18.4807 26.7464   9
  13 -20   7-77.2838 119.353   3
  -7 -13  -7 130.295 32.7259   8
  13 -20  -7-101.655 112.935   4
 -13  -7  -7 13.3402 23.0293   9
  20 -13   7-80.9749 98.5678   3
  13 -20   7 83.1829 28.0043   6
   7 -20  -8 160.457 29.2564   7
  13 -20  -8 177.295 30.0305   7
  13 -20   8 221.129 99.2573   3
 -13  -7  -8 156.425 27.6392  10
  20 -13  -8 46.4794 87.2020   4
   7 -20   8 211.396 29.8088   6
  13 -20   8 183.087 29.8330   6
  -7 -13  -8 178.079 34.0115   8
   7 -20   8 69.7010 87.8558   3
  13 -20  -8 213.666 102.575   4
  20 -13   8 229.232 97.4225   3
   7 -20  -9 53.0380 26.3846   7
  13 -20  -9 67.0403 27.6222   7
 -13  -7  -9 25.0562 24.4139  10
   7 -20   9 59.2012 24.7894   6
  13 -20   9 3.84444 26.3533   6
  -7 -13  -9 31.1480 29.4769   8
   7 -20 -10 50.5381 26.5167   7
  13 -20 -10 46.2825 27.7618   7
 -13  -7 -10 73.9621 23.4904  10
   7 -20  10 58.7098 22.8938   6
  13 -20  10 33.6951 26.4593   6
  -7 -13 -10 6.55894 28.9369   8
   7 -20 -11 54.7718 24.9676   7
  13 -20 -11 75.3022 28.2902   7
   7 -20  11 61.9231 21.5071   6
 -13  -7 -11 29.6513 21.2572  10
  13 -20  11 38.4543 24.2173   6
  -7 -13 -11 35.7512 29.1383   8
   7 -20 -12 13.9704 22.4157   7
  13 -20 -12 66.0039 27.3390   7
  13 -20  12-0.89848 20.4574   6
   7 -20  12-26.5456 20.0013   6
  -7 -13 -12 12.1747 26.0646   8
 -13  -7 -12 40.8274 19.7075  10
   7 -20 -13 3.20366 19.1211   7
  13 -20 -13-8.77174 22.8753   7
  20 -13 -13 28.7244 19.3952   7
   7 -20  13 4.50851 18.2552   6
  13 -20  13-19.9819 17.1596   6
  -7 -13 -13 2.37276 23.2258   8
   7 -20 -14 1.42447 15.1165   7
  13 -20 -14-14.0792 18.1162   7
  20 -13 -14 10.3236 16.6821   7
  13 -20  14-10.5809 14.4617   6
   7 -20  14 20.4541 17.0972   6
  -7 -13 -14-10.9643 19.2293   8
   7 -20 -15-5.51473 9.54157   7
  13 -20 -15-0.15381 13.8545   7
  20 -13 -15 2.51008 13.5155   7
   7 -20  15 16.7307 15.2871   6
  13 -20  15 6.14326 12.3370   6
  -7 -13 -15 5.55020 15.2805   8
  20 -13 -16 10.0242 10.5863   7
  20  -7 -16 3.47683 10.0475   7
  20 -14   0 17.0720 91.7654   4
  14 -20   0 150.724 102.497   4
  14 -20   0-7.20745 75.5750   3
   6 -20  -1 31.2473 95.5329   4
  20 -14   1 144.274 89.6945   4
  20 -14  -1 145.250 104.792   4
  14 -20   1-17.1221 80.2240   3
  14 -20  -1-24.3693 88.8133   4
  14 -20   1-30.9518 87.9434   4
   6 -20  -2-4.92550 90.9056   4
  20 -14   2-102.715 85.2747   4
  20 -14  -2-52.7848 102.951   4
  14 -20   2 49.4936 82.8384   3
  14 -20  -2-51.4709 98.6877   4
  20 -14   3-5.17728 66.6431   4
  20 -14  -3-33.0118 91.6552   4
  14 -20  -3 9.43978 98.8142   4
  14 -20   3 46.9586 92.3772   3
   6 -20  -3 3.24235 100.095   4
   6 -20  -4-54.9642 115.353   4
   6 -20  -4 33.2565 24.2708   7
  14 -20   4 64.1824 103.357   3
 -14  -6  -4 22.4722 25.2770  10
 -14  -6  -4 20.0002 24.7352   9
  20 -14  -4 179.845 111.573   4
 -20   6  -4 13.5797 25.2289   9
  -6 -14  -4 35.2729 24.4009   8
 -14  -6   4 21.8907 23.1757  10
  14 -20  -4 190.219 110.773   4
   6 -20  -5 3.36212 104.097   4
   6 -20  -5 26.9060 23.1841   7
  14 -20  -5 15.8890 21.3795   7
  14 -20   5-31.7674 85.2634   3
 -14  -6  -5 36.6769 24.7044  10
 -14  -6  -5 6.09075 23.4603   9
 -14  -6   5 18.4487 23.5100  10
  20 -14  -5-10.7062 102.473   4
 -20   6  -5 45.0357 27.1996   9
  -6 -14  -5 4.91369 26.2824   8
  14 -20  -5 38.9697 98.1299   4
  14 -20   5 33.4014 28.0391   6
  20 -14   5 33.5528 79.5266   3
   6 -20  -6 90.2210 27.4053   7
  14 -20  -6 56.2928 24.2454   7
  14 -20   6-123.505 97.2727   3
   6 -20   6 121.432 25.7697   6
 -14  -6  -6 64.9201 26.1105  10
 -14  -6  -6 25.2283 24.7336   9
 -20   6  -6 24.2082 26.5733   9
  20 -14  -6-44.6979 93.8331   4
  14 -20   6 85.2219 29.7909   6
  14 -20  -6-26.2371 106.653   4
  -6 -14  -6 65.6981 30.3607   8
   6 -20   6 45.1921 87.6516   3
  20 -14   6 46.1039 79.9649   3
   6 -20  -7 31.9565 25.8229   7
  14 -20   7 8.30258 26.8154   6
   6 -20   7-2.51870 87.3457   3
  14 -20  -7 7.56350 23.8940   7
  14 -20   7 27.7223 88.0370   3
 -14  -6  -7 29.5401 25.2555  10
 -14  -6  -7 52.0936 23.9748   9
 -20   6  -7 14.4525 24.0829   9
  20 -14  -7-28.3892 82.5119   4
   6 -20   7 21.7751 19.4272   6
  -6 -14  -7 4.04782 27.7015   8
  14 -20  -7 35.2002 101.305   4
  20 -14   7 67.2849 84.1004   3
   6 -20  -8 41.2289 26.6596   7
  14 -20  -8 34.4660 26.0665   7
  14 -20   8-24.5273 92.2447   3
   6 -20   8 30.7928 24.1451   6
  20 -14  -8-122.110 98.3088   4
  14 -20   8 13.6907 27.8579   6
  -6 -14  -8 33.7017 29.9100   8
   6 -20   8-109.004 104.486   3
  14 -20  -8 0.60998 102.484   4
  20 -14   8-77.4410 95.6873   3
   6 -20  -9 38.1299 25.2960   7
  14 -20  -9 50.3698 27.1085   7
   6 -20   9 37.1528 22.9616   6
  14 -20   9 36.5852 26.4053   6
   6 -20  -9 35.2940 21.2557   8
  -6 -14  -9 5.78600 29.3415   8
   6 -20 -10 1.38082 24.5465   7
  14 -20 -10 3.87522 25.3620   7
   6 -20  10-16.0023 19.9861   6
  14 -20  10-13.1329 24.6957   6
   6 -20 -10-3.17299 19.6397   8
  -6 -14 -10-0.19357 28.2549   8
 -14  -6 -10-8.48535 22.6519  10
   6 -20 -11-8.11151 22.8361   7
  14 -20 -11 18.3745 25.7896   7
   6 -20  11 6.27890 18.8436   6
  14 -20  11-8.76081 22.6458   6
   6 -20 -11-12.7272 19.3590   8
  -6 -14 -11 0.74001 27.5718   8
 -14  -6 -11 3.68447 21.5064  10
   6 -20 -12 11.4070 20.3552   7
  14 -20 -12 5.96837 24.8932   7
  20 -14 -12 3.59744 19.5511   7
 -14  -6 -12-5.95013 19.3287  10
   6 -20  12 17.9322 18.7399   6
  14 -20  12 1.42510 18.8889   6
   6 -20 -12-26.6298 18.3103   8
  -6 -14 -12 14.9799 26.6053   8
   6 -20 -13-15.1649 17.6308   7
  14 -20 -13 18.2874 21.8927   7
  20 -14 -13 19.3327 18.5579   7
 -14  -6 -13-4.65848 16.5717  10
   6 -20  13 9.54495 18.1975   6
  14 -20  13-8.81831 15.4426   6
   6 -20 -13 11.3380 15.7262   8
  -6 -14 -13-16.2599 23.0695   8
   6 -20 -14 3.86772 13.9092   7
  14 -20 -14 6.47964 17.2432   7
  20 -14 -14 16.0550 16.3078   7
   6 -20  14 11.6450 16.8285   6
  -6 -14 -14 7.86605 19.0486   8
  14 -20  14-21.3244 13.1562   6
  14 -20 -15-16.6537 13.3203   7
  20 -14 -15 16.4739 13.5910   7
  14 -20  15 10.1031 11.5975   6
   6 -20  15 5.67609 13.9033   6
  -6 -14 -15-3.05086 14.8340   8
   6 -20 -15-3.57393 10.0656   7
  20 -15   0 532.303 127.995   4
  15 -20   0 499.437 119.172   4
  15 -20  -1-24.1612 80.1654   4
  15 -20   1 55.6566 74.7103   4
  20 -15   1-14.9869 80.1867   4
  15 -20   1 5.25595 72.1347   3
  20 -15  -1 69.8427 85.8290   4
  20 -15   2 62.8846 73.9498   4
  20 -15  -2-42.5884 86.9592   4
  15 -20  -2 129.064 99.3580   4
  15 -20   2 76.6036 85.1835   3
 -15  -5  -3 126.578 24.7977  10
 -15  -5  -3 146.345 26.4557   9
  20 -15  -3 141.705 104.316   4
 -20   5  -3 126.779 27.0844   9
  15 -20  -3 41.8813 88.9772   4
  20 -15   3 175.801 76.2878   4
  -5 -15  -3 103.001 25.6331   8
  15 -20   3 56.6285 85.5781   3
   5 -20  -3 140.923 25.0689   7
   5 -20  -4 220.896 27.0568   7
  15 -20   4 232.403 99.3572   3
  -5 -15  -4 236.967 30.6854   8
 -15  -5  -4 222.407 28.8442  10
 -15  -5  -4 200.806 28.0842   9
  20 -15  -4 249.662 112.995   4
 -20   5  -4 267.390 30.1331   9
 -15  -5   4 174.478 26.4518  10
  15 -20  -4 216.826 106.540   4
  -5 -15  -4 218.319 26.6904   7
   5 -20  -5 3.70132 22.6855   7
  20 -15   5 73.4036 76.0775   3
  15 -20  -5 3.65375 20.4369   7
  15 -20   5-49.0026 100.462   3
  20 -15  -5 72.3694 88.5203   4
 -15  -5  -5 3.58111 25.9743  10
 -15  -5  -5 12.3837 23.1250   9
 -20   5  -5 6.58453 25.1877   9
   5 -20  -5-15.4696 21.1353   8
  -5 -15  -5-1.21514 26.0132   8
  15 -20  -5 100.688 108.383   4
  15 -20   5 17.9867 27.0135   6
  -5 -15  -5 16.2946 21.5539   7
   5 -20  -6 84.8622 25.1244   7
  15 -20  -6 65.4062 23.5637   7
  15 -20   6 12.3150 80.6485   3
 -15  -5  -6 60.7110 25.5300   9
 -20   5  -6 119.377 27.8632   9
  20 -15  -6 152.701 111.362   4
  -5 -15  -6 96.7714 27.9962   8
  15 -20   6 114.436 28.9173   6
  15 -20  -6 67.9641 102.351   4
   5 -20  -6 74.7145 22.5057   8
  20 -15   6 75.3613 74.6962   3
   5 -20  -7-12.5508 25.0774   7
  15 -20  -7 18.1229 23.4798   7
  15 -20   7-86.8559 97.4677   3
 -15  -5  -7 5.82107 23.5953   9
 -20   5  -7-13.0954 24.1508   9
  20 -15  -7 14.5745 82.3550   4
  15 -20   7 16.1866 26.9523   6
   5 -20  -7-6.41571 20.3163   8
  -5 -15  -7 10.5847 27.9641   8
  15 -20  -7-38.7776 101.054   4
  20 -15   7 5.48479 68.7740   3
   5 -20  -8 35.7294 26.2076   7
  15 -20  -8 41.4319 25.3825   7
 -15  -5  -8 35.1406 22.9738   9
 -20   5  -8 11.3788 23.8416   9
   5 -20   8 20.4127 18.2569   6
  15 -20   8 57.5187 26.4903   6
  -5 -15  -8 11.6707 29.7192   8
   5 -20  -8 30.7879 22.0771   8
   5 -20  -9 36.9904 24.5045   7
  15 -20  -9 24.1716 24.8660   7
  20 -15  -9 64.1211 20.3957   7
   5 -20   9 118.383 21.7367   6
   5 -20  -9 43.0412 22.3493   8
  -5 -15  -9 31.6066 29.7658   8
  15 -20   9 24.8039 25.4088   6
   5 -20 -10 5.58014 23.1531   7
  15 -20 -10 56.5035 25.9600   7
  20 -15 -10 27.5272 20.0378   7
   5 -20  10 49.4993 18.9570   6
   5 -20 -10-1.56602 20.9007   8
  -5 -15 -10 30.8762 29.0259   8
  15 -20  10 24.4193 24.2185   6
   5 -20 -11 10.5566 21.5216   7
  15 -20 -11 8.26808 24.3726   7
  20 -15 -11 10.0632 19.4725   7
 -15  -5 -11 11.2509 21.7692  10
   5 -20  11 5.12069 17.3333   6
  15 -20  11-3.54354 21.1763   6
  -5 -15 -11 12.8497 27.5960   8
   5 -20 -11 16.9176 19.3483   8
   5 -20 -12-7.08794 19.3219   7
  15 -20 -12 8.03739 23.2163   7
  20 -15 -12-4.90054 19.0835   7
 -15  -5 -12 6.37115 19.8092  10
  15 -20  12 5.23028 17.4883   6
   5 -20 -12 9.14946 17.5376   8
  -5 -15 -12-10.4658 26.1799   8
   5 -20  12-22.4668 18.2346   6
  15 -20  13 4.05720 13.8497   6
   5 -20 -13 3.69872 16.1398   7
  15 -20 -13 24.6890 20.7528   7
  20 -15 -13 19.5705 17.9215   7
 -15  -5 -13 2.63569 17.2130  10
   5 -20  13-8.42074 17.8992   6
   5 -20 -13-9.64515 15.5370   8
  -5 -15 -13 23.3019 22.6764   8
  15 -20 -14 31.9759 17.2480   7
  20 -15 -14 13.8007 15.5748   7
  15 -20  14-11.6920 12.2224   6
  -5 -15 -14-1.15579 18.4013   8
   5 -20 -14 7.92104 13.0695   8
   5 -20  14 8.49500 15.9873   6
   5 -20 -14-6.58587 11.0686   7
  15 -20 -15 10.9113 12.0611   7
  20 -15 -15 15.4172 12.5486   7
  15 -20  15-6.71641 10.5043   6
  -5 -15 -15-4.48794 14.2334   8
   5 -20  15 16.5035 13.8608   6
  20 -16   0 386.638 115.363   4
  16 -20   0 499.712 126.254   4
  20 -16  -1 984.929 160.315   4
  16 -20  -1 808.830 159.078   4
  16 -20   1 805.091 143.074   4
 -16  -4  -1 879.410 41.3280   9
 -20   4  -1 835.067 41.8866   9
  -4 -16   1 1038.40 44.7294   7
  20 -16   1 790.197 145.034   4
  16 -20   1 866.302 133.610   3
   4 -20  -1 827.513 41.2571   7
 -16  -4   2 931.292 42.7622  10
 -16  -4  -2 1093.68 43.5825  10
 -16  -4   2 1076.58 42.2537   9
 -20   4  -2 1123.02 46.5880   9
  16 -20  -2 1088.97 169.822   4
 -16  -4  -2 1223.65 46.6676   9
 -20   4   2 1077.10 43.7384   9
  20 -16  -2 1138.73 171.822   4
  -4 -16  -2 1225.34 47.7692   8
  20 -16   2 1028.68 155.071   4
   4 -20   2 1269.08 44.5574   7
  -4 -16  -2 1350.46 48.6453   7
   4 -20  -2 1211.94 45.7355   7
  16 -20   2 1006.35 149.264   3
 -16  -4  -3 814.748 41.4285  10
 -16  -4   3 877.804 38.3473   9
 -16  -4  -3 947.693 41.2306   9
 -20   4   3 829.065 40.0119   9
 -20   4  -3 928.014 43.7943   9
  20 -16  -3 900.496 160.208   4
 -16  -4   3 795.710 41.6692  10
  16 -20   3 755.141 138.181   3
   4 -20  -3 805.259 35.5428   8
  16 -20  -3 789.885 159.211   4
   4 -20   3 904.638 37.8500   7
  -4 -16  -3 906.518 42.3571   7
   4 -20  -3 1000.37 42.4163   7
  -4 -16  -3 821.200 42.5621   8
  16 -20  -4 429.712 126.912   4
 -16  -4  -4 523.792 37.1104  10
  16 -20   4 566.228 129.167   3
   4 -20  -4 476.028 30.2728   8
 -16  -4  -4 589.197 37.7411   9
  20 -16  -4 472.703 131.445   4
  -4 -16  -4 530.512 36.6284   8
  -4 -16  -4 256.388 29.9368   7
   4 -20  -4 548.878 35.7306   7
 -20   4  -4 567.369 37.8246   9
  20 -16  -5 966.469 171.627   4
  -4 -16  -5 1017.87 46.0443   8
  20 -16   5 788.347 129.612   3
  16 -20   5 1153.36 44.5915   6
 -16  -4  -5 986.678 43.7892  10
 -20   4  -5 891.040 43.2643   9
  16 -20  -5 903.770 37.2159   7
   4 -20  -5 927.882 38.8950   8
  16 -20  -5 916.233 172.614   4
  16 -20   5 1004.60 157.464   3
   4 -20  -5 933.086 42.6193   7
 -16  -4  -5 1003.27 44.4517   9
  20 -16   6 400.918 117.171   3
  16 -20   6 458.538 34.1475   6
  16 -20   6 418.600 118.539   3
  -4 -16  -6 506.436 37.6347   8
 -16  -4  -6 439.986 33.8193   9
 -20   4  -6 454.151 35.5945   9
  20 -16  -6 323.122 118.070   4
   4 -20  -6 428.980 31.5495   8
  16 -20  -6 555.610 152.288   4
  -4 -16  -6 492.697 32.9990   7
   4 -20  -6 500.221 35.2124   7
  16 -20  -6 453.764 30.6783   7
  20 -16   7 399.966 107.757   3
  16 -20   7 524.465 35.1517   6
  16 -20   7 518.864 126.637   3
 -20   4  -7 459.057 35.1579   9
 -16  -4  -7 466.832 34.2194   9
   4 -20  -7 462.180 31.7309   8
  20 -16  -7 499.189 133.560   4
  -4 -16  -7 520.892 38.7107   8
  16 -20  -7 571.886 149.636   4
   4 -20  -7 548.464 35.0606   7
  16 -20  -7 457.333 31.3268   7
  16 -20   8 284.270 31.9767   6
 -16  -4  -8 274.798 29.2078   9
 -20   4  -8 294.150 31.2391   9
   4 -20  -8 279.922 29.0001   8
  -4 -16  -8 352.777 36.1983   8
   4 -20  -8 298.535 30.3928   7
  16 -20  -8 278.009 29.5182   7
   4 -20  -9 204.753 27.9130   7
  16 -20  -9 215.407 28.1701   7
   4 -20   9 297.183 23.0561   6
  16 -20   9 202.604 28.4537   6
   4 -20  -9 190.937 26.3071   8
  -4 -16  -9 240.232 34.3496   8
  20 -16  -9 203.696 23.8437   7
   4 -20 -10 37.1759 22.0382   7
  16 -20 -10 41.4652 24.0156   7
  20 -16 -10 26.7218 20.0208   7
   4 -20  10 63.4154 17.7201   6
  16 -20  10 11.3852 22.7790   6
   4 -20 -10 12.2533 21.5183   8
  -4 -16 -10 15.9648 28.1473   8
   4 -20 -11 36.1476 20.7558   7
  16 -20 -11 27.4280 23.5159   7
  20 -16 -11 36.0761 20.1297   7
  16 -20  11 16.9244 19.9219   6
   4 -20 -11 30.1117 20.6092   8
  -4 -16 -11-11.3257 27.6084   8
   4 -20  11 3.66838 17.2332   6
   4 -20 -12-12.1399 17.9212   7
  16 -20 -12 27.3233 22.0137   7
  20 -16 -12-7.27733 18.1978   7
  16 -20  12 7.22651 16.2558   6
   4 -20  12-5.51709 16.9718   6
   4 -20 -12 14.5817 18.2703   8
  -4 -16 -12 24.6382 25.4662   8
 -16  -4 -12-15.4172 20.2689  10
  16 -20 -13 15.8117 19.2233   7
  20 -16 -13 11.6000 17.2171   7
   4 -20  13-16.5104 16.4979   6
 -16  -4 -13 10.7865 17.2176  10
  16 -20  13 8.89162 13.0184   6
   4 -20 -13 0.52317 15.8187   8
  -4 -16 -13 2.63264 21.4265   8
   4 -20 -13 5.84855 14.4829   7
   4 -20 -14 1.76257 13.1804   8
  16 -20 -14 17.6737 15.9213   7
  20 -16 -14 6.93403 14.7954   7
   4 -20  14 4.81950 15.0737   6
 -16  -4 -14-7.37548 13.3889  10
  16 -20  14-0.94937 11.0562   6
  -4 -16 -14 1.04133 17.2662   8
  16 -20 -15 11.0655 11.2160   7
  20 -16 -15 0.00634 11.5448   7
   4 -20  15-3.33549 12.3959   6
  -4 -16 -15-3.61906 13.0261   8
   4 -20 -15 1.15990 8.73648   8
  16 -20  15 3.53268 9.09285   6
  -3 -17   0 280.874 27.8432  10
 -17  -3   0 322.459 31.3550  10
 -17  -3   0 390.304 30.6370   9
  17 -20   0 292.830 107.408   4
 -20   3   0 310.724 29.8903   9
  20 -17   0 381.733 113.923   4
  -3 -17   0 307.910 31.2358   7
   3 -20   0 369.432 32.9809   7
 -17  -3  -1 471.130 35.2739  10
 -17  -3   1 507.799 33.8900   9
  17 -20  -1 798.273 148.352   4
  17 -20   1 648.092 132.542   4
 -17  -3  -1 594.498 35.8922   9
 -20   3   1 534.778 34.9147   9
 -20   3  -1 528.793 34.5315   9
  -3 -17  -1 542.328 32.2712  10
  20 -17   1 693.164 136.671   4
  20 -17  -1 630.183 140.847   4
 -17  -3   1 462.543 33.4207  10
  -3 -17   1 681.060 38.8342   7
  -3 -17  -1 649.392 37.5272   7
   3 -20   1 613.498 36.1860   7
   3 -20  -1 636.563 37.8844   7
 -17  -3   2 325.044 31.9017  10
 -17  -3  -2 357.957 31.3730  10
 -17  -3   2 392.056 30.8912   9
 -17  -3  -2 367.170 31.9278   9
  17 -20   2 323.208 96.8145   3
 -20   3  -2 417.227 31.6974   9
  -3 -17  -2 327.666 32.0148   8
  20 -17   2 222.395 85.1009   4
  20 -17  -2 286.896 115.237   4
   3 -20  -2 331.720 28.4040   8
  17 -20  -2 496.200 132.187   4
   3 -20   2 378.071 30.4054   7
  -3 -17  -2 397.959 33.9424   7
   3 -20  -2 431.628 32.7817   7
 -20   3   2 362.602 30.3322   9
  -3 -17  -3 265.471 30.8464   8
 -17  -3   3 247.694 26.7012   9
 -17  -3  -3 310.134 30.9093   9
 -20   3  -3 257.224 30.1829   9
  17 -20   3 253.959 90.3558   3
 -17  -3  -3 336.782 32.0815  10
  20 -17  -3 298.881 115.689   4
   3 -20  -3 263.745 25.9086   8
  17 -20  -3 263.198 114.949   4
   3 -20   3 275.525 28.7429   7
  -3 -17  -3 290.802 31.9175   7
 -20   3   3 282.499 28.7157   9
   3 -20  -3 294.023 31.6068   7
  17 -20   4 171.400 88.4898   3
 -17  -3  -4 118.154 28.3332   9
  17 -20  -4 185.185 101.506   4
 -20   3  -4 117.288 28.0543   9
  20 -17  -4 220.073 110.915   4
  -3 -17  -4 128.104 29.0551   8
   3 -20  -4 108.719 24.3858   8
 -17  -3  -4 140.891 29.8351  10
  -3 -17  -4 130.146 27.6221   7
   3 -20  -4 132.826 27.3114   7
   3 -20  -5 254.785 28.0816   8
  20 -17   5 308.945 96.5063   3
  17 -20   5 299.534 109.028   3
 -17  -3  -5 282.346 31.6593   9
 -20   3  -5 275.067 32.1683   9
  20 -17  -5 227.781 105.499   4
  -3 -17  -5 268.564 31.5505   8
  17 -20  -5 415.221 135.229   4
  20 -17   5 221.570 26.9576   6
  17 -20   5 280.481 30.7867   6
   3 -20  -5 314.854 31.2939   7
  -3 -17  -5 260.011 30.1651   7
  -3 -17  -6 75.0080 29.6459   8
  17 -20  -6 83.6509 22.0692   7
  20 -17   6 137.820 81.2547   3
  17 -20   6 138.949 87.0248   3
  20 -17  -6 117.430 99.9714   4
   3 -20  -6 96.3200 25.0067   8
  17 -20  -6 79.4048 94.4325   4
  20 -17   6 75.2292 21.9856   6
  17 -20   6 77.9145 26.4497   6
 -20   3  -6 81.6942 27.0610   9
  -3 -17  -6 101.509 24.3455   7
 -17  -3  -6 94.0210 26.6927   9
   3 -20  -6 65.9321 25.2231   7
  20 -17   7 304.705 108.314   3
  20 -17   7 293.239 26.1928   6
  17 -20   7 338.180 32.1539   6
  17 -20   7 379.000 118.992   3
  20 -17  -7 391.410 123.461   4
 -17  -3  -7 322.772 31.6000   9
 -20   3  -7 332.365 33.2883   9
   3 -20  -7 343.970 30.6979   8
  -3 -17  -7 362.898 35.2947   8
  17 -20  -7 83.2075 102.070   4
   3 -20  -7 300.922 31.1053   7
  17 -20  -7 322.887 29.0794   7
  -3 -17  -7 133.791 21.9227   7
   3 -20  -8 0.83188 23.2531   7
  17 -20  -8-15.0405 22.9772   7
  20 -17  -8-27.7258 19.9806   7
 -20   3  -8 2.88774 24.2228   9
  20 -17   8 0.17874 19.2862   6
  17 -20   8-17.7081 25.0478   6
   3 -20  -8 11.6572 24.0137   8
  -3 -17  -8-4.07713 27.3467   8
 -17  -3  -8 23.7495 23.2811   9
   3 -20  -9 47.9822 23.2034   7
  17 -20  -9 31.8959 23.3136   7
  20 -17  -9 28.7771 19.5442   7
  17 -20   9 29.9276 24.2122   6
  -3 -17  -9 65.5740 29.7432   8
   3 -20  -9 38.8403 23.3704   8
   3 -20 -10 3.18831 20.3306   7
  17 -20 -10 12.2875 22.5619   7
  20 -17 -10 5.77679 18.8691   7
  17 -20  10 4.21482 20.8283   6
  -3 -17 -10-2.72188 27.6594   8
   3 -20 -10-10.3939 21.4873   8
  17 -20 -11 19.7004 22.0811   7
  20 -17 -11-10.8227 18.7920   7
  17 -20  11-12.0348 18.3804   6
   3 -20 -11-6.09642 20.8589   8
  -3 -17 -11 5.07487 26.8326   8
   3 -20 -11 24.7701 19.0914   7
  17 -20 -12 0.21790 20.4667   7
  20 -17 -12 1.27130 17.3774   7
   3 -20  12-0.27401 16.5290   6
 -17  -3 -12-21.8325 20.9641  10
  17 -20  12 0.69524 14.6158   6
   3 -20 -12-10.1276 19.0370   8
  -3 -17 -12 19.7190 23.8016   8
   3 -20 -12 3.79254 16.2565   7
  17 -20 -13-3.31911 18.1700   7
  20 -17 -13 1.12741 15.9173   7
   3 -20  13-34.1404 14.4791   6
 -17  -3 -13 13.3740 17.0437  10
  17 -20  13-6.14972 11.5737   6
   3 -20 -13-4.04222 16.1790   8
  -3 -17 -13 2.80195 20.4038   8
   3 -20 -13-3.29601 11.4701   7
   3 -20 -14 2.76071 12.6392   8
  17 -20 -14 6.63357 14.0371   7
  20 -17 -14 0.00753 13.3836   7
 -17  -3 -14-11.6748 13.6186  10
  17 -20  14 4.49211 10.0194   6
   3 -20  14-0.59467 13.2641   6
  -3 -17 -14 7.92313 16.4926   8
  17 -20 -15-8.76387 10.1034   7
  20 -17 -15 6.41645 9.98815   7
 -20   3 -15-8.56181 11.5747  10
  -3 -17 -15 16.7497 12.1495   8
 -18  -2   0 427.063 32.7454   9
 -20   2   0 398.359 31.5516   9
  20 -18   0 327.090 106.442   4
 -18  -2   0 279.660 29.7044  10
  18 -20   0 442.506 123.380   4
  -2 -18   0 449.596 34.4574   7
   2 -20   0 499.270 35.3267   7
  20 -18   1 1260.53 172.712   4
  20 -18  -1 1488.46 193.156   4
  18 -20  -1 1586.92 197.915   4
  18 -20   1 1156.22 163.244   4
 -18  -2   1 1332.96 49.8070  10
 -20   2  -1 1332.46 49.1699  10
 -18  -2  -1 1285.38 49.0793  10
 -18  -2   1 1432.61 48.9670   9
 -20   2   1 1418.21 50.1879   9
 -20   2  -1 1457.59 50.3525   9
 -18  -2  -1 1487.23 51.2340   9
  -2 -18   1 1634.59 53.6175   7
   2 -20   1 1581.61 50.8439   7
  -2 -18  -1 1655.64 55.2347   7
   2 -20  -1 1649.73 54.5370   7
  20 -18  -2 1496.32 192.508   4
  20 -18   2 1370.45 176.646   4
  18 -20  -2 1326.05 185.828   4
 -18  -2   2 1307.18 49.9008  10
 -18  -2  -2 1327.29 50.2172  10
 -20   2  -2 1443.48 50.0165  10
 -18  -2   2 1350.26 47.3540   9
 -18  -2  -2 1475.58 50.8301   9
 -20   2  -2 1454.06 51.2794   9
 -20   2   2 1437.53 49.0068   9
  -2 -18  -2 1432.90 49.0707   8
   2 -20   2 1644.05 50.7123   7
  -2 -18  -2 1587.01 52.1014   7
   2 -20  -2 1517.78 52.1785   7
  20 -18  -3 1013.36 169.612   4
 -18  -2   3 945.711 40.5452   9
 -18  -2  -3 943.151 44.1559  10
 -18  -2  -3 991.758 44.5971   9
 -20   2  -3 1000.61 43.9987   9
 -20   2   3 886.218 40.1228   9
  -2 -18  -3 997.881 42.9897   8
  18 -20   3 821.953 130.677   3
   2 -20  -3 871.678 39.3372   8
  18 -20  -3 973.933 170.278   4
  -2 -18  -3 1133.72 45.7182   7
   2 -20  -3 1029.51 43.5375   7
  20 -18  -4 1109.64 172.150   4
 -18  -2  -4 866.603 44.0761  10
 -18  -2  -4 945.048 42.7566   9
 -20   2  -4 893.911 43.0841   9
  18 -20  -4 960.931 176.549   4
  18 -20   4 770.854 131.334   3
   2 -20  -4 877.464 38.8488   8
  -2 -18  -4 935.979 42.9050   8
  -2 -18  -4 957.587 43.1957   7
   2 -20  -4 863.339 42.6801   7
  20 -18   5 869.417 135.598   3
  20 -18   5 860.493 38.6215   6
  18 -20   5 1033.57 42.7848   6
  18 -20   5 956.234 151.704   3
 -18  -2  -5 985.332 45.2242   9
 -20   2  -5 1024.80 45.8996   9
  20 -18  -5 977.787 168.061   4
  -2 -18  -5 1105.95 45.2162   8
   2 -20  -5 921.891 40.5805   8
  -2 -18  -5 978.825 43.3675   7
   2 -20  -5 1055.19 43.8176   7
  18 -20  -5 986.528 166.266   4
  20 -18   6 508.284 118.264   3
  20 -18   6 539.928 31.5917   6
  18 -20   6 677.014 35.7894   6
  18 -20   6 521.508 121.430   3
 -18  -2  -6 606.150 37.5200   9
 -20   2  -6 600.224 38.2076   9
   2 -20  -6 533.182 33.2327   8
  -2 -18  -6 538.543 37.9721   8
  18 -20  -6 677.517 146.261   4
  -2 -18  -6 592.698 35.2847   7
   2 -20  -6 588.266 35.9498   7
  20 -18   7 680.819 34.2427   6
  18 -20   7 845.198 39.3228   6
  -2 -18  -7 917.022 44.5553   8
 -20   2  -7 835.246 42.7456   9
   2 -20  -7 821.066 40.1266   8
  -2 -18  -7 829.982 39.1924   7
   2 -20  -7 782.846 39.6585   7
  18 -20  -7 733.319 34.7057   7
 -18  -2  -7 815.009 42.0314   9
  18 -20  -8 157.929 24.2791   7
  20 -18  -8 126.206 21.3149   7
 -20   2  -8 193.011 27.8795   9
 -18  -2  -8 167.900 26.5425   9
  20 -18   8 130.933 22.2171   6
  18 -20   8 143.709 26.1221   6
   2 -20  -8 156.010 27.3853   8
  -2 -18  -8 158.168 31.0055   8
  -2 -18  -8 53.7729 20.1920   7
   2 -20  -8 151.856 26.7129   7
  18 -20  -9 60.3265 22.6645   7
  20 -18  -9 58.4718 20.6566   7
  20 -18   9 41.9433 19.0840   6
  18 -20   9 52.4782 23.1902   6
  -2 -18  -9 96.1861 29.9994   8
   2 -20  -9 91.0051 26.3690   8
   2 -20  -9 70.2284 23.5404   7
  18 -20 -10 40.1683 22.0964   7
  20 -18 -10 47.5947 20.4915   7
  20 -18  10 35.3410 16.8677   6
  18 -20  10 37.7992 20.4668   6
   2 -20 -10 39.2019 23.1126   8
  -2 -18 -10 48.9232 28.0124   8
   2 -20 -10 17.5725 19.8377   7
  18 -20 -11 35.2024 21.2605   7
  20 -18 -11-0.53631 18.9870   7
  18 -20  11 22.0964 16.6860   6
   2 -20 -11 18.1455 21.1933   8
  -2 -18 -11 2.03854 25.3519   8
   2 -20 -11 41.9690 18.5100   7
  18 -20 -12 23.2984 18.9998   7
  20 -18 -12 19.7622 17.2343   7
 -18  -2 -12 3.90283 20.3968  10
  18 -20  12 1.62695 12.6394   6
   2 -20 -12 11.3476 15.5669   7
   2 -20 -12-13.0792 18.6535   8
  -2 -18 -12 10.3107 21.9229   8
  18 -20 -13 14.9954 16.7020   7
  20 -18 -13 26.7034 16.3379   7
 -18  -2 -13 19.6990 17.5767  10
  18 -20  13-1.46870 10.2902   6
   2 -20 -13 4.09776 15.7187   8
  -2 -18 -13 12.8742 18.9484   8
  18 -20 -14 13.2115 13.5009   7
  20 -18 -14 16.9631 13.1583   7
 -18  -2 -14 2.75414 13.5537  10
  -2 -18 -14 10.2643 14.7978   8
  18 -20  14-4.49358 9.02100   6
   2 -20 -14-9.04409 12.9216   8
  18 -20 -15 9.72138 9.55739   7
  20 -18 -15-5.42084 9.47530   7
  -2 -18 -15-10.3318 10.6467   8
  19 -20   0 978.709 161.655   4
 -19  -1   0 883.152 42.1707   9
 -20   1   0 957.283 43.2021   9
  20 -19   0 862.183 151.412   4
  -1 -19   0 1123.82 45.7967   7
   1 -20   0 1135.58 46.4417   7
 -19  -1  -1 313.845 31.9315  10
 -19  -1  -1 321.340 32.6503   9
 -20   1   1 406.491 32.9541   9
 -20   1  -1 381.348 33.1425   9
 -19  -1   1 417.185 32.8677   9
  20 -19  -1 371.981 125.033   4
  20 -19   1 424.642 111.571   4
  19 -20  -1 456.923 121.026   4
  19 -20   1 317.349 96.2785   4
 -20   1  -1 392.621 33.0918  10
 -19  -1   1 346.891 32.5067  10
  -1 -19   1 465.960 35.1584   7
   1 -20   1 482.453 36.1046   7
   1 -20  -1 440.215 35.2995   7
  -1 -19  -1 436.840 36.2187   7
 -19  -1  -2 253.379 31.8322  10
 -20   1  -2 271.533 31.4472  10
 -20   1   2 262.307 28.8115   9
 -19  -1  -2 260.288 29.5764   9
 -20   1  -2 255.073 29.3420   9
 -19  -1   2 228.997 28.1625   9
  20 -19  -2 240.280 110.200   4
  19 -20  -2 280.717 103.857   4
   1 -20   2 310.731 31.9875   7
  -1 -19  -2 279.460 31.3378   7
   1 -20  -2 307.851 32.3219   7
   1 -20  -3 166.751 26.6952   8
 -20   1   3 172.591 24.3139   9
 -20   1  -3 188.406 28.9283  10
 -19  -1   3 237.351 26.7572   9
 -19  -1  -3 203.714 30.5382   9
 -20   1  -3 190.350 29.9655   9
  20 -19  -3 238.689 98.8320   4
 -19  -1  -3 190.662 30.5640  10
  19 -20  -3 201.346 99.2409   4
  -1 -19  -3 202.155 28.6438   8
  -1 -19  -3 226.847 30.5260   7
   1 -20  -3 206.362 30.5990   7
  19 -20   4 235.318 92.7992   3
 -19  -1  -4 149.618 30.6309  10
 -19  -1  -4 191.038 29.5482   9
 -20   1  -4 191.386 29.8600   9
  20 -19  -4 31.5698 83.1893   4
  19 -20  -4 173.626 108.465   4
   1 -20  -4 174.175 27.4407   8
  -1 -19  -4 140.701 27.6682   8
  -1 -19  -4 153.869 28.3872   7
   1 -20  -4 175.178 29.9491   7
  20 -19   5-21.1074 68.1673   3
  19 -20   5 96.7474 85.6904   3
  19 -20  -5 131.592 98.6945   4
 -20   1  -5 42.7223 27.4832   9
 -19  -1  -5 70.6464 28.8698   9
   1 -20  -5 47.3828 23.8803   8
  20 -19   5 36.7664 24.1506   6
  19 -20   5 46.3616 26.2811   6
  20 -19  -5 31.1481 95.4606   4
  -1 -19  -5 52.5889 26.4749   8
  -1 -19  -5 27.5250 25.9781   7
   1 -20  -5 60.0743 26.5120   7
 -19  -1  -6 245.594 31.1674   9
 -20   1  -6 205.544 31.1931   9
  -1 -19  -6 208.435 29.7053   8
  20 -19   6 166.707 25.9753   6
  19 -20   6 196.835 28.0258   6
   1 -20  -6 175.332 28.4465   8
  -1 -19  -6 189.833 28.6187   7
   1 -20  -6 192.647 29.5442   7
  19 -20   7-3.20473 24.9999   6
 -19  -1  -7 12.5268 27.0574   9
 -20   1  -7 24.1740 26.6790   9
  -1 -19  -7 36.7795 28.9938   8
  20 -19   7 27.5077 23.6435   6
   1 -20  -7 32.1201 25.8708   8
  -1 -19  -7 19.9449 25.4681   7
   1 -20  -7 37.3001 25.7162   7
  19 -20  -8 54.3945 20.8060   7
  20 -19  -8 39.9038 19.6600   7
 -20   1  -8 2.59186 23.3728   9
  -1 -19  -8 63.2324 28.2972   8
  19 -20   8 58.7289 23.4861   6
  20 -19   8 33.6708 20.8861   6
   1 -20  -8 78.4609 26.5939   8
 -19  -1  -8 89.3876 25.6057   9
  -1 -19  -8 61.4566 22.8177   7
   1 -20  -8 36.9490 23.1269   7
  19 -20  -9 45.1615 20.7161   7
  20 -19  -9 6.46143 19.1970   7
  20 -19   9 20.5895 18.5432   6
  19 -20   9 30.7396 21.2671   6
   1 -20  -9 22.3117 24.2380   8
  -1 -19  -9 77.6215 27.0414   8
  -1 -19  -9 30.1893 20.5038   7
   1 -20  -9 17.2095 21.0519   7
  19 -20 -10 1.36945 19.5935   7
  20 -19 -10-1.69710 19.3295   7
  20 -19  10 11.2750 16.2876   6
  19 -20  10 27.0784 18.6889   6
   1 -20 -10 25.3532 23.0570   8
  -1 -19 -10-14.7469 25.6467   8
   1 -20 -10 21.3995 19.0279   7
  19 -20 -11 5.73063 18.8124   7
  20 -19 -11 18.2337 18.4273   7
  20 -19  11 7.03683 13.4122   6
  19 -20  11-3.78797 14.7003   6
   1 -20 -11 4.73975 21.0214   8
  -1 -19 -11-9.80075 24.0876   8
   1 -20 -11-12.4731 16.8952   7
  19 -20 -12 0.14160 16.8268   7
  20 -19 -12-6.46650 16.6272   7
  19 -20  12-4.12994 11.5543   6
  20 -19  12-6.62346 10.1495   6
   1 -20 -12 27.2147 18.8742   8
  -1 -19 -12-10.5076 20.1473   8
  19 -20 -13-0.73666 14.7697   7
  20 -19 -13 8.20674 14.6390   7
 -19  -1 -13-14.6308 16.8815  10
   1 -20 -13-1.23034 15.5989   8
  -1 -19 -13 13.0009 16.8853   8
  19 -20  13 12.2590 9.72926   6
  19 -20 -14-0.94136 11.9027   7
  20 -19 -14-9.50403 11.3550   7
 -20   1 -14-7.34329 13.5915  10
  -1 -19 -14-6.84130 12.7684   8
   1 -20 -14 8.68479 12.4598   8
 -19  -1 -14-3.86279 13.1932  10
 -20   0   0 60.8257 26.2370   9
 -20   0   0 115.165 27.1147  10
  20 -20   0 18.1191 72.8350   4
   0 -20   0 69.7465 28.2673   7
 -20   0  -1-17.9339 24.7481   9
  20 -20  -1-83.1801 93.6006   4
 -20   0  -1 38.7353 24.8017  10
  20 -20   1-77.6234 86.2930   4
   0 -20   1-8.05433 26.5328   7
 -20   0   1 11.8303 23.7295   9
   0 -20  -1-8.61716 26.5081   7
 -20   0   2 12.4341 22.8860   9
 -20   0  -2 19.8620 25.0733   9
 -20   0  -2 3.37750 24.1117  10
  20 -20  -2 10.7515 84.7496   4
   0 -20  -2 1.62761 26.1014   7
 -20   0  -3 51.0568 25.8685   9
 -20   0  -3 9.13357 25.0074  10
 -20   0   3 37.7970 18.7801   9
  20 -20  -3 74.5999 88.3779   4
   0 -20  -3 23.1382 23.1571   8
   0 -20  -3 23.9297 25.8186   7
 -20   0  -4 5.48299 25.6521  10
 -20   0  -4-12.1329 26.4533   9
  20 -20  -4-25.6662 71.7919   4
   0 -20  -4-20.6788 23.7402   8
   0 -20  -4 10.5724 25.7481   7
   0 -20  -5 51.7302 24.3799   8
  20 -20   5 9.15159 24.6608   6
 -20   0  -5 18.3239 26.6184   9
   0 -20  -5 14.5082 26.1199   7
   0 -20  -6 31.5522 25.2908   8
 -20   0  -6 42.1011 27.7784   9
  20 -20   6 84.0347 24.9363   6
   0 -20  -6 59.5698 26.2201   7
   0 -20  -7-15.7827 26.7384   8
 -20   0  -7-5.87604 25.3684   9
  20 -20   7-5.49652 22.9057   6
   0 -20  -7 29.2881 24.8341   7
  20 -20  -8 1.19148 19.7158   7
 -20   0  -8 43.5583 23.4442   9
  20 -20   8-20.0022 21.4199   6
   0 -20  -8-2.88252 25.2653   8
   0 -20  -8 25.3737 22.7523   7
  20 -20  -9 2.95300 18.6738   7
  20 -20   9 12.1156 19.2519   6
   0 -20  -9-17.6641 24.5496   8
   0 -20  -9-13.7688 20.2779   7
  20 -20 -10-19.5660 18.4700   7
  20 -20  10 9.40665 16.3247   6
   0 -20 -10-3.87576 23.5064   8
   0 -20 -10 6.83018 18.4104   7
  20 -20 -11 0.20550 17.4428   7
  20 -20  11 4.87073 12.7906   6
   0 -20 -11 12.7898 20.8807   8
  20 -20 -12-1.37329 15.2655   7
   0 -20 -12-2.75982 17.8591   8
 -20   0 -12 2.40272 19.8476  10
  20 -20  12-12.5219 10.0125   6
  20 -20 -13-3.35963 12.9789   7
   0 -20 -13 7.91192 15.1359   8
 -20   0 -13-11.3984 16.7471  10
  20 -20 -14 14.5831 10.7586   7
   0 -20 -14 8.02200 10.6723   8
 -20   0 -14-21.6972 12.5047  10
  11 -21   0 122.193 88.1845   4
  10 -21   0 104.353 93.1166   4
  11 -21  -1 382.964 124.568   4
  11 -21   1 221.204 91.5054   4
  10 -21  -1 283.174 102.457   4
  10 -21   1 272.953 97.3747   4
 -10 -11   2 170.439 27.3754  10
 -11 -10   2 166.132 27.1739  10
 -11 -10  -2 188.328 27.2732  10
 -10 -11  -2 186.801 26.9484  10
 -21  10  -2 177.122 29.1528   9
  11 -21   2 99.5694 88.2555   3
  11 -21  -2 140.587 94.8452   4
  10 -21  -2 29.8059 94.0809   4
  10 -21  -3 156.155 24.1628   7
  11 -21  -3 132.391 22.3321   7
 -10 -11   3 139.610 27.4824  10
 -11 -10   3 186.098 28.6733  10
  11 -21   3 212.535 110.789   3
 -21  10  -3 151.884 28.4353   9
 -21  10   3 144.485 27.6257   9
 -10 -11  -3 152.510 28.7834   8
  10 -21   3 116.756 100.225   3
 -10 -11  -3 157.000 26.1562  10
  10 -21   3 170.620 26.7601   6
  11 -21  -3 113.829 101.341   4
  10 -21  -3 296.945 119.986   4
 -11 -10  -3 187.135 27.8668   8
 -11 -10  -3 174.596 26.3457  10
  10 -21   4 272.217 29.0487   6
  11 -21   4 232.252 29.6025   6
 -10 -11   4 244.009 30.4517  10
 -10 -11  -4 201.715 27.0302  10
 -21  11  -4 285.891 32.1525   9
 -11 -10   4 237.723 29.9561  10
 -21  10  -4 250.550 30.9202   9
  11 -21   4 249.989 109.468   3
 -10 -11  -4 266.213 31.1168   8
  10 -21   4 226.002 111.033   3
 -11 -10  -4 225.244 28.2100   8
 -11 -10  -4 257.031 27.0880  10
  10 -21  -4 249.080 25.6653   7
  11 -21  -4 236.978 25.9533   7
  11 -21  -4 288.694 120.798   4
  10 -21  -4 212.857 112.834   4
  10 -21  -5 167.161 26.7115   7
  11 -21  -5 172.905 25.4792   7
  21 -11  -5 150.445 108.248   4
  11 -21   5 87.2131 95.3256   3
 -21  10  -5 207.614 29.8858   9
 -21  11  -5 220.871 30.5719   9
  10 -21   5 178.545 109.282   3
 -11 -10  -5 23.8121 21.6882   8
 -10 -11  -5 177.525 28.3963   8
  10 -21   5 188.276 28.9694   6
  11 -21   5 182.708 28.4523   6
 -11 -10  -5 179.432 26.4976  10
  11 -21  -5 317.952 117.126   4
  10 -21  -5 299.722 118.073   4
 -10 -11  -5 172.223 25.5614  10
  10 -21  -6 60.0109 24.9701   7
  11 -21  -6 31.5785 25.0940   7
 -10 -11  -6 59.2727 22.9356  10
 -11 -10  -6 29.0670 23.4220  10
  11 -21   6 55.8711 27.0468   6
  10 -21   6 84.1439 26.5771   6
  21 -10  -6 18.5754 82.5437   4
  21 -11  -6 21.7009 83.3223   4
  11 -21   6 83.0873 86.5177   3
 -21  10  -6 37.5548 26.6600   9
  10 -21   6 87.2460 91.3156   3
 -21  11  -6 65.2953 28.3428   9
  21 -10   6 50.8039 75.3813   3
 -11 -10  -6 17.3600 24.3179   8
 -10 -11  -6 77.7042 27.0312   8
  21 -11   6 149.079 83.0391   3
  11 -21  -6 32.5618 91.6113   4
  10 -21  -6-49.7150 102.554   4
 -10 -11  -7 56.9588 23.0803  10
  10 -21  -7 41.3426 26.3093   7
  11 -21  -7 91.7933 26.1058   7
  21 -11  -7 23.1700 78.9346   4
  21 -10  -7-34.0763 83.2258   4
  10 -21   7 127.370 99.7744   3
 -21  10  -7 58.5434 25.8458   9
 -11 -10  -7 48.2476 22.8592  10
 -21  11  -7 98.6843 27.7494   9
  10 -21   7 71.1738 27.0915   6
  11 -21   7 85.7137 27.3602   6
 -11 -10  -7 80.5266 26.9895   8
 -10 -11  -7 82.8929 27.4905   8
  21 -10   7 76.5953 78.2133   3
  21 -11   7 219.849 89.7673   3
  11 -21   7 194.905 105.868   3
  11 -21  -7 46.7958 93.4265   4
  10 -21  -7 184.940 103.516   4
  10 -21  -8 84.9651 28.0277   7
  11 -21  -8 48.0297 27.1698   7
 -10 -11  -8 32.5254 22.0901  10
 -11 -10  -8 26.9197 22.9757  10
  10 -21   8 27.0008 27.0987   6
  11 -21   8 87.0427 28.0954   6
 -11 -10  -8 51.3682 26.6040   8
 -10 -11  -8 35.7191 26.7866   8
  10 -21  -9 41.8201 27.0571   7
  11 -21  -9 76.7950 27.7403   7
  10 -21   9 33.1826 25.8145   6
 -11 -10  -9 31.1620 21.0759  10
  11 -21   9 17.3552 26.4297   6
 -11 -10  -9 42.9867 25.0626   8
 -10 -11  -9 35.7183 25.9269   8
  10 -21 -10 61.1115 27.6447   7
  11 -21 -10 65.8218 27.5535   7
  10 -21  10 48.4600 24.1263   6
  11 -21  10 34.3475 24.3818   6
 -11 -10 -10 54.4882 24.2147   8
 -10 -11 -10 71.5849 25.7292   8
  10 -21 -11 54.6149 26.6592   7
  11 -21 -11 36.6534 26.8323   7
  10 -21  11 45.0735 21.5524   6
  11 -21  11 26.3644 22.0350   6
 -11 -10 -11 51.3111 22.9531   8
 -10 -11 -11 59.4738 24.5103   8
  10 -21  12 3.19813 18.4836   6
  10 -21 -12 20.4320 23.4913   7
  11 -21 -12 14.8219 23.7808   7
  11 -21  12 12.7896 18.8935   6
 -11 -10 -12-3.23097 20.7516   8
 -10 -11 -12 10.7550 21.2370   8
  10 -21 -13-3.25124 19.7298   7
  11 -21 -13 3.19594 19.9664   7
 -11 -10 -13-18.6355 18.1850   8
 -10 -11 -13 18.6340 18.9176   8
  10 -21  13-0.34266 16.4335   6
  11 -21  13-12.8931 16.4654   6
  10 -21 -14-17.7934 15.7523   7
  11 -21 -14 9.79903 16.2715   7
  21 -11 -14-18.1400 15.7762   7
  11 -21  14 26.3686 15.3931   6
 -11 -10 -14 8.51442 14.8723   8
 -10 -11 -14-6.12386 16.3416   8
  10 -21  14 2.18489 14.9320   6
  10 -21 -15 8.77063 11.3501   7
  11 -21 -15 3.97994 11.4309   7
  21 -11 -15 5.21187 12.6245   7
  21 -10 -15 3.96547 12.1321   7
  11 -21  15-3.58337 12.2065   6
 -11 -10 -15 3.82351 11.2056   8
  10 -21  15 2.73009 12.3601   6
 -10 -11 -15-7.77332 10.6164   8
  12 -21   0 165.465 97.6893   4
   9 -21   0 132.931 85.7816   4
  12 -21   1 115.689 91.3532   3
  12 -21  -1 98.2660 96.8711   4
  12 -21   1-7.22335 66.2714   4
   9 -21  -1 130.678 100.091   4
   9 -21   1 58.9079 75.2046   4
  -9 -12   2 189.997 30.0400  10
 -12  -9   2 128.143 29.4644  10
  -9 -12  -2 139.824 26.3533  10
 -12  -9  -2 141.156 28.9505  10
 -12  -9  -2 77.2592 25.3398   9
 -21   9  -2 116.745 28.8559   9
  -9 -12  -2 196.715 29.6190   8
  12 -21   2 19.1721 96.1240   3
  12 -21  -2 61.6676 94.4394   4
   9 -21  -2-22.7218 96.1310   4
   9 -21  -3 187.161 23.9927   7
  12 -21  -3 156.377 23.5581   7
  -9 -12   3 196.128 29.3711  10
 -12  -9   3 164.192 29.4108  10
 -12  -9  -3 204.819 27.9380  10
 -12  -9  -3 169.762 26.7181   9
  -9 -12  -3 183.074 30.6597   8
 -21   9   3 155.512 28.5527   9
 -21   9  -3 223.279 30.6101   9
  12 -21   3 184.515 104.281   3
   9 -21   3 162.206 28.5031   6
  12 -21  -3 254.536 113.027   4
   9 -21   3 146.541 100.813   3
   9 -21  -3 206.918 111.650   4
  -9 -12  -3 220.471 28.6104  10
   9 -21  -4 193.372 26.1504   7
  12 -21  -4 177.084 24.4517   7
   9 -21   4 249.330 28.6040   6
  -9 -12  -4 168.347 26.6862  10
 -12  -9  -4 215.940 26.8454  10
 -12  -9  -4 160.471 25.8093   9
  21 -12  -4 223.151 112.235   4
 -12  -9   4 169.373 29.5066  10
  12 -21   4 107.216 97.6235   3
 -21   9  -4 200.472 30.6192   9
 -12  -9  -4 175.028 26.5632   8
  -9 -12  -4 173.763 28.1552   8
   9 -21   4 167.342 103.501   3
  12 -21   4 193.938 29.1928   6
  12 -21  -4 121.573 99.5496   4
   9 -21  -4 217.735 106.511   4
   9 -21  -5 135.709 25.5918   7
  12 -21  -5 161.885 25.5726   7
  -9 -12  -5 145.062 26.1381  10
 -12  -9  -5 140.821 26.8642  10
  21 -12  -5 36.1727 82.1413   4
  12 -21   5 190.158 113.578   3
  -9 -12  -5 159.563 30.0508   8
 -21   9  -5 113.438 27.9845   9
 -21  12  -5 136.442 29.6129   9
 -12  -9  -5 105.781 26.0285   8
   9 -21   5 208.739 109.935   3
   9 -21   5 137.186 27.8307   6
  12 -21   5 192.773 28.8142   6
  12 -21  -5 204.926 123.019   4
   9 -21  -5 178.571 96.9603   4
   9 -21  -6 109.689 27.2866   7
  12 -21  -6 116.142 26.5841   7
  21  -9   6 43.8210 72.9389   3
  -9 -12  -6 101.628 23.8216  10
 -12  -9  -6 112.062 25.3815  10
  12 -21   6 185.780 106.930   3
  21 -12  -6 0.26692 88.4420   4
  21  -9  -6 134.390 98.0354   4
 -21   9  -6 124.849 29.4273   9
 -21  12  -6 96.3524 28.6439   9
   9 -21   6 127.344 97.8831   3
   9 -21   6 118.682 27.5551   6
 -12  -9  -6 156.565 27.5472   8
  -9 -12  -6 125.104 30.3201   8
  12 -21   6 132.112 29.6182   6
  21 -12   6 35.7939 67.2989   3
  12 -21  -6 68.9930 100.936   4
   9 -21  -6 130.712 100.436   4
  21  -9  -7 256.237 105.496   4
   9 -21  -7 116.245 28.6271   7
  12 -21  -7 111.855 26.9627   7
  -9 -12  -7 90.9209 23.1167  10
 -12  -9  -7 108.733 26.0157  10
  12 -21   7 153.543 108.099   3
  21 -12  -7 84.6008 92.2363   4
 -21   9  -7 78.2014 27.1766   9
 -21  12  -7 38.4632 25.9970   9
   9 -21   7 119.623 27.1281   6
   9 -21   7 110.858 95.6412   3
  21  -9   7 4.11739 72.3234   3
 -12  -9  -7 55.7158 21.8881   8
  -9 -12  -7 97.3116 29.3963   8
  21 -12   7-73.1894 77.7153   3
  12 -21  -7-0.31001 89.6702   4
  12 -21   7 84.6141 27.2810   6
   9 -21  -7 86.4007 104.325   4
   9 -21  -8 80.8250 26.9182   7
  12 -21  -8 98.5186 27.5218   7
 -12  -9  -8 65.8158 23.3807  10
   9 -21   8 112.422 26.6837   6
  12 -21   8 66.2360 26.8442   6
 -12  -9  -8 167.475 26.7619   8
  -9 -12  -8 89.7555 28.8698   8
   9 -21  -9 24.4027 26.1604   7
  12 -21  -9 59.9434 26.9027   7
 -12  -9  -9 23.3918 21.7542  10
   9 -21   9 44.9314 25.2804   6
  12 -21   9 3.35725 26.3341   6
 -12  -9  -9 42.9054 23.0313   8
  -9 -12  -9 7.95213 27.2800   8
   9 -21 -10 18.1263 26.0346   7
  12 -21 -10 24.5032 25.9865   7
 -12  -9 -10-34.5174 21.0826  10
   9 -21  10-6.29626 22.4038   6
  12 -21  10 16.0738 24.8382   6
 -12  -9 -10 3.67378 20.8475   8
  -9 -12 -10-3.52930 25.6228   8
   9 -21 -11 4.35936 24.4591   7
  12 -21 -11 43.6878 27.1577   7
   9 -21  11-4.21949 19.8888   6
  12 -21  11-16.4865 22.7659   6
 -12  -9 -11 9.50062 21.0406   8
  -9 -12 -11 23.6266 24.2596   8
   9 -21 -12 11.9589 22.0992   7
  12 -21 -12 8.92849 24.4297   7
   9 -21  12-10.8285 18.1676   6
  12 -21  12-16.5062 18.8985   6
 -12  -9 -12-4.58808 18.9485   8
  -9 -12 -12 7.27086 22.2580   8
   9 -21 -13-13.0030 19.1572   7
  12 -21 -13-5.70257 20.6583   7
  12 -21  13 8.12630 15.7081   6
 -12  -9 -13-11.2378 16.7812   8
  -9 -12 -13-19.3561 20.1059   8
   9 -21  13-8.99465 16.8177   6
   9 -21 -14-5.78783 14.9514   7
  12 -21 -14-3.85261 15.7940   7
  21 -12 -14-9.83530 14.6292   7
   9 -21  14-11.1976 15.0066   6
  12 -21  14-6.30996 13.6677   6
  -9 -12 -14 1.95064 16.1411   8
 -12  -9 -14 1.46945 12.5351   8
   9 -21 -15 5.91541 9.69621   7
  12 -21 -15-5.11207 10.9246   7
  21 -12 -15 2.51795 11.3505   7
  21  -9 -15-5.49953 12.2761   7
   9 -21  15-6.61383 12.6632   6
  12 -21  15 6.07557 11.3818   6
  -9 -12 -15 5.83333 12.3809   8
 -13  -8   0 927.396 40.5395  10
  13 -21   0 984.387 159.555   4
   8 -21   0 1134.77 172.066   4
 -13  -8  -1 337.401 30.5616  10
 -13  -8  -1 309.898 28.3516   9
 -21   8  -1 322.244 31.3858   9
 -13  -8   1 272.208 29.6867  10
  -8 -13   1 350.095 31.2895  10
  13 -21   1 409.336 112.751   3
  13 -21  -1 208.920 100.634   4
  13 -21   1 82.3575 70.0254   4
   8 -21  -1 353.049 118.652   4
   8 -21   1 294.418 94.1477   4
  -8 -13   2 657.766 39.2242  10
 -13  -8   2 629.727 36.3901  10
 -13  -8  -2 697.509 37.8515  10
 -13  -8   2 652.436 34.5703   9
 -13  -8  -2 661.420 36.6472   9
 -21   8   2 639.714 38.3322   9
 -21   8  -2 705.566 40.5967   9
  21 -13  -2 704.512 146.275   4
  -8 -13  -2 693.733 36.9417  10
  -8 -13  -2 781.913 41.3213   8
  13 -21   2 732.721 145.206   3
  13 -21  -2 700.106 146.285   4
   8 -21  -2 694.065 33.2903   7
   8 -21  -2 725.479 159.994   4
 -13  -8   3 604.059 36.3076  10
  -8 -13  -3 542.915 33.4597  10
 -13  -8  -3 591.575 34.5353  10
 -21   8   3 592.650 36.6478   9
  -8 -13   3 549.691 37.3984  10
  13 -21   3 654.462 141.538   3
  -8 -13  -3 617.565 38.7376   8
 -21   8  -3 595.875 38.2777   9
 -13  -8  -3 641.133 35.8747   9
  13 -21  -3 695.857 151.007   4
   8 -21  -3 643.057 33.8247   7
  13 -21  -3 568.503 30.7452   7
  21 -13  -3 540.373 138.286   4
   8 -21  -3 623.771 145.740   4
   8 -21   4 455.586 32.0028   6
  13 -21   4 481.799 34.7126   6
  -8 -13  -4 418.846 30.1534  10
 -13  -8  -4 451.142 33.2341  10
 -13  -8  -4 462.061 33.4353   9
 -21   8  -4 450.902 34.5060   9
  21 -13  -4 409.166 126.136   4
  13 -21   4 438.287 126.538   3
  13 -21  -4 435.626 132.857   4
  -8 -13  -4 471.413 35.1620   8
 -13  -8   4 397.954 34.3045  10
   8 -21  -4 419.851 30.9766   7
  13 -21  -4 407.754 28.6295   7
   8 -21  -4 603.908 153.816   4
  13 -21  -5 194.509 26.8739   7
 -13  -8   5 180.418 30.2374  10
  13 -21   5 247.394 115.139   3
 -21   8  -5 278.354 32.1829   9
 -13  -8  -5 250.916 29.5704  10
  21 -13  -5 230.477 106.462   4
  -8 -13  -5 207.238 26.0423  10
   8 -21   5 151.234 24.2024   6
 -13  -8  -5 214.701 28.8589   9
  -8 -13  -5 239.907 32.1301   8
  13 -21   5 207.418 30.2282   6
   8 -21   5 387.050 127.450   3
  13 -21  -5 214.715 116.663   4
   8 -21  -5 245.120 28.7496   7
   8 -21  -5 269.010 121.701   4
  13 -21  -6 251.830 28.1005   7
  13 -21   6 292.383 32.0750   6
  -8 -13  -6 220.754 25.5444  10
 -13  -8  -6 241.740 29.7340  10
 -21  13  -6 268.257 32.5805   9
  21 -13  -6 294.142 108.229   4
  13 -21   6 186.080 109.930   3
 -21   8  -6 267.349 32.7360   9
   8 -21   6 215.597 28.1783   6
  -8 -13  -6 268.436 33.4201   8
   8 -21   6 220.938 108.454   3
  13 -21  -6 425.645 134.145   4
   8 -21  -6 266.210 29.7839   7
  21 -13   6 208.794 88.5608   3
   8 -21  -6 121.876 105.266   4
   8 -21  -7 228.427 120.788   4
   8 -21  -7 125.277 28.7886   7
  13 -21  -7 138.460 27.7934   7
 -13  -8  -7 128.678 26.6598  10
  13 -21   7 193.497 109.858   3
  21  -8  -7 157.966 94.3764   4
  21 -13  -7 84.9437 84.7180   4
 -21   8  -7 155.681 28.5669   9
 -21  13  -7 157.496 29.5054   9
   8 -21   7 161.161 26.9717   6
  21  -8   7 68.5150 74.7685   3
  13 -21   7 155.152 29.2930   6
  -8 -13  -7 165.745 31.7420   8
   8 -21   7 161.384 106.478   3
  13 -21  -7 236.899 115.115   4
  21 -13   7 237.865 95.5115   3
   8 -21  -8 104.763 27.7722   7
  13 -21  -8 90.1507 26.8448   7
 -13  -8  -8 117.603 26.1244  10
   8 -21   8 86.0222 25.9310   6
  13 -21   8 76.5635 27.7412   6
  -8 -13  -8 73.9478 28.4902   8
   8 -21  -9 105.067 26.7186   7
  13 -21  -9 85.6996 27.4257   7
 -13  -8  -9 103.743 24.2852  10
   8 -21   9 108.951 24.7791   6
  13 -21   9 117.087 27.8273   6
  -8 -13  -9 134.868 29.5997   8
   8 -21 -10 88.5314 26.6280   7
  13 -21 -10 108.156 27.2722   7
 -13  -8 -10 71.6135 22.4251  10
   8 -21  10 64.0247 21.6936   6
  13 -21  10 107.291 26.1065   6
  -8 -13 -10 67.3153 26.9609   8
   8 -21 -11 44.6256 24.1104   7
  13 -21 -11 51.1145 26.6065   7
 -13  -8 -11 1.21840 19.8664  10
   8 -21  11 5.71378 18.5931   6
  13 -21  11-22.5433 22.8417   6
  -8 -13 -11 9.52780 24.5895   8
   8 -21 -12 15.8960 20.9722   7
  13 -21 -12 14.4489 24.1836   7
   8 -21  12 15.6586 17.3885   6
  13 -21  12 10.1048 19.1122   6
  -8 -13 -12-11.1047 22.9891   8
   8 -21 -13 26.1023 18.1142   7
  13 -21 -13 28.6771 20.2235   7
  21 -13 -13 4.54958 16.8119   7
   8 -21  13 7.96873 16.5645   6
  13 -21  13-10.9740 15.5790   6
  -8 -13 -13 4.92571 20.0749   8
   8 -21 -14-0.41388 13.8720   7
  13 -21 -14 9.55458 15.9360   7
  21 -13 -14-9.94413 14.4361   7
   8 -21  14-15.3953 14.9826   6
  13 -21  14-3.46805 12.8414   6
  -8 -13 -14 10.5036 16.3839   8
  13 -21 -15-7.51009 10.9910   7
  21 -13 -15 11.4451 11.3176   7
  13 -21  15 9.57761 11.1807   6
   8 -21  15 3.71726 11.9700   6
  -8 -13 -15 12.2962 12.7603   8
   8 -21 -15-6.06703 9.71367   7
   7 -21   0 776.425 157.961   4
  -7 -14   0 1021.00 44.7870  10
 -14  -7   0 998.428 46.4514  10
 -14  -7   0 973.226 43.2298   9
  21 -14   0 732.244 152.861   4
 -21   7   0 878.581 43.9320   9
  14 -21   0 606.716 143.337   4
   7 -21   0 914.527 40.0395   7
   7 -21  -1 419.833 135.468   4
  -7 -14   1 877.566 42.8221  10
 -14  -7   1 703.123 41.2174  10
 -14  -7  -1 815.686 42.8459  10
 -14  -7  -1 796.849 39.7643   9
 -21   7   1 730.301 41.3718   9
 -21   7  -1 707.240 40.3989   9
  21 -14   1 648.775 149.866   4
 -14  -7   1 717.209 38.4547   9
  21 -14  -1 545.476 139.689   4
  -7 -14  -1 758.438 39.8090  10
  14 -21   1 454.525 127.989   3
  14 -21  -1 512.583 143.393   4
  14 -21   1 289.982 104.247   4
  -7 -14  -1 694.294 37.8614   7
   7 -21  -1 873.970 38.7660   7
  -7 -14  -2 920.297 41.4611  10
 -14  -7   2 803.031 42.8445  10
 -14  -7  -2 829.603 42.9538  10
 -14  -7  -2 856.603 41.1227   9
 -14  -7   2 812.140 39.2040   9
 -21   7   2 791.405 42.6104   9
 -21   7  -2 851.100 43.7559   9
  21 -14   2 559.474 144.318   4
  21 -14  -2 582.845 140.800   4
  -7 -14   2 855.120 44.0978  10
  14 -21   2 481.037 136.378   3
  -7 -14  -2 898.556 46.8799   8
  14 -21  -2 466.566 141.067   4
  -7 -14  -2 787.129 38.6428   7
   7 -21   2 673.248 36.1209   7
   7 -21  -2 947.524 40.5146   7
   7 -21  -2 632.598 159.334   4
  -7 -14  -3 310.928 32.1313  10
 -14  -7  -3 539.288 37.2508  10
 -14  -7  -3 440.610 34.2149   9
 -21   7  -3 460.795 38.1237   9
 -14  -7   3 217.212 27.1419   9
  21 -14   3 102.519 78.4847   4
  21 -14  -3 160.395 118.423   4
 -14  -7   3 486.626 35.5410  10
  14 -21   3 410.595 131.717   3
 -21   7   3 198.912 29.9147   9
  -7 -14  -3 535.479 40.7220   8
  14 -21  -3 101.823 111.501   4
   7 -21   3 453.136 29.1005   7
  -7 -14  -3 464.418 32.2730   7
   7 -21  -3 464.904 33.8681   7
   7 -21  -3 245.341 130.614   4
   7 -21  -4 192.827 119.220   4
 -14  -7   4 355.785 35.0575  10
 -14  -7  -4 517.903 37.5299  10
  14 -21   4 431.546 39.4495   6
 -21   7  -4 401.281 37.5047   9
 -14  -7  -4 314.770 32.8947   9
  14 -21   4 431.489 130.270   3
  21 -14  -4 157.647 113.140   4
  -7 -14  -4 417.422 32.3038  10
  -7 -14  -4 539.403 41.2925   8
  14 -21  -4 314.208 134.642   4
   7 -21  -4 432.478 35.2906   7
  14 -21  -4 376.472 31.2126   7
   7 -21  -5 390.240 140.700   4
   7 -21   5 472.622 34.0572   6
  14 -21   5 545.008 37.8993   6
 -14  -7   5 332.207 36.3720  10
  -7 -14  -5 414.101 31.8331  10
  -7 -14  -5 542.969 40.4139   8
 -14  -7  -5 471.016 35.9511   9
  14 -21   5 212.896 118.197   3
 -14  -7  -5 521.356 37.4680  10
  21 -14  -5 199.263 117.661   4
 -21   7  -5 440.408 36.9118   9
  14 -21  -5 241.131 119.381   4
   7 -21  -5 538.427 37.6282   7
  14 -21  -5 421.238 32.5872   7
  14 -21  -6 120.531 26.5613   7
  14 -21   6 164.715 33.4433   6
 -14  -7  -6 109.079 28.2487   9
  21 -14  -6 152.249 106.483   4
 -21   7  -6 119.835 30.0970   9
 -14  -7  -6 224.585 31.9186  10
   7 -21   6 104.654 22.8637   6
  -7 -14  -6 255.002 34.8419   8
  14 -21   6 136.610 112.792   3
  14 -21  -6-2.14129 101.489   4
   7 -21  -6 209.406 31.4472   7
  21 -14   6-45.7008 86.3934   3
   7 -21   7 519.071 33.3842   6
  14 -21   7 462.102 36.8439   6
 -14  -7  -7 523.224 35.4848  10
 -21   7  -7 383.572 34.5698   9
 -21  14  -7 425.212 35.6642   9
  14 -21   7 284.920 118.461   3
  21 -14  -7 231.793 107.433   4
  -7 -14  -7 505.329 40.9448   8
   7 -21   7 315.921 121.552   3
  14 -21  -7 326.258 129.683   4
   7 -21  -7 522.835 35.7011   7
  14 -21  -7 482.311 34.1057   7
  21 -14   7 365.424 113.601   3
  14 -21  -8 208.432 29.5840   7
   7 -21   8 234.154 28.0505   6
 -14  -7  -8 180.697 28.8863  10
 -21   7  -8 132.917 27.0924   9
  -7 -14  -8 241.507 34.7922   8
  14 -21   8 204.634 30.4136   6
   7 -21  -8 240.036 30.3944   7
   7 -21  -9 228.966 30.4510   7
  14 -21  -9 195.038 29.3742   7
 -14  -7  -9 210.143 28.2050  10
  14 -21   9 198.935 29.5770   6
   7 -21   9 185.661 25.4358   6
  -7 -14  -9 234.676 33.4566   8
   7 -21 -10 139.686 26.8184   7
  14 -21 -10 165.579 27.9487   7
 -14  -7 -10 137.289 24.5798  10
   7 -21  10 123.810 21.1994   6
  14 -21  10 145.026 27.1528   6
  -7 -14 -10 107.385 28.3569   8
   7 -21 -11 32.9168 22.8985   7
  14 -21 -11 61.6881 25.6779   7
  21 -14 -11 48.6112 19.2464   7
   7 -21  11 41.3257 17.9837   6
  14 -21  11 23.9834 22.3575   6
 -14  -7 -11 24.7287 20.3476  10
  -7 -14 -11-7.11811 25.0807   8
   7 -21 -12 16.2248 20.3399   7
  14 -21 -12 15.9553 23.3590   7
  21 -14 -12 26.2949 18.0492   7
 -14  -7 -12 17.3763 17.7359  10
   7 -21  12-8.20894 16.5727   6
  14 -21  12 30.4884 18.3435   6
  -7 -14 -12 28.6114 23.2747   8
   7 -21 -13 8.84150 16.1870   7
  14 -21 -13 15.1042 19.5461   7
  21 -14 -13 18.3929 16.2136   7
   7 -21  13 16.1730 16.1013   6
  14 -21  13-16.8318 14.5632   6
  -7 -14 -13-1.88282 19.9452   8
   7 -21 -14 12.8681 12.8139   7
  14 -21 -14-2.37051 14.9242   7
  21 -14 -14 0.00754 13.9830   7
  -7 -14 -14 4.09426 16.1089   8
   7 -21  14 2.41121 13.9583   6
  14 -21  14 4.90715 12.0371   6
  14 -21 -15 7.30647 10.5037   7
  21 -14 -15 3.24174 11.0969   7
  14 -21  15 6.06623 10.2535   6
  -7 -14 -15 3.17827 12.3477   8
   7 -21  15 8.35199 12.5513   6
  -6 -15   0 1193.50 46.5786  10
 -15  -6   0 1153.91 46.7969  10
  21 -15   0 1031.96 169.119   4
 -15  -6   0 1272.28 47.0692   9
 -21   6   0 1243.64 47.9180   9
  15 -21   0 1015.37 168.163   4
   6 -21   0 1300.43 45.6697   7
  21 -15   1 2210.81 218.272   4
  21 -15  -1 2294.46 232.374   4
  -6 -15  -1 2117.73 57.1636  10
 -15  -6   1 1943.41 58.5710  10
 -15  -6  -1 2095.23 59.5718  10
 -15  -6  -1 2196.16 58.8497   9
   6 -21   1 2395.92 56.7901   7
 -21   6   1 2163.80 61.1483   9
 -21   6  -1 2181.93 61.3363   9
  -6 -15   1 2156.62 60.1611  10
  15 -21   1 2068.25 199.207   3
  -6 -15  -1 2202.05 57.0278   7
   6 -21  -1 2356.86 57.9533   7
  15 -21  -1 2113.66 225.143   4
 -15  -6   1 2165.02 58.6027   9
  21 -15   2 2293.14 224.345   4
  21 -15  -2 2768.45 247.460   4
  -6 -15  -2 2567.91 62.3138  10
 -15  -6  -2 2570.13 64.4771  10
 -21   6   2 2746.72 68.3298   9
 -21   6  -2 2783.37 68.2346   9
  -6 -15   2 2748.19 67.3510  10
  15 -21   2 2913.19 235.651   3
 -15  -6   2 2625.20 63.4934   9
 -15  -6  -2 2829.48 65.8675   9
  15 -21  -2 2276.01 244.713   4
 -15  -6   2 2502.38 65.0520  10
  -6 -15  -2 2668.53 67.3423   8
  -6 -15  -2 2600.29 61.6599   7
   6 -21   2 2693.32 59.7771   7
   6 -21  -2 2772.67 62.1863   7
  21 -15  -3 1959.16 216.311   4
 -15  -6   3 1709.21 56.4743  10
  -6 -15  -3 1796.95 51.6319  10
 -15  -6  -3 1800.56 54.9000  10
  -6 -15  -3 1978.51 59.8335   8
  15 -21  -3 1749.28 219.583   4
  15 -21   3 1974.77 202.794   3
 -15  -6   3 1788.39 52.7283   9
 -15  -6  -3 2121.78 58.7193   9
 -21   6   3 1915.88 57.8285   9
 -21   6  -3 2039.87 59.6179   9
   6 -21   3 1828.72 49.4454   7
  -6 -15  -3 1856.22 52.7797   7
   6 -21  -3 2055.52 54.7113   7
  21 -15  -4 1585.96 201.083   4
 -15  -6   4 1001.14 45.7240  10
  -6 -15  -4 1331.94 44.8657  10
 -15  -6  -4 1500.77 51.1276  10
  15 -21  -4 1446.44 208.091   4
 -15  -6  -4 1580.30 52.3592   9
  15 -21   4 1380.79 183.024   3
  -6 -15  -4 1630.41 54.6574   8
 -21   6  -4 1557.20 53.3493   9
  -6 -15  -4 1350.26 45.6949   7
   6 -21  -4 1560.79 48.8848   7
  15 -21  -4 1284.82 41.7779   7
  21 -15  -5 1603.50 197.637   4
  15 -21   5 1569.35 51.4626   6
 -15  -6  -5 1447.96 50.7108  10
  15 -21  -5 1713.25 223.489   4
  15 -21   5 1598.67 194.178   3
 -15  -6  -5 1573.34 52.6908   9
  -6 -15  -5 1684.45 55.3692   8
   6 -21  -5 1644.90 50.5790   7
  15 -21  -5 1469.76 45.0411   7
 -21   6  -5 1611.25 54.1754   9
  21 -15   6 667.628 119.919   3
  15 -21   6 697.854 38.7724   6
 -15  -6  -6 664.248 38.4127  10
  15 -21   6 674.635 139.720   3
 -15  -6  -6 659.100 37.8146   9
 -21   6  -6 572.615 38.2941   9
  21 -15  -6 629.925 141.409   4
  -6 -15  -6 689.174 41.9663   8
  15 -21  -6 634.082 149.629   4
   6 -21  -6 704.309 37.1081   7
  15 -21  -6 611.976 33.7946   7
  15 -21   7 1364.72 47.8428   6
 -15  -6  -7 1176.26 46.4906  10
 -15  -6  -7 1204.04 46.4463   9
 -21   6  -7 1279.98 49.0968   9
 -21  15  -7 1263.95 50.0850   9
  -6 -15  -7 1383.53 52.9664   8
   6 -21  -7 1325.84 46.5470   7
  15 -21  -7 1324.17 44.4658   7
   6 -21   8 642.120 31.4199   6
  15 -21   8 624.203 36.2351   6
 -15  -6  -8 529.708 35.7021  10
 -21   6  -8 497.767 34.5424   9
  -6 -15  -8 632.619 39.9241   8
   6 -21  -8 557.401 35.3609   7
  15 -21  -8 523.731 33.2698   7
   6 -21   9 323.113 24.6342   6
  15 -21   9 310.332 31.0095   6
 -15  -6  -9 305.953 30.5575  10
  -6 -15  -9 346.620 34.6183   8
   6 -21  -9 312.232 30.6680   7
  15 -21  -9 372.414 31.3663   7
  21 -15  -9 336.958 24.9323   7
   6 -21 -10 181.310 26.5716   7
  15 -21 -10 205.179 27.9280   7
  21 -15 -10 162.828 21.7535   7
   6 -21  10 180.359 20.7780   6
  15 -21  10 209.084 27.0100   6
   6 -21 -10 175.822 22.0400   8
  -6 -15 -10 193.754 30.6856   8
 -15  -6 -10 157.916 25.9925  10
   6 -21 -11 65.4247 21.9765   7
  15 -21 -11 82.8200 24.6906   7
  21 -15 -11 83.3879 19.5238   7
 -15  -6 -11 76.3436 22.2213  10
   6 -21  11 42.9120 17.3940   6
   6 -21 -11 77.7985 19.0490   8
  -6 -15 -11 80.6720 27.3709   8
  15 -21  11 51.5674 21.2516   6
   6 -21 -12 29.5609 18.5459   7
  15 -21 -12 35.0014 22.3445   7
  21 -15 -12 32.8360 17.3637   7
 -15  -6 -12 26.5508 18.3260  10
  15 -21  12 18.4294 16.7634   6
   6 -21  12-21.8930 16.5548   6
   6 -21 -12 12.7720 15.4286   8
  -6 -15 -12 29.9260 23.9248   8
   6 -21 -13 13.3679 15.3721   7
  15 -21 -13-4.14740 18.5199   7
  21 -15 -13 12.3691 15.5726   7
   6 -21  13 9.96179 15.7961   6
  15 -21  13 19.5384 13.5850   6
 -15  -6 -13 9.31674 14.9842  10
  -6 -15 -13 5.32813 20.0464   8
  15 -21 -14 9.22316 14.7359   7
  21 -15 -14-10.3071 13.3681   7
  15 -21  14-1.82548 11.3819   6
  -6 -15 -14 9.06397 16.0934   8
   6 -21  14-7.57678 13.8931   6
   6 -21 -14-9.56687 10.4575   7
  15 -21 -15-5.08201 10.4497   7
  21 -15 -15 7.66952 9.94125   7
  15 -21  15-0.22885 9.06687   6
  -6 -15 -15-11.4552 11.5090   8
  21 -16   0 1961.99 217.439   4
  -5 -16   0 1741.24 55.4152  10
  16 -21   0 1774.23 207.981   4
 -16  -5   0 2079.53 56.9379   9
 -21   5   0 2030.68 59.9130   9
 -16  -5   0 1927.01 57.8281  10
  -5 -16   0 2224.07 58.5493   7
   5 -21   0 2162.21 58.5096   7
  21 -16   1 1544.36 196.279   4
  21 -16  -1 1771.00 207.705   4
  -5 -16   1 1687.99 54.7105  10
  -5 -16  -1 1610.06 52.2896  10
 -16  -5  -1 1778.45 55.8770  10
  16 -21  -1 1858.87 217.897   4
 -16  -5   1 1736.49 54.9296  10
 -16  -5   1 1778.92 53.3613   9
 -21   5   1 1734.13 56.5261   9
 -21   5  -1 1854.92 57.8728   9
  -5 -16  -1 1966.13 54.7202   7
   5 -21   1 1948.92 54.5359   7
   5 -21  -1 1999.22 54.8191   7
 -16  -5  -1 1889.12 55.9308   9
  21 -16   2 1118.71 161.609   4
  21 -16  -2 1831.68 212.382   4
  16 -21  -2 1835.42 213.783   4
  -5 -16  -2 1820.79 57.5896   8
 -16  -5   2 1295.45 46.9000   9
 -16  -5  -2 1819.09 55.9973   9
 -21   5   2 1682.97 53.8689   9
 -21   5  -2 1719.86 55.6719   9
  16 -21   2 1514.95 176.121   3
 -16  -5   2 1604.95 54.3984  10
  -5 -16  -2 1551.23 49.4635  10
 -16  -5  -2 1744.04 56.1030  10
  -5 -16  -2 1826.18 53.5769   7
   5 -21   2 1772.40 50.5960   7
   5 -21  -2 1789.29 54.3344   7
  21 -16  -3 1314.88 184.609   4
  -5 -16  -3 1377.78 45.5232  10
 -16  -5  -3 1578.80 51.5778  10
  16 -21  -3 1452.21 199.454   4
 -16  -5   3 1411.97 48.1269   9
 -16  -5  -3 1626.55 52.8507   9
 -21   5   3 1364.68 50.0179   9
 -21   5  -3 1548.87 53.4210   9
  16 -21   3 1335.22 173.543   3
   5 -21   3 1470.32 45.4694   7
  -5 -16  -3 1502.17 49.6368   7
   5 -21  -3 1653.29 51.6731   7
  -5 -16  -3 1586.97 53.7521   8
  21 -16  -4 1300.93 189.423   4
 -16  -5   4 1223.15 49.4575  10
 -16  -5  -4 1333.91 51.7044  10
 -16  -5  -4 1541.34 51.3784   9
 -21   5  -4 1360.60 51.1635   9
  16 -21  -4 1242.30 197.053   4
   5 -21  -4 1392.04 43.6562   8
  -5 -16  -4 1496.00 53.8077   8
  16 -21   4 1280.00 179.440   3
   5 -21  -4 1545.70 49.3045   7
  16 -21   5 1391.40 48.3623   6
 -16  -5  -5 1357.09 50.1285  10
 -21   5  -5 1197.25 48.2651   9
 -16  -5  -5 1350.84 49.4882   9
  16 -21   5 1112.41 171.162   3
   5 -21  -5 1156.51 41.1100   8
  -5 -16  -5 1291.92 51.4718   8
  16 -21  -5 1232.36 196.168   4
  -5 -16  -5 797.637 38.3764   7
   5 -21  -5 1314.06 46.7267   7
  16 -21  -5 1140.20 40.6279   7
  21 -16  -5 952.007 164.469   4
  21 -16   6 663.517 127.032   3
  16 -21   6 821.254 40.1751   6
 -16  -5  -6 809.788 41.3639  10
  16 -21   6 518.787 133.985   3
 -16  -5  -6 771.227 40.4075   9
 -21   5  -6 786.905 41.3510   9
  21 -16  -6 862.211 156.070   4
   5 -21  -6 760.175 34.6881   8
  -5 -16  -6 740.611 40.9702   8
  16 -21  -6 699.754 151.886   4
   5 -21  -6 743.398 38.2283   7
  16 -21  -6 759.238 35.1842   7
  16 -21   7 899.320 41.9620   6
 -16  -5  -7 904.823 44.0273  10
 -16  -5  -7 792.849 40.5336   9
 -21   5  -7 850.842 42.2651   9
   5 -21  -7 910.506 37.8262   8
  -5 -16  -7 1029.15 48.2685   8
   5 -21  -7 968.603 41.8302   7
  16 -21  -7 927.259 38.9721   7
  16 -21   8 842.478 38.5344   6
 -16  -5  -8 759.869 40.1926  10
 -16  -5  -8 805.834 38.5607   9
 -21   5  -8 808.692 40.5326   9
   5 -21  -8 698.280 33.9939   8
  -5 -16  -8 858.403 44.9777   8
   5 -21  -8 837.182 38.9209   7
  16 -21  -8 804.798 37.1936   7
   5 -21   9 560.868 26.0537   6
  16 -21   9 542.112 33.1600   6
 -16  -5  -9 474.029 33.9967  10
   5 -21  -9 500.520 29.8333   8
  -5 -16  -9 542.568 37.8796   8
   5 -21  -9 516.385 32.5230   7
  16 -21  -9 488.442 32.3559   7
  21 -16  -9 477.891 26.8430   7
   5 -21 -10 162.305 25.0129   7
  16 -21 -10 151.381 26.0158   7
  21 -16 -10 168.304 21.3234   7
   5 -21  10 135.931 18.9890   6
 -16  -5 -10 172.210 27.2283  10
  16 -21  10 198.348 25.9294   6
   5 -21 -10 147.913 22.6201   8
  -5 -16 -10 171.728 29.9704   8
   5 -21 -11 93.1590 22.1436   7
  16 -21 -11 106.023 24.1556   7
  21 -16 -11 82.0442 19.6318   7
 -16  -5 -11 84.1304 22.7877  10
  16 -21  11 80.7893 20.2638   6
   5 -21 -11 87.9271 19.7682   8
  -5 -16 -11 128.602 28.1023   8
   5 -21 -12 40.8352 17.8634   7
  16 -21 -12 71.5422 21.4868   7
  21 -16 -12 63.5178 17.6754   7
 -16  -5 -12 53.4859 19.6976  10
  16 -21  12 58.1031 16.1471   6
   5 -21 -12 76.9560 17.4410   8
  -5 -16 -12 59.9721 24.2302   8
   5 -21  12-10.7044 15.7542   6
  16 -21 -13 45.0105 17.8436   7
  21 -16 -13 63.2643 16.0726   7
 -16  -5 -13 17.7057 15.5116  10
  16 -21  13 22.0619 12.4378   6
   5 -21 -13 32.3281 13.6016   8
  -5 -16 -13 20.7422 19.3478   8
   5 -21 -13 39.1827 15.0984   7
  16 -21 -14 16.2840 13.9157   7
  21 -16 -14 7.08779 12.8573   7
   5 -21  14-7.68462 11.1345   6
  16 -21  14 3.38766 10.5659   6
  -5 -16 -14 13.0768 15.5846   8
   5 -21 -14 6.20638 10.9135   7
  16 -21 -15 4.74697 9.63564   7
  21 -16 -15 9.55460 9.83560   7
  -5 -16 -15-7.65634 11.2081   8
  21 -17   0 1428.82 185.592   4
  -4 -17   0 1519.97 50.4293  10
  17 -21   0 1512.14 189.008   4
 -17  -4   0 1406.43 51.5389  10
 -17  -4   0 1558.69 51.0016   9
 -21   4   0 1512.37 52.4511   9
  -4 -17   0 1801.81 55.3261   7
   4 -21   0 1721.35 53.5289   7
  21 -17   1 1464.83 188.418   4
  21 -17  -1 1580.08 200.674   4
  -4 -17  -1 1471.99 49.6496  10
  17 -21  -1 1482.21 192.188   4
 -17  -4   1 1486.64 52.6284  10
  17 -21   1 1069.13 153.567   4
 -17  -4  -1 1654.86 53.2177   9
 -21   4   1 1652.28 53.7163   9
 -21   4  -1 1619.79 54.1473   9
 -17  -4  -1 1507.91 53.0934  10
  -4 -17  -1 1889.29 55.7853   7
   4 -21   1 1710.86 52.5906   7
   4 -21  -1 1803.46 55.1420   7
 -17  -4   1 1530.18 51.4364   9
  21 -17  -2 1521.87 195.321   4
  -4 -17  -2 1582.27 48.7418  10
 -17  -4  -2 1686.66 55.2702  10
 -17  -4  -2 1711.00 54.8703   9
 -17  -4   2 1593.11 51.8369   9
 -21   4   2 1569.47 53.5018   9
 -21   4  -2 1702.85 55.7469   9
  -4 -17  -2 1729.71 55.3374   8
 -17  -4   2 1498.47 52.9495  10
  17 -21  -2 1529.24 199.671   4
   4 -21   2 1877.74 51.8754   7
  -4 -17  -2 1843.76 55.8282   7
   4 -21  -2 1937.56 55.9643   7
  17 -21   2 1717.73 182.160   3
  21 -17  -3 1432.30 188.645   4
 -17  -4   3 1247.27 49.2297  10
 -17  -4  -3 1379.42 51.1335  10
 -21   4   3 1392.87 49.1776   9
 -17  -4   3 1374.84 47.2450   9
 -17  -4  -3 1481.61 51.3688   9
  17 -21  -3 1540.65 198.260   4
  -4 -17  -3 1497.23 52.6963   8
   4 -21  -3 1291.08 43.8733   8
   4 -21   3 1505.40 47.0333   7
  -4 -17  -3 1506.34 50.1049   7
   4 -21  -3 1500.71 50.5612   7
  17 -21   3 1292.78 164.845   3
 -21   4  -3 1377.27 51.0996   9
   4 -21  -4 1474.45 46.1623   8
  21 -17  -4 1253.52 189.365   4
  17 -21  -4 1620.52 217.978   4
 -17  -4  -4 1499.09 52.2034  10
  17 -21   4 1573.59 192.390   3
 -17  -4  -4 1701.54 54.2178   9
 -21   4  -4 1579.84 54.1545   9
  -4 -17  -4 1635.44 54.8539   8
  -4 -17  -4 1656.84 52.2633   7
   4 -21  -4 1534.14 50.1461   7
  21 -17  -5 1353.29 190.555   4
  21 -17   5 1285.38 41.4957   6
  17 -21   5 1579.83 49.9880   6
 -17  -4  -5 1301.39 50.9419  10
  17 -21   5 1491.15 180.768   3
 -17  -4  -5 1345.97 50.3506   9
 -21   4  -5 1389.32 51.4263   9
   4 -21  -5 1322.25 44.4224   8
  -4 -17  -5 1435.16 53.0663   8
  17 -21  -5 1271.42 196.550   4
  -4 -17  -5 1262.17 46.4537   7
   4 -21  -5 1330.44 48.9555   7
  21 -17   6 755.899 126.296   3
  17 -21   6 511.970 35.4290   6
 -17  -4  -6 422.996 35.3178  10
  17 -21   6 490.101 126.229   3
 -21   4  -6 498.008 36.3188   9
  21 -17  -6 424.670 123.535   4
   4 -21  -6 375.492 29.0847   8
  -4 -17  -6 456.717 35.4225   8
 -17  -4  -6 457.871 35.1591   9
  17 -21  -6 532.624 140.150   4
   4 -21  -6 436.088 33.5476   7
  17 -21  -6 438.457 28.8891   7
  -4 -17  -6 208.716 24.1846   7
  17 -21   7 901.524 40.7359   6
 -17  -4  -7 854.783 43.2929  10
 -17  -4  -7 887.841 42.5423   9
 -21   4  -7 801.610 41.9579   9
   4 -21  -7 867.616 38.7061   8
  -4 -17  -7 939.887 46.7278   8
   4 -21  -7 910.085 42.0728   7
  17 -21  -7 733.061 35.3054   7
   4 -21  -8 230.543 28.9038   7
  17 -21  -8 222.649 26.5039   7
  17 -21   8 259.341 29.5435   6
 -21   4  -8 279.755 29.9743   9
 -17  -4  -8 227.472 28.1335   9
 -17  -4  -8 239.823 32.3928  10
  -4 -17  -8 300.392 34.0222   8
   4 -21  -8 224.057 26.8309   8
   4 -21  -9 228.331 27.3260   7
 -17  -4  -9 280.379 32.3764  10
  17 -21   9 253.458 27.6328   6
   4 -21  -9 249.969 25.8674   8
  -4 -17  -9 319.515 34.0812   8
  17 -21  -9 290.080 27.3494   7
  21 -17  -9 283.056 24.0125   7
  17 -21 -10 171.455 25.0878   7
  21 -17 -10 140.784 20.8802   7
 -17  -4 -10 126.437 26.6305  10
  17 -21  10 149.541 23.9770   6
   4 -21 -10 140.462 22.4133   8
  -4 -17 -10 173.968 30.9244   8
   4 -21 -10 151.447 23.8171   7
  17 -21 -11 54.1036 21.7243   7
  21 -17 -11 76.7376 19.0030   7
 -17  -4 -11 50.8587 22.6232  10
   4 -21  11-4.08443 15.9895   6
  17 -21  11 78.3714 19.0261   6
   4 -21 -11 60.2987 19.6779   8
  -4 -17 -11 79.8775 27.0483   8
   4 -21 -11 70.8542 20.2780   7
  17 -21 -12 16.3673 18.9742   7
  21 -17 -12 11.6569 16.4813   7
   4 -21  12-0.57842 15.2443   6
 -17  -4 -12-2.54724 19.2429  10
  17 -21  12 22.6581 14.2243   6
   4 -21 -12 37.6216 16.6403   8
  -4 -17 -12 53.9456 23.0576   8
   4 -21 -12 20.4831 16.4037   7
  17 -21 -13-9.97880 15.8865   7
  21 -17 -13 17.3356 14.3719   7
 -17  -4 -13 8.56447 15.9019  10
  17 -21  13 0.52114 11.2504   6
   4 -21 -13 25.3722 13.5751   8
  -4 -17 -13 9.42475 18.2674   8
   4 -21  13-10.6920 11.9299   6
   4 -21 -13-9.67123 12.7768   7
  17 -21 -14-16.1386 12.4318   7
  21 -17 -14-10.7251 12.0966   7
  17 -21  14-1.38146 9.32049   6
 -17  -4 -14-12.0287 12.0686  10
   4 -21  14-26.8338 12.6616   6
   4 -21 -14 7.83932 10.5634   8
  -4 -17 -14 19.1564 14.9880   8
 -18  -3   0 456.649 34.9583   9
 -21   3   0 437.621 35.9574   9
  21 -18   0 348.224 112.452   4
 -18  -3   0 381.080 36.7008  10
  18 -21   0 342.290 106.320   4
  -3 -18   0 566.370 37.9624   7
   3 -21   0 540.671 36.8418   7
 -18  -3   1 311.513 34.2756  10
 -18  -3  -1 401.373 35.0616  10
  18 -21  -1 305.680 113.340   4
 -18  -3   1 375.796 32.6575   9
 -18  -3  -1 389.195 34.8660   9
 -21   3   1 378.719 33.8394   9
 -21   3  -1 442.071 34.5903   9
  21 -18  -1 306.423 112.019   4
  21 -18   1 157.428 92.0131   4
  18 -21   1 380.962 104.151   4
  -3 -18  -1 455.563 35.1938   7
   3 -21   1 423.814 34.7060   7
   3 -21  -1 533.526 37.3468   7
 -18  -3   2 412.949 33.7805  10
 -18  -3  -2 652.129 40.5653  10
 -21   3  -2 712.421 39.4854  10
 -18  -3   2 685.963 37.4633   9
 -18  -3  -2 717.895 40.3516   9
 -21   3   2 652.198 37.9706   9
 -21   3  -2 702.614 40.4356   9
  21 -18   2 431.915 118.038   4
  21 -18  -2 763.356 156.551   4
  18 -21  -2 793.617 149.632   4
   3 -21   2 787.974 38.8693   7
  -3 -18  -2 734.715 41.2613   7
   3 -21  -2 851.699 42.3040   7
 -18  -3  -3 284.482 33.1370  10
 -18  -3   3 162.863 24.6283   9
 -18  -3  -3 304.121 32.5194   9
 -21   3  -3 277.787 32.6885   9
  18 -21   3 32.7918 83.1562   3
 -21   3   3 119.473 22.9874   9
  21 -18  -3 135.049 100.949   4
   3 -21  -3 245.907 28.6091   8
  -3 -18  -3 347.306 33.1346   8
  18 -21  -3 343.673 123.683   4
  -3 -18  -3 294.869 32.4255   7
   3 -21  -3 328.032 33.3027   7
 -18  -3  -4 388.611 35.9437  10
  -3 -18  -4 425.254 34.1113   8
  18 -21   4 281.075 100.702   3
 -18  -3  -4 410.807 35.7706   9
 -21   3  -4 406.442 34.8171   9
  21 -18  -4 369.007 116.445   4
   3 -21  -4 388.937 30.6671   8
  18 -21  -4 468.002 129.441   4
  -3 -18  -4 392.089 33.0380   7
   3 -21  -4 455.332 36.0937   7
  21 -18   5 307.335 27.9212   6
  18 -21   5 479.593 34.1336   6
 -18  -3  -5 394.141 36.1724  10
 -18  -3  -5 358.460 33.7658   9
 -21   3  -5 360.249 34.1241   9
  21 -18  -5 260.280 106.084   4
   3 -21  -5 331.816 29.1450   8
  -3 -18  -5 443.583 35.2533   8
  18 -21  -5 292.146 119.676   4
  18 -21   5 351.094 113.224   3
  -3 -18  -5 385.515 32.0858   7
   3 -21  -5 349.140 31.9852   7
   3 -21  -6 76.7394 23.4445   8
 -18  -3  -6 62.5730 27.6019  10
 -18  -3  -6 87.2996 26.9843   9
 -21   3  -6 58.6069 26.9502   9
  -3 -18  -6 92.0691 28.7972   8
  21 -18   6 77.0740 21.5615   6
  18 -21   6 68.1236 26.7675   6
  -3 -18  -6 84.3266 24.8333   7
   3 -21  -6 79.9161 26.7185   7
  21 -18   7 414.025 27.6161   6
  18 -21   7 496.351 34.4616   6
 -18  -3  -7 556.372 39.5700  10
 -18  -3  -7 488.566 36.2235   9
 -21   3  -7 511.528 37.4782   9
   3 -21  -7 543.145 34.3928   8
  -3 -18  -7 639.396 40.4796   8
   3 -21  -7 510.956 36.2032   7
  18 -21  -7 535.326 31.2493   7
  18 -21  -8 95.9203 23.0795   7
 -18  -3  -8 109.372 30.0773  10
 -18  -3  -8 104.828 25.2268   9
 -21   3  -8 68.3221 24.5108   9
  21 -18   8 68.7648 19.0932   6
  18 -21   8 117.634 25.7033   6
   3 -21  -8 73.5512 23.3931   8
  -3 -18  -8 81.2257 22.2782   7
  -3 -18  -8 140.012 31.1858   8
   3 -21  -8 104.122 25.5918   7
  18 -21  -9 47.0730 22.0043   7
  21 -18  -9 56.2308 19.4029   7
  18 -21   9 83.7495 23.6360   6
   3 -21  -9 68.4195 23.3451   8
  -3 -18  -9 70.8070 28.5410   8
   3 -21  -9 44.4390 22.8488   7
 -18  -3  -9 61.8405 28.1540  10
  18 -21 -10 85.8648 22.0468   7
  21 -18 -10 56.3650 18.8174   7
  18 -21  10 40.9071 20.5143   6
 -18  -3 -10 78.4185 25.8586  10
   3 -21 -10 33.4956 20.8158   8
  -3 -18 -10 110.719 28.2603   8
   3 -21 -10 67.3152 21.1664   7
  18 -21 -11 2.87769 18.8906   7
  21 -18 -11 7.20932 17.4318   7
 -18  -3 -11 34.1829 22.4437  10
  18 -21  11 10.4509 16.5092   6
   3 -21 -11 15.1831 18.5894   8
  -3 -18 -11 23.5372 24.2376   8
   3 -21 -11 20.2024 18.0247   7
  18 -21 -12 9.33832 17.1027   7
  21 -18 -12-3.91912 15.6885   7
 -18  -3 -12 20.2061 19.3205  10
   3 -21 -12-11.6241 16.4523   8
  -3 -18 -12 1.67123 20.5880   8
  18 -21  12 12.3084 12.9170   6
   3 -21 -12 9.61664 15.0689   7
  18 -21 -13 12.6663 14.5833   7
  21 -18 -13 8.17304 13.6972   7
 -18  -3 -13-4.49922 15.5079  10
  18 -21  13-3.11285 10.2242   6
   3 -21 -13 7.31947 13.8055   8
  -3 -18 -13 16.4391 17.4837   8
   3 -21 -13 1.88996 12.3048   7
  18 -21 -14 6.62988 11.8502   7
  21 -18 -14 11.7106 11.3291   7
 -18  -3 -14-2.94963 11.2803  10
 -21   3 -14 0.00789 13.5725  10
  18 -21  14-10.2061 8.31952   6
   3 -21 -14 1.68227 10.4424   8
  -3 -18 -14-1.87378 13.0375   8
 -19  -2   0 407.385 36.2089  10
 -19  -2   0 460.971 34.7848   9
 -21   2   0 439.876 34.8296   9
  21 -19   0 510.919 120.724   4
  19 -21   0 447.696 122.363   4
  -2 -19   0 507.790 37.6222   7
   2 -21   0 503.116 36.8704   7
 -19  -2  -1 194.220 31.0194  10
 -19  -2   1 159.829 28.2195   9
 -19  -2  -1 160.526 29.6650   9
 -21   2   1 157.623 28.5949   9
 -21   2  -1 189.250 30.0261   9
  21 -19  -1 144.590 88.1529   4
  21 -19   1 56.5638 57.3625   4
  19 -21  -1 22.8158 82.4504   4
  19 -21   1 77.5718 76.4577   4
 -19  -2   1 90.2304 24.0069  10
   2 -21   1 212.828 30.1048   7
  -2 -19  -1 213.006 32.0515   7
   2 -21  -1 202.340 31.3755   7
 -19  -2  -2 335.729 33.3061   9
 -21   2   2 311.708 31.1004   9
 -21   2  -2 325.825 32.6207   9
 -19  -2   2 267.250 30.0934   9
 -19  -2  -2 296.704 33.4128  10
  21 -19  -2 278.016 108.064   4
 -21   2  -2 114.562 23.8370  10
  19 -21  -2 238.552 103.115   4
   2 -21   2 312.745 31.5305   7
  -2 -19  -2 374.149 34.8944   7
   2 -21  -2 363.419 34.8950   7
 -19  -2  -3 158.491 31.3537  10
 -21   2  -3 131.550 28.5569  10
 -19  -2   3 110.112 21.9792   9
 -19  -2  -3 134.770 29.2405   9
  19 -21  -3 173.011 103.332   4
 -21   2   3 101.500 22.1770   9
  21 -19  -3 120.031 91.9781   4
  -2 -19  -3 202.118 30.9195   8
 -21   2  -3 178.278 29.8888   9
  -2 -19  -3 177.982 30.3688   7
   2 -21  -3 167.229 31.3369   7
  19 -21  -4 75.1459 88.1221   4
  19 -21   4 259.842 91.7844   3
 -19  -2  -4 257.126 32.3764  10
 -19  -2  -4 288.785 33.3331   9
 -21   2  -4 308.163 33.7802   9
  21 -19  -4 213.109 103.344   4
  -2 -19  -4 266.363 30.9662   8
   2 -21  -4 225.301 27.8562   8
   2 -21  -4 288.191 32.5042   7
  -2 -19  -4 267.336 31.3631   7
 -19  -2  -5 168.949 31.6002  10
 -19  -2  -5 158.312 29.9089   9
 -21   2  -5 191.263 31.1638   9
   2 -21  -5 133.552 25.3034   8
  -2 -19  -5 170.004 29.2608   8
  21 -19   5 135.928 25.1229   6
  19 -21   5 163.268 28.6207   6
  -2 -19  -5 183.224 29.1623   7
   2 -21  -5 151.015 29.6212   7
 -19  -2  -6 58.6598 30.2864  10
 -19  -2  -6 40.2480 26.5991   9
 -21   2  -6 68.0400 29.3138   9
   2 -21  -6 66.4312 25.3198   8
  21 -19   6 48.3067 21.9886   6
  19 -21   6 75.5973 26.8554   6
  -2 -19  -6 68.8629 28.4690   8
  -2 -19  -6 49.2750 25.2969   7
   2 -21  -6 64.1645 26.6031   7
  19 -21  -7 58.4246 21.3209   7
 -19  -2  -7 71.8444 30.5423  10
 -19  -2  -7 62.4605 27.2197   9
   2 -21  -7 50.3289 24.4506   8
 -21   2  -7 67.3803 27.6928   9
  21 -19   7 76.9997 22.4248   6
  -2 -19  -7 108.408 30.1662   8
  19 -21   7 115.304 27.1019   6
  -2 -19  -7 64.0914 24.4524   7
   2 -21  -7 77.5117 27.3667   7
  19 -21  -8 146.851 22.6001   7
 -19  -2  -8 117.343 25.4792   9
 -21   2  -8 106.801 25.6897   9
  21 -19   8 140.231 21.1945   6
  19 -21   8 134.404 24.9662   6
   2 -21  -8 105.718 25.8674   8
  -2 -19  -8 153.107 30.0588   8
  -2 -19  -8 60.1377 20.7610   7
   2 -21  -8 110.338 25.4142   7
  19 -21  -9 63.0151 20.4954   7
  21 -19  -9 47.1165 18.7468   7
   2 -21  -9 33.5296 22.0310   8
  21 -19   9 21.9992 17.1961   6
  19 -21   9 60.0616 21.8021   6
  -2 -19  -9 71.3054 27.3012   8
  -2 -19  -9 55.4519 20.0999   7
   2 -21  -9 64.3200 22.4446   7
  19 -21 -10 10.6707 18.9907   7
  21 -19 -10 42.4843 18.8524   7
 -19  -2 -10 39.3455 26.1497  10
  21 -19  10 46.5486 15.3309   6
  19 -21  10 32.5143 19.2311   6
   2 -21 -10 29.2287 20.7339   8
  -2 -19 -10 63.6690 25.9493   8
   2 -21 -10 40.3926 20.2222   7
  19 -21 -11 36.6436 18.1891   7
  21 -19 -11 5.21997 16.7642   7
 -19  -2 -11 31.9664 22.0917  10
  19 -21  11 8.73821 14.4763   6
   2 -21 -11 13.8222 18.6324   8
  -2 -19 -11 4.14053 21.8493   8
   2 -21 -11 3.45758 16.9833   7
  19 -21 -12 17.7257 16.0849   7
  21 -19 -12 16.6787 15.1416   7
 -19  -2 -12-11.7852 18.4878  10
  19 -21  12 0.37623 11.2631   6
   2 -21 -12 27.4478 16.6872   8
  -2 -19 -12 18.7995 18.9405   8
   2 -21 -12 9.73820 11.5746   7
  19 -21 -13 6.71999 13.1715   7
  21 -19 -13 0.00701 12.6461   7
  19 -21  13 5.80828 9.26357   6
   2 -21 -13 6.97338 13.1386   8
  -2 -19 -13-1.08076 15.6015   8
 -19  -2 -13-0.58306 14.9999  10
  19 -21 -14-9.88608 10.4330   7
  21 -19 -14-11.5315 9.89396   7
 -19  -2 -14 9.80341 11.2033  10
 -21   2 -14 7.84867 12.0324  10
   2 -21 -14 18.8360 9.47755   8
  -2 -19 -14-2.50594 11.7581   8
 -20  -1   0 42.2002 26.2175   9
 -21   1   0 50.0722 27.6569   9
  21 -20   0-51.2158 81.1871   4
  20 -21   0-37.7799 89.0702   4
 -20  -1   0-14.4360 23.0433  10
  -1 -20   0 59.6116 27.7961   7
   1 -21   0 76.0347 29.3393   7
 -20  -1  -1-17.2943 26.3247  10
 -21   1  -1 32.1581 21.4401  10
 -20  -1   1-1.39848 24.6703   9
 -20  -1  -1 9.07334 27.0587   9
 -21   1   1 10.9271 25.4718   9
 -21   1  -1 13.4160 25.9176   9
  21 -20  -1 112.603 85.8145   4
  21 -20   1-106.011 83.8162   4
  20 -21  -1-35.6629 89.6451   4
  20 -21   1-173.943 82.8473   4
 -20  -1   1 87.4815 28.3179  10
  -1 -20   1 31.0019 29.4079   7
   1 -21   1 5.94776 27.8024   7
  -1 -20  -1 24.8755 27.7336   7
   1 -21  -1 16.4638 28.3600   7
 -21   1  -2 13.8960 25.0687  10
 -20  -1  -2-0.64071 27.2266  10
 -20  -1  -2 23.3224 26.2121   9
 -21   1   2 7.88245 24.6753   9
 -21   1  -2 43.4824 27.8446   9
  21 -20  -2-54.5597 87.7208   4
 -20  -1   2 22.4166 23.9026   9
  -1 -20  -2 35.5773 28.3348   7
   1 -21  -2 40.4495 28.0134   7
 -20  -1  -3 54.8500 28.2873  10
 -21   1  -3 13.6412 26.0172  10
 -20  -1   3-27.6487 20.8016   9
 -20  -1  -3 35.0241 28.4396   9
 -21   1   3-41.2807 23.1131   9
 -21   1  -3 29.7793 26.5562   9
  21 -20  -3-69.5512 94.2595   4
  20 -21  -3-77.1787 106.485   4
  -1 -20  -3 57.8883 28.5689   7
   1 -21  -3 31.0777 27.9940   7
 -20  -1  -4 32.2478 27.8151  10
 -21   1  -4 54.6396 27.9415  10
 -20  -1  -4 21.6031 27.5381   9
 -21   1  -4 19.4537 28.1640   9
   1 -21  -4 45.3114 25.3311   8
  -1 -20  -4 54.0354 26.8094   8
  21 -20   4 75.9571 25.9674   6
  20 -21   4 64.0581 27.8937   6
  -1 -20  -4 69.3735 28.9366   7
   1 -21  -4 48.0698 27.7599   7
 -20  -1  -5 30.5348 29.1241  10
 -20  -1  -5 32.7684 27.5660   9
 -21   1  -5 16.4162 27.2375   9
   1 -21  -5-4.58550 24.4721   8
  -1 -20  -5 30.9803 26.3975   8
  21 -20   5 34.5583 24.0640   6
  20 -21   5 1.11269 25.2838   6
  -1 -20  -5 8.89940 26.0103   7
   1 -21  -5 31.7539 27.1569   7
   1 -21  -6 80.7821 26.2941   8
 -20  -1  -6 39.4314 30.2810  10
 -20  -1  -6 51.8937 28.4184   9
 -21   1  -6 22.7753 27.9738   9
  21 -20   6 32.6394 23.1218   6
  20 -21   6 37.3813 25.2338   6
  -1 -20  -6 14.9954 26.5848   8
  -1 -20  -6 37.4485 25.7763   7
   1 -21  -6 40.5373 27.1207   7
 -20  -1  -7 27.5312 25.6659   9
 -21   1  -7 23.9023 25.8181   9
 -20  -1  -7 14.7161 29.2000  10
   1 -21  -7 41.5638 25.3542   8
  -1 -20  -7 6.29291 26.1542   8
  20 -21   7 8.85330 23.7316   6
  21 -20   7 13.9220 21.4219   6
  -1 -20  -7 22.6800 23.5667   7
   1 -21  -7 15.5233 24.6140   7
  20 -21  -8 4.74379 18.2739   7
 -20  -1  -8 9.08446 23.2561   9
 -21   1  -8 23.3058 23.5107   9
  21 -20   8-4.95569 19.7991   6
  20 -21   8 33.2722 21.9247   6
   1 -21  -8-1.39866 23.7057   8
  -1 -20  -8 0.03021 26.0040   8
  -1 -20  -8 34.2124 21.9106   7
   1 -21  -8 10.6069 22.8795   7
  20 -21  -9-2.85470 18.1407   7
  21 -20  -9-0.37601 17.2769   7
 -20  -1  -9 3.28636 27.6994  10
  21 -20   9-18.4662 17.9859   6
  20 -21   9-16.2976 19.4860   6
   1 -21  -9-1.68964 22.0832   8
  -1 -20  -9 22.9137 24.8345   8
  -1 -20  -9-19.7748 19.8449   7
   1 -21  -9-0.87719 20.2228   7
  20 -21 -10 6.06199 17.0553   7
  21 -20 -10 12.8922 17.1491   7
 -20  -1 -10 7.12335 25.5672  10
  21 -20  10 11.1922 14.9152   6
  20 -21  10-19.0896 16.5346   6
   1 -21 -10 23.6302 21.5436   8
  -1 -20 -10-10.6167 22.9668   8
   1 -21 -10 25.2860 18.3972   7
  20 -21 -11 13.1509 16.2436   7
  21 -20 -11 10.0951 15.9106   7
 -20  -1 -11 15.8933 22.3102  10
   1 -21 -11-2.79712 18.4244   8
  21 -20  11-4.50018 10.7994   6
  20 -21  11 8.87919 12.9211   6
  -1 -20 -11 15.8020 20.7489   8
   1 -21 -11 0.65653 15.3996   7
  20 -21 -12 16.9968 14.6371   7
  21 -20 -12-13.1291 13.6477   7
 -20  -1 -12 0.39668 18.5572  10
 -21   1 -12-9.41574 19.3820  10
  20 -21  12-15.6436 9.75720   6
   1 -21 -12-0.54227 15.9232   8
  -1 -20 -12-15.2077 17.3401   8
  20 -21 -13 7.26382 12.1932   7
  21 -20 -13 0.32815 11.3094   7
 -20  -1 -13-16.8499 15.0556  10
 -21   1 -13-0.69139 15.4623  10
  20 -21  13-1.48963 7.71907   6
   1 -21 -13 2.51324 12.8952   8
  -1 -20 -13 14.9632 14.1020   8
  -1 -20 -14 9.72450 10.2486   8
 -21   0   0-92.6393 27.8323  10
 -21   0   0 32.5926 27.0500   9
  21 -21   0-89.1695 89.6828   4
   0 -21   0 21.5864 27.8763   7
 -21   0  -1 295.028 34.1634   9
 -21   0   1 248.701 32.0824   9
  21 -21  -1 357.634 113.635   4
   0 -21   1 265.782 33.1013   7
   0 -21  -1 253.492 32.3170   7
 -21   0  -1 211.263 31.8009  10
 -21   0   2 295.681 31.8671   9
 -21   0  -2 324.573 34.1799   9
   0 -21  -2 306.751 34.3940   7
 -21   0  -2 258.243 33.0203  10
 -21   0  -3 83.1068 28.9192   9
 -21   0  -3 102.296 29.8966  10
 -21   0   3 70.1817 23.0584   9
   0 -21  -3 96.2190 29.1739   7
 -21   0  -4 76.0261 28.9490  10
 -21   0  -4 84.3057 30.0517   9
   0 -21  -4 48.3586 25.4614   8
  21 -21   4 94.7673 27.4178   6
   0 -21  -4 53.0106 27.8956   7
 -21   0  -5 64.9424 29.2497  10
 -21   0  -5 101.321 29.3893   9
   0 -21  -5 39.1852 26.3163   8
  21 -21   5 58.9659 24.7105   6
   0 -21  -5 85.3313 28.4767   7
 -21   0  -6 4.05555 29.5704  10
 -21   0  -6 25.8053 27.6826   9
   0 -21  -6-6.67492 25.9960   8
  21 -21   6 6.53490 23.5263   6
   0 -21  -6 39.2958 26.1924   7
 -21   0  -7 259.324 34.3032  10
 -21   0  -7 268.954 30.9309   9
   0 -21  -7 248.125 29.4546   8
  21 -21   7 233.286 25.3915   6
   0 -21  -7 217.215 28.0785   7
 -21   0  -8 71.8028 30.0208  10
 -21   0  -8 58.7578 23.8158   9
  21 -21   8 55.5977 20.6228   6
   0 -21  -8 77.4328 24.9192   8
   0 -21  -8 55.7899 22.6938   7
  21 -21  -9 52.0996 17.6738   7
 -21   0  -9 47.0845 28.6287  10
  21 -21   9 56.0748 18.3231   6
   0 -21  -9 43.6088 23.8266   8
   0 -21  -9 43.5242 20.3334   7
  21 -21 -10 4.46568 15.8542   7
 -21   0 -10 37.2852 25.5781  10
  21 -21  10 27.4761 15.1485   6
   0 -21 -10 24.2253 21.2525   8
   0 -21 -10 19.8128 16.8226   7
  21 -21 -11 6.96294 14.4144   7
 -21   0 -11 34.1134 21.9035  10
  21 -21  11 1.70455 11.4051   6
   0 -21 -11 6.25353 18.3060   8
  21 -21 -12 0.14604 12.8924   7
 -21   0 -12 0.65504 17.2533  10
   0 -21 -12 24.4381 15.4771   8
  21 -21  12 5.60690 8.29577   6
  21 -21 -13-3.30420 9.97345   7
 -21   0 -13-5.03676 13.8932  10
   0 -21 -13-4.30824 11.6711   8
 -11 -11   0 5526.10 97.5772  10
  11 -22   0 5299.00 351.199   4
 -22  11   0 5780.25 105.462   9
 -11 -11   1 6156.23 106.571  10
 -11 -11  -1 6454.21 106.397  10
  11 -22  -1 6585.66 387.639   4
  11 -22   1 6161.31 366.233   4
 -22  11   1 6840.72 113.014   9
 -22  11  -1 6858.04 113.413   9
  11 -22  -1 5934.38 90.8991   7
 -11 -11   2 4712.54 90.1925  10
 -11 -11  -2 4742.77 87.5770  10
  11 -22  -2 4539.26 336.491   4
 -22  11  -2 5436.85 99.7878   9
  11 -22  -2 4400.16 76.7725   7
 -22  11   2 5094.41 97.9026   9
  11 -22   3 4086.16 77.5786   6
 -11 -11   3 3728.16 80.3802  10
 -11 -11  -3 3879.07 78.8235  10
  11 -22  -3 3821.55 310.350   4
 -22  11  -3 4161.17 87.6479   9
  11 -22   3 3938.44 294.773   3
 -11 -11  -3 3950.27 81.5966   8
  11 -22  -3 3590.69 69.4675   7
  11 -22   4 4155.36 77.8863   6
 -11 -11   4 3284.47 78.4055  10
 -22  11  -4 4126.02 86.2009   9
  11 -22  -4 3661.83 299.635   4
  11 -22   4 3786.18 297.289   3
 -11 -11  -4 3468.08 79.8122   8
 -11 -11  -4 3518.51 75.3141  10
  11 -22  -4 3603.44 70.4700   7
  22 -11  -5 3686.96 291.830   4
  11 -22   5 4089.40 75.9946   6
 -11 -11  -5 3359.30 72.9139  10
  11 -22  -5 3630.01 301.230   4
 -22  11  -5 3844.56 84.5571   9
  11 -22   5 3604.62 295.907   3
 -11 -11  -5 3470.80 78.1731   8
  11 -22  -5 3561.84 71.7760   7
  22 -11  -6 2783.06 252.429   4
  11 -22   6 2996.06 66.1564   6
 -11 -11  -6 2572.66 63.2951  10
  11 -22  -6 2502.95 257.108   4
  11 -22   6 2917.10 269.235   3
 -11 -11  -6 2781.13 69.5759   8
 -22  11  -6 2850.80 71.6969   9
  11 -22  -6 2866.94 64.7805   7
  11 -22   7 1360.75 46.2602   6
 -11 -11  -7 1185.66 43.7054  10
 -22  11  -7 1410.76 51.9737   9
 -11 -11  -7 1241.17 49.2542   8
  11 -22  -7 1296.34 46.6696   7
  11 -22   8 1684.84 49.5319   6
 -11 -11  -8 1415.28 45.2487  10
 -11 -11  -8 1407.07 51.6652   8
  11 -22  -8 1671.94 52.2033   7
  11 -22   9 970.937 40.2591   6
 -11 -11  -9 874.108 36.1571  10
 -11 -11  -9 847.809 41.0090   8
  11 -22  10 546.652 30.8502   6
  11 -22 -10 561.852 35.6520   7
  11 -22  11 278.519 24.0676   6
 -11 -11 -11 256.548 26.7479   8
  11 -22 -11 326.067 30.6415   7
  11 -22 -12 114.491 22.6619   7
  11 -22  12 82.0253 18.2423   6
 -11 -11 -12 108.584 21.2144   8
  11 -22 -13 67.2686 18.8807   7
 -11 -11 -13 51.5546 17.2995   8
  11 -22 -14 11.8544 13.3489   7
  22 -11 -14 26.6423 13.5131   7
  11 -22  14 4.22180 12.8744   6
 -11 -11 -14 0.39917 10.9352   8
  11 -22  15 9.75984 10.4259   6
 -10 -12   0 545.659 40.5539  10
 -12 -10   0 478.649 38.0177  10
 -22  10   0 544.625 40.6959   9
  10 -22   0 316.253 28.9250   7
  12 -22   0 226.553 113.506   4
  10 -22   0 370.974 122.404   4
 -12 -10   1 754.866 44.0105  10
 -10 -12  -1 931.258 46.8744  10
 -12 -10  -1 963.544 45.6357  10
 -22  10   1 908.499 48.8737   9
 -22  10  -1 994.329 48.6433   9
 -10 -12   1 1002.91 47.9155  10
  10 -22  -1 738.935 36.6246   7
  12 -22  -1 668.078 158.630   4
  12 -22   1 725.258 148.579   4
  10 -22  -1 668.038 158.264   4
  10 -22   1 557.706 140.645   4
 -10 -12   2 466.554 39.3678  10
 -12 -10   2 511.614 39.2901  10
 -10 -12  -2 573.807 39.1460  10
 -12 -10  -2 562.779 39.4407  10
 -22  10   2 527.590 40.2977   9
 -22  10  -2 701.800 45.4549   9
  12 -22   2 276.953 122.440   3
  10 -22  -2 394.708 30.7647   7
  12 -22  -2 400.171 29.0491   7
  12 -22  -2 235.176 127.273   4
  10 -22  -2 394.529 138.691   4
 -10 -12   3 449.833 39.7734  10
 -12 -10   3 412.317 38.4742  10
 -10 -12  -3 491.781 36.7170  10
 -12 -10  -3 316.852 35.9435  10
 -22  10  -3 328.135 38.2710   9
 -22  10   3 146.244 28.3639   9
  22 -12  -3 254.411 130.597   4
 -22  12   3 165.132 30.4639   9
 -12 -10  -3 367.145 35.4531   8
 -10 -12  -3 389.992 37.9789   8
 -22  12  -3 505.636 40.5797   9
  12 -22   3 479.785 144.022   3
  10 -22   3 235.320 29.2179   6
  10 -22  -3 391.550 31.9381   7
  12 -22  -3 309.449 28.9814   7
  12 -22  -3 426.151 139.294   4
  12 -22   3 527.944 39.2000   6
  10 -22  -3 294.785 133.719   4
  22 -12  -4 176.643 115.221   4
  10 -22  -4 229.288 29.2408   7
  10 -22   4 248.304 32.6250   6
 -12 -10   4 276.674 34.6641  10
 -10 -12  -4 341.728 32.8561  10
 -10 -12  -4 244.544 34.2332   8
 -12 -10  -4 233.871 30.1524   8
 -22  10  -4 270.546 34.9904   9
 -22  12  -4 319.850 37.9103   9
 -12 -10  -4 310.843 34.9052  10
  12 -22   4 329.436 117.611   3
  12 -22   4 236.122 33.7282   6
  10 -22   4 162.113 111.731   3
  12 -22  -4 313.060 29.9822   7
  12 -22  -4 204.652 124.845   4
  10 -22  -4 133.908 107.805   4
  10 -22   5 273.787 33.0008   6
  12 -22   5 425.670 36.9039   6
 -10 -12  -5 261.309 30.9905  10
 -12 -10  -5 348.384 33.9696  10
 -22  10  -5 295.793 36.6821   9
 -22  12  -5 362.100 37.8786   9
  22 -12  -5 160.707 105.333   4
  12 -22   5 224.326 115.195   3
 -10 -12  -5 347.432 35.8383   8
 -12 -10  -5 167.093 27.0015   8
  10 -22   5 267.084 123.344   3
  10 -22  -5 402.508 33.1730   7
  12 -22  -5 356.357 31.5835   7
  12 -22  -5 110.114 117.421   4
  22 -10  -5 283.655 121.025   4
  10 -22  -5 273.645 128.651   4
  10 -22   6 571.965 36.9539   6
  12 -22   6 497.675 37.7835   6
 -12 -10  -6 348.660 33.3259  10
 -22  10  -6 406.200 37.3352   9
 -22  12  -6 290.011 37.0062   9
  22 -10  -6 164.754 108.235   4
  22 -12  -6 268.212 110.568   4
  12 -22   6 359.633 129.624   3
 -12 -10  -6 406.218 34.3866   8
 -10 -12  -6 402.662 37.7283   8
 -10 -12  -6 432.001 33.7031  10
  10 -22   6 269.054 119.584   3
  10 -22  -6 569.880 38.3605   7
  12 -22  -6 530.155 36.1391   7
  12 -22  -6 178.433 117.487   4
  10 -22  -6 477.663 144.834   4
  10 -22  -7 127.264 29.9534   7
  12 -22  -7 87.3825 28.3071   7
 -10 -12  -7 73.3063 24.9503  10
 -22  10  -7 52.1524 28.5715   9
 -12 -10  -7 78.9298 26.1371  10
 -22  12  -7 30.7230 28.4805   9
  10 -22   7 61.0698 27.3205   6
  12 -22   7 58.7741 28.7498   6
 -12 -10  -7 76.6931 27.6484   8
 -10 -12  -7 42.6724 29.9802   8
  10 -22  -8 234.597 32.0909   7
  12 -22  -8 239.568 32.0230   7
 -10 -12  -8 142.770 24.8488  10
 -12 -10  -8 206.426 28.2502  10
  10 -22   8 144.897 29.1045   6
  12 -22   8 198.750 30.8667   6
 -12 -10  -8 223.251 30.6945   8
 -10 -12  -8 155.918 31.5796   8
  10 -22  -9 161.797 30.1803   7
  12 -22  -9 125.917 29.0505   7
  10 -22   9 119.357 26.3882   6
 -12 -10  -9 64.0866 23.3678  10
  12 -22   9 105.697 27.5422   6
 -12 -10  -9 99.2345 25.6467   8
 -10 -12  -9 126.334 28.3015   8
  10 -22 -10 96.4626 27.8791   7
  12 -22 -10 55.8306 27.7317   7
 -12 -10 -10 27.3776 20.0827  10
  10 -22  10 47.3816 22.2918   6
  12 -22  10 56.8025 24.2414   6
 -12 -10 -10 15.4173 21.9117   8
 -10 -12 -10 32.5162 24.2162   8
  10 -22 -11 59.1200 25.6891   7
  12 -22 -11 46.7725 26.2561   7
  10 -22  11 15.3291 18.8470   6
  12 -22  11 24.8490 20.7643   6
 -12 -10 -11 18.6613 20.5450   8
 -10 -12 -11-1.20063 22.5732   8
  10 -22 -12 29.3899 21.7417   7
  12 -22 -12 30.9935 22.5165   7
  10 -22  12 6.17100 16.1645   6
  12 -22  12 5.09706 16.7773   6
 -12 -10 -12 20.0626 17.8269   8
 -10 -12 -12 14.8627 20.0842   8
  10 -22 -13 23.2257 17.3178   7
  12 -22 -13 23.7966 18.2471   7
  22 -12 -13 18.8938 15.6651   7
 -12 -10 -13-7.56664 13.4190   8
 -10 -12 -13 21.9123 17.6227   8
  12 -22  13-22.1846 15.2825   6
  10 -22  13-11.6614 14.7836   6
  10 -22 -14-7.81478 12.6309   7
  12 -22 -14-0.94779 13.1871   7
  22 -12 -14 1.00457 12.3077   7
  22 -10 -14 12.7383 12.8168   7
  10 -22  14-3.74072 12.9639   6
  12 -22  14 1.84536 12.4193   6
 -12 -10 -14 4.50220 11.4854   8
 -10 -12 -14-1.97792 13.5569   8
  12 -22 -15-8.53760 9.33129   7
  10 -22  15 4.56352 10.2701   6
  12 -22  15-1.33489 9.51329   6
 -13  -9   0 1591.45 54.9896  10
  13 -22   0 1461.18 192.365   4
 -22   9   0 1714.74 59.4242   9
  -9 -13   0 1880.21 58.2673  10
   9 -22   0 1545.11 49.1351   7
 -13  -9   0 1694.79 55.2013   9
  22 -13  -1 1785.58 216.221   4
  -9 -13   1 2671.85 69.1185  10
  -9 -13  -1 2709.41 67.4239  10
 -13  -9   1 2217.55 65.1267  10
 -13  -9  -1 2343.88 64.9379  10
 -22   9   1 2604.13 69.6700   9
  13 -22   1 2044.39 219.917   4
 -13  -9  -1 2400.49 64.3007   9
   9 -22  -1 1808.78 233.577   4
 -22   9  -1 2695.08 72.1829   9
  13 -22  -1 2000.91 229.292   4
   9 -22   1 2240.72 55.6454   7
   9 -22  -1 2343.49 58.9324   7
  22 -13  -2 1461.45 207.933   4
  -9 -13   2 2015.68 62.5705  10
 -13  -9   2 1813.92 59.9082  10
  -9 -13  -2 2135.89 59.9295  10
 -13  -9  -2 1937.53 58.5604  10
  13 -22  -2 1614.61 213.498   4
 -13  -9  -2 1846.16 57.1583   9
   9 -22  -2 1546.37 215.382   4
 -22   9  -2 2193.72 65.8434   9
  13 -22   2 1827.38 214.600   3
 -22   9   2 1894.45 61.6385   9
   9 -22  -2 1852.81 51.9283   7
  22 -13  -3 1194.50 189.560   4
   9 -22   3 1735.56 51.7569   6
  -9 -13   3 1641.83 57.6156  10
 -13  -9   3 1427.39 55.0437  10
  -9 -13  -3 1565.37 52.4895  10
 -13  -9  -3 1627.15 54.2605  10
 -13  -9  -3 1641.03 54.7037   9
 -22   9  -3 1784.36 59.0964   9
  13 -22   3 1585.17 202.521   3
  -9 -13  -3 1784.13 58.2276   8
  13 -22  -3 1071.88 191.748   4
   9 -22  -3 1581.49 48.7757   7
  13 -22  -3 1481.44 45.4066   7
   9 -22  -3 919.699 180.475   4
   9 -22   4 761.296 36.7394   6
  13 -22   4 1391.71 50.2802   6
 -13  -9   4 1121.57 49.7919  10
  -9 -13  -4 1273.07 46.5300  10
 -13  -9  -4 1208.66 47.1221  10
 -22   9  -4 1438.05 53.8232   9
  22 -13  -4 818.616 165.358   4
  13 -22   4 1159.10 189.325   3
  -9 -13  -4 1314.93 52.2356   8
   9 -22  -4 1160.32 43.5601   7
  13 -22  -4 944.818 174.421   4
  13 -22  -4 1238.42 43.1007   7
   9 -22  -4 1077.29 188.499   4
  13 -22  -5 1217.16 199.632   4
   9 -22   5 1407.66 46.1649   6
  13 -22   5 1477.47 49.9713   6
  -9 -13  -5 1181.75 45.5017  10
 -13  -9  -5 1114.92 46.3349  10
 -22   9  -5 1213.63 51.6016   9
 -22  13  -5 1149.35 50.7682   9
  22 -13  -5 881.086 160.622   4
  13 -22   5 1225.89 188.621   3
   9 -22  -5 1179.03 192.438   4
  -9 -13  -5 1195.69 52.0455   8
   9 -22   5 1118.83 186.678   3
   9 -22  -5 1220.38 46.1239   7
  13 -22  -5 1167.54 42.7806   7
   9 -22   6 1104.90 43.5309   6
  13 -22   6 1127.26 45.9687   6
 -13  -9  -6 1049.45 45.4120  10
 -22   9  -6 921.692 47.1673   9
 -22  13  -6 1006.27 49.2053   9
  22  -9  -6 642.614 143.331   4
  -9 -13  -6 946.258 41.1250  10
  22 -13  -6 712.901 156.149   4
  13 -22   6 789.041 159.325   3
  -9 -13  -6 1162.64 50.1979   8
   9 -22   6 809.399 174.524   3
   9 -22  -6 1126.22 45.3846   7
  13 -22  -6 1132.00 44.6995   7
  13 -22  -6 670.202 161.361   4
   9 -22  -6 633.010 164.429   4
   9 -22   7 514.410 35.0985   6
  13 -22   7 461.267 37.1993   6
  -9 -13  -7 397.682 30.9253  10
 -13  -9  -7 486.910 34.6078  10
 -22   9  -7 309.116 34.4610   9
 -22  13  -7 302.471 34.8541   9
  -9 -13  -7 494.538 39.4944   8
   9 -22  -7 452.706 35.1466   7
  13 -22  -7 569.141 35.7448   7
   9 -22   8 639.520 36.4597   6
  13 -22   8 782.681 39.3347   6
 -13  -9  -8 618.611 36.4773  10
 -13  -9  -8 637.596 36.6369   8
  -9 -13  -8 664.444 42.2823   8
   9 -22  -8 709.173 40.1199   7
  13 -22  -8 737.916 39.1142   7
   9 -22   9 334.084 29.0449   6
  13 -22   9 388.345 32.0590   6
 -13  -9  -9 292.261 28.4208  10
 -13  -9  -9 289.031 29.1537   8
  -9 -13  -9 351.622 34.1981   8
   9 -22  -9 311.896 32.7047   7
  13 -22  -9 430.449 33.5110   7
  13 -22  10 218.329 27.6110   6
 -13  -9 -10 142.964 23.4354  10
   9 -22  10 161.523 23.5256   6
 -13  -9 -10 108.906 23.1982   8
  -9 -13 -10 192.794 29.7380   8
   9 -22 -10 227.257 29.5936   7
  13 -22 -10 222.872 30.2806   7
   9 -22 -11 164.498 27.1785   7
  13 -22 -11 182.385 28.6473   7
 -13  -9 -11 128.060 21.3938  10
   9 -22  11 98.4954 20.1847   6
  13 -22  11 119.271 23.1386   6
 -13  -9 -11 100.390 22.0936   8
  -9 -13 -11 116.267 26.1263   8
   9 -22 -12 68.5316 21.8020   7
  13 -22 -12 109.603 23.7340   7
  22 -13 -12 86.2434 18.0072   7
   9 -22  12 23.9293 16.9287   6
  13 -22  12 50.0238 17.9356   6
  -9 -13 -12 58.9573 22.2331   8
   9 -22 -13 33.9965 17.1951   7
  13 -22 -13 51.8587 18.7991   7
  22 -13 -13 32.2975 15.7737   7
  13 -22  13-18.5662 14.4196   6
   9 -22  13 13.4349 15.6199   6
  -9 -13 -13 0.65953 18.0604   8
   9 -22 -14 2.49598 12.5613   7
  13 -22 -14 1.84121 13.4135   7
  22 -13 -14 12.1719 12.9776   7
   9 -22  14 17.3300 13.5512   6
  13 -22  14 7.61072 11.8166   6
  -9 -13 -14-3.25402 13.7398   8
  13 -22 -15 6.43729 9.03713   7
  13 -22  15-2.33380 9.36023   6
  22 -14   0 410.693 121.747   4
   8 -22   0 212.439 102.374   4
  -8 -14   0 332.542 33.1285  10
 -14  -8   0 324.632 34.7672  10
 -14  -8   0 357.245 32.5229   9
 -22   8   0 348.990 35.0422   9
  14 -22   0 410.546 126.750   4
   8 -22   0 370.585 30.6718   7
   8 -22  -1 61.8828 100.731   4
  -8 -14   1 119.789 30.0631  10
  -8 -14  -1 94.0543 29.3463  10
 -14  -8   1 97.2987 29.3274  10
  22 -14   1-6.86096 91.5535   4
 -14  -8  -1 85.2639 28.0556  10
 -14  -8   1 26.0514 24.7979   9
 -14  -8  -1 65.1294 27.4431   9
  22 -14  -1-18.0654 97.9734   4
 -22   8   1 109.144 30.0776   9
 -22   8  -1 89.8276 28.2685   9
  14 -22  -1 0.55965 83.3984   4
  14 -22   1 47.0566 82.3443   4
   8 -22   1 68.3299 24.2778   7
   8 -22  -1 56.6557 25.1867   7
  -8 -14   2 132.992 29.9709  10
 -14  -8   2 166.731 30.7926  10
  -8 -14  -2 162.212 29.6311  10
 -14  -8  -2 142.872 29.5760  10
 -14  -8   2 146.825 27.0241   9
 -14  -8  -2 156.554 29.6220   9
  22 -14   2 303.769 111.353   4
  22 -14  -2 211.612 112.531   4
 -22   8   2 170.724 30.6205   9
 -22   8  -2 133.811 30.1922   9
  14 -22   2 72.5560 90.7366   3
  14 -22  -2 139.298 111.776   4
   8 -22   2 127.977 23.5735   7
   8 -22  -2 158.633 27.2512   7
   8 -22  -2 274.194 113.765   4
  14 -22  -3 213.569 23.8446   7
 -14  -8  -3 240.547 31.1521   9
  -8 -14  -3 226.464 29.1946  10
 -14  -8  -3 260.646 31.5023  10
  22 -14  -3 291.803 119.155   4
 -22   8   3 94.7184 24.0695   9
 -22   8  -3 239.836 33.7310   9
 -14  -8   3 252.050 32.9801  10
  14 -22   3 239.186 101.198   3
  -8 -14  -3 245.643 31.8705   8
  14 -22  -3 78.0518 96.5457   4
  22 -14   3 302.539 104.597   4
   8 -22  -3 236.615 28.8916   7
   8 -22  -3 271.227 119.684   4
   8 -22  -4 217.877 117.717   4
  14 -22  -4 231.700 25.7682   7
  14 -22   4 350.618 34.4673   6
 -14  -8   4 256.087 32.8177  10
 -22   8  -4 280.546 35.3822   9
 -14  -8  -4 202.308 29.7439  10
 -14  -8  -4 271.408 32.5071   9
  22 -14  -4 310.128 133.277   4
  14 -22   4 352.420 124.020   3
  -8 -14  -4 281.552 33.0317   8
  -8 -14  -4 207.522 28.1509  10
  14 -22  -4 408.627 129.084   4
   8 -22  -4 308.538 30.9598   7
   8 -22  -5-14.8672 94.7675   4
   8 -22  -5 146.464 28.7684   7
  14 -22  -5 77.6505 23.6539   7
 -14  -8  -5 94.5854 28.5296  10
 -14  -8  -5 122.003 29.1802   9
  14 -22   5 91.4702 101.896   3
  22 -14  -5 96.3456 96.7485   4
 -22   8  -5 86.1408 30.7432   9
   8 -22   5-5.79107 22.0928   6
  -8 -14  -5 89.0664 30.7910   8
  -8 -14  -5 94.8727 24.9778  10
  14 -22   5 142.117 30.8156   6
  14 -22  -5 3.67543 97.2447   4
  14 -22  -6 139.859 26.4951   7
   8 -22   6 312.918 29.7781   6
  14 -22   6 81.8756 93.1769   3
  -8 -14  -6 130.414 24.5673  10
 -14  -8  -6 154.590 29.9966  10
  22 -14  -6 97.3131 90.0904   4
 -22   8  -6 139.633 31.2171   9
 -22  14  -6 165.130 32.2799   9
  -8 -14  -6 197.934 33.1948   8
  14 -22   6 198.932 31.4839   6
   8 -22  -6 262.276 31.6957   7
  14 -22  -6 205.371 107.999   4
   8 -22  -7 143.208 29.3623   7
  14 -22  -7 84.9879 26.0933   7
 -14  -8  -7 67.6080 27.6488  10
 -22   8  -7 78.7193 28.2382   9
   8 -22   7 130.439 25.9338   6
 -22  14  -7 83.0023 28.8484   9
  14 -22   7 102.327 29.9765   6
  -8 -14  -7 48.7718 30.4430   8
   8 -22  -8 58.5824 27.6873   7
  14 -22  -8 43.0553 26.3866   7
 -14  -8  -8 24.0561 25.3992  10
 -22   8  -8 11.2742 24.9432   9
   8 -22   8 37.0892 23.8431   6
  14 -22   8 33.5464 27.4489   6
  -8 -14  -8 75.8339 29.2802   8
   8 -22  -9 48.5843 26.0857   7
  14 -22  -9 18.5726 24.9281   7
 -14  -8  -9 19.7018 23.3838  10
   8 -22   9 25.8614 21.3794   6
  14 -22   9-8.33949 25.5782   6
  -8 -14  -9 37.7964 26.8745   8
   8 -22 -10 47.7396 25.4759   7
  14 -22 -10 48.2699 25.8698   7
  22 -14 -10 18.2705 18.1177   7
 -14  -8 -10 37.1015 22.1351  10
   8 -22  10 24.9422 18.4852   6
  14 -22  10-7.51658 24.6663   6
  -8 -14 -10-6.74928 26.2612   8
   8 -22 -11 22.3647 23.1019   7
  14 -22 -11 25.5278 24.4573   7
  22 -14 -11 23.5685 17.6862   7
 -14  -8 -11-9.54949 20.0992  10
   8 -22  11-9.30083 17.2938   6
  14 -22  11 16.9826 21.2871   6
  -8 -14 -11 20.7678 24.2892   8
   8 -22 -12 9.38871 19.1929   7
  14 -22 -12 9.47894 21.5365   7
  22 -14 -12 7.39515 16.3688   7
   8 -22  12 18.6205 16.1304   6
  14 -22  12-31.1018 17.1406   6
  -8 -14 -12 10.6988 21.1577   8
 -14  -8 -12 18.6163 17.3290  10
   8 -22 -13-4.65104 15.7281   7
  14 -22 -13 33.9200 17.5022   7
  22 -14 -13 16.4351 15.0676   7
  14 -22  13-14.0484 13.4060   6
   8 -22  13 11.5545 14.8518   6
  -8 -14 -13-18.0437 18.4623   8
  14 -22 -14-16.3390 13.6947   7
  22 -14 -14 8.01352 12.0903   7
   8 -22  14-9.11772 12.9072   6
  14 -22  14-0.04523 11.7323   6
  -8 -14 -14-8.55896 13.9253   8
   8 -22 -14 20.1575 12.0868   7
  -7 -15   0 101.474 28.3774  10
 -15  -7   0 58.6103 29.3206  10
  22 -15   0 156.093 100.278   4
 -22   7   0 81.7714 29.5440   9
 -15  -7   0 64.5425 26.6381   9
  15 -22   0-56.7733 86.3075   4
   7 -22   0 80.1128 25.9111   7
  -7 -15   1 294.342 33.3006  10
  -7 -15  -1 230.100 30.3835  10
 -15  -7   1 192.861 31.2764  10
 -15  -7  -1 183.500 31.3120  10
 -15  -7  -1 180.490 29.4182   9
  22 -15   1 148.885 102.052   4
  22 -15  -1 191.754 97.4278   4
 -15  -7   1 177.741 28.6580   9
 -22   7   1 202.135 31.3471   9
 -22   7  -1 199.149 31.3832   9
  15 -22  -1 158.174 96.2573   4
  15 -22   1 151.920 87.0841   4
  15 -22   1 391.855 106.640   3
   7 -22   1 202.167 27.0312   7
   7 -22  -1 179.501 27.2467   7
  -7 -15   2 92.1419 30.4222  10
  -7 -15  -2 115.181 27.3020  10
 -15  -7  -2 95.8062 29.4949  10
 -15  -7   2 84.7872 25.2624   9
 -15  -7  -2 80.6790 27.0988   9
  22 -15   2 150.733 97.8651   4
  22 -15  -2 163.680 107.136   4
 -15  -7   2 67.2019 28.2343  10
 -22   7   2 129.140 28.4163   9
 -22   7  -2 87.8131 28.8620   9
  15 -22   2 155.368 92.3538   3
  15 -22  -2 216.048 115.154   4
  -7 -15  -2 32.6928 21.5331   7
   7 -22   2 73.6410 23.3479   7
   7 -22  -2 84.8402 26.5969   7
 -15  -7  -3 119.782 29.5963  10
 -15  -7  -3 127.056 28.3970   9
  22 -15  -3 125.377 100.785   4
  -7 -15  -3 140.089 27.2122  10
 -22   7   3 98.4772 22.8003   9
 -22   7  -3 136.462 30.1808   9
  15 -22   3 170.049 97.0375   3
  -7 -15  -3 137.713 31.6390   8
  15 -22  -3 163.564 106.406   4
 -15  -7   3 134.096 29.2697  10
  -7 -15  -3 192.475 25.8841   7
   7 -22   3 118.390 22.4754   7
 -15  -7   3 175.671 24.4054   9
   7 -22  -3 171.053 28.3040   7
  15 -22  -4 55.5112 21.5969   7
 -15  -7   4 103.237 29.8080  10
  -7 -15  -4 93.0674 25.3656  10
 -15  -7  -4 66.7778 29.7399  10
 -15  -7  -4 66.4423 27.1461   9
  22 -15  -4 6.68008 88.8621   4
  15 -22   4 125.735 89.2851   3
  -7 -15  -4 61.7465 30.5393   8
 -22   7  -4 63.0138 29.3841   9
  15 -22   4 81.0427 28.4747   6
   7 -22  -4 90.4109 26.9870   7
   7 -22  -5 87.2374 27.2620   7
  15 -22  -5 85.0776 23.7538   7
  -7 -15  -5 101.500 23.3906  10
 -15  -7  -5 103.432 28.1359  10
  15 -22   5 4.30164 92.1084   3
  22 -15  -5 101.893 90.6278   4
 -22   7  -5 75.5351 28.2335   9
  -7 -15  -5 82.3761 30.6022   8
 -15  -7  -5 100.151 28.0796   9
  15 -22   5 146.948 30.6548   6
  15 -22  -5 54.7875 97.0798   4
   7 -22  -6 114.578 27.8157   7
  15 -22  -6 78.2751 23.4181   7
 -15  -7  -6 91.8398 29.0005  10
 -15  -7  -6 123.177 28.1653   9
 -22   7  -6 99.4739 28.4111   9
 -22  15  -6 51.5315 29.0669   9
  -7 -15  -6 109.906 29.4801   8
  15 -22   6 102.286 29.2760   6
   7 -22  -7 20.6852 26.6715   7
  15 -22  -7 23.3310 23.9609   7
 -15  -7  -7 29.7392 26.4508  10
 -22   7  -7 17.1270 26.1906   9
 -22  15  -7 22.9389 27.3537   9
  15 -22   7 35.6646 27.9534   6
  -7 -15  -7 49.0382 29.9901   8
   7 -22  -8 46.1222 26.6996   7
  15 -22  -8 50.9907 24.6655   7
 -15  -7  -8 33.3274 26.3653  10
 -22   7  -8 0.34435 24.1816   9
   7 -22   8 55.9143 21.9249   6
  15 -22   8 23.1160 26.2916   6
  -7 -15  -8 39.3372 28.6856   8
   7 -22  -9 5.92313 24.2119   7
  15 -22  -9 24.5395 23.2719   7
 -15  -7  -9 21.4166 23.4657  10
   7 -22   9 21.6097 19.0482   6
  15 -22   9 42.1846 25.7410   6
  -7 -15  -9 7.11247 26.1437   8
   7 -22 -10-4.99871 22.5953   7
  15 -22 -10-11.3982 23.5039   7
  22 -15 -10 22.8086 17.8180   7
 -15  -7 -10-2.44022 21.6897  10
   7 -22  10-1.89235 16.8831   6
  15 -22  10-11.3419 23.1829   6
  -7 -15 -10-14.7224 26.6200   8
   7 -22 -11 27.7057 21.0283   7
  15 -22 -11 14.6329 22.9087   7
  22 -15 -11 36.9553 17.4021   7
 -15  -7 -11-12.0470 19.3533  10
  15 -22  11 14.3991 20.1821   6
  -7 -15 -11 1.23048 24.1139   8
   7 -22  11 7.21975 15.8316   6
   7 -22 -12-10.3811 17.9783   7
  15 -22 -12-5.15108 19.8015   7
  22 -15 -12 11.1796 15.4870   7
 -15  -7 -12-0.67568 16.5942  10
   7 -22  12 8.86563 15.1035   6
  15 -22  12-9.26409 15.9286   6
  -7 -15 -12 12.2535 21.0206   8
  15 -22 -13 4.09664 16.1285   7
  22 -15 -13-14.4821 14.0905   7
  15 -22  13-2.30020 12.3254   6
   7 -22  13 2.83901 13.9524   6
  -7 -15 -13 2.07807 17.4320   8
   7 -22 -13-15.0664 14.6779   7
  15 -22 -14 14.7484 12.4600   7
  22 -15 -14 1.44435 11.7794   7
   7 -22  14 15.0182 12.4428   6
  15 -22  14-3.95974 10.6177   6
  -7 -15 -14 4.73401 13.8913   8
   7 -22 -14-6.84222 9.11114   7
  -6 -16   0 84.8480 26.7360  10
 -16  -6   0 70.3203 28.0365  10
 -16  -6   0 29.3237 23.9830   9
 -22   6   0 36.7202 25.9760   9
  16 -22   0 124.620 93.0678   4
   6 -22   0 85.3258 25.4799   7
  -6 -16   1 28.6506 27.7353  10
 -16  -6  -1 18.5779 26.3323  10
 -16  -6   1 10.9146 26.2930  10
 -16  -6   1 22.2586 23.2656   9
 -16  -6  -1 31.5702 24.8288   9
  22 -16   1-63.5216 91.4018   4
  22 -16  -1 146.361 90.3843   4
 -22   6   1 21.0725 25.1710   9
 -22   6  -1 13.8846 26.4075   9
  -6 -16  -1 25.9193 24.9629  10
  16 -22  -1-2.54740 84.6954   4
  16 -22   1 11.0729 79.4245   4
   6 -22   1 37.0024 24.2672   7
   6 -22  -1 43.9653 24.6800   7
  -6 -16  -2 128.307 28.2208  10
 -16  -6  -2 153.572 30.4478  10
 -16  -6   2 76.7769 24.7668   9
 -16  -6  -2 88.1710 27.7567   9
  22 -16   2 86.5803 68.9997   4
  22 -16  -2 142.782 93.9857   4
 -22   6   2 109.677 28.0552   9
 -22   6  -2 105.851 29.9301   9
  16 -22   2 130.252 81.4678   3
 -16  -6   2 97.8416 29.2102  10
  16 -22  -2 288.001 113.335   4
  -6 -16  -2 115.866 26.7861   7
   6 -22   2 123.527 25.2637   7
   6 -22  -2 98.8053 28.1592   7
  -6 -16  -3 72.8402 24.2039  10
 -16  -6  -3 82.4604 28.7498  10
 -16  -6   3-22.1665 21.0947   9
 -16  -6  -3 90.2383 28.3050   9
  22 -16  -3 161.418 104.765   4
 -22   6   3 30.6203 21.0053   9
 -22   6  -3 106.555 30.3387   9
  16 -22   3 67.9148 82.2907   3
 -16  -6   3 81.4521 28.2165  10
  -6 -16  -3 111.402 30.5163   8
  16 -22  -3 129.536 94.5427   4
   6 -22   3 88.3278 22.6813   7
  -6 -16  -3 110.116 24.7436   7
   6 -22  -3 110.464 27.1335   7
 -16  -6   4 62.4849 27.4008  10
  -6 -16  -4 59.2542 23.6798  10
 -22   6  -4 79.9627 30.3716   9
  -6 -16  -4 106.884 31.3295   8
  16 -22  -4 32.8487 90.9626   4
  16 -22   4 143.517 30.0481   6
  -6 -16  -4 70.2051 20.3698   7
 -16  -6  -4 69.7344 29.2136   9
 -16  -6  -4 77.5672 29.0443  10
   6 -22  -4 51.6602 25.9951   7
  16 -22  -5 56.8903 22.2413   7
 -16  -6  -5 142.539 30.2934  10
  16 -22   5 148.432 100.031   3
 -16  -6  -5 54.8405 28.1265   9
 -22   6  -5 44.5750 29.4839   9
  22 -16  -5-25.7091 95.0100   4
  -6 -16  -5 77.2128 31.3309   8
  16 -22   5 92.1582 29.9609   6
  16 -22  -5-20.1124 91.8256   4
   6 -22  -5 102.338 28.7453   7
   6 -22  -6 14.0691 25.1985   7
  16 -22  -6-10.4154 20.9854   7
 -16  -6  -6 44.7936 28.4034  10
 -16  -6  -6 18.3834 25.1414   9
 -22   6  -6-24.5319 27.3445   9
  -6 -16  -6 26.4700 27.8291   8
  16 -22   6 6.53858 27.4343   6
   6 -22  -7 180.334 29.8192   7
  16 -22  -7 152.717 25.8426   7
 -16  -6  -7 141.144 28.2234   9
  16 -22   7 211.872 31.3625   6
 -16  -6  -7 148.226 30.1295  10
 -22   6  -7 133.983 29.1441   9
 -22  16  -7 166.106 30.1599   9
  -6 -16  -7 172.935 32.8101   8
   6 -22  -8 33.2011 25.4879   7
  16 -22  -8 10.3473 22.2255   7
 -16  -6  -8 10.2062 26.5963  10
 -22   6  -8 19.0004 23.8082   9
   6 -22   8 2.90813 18.2482   6
  16 -22   8 5.14734 25.6813   6
  -6 -16  -8 11.7118 27.6974   8
   6 -22  -9 7.16832 23.3489   7
  16 -22  -9 12.1550 22.1939   7
 -16  -6  -9 22.0557 24.4826  10
   6 -22   9-10.4300 16.7784   6
  16 -22   9 20.4611 24.8845   6
  -6 -16  -9 4.85118 27.5690   8
   6 -22 -10 9.57275 21.9546   7
  16 -22 -10 26.6494 22.3550   7
  22 -16 -10 2.36992 16.6742   7
 -16  -6 -10-5.67503 22.2363  10
   6 -22  10-22.8762 16.4230   6
  16 -22  10 10.0885 22.3176   6
  -6 -16 -10-12.4277 25.6401   8
   6 -22 -11 16.6432 19.8598   7
  16 -22 -11 11.6476 21.2884   7
  22 -16 -11 1.14831 16.0951   7
   6 -22  11 3.60950 14.6787   6
  16 -22  11-12.4692 18.5604   6
  -6 -16 -11 12.8996 23.9703   8
 -16  -6 -11 1.87249 19.8725  10
  16 -22 -12 17.5209 19.0239   7
  22 -16 -12-6.14444 15.0353   7
 -16  -6 -12 3.59527 16.8173  10
  16 -22  12 0.23932 14.6921   6
  -6 -16 -12 8.88516 20.5497   8
   6 -22  12-19.1393 14.5756   6
   6 -22 -12 2.23337 16.4768   7
  16 -22 -13-0.50186 15.1918   7
  22 -16 -13 3.32173 13.4146   7
 -16  -6 -13-22.6089 14.0675  10
   6 -22  13 5.53233 12.7178   6
  16 -22  13-5.44566 11.5428   6
  -6 -16 -13-6.13071 16.8691   8
   6 -22 -13-0.00784 13.7028   7
  16 -22 -14-11.6670 11.4080   7
  22 -16 -14 4.96212 11.2732   7
  16 -22  14-3.74825 9.66271   6
   6 -22  14 4.97178 11.3778   6
  -6 -16 -14-1.99577 12.8326   8
   6 -22 -14-11.4918 9.88620   7
  -5 -17   0 429.254 33.3300  10
 -17  -5   0 474.677 37.2518  10
 -17  -5   0 501.706 34.8617   9
 -22   5   0 513.528 36.3857   9
  22 -17   0 519.206 122.781   4
  17 -22   0 530.305 126.164   4
   5 -22   0 540.547 34.4035   7
  22 -17   1 707.668 135.910   4
  -5 -17  -1 537.338 34.8111  10
 -17  -5   1 581.428 39.6119  10
 -17  -5  -1 643.411 40.7623  10
 -17  -5   1 682.065 37.9866   9
 -17  -5  -1 703.689 38.4482   9
 -22   5   1 590.496 37.8485   9
 -22   5  -1 596.264 38.9315   9
  22 -17  -1 680.461 139.719   4
  17 -22  -1 685.218 150.833   4
  -5 -17  -1 610.161 37.3168   7
   5 -22   1 674.074 36.2414   7
   5 -22  -1 748.753 38.7310   7
  22 -17   2 990.288 155.227   4
  -5 -17  -2 631.185 35.9165  10
 -17  -5  -2 674.515 41.7242  10
 -17  -5   2 734.055 38.3254   9
 -17  -5  -2 707.540 39.9120   9
 -22   5   2 601.476 38.3447   9
 -22   5  -2 668.489 40.2793   9
  22 -17  -2 555.148 137.150   4
 -17  -5   2 647.296 40.5081  10
  17 -22   2 552.202 116.160   3
  17 -22  -2 479.875 126.328   4
  -5 -17  -2 734.085 39.0864   7
   5 -22   2 702.352 36.3392   7
   5 -22  -2 777.981 40.4433   7
  -5 -17  -3 326.888 28.2948  10
 -17  -5   3 411.646 36.4879  10
 -17  -5  -3 356.024 34.8133  10
 -17  -5   3 220.567 23.9365   9
 -17  -5  -3 428.254 35.4551   9
 -22   5   3 246.394 26.0699   9
 -22   5  -3 361.281 34.5813   9
  17 -22   3 391.742 110.432   3
  22 -17  -3 376.217 116.651   4
  -5 -17  -3 345.529 33.6605   8
  17 -22  -3 532.392 134.740   4
  -5 -17  -3 317.189 30.5450   7
   5 -22  -3 345.196 32.8598   7
 -17  -5   4 280.665 29.9038  10
  17 -22   4 499.668 37.2319   6
 -17  -5  -4 450.358 36.5019  10
 -17  -5  -4 475.447 37.1500   9
 -22   5  -4 477.616 36.6693   9
  17 -22   4 562.708 123.276   3
  22 -17  -4 316.707 114.963   4
   5 -22  -4 386.003 28.0177   8
  -5 -17  -4 479.508 36.8447   8
  17 -22  -4 317.786 117.380   4
  -5 -17  -4 448.973 32.2405   7
   5 -22  -4 435.970 34.2318   7
  17 -22   5 581.563 38.0622   6
 -17  -5  -5 584.370 39.1809  10
 -17  -5  -5 599.722 38.8503   9
 -22   5  -5 622.723 39.5653   9
   5 -22  -5 540.959 31.6792   8
  -5 -17  -5 614.788 39.1514   8
   5 -22  -5 595.329 36.6604   7
  17 -22   6 366.352 33.6754   6
 -17  -5  -6 290.661 32.8540  10
 -17  -5  -6 355.064 33.2155   9
 -22   5  -6 338.030 33.2985   9
   5 -22  -6 302.568 26.2362   8
  -5 -17  -6 303.556 32.9346   8
   5 -22  -6 288.321 31.5939   7
  17 -22  -6 292.151 25.4914   7
  17 -22  -7 107.447 24.2220   7
 -17  -5  -7 133.945 31.5915  10
 -17  -5  -7 106.951 28.0560   9
 -22   5  -7 100.565 28.5391   9
   5 -22  -7 107.139 22.7209   8
  -5 -17  -7 137.889 32.7106   8
  17 -22   7 162.342 30.0769   6
   5 -22  -7 162.518 29.6548   7
  17 -22  -8 67.4755 22.5944   7
 -17  -5  -8 60.8703 27.7292  10
 -22   5  -8 58.5990 24.6261   9
  17 -22   8 70.2093 26.4747   6
   5 -22  -8 87.0717 21.4559   8
  -5 -17  -8 53.1007 27.6422   8
   5 -22  -8 69.4056 25.8755   7
  17 -22  -9 97.2100 23.3622   7
  17 -22   9 84.8669 24.6628   6
   5 -22  -9 92.1720 20.7955   8
  -5 -17  -9 89.5572 29.4291   8
 -17  -5  -9 110.174 27.3562  10
   5 -22  -9 112.596 25.1080   7
  17 -22 -10 55.7077 21.9163   7
  22 -17 -10 65.3705 17.8069   7
 -17  -5 -10 42.6682 23.7475  10
  17 -22  10 46.7746 21.8855   6
   5 -22 -10 53.0378 18.7613   8
  -5 -17 -10 40.4308 26.1466   8
   5 -22 -10 66.2096 22.7258   7
  17 -22 -11-8.29295 19.4514   7
  22 -17 -11 0.00921 15.7760   7
 -17  -5 -11 2.68131 20.0357  10
   5 -22  11-14.1862 14.2647   6
  17 -22  11 16.9585 17.3980   6
   5 -22 -11 4.97688 15.5944   8
  -5 -17 -11-30.1102 24.4709   8
   5 -22 -11 6.46194 18.6251   7
  17 -22 -12 4.98390 17.1240   7
  22 -17 -12 18.6434 14.7329   7
 -17  -5 -12-26.1269 17.5071  10
  17 -22  12 17.0356 13.1466   6
   5 -22  12-25.4035 12.2690   6
  -5 -17 -12 1.43500 19.7996   8
   5 -22 -12 3.69405 13.7364   8
   5 -22 -12 1.77494 15.2483   7
  17 -22 -13-14.0436 14.2875   7
  22 -17 -13-3.05790 12.8841   7
  17 -22  13 0.14003 10.5542   6
  -5 -17 -13-0.46170 16.3019   8
   5 -22  13 2.81736 12.2608   6
 -17  -5 -13 9.68677 14.0728  10
   5 -22 -13 3.83148 11.4392   7
  17 -22 -14 17.2247 10.8288   7
  22 -17 -14 2.83020 9.77918   7
  17 -22  14-7.69088 8.39462   6
  -5 -17 -14-0.60664 12.5196   8
 -18  -4   0 123.711 26.4812   9
 -22   4   0 117.420 27.4616   9
  22 -18   0-29.5194 82.7301   4
 -18  -4   0 103.256 28.9598  10
  18 -22   0 8.64124 57.7657   4
   4 -22   0 47.2524 26.5198   7
 -18  -4   1 106.740 29.8803  10
 -18  -4  -1 127.578 31.0501  10
 -18  -4   1 136.102 27.1390   9
 -18  -4  -1 126.899 28.4288   9
 -22   4   1 152.580 29.5566   9
 -22   4  -1 122.611 28.5920   9
  22 -18   1 14.2953 60.6506   4
  22 -18  -1 165.955 100.863   4
  18 -22  -1 203.424 104.487   4
  -4 -18  -1 153.512 30.8748   7
   4 -22   1 166.578 28.3224   7
   4 -22  -1 129.470 29.8526   7
  -4 -18  -2 196.611 26.8440  10
 -18  -4   2 203.285 31.4779  10
 -18  -4  -2 221.161 33.3685  10
 -22   4  -2 295.659 33.5330   9
 -18  -4   2 196.507 27.7759   9
 -18  -4  -2 253.632 32.3221   9
 -22   4   2 211.465 29.1608   9
  22 -18  -2 345.556 108.905   4
  18 -22  -2 148.123 93.4844   4
   4 -22   2 225.230 28.2453   7
  -4 -18  -2 207.507 30.5982   7
   4 -22  -2 273.284 32.9796   7
 -18  -4   3 58.7190 23.7747  10
 -18  -4  -3 67.4146 28.7000  10
 -18  -4   3 52.9080 20.1374   9
 -18  -4  -3 120.574 28.8944   9
  18 -22   3 147.371 75.1472   3
 -22   4   3 11.3917 21.6252   9
 -22   4  -3 87.4941 28.4045   9
  22 -18  -3 214.436 95.2121   4
  -4 -18  -3 84.0801 28.4051   8
  18 -22  -3 81.6672 82.1878   4
  -4 -18  -3 113.741 26.9633   7
   4 -22  -3 81.5486 28.4228   7
 -18  -4  -4 80.1032 29.2797  10
 -18  -4  -4 132.085 29.1655   9
 -22   4  -4 105.730 28.9746   9
  22 -18  -4 230.196 107.477   4
   4 -22  -4 98.2992 22.4773   8
  -4 -18  -4 68.0270 28.8532   8
  18 -22  -4-11.5115 86.4009   4
  22 -18   4 103.066 23.3479   6
  18 -22   4 110.785 30.4610   6
  -4 -18  -4 94.2525 26.4350   7
   4 -22  -4 79.1371 27.5852   7
 -18  -4  -5 173.692 32.4700  10
 -18  -4  -5 174.074 30.4741   9
 -22   4  -5 196.810 31.5349   9
   4 -22  -5 156.261 25.2331   8
  -4 -18  -5 146.747 30.9331   8
  22 -18   5 156.138 23.6309   6
  18 -22   5 180.129 30.0926   6
  -4 -18  -5 181.368 27.3150   7
   4 -22  -5 176.965 30.1426   7
 -18  -4  -6 86.2717 30.4007  10
 -18  -4  -6 68.8720 28.0834   9
 -22   4  -6 41.6373 27.7819   9
   4 -22  -6 49.7838 21.7399   8
  -4 -18  -6 89.3303 29.6322   8
  18 -22   6 86.9467 29.2245   6
  -4 -18  -6 19.8428 20.9830   7
   4 -22  -6 60.3291 26.8602   7
  18 -22  -7 47.4089 21.0114   7
 -18  -4  -7 77.2880 30.4489  10
 -18  -4  -7 47.0626 26.6943   9
 -22   4  -7 69.7535 27.7964   9
   4 -22  -7 36.8988 22.2378   8
  18 -22   7 94.9183 28.1757   6
  -4 -18  -7 78.6929 30.0369   8
  -4 -18  -7 62.0873 22.3251   7
   4 -22  -7 70.4530 27.0135   7
  18 -22  -8 21.7030 21.2743   7
 -18  -4  -8 17.6359 28.1334  10
 -18  -4  -8 13.4481 23.1476   9
 -22   4  -8 26.7300 24.0368   9
  18 -22   8 21.7154 24.9689   6
   4 -22  -8 16.9680 20.7834   8
  -4 -18  -8 22.6405 28.7282   8
   4 -22  -8 18.9547 24.3075   7
  18 -22  -9 39.5250 21.0800   7
 -18  -4  -9 41.8923 26.4699  10
  18 -22   9 21.8011 23.0028   6
   4 -22  -9 28.7792 20.3270   8
  -4 -18  -9 39.6910 27.9035   8
   4 -22  -9 27.8932 22.8266   7
  18 -22 -10 25.7959 19.9562   7
  22 -18 -10 15.2951 16.4762   7
 -18  -4 -10 28.5910 24.0566  10
  18 -22  10 22.2787 20.3358   6
   4 -22 -10 39.4397 19.4493   8
  -4 -18 -10 17.4709 26.9263   8
   4 -22 -10 32.4782 21.3701   7
  18 -22 -11-10.9565 18.7410   7
  22 -18 -11 15.4314 15.8923   7
 -18  -4 -11-4.00327 21.0517  10
  18 -22  11 13.1695 15.7769   6
   4 -22 -11 21.1429 16.2545   8
  -4 -18 -11 3.11721 22.4861   8
   4 -22 -11 6.91000 17.6497   7
  18 -22 -12 13.2369 16.2520   7
  22 -18 -12 2.61024 13.6924   7
 -18  -4 -12 2.67743 16.9871  10
  18 -22  12-1.72724 11.9495   6
   4 -22 -12 3.38753 14.0269   8
  -4 -18 -12 13.8317 19.3199   8
   4 -22 -12 1.16611 14.3887   7
  18 -22 -13 13.9806 13.2894   7
  22 -18 -13 15.7440 12.1185   7
 -18  -4 -13 26.1151 14.4278  10
  18 -22  13-4.19841 9.69664   6
   4 -22 -13 7.85949 10.8876   8
  -4 -18 -13 4.61105 15.6551   8
   4 -22 -13-7.42332 11.5795   7
  18 -22 -14 2.78812 9.25643   7
 -22   4 -14 16.5831 12.6584  10
  -4 -18 -14 6.34647 11.2567   8
 -19  -3   0 849.628 45.8629  10
 -19  -3   0 988.319 45.5620   9
 -22   3   0 996.768 46.3676   9
  22 -19   0 772.376 145.954   4
  19 -22   0 931.179 153.998   4
  -3 -19   0 962.409 45.2972   7
   3 -22   0 1056.07 44.7892   7
 -19  -3   1 1009.58 47.7331  10
 -19  -3  -1 984.183 47.9090  10
 -19  -3   1 1065.56 47.1365   9
 -22   3   1 1204.80 48.7414   9
 -22   3  -1 1136.84 47.4210   9
  19 -22  -1 1001.22 171.266   4
  22 -19  -1 1043.73 163.408   4
  22 -19   1 901.255 151.109   4
 -19  -3  -1 1176.03 47.6644   9
  -3 -19  -1 1221.66 48.2156   7
   3 -22   1 1126.79 45.5177   7
   3 -22  -1 1261.66 48.8636   7
 -19  -3   2 455.066 34.8986  10
 -19  -3  -2 770.347 43.6732  10
 -22   3  -2 474.740 34.4216  10
 -19  -3   2 812.001 41.3159   9
 -19  -3  -2 899.383 45.0153   9
 -22   3   2 857.310 43.1963   9
 -22   3  -2 901.304 44.2467   9
  22 -19  -2 663.432 142.492   4
  19 -22  -2 595.442 139.181   4
   3 -22   2 835.238 40.1392   7
  -3 -19  -2 974.123 44.1593   7
   3 -22  -2 937.261 45.6666   7
 -19  -3  -3 416.278 37.3764  10
 -22   3  -3 342.385 33.3271  10
 -19  -3  -3 521.647 38.7833   9
 -22   3   3 321.863 30.3087   9
 -22   3  -3 526.202 38.4404   9
 -19  -3   3 201.835 24.6994   9
  22 -19  -3 418.710 135.794   4
  19 -22  -3 457.202 124.109   4
  -3 -19  -3 447.970 35.1268   7
   3 -22  -3 449.637 37.0691   7
  22 -19   4 398.165 30.0771   6
  19 -22   4 523.217 36.8692   6
 -19  -3  -4 457.344 38.2278  10
 -19  -3  -4 461.655 37.1612   9
 -22   3  -4 505.204 37.6714   9
   3 -22  -4 430.334 31.8102   8
  -3 -19  -4 454.097 36.6694   8
  -3 -19  -4 486.516 34.8416   7
   3 -22  -4 486.074 36.3305   7
  22 -19   5 359.618 27.4314   6
  19 -22   5 454.824 34.6071   6
 -19  -3  -5 387.811 36.5720  10
 -19  -3  -5 425.389 36.0461   9
 -22   3  -5 406.866 36.9607   9
   3 -22  -5 335.469 29.3542   8
  -3 -19  -5 394.422 34.9792   8
  -3 -19  -5 342.185 31.7681   7
   3 -22  -5 386.635 34.0855   7
  22 -19   6 282.395 26.2783   6
  19 -22   6 356.446 33.4314   6
 -19  -3  -6 296.564 35.5494  10
 -19  -3  -6 292.872 34.2328   9
 -22   3  -6 348.264 35.1646   9
   3 -22  -6 270.131 28.2023   8
  -3 -19  -6 339.341 34.9497   8
  -3 -19  -6 285.205 29.5511   7
   3 -22  -6 267.045 32.8585   7
  19 -22  -7 20.4671 19.9947   7
 -19  -3  -7 78.7949 32.1472  10
 -22   3  -7 62.0542 28.7262   9
 -19  -3  -7 65.5350 27.7611   9
  22 -19   7 78.3603 20.6410   6
   3 -22  -7 64.8627 24.2263   8
  -3 -19  -7 21.8846 29.3023   8
  19 -22   7 71.2710 27.1353   6
  -3 -19  -7 88.1831 23.6926   7
   3 -22  -7 76.7408 27.4032   7
 -19  -3  -8 231.258 33.3411  10
 -19  -3  -8 179.955 27.8732   9
 -22   3  -8 187.079 28.0447   9
  -3 -19  -8 168.558 31.5927   8
  22 -19   8 188.268 20.9628   6
  19 -22   8 190.622 27.1008   6
   3 -22  -8 196.289 25.6049   8
  19 -22  -8 202.873 23.5171   7
  -3 -19  -8 133.891 22.7345   7
   3 -22  -8 216.501 28.1238   7
  19 -22  -9 89.0443 20.5936   7
 -19  -3  -9 111.073 28.7453  10
  19 -22   9 127.283 23.2168   6
   3 -22  -9 73.3709 21.8930   8
  -3 -19  -9 75.2711 27.6651   8
   3 -22  -9 98.7887 23.7646   7
  19 -22 -10 33.5645 19.2495   7
  22 -19 -10 60.5430 17.6671   7
 -19  -3 -10 16.1787 24.5234  10
  19 -22  10 7.18648 19.0002   6
   3 -22 -10 51.3366 20.0974   8
  -3 -19 -10 57.5176 26.2342   8
   3 -22 -10 38.4911 20.4589   7
  19 -22 -11 28.8343 16.9104   7
  22 -19 -11 33.2067 15.3803   7
 -19  -3 -11 0.44316 21.0237  10
  19 -22  11-6.50394 14.5961   6
   3 -22 -11 6.68722 16.5841   8
  -3 -19 -11 13.4239 21.5751   8
   3 -22 -11-8.71520 17.0853   7
  19 -22 -12 20.4193 14.8886   7
  22 -19 -12 8.49511 13.5160   7
 -19  -3 -12 8.84600 17.2065  10
  19 -22  12-5.28744 10.6169   6
   3 -22 -12-9.56174 14.0119   8
  -3 -19 -12-3.43542 18.0055   8
   3 -22 -12-37.6277 13.2133   7
  19 -22 -13-6.57822 11.7062   7
  22 -19 -13 5.77720 11.4346   7
 -22   3 -13-4.49626 15.4494  10
  19 -22  13-7.18702 8.64923   6
 -19  -3 -13-6.26578 14.0537  10
   3 -22 -13-8.87296 11.6197   8
  -3 -19 -13 0.31018 14.2879   8
  -3 -19 -14-5.28050 10.2880   8
 -20  -2   0 502.541 40.5248  10
 -20  -2   0 570.683 39.6334   9
 -22   2   0 544.577 40.5001   9
  22 -20   0 209.844 108.797   4
  20 -22   0 376.693 117.812   4
  -2 -20   0 662.419 43.1341   7
   2 -22   0 756.835 42.6565   7
 -20  -2  -1 266.196 37.6581  10
 -20  -2   1 61.4304 29.6517  10
 -20  -2   1 305.888 34.8128   9
 -20  -2  -1 293.533 35.3678   9
 -22   2  -1 314.396 35.8023   9
 -22   2   1 215.568 34.1223   9
   2 -22   1 461.840 37.0784   7
  -2 -20  -1 362.645 36.7695   7
   2 -22  -1 401.415 37.9917   7
 -22   2  -2 244.980 32.0714  10
 -22   2   2 111.158 29.6621   9
 -20  -2  -2 175.776 34.7216  10
 -20  -2   2 176.030 30.3334   9
 -20  -2  -2 244.856 34.2728   9
 -22   2  -2 136.035 32.2564   9
  -2 -20  -2 284.600 35.0877   7
   2 -22  -2 221.289 36.5036   7
 -20  -2  -3 200.518 34.6993  10
 -22   2  -3 172.520 32.1468  10
 -20  -2  -3 277.496 35.1046   9
 -20  -2   3 23.1240 23.5923   9
 -22   2   3 196.305 30.1116   9
 -22   2  -3 87.4674 32.9067   9
  -2 -20  -3 240.562 34.0653   7
   2 -22  -3 318.740 37.2708   7
 -20  -2  -4 166.072 33.3866  10
 -22   2  -4 124.178 30.8080  10
 -20  -2  -4 137.442 31.7214   9
 -22   2  -4 161.067 32.3930   9
  -2 -20  -4 143.024 31.1673   8
  22 -20   4 131.507 27.4241   6
  20 -22   4 183.068 31.3966   6
  -2 -20  -4 174.411 31.0409   7
   2 -22  -4 169.844 32.1532   7
 -20  -2  -5 97.2604 31.8972  10
 -22   2  -5 76.6759 29.8887  10
 -20  -2  -5 65.0762 29.9312   9
 -22   2  -5 55.4646 29.7867   9
   2 -22  -5 85.7252 26.0617   8
  -2 -20  -5 118.800 28.8743   8
  22 -20   5 95.6714 24.7417   6
  20 -22   5 93.2675 28.9930   6
  -2 -20  -5 103.880 28.0326   7
   2 -22  -5 75.5919 29.6886   7
   2 -22  -6 138.375 27.2564   8
 -20  -2  -6 119.819 32.9603  10
 -20  -2  -6 88.5853 31.0320   9
 -22   2  -6 100.942 32.0535   9
  22 -20   6 120.107 24.1953   6
  20 -22   6 171.508 30.4958   6
  -2 -20  -6 127.968 30.8471   8
  -2 -20  -6 121.404 27.8000   7
   2 -22  -6 179.328 32.5713   7
 -20  -2  -7 168.704 33.4302  10
 -20  -2  -7 114.610 28.4458   9
 -22   2  -7 129.599 29.2448   9
  22 -20   7 151.196 22.1585   6
   2 -22  -7 166.337 26.7294   8
  -2 -20  -7 185.571 31.0097   8
  20 -22   7 157.010 26.8706   6
  -2 -20  -7 115.502 25.8848   7
   2 -22  -7 140.270 28.4337   7
  20 -22  -8 84.8481 20.3312   7
 -20  -2  -8 94.4148 31.6995  10
 -20  -2  -8 12.4650 23.8566   9
 -22   2  -8 15.9231 24.2282   9
  22 -20   8 36.6413 19.2780   6
  20 -22   8 60.2542 23.4218   6
   2 -22  -8 72.6037 23.9456   8
  -2 -20  -8 100.564 28.8765   8
  -2 -20  -8 73.9014 22.2025   7
   2 -22  -8 66.4958 25.0589   7
  20 -22  -9 60.6549 19.0718   7
 -20  -2  -9 67.1636 28.7377  10
  22 -20   9 2.39990 15.8686   6
  20 -22   9 27.5101 19.7843   6
  -2 -20  -9 31.3955 25.8835   8
   2 -22  -9 29.7110 21.5004   8
  -2 -20  -9 22.1859 18.6460   7
   2 -22  -9 22.3087 21.7555   7
  20 -22 -10 8.32324 16.6137   7
  22 -20 -10 37.0514 16.2867   7
 -20  -2 -10 42.5009 25.3677  10
  20 -22  10 37.3716 17.3107   6
   2 -22 -10 21.5299 19.3873   8
  -2 -20 -10 43.1526 23.4915   8
   2 -22 -10 35.2816 19.2635   7
  20 -22 -11 6.75139 15.1151   7
  22 -20 -11 9.63048 14.4350   7
 -20  -2 -11 1.96988 20.9109  10
  20 -22  11 35.7064 13.0616   6
   2 -22 -11 16.3315 16.6806   8
  -2 -20 -11 21.5601 20.0291   8
   2 -22 -11 18.8298 15.3354   7
  20 -22 -12 1.56974 13.1570   7
  22 -20 -12 7.33627 12.1939   7
 -20  -2 -12-1.67879 16.6250  10
 -22   2 -12-7.14777 17.8070  10
  20 -22  12-0.87723 9.15374   6
   2 -22 -12 11.6952 14.0477   8
  -2 -20 -12 14.3089 16.3613   8
  20 -22 -13 5.45119 10.3262   7
  22 -20 -13-4.38906 9.66522   7
 -20  -2 -13-17.2609 13.0921  10
 -22   2 -13 0.23384 14.0173  10
  20 -22  13 1.22290 7.35069   6
   2 -22 -13 11.1172 10.5934   8
  -2 -20 -13 4.46753 12.6165   8
 -21  -1   0 181.900 33.1803  10
 -21  -1   0 71.8054 30.9361   9
 -22   1   0 51.6706 29.9453   9
  -1 -21   0 66.1691 32.5208   7
   1 -22   0 91.7345 32.0097   7
 -22   1  -1 38.9918 24.2628  10
 -21  -1   1 79.8244 30.0254   9
 -21  -1  -1 106.755 31.4064   9
 -22   1   1 52.2882 29.5770   9
 -22   1  -1 76.2919 31.3735   9
 -21  -1  -1 84.9388 31.8305  10
   1 -22   1 80.9751 31.6131   7
  -1 -21  -1 79.4368 32.6877   7
   1 -22  -1 73.6588 31.2998   7
 -21  -1  -2-1.52640 28.7979  10
 -22   1  -2 41.3556 27.3466  10
 -22   1  -2 45.5781 29.8653   9
 -21  -1   2 13.6928 25.9455   9
 -21  -1  -2 34.2355 29.5904   9
 -22   1   2 41.1251 27.3688   9
  -1 -21  -2 45.7263 30.0217   7
   1 -22  -2 76.4593 30.9133   7
 -21  -1  -3 71.8654 32.0891  10
 -22   1  -3 94.8898 29.9091  10
 -21  -1   3-43.3523 23.9985   9
 -21  -1  -3 62.5178 31.9511   9
 -22   1   3-15.6711 22.5954   9
 -22   1  -3 93.1053 32.8157   9
  -1 -21  -3 89.5532 30.5821   7
   1 -22  -3 90.6544 31.8366   7
 -21  -1  -4 44.9247 29.5596  10
 -22   1  -4 81.5768 28.9137  10
 -21  -1  -4 53.0969 30.0009   9
 -22   1  -4 67.6909 30.5440   9
  22 -21   4 37.4444 25.5322   6
  21 -22   4 33.2727 27.6997   6
  -1 -21  -4 86.4006 29.4080   7
   1 -22  -4 86.4621 29.9925   7
 -21  -1  -5 20.0447 29.5944  10
 -22   1  -5-9.93203 28.7465  10
 -21  -1  -5 16.3414 28.6100   9
 -22   1  -5 45.3481 29.0408   9
   1 -22  -5 34.2129 24.6514   8
  -1 -21  -5 7.75239 27.6312   8
  22 -21   5 25.1224 23.9435   6
  21 -22   5 33.3758 25.9717   6
  -1 -21  -5 26.5822 26.4750   7
   1 -22  -5 39.1705 27.8754   7
 -21  -1  -6 83.4511 30.3336   9
 -21  -1  -6 72.6659 32.2766  10
 -22   1  -6 45.0761 29.1576   9
 -22   1  -6 82.8568 31.8423  10
   1 -22  -6 68.5635 26.1381   8
  -1 -21  -6 93.8751 29.7049   8
  22 -21   6 71.1125 24.1793   6
  21 -22   6 35.7352 25.8612   6
  -1 -21  -6 68.6287 27.4826   7
   1 -22  -6 105.379 29.2384   7
 -21  -1  -7 40.5290 29.9205  10
 -22   1  -7 22.6855 29.8061  10
 -21  -1  -7 2.45956 26.2422   9
 -22   1  -7 9.25845 25.9184   9
   1 -22  -7 59.2143 25.0271   8
  -1 -21  -7 7.01862 26.7021   8
  21 -22   7 22.0573 23.3012   6
  22 -21   7 31.1457 21.4431   6
  -1 -21  -7 41.9898 23.6456   7
   1 -22  -7 40.8820 26.0751   7
 -22   1  -8 5.20447 23.3506   9
 -21  -1  -8 35.5990 29.3225  10
 -22   1  -8 27.5668 28.3567  10
 -21  -1  -8 13.2851 23.2344   9
  22 -21   8-7.16109 18.7609   6
  21 -22   8 21.4779 20.8924   6
   1 -22  -8 31.1534 23.4268   8
  -1 -21  -8 32.0202 25.6154   8
  -1 -21  -8 25.5392 21.2328   7
   1 -22  -8 14.3638 22.7227   7
  21 -22  -9 17.2255 16.5402   7
 -21  -1  -9 14.9454 27.5814  10
 -22   1  -9 4.16002 26.9713  10
  22 -21   9-17.7124 16.4169   6
  21 -22   9 0.98429 17.5654   6
   1 -22  -9 12.3340 21.1629   8
  -1 -21  -9 8.53091 23.3014   8
  -1 -21  -9-5.40542 17.3449   7
   1 -22  -9-19.1513 19.6888   7
  21 -22 -10 12.4123 15.2555   7
  22 -21 -10 17.3643 14.7395   7
 -21  -1 -10 10.7177 23.8395  10
 -22   1 -10 23.7721 24.1962  10
  22 -21  10-15.1055 12.9901   6
  21 -22  10-3.71606 14.7647   6
   1 -22 -10-17.9930 19.1447   8
  -1 -21 -10 14.8290 20.9443   8
   1 -22 -10 8.20862 16.5823   7
  21 -22 -11 13.0610 13.4999   7
  22 -21 -11 22.1721 13.0756   7
 -21  -1 -11-1.83072 20.2203  10
 -22   1 -11 10.4901 20.5776  10
  21 -22  11 2.29153 10.7057   6
   1 -22 -11-16.9876 16.4159   8
  -1 -21 -11-7.80204 17.6113   8
   1 -22 -11-39.9512 13.9123   7
  21 -22 -12 6.76126 11.4148   7
  22 -21 -12-13.0153 10.9426   7
 -21  -1 -12 0.19283 15.6603  10
 -22   1 -12 5.87976 16.3964  10
  21 -22  12 0.86796 7.90912   6
   1 -22 -12-0.60499 12.8904   8
  -1 -21 -12 0.22227 14.4618   8
 -21  -1 -13 0.86293 11.6353  10
 -22   1 -13-4.11924 12.6642  10
  -1 -21 -13 16.6127 11.4548   8
 -22   0   0 1280.48 51.7397  10
 -22   0   0 1408.87 54.1020   9
   0 -22   0 1437.16 53.8215   7
 -22   0  -1 1416.10 52.9143  10
 -22   0   1 1502.37 55.0607   9
 -22   0  -1 1606.80 56.5489   9
   0 -22  -1 1605.29 54.7212   7
 -22   0  -2 980.362 47.3240  10
 -22   0   2 1028.70 46.5353   9
 -22   0  -2 1083.52 49.6263   9
   0 -22  -2 1067.95 46.7236   7
 -22   0  -3 1551.81 56.1892   9
   0 -22  -3 1545.62 53.5753   7
  22 -22   4 930.457 39.9210   6
 -22   0  -4 872.349 45.5183   9
   0 -22  -4 858.794 42.9800   7
  22 -22   5 471.623 31.5579   6
 -22   0  -5 461.858 37.8996  10
 -22   0  -5 506.206 38.5988   9
   0 -22  -5 440.261 35.4543   7
  22 -22   6 643.129 32.7397   6
 -22   0  -6 575.258 40.4357  10
 -22   0  -6 674.315 40.7341   9
   0 -22  -6 671.673 38.0747   8
   0 -22  -6 598.835 36.5451   7
  22 -22   7 575.470 29.2048   6
 -22   0  -7 555.244 38.5710  10
 -22   0  -7 610.531 36.8895   9
   0 -22  -7 553.114 34.2477   8
   0 -22  -7 511.208 32.3541   7
 -22   0  -8 288.009 32.3565  10
 -22   0  -8 246.746 27.7850   9
  22 -22   8 199.168 21.1625   6
   0 -22  -8 277.780 27.5802   8
   0 -22  -8 213.730 24.4109   7
 -22   0  -9 62.2524 26.4288  10
  22 -22   9 84.6545 16.9078   6
   0 -22  -9 64.4607 21.5958   8
   0 -22  -9 118.946 19.8970   7
 -22   0 -10 83.7639 23.3352  10
  22 -22  10 72.9348 13.3889   6
   0 -22 -10 88.5886 19.8117   8
  22 -22 -11 46.3978 12.3823   7
 -22   0 -11 70.9640 19.8688  10
  22 -22  11 26.8331 9.19331   6
   0 -22 -11 40.7620 16.1549   8
  22 -22 -12 0.01021 9.37847   7
 -22   0 -12 17.3541 15.0146  10
   0 -22 -12-0.47229 12.6520   8
 -11 -12   0 459.621 38.4362  10
 -12 -11   0 451.908 40.1782  10
 -23  11   0 478.422 41.0708   9
 -23  12   0 393.092 39.2845   9
  12 -23   0 328.300 107.401   4
  11 -23   0 299.614 108.913   4
 -11 -12   1 258.602 38.6023  10
 -12 -11   1 384.937 38.9974  10
 -11 -12  -1 386.599 38.8111  10
 -12 -11  -1 253.133 37.7015  10
 -23  11   1 304.889 39.1782   9
 -23  11  -1 377.620 40.7016   9
 -23  12  -1 294.713 40.4718   9
 -23  12   1 200.215 36.9805   9
  12 -23  -1 182.731 111.850   4
  11 -23  -1 22.0443 98.8871   4
  11 -23  -1 159.329 27.4878   7
 -11 -12  -2 311.058 35.1174  10
  11 -23   2 428.509 35.4373   6
 -12 -11   2 220.034 36.1868  10
 -23  11  -2 319.662 40.3608   9
 -23  12  -2 308.595 38.6005   9
 -23  11   2 267.403 36.5574   9
 -11 -12   2 229.073 37.4242  10
 -23  12   2 193.997 35.5246   9
 -12 -11  -2 297.877 35.8873  10
  12 -23  -2 88.5415 101.857   4
  11 -23  -2-22.5859 98.3697   4
  11 -23  -2 203.065 26.7506   7
  12 -23  -2 148.678 25.4845   7
  11 -23  -3 156.093 27.5706   7
  12 -23  -3 194.606 26.3750   7
 -12 -11   3 183.866 35.3314  10
 -11 -12  -3 171.934 33.0291  10
 -23  11   3 230.709 34.8053   9
  23 -12  -3 105.008 116.649   4
 -12 -11  -3 184.299 33.5573  10
 -23  11  -3 191.514 36.3038   9
 -23  12   3 102.923 31.2929   9
 -23  12  -3 164.517 36.3697   9
  11 -23   3 163.079 31.0728   6
 -11 -12   3 159.329 34.7520  10
  12 -23   3 198.291 31.7928   6
  12 -23  -3 27.0231 97.7257   4
  11 -23  -3-0.90528 103.236   4
  11 -23  -4 158.938 27.8446   7
  23 -12  -4 206.878 113.266   4
 -11 -12  -4 178.886 31.3759  10
  23 -11  -4 28.7838 90.0674   4
 -23  11  -4 137.250 34.5527   9
 -23  12  -4 132.126 35.2152   9
 -12 -11  -4 173.665 32.0464   8
 -11 -12  -4 147.112 30.6982   8
  11 -23   4 166.051 30.0922   6
  12 -23   4 152.537 31.1806   6
 -12 -11  -4 190.389 31.0827  10
  12 -23   4 41.9894 100.828   3
  12 -23  -4 191.975 27.5383   7
  12 -23  -4 36.6100 96.8977   4
  11 -23  -4 10.7798 92.1515   4
  11 -23  -5 104.714 26.4054   7
  12 -23  -5 51.1649 24.9590   7
 -12 -11  -5 94.3869 28.3086  10
 -23  11  -5 57.3031 32.0633   9
 -23  12  -5 87.9136 31.9994   9
 -12 -11  -5 73.5460 27.8691   8
 -11 -12  -5 64.9368 28.8905   8
  11 -23   5 74.9260 28.3207   6
  12 -23   5 135.505 29.1449   6
 -11 -12  -5 54.9026 28.2426  10
  11 -23  -6 57.8170 26.2257   7
  12 -23  -6 66.9706 26.1251   7
 -11 -12  -6 78.8326 26.9756  10
 -12 -11  -6 48.1538 26.4184  10
 -23  11  -6 49.2795 29.6203   9
 -23  12  -6 40.5839 30.4099   9
  11 -23   6 72.5725 27.1189   6
 -12 -11  -6 69.2363 27.4534   8
 -11 -12  -6 68.4906 29.2610   8
  12 -23   6 91.7194 27.8527   6
  11 -23  -7 80.6020 28.2512   7
  12 -23  -7 136.901 28.6077   7
 -12 -11  -7 101.732 26.8701  10
 -11 -12  -7 54.7979 24.5165  10
 -23  11  -7 72.4739 28.9753   9
 -23  12  -7 61.2381 28.6178   9
  11 -23   7 97.9493 27.6176   6
  12 -23   7 137.401 28.4985   6
 -12 -11  -7 109.283 27.4899   8
 -11 -12  -7 48.6642 27.1897   8
  11 -23  -8 49.4332 26.5300   7
  12 -23  -8 96.6374 26.7864   7
 -11 -12  -8 41.5740 22.5071  10
 -12 -11  -8-0.54224 22.7295  10
 -23  11  -8 32.9540 24.5900   9
 -23  12  -8 27.6521 24.3834   9
  11 -23   8 65.3552 25.5730   6
  12 -23   8 75.2083 26.4589   6
 -12 -11  -8 47.2879 25.2829   8
 -11 -12  -8 77.6759 26.8583   8
  11 -23  -9-7.08721 25.7189   7
  12 -23  -9 38.8198 25.5635   7
 -12 -11  -9 7.70886 20.6110  10
  11 -23   9 18.3770 22.6934   6
  12 -23   9 29.3777 23.6616   6
 -12 -11  -9 19.7856 21.6633   8
 -11 -12  -9 26.1136 23.5001   8
  11 -23 -10 63.4125 26.3765   7
  12 -23 -10 63.4558 25.5957   7
  11 -23  10 29.3082 20.4686   6
  12 -23  10 30.1693 20.9371   6
 -12 -11 -10 24.0898 20.7493   8
 -11 -12 -10 32.1017 22.4619   8
  11 -23 -11 33.7230 22.5880   7
  12 -23 -11 60.4210 23.3451   7
  11 -23  11 3.35118 16.6987   6
  12 -23  11 11.7694 17.5727   6
 -12 -11 -11-18.0829 19.2753   8
 -11 -12 -11 10.7274 19.5841   8
  11 -23 -12-7.86260 18.3838   7
  12 -23 -12 2.29354 18.5124   7
  23 -12 -12 9.62767 14.2479   7
  11 -23  12 2.04525 14.0718   6
  12 -23  12 10.7983 14.2603   6
 -12 -11 -12 9.15110 16.0337   8
 -11 -12 -12-8.15118 16.8201   8
  11 -23 -13-0.74012 14.3849   7
  12 -23 -13 8.77446 15.1159   7
  23 -12 -13 1.19029 12.2434   7
  23 -11 -13 15.4743 12.8146   7
  11 -23  13-12.5707 12.4002   6
  12 -23  13 6.84047 12.4734   6
 -12 -11 -13-5.74609 10.9372   8
 -11 -12 -13-3.95597 13.5191   8
  11 -23 -14 0.76192 10.3484   7
  12 -23 -14-5.57200 11.1039   7
  23 -12 -14 0.00540 9.61537   7
  23 -11 -14 1.84907 9.64749   7
  11 -23  14 0.85538 10.2517   6
  12 -23  14 5.07827 10.5016   6
 -10 -13   0 997.989 46.1334  10
 -13 -10   0 992.153 47.7206  10
 -23  10   0 1028.46 49.1818   9
  10 -23   0 862.028 37.7731   7
  10 -23   0 779.803 146.815   4
  23 -13  -1 1430.45 198.932   4
 -10 -13   1 1483.51 55.1311  10
 -13 -10   1 1416.32 54.3251  10
 -10 -13  -1 1420.06 53.0826  10
 -13 -10  -1 1493.55 54.5843  10
  13 -23  -1 1374.26 199.229   4
 -23  10   1 1417.13 56.2672   9
 -23  10  -1 1474.97 56.6496   9
  10 -23  -1 1338.28 44.9710   7
  10 -23  -1 1128.39 190.849   4
  10 -23   2 1022.48 41.0112   6
 -10 -13   2 842.122 45.4958  10
 -13 -10   2 817.915 46.2216  10
 -10 -13  -2 903.371 45.2973  10
 -13 -10  -2 994.926 47.0775  10
 -23  13   2 1027.12 50.5847   9
 -23  10   2 865.991 46.6086   9
 -23  10  -2 902.026 47.6843   9
 -23  13  -2 949.628 51.0901   9
  23 -13  -2 944.447 170.108   4
  10 -23  -2 856.978 37.8948   7
  13 -23  -2 711.075 33.1285   7
  13 -23  -2 837.296 161.540   4
  10 -23  -2 852.437 162.616   4
  10 -23   3 536.512 31.4883   6
 -10 -13   3 720.147 45.1178  10
  13 -23   3 923.928 42.7321   6
 -13 -10   3 696.722 44.7196  10
 -10 -13  -3 794.041 41.7666  10
 -13 -10  -3 860.048 44.0019  10
 -23  10   3 666.667 40.6944   9
 -23  10  -3 785.411 45.9357   9
 -23  13   3 766.548 44.7153   9
 -23  13  -3 942.325 48.7376   9
  23 -13  -3 907.482 163.289   4
  13 -23   3 828.254 153.962   3
  10 -23  -3 710.472 36.8110   7
  13 -23  -3 648.010 33.1333   7
  13 -23  -3 870.991 167.100   4
  10 -23  -3 725.561 160.332   4
  10 -23   4 722.452 36.2280   6
  13 -23   4 625.730 37.9448   6
 -13 -10   4 557.074 41.2607  10
 -10 -13  -4 517.430 36.1353  10
 -13 -10  -4 608.295 39.6728  10
 -23  10  -4 608.141 42.7019   9
 -23  13   4 708.228 41.4628   9
 -23  13  -4 669.490 45.4805   9
  23 -13  -4 493.334 128.838   4
 -13 -10  -4 650.324 38.0685   8
 -10 -13  -4 559.417 39.5684   8
  13 -23   4 709.824 149.927   3
  10 -23  -4 569.899 34.5232   7
  13 -23  -4 600.812 33.1060   7
  13 -23  -4 504.150 145.712   4
  10 -23  -4 407.071 126.185   4
  10 -23   5 604.438 34.8338   6
  13 -23   5 656.527 39.0737   6
 -10 -13  -5 539.878 35.7814  10
 -13 -10  -5 556.384 38.3016  10
 -23  10  -5 578.421 40.9240   9
 -23  13  -5 623.657 43.1282   9
 -10 -13  -5 611.481 39.5284   8
  10 -23  -5 541.971 34.7911   7
  13 -23  -5 539.359 32.5550   7
  10 -23   6 415.549 31.6742   6
  13 -23   6 419.393 34.5426   6
 -10 -13  -6 301.001 30.3628  10
 -13 -10  -6 348.450 33.4059  10
 -23  10  -6 388.592 37.1886   9
 -23  13  -6 424.379 38.8682   9
 -10 -13  -6 329.470 35.2962   8
  10 -23  -6 401.806 32.7001   7
  13 -23  -6 366.437 31.2787   7
  10 -23   7 314.171 29.3175   6
  13 -23   7 322.204 31.8312   6
 -10 -13  -7 232.794 27.2241  10
 -13 -10  -7 253.965 30.2386  10
 -23  10  -7 286.509 32.6478   9
 -23  13  -7 298.695 32.9621   9
 -13 -10  -7 178.648 25.8872   8
 -10 -13  -7 222.554 31.7706   8
  10 -23  -7 329.601 31.6837   7
  13 -23  -7 300.475 30.4671   7
  10 -23  -8 204.228 29.8089   7
  13 -23  -8 195.326 28.8964   7
 -13 -10  -8 142.940 25.9875  10
 -23  10  -8 179.079 27.9527   9
  10 -23   8 190.593 26.4890   6
  13 -23   8 201.476 28.5382   6
 -13 -10  -8 161.054 26.1842   8
 -10 -13  -8 167.734 30.0584   8
  10 -23  -9 195.362 29.2063   7
  13 -23  -9 132.043 27.1140   7
 -13 -10  -9 135.030 24.0114  10
  10 -23   9 132.287 23.6650   6
  13 -23   9 146.877 26.1277   6
 -13 -10  -9 129.583 23.4544   8
 -10 -13  -9 143.196 26.8535   8
  10 -23 -10 90.1824 25.6546   7
  13 -23 -10 108.333 25.5366   7
 -13 -10 -10 95.3975 21.5792  10
  10 -23  10 74.1230 20.4819   6
  13 -23  10 74.7833 22.5611   6
 -13 -10 -10 47.8203 20.3729   8
 -10 -13 -10 71.9843 24.6226   8
  10 -23 -11 69.2533 22.8096   7
  13 -23 -11 29.9594 22.1281   7
  23 -13 -11 65.2279 16.6414   7
  10 -23  11 53.1264 17.0064   6
  13 -23  11 55.2063 18.7703   6
 -13 -10 -11 68.2417 19.1726   8
 -10 -13 -11 53.2828 21.5382   8
  10 -23 -12 23.5059 18.0522   7
  13 -23 -12 38.6074 19.0188   7
  23 -13 -12 49.7999 15.1216   7
  10 -23  12 18.6059 14.2204   6
  13 -23  12 5.08608 14.3166   6
 -10 -13 -12 24.3116 18.4597   8
  10 -23 -13 10.3397 14.2737   7
  13 -23 -13 20.7920 15.0465   7
  23 -13 -13 5.02261 12.5592   7
  10 -23  13-4.63493 12.9020   6
  13 -23  13-7.84398 12.1713   6
 -10 -13 -13 23.2048 14.6507   8
  13 -23 -14-7.34497 11.0575   7
  23 -13 -14 7.77542 9.75772   7
  23 -10 -14-0.00531 9.61066   7
  13 -23  14 7.24714 9.95738   6
 -10 -13 -14-0.54500 10.0304   8
  10 -23  14-1.51172 10.5983   6
  10 -23 -14 2.24709 10.1948   7
 -14  -9   0 78.2531 31.7489  10
  -9 -14   0 72.0596 31.3570  10
  23 -14   0 27.3016 89.1509   4
 -23   9   0 49.3978 30.5804   9
   9 -23   0 73.0337 25.3471   7
  -9 -14   1 119.032 33.7525  10
  -9 -14  -1 121.785 30.7044  10
  23 -14   1 133.003 92.8419   4
  23 -14  -1 18.5137 92.8586   4
 -23   9   1 74.2681 31.3500   9
 -23   9  -1 97.4348 32.9157   9
 -14  -9  -1 105.139 32.7752  10
  14 -23  -1 31.4840 86.3355   4
   9 -23   1 122.483 25.7624   7
 -14  -9   1 139.940 34.9279  10
   9 -23  -1 109.385 26.5350   7
   9 -23  -2 52.9367 88.4398   4
  -9 -14   2 117.816 32.9424  10
 -14  -9   2 119.381 32.6671  10
  -9 -14  -2 114.885 30.8747  10
 -14  -9  -2 120.353 31.9993  10
  23 -14   2 42.8501 73.7498   4
  23 -14  -2 82.6806 95.9183   4
 -23   9   2 99.9305 30.6032   9
 -23   9  -2 76.0539 32.3504   9
  14 -23  -2 106.013 98.9342   4
   9 -23  -2 120.517 26.3901   7
   9 -23  -3 19.0961 97.7306   4
  14 -23  -3 59.4098 21.7440   7
  -9 -14  -3 106.870 29.6595  10
 -14  -9   3 93.2094 32.7174  10
 -14  -9  -3 93.6452 30.5947  10
  23 -14  -3-2.51514 91.6890   4
 -23   9   3-41.6257 27.7216   9
 -23   9  -3 91.8459 32.7873   9
  -9 -14  -3 87.2547 32.5869   8
  14 -23   3-2.12544 97.5378   3
  14 -23   3 128.976 32.1715   6
  14 -23  -3 84.9474 98.3936   4
   9 -23  -3 93.0098 26.3754   7
   9 -23  -4-55.6076 92.5207   4
  14 -23  -4 30.4830 21.9289   7
 -14  -9   4-2.33424 29.9578  10
 -14  -9  -4 22.5904 28.1547  10
  23 -14  -4-6.67207 86.7060   4
 -23   9  -4 47.0547 30.4129   9
 -23  14   4-84.0947 26.7029   9
 -23  14  -4 31.9959 31.3710   9
  -9 -14  -4 35.6187 28.7968   8
  14 -23   4-14.7041 88.1327   3
   9 -23   4-65.9530 23.8193   6
  -9 -14  -4 34.8484 25.6390  10
  14 -23   4 53.2505 28.5099   6
  14 -23  -4 50.6844 100.272   4
   9 -23  -4 35.7316 25.3940   7
   9 -23  -5 65.5440 25.9424   7
  14 -23  -5 24.0044 23.1748   7
  -9 -14  -5-11.7512 24.2896  10
 -14  -9  -5 44.6166 28.6235  10
 -23   9  -5 22.5566 28.5129   9
 -23  14  -5 25.4925 30.4415   9
   9 -23   5 70.2379 23.7748   6
  -9 -14  -5 51.8144 29.7608   8
  14 -23   5 27.7263 28.2002   6
   9 -23  -6 62.5231 26.8140   7
  14 -23  -6 55.0624 24.1779   7
 -14  -9  -6 78.7178 28.8026  10
 -23   9  -6 11.6037 28.2232   9
 -23  14  -6 39.9383 29.8455   9
   9 -23   6 24.6997 23.4676   6
  -9 -14  -6 33.8714 29.2862   8
  14 -23   6 59.5296 28.3337   6
  -9 -14  -6 31.2064 23.3955  10
   9 -23  -7 54.9077 26.6979   7
  14 -23  -7 36.7355 24.6330   7
 -14  -9  -7 42.0172 26.5845  10
 -23   9  -7 55.2615 27.4473   9
 -23  14  -7 17.8149 26.9552   9
   9 -23   7 10.7549 23.1164   6
  14 -23   7 9.90854 26.6965   6
  -9 -14  -7 44.8601 27.5953   8
   9 -23  -8 34.4100 26.5045   7
  14 -23  -8 6.33175 23.8274   7
 -14  -9  -8 25.4447 24.7631  10
 -23   9  -8 18.8034 23.6983   9
   9 -23   8 33.4220 21.8545   6
  14 -23   8 25.7795 25.4527   6
  -9 -14  -8-7.33972 27.0406   8
   9 -23  -9 45.9654 25.5763   7
  14 -23  -9-13.3877 23.6508   7
   9 -23   9 2.77760 19.2771   6
  14 -23   9 11.0352 24.6514   6
  -9 -14  -9 10.3986 24.6844   8
 -14  -9  -9 6.97067 22.0492  10
   9 -23 -10 12.9401 23.3895   7
  14 -23 -10 1.79544 23.3737   7
 -14  -9 -10-15.2221 20.4909  10
   9 -23  10-3.69759 17.4498   6
  14 -23  10 8.15994 22.1184   6
  -9 -14 -10 11.2687 23.7688   8
   9 -23 -11 8.59590 20.5348   7
  14 -23 -11-6.41779 20.9133   7
  23 -14 -11 22.1414 15.5779   7
  14 -23  11 1.81750 18.3477   6
   9 -23  11-4.69502 15.2421   6
  -9 -14 -11 0.50643 21.0070   8
 -14  -9 -11-13.9111 17.6511  10
   9 -23 -12-0.44494 17.0821   7
  14 -23 -12 16.2931 18.2135   7
  23 -14 -12 21.7430 14.2257   7
   9 -23  12 15.2106 13.6366   6
  14 -23  12-13.9614 14.6494   6
  -9 -14 -12 0.97759 17.7020   8
  14 -23 -13 13.4581 14.5587   7
  23 -14 -13-4.08971 11.9824   7
   9 -23  13 5.86370 12.3789   6
  14 -23  13-14.9118 12.0776   6
  -9 -14 -13-0.80342 14.5821   8
   9 -23 -13 14.9837 13.9796   7
  14 -23 -14 6.86068 10.1856   7
   9 -23  14 19.4168 11.1615   6
  14 -23  14-3.46821 9.50394   6
  -9 -14 -14-2.22002 10.7648   8
   9 -23 -14-1.10898 9.59450   7
  -8 -15   0 696.262 40.9006  10
 -15  -8   0 664.959 41.5287  10
 -15  -8   0 802.532 41.0713   9
 -23   8   0 778.183 43.2640   9
   8 -23   0 706.069 36.6034   7
  15 -23   0 649.672 136.957   4
  -8 -15   1 909.752 45.3962  10
  -8 -15  -1 946.490 44.5582  10
 -15  -8   1 881.703 46.5540  10
 -15  -8  -1 988.086 46.1432  10
 -15  -8   1 1030.27 44.4167   9
 -23   8   1 959.406 46.2412   9
 -23   8  -1 1040.88 47.2595   9
  23 -15   1 826.774 152.208   4
  23 -15  -1 930.287 163.654   4
 -15  -8  -1 1069.62 46.4525   9
   8 -23   1 976.195 39.1864   7
  15 -23  -1 1021.22 164.615   4
   8 -23  -1 1030.63 41.5983   7
  -8 -15   2 681.616 42.7868  10
  -8 -15  -2 730.324 40.7949  10
 -15  -8   2 697.966 42.9431  10
 -15  -8  -2 692.441 41.8237  10
 -15  -8  -2 767.870 41.8748   9
 -23   8   2 716.357 41.7858   9
 -23   8  -2 682.896 41.3763   9
  23 -15   2 623.772 129.328   4
  23 -15  -2 696.195 151.749   4
   8 -23   2 683.319 33.4711   7
  15 -23   2 721.636 138.273   3
  15 -23  -2 657.204 139.622   4
   8 -23  -2 768.620 37.8206   7
  23 -15  -3 1037.43 169.604   4
 -15  -8   3 901.329 46.3878  10
  -8 -15  -3 817.590 40.6270  10
 -15  -8  -3 974.120 47.0136  10
 -15  -8  -3 1024.51 45.9323   9
 -23   8   3 947.209 43.2792   9
 -23   8  -3 931.306 45.7723   9
  -8 -15  -3 961.195 46.9072   8
  15 -23   3 862.580 153.319   3
  15 -23  -3 1003.38 170.671   4
   8 -23  -3 895.335 40.2728   7
  15 -23   4 742.748 40.9064   6
 -15  -8   4 604.651 40.7267  10
  -8 -15  -4 576.400 35.3736  10
 -15  -8  -4 667.845 41.2528  10
 -15  -8  -4 776.685 41.9803   9
 -23   8  -4 646.015 41.1071   9
  23 -15  -4 749.024 151.520   4
  -8 -15  -4 654.077 40.3323   8
  15 -23   4 681.746 138.353   3
  15 -23  -4 623.540 150.510   4
   8 -23  -4 627.433 36.3655   7
  15 -23  -4 605.788 31.2975   7
  15 -23   5 557.375 36.8036   6
  -8 -15  -5 436.980 31.4336  10
 -15  -8  -5 434.625 36.9523  10
 -23   8  -5 464.113 37.6047   9
 -23  15  -5 442.818 39.8251   9
  -8 -15  -5 468.899 36.7342   8
   8 -23  -5 420.688 32.6482   7
  15 -23  -5 374.563 27.9566   7
  15 -23   6 490.475 35.1384   6
 -15  -8  -6 406.995 34.7695  10
 -23   8  -6 435.660 36.0250   9
 -23  15  -6 533.307 39.3493   9
  -8 -15  -6 441.158 36.9095   8
   8 -23  -6 449.407 33.1096   7
  15 -23  -6 404.669 29.6671   7
   8 -23  -7 213.928 29.3323   7
  15 -23  -7 207.512 26.5106   7
   8 -23   7 332.951 25.9999   6
 -15  -8  -7 172.176 29.3797  10
 -23   8  -7 256.667 30.8421   9
 -23  15  -7 233.213 31.4924   9
  15 -23   7 244.957 30.3573   6
  -8 -15  -7 220.147 32.9485   8
   8 -23  -8 192.363 28.3516   7
  15 -23  -8 203.903 26.4201   7
 -23   8  -8 208.018 28.2486   9
   8 -23   8 205.654 23.1983   6
 -15  -8  -8 180.947 28.5161  10
  15 -23   8 214.638 29.1611   6
  -8 -15  -8 199.902 30.2637   8
   8 -23  -9 101.275 25.6055   7
  15 -23  -9 84.7443 24.1416   7
 -15  -8  -9 60.1359 23.7408  10
   8 -23   9 97.2698 18.7920   6
  15 -23   9 89.2031 25.5578   6
  -8 -15  -9 127.756 28.1963   8
   8 -23 -10 77.0076 23.8678   7
  15 -23 -10 52.1762 22.4339   7
 -15  -8 -10 57.6217 21.5501  10
   8 -23  10 88.4183 17.2422   6
  15 -23  10 52.9776 22.7531   6
  -8 -15 -10 48.0436 24.7377   8
   8 -23 -11 43.3718 20.5079   7
  15 -23 -11 50.3009 21.1528   7
  23 -15 -11 15.3906 14.8505   7
 -15  -8 -11 53.3051 19.0896  10
   8 -23  11 10.9686 14.4238   6
  15 -23  11 48.0620 18.6026   6
  -8 -15 -11 32.6509 22.1519   8
  15 -23 -12-2.42545 17.4927   7
  23 -15 -12 1.67587 13.5345   7
 -15  -8 -12 15.8785 15.4480  10
   8 -23  12 1.92392 13.4517   6
  15 -23  12 11.0310 13.8081   6
  -8 -15 -12 1.04317 18.1620   8
   8 -23 -12 17.8697 16.8243   7
  15 -23 -13-6.46261 14.2460   7
  23 -15 -13-1.88847 11.6224   7
   8 -23  13 5.74520 11.8846   6
  15 -23  13-10.4041 11.1142   6
  -8 -15 -13 3.02206 14.8242   8
   8 -23 -13 0.40522 13.1946   7
  15 -23 -14 4.43433 10.1246   7
  15 -23  14 4.91928 9.19454   6
  -8 -15 -14 3.08742 10.8872   8
 -16  -7   0 21.8745 28.0519  10
 -16  -7   0 36.7859 24.1488   9
  23 -16   0 51.5160 72.9819   4
  -7 -16   0 35.2554 27.5483  10
 -23   7   0 33.3989 27.6735   9
  16 -23   0-25.8821 82.5983   4
   7 -23   0 18.2850 23.7875   7
  -7 -16   1 123.714 30.1646  10
 -16  -7  -1 93.1795 29.0652  10
 -16  -7   1 67.5970 25.7565   9
 -16  -7  -1 101.137 26.4067   9
  23 -16   1 40.4506 73.4028   4
  23 -16  -1 209.237 93.3693   4
 -23   7   1 104.781 29.3405   9
 -23   7  -1 129.573 30.9858   9
 -16  -7   1 101.463 30.0071  10
  -7 -16  -1 132.049 29.3178  10
  16 -23  -1 140.577 95.3065   4
   7 -23   1 84.7393 23.9203   7
   7 -23  -1 114.590 27.1944   7
 -16  -7   2 47.3900 29.0083  10
 -16  -7  -2 63.8094 29.5022  10
 -16  -7  -2 62.8317 26.6378   9
  23 -16   2 90.0468 77.8110   4
  23 -16  -2 67.5680 83.3543   4
 -23   7   2 50.8536 26.3935   9
 -23   7  -2 75.9035 29.5190   9
  -7 -16  -2 53.0861 26.3118  10
  16 -23   2-83.9930 92.1203   3
  16 -23  -2 68.4661 81.2946   4
 -16  -7   2 42.3717 24.0051   9
   7 -23   2 51.5520 21.7640   7
   7 -23  -2 66.3210 25.6580   7
 -16  -7   3 32.7174 29.1110  10
  23 -16  -3 35.9349 80.9703   4
 -16  -7  -3 48.7772 29.5552  10
 -16  -7  -3 32.9314 27.1075   9
 -23   7   3 117.096 26.8368   9
 -23   7  -3-3.23350 28.8728   9
  -7 -16  -3 35.7349 24.1143  10
  16 -23   3-79.8118 77.1525   3
  16 -23  -3 69.8558 78.9443   4
  -7 -16  -3-38.9247 21.2981   7
   7 -23  -3 54.0799 27.1094   7
 -16  -7   4 7.54714 27.3505  10
 -16  -7  -4 52.7880 29.7607  10
 -16  -7  -4 2.05149 26.0005   9
 -23   7  -4 55.4141 29.1088   9
  -7 -16  -4 19.1946 22.2892  10
  -7 -16  -4 32.4663 29.1181   8
  16 -23   4 19.3927 27.6436   6
   7 -23  -4 68.6957 26.5428   7
  16 -23  -5-21.1153 20.6974   7
 -16  -7  -5 8.37246 27.6602  10
 -16  -7  -5-10.4897 26.6500   9
 -23   7  -5 0.68860 27.3270   9
  -7 -16  -5 39.6308 29.1801   8
  16 -23   5 37.6832 28.1604   6
   7 -23  -5-13.1673 24.9975   7
  16 -23  -6 77.3744 21.7999   7
 -16  -7  -6 38.3154 27.6004  10
 -23   7  -6 52.9882 27.6086   9
 -23  16  -6 24.0187 27.3906   9
  -7 -16  -6 63.4758 30.1771   8
  16 -23   6 76.5369 27.9918   6
   7 -23  -6 40.2946 26.0447   7
   7 -23  -7 40.1926 25.8531   7
  16 -23  -7 1.70727 21.9196   7
 -16  -7  -7 41.5425 28.4692  10
 -23   7  -7 13.7096 25.5258   9
 -23  16  -7 17.7161 26.4197   9
  16 -23   7 14.2155 26.9437   6
  -7 -16  -7 22.2609 29.0349   8
   7 -23  -8 78.2258 25.4650   7
  16 -23  -8 18.4797 21.6101   7
 -23   7  -8 31.5886 23.7335   9
   7 -23   8 52.5529 18.4300   6
  16 -23   8 47.1288 25.7985   6
  -7 -16  -8 55.3157 27.1005   8
 -16  -7  -8 12.9481 24.9400  10
   7 -23  -9 10.1187 23.2273   7
  16 -23  -9 6.32358 21.3456   7
 -16  -7  -9 6.40978 22.7079  10
   7 -23   9 24.5324 16.0752   6
  16 -23   9 15.3950 24.3731   6
  -7 -16  -9 43.1137 27.2291   8
   7 -23 -10 35.0118 22.1147   7
  16 -23 -10 25.5740 20.8744   7
 -16  -7 -10 19.8650 21.3299  10
   7 -23  10-7.66843 14.7287   6
  16 -23  10 9.98831 21.4467   6
  -7 -16 -10 0.52691 23.8365   8
  16 -23 -11 2.93851 19.1736   7
  23 -16 -11 3.53880 14.3032   7
   7 -23  11-8.28532 13.8212   6
  16 -23  11 12.0778 16.9762   6
  -7 -16 -11-6.87628 21.4705   8
 -16  -7 -11 2.47888 18.4196  10
   7 -23 -11 6.25334 18.7096   7
  16 -23 -12 24.7705 16.8340   7
  23 -16 -12-3.05751 13.4165   7
 -16  -7 -12-5.42640 15.4896  10
   7 -23  12 13.2523 12.9090   6
  16 -23  12-6.49248 12.9258   6
  -7 -16 -12-3.18488 17.9919   8
   7 -23 -12 12.3258 15.6816   7
  16 -23 -13 11.5988 13.2897   7
  23 -16 -13-4.20448 11.1395   7
  16 -23  13-22.6644 10.5751   6
  -7 -16 -13 2.77885 14.4415   8
   7 -23  13 3.44942 9.69733   6
   7 -23 -13-13.7915 12.5903   7
  16 -23 -14 2.83068 9.61809   7
  16 -23  14 3.74811 8.50371   6
  -7 -16 -14 1.27533 11.2454   8
  -6 -17   0 203.496 29.6787  10
 -17  -6   0 247.852 32.8397  10
 -17  -6   0 268.009 30.3410   9
  23 -17   0 272.684 104.591   4
 -23   6   0 243.458 31.6750   9
   6 -23   0 227.469 28.1176   7
  -6 -17  -1 288.628 30.5744  10
 -17  -6   1 321.407 35.4980  10
 -17  -6  -1 332.438 35.6543  10
 -17  -6   1 326.570 31.5504   9
 -17  -6  -1 332.633 32.6842   9
 -23   6   1 321.824 33.0142   9
 -23   6  -1 336.155 33.5420   9
  23 -17   1 285.905 96.1230   4
  23 -17  -1 270.042 100.519   4
  17 -23  -1 380.836 106.921   4
   6 -23   1 314.160 28.7457   7
   6 -23  -1 342.210 31.2659   7
  -6 -17  -2 207.265 28.1779  10
 -17  -6   2 249.654 32.7372  10
 -17  -6   2 266.302 29.1759   9
 -17  -6  -2 249.838 30.8343   9
  23 -17   2 290.221 106.546   4
  23 -17  -2 301.928 103.694   4
 -23   6   2 265.313 30.9243   9
 -23   6  -2 229.176 31.6496   9
 -17  -6  -2 227.358 33.1463  10
  17 -23  -2 206.672 97.3202   4
   6 -23   2 265.556 27.1918   7
   6 -23  -2 250.711 30.1335   7
  -6 -17  -3 245.585 28.0949  10
 -17  -6   3 218.340 32.2580  10
 -17  -6  -3 260.341 34.0489  10
 -23   6   3 353.196 32.2566   9
 -23   6  -3 317.367 33.7260   9
 -17  -6   3 93.4052 20.9890   9
 -17  -6  -3 284.293 32.5791   9
  23 -17  -3 293.950 106.799   4
  17 -23  -3 190.389 97.0467   4
  -6 -17  -3 242.036 28.1450   7
   6 -23  -3 285.206 31.8522   7
 -17  -6   4 177.109 31.4972  10
 -17  -6  -4 165.871 31.7979  10
 -17  -6  -4 156.816 29.9865   9
 -23   6  -4 199.685 31.5886   9
  -6 -17  -4 183.458 30.8934   8
  17 -23   4 181.408 31.4921   6
  -6 -17  -4 210.812 26.2717   7
   6 -23  -4 225.486 29.5007   7
 -17  -6  -5 154.824 31.8331  10
 -17  -6  -5 148.071 29.9941   9
 -23   6  -5 138.040 30.9403   9
  -6 -17  -5 158.290 31.3847   8
  17 -23   5 169.733 30.8860   6
  -6 -17  -5 240.335 25.6055   7
   6 -23  -5 200.944 30.4211   7
  17 -23  -6 161.019 22.8726   7
 -17  -6  -6 173.217 30.6038  10
 -17  -6  -6 153.222 29.2695   9
 -23   6  -6 133.171 29.3439   9
  -6 -17  -6 190.673 31.3879   8
  17 -23   6 215.529 31.1122   6
   6 -23  -6 161.663 28.4879   7
  17 -23  -7 134.812 23.0255   7
 -17  -6  -7 134.006 30.3367  10
 -23   6  -7 168.058 28.7568   9
 -23  17  -7 115.812 28.1252   9
  17 -23   7 93.6682 28.3145   6
  -6 -17  -7 137.554 30.0128   8
   6 -23  -7 103.843 27.5917   7
  17 -23  -8 33.0263 20.7369   7
 -17  -6  -8 35.8113 26.4471  10
 -23   6  -8 20.3966 24.1218   9
  17 -23   8 25.2929 25.2506   6
  -6 -17  -8 34.9190 28.2909   8
   6 -23  -8 47.9503 24.6110   7
  17 -23  -9 51.7819 21.2438   7
 -17  -6  -9 49.7469 24.5099  10
  17 -23   9 27.3651 23.6849   6
  -6 -17  -9 27.6849 26.1003   8
   6 -23  -9 34.7620 23.0063   7
  17 -23 -10 35.8354 19.5383   7
 -17  -6 -10 20.1519 21.5641  10
   6 -23  10 6.97483 13.4889   6
  17 -23  10 4.89315 20.3627   6
  -6 -17 -10 10.7562 23.9521   8
   6 -23 -10 8.92847 20.5132   7
  17 -23 -11 10.6237 17.7022   7
  23 -17 -11 15.0859 14.6797   7
 -17  -6 -11-13.4420 19.2997  10
   6 -23  11-34.3694 13.6086   6
  17 -23  11 15.5650 15.8576   6
  -6 -17 -11-15.3797 21.4305   8
   6 -23 -11 9.61009 17.6983   7
  17 -23 -12 11.5620 14.9973   7
  23 -17 -12-3.88335 12.6989   7
 -17  -6 -12 23.4529 16.3685  10
  17 -23  12-10.1164 12.1905   6
  -6 -17 -12-3.20711 17.5695   8
   6 -23 -12 0.17670 14.6399   7
  17 -23 -13 1.45424 11.9417   7
  23 -17 -13 2.64108 10.8169   7
  17 -23  13-2.74806 9.85036   6
   6 -23  13 5.62339 10.9560   6
  -6 -17 -13 4.98467 14.2644   8
 -17  -6 -13-9.77350 12.4525  10
   6 -23 -13-0.00661 10.1277   7
 -23   6 -14 1.88661 11.7863  10
 -18  -5   0 3.64072 27.8591  10
 -18  -5   0 32.8602 25.1289   9
 -23   5   0-11.9528 25.8323   9
  18 -23   0-50.8702 81.4928   4
   5 -23   0 0.80412 23.7976   7
 -18  -5   1 23.2080 27.8406  10
 -18  -5  -1 53.0230 29.4455  10
 -18  -5   1 32.4547 24.6770   9
 -18  -5  -1 20.8772 25.1111   9
 -23   5   1 39.9243 26.5717   9
 -23   5  -1 27.9247 26.2127   9
  23 -18   1 189.688 94.7814   4
  23 -18  -1 148.527 89.1505   4
  18 -23  -1 44.0280 70.6990   4
   5 -23   1 70.7470 25.2108   7
   5 -23  -1 43.5815 26.4426   7
  -5 -18  -2 28.4190 22.8885  10
 -18  -5   2-0.07100 22.8671   9
 -18  -5  -2-22.4954 26.2259   9
 -18  -5   2-4.45122 28.0660  10
 -18  -5  -2 14.9113 28.7064  10
 -23   5   2-14.2087 25.2575   9
 -23   5  -2 21.9156 26.3800   9
  -5 -18  -2 2.17025 24.0907   7
   5 -23   2 25.5993 23.1056   7
   5 -23  -2 21.8262 27.0024   7
 -18  -5   3 38.1017 27.8365  10
 -18  -5  -3 13.1322 29.6991  10
 -18  -5   3-61.5775 22.4094   9
 -18  -5  -3 7.62942 27.5432   9
 -23   5   3 31.9590 24.2755   9
 -23   5  -3 21.8518 28.1551   9
  -5 -18  -3 42.6314 24.3884   7
   5 -23  -3 38.2948 27.8105   7
 -18  -5   4-90.2029 28.4688  10
 -18  -5  -4 21.8679 28.2685   9
 -18  -5  -4 35.3970 29.9210  10
 -23   5  -4 28.1620 27.7812   9
  -5 -18  -4 13.6492 28.5411   8
  18 -23   4 1.92795 27.6351   6
  -5 -18  -4-3.00126 22.2697   7
   5 -23  -4 17.1067 26.7093   7
 -18  -5  -5-8.64966 28.3872  10
 -18  -5  -5 17.0637 27.5294   9
 -23   5  -5 18.7520 27.5282   9
   5 -23  -5 13.6703 19.8399   8
  -5 -18  -5 2.33434 26.9763   8
  18 -23   5-21.8966 27.5415   6
  -5 -18  -5 15.1721 20.8037   7
   5 -23  -5 16.1137 26.7499   7
  18 -23  -6 4.99310 18.8295   7
 -18  -5  -6 34.7929 29.3532  10
 -18  -5  -6 13.7971 26.4119   9
 -23   5  -6 12.2097 26.6967   9
   5 -23  -6 24.5722 20.0715   8
  -5 -18  -6 2.84958 27.9658   8
  18 -23   6 6.91405 28.2286   6
  -5 -18  -6-23.5543 21.0574   7
   5 -23  -6 12.4992 25.9350   7
  18 -23  -7 18.5178 19.5164   7
 -18  -5  -7 20.0786 29.3388  10
 -18  -5  -7 23.9168 25.3990   9
 -23   5  -7 6.18318 25.6758   9
 -23  18  -7-2.42023 25.6362   9
   5 -23  -7 50.2282 20.7161   8
  18 -23   7 32.5174 27.0033   6
  -5 -18  -7 28.2783 28.6504   8
   5 -23  -7 37.5179 26.0167   7
  18 -23  -8-4.06585 19.5921   7
 -18  -5  -8 17.5466 26.7869  10
 -23   5  -8-54.9253 24.0636   9
  18 -23   8 17.0600 24.7482   6
   5 -23  -8 16.3288 18.9707   8
  -5 -18  -8 5.72466 27.9866   8
   5 -23  -8 0.21117 24.1393   7
  18 -23  -9-10.1990 19.0312   7
 -18  -5  -9-2.27088 24.5749  10
  18 -23   9 10.1783 22.6232   6
   5 -23  -9-0.53832 16.9763   8
  -5 -18  -9-16.7431 26.7994   8
   5 -23  -9 11.3135 22.4803   7
  18 -23 -10-2.76942 18.2108   7
 -18  -5 -10 11.3020 21.6980  10
  18 -23  10-10.2315 18.8311   6
   5 -23 -10-4.18141 15.6098   8
  -5 -18 -10 7.96634 23.8103   8
   5 -23 -10 7.19318 19.6160   7
  18 -23 -11 22.5792 17.0970   7
 -18  -5 -11-4.54993 18.6835  10
  18 -23  11-2.85697 15.1431   6
   5 -23 -11-7.35119 14.1323   8
  -5 -18 -11-9.65098 20.6873   8
   5 -23 -11 4.66395 16.8603   7
  18 -23 -12 15.2709 14.2530   7
  23 -18 -12 1.57422 12.1160   7
 -18  -5 -12-21.2859 16.3344  10
  18 -23  12-8.24561 11.3867   6
  -5 -18 -12 11.0067 17.2096   8
   5 -23 -12 9.13470 14.3874   7
  18 -23 -13 0.00595 10.6834   7
  23 -18 -13 1.24407 9.78948   7
 -18  -5 -13 4.63679 12.4548  10
  18 -23  13-2.98980 8.59002   6
  -5 -18 -13 4.63854 13.5124   8
   5 -23 -13 0.00596 10.2920   7
 -19  -4   0 98.8034 31.2698  10
 -19  -4   0 71.7370 28.4030   9
 -23   4   0 85.5044 29.7257   9
   4 -23   0 45.0708 27.0724   7
 -19  -4   1 244.464 34.3802  10
 -19  -4  -1 245.439 34.7357  10
 -19  -4   1 283.861 32.3682   9
 -19  -4  -1 288.196 33.2488   9
 -23   4   1 260.103 32.4853   9
 -23   4  -1 256.511 32.8567   9
   4 -23   1 343.280 31.9905   7
   4 -23  -1 307.813 34.3299   7
 -19  -4   2 133.165 32.3855  10
 -19  -4  -2 100.698 31.8651  10
 -19  -4   2 104.763 27.4098   9
 -19  -4  -2 106.107 29.9516   9
 -23   4   2 103.999 28.7084   9
 -23   4  -2 103.427 30.4620   9
  -4 -19  -2 160.183 29.6478   7
   4 -23  -2 148.952 31.0014   7
 -19  -4   3-14.9660 26.7360  10
 -19  -4  -3 174.627 33.4245  10
 -23   4  -3 68.8314 22.2470  10
 -23   4   3 264.538 30.7396   9
 -19  -4   3 63.7787 23.1915   9
 -19  -4  -3 190.771 32.5417   9
 -23   4  -3 166.411 33.4137   9
  -4 -19  -3 178.022 29.2819   7
   4 -23  -3 176.639 31.7049   7
 -19  -4  -4 121.743 32.0595  10
 -23   4  -4 84.1580 27.2844  10
 -19  -4  -4 97.9603 31.2589   9
 -23   4  -4 103.053 30.3825   9
  -4 -19  -4 95.9245 30.5574   8
  23 -19   4 117.748 23.5713   6
  19 -23   4 149.941 32.1792   6
  -4 -19  -4 111.242 26.2317   7
   4 -23  -4 123.630 30.2770   7
 -19  -4  -5 73.4797 31.2058  10
 -19  -4  -5 92.6073 30.2586   9
 -23   4  -5 96.7893 30.8480   9
  -4 -19  -5 99.1608 30.5935   8
  23 -19   5 79.7843 21.4941   6
  19 -23   5 88.5997 30.0588   6
  -4 -19  -5 72.2389 24.3834   7
   4 -23  -5 83.4778 29.6032   7
 -19  -4  -6 182.506 31.2991   9
 -19  -4  -6 202.672 33.7690  10
 -23   4  -6 199.441 32.3767   9
   4 -23  -6 159.703 24.4314   8
  -4 -19  -6 181.505 33.2924   8
  19 -23   6 247.727 31.0280   6
  -4 -19  -6 201.495 26.3152   7
   4 -23  -6 210.557 31.5569   7
  19 -23  -7 20.7193 18.7189   7
 -19  -4  -7 26.7761 25.6461   9
 -23   4  -7 11.8265 25.5488   9
 -19  -4  -7 28.7174 30.5052  10
 -23  19  -7 39.4869 25.6383   9
   4 -23  -7 42.2473 21.0622   8
  -4 -19  -7 27.6426 28.7849   8
  19 -23   7 40.6219 26.2647   6
  -4 -19  -7 17.9625 19.6813   7
   4 -23  -7 22.3299 26.1520   7
  19 -23  -8 51.0668 20.0965   7
 -19  -4  -8 59.4246 28.9418  10
 -23   4  -8 50.7638 24.6798   9
  19 -23   8 62.0181 24.9135   6
   4 -23  -8 80.3467 21.3649   8
  -4 -19  -8 49.5838 28.6456   8
   4 -23  -8 62.0542 24.7239   7
  19 -23  -9 21.6194 18.2232   7
 -19  -4  -9 32.7883 26.2211  10
  19 -23   9-1.48522 21.6277   6
   4 -23  -9 47.7466 18.9097   8
  -4 -19  -9 22.9656 25.9911   8
   4 -23  -9 16.5894 21.7854   7
  19 -23 -10 19.5296 17.3601   7
 -19  -4 -10-5.76100 22.6124  10
  19 -23  10-0.18079 18.0637   6
   4 -23 -10 50.8132 17.4622   8
  -4 -19 -10 3.64231 23.3821   8
   4 -23 -10 24.0966 19.6443   7
  19 -23 -11 4.66238 15.0415   7
 -19  -4 -11 21.4514 19.2820  10
  19 -23  11 1.58535 13.5309   6
   4 -23 -11-10.8416 14.5834   8
  -4 -19 -11 9.78424 20.1441   8
   4 -23 -11 10.4146 16.7065   7
  19 -23 -12 6.77636 12.7223   7
  23 -19 -12 7.76358 11.3665   7
 -19  -4 -12 7.94099 15.5932  10
  19 -23  12 7.25291 10.2247   6
   4 -23 -12-2.85546 11.8060   8
  -4 -19 -12 2.75624 16.6134   8
   4 -23 -12-8.08158 11.2744   7
  19 -23 -13 5.95620 9.77609   7
 -23   4 -13 8.81220 13.4133  10
  19 -23  13 1.39261 7.72542   6
  -4 -19 -13-4.12020 12.6740   8
 -19  -4 -13-7.58354 12.2367  10
 -20  -3   0 88.0970 33.2971  10
 -20  -3   0 112.190 31.2923   9
 -23   3   0 89.6704 31.8311   9
   3 -23   0 113.503 31.5189   7
 -20  -3  -1 49.6671 31.0154  10
 -20  -3   1 25.3457 29.7585  10
 -20  -3   1 21.1117 27.1429   9
 -20  -3  -1 25.5084 28.4187   9
 -23   3   1 7.76226 27.6485   9
 -23   3  -1 35.1581 29.5075   9
  -3 -20  -1 40.0339 29.7806   7
   3 -23   1 35.4602 28.4079   7
   3 -23  -1 61.8656 29.6403   7
 -20  -3   2-14.1866 24.8639  10
 -20  -3  -2 62.0734 30.7312  10
 -23   3  -2 148.637 27.6491  10
 -20  -3   2 45.8952 26.4020   9
 -20  -3  -2 30.0918 28.8846   9
 -23   3   2 32.8775 26.7377   9
 -23   3  -2 24.5036 29.1515   9
  -3 -20  -2 49.6783 29.1321   7
   3 -23  -2 51.4120 30.2010   7
 -20  -3  -3 50.2712 31.6132  10
 -23   3  -3 92.3779 26.9967  10
 -20  -3   3-28.3785 22.2139   9
 -20  -3  -3 29.7672 30.1561   9
 -23   3   3-61.0739 24.9359   9
 -23   3  -3 36.7846 30.4362   9
  -3 -20  -3 27.6645 27.5562   7
   3 -23  -3 51.7918 30.4684   7
 -20  -3  -4 58.1544 31.7075  10
 -23   3  -4 53.5490 26.8629  10
 -20  -3  -4 55.6988 30.6962   9
 -23   3  -4 51.8887 30.3997   9
  23 -20   4 52.4442 23.4304   6
  20 -23   4 35.4983 29.3977   6
  -3 -20  -4 31.4885 26.0582   7
   3 -23  -4 52.0542 28.8420   7
 -20  -3  -5 27.9913 30.0378  10
 -23   3  -5 37.4478 27.6861  10
 -20  -3  -5 5.74087 28.1230   9
 -23   3  -5 22.2265 29.2466   9
  -3 -20  -5-0.19899 27.7864   8
  23 -20   5 23.4412 21.3917   6
  20 -23   5-5.25259 27.8627   6
  -3 -20  -5 22.6514 23.5378   7
   3 -23  -5 45.4540 28.9113   7
 -20  -3  -6 41.4922 31.2373  10
 -23   3  -6 43.5407 29.1636  10
 -20  -3  -6 17.3310 28.1608   9
 -23   3  -6 12.0552 28.5647   9
   3 -23  -6 6.33330 22.6877   8
  -3 -20  -6 97.5587 31.1843   8
  23 -20   6 40.1688 20.7014   6
  20 -23   6 32.8067 27.4482   6
  -3 -20  -6 30.9327 22.8787   7
   3 -23  -6 50.7153 28.7104   7
 -20  -3  -7 46.3165 29.4562  10
 -20  -3  -7-4.12134 24.9982   9
 -23   3  -7-2.52266 25.2601   9
  23 -20   7 9.39122 18.1442   6
   3 -23  -7 37.2080 21.6846   8
  -3 -20  -7-24.3752 28.6671   8
  20 -23   7 30.9524 24.9433   6
  -3 -20  -7-2.09217 19.7336   7
   3 -23  -7 19.5195 25.8900   7
  20 -23  -8-5.37049 17.5523   7
 -20  -3  -8 16.1325 29.0944  10
 -23   3  -8 14.6197 22.7717   9
  20 -23   8 15.5783 22.3247   6
   3 -23  -8 8.03809 20.1516   8
  -3 -20  -8 21.2229 26.6016   8
  -3 -20  -8 10.9860 18.5953   7
   3 -23  -8 22.7106 23.9377   7
  20 -23  -9 8.88550 16.4150   7
 -20  -3  -9 8.80038 25.1248  10
  20 -23   9 0.08664 19.0735   6
   3 -23  -9-19.3032 19.0912   8
  -3 -20  -9 15.3467 23.9426   8
   3 -23  -9 10.6913 20.9313   7
  20 -23 -10-1.60592 15.1911   7
 -20  -3 -10 33.2475 22.6933  10
  20 -23  10-5.62295 15.8721   6
   3 -23 -10-10.5949 16.4727   8
  -3 -20 -10-0.75216 21.6061   8
   3 -23 -10 2.54267 17.5851   7
  20 -23 -11 7.81372 13.2821   7
 -20  -3 -11-18.5336 18.8261  10
 -23   3 -11-7.57150 20.0161  10
  20 -23  11 2.22144 11.5461   6
   3 -23 -11-13.6063 14.0764   8
  -3 -20 -11-6.00027 17.8301   8
   3 -23 -11-24.0077 15.0508   7
  20 -23 -12-12.2198 11.1807   7
  23 -20 -12 0.00548 9.92474   7
 -20  -3 -12-19.0518 15.4583  10
 -23   3 -12 3.19901 16.7435  10
  20 -23  12-4.26458 8.74171   6
   3 -23 -12-4.20374 11.5096   8
  -3 -20 -12 5.92742 14.4906   8
   3 -23 -12-4.83944 10.9772   7
 -23   3 -13-6.40302 11.9535  10
  -3 -20 -13-1.93346 10.6863   8
 -21  -2   0 67.2634 30.6612  10
 -21  -2   0 53.4766 29.2709   9
 -23   2   0 49.1201 29.9451   9
   2 -23   0 87.5684 30.3861   7
 -21  -2   1 66.5303 25.9478  10
 -21  -2  -1 64.7425 30.7747  10
 -21  -2   1 100.996 29.1166   9
 -21  -2  -1 128.934 32.3894   9
 -23   2   1 97.2133 30.5653   9
 -23   2  -1 108.710 31.6897   9
  -2 -21  -1 138.138 32.0365   7
   2 -23  -1 83.4501 30.5450   7
 -21  -2  -2 80.9736 31.7659  10
 -21  -2   2 65.6635 26.4349   9
 -21  -2  -2 105.639 31.6775   9
 -23   2   2 89.2913 28.5225   9
 -23   2  -2 75.9137 30.5107   9
  -2 -21  -2 86.0497 29.4275   7
   2 -23  -2 49.9346 29.6998   7
 -21  -2  -3 56.6476 31.8574  10
 -23   2  -3 89.0819 28.0200  10
 -21  -2  -3 106.740 32.0739   9
 -23   2   3 44.2012 24.4765   9
 -23   2  -3 99.3876 32.0867   9
  -2 -21  -3 65.5660 28.5648   7
   2 -23  -3 100.659 32.1552   7
 -21  -2  -4 35.6776 30.5251  10
 -23   2  -4 19.2083 26.9454  10
 -21  -2  -4 50.2661 30.7495   9
 -23   2  -4 55.2636 30.7267   9
  23 -21   4 52.7989 24.1593   6
  21 -23   4 30.2100 28.8327   6
  -2 -21  -4 12.4495 25.9684   7
   2 -23  -4 50.2943 29.2363   7
 -21  -2  -5 40.2470 30.9825  10
 -23   2  -5 9.72197 27.1729  10
 -21  -2  -5 33.3465 29.2881   9
 -23   2  -5 50.3482 29.6268   9
  23 -21   5 21.5773 22.3178   6
  21 -23   5 73.7903 27.2820   6
  -2 -21  -5 43.1073 25.0620   7
   2 -23  -5 20.6636 27.7922   7
 -21  -2  -6 58.1053 30.8867  10
 -23   2  -6 29.4709 27.9897  10
 -21  -2  -6 78.2513 29.1941   9
 -23   2  -6 39.5608 28.1883   9
  -2 -21  -6 34.5483 28.4922   8
  23 -21   6 17.3505 20.3173   6
  21 -23   6 69.6426 25.7781   6
  -2 -21  -6 42.0633 23.7916   7
   2 -23  -6 74.0057 27.8141   7
 -21  -2  -7 68.4600 30.3424  10
 -23   2  -7 44.7655 28.0767  10
 -21  -2  -7 32.2745 25.4518   9
 -23   2  -7 77.8233 25.9204   9
  23 -21   7 53.3804 19.0250   6
   2 -23  -7 41.4381 22.1787   8
  -2 -21  -7 31.2842 26.2494   8
  21 -23   7 75.5948 23.4140   6
  -2 -21  -7 48.1788 20.9898   7
   2 -23  -7 61.6429 25.2357   7
 -21  -2  -8-9.78538 28.0079  10
 -23   2  -8 20.2782 26.8255  10
 -21  -2  -8-7.10867 22.1689   9
 -23   2  -8 14.5443 22.3756   9
  23 -21   8 16.5732 15.9430   6
  21 -23   8 3.34841 19.9618   6
   2 -23  -8 6.97737 20.1758   8
  -2 -21  -8-4.65957 24.1303   8
  -2 -21  -8-2.42981 17.7012   7
   2 -23  -8 10.3162 22.3288   7
  21 -23  -9 23.0728 14.9782   7
 -21  -2  -9 32.1839 25.6860  10
 -23   2  -9 31.8822 25.2714  10
  23 -21   9 13.6751 13.2300   6
  21 -23   9 3.30602 16.8692   6
   2 -23  -9 18.7542 18.9751   8
  -2 -21  -9 23.3756 22.3638   8
   2 -23  -9-5.67871 19.5583   7
  21 -23 -10 12.8113 13.4918   7
 -21  -2 -10 2.07618 20.9039  10
 -23   2 -10 34.7220 22.1742  10
  21 -23  10-3.98517 14.0579   6
   2 -23 -10-0.29555 16.1022   8
  -2 -21 -10 13.4273 19.4796   8
   2 -23 -10 30.2841 16.3123   7
  21 -23 -11 5.43089 11.5465   7
 -21  -2 -11 13.0811 17.5781  10
 -23   2 -11 0.27826 18.2261  10
  21 -23  11 9.53558 9.72041   6
   2 -23 -11 0.88452 13.4982   8
  -2 -21 -11 24.1242 16.5145   8
   2 -23 -11 3.12292 10.2043   7
  21 -23 -12-11.5759 9.86214   7
 -21  -2 -12 10.3121 13.9914  10
 -23   2 -12-13.1340 15.0716  10
  21 -23  12-1.80883 7.34657   6
  -2 -21 -12-15.5499 13.0228   8
 -22  -1   0 403.718 38.2645   9
 -23   1   0 330.703 37.3596   9
   1 -23   0 361.232 37.8552   7
 -23   1  -1 131.377 30.8834  10
 -22  -1  -1 126.135 33.4646  10
 -22  -1  -1 285.045 36.8953   9
 -22  -1   1 238.410 33.5170   9
 -23   1   1 242.432 34.9269   9
 -23   1  -1 203.791 36.0391   9
  -1 -22  -1 177.139 35.4223   7
   1 -23  -1 239.319 35.4985   7
 -22  -1  -2 134.499 33.2720  10
 -23   1  -2 151.999 32.1832  10
 -22  -1   2 114.738 29.4285   9
 -22  -1  -2 137.073 34.1027   9
 -23   1   2 110.778 30.9560   9
 -23   1  -2 173.134 35.0255   9
  -1 -22  -2 326.501 35.7887   7
   1 -23  -2 289.294 37.0105   7
  23 -22   3 343.363 32.1210   6
  22 -23   3 251.991 33.7507   6
 -22  -1  -3 180.164 34.8390  10
 -23   1  -3 164.136 32.0561  10
 -22  -1   3 222.265 30.0800   9
 -23   1  -3 274.089 37.5926   9
 -22  -1  -3 215.199 35.5346   9
 -23   1   3 158.273 28.7144   9
   1 -23  -3 331.252 35.5008   7
  -1 -22  -3 233.586 33.2584   7
 -22  -1  -4 125.805 32.8756  10
 -23   1  -4 113.151 30.0207  10
 -22  -1  -4 166.561 34.0816   9
 -23   1  -4 164.208 33.6734   9
  23 -22   4 152.622 26.9811   6
  22 -23   4 172.842 30.4048   6
  -1 -22  -4 163.814 30.8349   7
   1 -23  -4 147.833 31.9745   7
 -22  -1  -5 104.953 32.3173  10
 -23   1  -5 98.9428 30.3151  10
 -22  -1  -5 104.889 31.7172   9
 -23   1  -5 70.1858 30.5409   9
  23 -22   5 139.026 25.5710   6
  22 -23   5 107.965 27.1382   6
  -1 -22  -5 95.4592 27.0491   7
   1 -23  -5 101.167 29.5276   7
 -22  -1  -6 53.8830 30.5097  10
 -23   1  -6 62.5155 28.8172  10
 -22  -1  -6 29.0631 28.2364   9
 -23   1  -6 34.0990 28.0214   9
  23 -22   6 95.2224 22.6353   6
  22 -23   6 62.8108 24.6982   6
  -1 -22  -6 99.9904 26.0458   7
   1 -23  -6 74.1865 27.6418   7
 -22  -1  -7 111.086 30.2454  10
 -23   1  -7 109.505 29.9481  10
 -22  -1  -7 114.664 27.2867   9
 -23   1  -7 44.5146 25.3692   9
  23 -22   7 76.4242 19.8081   6
  -1 -22  -7 39.1876 25.0753   8
  22 -23   7 67.3894 21.8333   6
  -1 -22  -7 76.7609 22.5639   7
   1 -23  -7 74.2396 25.0244   7
 -22  -1  -8 31.1530 26.4014  10
 -23   1  -8 45.2073 26.3889  10
 -22  -1  -8 74.5381 22.5199   9
 -23   1  -8 35.4130 21.7124   9
  23 -22   8 14.7593 16.5467   6
  22 -23   8 24.2194 18.3281   6
   1 -23  -8 20.9122 20.9486   8
  -1 -22  -8 21.2584 22.9207   8
  -1 -22  -8 19.4591 18.3498   7
   1 -23  -8 42.8250 21.0209   7
 -22  -1  -9-8.09637 23.4021  10
 -23   1  -9 53.0004 23.8252  10
  23 -22   9 4.93552 13.4513   6
  22 -23   9 14.9484 14.9279   6
   1 -23  -9 6.76543 18.2364   8
  -1 -22  -9 24.3143 20.4309   8
  -1 -22  -9 9.44948 14.5951   7
   1 -23  -9 14.3484 17.0428   7
 -22  -1 -10 10.9031 19.6048  10
 -23   1 -10 1.61949 20.5337  10
  23 -22  10 5.49098 9.72009   6
  22 -23  10 3.32789 11.2348   6
   1 -23 -10 4.55053 15.6455   8
  -1 -22 -10 2.12983 16.9621   8
   1 -23 -10 19.7859 13.8915   7
  22 -23 -11 0.98475 9.78424   7
 -22  -1 -11 28.3105 16.7067  10
 -23   1 -11 8.28391 16.7142  10
  22 -23  11 4.26533 8.05617   6
  -1 -22 -11 15.8898 14.1871   8
 -22  -1 -12 6.92346 13.3675  10
 -23   1 -12 8.69459 13.1023  10
 -23   0   0 25.5906 30.0225   9
 -23   0   1 15.3221 28.2027   9
 -23   0  -1 64.2233 28.2493  10
 -23   0  -1 3.22764 30.3743   9
   0 -23  -1-3.90032 29.9955   7
 -23   0  -2 34.3437 28.7067  10
 -23   0   2 28.0000 26.5889   9
 -23   0  -2 35.9992 31.4244   9
   0 -23  -2 7.18433 29.0742   7
 -23   0  -3 4.71632 28.3229  10
 -23   0   3 27.3561 24.8826   9
 -23   0  -3-13.0548 30.9037   9
  23 -23   3-28.1548 27.0388   6
   0 -23  -3 8.29716 27.4104   7
 -23   0  -4 56.2593 29.3104  10
 -23   0  -4 1.33072 30.0576   9
  23 -23   4-4.26932 25.0520   6
   0 -23  -4 28.8688 27.0140   7
 -23   0  -5 33.5004 27.9766  10
 -23   0  -5 14.7017 28.2031   9
  23 -23   5-1.90833 22.8574   6
   0 -23  -5 0.31203 24.7548   7
 -23   0  -6 63.0302 28.6633  10
 -23   0  -6 76.6226 27.2914   9
  23 -23   6-3.13720 20.8530   6
   0 -23  -6 4.06171 22.4874   7
 -23   0  -7 19.1538 25.8960  10
 -23   0  -7-13.5789 23.3517   9
  23 -23   7 4.42205 17.8924   6
   0 -23  -7 11.0844 20.1725   7
 -23   0  -8-27.5573 24.5565  10
 -23   0  -8 28.0472 19.8308   9
  23 -23   8-6.53378 15.1775   6
   0 -23  -8 8.53599 16.7945   7
 -23   0  -9 7.42985 21.7269  10
  23 -23   9-10.4164 12.9121   6
   0 -23  -9-6.71844 14.3641   7
 -23   0 -10 0.99640 18.2999  10
  23 -23  10-5.76618 9.51713   6
   0 -23 -10-2.60615 11.0164   7
 -23   0 -11-20.2765 14.9847  10
 -12 -12   0 1469.54 56.7270  10
 -24  12   0 1503.87 60.0761   9
 -12 -12   1 1350.71 53.5402  10
 -12 -12  -1 1479.54 54.6927  10
  12 -24  -1 1244.26 184.879   4
 -24  12   1 1572.61 59.1058   9
 -24  12  -1 1594.92 59.7699   9
  12 -24  -1 1275.32 42.5811   7
  12 -24   2 1578.85 49.1638   6
 -12 -12   2 1239.81 53.4734  10
 -12 -12  -2 1364.29 53.3348  10
 -24  12   2 1407.40 55.4595   9
 -24  12  -2 1403.19 57.2469   9
  12 -24  -2 1175.18 42.0889   7
  12 -24  -2 1120.73 179.666   4
  12 -24   3 1393.59 46.8230   6
 -12 -12   3 1100.54 52.3508  10
 -12 -12  -3 1177.76 49.0492  10
 -24  12   3 1120.15 50.3273   9
 -24  12  -3 1345.97 57.1177   9
  12 -24  -3 1139.39 42.0968   7
  12 -24   4 1213.54 44.2664   6
 -12 -12  -4 1010.69 46.4830  10
 -24  12   4 1144.30 48.8842   9
 -24  12  -4 1190.78 53.0081   9
  12 -24  -4 1066.51 40.8764   7
  12 -24   5 1262.69 44.3989   6
 -12 -12  -5 1059.47 45.3440  10
 -24  12  -5 1300.21 53.7449   9
 -12 -12  -5 1146.33 47.3139   8
  12 -24  -5 1057.48 40.6623   7
 -12 -12  -6 590.555 36.8850  10
 -24  12  -6 708.268 43.0324   9
 -12 -12  -6 626.374 38.7199   8
  12 -24  -6 663.232 36.4585   7
  12 -24   7 407.757 31.3225   6
 -12 -12  -7 300.674 29.8673  10
 -24  12  -7 386.579 35.1595   9
 -12 -12  -7 348.690 32.4825   8
  12 -24  -7 427.688 31.6918   7
 -24  12  -8 203.776 27.6738   9
 -12 -12  -8 156.551 24.8481  10
  12 -24   8 226.110 26.6706   6
 -12 -12  -8 172.431 25.9765   8
  12 -24  -8 255.942 28.5086   7
  12 -24  -9 217.584 27.4779   7
 -12 -12  -9 138.573 23.1335  10
  12 -24   9 137.942 23.2743   6
 -12 -12  -9 152.929 24.8482   8
  12 -24 -10 98.3072 24.0747   7
  12 -24  10 73.2076 19.4784   6
 -12 -12 -10 86.9410 21.1867   8
  12 -24 -11 14.2760 19.0327   7
  12 -24  11 21.6167 14.8409   6
 -12 -12 -11 22.1020 17.4312   8
  12 -24 -12 33.6987 16.5204   7
  12 -24  12 2.92374 12.3171   6
 -12 -12 -12-1.34246 11.9312   8
  12 -24 -13 27.8382 12.3811   7
  12 -24  13 9.49396 10.3713   6
 -12 -12 -13-3.28445 11.1943   8
  24 -13   0 1919.72 221.012   4
 -11 -13   0 2522.18 69.7233  10
 -13 -11   0 2456.86 70.7049  10
  13 -24   0 1796.47 217.573   4
  11 -24   0 1931.87 221.126   4
 -24  11   0 2779.51 74.1587   9
 -24  13   0 2745.26 74.6051   9
  11 -24   0 2345.99 56.5806   7
  24 -13  -1 1570.06 199.763   4
 -11 -13   1 1891.64 61.9674  10
 -13 -11   1 1747.57 58.9302  10
 -11 -13  -1 1792.73 58.2915  10
 -13 -11  -1 1726.56 59.0119  10
  13 -24  -1 1491.24 205.050   4
 -24  11   1 1906.57 63.1776   9
 -24  11  -1 1953.80 64.5818   9
 -24  13   1 1933.86 64.0028   9
 -24  13  -1 1924.08 64.7554   9
  11 -24  -1 1553.47 47.2684   7
  11 -24  -1 1106.23 177.884   4
  24 -13   2 1565.40 196.721   4
  24 -13  -2 1833.30 218.652   4
  11 -24   2 1607.83 48.7001   6
 -11 -13   2 2129.55 65.6721  10
 -13 -11   2 2160.68 64.8126  10
 -11 -13  -2 2282.34 64.1837  10
 -13 -11  -2 2279.34 65.7013  10
  13 -24   2 2454.58 60.5680   6
  13 -24  -2 1644.16 219.279   4
  11 -24  -2 2082.18 233.042   4
 -24  11   2 2348.82 67.4272   9
 -24  11  -2 2492.26 70.4898   9
 -24  13   2 2240.05 67.9758   9
 -24  13  -2 2502.25 71.9973   9
  11 -24  -2 2090.44 53.9095   7
  13 -24  -2 2067.00 51.3572   7
  11 -24   3 2052.09 53.7506   6
  13 -24   3 2108.28 57.6863   6
 -13 -11   3 1595.34 59.3082  10
 -11 -13  -3 1882.97 58.1688  10
 -13 -11  -3 1871.43 60.4610  10
 -24  11   3 1914.85 60.7686   9
 -24  11  -3 2097.87 65.7124   9
 -24  13   3 1896.19 62.2855   9
 -24  13  -3 2131.27 66.6962   9
  11 -24  -3 1840.70 51.0854   7
  13 -24  -3 1654.14 48.0545   7
  11 -24   4 1385.11 45.0614   6
  13 -24   4 1442.23 47.8077   6
 -11 -13  -4 1170.40 47.0601  10
 -13 -11  -4 1166.20 49.4444  10
 -24  11  -4 1428.14 56.0908   9
 -24  13   4 982.346 45.9965   9
 -24  13  -4 1353.59 56.2701   9
  11 -24  -4 1199.29 43.1839   7
  13 -24  -4 1184.09 40.9928   7
  11 -24   5 1193.19 41.5389   6
  13 -24   5 1156.17 43.6172   6
 -11 -13  -5 1084.31 45.2609  10
 -13 -11  -5 976.388 44.6999  10
 -24  11  -5 1179.26 51.9244   9
 -24  13  -5 1130.07 50.8523   9
 -13 -11  -5 650.067 36.0218   8
 -11 -13  -5 912.130 45.1403   8
  11 -24  -5 934.695 40.9654   7
  13 -24  -5 961.846 38.9234   7
  11 -24   6 1005.00 40.3235   6
  13 -24   6 974.332 40.1233   6
 -11 -13  -6 906.933 40.8239  10
 -13 -11  -6 784.580 41.6372  10
 -24  11  -6 988.931 47.1174   9
 -24  13  -6 1036.75 48.5965   9
 -11 -13  -6 878.866 44.3992   8
  11 -24  -6 1014.70 41.0045   7
  13 -24  -6 948.619 39.0685   7
  11 -24   7 654.439 33.6071   6
  13 -24   7 748.332 36.8303   6
 -11 -13  -7 507.575 32.6518  10
 -13 -11  -7 554.875 35.4441  10
 -24  11  -7 672.221 39.7432   9
 -24  13  -7 590.192 38.5981   9
 -13 -11  -7 565.241 34.8774   8
 -11 -13  -7 601.668 38.1201   8
  11 -24  -7 705.517 36.5385   7
  13 -24  -7 613.874 34.5275   7
  11 -24   8 318.084 27.4891   6
  13 -24   8 305.585 28.5168   6
 -11 -13  -8 291.657 26.6681  10
 -13 -11  -8 239.018 27.0159  10
 -24  11  -8 286.233 29.5523   9
 -24  13  -8 307.538 29.7869   9
 -13 -11  -8 292.831 27.3596   8
 -11 -13  -8 313.396 30.4598   8
  11 -24  -8 376.203 30.7192   7
  13 -24  -8 355.033 29.4944   7
  11 -24   9 327.699 24.9317   6
  13 -24   9 307.768 26.5033   6
 -13 -11  -9 267.508 25.8370  10
 -13 -11  -9 274.953 26.4000   8
 -11 -13  -9 301.856 29.2084   8
  11 -24  -9 344.850 30.0997   7
  13 -24  -9 336.661 28.7714   7
  11 -24  10 225.164 20.3938   6
  13 -24  10 259.787 22.8150   6
 -13 -11 -10 181.322 21.9505  10
 -13 -11 -10 237.182 23.2605   8
 -11 -13 -10 228.070 25.6281   8
  11 -24 -10 295.895 27.4942   7
  13 -24 -10 276.502 26.7675   7
  11 -24 -11 91.5951 20.8247   7
  13 -24 -11 109.910 21.2064   7
  11 -24  11 77.8269 15.2581   6
  13 -24  11 79.1139 16.5560   6
 -11 -13 -11 69.2179 18.8968   8
  11 -24 -12 57.7441 16.6165   7
  13 -24 -12 78.5736 16.7638   7
  11 -24  12-12.5145 12.5501   6
  13 -24  12 14.8338 12.9370   6
 -11 -13 -12 35.3567 15.8503   8
  13 -24 -13 36.1892 12.4169   7
  11 -24  13 0.00492 10.2964   6
  13 -24  13 4.23404 10.3007   6
 -11 -13 -13 26.6838 11.0323   8
  11 -24 -13 17.2714 12.6186   7
 -10 -14   0 846.683 46.9243  10
 -14 -10   0 709.386 45.7546  10
 -24  10   0 960.130 48.9830   9
 -24  14   0 914.464 49.5749   9
  24 -14   0 624.978 148.278   4
  10 -24   0 721.778 37.0275   7
  14 -24   0 754.256 152.535   4
  10 -24  -1 47.8162 96.8380   4
 -10 -14   1 384.249 39.4277  10
 -10 -14  -1 361.244 36.4939  10
 -14 -10   1 321.907 39.0381  10
 -14 -10  -1 337.291 37.6943  10
 -24  10  -1 378.480 39.5918   9
 -24  14   1 390.353 40.1004   9
 -24  14  -1 322.269 39.4963   9
  24 -14   1 158.628 99.2849   4
  24 -14  -1 231.529 107.593   4
 -24  10   1 282.625 36.4081   9
  10 -24   1 260.639 27.2854   7
  10 -24  -1 297.780 30.4713   7
  14 -24  -1 261.975 101.913   4
  10 -24  -2 426.274 130.388   4
 -10 -14   2 763.945 46.1147  10
 -14 -10   2 709.427 46.0763  10
 -10 -14  -2 714.440 43.4070  10
 -14 -10  -2 749.868 46.2454  10
  24 -14   2 400.534 121.328   4
 -24  10   2 691.700 43.2941   9
 -24  10  -2 791.034 47.4827   9
 -24  14   2 835.340 46.7126   9
 -24  14  -2 907.159 49.7648   9
  24 -14  -2 322.546 126.453   4
  10 -24  -2 767.545 38.8847   7
  14 -24  -2 535.697 134.988   4
  10 -24   3 286.208 27.8814   6
  14 -24   3 545.306 38.0131   6
 -14 -10   3 354.088 40.1900  10
 -10 -14  -3 511.804 37.9193  10
 -14 -10  -3 454.434 39.4561  10
 -24  10   3 380.531 35.9451   9
 -24  10  -3 511.313 42.0483   9
 -24  14   3 433.353 38.1109   9
 -24  14  -3 517.586 43.5286   9
  10 -24  -3 443.741 32.7939   7
  14 -24  -3 420.733 28.9274   7
  14 -24   4 361.268 33.4430   6
 -10 -14  -4 343.676 33.3232  10
 -14 -10  -4 257.388 35.9842  10
 -24  10  -4 282.108 37.4797   9
 -24  14  -4 280.807 38.7185   9
  10 -24   4 162.372 25.2381   6
  10 -24  -4 258.994 30.0462   7
  14 -24  -4 223.213 26.1250   7
  14 -24  -5 163.355 25.8684   7
  10 -24   5 333.434 29.1934   6
 -10 -14  -5 276.016 31.4227  10
 -14 -10  -5 200.369 32.8069  10
 -24  10  -5 232.566 34.8838   9
 -24  14  -5 228.453 36.0167   9
 -10 -14  -5 303.198 34.9713   8
  14 -24   5 219.488 31.6608   6
  10 -24  -5 207.487 29.2368   7
  14 -24  -6 206.830 26.6853   7
 -10 -14  -6 214.762 28.0522  10
 -14 -10  -6 214.255 31.5101  10
 -24  10  -6 178.857 32.4296   9
 -24  14  -6 167.020 32.9575   9
  10 -24   6 192.791 26.8334   6
 -10 -14  -6 178.411 31.5351   8
  14 -24   6 234.511 31.1089   6
  10 -24  -6 275.456 30.3275   7
  14 -24  -7 193.066 26.9974   7
  10 -24   7 221.907 26.2207   6
 -10 -14  -7 171.787 25.5876  10
 -14 -10  -7 169.344 29.0650  10
 -24  10  -7 200.432 30.8191   9
 -24  14  -7 177.861 30.8112   9
  14 -24   7 198.478 29.7695   6
 -10 -14  -7 187.041 30.4829   8
  10 -24  -7 258.781 29.9818   7
  10 -24  -8 86.5621 26.6975   7
  14 -24  -8 85.3125 24.4828   7
 -14 -10  -8 93.4214 25.4056  10
 -24  10  -8 38.0058 23.2822   9
  10 -24   8 68.4711 21.3322   6
 -24  14  -8 35.5324 23.2998   9
  14 -24   8 74.3161 25.9671   6
 -10 -14  -8 63.3828 26.7082   8
  10 -24  -9 93.8769 26.4454   7
  14 -24  -9 61.1590 22.9370   7
  10 -24   9 44.7729 18.6876   6
  14 -24   9 46.4232 23.2752   6
 -14 -10  -9 70.7378 22.8777  10
 -10 -14  -9 78.2952 25.2283   8
  10 -24 -10 74.1975 22.9647   7
  14 -24 -10 99.0871 22.7564   7
 -14 -10 -10 56.7939 20.1379  10
  10 -24  10 41.2656 16.2225   6
  14 -24  10 59.4368 20.0029   6
 -10 -14 -10 31.2136 21.8929   8
  10 -24 -11 23.5328 18.7671   7
  14 -24 -11 39.7715 19.1753   7
  10 -24  11 9.37872 13.2667   6
  14 -24  11 25.9393 15.9374   6
 -10 -14 -11 24.3748 18.4735   8
  14 -24 -12 10.3000 15.5852   7
  10 -24  12-11.4405 12.1431   6
  14 -24  12 11.5444 12.2434   6
 -10 -14 -12 11.2700 15.1579   8
  10 -24 -12 27.6887 15.6466   7
  14 -24 -13 14.7780 12.2509   7
  10 -24  13 2.35156 10.0870   6
  14 -24  13 6.21769 9.98627   6
 -10 -14 -13 9.51882 12.1081   8
  10 -24 -13 2.46514 12.3060   7
  -9 -15   0 507.559 39.2641  10
 -15  -9   0 461.587 41.5214  10
 -24   9   0 525.699 41.6127   9
   9 -24   0 458.923 32.7573   7
  -9 -15   1 316.928 38.3053  10
  -9 -15  -1 354.669 35.5554  10
 -15  -9   1 347.500 37.9410  10
 -15  -9  -1 360.971 38.5160  10
  24 -15   1-82.3218 87.8740   4
  24 -15  -1-72.6324 95.5791   4
 -24   9   1 235.847 35.3263   9
 -24   9  -1 244.885 36.2768   9
   9 -24   1 247.338 27.8595   7
   9 -24  -1 305.986 31.0230   7
  15 -24  -1 131.567 97.1279   4
 -15  -9   2 477.822 42.0383  10
  -9 -15  -2 563.452 40.1966  10
 -15  -9  -2 584.050 41.6023  10
 -24   9   2 402.704 38.2913   9
 -24   9  -2 518.104 41.7861   9
   9 -24   2 341.865 28.1575   7
   9 -24  -2 528.810 36.3965   7
  15 -24   3 288.529 33.5810   6
 -15  -9   3 261.210 36.1072  10
  -9 -15  -3 309.260 32.5740  10
 -15  -9  -3 233.863 35.2402  10
 -24   9   3 190.570 31.6401   9
 -24   9  -3 256.387 37.1347   9
 -24  15   3 156.098 31.5176   9
 -24  15  -3 272.747 38.8143   9
   9 -24  -3 307.637 31.0781   7
  15 -24   4 344.706 34.1448   6
  -9 -15  -4 292.146 31.0801  10
 -15  -9  -4 272.341 35.5445  10
 -15  -9   4 232.673 36.3851  10
 -24   9  -4 310.187 37.5014   9
 -24  15  -4 265.811 37.8868   9
 -24  15   4 119.330 25.3041   9
  -9 -15  -4 302.848 35.4415   8
   9 -24  -4 289.090 30.4708   7
  15 -24  -4 196.969 24.4118   7
  15 -24  -5 136.286 23.7598   7
   9 -24   5 320.212 26.8109   6
  15 -24   5 283.544 32.7990   6
  -9 -15  -5 175.774 27.5663  10
 -15  -9  -5 150.149 32.4596  10
 -24   9  -5 165.580 33.4750   9
 -24  15  -5 128.569 34.2200   9
  -9 -15  -5 197.058 32.4318   8
   9 -24  -5 204.421 29.7633   7
  15 -24  -6 88.8876 23.0941   7
  -9 -15  -6 35.7285 22.8788  10
 -15  -9  -6 76.1796 29.2047  10
 -24   9  -6 65.7358 29.3197   9
 -24  15  -6 68.3331 30.0857   9
  -9 -15  -6 87.1176 29.1948   8
  15 -24   6 83.1121 28.7715   6
   9 -24  -6 91.5975 27.5948   7
   9 -24  -7 119.405 28.1838   7
  15 -24  -7 102.722 23.9333   7
 -15  -9  -7 134.753 28.7270  10
 -24   9  -7 56.0306 27.7434   9
   9 -24   7 147.572 23.2613   6
 -24  15  -7 59.6092 26.9062   9
  15 -24   7 132.824 28.2211   6
  -9 -15  -7 125.986 29.5462   8
   9 -24  -8 107.540 27.3657   7
  15 -24  -8 94.0020 23.4701   7
 -15  -9  -8 85.4920 25.3498  10
 -24   9  -8 81.8103 24.6407   9
   9 -24   8 110.535 20.8617   6
  15 -24   8 105.649 25.8703   6
  -9 -15  -8 82.8165 27.3329   8
   9 -24  -9 70.3384 24.8685   7
  15 -24  -9 58.8759 22.5637   7
 -15  -9  -9 72.0210 23.5797  10
   9 -24   9 56.2826 17.3040   6
  15 -24   9 46.8226 23.3535   6
  -9 -15  -9 60.0385 24.8842   8
   9 -24 -10 36.4664 21.9783   7
  15 -24 -10 70.3268 20.8789   7
 -15  -9 -10 59.1040 19.8164  10
   9 -24  10 44.4122 15.1665   6
  15 -24  10 99.5390 21.1372   6
  -9 -15 -10 54.5397 22.3967   8
  15 -24 -11 37.2117 18.0658   7
 -15  -9 -11 35.8972 16.7660  10
   9 -24  11-5.03221 12.9598   6
  15 -24  11 30.5686 15.6326   6
  -9 -15 -11 33.5916 19.1837   8
   9 -24 -11 34.8196 18.6133   7
  15 -24 -12 31.1118 15.4140   7
   9 -24  12-7.62126 11.6237   6
  15 -24  12 0.39067 11.8833   6
  -9 -15 -12 21.4267 15.7912   8
   9 -24 -12 17.7667 14.9739   7
  15 -24 -13 9.88421 11.4342   7
   9 -24  13-22.4127 8.80327   6
  15 -24  13 1.26435 9.75869   6
  -9 -15 -13 11.1075 12.6959   8
   9 -24 -13 6.35336 11.5287   7
  -8 -16   0 99.1130 29.4789  10
 -16  -8   0 26.7127 26.4423   9
 -16  -8   0 62.6358 32.3153  10
 -24   8   0 48.8329 28.8263   9
   8 -24   0 28.4995 24.1110   7
  -8 -16   1 10.7740 28.9661  10
  -8 -16  -1 30.9836 27.1552  10
 -16  -8   1-6.47730 30.3884  10
 -16  -8  -1 12.8235 29.4674  10
 -16  -8  -1-3.85475 26.1313   9
 -24   8   1 23.4283 27.1157   9
 -24   8  -1 2.18124 27.6455   9
   8 -24   1-3.55152 20.8714   7
   8 -24  -1 10.0940 23.9281   7
  -8 -16  -2 71.5201 27.0521  10
 -16  -8   2 97.0432 30.9582  10
 -16  -8  -2 65.1733 30.0991  10
 -16  -8  -2 87.4576 29.0591   9
 -24   8   2 71.4086 26.9391   9
 -24   8  -2 99.9561 30.7351   9
   8 -24   2 53.1755 20.6972   7
   8 -24  -2 78.3630 26.0869   7
 -16  -8   3 8.66101 29.2505  10
  -8 -16  -3-4.42450 24.8151  10
 -16  -8  -3-27.2608 27.9991   9
 -16  -8  -3 5.71445 29.1334  10
 -24   8   3 21.1740 25.7619   9
 -24   8  -3-5.22025 28.9593   9
  16 -24   3 60.9816 28.3654   6
   8 -24  -3 28.0755 25.4769   7
 -16  -8   4 34.4592 30.0051  10
 -16  -8  -4 51.3310 31.0704  10
  -8 -16  -4 5.37952 23.1210  10
 -24   8  -4 12.0695 29.5292   9
  16 -24   4 41.8032 28.9792   6
   8 -24  -4 45.5039 25.8594   7
  16 -24  -5-4.03349 19.0855   7
  -8 -16  -5 44.2592 22.8362  10
 -16  -8  -5 34.8242 30.0503  10
 -24   8  -5-2.71020 28.7161   9
 -24  16  -5 10.8479 30.3623   9
  -8 -16  -5 36.1843 29.7243   8
  16 -24   5 26.5107 27.5274   6
   8 -24  -5 35.7171 25.8125   7
  16 -24  -6 11.0573 20.3450   7
 -16  -8  -6 8.16431 28.4983  10
 -24   8  -6 27.1867 27.3889   9
 -24  16  -6-9.52617 28.4077   9
  -8 -16  -6 8.08754 28.4429   8
  16 -24   6 56.5894 27.1549   6
   8 -24  -6 48.0083 26.2308   7
  16 -24  -7 34.6875 20.9312   7
 -16  -8  -7 18.2591 26.4457  10
 -24   8  -7-10.3756 24.5684   9
   8 -24   7 20.7574 18.5161   6
 -24  16  -7 2.28770 24.6665   9
  16 -24   7-7.73966 25.9798   6
  -8 -16  -7 10.9422 27.1460   8
   8 -24  -7 3.90766 25.6282   7
  16 -24  -8 42.4641 20.8733   7
 -16  -8  -8-15.6577 24.2189  10
 -24   8  -8 33.2615 22.8466   9
   8 -24   8 49.4412 17.0741   6
  16 -24   8 24.9994 24.8815   6
  -8 -16  -8 29.1697 26.4407   8
   8 -24  -8 23.1567 25.1472   7
  16 -24  -9 23.6005 20.3482   7
 -16  -8  -9-8.25337 22.2681  10
   8 -24   9 32.6115 14.8108   6
  16 -24   9 38.5148 23.5752   6
  -8 -16  -9 19.1019 23.5380   8
   8 -24  -9 40.1116 23.7513   7
  16 -24 -10 1.83552 18.3931   7
 -16  -8 -10 13.0801 19.6711  10
   8 -24  10-15.0382 13.6600   6
  16 -24  10 15.0598 20.0010   6
  -8 -16 -10 10.7025 21.4341   8
   8 -24 -10 19.2962 20.8810   7
  16 -24 -11-1.63218 16.2997   7
 -16  -8 -11 3.44761 16.4251  10
   8 -24  11 6.31037 12.3174   6
  16 -24  11 8.28136 15.1135   6
  -8 -16 -11 7.85853 18.3743   8
   8 -24 -11 33.1031 18.1335   7
  16 -24 -12 12.5356 13.7136   7
 -16  -8 -12-12.6231 13.7930  10
   8 -24  12-7.47139 9.57127   6
  16 -24  12 7.42924 11.1737   6
  -8 -16 -12 9.99655 15.4009   8
   8 -24 -12-5.11335 14.2010   7
  16 -24 -13-14.6069 11.2833   7
  16 -24  13-8.14770 9.09893   6
  -8 -16 -13 12.4587 12.2272   8
   8 -24 -13 11.6584 11.0680   7
  -7 -17   0 101.434 29.0681  10
 -17  -7   0 96.3250 30.8368  10
 -17  -7   0 88.0920 27.6782   9
 -24   7   0 48.7475 28.3346   9
   7 -24   0 80.0670 24.9669   7
  -7 -17  -1 19.7509 25.7267  10
 -17  -7   1 10.4107 28.2859  10
 -17  -7  -1 52.5294 30.9104  10
 -17  -7   1 11.5651 24.6046   9
 -17  -7  -1 26.2197 26.8604   9
 -24   7   1-27.4696 26.8048   9
 -24   7  -1 10.3532 28.1231   9
   7 -24   1 2.20285 21.5402   7
   7 -24  -1 15.7010 24.1105   7
  -7 -17  -2 39.8047 25.1290  10
 -17  -7   2 10.3928 28.4512  10
 -17  -7  -2 3.56173 29.1012  10
 -17  -7  -2 22.5828 27.4407   9
 -24   7   2 66.6571 26.6483   9
 -24   7  -2 25.8319 27.3629   9
   7 -24   2 45.2834 21.0187   7
   7 -24  -2 21.7120 25.7977   7
  -7 -17  -3 53.1927 23.8095  10
 -17  -7  -3 33.6563 30.4377  10
 -17  -7  -3 26.7379 28.3230   9
 -24   7   3 76.1870 26.6154   9
 -24   7  -3 33.4860 28.8037   9
 -17  -7   3 45.2410 29.4726  10
  17 -24   3 74.9187 29.1092   6
   7 -24  -3 29.4133 26.6643   7
 -17  -7   4 21.9377 27.7701  10
  -7 -17  -4 105.626 26.0519  10
 -17  -7  -4 25.5653 29.6623  10
 -17  -7  -4 37.5378 27.7031   9
 -24   7  -4 38.4745 28.8233   9
  17 -24   4 46.0747 28.4567   6
   7 -24  -4 50.4333 26.7824   7
 -17  -7  -5 46.3712 30.8505  10
 -24   7  -5 41.9460 28.5916   9
 -24  17  -5 24.7965 29.9842   9
  -7 -17  -5 12.2672 29.2616   8
  17 -24   5 37.6063 27.7439   6
   7 -24  -5 25.8781 26.9010   7
  17 -24  -6 2.92047 18.3072   7
 -17  -7  -6-0.31342 28.7248  10
 -24   7  -6 21.9484 27.1715   9
 -24  17  -6-3.33440 27.7204   9
  -7 -17  -6-5.38052 28.3763   8
  17 -24   6 12.3546 26.6145   6
   7 -24  -6 13.3157 26.2615   7
  17 -24  -7 14.8796 19.6477   7
 -17  -7  -7-3.35300 26.9616  10
 -24   7  -7 4.40011 25.4052   9
 -24  17  -7 30.2440 25.4055   9
  17 -24   7-29.2222 26.9685   6
  -7 -17  -7 1.09085 27.3871   8
   7 -24  -7 17.8060 26.1404   7
  17 -24  -8-1.62989 19.1042   7
 -17  -7  -8 10.4508 25.0957  10
 -24   7  -8-0.10565 22.1053   9
  17 -24   8 3.32738 24.5719   6
  -7 -17  -8 2.66573 25.9259   8
   7 -24  -8 28.0147 24.5424   7
  17 -24  -9 27.5720 18.8519   7
 -17  -7  -9 10.2222 22.5867  10
  17 -24   9-11.6206 22.7408   6
  -7 -17  -9 33.0841 24.8241   8
   7 -24  -9 23.0593 22.8248   7
  17 -24 -10-9.90064 17.4596   7
 -17  -7 -10 4.04121 20.3730  10
   7 -24  10-1.52743 12.5011   6
  17 -24  10 5.87306 18.3122   6
  -7 -17 -10-3.58575 21.3479   8
   7 -24 -10-2.98286 19.7705   7
  17 -24 -11 10.9023 15.3156   7
 -17  -7 -11 4.75315 17.1227  10
  17 -24  11 10.5133 14.0527   6
  -7 -17 -11-7.12921 18.3328   8
   7 -24 -11-8.09588 16.5169   7
  17 -24 -12 3.18472 13.1708   7
 -17  -7 -12 4.00602 13.9180  10
   7 -24  12-2.27528 10.3793   6
  17 -24  12 8.88802 10.4671   6
  -7 -17 -12-2.03423 14.9311   8
   7 -24 -12-29.4541 14.1149   7
  17 -24 -13 7.52338 9.61542   7
  17 -24  13-3.46261 8.60671   6
  -7 -17 -13 12.5070 11.9154   8
   7 -24 -13-2.68150 9.56921   7
 -18  -6   0 21.3386 29.0186  10
 -18  -6   0 53.9965 26.6899   9
 -24   6   0 0.13403 26.2475   9
   6 -24   0-8.68154 23.6650   7
 -18  -6   1 35.9656 24.9198   9
 -18  -6  -1 16.2387 26.0828   9
 -24   6   1 27.7883 26.8077   9
 -24   6  -1 18.8078 26.7738   9
 -18  -6   1 45.1790 30.7352  10
 -18  -6  -1 27.5904 29.9661  10
   6 -24   1 40.1890 23.3883   7
   6 -24  -1 28.2135 25.6737   7
  -6 -18  -2 29.2248 24.5003  10
 -18  -6   2 19.8326 24.0020   9
 -18  -6  -2 45.3395 27.9137   9
 -24   6   2 20.4786 25.1275   9
 -24   6  -2 47.5423 28.9873   9
 -18  -6   2 25.4134 29.2640  10
   6 -24   2 39.6869 22.2961   7
 -18  -6  -2 86.0575 31.0761  10
   6 -24  -2 71.7631 28.1840   7
  -6 -18  -3 12.7035 22.5664  10
 -18  -6   3 13.1305 28.7467  10
 -18  -6  -3 29.1604 30.9861  10
 -18  -6  -3 14.9303 28.0950   9
 -24   6   3-3.88396 22.8668   9
 -24   6  -3 30.0176 29.5196   9
  18 -24   3 17.6125 28.9995   6
   6 -24  -3 27.9261 27.6076   7
 -18  -6   4 119.995 30.7551  10
 -18  -6  -4 36.6468 30.9703  10
 -24   6  -4 46.8211 23.4029  10
 -18  -6  -4 18.5134 28.2780   9
 -24   6  -4 18.6218 28.1392   9
  18 -24   4 36.1892 28.5976   6
  -6 -18  -4 37.9064 22.3729   7
   6 -24  -4 16.6893 26.9043   7
 -18  -6  -5 40.3789 29.9499  10
 -18  -6  -5 22.8095 27.6705   9
 -24   6  -5 77.0951 29.0464   9
  -6 -18  -5 49.7187 28.2656   8
  18 -24   5 27.0048 28.0105   6
  -6 -18  -5 28.4312 19.8273   7
   6 -24  -5 44.3092 27.4676   7
  18 -24  -6-1.15709 17.9781   7
 -18  -6  -6 16.4054 29.7454  10
 -24   6  -6-4.39859 26.9839   9
 -24  18  -6 9.26620 26.8538   9
  -6 -18  -6-7.14663 29.3644   8
  18 -24   6-6.85806 27.7132   6
   6 -24  -6 5.06531 26.8367   7
  18 -24  -7 21.4431 18.3283   7
 -18  -6  -7-6.96346 28.1641  10
 -24   6  -7 38.2734 25.7555   9
 -24  18  -7 40.8340 25.1754   9
  18 -24   7 14.9550 26.0180   6
  -6 -18  -7 18.1339 28.4153   8
   6 -24  -7 42.8904 26.0014   7
  18 -24  -8-10.7296 17.6881   7
 -18  -6  -8-0.52159 25.5188  10
 -24   6  -8 0.50145 22.3553   9
  18 -24   8-10.4983 24.2404   6
  -6 -18  -8 10.1001 26.4174   8
   6 -24  -8 7.99297 23.3790   7
  18 -24  -9 1.56138 17.0603   7
 -18  -6  -9 20.5707 23.3508  10
  18 -24   9-2.92105 21.3608   6
  -6 -18  -9 13.1072 24.2295   8
   6 -24  -9 15.4910 21.7999   7
  18 -24 -10-3.70752 16.1202   7
 -18  -6 -10-5.58213 20.3049  10
  18 -24  10 10.0121 17.5961   6
  -6 -18 -10 5.33375 21.3901   8
   6 -24 -10 1.95359 18.6250   7
  18 -24 -11-4.74753 14.1928   7
 -18  -6 -11 20.5832 17.7974  10
  18 -24  11-1.69045 13.1459   6
  -6 -18 -11-11.8674 18.1522   8
   6 -24 -11 0.00877 15.7763   7
  18 -24 -12 17.3415 12.2905   7
 -18  -6 -12-16.0434 14.2688  10
  18 -24  12 0.92372 9.60521   6
  -6 -18 -12 8.48494 14.8059   8
   6 -24 -12 8.14977 12.5699   7
  18 -24 -13 1.38665 9.19418   7
 -24   6 -13-6.15752 12.2002  10
  18 -24  13 1.29712 7.62123   6
  -6 -18 -13 2.13079 10.8581   8
 -19  -5   0-6.04278 27.2975   9
 -24   5   0 27.6283 27.6125   9
 -19  -5   0-15.7472 30.4040  10
   5 -24   0 57.4642 25.8920   7
 -19  -5   1 41.4996 29.9478  10
 -19  -5  -1 32.8165 29.9156  10
 -19  -5   1 22.4305 25.8429   9
 -19  -5  -1 45.9526 29.4797   9
 -24   5   1-7.60897 27.9467   9
 -24   5  -1 38.1702 28.7910   9
   5 -24   1 23.7037 24.5346   7
   5 -24  -1 29.1984 27.7006   7
 -19  -5   2 12.6906 29.6655  10
 -19  -5  -2 74.3798 32.3819  10
 -19  -5   2 65.5352 25.5620   9
 -19  -5  -2 50.0958 29.9692   9
 -24   5   2 66.9981 27.1590   9
 -24   5  -2 75.0520 30.2770   9
   5 -24  -2 84.8355 29.3301   7
 -19  -5   3 86.9765 30.2764  10
 -19  -5  -3 38.3765 32.6084  10
 -19  -5   3-69.5774 23.0531   9
 -19  -5  -3-7.23006 28.7061   9
 -24   5   3 145.192 28.2026   9
 -24   5  -3 71.4246 30.9974   9
  19 -24   3 37.1275 30.3541   6
  -5 -19  -3 42.6166 25.8608   7
   5 -24  -3-1.08018 28.1805   7
 -19  -5  -4 71.2090 32.9106  10
 -19  -5  -4 42.9690 29.0607   9
 -24   5  -4 15.7714 29.6952   9
  19 -24   4 5.43154 29.2454   6
  -5 -19  -4 4.66401 22.7193   7
   5 -24  -4 29.3387 28.5934   7
 -19  -5  -5 36.6335 31.1306  10
 -24   5  -5 29.8351 24.6451  10
 -19  -5  -5 6.22794 27.8193   9
 -24   5  -5-14.7272 28.5332   9
  19 -24   5 8.59429 28.4207   6
  -5 -19  -5 29.4454 20.9438   7
   5 -24  -5 25.0514 27.4577   7
 -19  -5  -6 20.3338 30.2740  10
 -19  -5  -6 26.9237 27.5021   9
 -24   5  -6 16.9136 28.2110   9
 -24  19  -6-0.03446 27.4795   9
  -5 -19  -6 27.0593 30.1129   8
  19 -24   6-17.4047 28.0219   6
  -5 -19  -6 3.68169 19.9105   7
   5 -24  -6 12.6494 28.1131   7
  19 -24  -7 52.4257 18.2867   7
 -19  -5  -7 2.36034 28.9446  10
 -24   5  -7 36.2247 25.9767   9
 -24  19  -7 18.2398 24.9466   9
  19 -24   7 17.8367 25.5982   6
  -5 -19  -7-13.6457 28.6705   8
   5 -24  -7 3.01247 25.7688   7
  19 -24  -8 14.3687 17.5096   7
 -19  -5  -8 18.7185 27.6374  10
 -24   5  -8 34.3048 22.9175   9
  19 -24   8-9.05869 23.5417   6
   5 -24  -8 29.5052 17.8438   8
  -5 -19  -8 16.5735 27.2594   8
   5 -24  -8 9.23364 24.1355   7
  19 -24  -9 21.2945 16.0197   7
 -19  -5  -9 29.1798 23.8699  10
  19 -24   9 8.34196 19.9023   6
   5 -24  -9 9.80972 15.4784   8
  -5 -19  -9 0.26868 24.0426   8
   5 -24  -9 26.7480 21.2056   7
  19 -24 -10 7.04137 14.9194   7
 -19  -5 -10-1.72157 20.3709  10
  19 -24  10 8.45129 16.0112   6
  -5 -19 -10 5.85911 21.1841   8
   5 -24 -10 5.78960 18.2013   7
  19 -24 -11-0.00704 13.1792   7
 -19  -5 -11 13.0865 17.6173  10
  19 -24  11-8.07980 12.3706   6
  -5 -19 -11 6.61687 17.7052   8
   5 -24 -11-32.3243 15.8835   7
  19 -24 -12-11.0252 11.0337   7
 -19  -5 -12 27.0055 14.1510  10
 -24   5 -12 2.31619 15.3240  10
  19 -24  12-0.71834 9.11909   6
  -5 -19 -12 9.46929 13.9063   8
   5 -24 -12 1.71369 9.46878   7
 -20  -4   0 172.260 35.1387  10
 -20  -4   0 152.710 32.4202   9
 -24   4   0 98.3938 32.1482   9
   4 -24   0 213.271 32.2217   7
 -20  -4   1 126.421 33.5636  10
 -20  -4  -1 161.174 34.7442  10
 -20  -4   1 69.2719 29.1509   9
 -20  -4  -1 101.723 31.8833   9
 -24   4   1 75.1316 31.2036   9
 -24   4  -1 109.725 32.4887   9
   4 -24   1 159.828 29.8472   7
   4 -24  -1 183.095 32.1251   7
 -20  -4   2 154.965 33.8799  10
 -20  -4  -2 177.479 35.5803  10
 -20  -4   2 52.0132 27.7693   9
 -20  -4  -2 137.326 33.0012   9
 -24   4   2 53.1748 29.4447   9
 -24   4  -2 99.8105 33.0231   9
   4 -24  -2 185.785 34.7692   7
 -20  -4   3 115.684 32.1322  10
 -20  -4  -3 104.363 33.6724  10
 -24   4  -3 30.9861 25.8174  10
 -20  -4  -3 87.9753 32.4362   9
 -24   4   3 154.425 28.4122   9
 -24   4  -3 103.992 33.7327   9
  24 -20   3 108.538 24.5214   6
  20 -24   3 123.472 33.3132   6
  -4 -20  -3 134.468 29.2511   7
   4 -24  -3 127.832 32.1898   7
 -20  -4  -4 72.0095 33.1984  10
 -24   4  -4 44.4384 26.0748  10
 -20  -4  -4 55.0447 31.0774   9
 -24   4  -4 65.2165 32.1397   9
  24 -20   4 88.9598 22.7706   6
  20 -24   4 73.9127 31.4971   6
  -4 -20  -4 61.1194 25.5344   7
   4 -24  -4 85.7022 31.4134   7
 -20  -4  -5 122.179 33.5499  10
 -24   4  -5 80.6825 27.5380  10
 -20  -4  -5 45.7343 29.9696   9
 -24   4  -5 36.6220 30.3997   9
  24 -20   5 79.9834 21.1276   6
  20 -24   5 142.331 31.3913   6
  -4 -20  -5 88.3789 24.1033   7
   4 -24  -5 108.967 31.2068   7
 -20  -4  -6 93.0129 32.8269  10
 -24   4  -6 58.6904 27.1455  10
 -20  -4  -6 47.6397 28.5842   9
 -24   4  -6 24.1212 28.4071   9
  -4 -20  -6 109.983 32.0222   8
  20 -24   6 85.3475 27.9085   6
  -4 -20  -6 59.1255 22.0619   7
   4 -24  -6 100.527 29.4220   7
 -24   4  -7 79.2700 27.0165  10
 -24   4  -7 62.6529 26.3576   9
 -24  20  -7 19.6006 24.1361   9
  20 -24   7 54.6200 24.7877   6
  -4 -20  -7 42.2177 28.5143   8
  -4 -20  -7 42.7549 18.8216   7
 -20  -4  -7 36.8803 30.2390  10
   4 -24  -7 70.4706 26.6815   7
  20 -24  -8 42.2420 16.5603   7
 -20  -4  -8 32.7754 28.0709  10
 -24   4  -8 65.4134 26.4451  10
 -24   4  -8-21.1051 22.5393   9
  20 -24   8 54.9350 22.3708   6
   4 -24  -8 11.4770 18.1855   8
  -4 -20  -8 48.5846 26.5518   8
   4 -24  -8 44.7892 23.7968   7
  20 -24  -9 21.2782 14.9644   7
 -20  -4  -9 10.4409 23.3407  10
 -24   4  -9 22.8204 23.6470  10
  20 -24   9 15.4288 18.5054   6
   4 -24  -9 31.4575 16.7274   8
  -4 -20  -9 16.0979 23.0944   8
   4 -24  -9-33.3486 20.4260   7
  20 -24 -10 13.5990 13.4400   7
 -20  -4 -10 7.51506 20.0151  10
 -24   4 -10 17.8157 21.4383  10
  20 -24  10 1.96754 14.8355   6
  -4 -20 -10 15.2159 19.6136   8
   4 -24 -10 15.9012 16.9062   7
  20 -24 -11-4.02630 11.8904   7
 -20  -4 -11-31.4346 17.3792  10
 -24   4 -11 23.3122 18.4324  10
  20 -24  11 2.37274 10.8602   6
  -4 -20 -11 17.8009 16.5167   8
   4 -24 -11 0.00759 13.7881   7
  20 -24 -12 8.82899 9.23405   7
 -20  -4 -12-8.71663 12.5892  10
 -24   4 -12-18.9428 14.4072  10
  20 -24  12 7.51484 8.03699   6
  -4 -20 -12 0.53344 12.6244   8
 -21  -3   0 197.261 35.5648  10
 -21  -3   0 199.711 33.1757   9
 -24   3   0 240.914 34.8130   9
   3 -24   0 224.354 32.9564   7
 -21  -3  -1 171.406 35.0878  10
 -21  -3   1 110.334 30.3637   9
 -21  -3  -1 170.189 32.5928   9
 -24   3   1 131.007 31.0163   9
 -21  -3   1 133.264 32.9268  10
 -24   3  -1 152.378 33.3738   9
   3 -24  -1 173.788 32.4668   7
 -21  -3  -2 150.223 34.9046  10
 -21  -3   2 132.850 28.4748   9
 -21  -3  -2 170.444 33.5237   9
 -24   3   2 142.323 30.6245   9
 -24   3  -2 99.8842 32.5034   9
 -21  -3   2 88.2092 31.1791  10
   3 -24  -2 159.533 33.0967   7
 -21  -3  -3 157.014 35.0621  10
 -24   3  -3 187.233 28.3530  10
 -21  -3   3 136.122 26.8457   9
 -21  -3  -3 161.332 33.8805   9
 -24   3   3 202.750 29.5390   9
 -24   3  -3 138.861 34.1755   9
  24 -21   3 173.998 26.4145   6
  21 -24   3 174.775 33.1064   6
  -3 -21  -3 169.906 30.0816   7
   3 -24  -3 206.240 33.1934   7
 -21  -3  -4 101.269 32.8994  10
 -24   3  -4 98.4602 26.6981  10
 -21  -3  -4 153.424 32.9857   9
 -24   3  -4 99.7718 32.5293   9
  24 -21   4 82.5653 23.2058   6
  21 -24   4 88.2106 29.6386   6
  -3 -21  -4 77.1918 26.3444   7
   3 -24  -4 122.398 31.0900   7
 -21  -3  -5 130.917 33.5470  10
 -24   3  -5 63.4516 27.0246  10
 -21  -3  -5 163.769 32.0432   9
 -24   3  -5 140.303 32.0519   9
  24 -21   5 88.8471 22.0021   6
  21 -24   5 115.353 28.6182   6
  -3 -21  -5 105.488 25.0938   7
   3 -24  -5 132.585 30.7916   7
 -21  -3  -6 115.635 31.7654  10
 -24   3  -6 101.961 27.7908  10
 -21  -3  -6 104.807 29.0253   9
 -24   3  -6 120.555 29.3957   9
  24 -21   6 123.782 19.9086   6
  21 -24   6 120.207 26.9209   6
  -3 -21  -6 94.4260 23.1179   7
   3 -24  -6 116.596 28.7441   7
 -21  -3  -7 51.1398 29.3884  10
 -24   3  -7 45.5697 26.8021  10
 -21  -3  -7 29.8974 24.4539   9
 -24   3  -7 13.0922 23.9630   9
 -24  21  -7 15.9446 22.6533   9
  24 -21   7 7.66476 16.2175   6
  -3 -21  -7 46.6352 26.8048   8
  21 -24   7 33.4536 22.1956   6
  -3 -21  -7 46.9412 19.3236   7
   3 -24  -7 34.5878 25.0011   7
 -21  -3  -8 46.8054 26.6815  10
 -24   3  -8 19.9678 24.4288  10
 -24   3  -8 4.26962 21.6211   9
  21 -24   8 25.1375 19.8736   6
  -3 -21  -8 11.8974 24.0582   8
   3 -24  -8 34.7446 21.3001   7
 -21  -3  -9 23.1439 22.9336  10
 -24   3  -9 8.09297 22.5247  10
  21 -24   9 7.85897 16.2663   6
  -3 -21  -9 14.8409 20.9864   8
   3 -24  -9 1.64886 18.5390   7
  21 -24 -10 16.4572 11.9314   7
 -21  -3 -10 11.9341 19.5791  10
 -24   3 -10 26.8488 20.3206  10
  21 -24  10-6.26373 12.7652   6
  -3 -21 -10 27.3061 18.1196   8
   3 -24 -10 33.1395 15.5117   7
  21 -24 -11-3.50351 9.91892   7
 -21  -3 -11 16.8349 15.7078  10
 -24   3 -11 29.4760 16.7704  10
  21 -24  11 8.20752 9.26180   6
  -3 -21 -11-0.50241 15.1630   8
   3 -24 -11 3.26892 9.80204   7
 -21  -3 -12-1.00950 12.4641  10
 -24   3 -12 2.69718 12.6276  10
 -22  -2   0 992.593 49.6946  10
 -22  -2   0 943.214 46.9014   9
 -24   2   0 904.473 47.2165   9
 -22  -2   1 624.183 41.9994  10
 -22  -2  -1 633.174 42.6192  10
 -22  -2   1 647.802 41.2949   9
 -22  -2  -1 743.276 43.7237   9
 -24   2   1 690.866 42.2481   9
 -24   2  -1 636.473 43.0054   9
   2 -24  -1 759.953 42.6908   7
 -22  -2  -2 435.091 39.6741  10
 -24   2  -2 345.523 33.8160  10
 -22  -2   2 536.498 36.9799   9
 -22  -2  -2 572.133 41.6140   9
 -24   2   2 520.501 37.7739   9
 -24   2  -2 533.133 41.4666   9
   2 -24  -2 677.425 41.3143   7
  24 -22   3 704.463 34.6084   6
  22 -24   3 697.520 39.7143   6
 -22  -2  -3 556.319 41.1536  10
 -24   2  -3 490.083 35.9257  10
 -22  -2   3 514.573 34.7819   9
 -22  -2  -3 670.575 43.0471   9
 -24   2   3 490.922 34.9840   9
 -24   2  -3 588.767 42.2407   9
  -2 -22  -3 630.053 38.0851   7
   2 -24  -3 703.049 40.8360   7
  24 -22   4 402.162 28.4255   6
  22 -24   4 468.139 34.0809   6
 -22  -2  -4 359.514 37.4110  10
 -24   2  -4 313.174 32.0397  10
 -22  -2  -4 458.280 38.6282   9
 -24   2  -4 419.629 38.3864   9
  -2 -22  -4 399.090 33.0481   7
   2 -24  -4 444.835 36.0909   7
  24 -22   5 294.239 25.7288   6
  22 -24   5 358.891 31.2422   6
 -22  -2  -5 422.245 38.4823  10
 -24   2  -5 339.986 32.9084  10
 -22  -2  -5 376.979 36.0402   9
 -24   2  -5 388.834 36.0511   9
  -2 -22  -5 381.138 30.6467   7
   2 -24  -5 424.721 34.6214   7
  24 -22   6 341.245 23.3734   6
  22 -24   6 383.519 29.2487   6
 -22  -2  -6 430.951 36.7041  10
 -24   2  -6 317.567 32.1943  10
 -22  -2  -6 352.714 33.5533   9
 -24   2  -6 365.459 33.4417   9
  -2 -22  -6 345.840 27.5757   7
   2 -24  -6 395.604 32.2671   7
  24 -22   7 193.005 19.0884   6
  22 -24   7 191.379 23.3272   6
 -22  -2  -7 236.867 31.5509  10
 -24   2  -7 161.854 27.5088  10
 -22  -2  -7 214.300 27.5273   9
 -24   2  -7 173.915 27.1050   9
 -24  22  -7 198.414 25.1884   9
   2 -24  -7 229.172 26.9104   7
  -2 -22  -7 170.853 21.2976   7
 -22  -2  -8 135.825 26.5868  10
 -24   2  -8 116.523 25.4152  10
 -24   2  -8 102.380 22.2361   9
  24 -22   8 96.8903 15.3611   6
  22 -24   8 101.699 18.9243   6
  -2 -22  -8 89.6045 17.5307   7
   2 -24  -8 83.8634 20.6354   7
 -22  -2  -9 79.4652 23.1522  10
 -24   2  -9 62.3337 21.9610  10
  22 -24   9 47.5623 14.9883   6
   2 -24  -9 55.8384 17.5786   7
 -22  -2 -10 42.2962 18.5271  10
 -24   2 -10 43.0922 18.6687  10
  22 -24  10 4.80765 10.2672   6
   2 -24 -10 23.2086 13.1899   7
 -22  -2 -11 18.9040 14.6593  10
 -24   2 -11 23.9031 15.3913  10
  22 -24  11-1.96500 7.44276   6
 -23  -1   0 529.901 39.3372   9
 -24   1   0 521.221 39.0204   9
 -23  -1  -1 298.121 34.4357  10
 -23  -1   1 422.216 35.8454   9
 -23  -1  -1 371.744 36.9651   9
 -24   1   1 384.686 35.6684   9
 -24   1  -1 439.360 38.3937   9
   1 -24  -1 370.091 35.4126   7
 -23  -1  -2 366.987 35.3823  10
 -24   1  -2 373.922 33.2795  10
 -23  -1   2 419.844 33.8794   9
 -23  -1  -2 429.046 38.0250   9
 -24   1   2 426.725 34.7772   9
 -24   1  -2 442.822 38.6302   9
   1 -24  -2 498.897 36.7102   7
  24 -23   3 297.622 28.5062   6
  23 -24   3 384.180 32.2686   6
 -23  -1  -3 277.068 33.8385  10
 -24   1  -3 264.266 31.2239  10
 -23  -1   3 289.778 29.9911   9
 -23  -1  -3 380.725 37.7289   9
 -24   1  -3 375.193 37.1276   9
 -24   1   3 260.042 29.0978   9
  -1 -23  -3 333.574 32.0790   7
   1 -24  -3 396.840 33.9981   7
  24 -23   4 297.666 26.4900   6
  23 -24   4 304.928 29.2990   6
 -23  -1  -4 253.211 33.5314  10
 -24   1  -4 238.023 30.4444  10
 -23  -1  -4 340.783 34.9510   9
 -24   1  -4 354.994 35.3207   9
  -1 -23  -4 299.420 29.3077   7
   1 -24  -4 304.381 31.4435   7
 -23  -1  -5 246.591 32.6744  10
 -24   1  -5 210.823 30.4861  10
 -24   1  -5 270.293 32.9984   9
 -23  -1  -5 206.720 31.1662   9
  24 -23   5 170.391 23.0413   6
  23 -24   5 215.736 26.2483   6
  -1 -23  -5 259.381 27.6703   7
   1 -24  -5 219.877 28.1794   7
 -23  -1  -6 90.7543 28.1556  10
 -24   1  -6 126.699 27.5778  10
 -23  -1  -6 130.344 27.4172   9
 -24   1  -6 168.853 28.2342   9
  24 -23   6 115.143 19.9662   6
  23 -24   6 99.2544 21.6687   6
  -1 -23  -6 121.378 22.3311   7
   1 -24  -6 114.950 23.8686   7
 -23  -1  -7 93.2290 26.4200  10
 -24   1  -7 113.160 25.6447  10
 -23  -1  -7 125.080 24.2717   9
 -24   1  -7 121.568 23.9259   9
 -24  23  -7 79.8101 20.9511   9
  24 -23   7 71.7029 16.2049   6
  23 -24   7 109.765 19.1680   6
  -1 -23  -7 67.8493 18.5412   7
   1 -24  -7 90.5818 20.9084   7
 -23  -1  -8 57.9475 23.4573  10
 -24   1  -8 86.9458 23.4913  10
 -24   1  -8 50.7698 19.6986   9
  24 -23   8 32.2865 13.6381   6
  23 -24   8 57.9426 15.5390   6
  -1 -23  -8 47.9557 15.6669   7
   1 -24  -8 75.3780 17.7443   7
 -23  -1  -9 32.7627 20.4964  10
 -24   1  -9 45.9685 19.8383  10
  24 -23   9 9.12785 10.1474   6
  23 -24   9 36.3980 12.5844   6
  -1 -23  -9 25.0386 11.5974   7
   1 -24  -9 23.9029 13.9119   7
 -23  -1 -10 15.4152 16.2503  10
 -24   1 -10 0.84278 15.9668  10
  23 -24  10 2.93393 8.49798   6
   1 -24 -10 10.8404 10.7311   7
 -23  -1 -11-1.50244 12.9893  10
 -24   1 -11-1.29000 12.8285  10
 -24   0   0 588.288 38.5720   9
 -24   0  -1 291.054 31.2981  10
 -24   0   1 362.030 33.7364   9
 -24   0  -1 381.980 36.0153   9
 -24   0  -2 305.528 32.7245  10
  24 -24   2 380.729 31.3468   6
 -24   0   2 378.268 32.2239   9
 -24   0  -2 412.161 37.1937   9
  24 -24   3 399.579 30.2688   6
 -24   0  -3 323.230 32.8631  10
 -24   0   3 375.220 30.3612   9
 -24   0  -3 446.594 38.7879   9
   0 -24  -3 416.582 32.3470   7
  24 -24   4 305.129 26.4066   6
 -24   0  -4 281.634 31.7956  10
 -24   0  -4 305.044 33.5459   9
   0 -24  -4 337.682 29.7915   7
  24 -24   5 266.321 24.3207   6
 -24   0  -5 256.686 30.8493  10
 -24   0  -5 271.150 31.4686   9
   0 -24  -5 261.460 26.4234   7
  24 -24   6 191.511 20.3630   6
 -24   0  -6 159.401 27.2631  10
 -24   0  -6 196.016 27.0975   9
   0 -24  -6 166.118 22.2045   7
 -24   0  -7 83.6030 24.0138  10
 -24   0  -7 128.717 22.6295   9
  24 -24   7 97.8141 16.6329   6
 -24  24  -7 142.964 21.0214   9
   0 -24  -7 77.0939 18.0397   7
 -24   0  -8 100.809 22.2703  10
  24 -24   8 93.2860 13.8109   6
   0 -24  -8 71.3779 15.6251   7
  24 -24   9 28.9656 10.0427   6
   0 -24  -9 25.3473 9.81311   7
 -24   0 -10 37.2679 15.3370  10
 -13 -12   0 224.199 37.2677  10
 -12 -13   0 174.003 36.4538  10
 -25  12   0 136.757 34.9167   9
 -25  13   0 82.8681 34.5541   9
 -12 -13   1 110.122 33.5104  10
 -13 -12   1 53.2412 32.1776  10
 -12 -13  -1 70.7973 32.2875  10
 -13 -12  -1 60.9341 33.9360  10
 -25  12   1-0.38566 30.7315   9
 -25  12  -1 58.9628 33.4185   9
 -25  13   1 28.4949 31.6496   9
 -25  13  -1 42.1734 33.1856   9
  12 -25   1-36.9945 22.3753   6
  12 -25  -1 46.8890 22.8679   7
 -12 -13   2 63.0198 33.6906  10
 -13 -12   2 77.2337 34.2108  10
 -13 -12  -2 81.5090 32.7617  10
 -25  12   2 10.2756 29.4802   9
 -25  12  -2 55.2647 34.1200   9
 -25  13   2 54.9765 30.6165   9
 -25  13  -2 47.0960 33.3579   9
  12 -25   2 116.374 26.1982   6
  13 -25   2 43.5766 26.0856   6
 -12 -13  -2 74.0331 32.4452  10
  12 -25  -2 59.7016 23.1371   7
  13 -25  -2 77.0285 22.2713   7
 -12 -13  -3 56.7161 31.7682  10
 -13 -12  -3 65.8200 31.3031  10
 -25  12   3-2.53731 27.2212   9
 -25  12  -3 19.7603 32.3885   9
 -25  13   3 28.8543 27.5885   9
 -25  13  -3 39.1654 33.9374   9
  12 -25   3 21.2885 24.1031   6
  13 -25   3 43.1009 26.2119   6
  12 -25  -3 31.5832 22.6931   7
  13 -25  -3 23.2893 21.5271   7
 -13 -12  -4 68.8320 31.6394  10
 -12 -13  -4 44.1175 30.1387  10
 -25  12  -4 24.4783 32.0544   9
 -25  13   4 5.02516 26.6769   9
 -25  13  -4 40.5987 33.3277   9
  12 -25   4 112.624 25.9869   6
  13 -25   4 39.9330 26.5022   6
  12 -25  -4 37.5746 24.7475   7
  13 -25  -4 2.30949 22.4688   7
  13 -25  -5 29.7615 22.9320   7
 -12 -13  -5 16.0119 26.6027  10
 -13 -12  -5 10.9690 27.9124  10
 -25  12  -5-18.9749 30.9395   9
 -25  13  -5 4.95596 30.4502   9
  12 -25   5 46.1000 23.9538   6
  13 -25   5 55.9730 25.6452   6
  12 -25  -5 16.7547 24.1399   7
  12 -25  -6 23.9750 23.1953   7
  13 -25  -6-10.4099 22.0041   7
 -12 -13  -6-7.64876 24.1265  10
 -13 -12  -6 15.5357 25.3822  10
 -25  12  -6 16.1778 27.9413   9
 -25  13  -6 39.7674 28.2295   9
  12 -25   6 6.51882 21.9133   6
  13 -25   6 25.3769 23.3931   6
 -12 -13  -6 42.8165 25.1178   8
  12 -25  -7 2.94080 22.0909   7
  13 -25  -7 22.7559 22.4324   7
 -12 -13  -7 36.3359 22.6638  10
 -13 -12  -7 36.2154 23.3655  10
 -25  12  -7 8.88734 24.7666   9
 -25  13  -7 56.6045 25.6769   9
  12 -25   7 6.52289 21.1550   6
  13 -25   7 23.7651 22.3598   6
 -13 -12  -7 20.1964 21.9543   8
 -12 -13  -7-2.50245 22.9433   8
  12 -25  -8 7.70409 22.0944   7
  13 -25  -8 8.79404 21.3988   7
 -12 -13  -8-9.77832 19.7646  10
 -13 -12  -8 5.30611 21.3952  10
 -25  12  -8-20.8113 22.0255   9
 -25  13  -8 18.9738 20.8552   9
  12 -25   8 20.0621 20.1681   6
  13 -25   8 32.2070 21.6446   6
 -13 -12  -8 35.0914 21.5479   8
 -12 -13  -8 18.4727 21.6711   8
  12 -25  -9 8.35750 21.2733   7
  13 -25  -9 2.11059 20.4423   7
 -13 -12  -9-0.17250 19.1769  10
  12 -25   9 4.18655 17.3318   6
  13 -25   9 17.8676 18.9470   6
 -13 -12  -9 8.79521 18.6880   8
 -12 -13  -9-10.3005 19.6455   8
  12 -25 -10 18.1934 19.2973   7
  13 -25 -10-15.1089 18.5169   7
  12 -25  10 9.62019 14.3168   6
  13 -25  10-0.94722 15.1269   6
 -13 -12 -10 18.6360 16.1967   8
 -12 -13 -10-23.0787 17.3828   8
  12 -25 -11 9.39195 16.2666   7
  13 -25 -11 14.4877 15.8117   7
  12 -25  11 10.3485 12.1058   6
  13 -25  11 5.38535 12.2464   6
 -13 -12 -11-0.88448 12.1991   8
 -12 -13 -11-13.4152 14.6965   8
  13 -25 -12-27.8325 13.6516   7
  12 -25  12-2.74556 10.0155   6
  13 -25  12 11.9846 10.3364   6
 -12 -13 -12-2.97418 11.8309   8
  12 -25 -12 6.48027 12.8134   7
  13 -25  13-0.40482 8.74848   6
  12 -25 -13 1.53228 9.62935   7
  13 -25 -13-6.20874 9.33548   7
 -14 -11   0 379.464 39.3654  10
 -11 -14   0 303.855 37.2695  10
 -25  11   0 351.681 38.5284   9
 -25  14   0 384.030 40.0093   9
  11 -25   0 360.711 28.3451   7
 -11 -14   1 177.216 34.8186  10
 -14 -11   1 167.134 35.0811  10
 -11 -14  -1 194.021 34.1490  10
 -25  11   1 145.668 32.7664   9
 -25  11  -1 204.198 34.8150   9
 -25  14   1 209.070 34.9595   9
 -25  14  -1 216.251 36.4295   9
 -14 -11  -1 235.364 37.3219  10
  11 -25  -1 141.085 24.7141   7
  11 -25   2 378.730 29.0806   6
 -11 -14   2 281.704 36.9621  10
 -11 -14  -2 231.774 34.5702  10
 -14 -11  -2 298.679 37.4095  10
 -25  11   2 293.523 35.0631   9
 -25  11  -2 294.758 37.1316   9
 -25  14   2 307.438 35.7033   9
 -25  14  -2 294.950 38.8829   9
 -14 -11   2 253.553 36.4182  10
  14 -25   2 269.667 30.5998   6
  11 -25  -2 230.610 26.8007   7
 -14 -11   3 217.786 35.0312  10
 -11 -14  -3 222.744 33.4537  10
 -14 -11  -3 225.490 35.4783  10
 -25  11   3 177.943 31.0168   9
 -25  11  -3 251.522 36.7240   9
 -25  14   3 241.157 32.6763   9
 -25  14  -3 263.339 38.1089   9
  11 -25   3 154.531 21.8831   6
  14 -25   3 217.956 29.9542   6
  11 -25  -3 203.991 26.7119   7
  14 -25  -3 143.092 22.7314   7
  11 -25   4 338.005 28.0497   6
 -14 -11  -4 248.831 34.3608  10
 -11 -14  -4 233.808 31.3075  10
 -25  14   4 305.452 32.1320   9
 -25  11  -4 258.866 36.4069   9
 -25  14  -4 308.546 38.0507   9
  14 -25   4 249.315 30.5045   6
  14 -25  -4 243.223 25.5741   7
  11 -25  -4 244.214 27.9959   7
  14 -25  -5 115.410 23.3058   7
 -11 -14  -5 146.752 28.0929  10
 -14 -11  -5 153.931 31.7150  10
 -25  11  -5 194.227 33.9847   9
 -25  14  -5 175.021 33.9809   9
  11 -25   5 158.544 24.9983   6
  14 -25   5 191.601 28.5275   6
  11 -25  -5 161.090 26.3234   7
  14 -25  -6 87.6459 22.4999   7
 -11 -14  -6 86.1463 24.8197  10
 -14 -11  -6 113.916 28.2535  10
 -25  11  -6 62.1649 29.1081   9
 -25  14  -6 108.883 29.6454   9
  11 -25   6 110.370 22.8868   6
 -11 -14  -6 90.4064 28.1294   8
  14 -25   6 94.5186 26.3679   6
  11 -25  -6 112.799 25.4039   7
  11 -25  -7 55.8923 24.2835   7
  14 -25  -7 66.9256 22.5513   7
 -11 -14  -7 61.8900 22.2349  10
 -14 -11  -7 79.8218 25.7001  10
 -25  11  -7 58.8440 26.3691   9
 -25  14  -7 115.570 26.9468   9
  11 -25   7 44.5095 20.5889   6
  14 -25   7 62.6091 24.0595   6
 -11 -14  -7 57.4885 24.6714   8
  11 -25  -8 33.3551 23.2866   7
  14 -25  -8 30.7079 20.7879   7
 -14 -11  -8 2.39209 21.5554  10
 -25  11  -8 5.62000 21.5793   9
 -25  14  -8 43.3485 22.4524   9
  11 -25   8-4.56744 18.6535   6
  14 -25   8 3.18510 22.1616   6
 -11 -14  -8 14.0993 22.6074   8
  11 -25  -9-19.1013 21.8409   7
  14 -25  -9-1.54743 20.1281   7
 -14 -11  -9-7.02581 19.4415  10
  11 -25   9 9.38990 16.0559   6
  14 -25   9-15.4805 19.9172   6
 -11 -14  -9 10.6699 20.3553   8
  11 -25 -10 20.6305 19.6316   7
  14 -25 -10 14.0843 18.4481   7
 -14 -11 -10 5.84232 17.0951  10
  11 -25  10 6.88984 13.6579   6
  14 -25  10-2.41023 15.8876   6
 -11 -14 -10 28.1204 18.3374   8
  14 -25 -11 7.45090 15.5140   7
  11 -25  11 3.96802 11.4425   6
  14 -25  11 3.58023 12.9165   6
 -11 -14 -11 2.91130 15.4504   8
  11 -25 -11 2.77577 16.4171   7
  14 -25 -12-6.06559 12.9964   7
  11 -25  12 2.74425 10.1272   6
  14 -25  12-4.99502 10.0556   6
 -11 -14 -12-4.37926 10.4245   8
  11 -25 -12 8.93597 13.4450   7
  14 -25  13 9.41394 8.70726   6
  11 -25 -13-5.56896 9.28714   7
  14 -25 -13-8.08865 9.91994   7
 -10 -15   0 130.027 32.4610  10
 -15 -10   0 75.9048 34.3949  10
 -25  10   0 120.669 33.3022   9
 -25  15   0 91.9957 33.4208   9
  10 -25   0 88.0504 23.6520   7
 -10 -15   1 142.292 34.3229  10
 -10 -15  -1 139.790 32.2469  10
 -15 -10  -1 90.9388 33.1271  10
 -25  10   1 125.779 32.2495   9
 -25  10  -1 113.319 33.4384   9
 -15 -10   1 118.297 33.5967  10
 -25  15   1 95.7346 33.0591   9
 -25  15  -1 98.6602 35.1719   9
  10 -25   1 94.4013 22.2300   7
  10 -25  -1 112.205 25.1769   7
 -15 -10   2 52.6774 31.3541  10
 -10 -15  -2 55.3850 29.2644  10
 -15 -10  -2 138.532 34.3965  10
 -25  10   2 36.7120 28.4006   9
 -25  10  -2 55.5929 32.2814   9
 -25  15   2 61.9436 30.2723   9
 -25  15  -2 86.5940 34.7535   9
  15 -25   2 138.280 30.3024   6
  10 -25  -2 55.0963 25.4626   7
 -15 -10   3 56.0721 31.9876  10
 -10 -15  -3 18.5565 28.0377  10
 -15 -10  -3 16.9526 31.4443  10
 -25  10   3 18.2271 25.5122   9
 -25  10  -3 25.3052 31.6260   9
 -25  15   3 7.29323 28.1923   9
 -25  15  -3 7.46285 32.9967   9
  15 -25   3 71.8028 27.9287   6
  10 -25  -3 44.8951 25.1991   7
 -10 -15  -4 87.9126 27.9878  10
 -15 -10  -4 57.8429 31.5784  10
 -25  10  -4 46.0768 32.2088   9
 -25  15   4 74.2527 27.0683   9
 -25  15  -4 94.4725 35.4898   9
  15 -25   4 75.0877 28.7074   6
  10 -25  -4 113.995 26.6239   7
  15 -25  -4 64.1902 21.8561   7
  15 -25  -5 50.4146 21.4874   7
 -15 -10  -5 84.9636 31.4279  10
 -25  10  -5 85.9234 31.8312   9
 -25  15  -5 57.8692 32.0239   9
  10 -25   5 88.8485 21.7591   6
  15 -25   5 58.1680 27.8832   6
 -10 -15  -5 72.8255 26.5615  10
  10 -25  -5 59.8902 26.2752   7
  15 -25  -6 41.0642 20.9548   7
 -10 -15  -6 14.2486 22.2114  10
 -15 -10  -6 27.2723 27.7386  10
 -25  10  -6 14.8250 27.5986   9
 -25  15  -6-8.44406 27.8055   9
  10 -25   6 17.2904 20.0689   6
 -10 -15  -6 13.5523 26.1088   8
  15 -25   6-13.2190 25.0645   6
  10 -25  -6-0.81844 24.8286   7
  15 -25  -7 17.4384 20.3462   7
 -15 -10  -7-1.84146 25.0010  10
 -25  10  -7 39.2534 25.0689   9
  10 -25   7 26.8633 19.4568   6
 -25  15  -7-31.6201 25.7312   9
  15 -25   7 25.9461 24.0533   6
 -10 -15  -7 25.5437 25.1325   8
  10 -25  -7 24.1951 24.7008   7
  15 -25  -8 1.10800 20.0581   7
 -15 -10  -8 11.3137 22.7578  10
 -25  10  -8-33.2313 22.3345   9
  10 -25   8 25.3840 17.8443   6
 -25  15  -8 17.8998 22.1086   9
  15 -25   8 50.4678 23.5084   6
 -10 -15  -8 25.6446 23.8705   8
  10 -25  -8 47.0094 24.6555   7
  15 -25  -9 13.0702 19.2879   7
 -15 -10  -9 38.0944 21.4914  10
  10 -25   9-16.7709 15.3700   6
  15 -25   9 7.20629 20.0645   6
 -10 -15  -9-13.5872 21.7089   8
  10 -25  -9 15.9796 22.2035   7
  15 -25 -10 6.58774 17.5397   7
 -15 -10 -10 16.1041 18.1077  10
  10 -25  10 18.2352 12.7834   6
  15 -25  10 16.1456 16.7042   6
 -10 -15 -10 17.1644 19.2846   8
  10 -25 -10 6.00834 19.6010   7
  15 -25 -11 17.2085 15.0398   7
 -15 -10 -11 22.6929 14.6100  10
  10 -25  11-5.67726 11.5513   6
  15 -25  11-5.76815 12.7294   6
 -10 -15 -11 0.24113 15.6033   8
  10 -25 -11 27.3924 16.1801   7
  15 -25 -12 8.82728 12.2907   7
  10 -25  12 4.19412 9.54518   6
  15 -25  12 1.74231 10.1757   6
 -10 -15 -12-19.3430 13.4235   8
  10 -25 -12 9.07173 13.1744   7
  15 -25  13 4.06836 7.92991   6
  15 -25 -13 9.57872 9.24255   7
  -9 -16   0 109.271 31.7437  10
 -16  -9   0 68.3495 33.5140  10
 -25   9   0 119.722 31.5774   9
   9 -25   0 54.3928 22.6345   7
  -9 -16  -1 76.7220 29.4592  10
 -16  -9   1 22.1719 31.7020  10
 -16  -9  -1 73.9800 33.6615  10
 -25   9   1 30.7521 29.3010   9
 -25   9  -1 70.3968 31.6865   9
   9 -25   1 36.2834 21.5215   7
   9 -25  -1 54.6400 24.9743   7
 -16  -9   2 83.5212 34.1266  10
 -16  -9  -2 68.5302 33.6012  10
 -25   9   2 68.3764 28.9104   9
 -25   9  -2 60.6010 32.2513   9
 -25  16   2 59.7343 30.8245   9
 -25  16  -2 62.8495 35.2892   9
  -9 -16  -2 71.4621 28.1966  10
   9 -25   2 7.02541 19.5143   7
   9 -25  -2 60.6395 26.3216   7
 -16  -9   3 66.0689 32.6421  10
  -9 -16  -3 86.4807 27.1499  10
 -16  -9  -3 85.9733 33.0396  10
 -25   9   3 58.2243 26.6835   9
 -25   9  -3 75.3326 32.6088   9
 -25  16   3 17.8795 27.1434   9
 -25  16  -3 77.4813 34.5213   9
  16 -25   3 110.544 30.5280   6
   9 -25  -3 68.4302 26.4016   7
 -16  -9  -4 88.6938 33.9493  10
 -25   9  -4 2.11988 31.3521   9
 -25  16   4 42.3565 25.7398   9
 -25  16  -4 35.8516 34.0422   9
  16 -25   4 109.851 30.2648   6
  -9 -16  -4 91.4271 27.1027  10
   9 -25  -4 84.5346 28.0356   7
  16 -25  -5 22.0012 19.5994   7
  -9 -16  -5 6.85300 23.2935  10
 -16  -9  -5 52.4552 30.7709  10
 -25   9  -5 61.1250 31.1627   9
 -25  16  -5 47.0318 31.4431   9
  16 -25   5 38.0893 27.7734   6
   9 -25  -5 66.3323 27.0603   7
  16 -25  -6 51.9517 20.4589   7
  -9 -16  -6 45.6695 22.0521  10
 -16  -9  -6 94.9924 29.6379  10
 -25   9  -6 72.6368 29.0828   9
 -25  16  -6 89.8089 30.0834   9
  -9 -16  -6 95.3265 29.3087   8
  16 -25   6 92.5047 27.5659   6
   9 -25  -6 74.8165 26.8475   7
  16 -25  -7 30.2121 19.6580   7
 -16  -9  -7 43.2049 26.0380  10
 -25   9  -7-1.98398 24.0586   9
   9 -25   7 21.4816 17.4769   6
 -25  16  -7-9.22069 24.8214   9
  16 -25   7 24.9783 24.6975   6
  -9 -16  -7 17.8676 25.8336   8
   9 -25  -7 13.3345 24.9310   7
  16 -25  -8 15.8349 19.5240   7
 -16  -9  -8 24.6791 23.9670  10
 -25   9  -8-23.5103 21.9568   9
   9 -25   8 17.8478 15.6281   6
  16 -25   8 29.6686 23.9516   6
  -9 -16  -8 28.2756 24.8414   8
   9 -25  -8 24.6294 24.6041   7
  16 -25  -9 18.6573 18.1533   7
 -16  -9  -9 11.3379 20.8952  10
   9 -25   9 11.8645 13.9359   6
  16 -25   9 2.49134 20.7890   6
  -9 -16  -9-21.2944 22.5176   8
   9 -25  -9 20.9306 21.9659   7
  16 -25 -10 29.2501 16.7972   7
 -16  -9 -10 12.3713 18.0175  10
   9 -25  10 1.49519 11.8273   6
  16 -25  10-10.7042 17.0032   6
  -9 -16 -10 18.8833 19.5467   8
   9 -25 -10 9.10186 18.8985   7
  16 -25 -11 22.0786 14.9073   7
 -16  -9 -11-14.9718 14.8904  10
   9 -25  11 13.1709 9.69550   6
  16 -25  11 12.9530 12.7877   6
  -9 -16 -11 7.13081 16.3924   8
   9 -25 -11-16.1183 16.5943   7
  16 -25 -12 11.0745 11.9264   7
   9 -25  12 1.83472 9.28807   6
  16 -25  12-7.27748 9.75286   6
  -9 -16 -12-2.22085 13.1729   8
   9 -25 -12-16.0226 12.5972   7
 -17  -8   0 144.029 33.7216  10
 -25   8   0 93.3063 30.4870   9
   8 -25   0 131.988 25.1744   7
 -25   8   1 288.520 34.9940   9
 -25   8  -1 274.271 36.1588   9
 -17  -8  -1 290.871 37.0073  10
 -17  -8   1 295.074 37.5855  10
   8 -25   1 243.444 26.6987   7
  -8 -17  -1 255.072 33.4252  10
   8 -25  -1 240.648 29.1944   7
  -8 -17  -2 238.380 31.7628  10
 -17  -8   2 288.412 37.5707  10
 -25   8  -2 297.425 36.1212   9
 -25   8   2 242.368 33.1078   9
 -17  -8  -2 268.919 37.3460  10
   8 -25   2 253.667 26.1334   7
   8 -25  -2 289.841 30.9535   7
 -17  -8   3 220.128 35.6748  10
 -17  -8  -3 196.970 35.6206  10
 -25   8   3 193.712 29.1991   9
 -25   8  -3 196.908 35.0165   9
  -8 -17  -3 207.330 29.2842  10
  17 -25   3 260.214 32.6938   6
   8 -25  -3 216.688 30.5812   7
  -8 -17  -4 203.452 27.8023  10
 -17  -8  -4 188.504 35.4005  10
 -25   8  -4 198.731 33.8313   9
 -25  17   4 112.084 26.9194   9
 -25  17  -4 166.403 35.7093   9
  17 -25   4 232.526 31.4171   6
   8 -25  -4 173.521 29.5909   7
  17 -25  -5 50.9121 18.7913   7
  -8 -17  -5 82.9064 23.2319  10
 -17  -8  -5 105.630 31.8024  10
 -25   8  -5 102.486 30.4597   9
 -25  17  -5 90.8054 32.4612   9
  17 -25   5 129.674 29.7017   6
   8 -25  -5 130.785 28.9000   7
  17 -25  -6 78.2950 19.8707   7
 -17  -8  -6 82.3363 29.9117  10
 -25   8  -6 103.911 28.7842   9
 -25  17  -6 65.1476 28.9545   9
  -8 -17  -6 91.3585 29.9253   8
  17 -25   6 135.471 28.5958   6
   8 -25  -6 95.2903 28.1045   7
  17 -25  -7 69.1381 19.1793   7
 -17  -8  -7 82.3424 27.7965  10
 -25   8  -7 104.359 26.8535   9
 -25  17  -7 122.506 26.2871   9
  17 -25   7 102.136 26.6206   6
  -8 -17  -7 99.3521 27.9958   8
   8 -25  -7 123.408 27.6720   7
  17 -25  -8 35.8504 18.5221   7
 -17  -8  -8 43.7105 24.8280  10
 -25   8  -8 82.8681 23.1187   9
  17 -25   8 59.2868 24.0278   6
  -8 -17  -8 86.9545 26.5776   8
   8 -25  -8 77.8908 25.1973   7
  17 -25  -9 8.75630 17.0646   7
 -17  -8  -9 16.1060 20.9973  10
  17 -25   9 8.30291 20.3852   6
  -8 -17  -9 11.2864 22.0936   8
   8 -25  -9 22.7138 21.5133   7
  17 -25 -10 46.6978 16.4203   7
 -17  -8 -10 16.0127 18.5480  10
   8 -25  10 26.9600 11.1103   6
  17 -25  10 32.3764 16.4052   6
  -8 -17 -10 10.1308 19.1640   8
   8 -25 -10 9.71487 18.2647   7
  17 -25 -11 9.58985 13.2007   7
 -17  -8 -11 20.7896 15.0954  10
   8 -25  11-17.8454 10.4118   6
  17 -25  11 15.9880 12.0174   6
  -8 -17 -11-6.48678 15.7981   8
   8 -25 -11 11.0631 15.5741   7
  17 -25 -12 14.7608 10.4644   7
  17 -25  12 5.13647 9.34477   6
  -8 -17 -12 6.33440 12.9245   8
   8 -25 -12 7.08196 12.1191   7
 -18  -7   0 166.069 34.5796  10
 -18  -7   0 130.082 29.4628   9
 -25   7   0 186.958 32.4126   9
   7 -25   0 89.9231 25.3824   7
 -18  -7  -1 133.471 34.5264  10
 -18  -7  -1 100.843 29.8177   9
 -25   7   1 83.6970 29.7830   9
 -25   7  -1 107.546 31.7382   9
   7 -25   1 95.0428 24.7359   7
 -18  -7   1 90.2246 33.0977  10
   7 -25  -1 119.892 27.7235   7
  -7 -18  -2 80.4860 26.9030  10
 -18  -7   2 25.7635 30.3776  10
 -18  -7  -2 90.3330 33.9850  10
 -18  -7  -2 79.8532 30.2309   9
 -25   7   2 56.5339 27.9031   9
 -25   7  -2 76.7170 31.3394   9
   7 -25  -2 93.4865 28.7739   7
  -7 -18  -3 89.7551 26.0277  10
 -18  -7  -3 113.386 33.0819  10
 -18  -7  -3 134.123 32.4754   9
 -18  -7   3 82.7639 31.1393  10
 -25   7   3 174.850 29.1499   9
 -25   7  -3 133.423 32.5519   9
  18 -25   3 101.403 30.7715   6
   7 -25  -3 121.727 30.1184   7
  -7 -18  -4 68.7767 23.1918  10
 -18  -7  -4 96.0196 33.5761  10
 -25   7  -4 73.1714 31.7194   9
  18 -25   4 91.0035 30.5540   6
   7 -25  -4 85.5135 28.4289   7
 -18  -7  -5 24.6178 31.4693  10
 -25   7  -5 19.4896 21.5248  10
 -25   7  -5-9.35077 28.6186   9
 -25  18  -5-9.85689 30.0571   9
  18 -25   5 47.4490 28.6902   6
   7 -25  -5 2.49947 27.0438   7
  18 -25  -6 9.82084 16.9612   7
 -18  -7  -6 57.9262 30.2670  10
 -25   7  -6 31.8540 26.8368   9
 -25  18  -6 66.8781 28.1811   9
  -7 -18  -6 28.3685 27.8981   8
  18 -25   6 73.8486 27.8312   6
   7 -25  -6 55.4344 27.8109   7
  18 -25  -7 9.27874 16.8180   7
 -18  -7  -7 26.6139 27.9464  10
 -25   7  -7 12.2228 24.3860   9
 -25  18  -7 33.1873 24.1756   9
  18 -25   7-4.62952 26.0068   6
  -7 -18  -7 14.9094 26.2369   8
   7 -25  -7 6.61307 25.7516   7
  18 -25  -8 13.9130 17.0064   7
 -18  -7  -8 14.1262 24.8896  10
 -25   7  -8 20.9623 21.5129   9
  18 -25   8 20.8407 22.5688   6
  -7 -18  -8 34.3674 25.3446   8
   7 -25  -8 14.6835 23.4076   7
  18 -25  -9-6.73308 15.1534   7
 -18  -7  -9-16.5735 21.9946  10
  18 -25   9-5.84418 19.0969   6
  -7 -18  -9 0.80846 21.8788   8
   7 -25  -9 10.9266 20.6581   7
  18 -25 -10 7.10062 13.7793   7
 -18  -7 -10 5.74080 18.5811  10
  18 -25  10 5.55931 15.0240   6
  -7 -18 -10 13.0341 18.5140   8
   7 -25 -10 8.22905 17.7659   7
  18 -25 -11 0.52636 12.1241   7
 -18  -7 -11-8.00329 14.6562  10
  18 -25  11 12.4538 11.6501   6
  -7 -18 -11 6.39106 15.6766   8
   7 -25 -11-8.89878 14.5513   7
  18 -25 -12 2.09400 9.22519   7
 -25   7 -12-3.14328 13.0561  10
  18 -25  12 0.85585 8.42745   6
   7 -25 -12-7.93503 11.4340   7
 -19  -6   0 362.769 35.0255   9
 -25   6   0 365.337 36.3557   9
 -19  -6   0 280.350 38.7825  10
   6 -25   0 374.280 32.6983   7
 -19  -6   1 408.946 40.6461  10
 -19  -6  -1 477.192 41.8263  10
 -19  -6   1 419.334 35.3535   9
 -19  -6  -1 432.416 37.2457   9
 -25   6   1 425.344 37.4789   9
 -25   6  -1 446.068 38.8231   9
   6 -25   1 460.220 32.2952   7
   6 -25  -1 496.513 35.2868   7
 -19  -6   2 308.568 37.9625  10
 -19  -6  -2 293.534 38.6297  10
 -19  -6  -2 316.663 36.0395   9
 -25   6  -2 322.341 37.4247   9
 -25   6   2 280.269 32.6321   9
   6 -25  -2 321.045 33.8027   7
  19 -25   3 504.757 38.8895   6
 -19  -6  -3 363.311 39.2717  10
 -19  -6   3 289.266 36.7165  10
 -19  -6  -3 374.279 37.7370   9
 -25   6  -3 385.397 38.4589   9
 -25   6   3 248.731 30.7672   9
   6 -25  -3 415.223 36.2768   7
  19 -25   4 373.375 35.2213   6
 -19  -6  -4 267.679 37.2669  10
 -19  -6  -4 305.279 36.0070   9
 -25   6  -4 264.321 35.1555   9
   6 -25  -4 334.550 35.1621   7
 -19  -6  -5 176.868 34.8686  10
 -25   6  -5 118.574 24.8761  10
 -25   6  -5 180.285 33.0298   9
 -25  19  -5 166.602 33.3033   9
  19 -25   5 221.661 31.6311   6
   6 -25  -5 181.766 31.8256   7
 -19  -6  -6 158.340 33.7163  10
 -25   6  -6 120.131 26.3442  10
 -25   6  -6 151.377 30.7677   9
 -25  19  -6 147.146 29.9971   9
  19 -25   6 172.617 29.5966   6
   6 -25  -6 177.695 30.7044   7
  19 -25  -7 112.847 18.3372   7
 -19  -6  -7 135.082 29.9825  10
 -25   6  -7 153.127 27.2605   9
 -25  19  -7 129.514 26.0491   9
  19 -25   7 165.382 27.2188   6
  -6 -19  -7 150.708 29.7461   8
   6 -25  -7 173.431 28.7856   7
  19 -25  -8 79.2331 16.7128   7
 -19  -6  -8 95.6685 26.5572  10
 -25   6  -8 53.1738 21.7497   9
  19 -25   8 97.5897 23.1565   6
  -6 -19  -8 98.2626 26.7393   8
   6 -25  -8 81.8446 24.0112   7
  19 -25  -9 41.3816 15.1641   7
 -19  -6  -9 44.3155 21.7440  10
  19 -25   9 33.3365 18.7116   6
  -6 -19  -9 22.6843 21.7763   8
   6 -25  -9 33.0274 19.9882   7
  19 -25 -10 18.9916 13.2411   7
 -19  -6 -10 17.0575 18.5790  10
 -25   6 -10 19.7150 19.4652  10
  19 -25  10 14.6200 14.7709   6
  -6 -19 -10 16.9041 18.5634   8
   6 -25 -10 3.91449 16.5984   7
  19 -25 -11 8.96186 11.3148   7
 -19  -6 -11 37.4528 15.4855  10
 -25   6 -11-3.83109 16.1235  10
  19 -25  11 7.55787 10.7717   6
  -6 -19 -11 7.48931 15.0889   8
   6 -25 -11 9.60242 13.4017   7
  19 -25 -12 9.86574 8.53905   7
 -25   6 -12 11.4648 12.9313  10
  19 -25  12 5.76078 7.72414   6
 -20  -5   0 28.8131 33.1469  10
 -20  -5   0 28.3070 28.8328   9
 -25   5   0 18.4316 30.0377   9
   5 -25   0 46.9256 26.8571   7
 -20  -5   1 32.6125 31.0075  10
 -20  -5  -1 39.7357 31.7691  10
 -20  -5   1 50.0998 27.7332   9
 -20  -5  -1 78.7739 30.9768   9
 -25   5   1 44.3489 29.8305   9
 -25   5  -1 97.5397 32.3310   9
   5 -25  -1 34.8744 27.6064   7
 -20  -5   2 49.2876 30.9059  10
 -20  -5   2-17.7053 25.5473   9
 -20  -5  -2 35.3135 30.9056   9
 -25   5   2 14.2045 27.2629   9
 -25   5  -2 52.3594 31.7333   9
 -20  -5  -2 68.1733 33.7132  10
   5 -25  -2 60.7570 28.9714   7
 -20  -5   3 33.1789 29.6445  10
 -20  -5  -3 61.4855 33.6394  10
 -20  -5  -3 52.7538 31.8947   9
 -25   5   3 13.4545 25.5455   9
 -25   5  -3 43.8032 32.8115   9
  20 -25   3 121.411 33.2507   6
   5 -25  -3 95.6854 30.9769   7
 -20  -5  -4 10.0800 31.8128  10
 -25   5  -4-3.48910 22.2724  10
 -20  -5  -4-1.44814 29.6497   9
 -25   5  -4 57.0886 31.4674   9
  20 -25   4 11.9685 30.5769   6
   5 -25  -4 37.4814 29.9570   7
 -20  -5  -5 6.55829 31.6492  10
 -25   5  -5 3.40013 22.7694  10
 -20  -5  -5 10.7997 27.8904   9
 -25   5  -5 6.34201 28.7980   9
  20 -25   5 29.3581 27.9118   6
   5 -25  -5 22.6394 28.5455   7
 -25   5  -6 17.8819 23.5609  10
 -25   5  -6 2.00775 26.8695   9
 -20  -5  -6-14.0292 30.7999  10
 -25  20  -6-7.61132 26.4357   9
  20 -25   6 4.58039 25.5052   6
   5 -25  -6 14.2962 26.5472   7
 -25   5  -7 3.01649 22.8550  10
 -25   5  -7 2.22024 23.7335   9
 -25  20  -7 18.4933 22.7214   9
 -20  -5  -7 22.9489 28.4171  10
  20 -25   7 20.8523 22.9584   6
   5 -25  -7 10.3766 24.7991   7
 -20  -5  -8 18.1031 24.9638  10
 -25   5  -8 15.7047 22.5628  10
 -25   5  -8-6.01711 20.4502   9
  20 -25   8 5.58872 19.9578   6
  -5 -20  -8 1.30618 23.1696   8
   5 -25  -8-1.24117 21.5148   7
  20 -25  -9 6.51105 12.8045   7
 -20  -5  -9 4.44658 21.2877  10
 -25   5  -9 18.5510 20.5718  10
  20 -25   9 24.3327 17.2730   6
  -5 -20  -9 0.42492 20.5489   8
   5 -25  -9-4.21728 18.4519   7
  20 -25 -10 13.3918 11.4176   7
 -20  -5 -10-13.0359 18.2923  10
 -25   5 -10 12.7215 18.6049  10
  20 -25  10 13.9695 12.7025   6
  -5 -20 -10-38.2522 18.1450   8
   5 -25 -10 18.2990 15.4175   7
  20 -25 -11 10.1465 9.50309   7
 -20  -5 -11-0.76348 13.9638  10
 -25   5 -11 5.91722 15.3957  10
  20 -25  11-5.32218 9.10234   6
   5 -25 -11 3.30121 11.8606   7
 -21  -4   0 69.1124 33.2825  10
 -21  -4   0 55.6392 29.6134   9
 -25   4   0 39.2384 30.7518   9
   4 -25   0 90.6836 29.3466   7
 -21  -4   1 67.7004 31.7933  10
 -21  -4  -1 105.059 32.9749  10
 -21  -4   1 40.3299 28.3647   9
 -21  -4  -1 44.1763 30.1933   9
 -25   4   1 42.1347 29.0016   9
 -25   4  -1 52.5211 31.5351   9
   4 -25  -1 98.0350 30.0321   7
 -21  -4   2 78.0662 30.4718  10
 -21  -4  -2 59.6993 33.5307  10
 -21  -4   2 42.9272 26.3895   9
 -21  -4  -2 84.3314 31.8413   9
 -25   4   2 57.5322 28.6929   9
 -25   4  -2 75.6991 32.4859   9
   4 -25  -2 89.5599 30.6789   7
 -21  -4  -3 80.1559 32.8686  10
 -21  -4  -3 98.0667 32.8020   9
 -25   4   3 76.9610 26.5617   9
 -25   4  -3 81.8635 33.5254   9
  25 -21   3 107.947 23.3221   6
  21 -25   3 201.101 33.0266   6
   4 -25  -3 122.904 31.2693   7
 -21  -4  -4 100.599 32.9849  10
 -25   4  -4 49.6566 23.6921  10
 -21  -4  -4 120.143 31.4470   9
 -25   4  -4 80.9111 31.5144   9
  25 -21   4 84.2690 20.9610   6
  21 -25   4 102.632 30.0979   6
   4 -25  -4 83.8922 30.0572   7
 -21  -4  -5 40.0808 31.2627  10
 -25   4  -5 73.2968 24.7837  10
 -21  -4  -5 43.7660 28.7456   9
 -25   4  -5 33.6728 28.8328   9
  21 -25   5 85.8498 27.6488   6
   4 -25  -5 49.5757 28.4715   7
 -21  -4  -6 87.7612 31.7416  10
 -25   4  -6 57.8521 24.5465  10
 -25   4  -6 14.4627 25.5806   9
 -25  21  -6 50.1798 25.7797   9
  21 -25   6 63.3809 24.7505   6
   4 -25  -6 55.7758 26.3885   7
 -21  -4  -7 65.6412 28.1841  10
 -25   4  -7 52.7089 23.7939  10
 -25   4  -7 55.2031 23.7172   9
 -25  21  -7 72.1587 22.9310   9
  21 -25   7 82.2331 22.4161   6
   4 -25  -7 45.1994 23.0480   7
 -21  -4  -8 21.4112 24.2933  10
 -25   4  -8 27.3230 21.7697  10
 -25   4  -8 17.6542 19.6796   9
  21 -25   8 38.1313 18.9656   6
   4 -25  -8 29.5955 20.7168   7
 -21  -4  -9 28.5342 20.9324  10
 -25   4  -9 15.7703 19.9236  10
  21 -25   9 11.6930 14.9991   6
   4 -25  -9 23.6991 17.1180   7
  21 -25 -10 11.3388 10.2944   7
 -21  -4 -10 14.2025 17.4741  10
 -25   4 -10 0.32156 17.1860  10
  21 -25  10-1.25462 10.8610   6
   4 -25 -10 10.8095 13.4019   7
 -25   4 -11-14.8873 14.0107  10
  21 -25  11-10.4427 7.75623   6
 -21  -4 -11-4.84842 13.3747  10
   4 -25 -11 10.3199 10.3622   7
 -22  -3   0 16.8355 29.7255  10
 -22  -3   0 18.0903 28.6054   9
 -25   3   0 66.2043 30.7981   9
 -22  -3   1 36.9420 28.2278  10
 -22  -3  -1 18.1967 29.2817  10
 -22  -3   1-15.9678 26.4352   9
 -22  -3  -1 5.07569 28.0271   9
 -25   3   1-5.85023 27.4475   9
 -25   3  -1-22.9748 30.0278   9
   3 -25  -1 18.6455 27.6951   7
 -22  -3  -2 7.01977 29.7142  10
 -22  -3   2 34.7500 25.3460   9
 -22  -3  -2 15.5372 29.5490   9
 -25   3   2-4.89142 25.8643   9
 -25   3  -2 11.4607 30.0726   9
   3 -25  -2 19.2610 28.0073   7
 -22  -3  -3 21.5502 29.7315  10
 -25   3  -3 19.5978 23.5477  10
 -22  -3   3-32.8689 24.0457   9
 -22  -3  -3 12.1384 30.6753   9
 -25   3   3 31.6414 24.0656   9
 -25   3  -3 61.9555 31.8133   9
  25 -22   3 49.0724 21.3810   6
  22 -25   3 3.66080 28.3131   6
   3 -25  -3-9.04612 28.3539   7
 -22  -3  -4 14.5162 29.9525  10
 -25   3  -4 24.4353 23.0881  10
 -22  -3  -4 19.9711 28.3940   9
 -25   3  -4-20.9910 29.1721   9
  25 -22   4-9.06904 19.6443   6
  22 -25   4 36.1832 26.7206   6
   3 -25  -4 5.74747 26.2871   7
 -22  -3  -5 61.5005 29.6678  10
 -25   3  -5 15.6396 23.4415  10
 -22  -3  -5 31.8567 27.4660   9
 -25   3  -5 20.1826 26.9890   9
  25 -22   5 1.41740 17.7693   6
  22 -25   5 1.96535 24.1255   6
  -3 -22  -5 3.40625 20.8744   7
   3 -25  -5 57.2219 26.7336   7
 -22  -3  -6 20.4863 27.2255  10
 -25   3  -6 25.3890 23.2547  10
 -22  -3  -6 18.3232 24.4803   9
 -25   3  -6-7.19782 24.6114   9
 -25  22  -6 8.67071 23.2443   9
  25 -22   6 20.4340 15.6383   6
  22 -25   6 43.3588 22.7835   6
  -3 -22  -6 5.62081 18.0012   7
   3 -25  -6-11.7686 23.1308   7
 -22  -3  -7 9.16612 25.2431  10
 -25   3  -7 23.3895 21.9876  10
 -25   3  -7-12.2950 21.8327   9
 -25  22  -7-4.25788 19.9588   9
  22 -25   7 10.4234 18.5748   6
  -3 -22  -7 19.4229 15.3056   7
   3 -25  -7 12.7316 20.4947   7
 -22  -3  -8-20.6317 22.5171  10
 -25   3  -8-2.66442 20.1552  10
 -25   3  -8-6.79826 18.0487   9
  22 -25   8 18.8506 16.3468   6
   3 -25  -8 2.03098 17.4452   7
 -22  -3  -9 17.0509 19.3486  10
 -25   3  -9 0.72747 18.7119  10
  22 -25   9-3.24307 12.8531   6
   3 -25  -9-14.9528 14.6984   7
 -22  -3 -10-1.78602 15.9032  10
 -25   3 -10 4.41476 15.7644  10
  22 -25  10-2.62799 8.90940   6
   3 -25 -10 2.84249 10.1957   7
 -22  -3 -11-11.4483 12.4804  10
 -25   3 -11 13.1357 13.1055  10
 -23  -2   0 81.8817 29.0984  10
 -23  -2   0 151.348 30.2751   9
 -25   2   0 71.2550 29.1081   9
 -23  -2  -1 90.0279 29.5432  10
 -23  -2   1 100.737 27.4612   9
 -23  -2  -1 88.9210 29.0222   9
 -25   2   1 89.8930 28.2086   9
 -25   2  -1 92.2097 30.1845   9
 -23  -2  -2 56.3403 28.9877  10
 -23  -2   2 96.5235 26.1155   9
 -23  -2  -2 98.4484 30.1752   9
 -25   2   2 41.9018 25.1354   9
 -25   2  -2 72.4728 30.6621   9
  25 -23   2 53.0405 23.5068   6
  23 -25   2 82.7094 28.4409   6
   2 -25  -2 74.0209 29.0512   7
 -23  -2  -3 32.1113 27.7781  10
 -25   2  -3 38.3941 23.6637  10
 -23  -2   3 67.9889 23.0113   9
 -23  -2  -3 84.9539 30.7590   9
 -25   2   3 50.2339 23.8433   9
 -25   2  -3 106.773 31.3474   9
  25 -23   3 66.0015 22.3748   6
  23 -25   3 85.3730 26.8747   6
   2 -25  -3 102.421 27.8371   7
 -23  -2  -4 53.2906 28.0631  10
 -25   2  -4 41.1237 23.1566  10
 -23  -2  -4 65.2423 28.5322   9
 -25   2  -4 15.9978 27.9448   9
  25 -23   4 55.8552 19.6965   6
  23 -25   4 79.1394 25.2421   6
   2 -25  -4 68.2439 25.8305   7
 -23  -2  -5 7.02836 26.6961  10
 -25   2  -5 1.43329 23.4177  10
 -23  -2  -5 16.9366 25.9841   9
 -25   2  -5 11.9077 25.3034   9
  25 -23   5 0.92986 17.7073   6
  23 -25   5 23.9936 21.9201   6
  -2 -23  -5 15.2384 20.3664   7
   2 -25  -5 28.2137 23.5324   7
 -23  -2  -6 0.12557 24.8905  10
 -25   2  -6-6.40711 22.1635  10
 -23  -2  -6 30.6627 23.0234   9
 -25   2  -6 36.7891 23.7002   9
 -25  23  -6 47.8986 22.0098   9
  25 -23   6 22.8139 14.9421   6
  23 -25   6 23.8515 18.7694   6
  -2 -23  -6 15.3435 17.0265   7
   2 -25  -6 3.66740 20.3968   7
 -23  -2  -7 29.0836 23.5418  10
 -25   2  -7 51.1386 21.5554  10
 -25   2  -7 21.5047 20.3023   9
  25 -23   7 25.4482 13.1627   6
 -25  23  -7 27.0268 18.7229   9
  23 -25   7 15.3874 16.9917   6
  -2 -23  -7 45.2848 15.6653   7
   2 -25  -7 39.7238 18.0289   7
 -23  -2  -8 20.5185 20.6178  10
 -25   2  -8 32.5402 19.5982  10
 -25   2  -8-8.72663 16.7835   9
  23 -25   8 10.6438 14.1978   6
   2 -25  -8 6.17667 14.8536   7
 -23  -2  -9-23.6446 18.0168  10
 -25   2  -9-3.96079 16.4563  10
  23 -25   9-8.74229 10.7502   6
   2 -25  -9 5.96105 12.1559   7
 -23  -2 -10-2.63745 13.9281  10
 -25   2 -10-0.51158 14.2815  10
  23 -25  10-12.0552 7.47132   6
 -24  -1   0 215.715 31.5830   9
 -25   1   0 170.363 30.3502   9
 -24  -1  -1 140.726 28.3576  10
 -24  -1   1 116.401 27.8357   9
 -24  -1  -1 116.954 30.5707   9
 -25   1   1 101.501 27.9875   9
 -25   1  -1 94.7731 29.6456   9
 -25   1  -2 85.6020 24.9422  10
 -24  -1   2 93.7040 25.3310   9
 -24  -1  -2 162.322 30.8302   9
 -25   1   2 118.391 26.5069   9
 -25   1  -2 89.5869 29.8497   9
 -24  -1  -2 81.1664 26.9792  10
  25 -24   2 103.493 24.4201   6
  24 -25   2 128.652 27.0977   6
 -24  -1  -3 102.640 27.5784  10
 -25   1  -3 87.4175 24.9921  10
 -24  -1   3 109.607 23.7202   9
 -25   1   3 82.3401 23.6172   9
 -24  -1  -3 139.706 30.2784   9
 -25   1  -3 145.633 30.6812   9
  25 -24   3 149.227 23.1578   6
  24 -25   3 96.9716 24.7984   6
   1 -25  -3 142.828 27.0345   7
 -24  -1  -4 64.7211 26.6699  10
 -25   1  -4 33.0002 23.4669  10
 -24  -1  -4 103.939 28.5251   9
 -25   1  -4 77.0630 27.7106   9
  25 -24   4 56.2094 19.8708   6
  24 -25   4 92.8844 22.9238   6
   1 -25  -4 84.1727 23.9463   7
 -24  -1  -5 40.6551 25.3562  10
 -25   1  -5 47.7495 23.2411  10
 -24  -1  -5 37.2114 24.8267   9
 -25   1  -5 49.6610 25.0918   9
  25 -24   5 56.2469 18.0287   6
  24 -25   5 55.6412 19.5707   6
  -1 -24  -5 33.4439 19.8462   7
   1 -25  -5 54.8268 21.5354   7
 -24  -1  -6 73.2242 24.1336  10
 -25   1  -6 59.7996 22.6944  10
 -24  -1  -6 78.5275 23.2849   9
 -25   1  -6 42.2907 21.9246   9
  25 -24   6 28.8910 15.3885   6
  24 -25   6 53.0921 16.9307   6
  -1 -24  -6 53.2104 17.6679   7
   1 -25  -6 57.5536 18.8911   7
 -24  -1  -7 39.6084 22.0265  10
 -25   1  -7 31.7476 21.1245  10
 -25   1  -7 57.5949 19.6434   9
  25 -24   7 38.5298 13.3980   6
 -25  24  -7 35.0247 17.2510   9
  24 -25   7 42.4804 14.6869   6
   1 -25  -7 27.1976 16.2495   7
 -24  -1  -8 49.6086 19.7905  10
 -25   1  -8 18.5007 18.9377  10
  25 -24   8 3.86517 9.95242   6
  24 -25   8-2.81154 12.0528   6
   1 -25  -8 27.8110 13.4211   7
 -24  -1  -9 23.2302 15.9044  10
 -25   1  -9-1.87495 15.1585  10
  24 -25   9 1.77350 8.07170   6
   1 -25  -9 8.63058 9.19138   7
 -24  -1 -10-9.57047 13.0318  10
 -25   1 -10 3.21619 12.1431  10
 -25   0   0 232.911 29.7769   9
 -25   0  -1 311.779 31.9481   9
 -25   0   1 219.790 28.0421   9
 -25   0  -2 182.593 25.8799  10
 -25   0   2 166.221 25.5386   9
 -25   0  -2 231.207 30.3961   9
  25 -25   2 171.906 24.4445   6
 -25   0  -3 167.401 26.0378  10
 -25   0   3 202.386 24.2728   9
 -25   0  -3 231.369 29.8922   9
  25 -25   3 183.383 22.8965   6
 -25   0  -4 74.4434 23.0679  10
 -25   0  -4 86.8822 25.9365   9
  25 -25   4 73.4802 19.5462   6
 -25   0  -5 25.5851 22.0464  10
 -25   0  -5 57.6481 23.4732   9
  25 -25   5 35.4017 16.1065   6
 -25   0  -6 55.7569 21.1826  10
 -25   0  -6 61.9923 20.5555   9
  25 -25   6 75.2097 14.9741   6
 -25   0  -7 74.7087 20.0644  10
  25 -25   7 57.9396 12.6891   6
 -25   0  -8 31.3121 17.2841  10
  25 -25   8 4.45957 9.03348   6
 -25   0  -9 8.97139 13.9225  10
 -13 -13   0 39.3833 33.3201  10
 -26  13   0 53.0957 32.2071   9
 -13 -13   1 40.6917 33.1487  10
 -13 -13  -1 37.0891 33.2287  10
 -26  13   1 31.9366 30.6874   9
 -26  13  -1 15.1505 32.6596   9
  13 -26   1 91.5562 25.1148   6
 -13 -13   2 38.3047 33.4126  10
 -13 -13  -2 38.3787 30.8459  10
 -26  13   2 56.2809 29.5212   9
 -26  13  -2 107.364 34.0039   9
  13 -26   2 28.7083 23.3102   6
  13 -26  -2 7.13063 20.5543   7
 -13 -13  -3 20.2725 29.8050  10
 -26  13   3 33.2311 25.7660   9
 -26  13  -3 18.5913 32.2060   9
  13 -26   3 23.5816 22.1902   6
  13 -26  -3 34.3177 21.3749   7
 -13 -13  -4 30.5841 28.5231  10
 -26  13  -4 50.6793 31.8597   9
  13 -26   4 28.6041 22.8503   6
  13 -26  -4 15.8448 21.5226   7
 -13 -13  -5 23.0046 27.1684  10
 -26  13  -5 20.6185 29.5023   9
  13 -26   5 23.6712 22.4928   6
  13 -26  -5 47.7545 22.4872   7
 -13 -13  -6 46.1376 24.2618  10
 -26  13  -6 4.96270 26.0537   9
  13 -26   6 60.6056 21.3489   6
  13 -26  -6 26.3359 21.2639   7
 -13 -13  -7 21.6534 21.3466  10
 -26  13  -7 17.2077 23.2575   9
  13 -26   7 16.5243 19.8489   6
  13 -26  -7-2.26463 20.1896   7
 -13 -13  -8 35.5413 19.8102  10
 -26  13  -8 17.2067 20.1700   9
  13 -26   8 21.0486 18.4217   6
  13 -26  -8 0.57125 19.4159   7
  13 -26   9 33.6793 15.4224   6
  13 -26  -9 20.0678 18.7297   7
  13 -26  10 18.8717 12.3355   6
  13 -26 -10 34.4618 16.6345   7
  13 -26  11-2.36831 9.69172   6
  13 -26 -11 15.1816 13.7198   7
  13 -26  12 1.99361 8.51664   6
  13 -26 -12 5.30408 10.4256   7
 -12 -14   0 217.489 35.6146  10
 -14 -12   0 176.056 35.9496  10
 -26  12   0 285.103 36.3492   9
 -26  14   0 306.828 37.8746   9
  14 -26   1 496.932 32.9653   6
 -12 -14   1 429.617 41.3245  10
 -14 -12   1 432.181 41.4346  10
 -12 -14  -1 422.970 39.4088  10
 -14 -12  -1 384.149 39.0880  10
 -26  12   1 441.747 38.5707   9
 -26  12  -1 458.012 40.9785   9
 -26  14   1 469.715 39.2446   9
 -26  14  -1 469.063 41.6974   9
  12 -26  -1 415.820 28.7469   7
  12 -26   2 556.085 30.5026   6
  14 -26   2 452.705 31.8098   6
 -14 -12   2 406.605 39.3856  10
 -12 -14  -2 429.346 37.8995  10
 -14 -12  -2 411.053 39.9952  10
 -26  12   2 448.319 37.4197   9
 -26  12  -2 486.793 41.6444   9
 -26  14   2 468.983 37.4560   9
 -26  14  -2 420.738 40.6519   9
  12 -26  -2 413.109 29.0956   7
 -12 -14  -3 195.016 31.8481  10
 -14 -12  -3 241.894 34.7869  10
 -26  12   3 224.750 30.5978   9
 -26  12  -3 262.128 36.9934   9
 -26  14   3 229.032 31.2100   9
 -26  14  -3 272.003 37.3739   9
  14 -26   3 223.761 27.8467   6
  14 -26  -3 218.636 23.5554   7
  12 -26  -3 210.353 25.6242   7
  12 -26   4 261.481 25.8626   6
  14 -26   4 273.559 28.1315   6
 -12 -14  -4 265.518 32.6901  10
 -14 -12  -4 286.035 34.4254  10
 -26  12  -4 279.323 36.5152   9
 -26  14   4 246.218 29.7381   9
 -26  14  -4 318.711 37.9619   9
  12 -26  -4 274.143 26.5793   7
  14 -26  -4 197.398 23.7465   7
  14 -26   5 244.395 26.8252   6
 -12 -14  -5 181.352 28.8991  10
 -14 -12  -5 212.332 31.7584  10
 -26  12  -5 253.529 34.1095   9
 -26  14  -5 215.659 33.8533   9
  12 -26   5 214.060 24.4269   6
  12 -26  -5 246.452 26.3856   7
  14 -26  -5 180.033 23.9973   7
 -12 -14  -6 76.7610 24.0133  10
 -26  12  -6 121.682 28.3826   9
 -26  14  -6 144.695 29.5055   9
  12 -26   6 79.7657 20.6579   6
  14 -26   6 97.3762 23.2183   6
 -14 -12  -6 87.4334 25.9779  10
  12 -26  -6 90.7170 22.9618   7
  14 -26  -6 77.5941 20.9093   7
  14 -26  -7 62.1090 20.8387   7
 -12 -14  -7 49.8761 21.6624  10
 -14 -12  -7 35.7682 22.8019  10
 -26  12  -7 59.3968 24.1549   9
 -26  14  -7 65.6772 24.9860   9
  12 -26   7 41.9001 18.8300   6
  14 -26   7 79.5046 22.0633   6
  12 -26  -7 71.7664 22.3305   7
  14 -26  -8 51.0397 19.5702   7
 -12 -14  -8 46.4766 18.8970  10
 -14 -12  -8 62.6532 21.3235  10
 -26  12  -8 80.3444 21.6874   9
 -26  14  -8 71.7293 20.9031   9
  12 -26   8 54.6407 17.3744   6
  14 -26   8 41.7800 19.6660   6
  12 -26  -8 51.0920 21.3161   7
  14 -26  -9 50.0420 18.3403   7
 -14 -12  -9 36.1051 17.5508  10
  12 -26   9 41.7713 14.8992   6
  14 -26   9 49.4708 16.3584   6
  12 -26  -9 48.3542 19.4222   7
  12 -26  10 14.0935 11.8673   6
  14 -26  10 25.3358 13.1252   6
  12 -26 -10 38.3268 17.3144   7
  14 -26 -10 33.6000 16.0539   7
  12 -26  11-8.78005 9.91838   6
  14 -26  11 0.01418 10.2454   6
  12 -26 -11 15.4798 13.9452   7
  14 -26 -11-3.47519 12.9064   7
  12 -26  12-27.9983 8.37300   6
  14 -26  12 1.14572 8.02805   6
  12 -26 -12-0.00579 10.4948   7
  14 -26 -12 10.3303 10.5000   7
 -11 -15   0 92.4199 33.8581  10
 -15 -11   0 50.2925 32.9115  10
 -26  11   0 51.2813 32.3984   9
 -26  15   0 56.0198 33.4966   9
  11 -26   0 88.9463 22.0377   7
 -11 -15   1 50.1470 32.9846  10
 -11 -15  -1 21.3173 30.6338  10
 -15 -11   1 81.8991 34.0687  10
 -15 -11  -1 25.5609 34.2873  10
 -26  11   1 68.0773 31.1291   9
 -26  11  -1 40.8447 32.6836   9
 -26  15   1 31.3740 31.1605   9
 -26  15  -1 53.2319 34.4576   9
  15 -26   1 81.6525 27.5358   6
  11 -26  -1 45.2379 22.8149   7
 -15 -11   2 36.1035 32.3095  10
 -11 -15  -2 65.3125 30.2865  10
 -15 -11  -2 75.3189 33.7258  10
 -26  11   2 51.9022 29.9996   9
 -26  11  -2 72.8292 33.3214   9
 -26  15   2 29.5725 28.9845   9
 -26  15  -2 69.9573 35.3888   9
  15 -26   2 32.3819 26.1981   6
  11 -26  -2 20.8415 23.2402   7
 -11 -15  -3 38.5714 28.1291  10
 -15 -11  -3 22.0079 31.9901  10
 -26  11   3 13.5740 25.8410   9
 -26  11  -3 2.68970 32.2662   9
 -26  15   3 12.4450 26.0687   9
 -26  15  -3 58.0457 34.3917   9
  15 -26   3 23.1195 25.2705   6
  11 -26  -3 17.8394 23.2759   7
 -11 -15  -4 38.7841 27.4360  10
 -15 -11  -4 59.4345 32.0685  10
 -26  11  -4 54.1011 32.5655   9
 -26  15   4 52.9211 25.5841   9
 -26  15  -4 91.4076 33.6132   9
  11 -26   4 29.9447 19.8892   6
  15 -26   4 24.4052 26.0191   6
  11 -26  -4 19.0952 23.7822   7
  15 -26  -4 17.6457 19.7445   7
 -11 -15  -5 29.8007 25.0295  10
 -15 -11  -5 13.6121 28.7724  10
 -26  11  -5 90.1131 31.1278   9
 -26  15  -5 52.5718 30.3585   9
  11 -26   5 49.0093 19.8335   6
  15 -26   5 57.3852 25.3510   6
  11 -26  -5 29.3369 24.1150   7
  15 -26  -5 30.8590 19.8160   7
 -11 -15  -6-6.85188 21.9719  10
 -15 -11  -6 6.04084 25.7794  10
 -26  11  -6 16.9562 26.1925   9
 -26  15  -6-7.35974 26.7240   9
  11 -26   6-3.97889 18.2337   6
  15 -26   6-3.50637 22.8950   6
  11 -26  -6 12.3364 22.8714   7
  15 -26  -6 1.37724 19.3762   7
  15 -26  -7 20.7461 18.7218   7
 -11 -15  -7 30.3498 20.7525  10
 -15 -11  -7 21.1075 23.8510  10
 -26  11  -7 54.3261 24.1281   9
 -26  15  -7-1.01722 23.4219   9
  11 -26   7 13.6185 17.3143   6
  15 -26   7 20.9786 21.7115   6
  11 -26  -7 45.4273 22.6851   7
  15 -26  -8 31.9264 17.9241   7
 -15 -11  -8 11.5784 20.4176  10
 -26  11  -8 5.77716 19.7177   9
  11 -26   8 41.1109 15.8561   6
 -26  15  -8 22.2677 19.8090   9
  15 -26   8 14.7063 19.6550   6
  11 -26  -8 8.52028 20.9663   7
  15 -26  -9 29.4258 16.9821   7
 -15 -11  -9 32.1808 18.2904  10
  11 -26   9 14.6035 12.9129   6
  15 -26   9 16.8246 16.5170   6
  11 -26  -9 15.3541 19.3357   7
  15 -26 -10 19.6135 15.4525   7
 -15 -11 -10-9.36635 14.8388  10
  11 -26  10 5.89921 10.6296   6
  15 -26  10 9.68062 12.8402   6
  11 -26 -10 8.78082 16.5661   7
  11 -26  11 8.49714 8.84018   6
  15 -26  11 3.67001 10.2661   6
  11 -26 -11-15.1647 13.6465   7
  15 -26 -11-15.9880 12.5576   7
  15 -26  12 3.82916 7.87901   6
  11 -26 -12 1.99035 9.91662   7
  15 -26 -12 13.8961 9.74589   7
 -10 -16   0 107.092 32.4644  10
 -16 -10   0 170.762 36.4311  10
 -26  10   0 146.666 32.8981   9
 -26  16   0 139.476 34.9783   9
  10 -26   0 116.327 23.6093   7
 -10 -16  -1 290.651 36.4231  10
 -16 -10   1 251.193 37.5165  10
 -16 -10  -1 261.075 38.5863  10
 -26  10   1 302.273 36.0016   9
 -26  10  -1 317.452 37.8349   9
 -26  16   1 354.380 38.6327   9
 -26  16  -1 346.547 40.8688   9
  10 -26   1 246.293 24.5722   7
  10 -26  -1 273.376 27.7036   7
  16 -26   2 339.594 33.4214   6
 -10 -16  -2 342.622 35.5417  10
 -16 -10  -2 402.749 41.1615  10
 -16 -10   2 345.101 38.6499  10
 -26  10   2 380.613 35.8855   9
 -26  10  -2 406.603 39.8609   9
 -26  16   2 413.067 37.8341   9
 -26  16  -2 475.626 43.6063   9
  10 -26  -2 376.196 30.8849   7
  16 -26   3 343.649 32.4797   6
 -10 -16  -3 300.704 32.7266  10
 -16 -10  -3 282.802 38.2045  10
 -26  10   3 303.988 31.5574   9
 -26  16  -3 392.089 41.6085   9
 -26  10  -3 308.942 38.1587   9
 -26  16   3 265.054 32.4510   9
  10 -26  -3 249.328 29.0050   7
 -10 -16  -4 157.750 27.7555  10
 -16 -10  -4 183.080 34.3520  10
 -26  10  -4 192.715 34.2525   9
 -26  16   4 180.003 28.9158   9
 -26  16  -4 228.686 36.4233   9
  16 -26   4 166.378 29.2625   6
  10 -26  -4 139.076 27.2979   7
 -10 -16  -5 101.100 24.8934  10
 -16 -10  -5 118.307 32.1928  10
 -26  10  -5 86.7065 30.4449   9
 -26  16  -5 140.623 31.9054   9
  16 -26   5 132.438 27.7882   6
  10 -26  -5 108.786 26.0777   7
  16 -26  -5 77.4582 19.5305   7
  16 -26  -6 100.709 20.5917   7
 -10 -16  -6 125.837 23.2842  10
 -16 -10  -6 98.3198 28.3794  10
 -26  10  -6 190.729 30.2691   9
 -26  16  -6 180.307 30.5415   9
  16 -26   6 143.894 26.4257   6
  10 -26  -6 131.383 26.5364   7
  16 -26  -7 52.9250 18.5731   7
 -16 -10  -7 27.3178 24.8055  10
 -26  10  -7 54.6985 23.9701   9
  10 -26   7 9.06926 15.9406   6
 -26  16  -7 49.2626 24.0918   9
  16 -26   7 67.9085 23.3557   6
  10 -26  -7 70.1461 23.6910   7
  16 -26  -8 76.2381 18.4116   7
 -16 -10  -8 63.7411 22.4467  10
 -26  10  -8 51.5017 21.4953   9
  10 -26   8 31.8559 14.1769   6
  16 -26   8 83.3445 21.8287   6
  10 -26  -8 97.4551 23.3038   7
  16 -26  -9 40.9938 16.2754   7
 -16 -10  -9 53.5130 20.0588  10
  10 -26   9 28.5544 11.7927   6
  16 -26   9 37.1287 17.5117   6
  10 -26  -9 54.8453 20.1439   7
  16 -26 -10 23.3211 14.2263   7
 -16 -10 -10 14.8957 16.0101  10
  10 -26  10-15.8885 8.88074   6
  16 -26  10 13.3888 13.3444   6
  10 -26 -10 15.0527 16.5038   7
  16 -26 -11 5.66067 11.4544   7
  10 -26  11-5.15641 8.50868   6
  16 -26  11-4.36187 9.87038   6
  10 -26 -11 4.40925 13.0451   7
  16 -26  12-3.79553 7.79671   6
  10 -26 -12-8.55025 10.5856   7
  16 -26 -12 5.35786 9.53812   7
 -17  -9   0 165.001 36.2518  10
 -26   9   0 125.930 31.7642   9
 -26  17   0 126.204 34.8574   9
   9 -26   0 110.205 24.3860   7
  -9 -17  -1 63.9056 30.7374  10
 -17  -9   1 59.7553 35.1603  10
 -17  -9  -1 84.9563 36.3797  10
 -26   9   1 44.5138 30.3433   9
 -26   9  -1 50.1293 32.1146   9
 -26  17   1 64.6630 33.1324   9
 -26  17  -1 73.4149 36.5232   9
   9 -26   1 46.0795 22.0776   7
   9 -26  -1 80.8903 25.7453   7
  -9 -17  -2 100.173 29.2788  10
 -17  -9   2 94.9874 34.4708  10
 -17  -9  -2 78.7212 36.0357  10
 -26   9   2 32.7966 28.6649   9
 -26   9  -2 102.446 33.9246   9
 -26  17   2 47.9516 31.6595   9
 -26  17  -2 99.5088 37.8286   9
  17 -26   2 108.692 31.1894   6
   9 -26  -2 50.7534 26.1760   7
 -17  -9   3 80.7065 33.5955  10
  -9 -17  -3 35.2694 26.9127  10
 -17  -9  -3 55.4237 34.0519  10
 -26   9   3 39.5048 26.3182   9
 -26   9  -3 85.7865 34.0683   9
 -26  17   3 64.8681 29.0505   9
 -26  17  -3 94.3606 37.5756   9
  17 -26   3 123.393 30.7586   6
   9 -26  -3 36.7407 26.6748   7
  -9 -17  -4 33.7078 25.0163  10
 -17  -9  -4 40.8590 32.5606  10
 -26   9  -4 29.7586 31.1821   9
 -26  17   4 6.28675 24.2732   9
 -26  17  -4 28.8371 33.8797   9
  17 -26   4-29.8321 27.4851   6
   9 -26  -4 63.2486 27.8278   7
  -9 -17  -5 3.78231 22.3213  10
 -17  -9  -5 32.3820 31.5155  10
 -26   9  -5 56.6269 30.2358   9
 -26  17  -5 11.7968 29.8645   9
  17 -26   5 38.8661 26.8659   6
   9 -26  -5 25.0955 25.9360   7
  17 -26  -5 9.61957 18.1572   7
  17 -26  -6 13.1156 17.6569   7
 -17  -9  -6 25.4772 28.1910  10
 -26   9  -6-25.5558 26.9921   9
 -26  17  -6 25.6898 26.5809   9
  17 -26   6 43.9289 25.2211   6
   9 -26  -6 43.5946 26.1259   7
  17 -26  -7 30.9620 17.4328   7
 -17  -9  -7 24.6272 25.3153  10
 -26   9  -7 0.10192 23.9338   9
 -26  17  -7 43.8258 23.3302   9
  17 -26   7 20.6005 22.5587   6
   9 -26  -7 30.1168 24.4074   7
  17 -26  -8 3.32477 15.5782   7
 -17  -9  -8 4.00827 22.1174  10
 -26   9  -8 24.6821 20.8051   9
  17 -26   8 4.05376 20.6073   6
   9 -26  -8 20.8162 22.4837   7
  17 -26  -9 5.21367 14.6163   7
 -17  -9  -9-2.27550 18.9249  10
  17 -26   9 5.99034 16.9469   6
   9 -26  -9 9.19137 18.9470   7
  17 -26 -10 9.97573 13.4823   7
 -17  -9 -10-19.3079 16.8962  10
  17 -26  10 4.01534 12.9480   6
   9 -26 -10 11.0629 16.1192   7
  17 -26 -11 10.3408 11.1161   7
 -17  -9 -11-6.64465 12.5381  10
  17 -26  11-6.71437 9.88762   6
   9 -26 -11 1.11120 13.2609   7
  17 -26  12 3.79289 7.93334   6
 -18  -8   0 24.0827 32.6778  10
 -26   8   0-8.62812 29.5655   9
   8 -26   0 33.7288 23.0632   7
 -18  -8   1 96.6549 34.2408  10
 -18  -8  -1 130.004 35.2183  10
 -26   8   1 92.6835 30.5236   9
 -26   8  -1 111.472 32.1630   9
   8 -26   1 84.6565 22.9361   7
   8 -26  -1 54.9504 25.2153   7
 -18  -8   2 98.5820 32.7986  10
 -18  -8  -2 99.6586 34.5170  10
 -26   8   2 122.565 29.5163   9
 -26   8  -2 117.029 33.5040   9
 -26  18   2 114.306 31.6080   9
 -26  18  -2 106.072 37.0230   9
  18 -26   2 117.123 31.0789   6
   8 -26  -2 95.1228 27.2204   7
 -18  -8   3 65.3258 32.2535  10
  -8 -18  -3 17.2461 24.6655  10
 -26   8   3 46.8672 25.5202   9
 -26   8  -3 48.0820 32.3138   9
 -18  -8  -3 85.1658 34.7353  10
 -26  18   3 41.2232 27.0568   9
 -26  18  -3 69.9582 35.5417   9
  18 -26   3 120.479 30.9376   6
   8 -26  -3 59.0957 27.6746   7
  -8 -18  -4 28.5669 22.7837  10
 -18  -8  -4 89.0332 34.0356  10
 -26   8  -4 75.2416 31.7542   9
 -26  18   4 50.4854 25.0862   9
 -26  18  -4 55.2182 33.7093   9
  18 -26   4 75.8427 29.3883   6
   8 -26  -4 62.1819 27.9659   7
 -18  -8  -5 47.8269 31.7705  10
 -26   8  -5 115.567 30.4451   9
 -26  18  -5 99.9018 31.5508   9
  18 -26   5 117.117 28.7551   6
   8 -26  -5 114.954 28.8355   7
  18 -26  -6 19.7541 16.3094   7
 -18  -8  -6 33.8256 29.4230  10
 -26   8  -6-12.0727 20.7707  10
 -26   8  -6 52.1127 26.9001   9
 -26  18  -6 36.2342 26.4576   9
  18 -26   6 19.2425 25.1997   6
   8 -26  -6 61.5387 27.0481   7
  18 -26  -7 39.2715 16.6649   7
 -18  -8  -7 68.0602 26.6563  10
 -26   8  -7 35.7374 24.1115   9
 -26  18  -7 71.7663 23.2867   9
  18 -26   7 77.9377 24.0701   6
   8 -26  -7 34.1187 24.4350   7
  18 -26  -8 21.8212 14.8073   7
 -18  -8  -8 33.8764 22.5738  10
 -26   8  -8 5.29651 20.0434   9
  18 -26   8 10.3377 20.2762   6
   8 -26  -8 25.5221 21.3792   7
  18 -26  -9 13.4862 13.5853   7
 -18  -8  -9 17.0185 18.9728  10
  18 -26   9 34.3154 17.1668   6
   8 -26  -9 47.9685 19.2004   7
  18 -26 -10 7.36692 12.0864   7
 -18  -8 -10 19.5277 16.0102  10
 -26   8 -10 3.53908 15.9040  10
  18 -26  10 20.3416 13.1734   6
   8 -26 -10 0.41343 15.2406   7
  18 -26 -11 3.28618 10.1177   7
 -18  -8 -11 7.41269 12.0851  10
 -26   8 -11-0.91294 13.9439  10
  18 -26  11 1.24035 9.41331   6
   8 -26 -11 9.51311 12.4144   7
 -19  -7   0 168.468 36.1352  10
 -26   7   0 147.620 32.6005   9
   7 -26   0 151.868 26.2691   7
 -19  -7   1 183.301 35.3865  10
 -19  -7  -1 195.337 37.3833  10
 -26   7   1 146.462 32.1336   9
 -26   7  -1 146.888 33.7599   9
   7 -26  -1 166.213 27.6778   7
 -19  -7   2 83.9146 33.3123  10
 -19  -7  -2 130.071 35.0641  10
 -26   7   2 84.2349 29.0095   9
 -26   7  -2 127.782 32.9813   9
  19 -26   2 173.916 32.2676   6
   7 -26  -2 132.891 28.7116   7
 -19  -7   3 127.297 32.8737  10
 -19  -7  -3 106.335 35.2187  10
 -26   7   3 76.2388 27.0002   9
 -26   7  -3 122.283 33.6443   9
 -26  19   3 100.229 28.5442   9
 -26  19  -3 98.3910 35.9672   9
  19 -26   3 122.325 31.6874   6
   7 -26  -3 175.321 29.9552   7
 -19  -7  -4 118.429 34.9712  10
 -26   7  -4 123.052 32.7812   9
 -26  19   4 80.3018 26.4609   9
 -26  19  -4 127.426 34.2639   9
  19 -26   4 143.663 30.8270   6
   7 -26  -4 125.485 29.7690   7
 -19  -7  -5 123.698 34.6177  10
 -26   7  -5 48.9883 29.1284   9
 -26  19  -5 119.923 31.9258   9
  19 -26   5 136.116 28.8237   6
   7 -26  -5 73.5987 28.0869   7
 -19  -7  -6 55.3462 29.8978  10
 -26   7  -6 61.8799 21.0958  10
 -26   7  -6 42.2541 26.2305   9
 -26  19  -6-26.1357 26.3305   9
  19 -26   6 36.6246 25.8017   6
   7 -26  -6 46.6564 26.7982   7
 -19  -7  -7 67.0857 27.0916  10
 -26   7  -7 73.5928 21.3635  10
 -26   7  -7 28.9219 22.9218   9
 -26  19  -7 63.4645 22.7547   9
  19 -26   7 126.605 23.9466   6
   7 -26  -7 52.2349 24.2680   7
  19 -26  -8 10.8644 13.8640   7
 -19  -7  -8 37.5089 22.6180  10
 -26   7  -8 39.4681 19.7570  10
 -26   7  -8 32.5436 20.0292   9
  19 -26   8 8.70475 19.5298   6
   7 -26  -8 19.7073 20.9202   7
  19 -26  -9 23.5195 12.7043   7
 -19  -7  -9 15.7697 19.7495  10
 -26   7  -9 32.1030 18.1658  10
  19 -26   9 19.7632 15.7892   6
   7 -26  -9 16.2781 18.1975   7
  19 -26 -10 1.86070 10.6083   7
 -19  -7 -10 1.55331 16.2390  10
 -26   7 -10 14.8643 15.8488  10
  19 -26  10 7.49107 11.6103   6
   7 -26 -10 8.48097 14.3023   7
 -19  -7 -11 14.4398 12.5371  10
 -26   7 -11 15.5615 13.8144  10
  19 -26  11 0.86269 8.14284   6
   7 -26 -11 16.7467 11.8354   7
  19 -26 -11 4.78106 9.12118   7
 -20  -6   0 34.8844 32.8157  10
 -26   6   0 8.19552 29.8028   9
   6 -26   0 58.2306 24.8845   7
 -20  -6  -1 52.8610 33.8356  10
 -20  -6   1 44.0683 31.5207  10
 -26   6   1 46.4521 29.8376   9
 -26   6  -1 47.8254 31.1539   9
   6 -26  -1 51.6985 26.5140   7
 -20  -6   2 37.9701 29.9122  10
 -20  -6  -2 44.8976 33.2455  10
 -26   6   2 2.32289 26.2567   9
 -26   6  -2 22.4488 31.3625   9
  20 -26   2 86.6420 31.3134   6
   6 -26  -2 28.6321 27.0133   7
 -20  -6   3 8.11154 28.5774  10
 -20  -6  -3 10.9365 31.3692  10
 -26   6   3 1.76299 25.2929   9
 -26   6  -3 29.3046 32.1870   9
  20 -26   3 32.0525 30.3923   6
   6 -26  -3 25.5244 27.6422   7
 -20  -6  -4 47.4297 32.4818  10
 -26   6  -4 12.2028 30.1905   9
 -26  20   4 5.17512 23.7718   9
 -26  20  -4 61.5085 32.4611   9
  20 -26   4 8.87952 29.2412   6
   6 -26  -4 36.7956 28.1850   7
 -20  -6  -5 36.2563 31.8937  10
 -26   6  -5 21.2552 20.4430  10
 -26   6  -5 43.7294 28.6708   9
 -26  20  -5 50.3502 29.0476   9
  20 -26   5 41.0796 27.5202   6
   6 -26  -5 42.9568 27.4782   7
 -20  -6  -6 36.9719 29.2258  10
 -26   6  -6 2.94231 20.2076  10
 -26   6  -6 10.1869 24.9254   9
 -26  20  -6 2.45623 24.1868   9
  20 -26   6 28.6209 23.9394   6
   6 -26  -6-0.55713 24.4328   7
 -20  -6  -7 34.8234 25.8085  10
 -26   6  -7 9.93685 20.1573  10
 -26   6  -7 1.90132 21.9106   9
 -26  20  -7 1.50686 20.0945   9
  20 -26   7 7.75973 20.9986   6
   6 -26  -7-4.23228 22.0555   7
 -20  -6  -8 6.65517 21.6562  10
 -26   6  -8 24.1335 18.8758  10
 -26   6  -8 27.8809 18.8799   9
  20 -26   8 15.0049 18.0130   6
   6 -26  -8 9.45038 19.2387   7
  20 -26  -9 0.00605 10.7436   7
 -20  -6  -9 17.3447 19.0269  10
 -26   6  -9 13.4395 17.6132  10
  20 -26   9-0.93936 14.8763   6
   6 -26  -9 1.29912 16.0433   7
  20 -26 -10 5.11269 9.52656   7
 -20  -6 -10-22.4231 15.6599  10
 -26   6 -10 12.8487 15.2980  10
  20 -26  10-8.32947 10.6052   6
   6 -26 -10 7.58349 13.1625   7
 -20  -6 -11 6.34765 12.0239  10
 -26   6 -11-10.5275 12.3369  10
  20 -26  11 4.92440 7.30693   6
   6 -26 -11-3.76675 10.1380   7
 -21  -5   0 324.818 36.9527  10
 -21  -5   0 371.345 34.4570   9
 -26   5   0 395.301 36.1900   9
 -21  -5   1 223.474 34.4661  10
 -21  -5  -1 258.286 36.1934  10
 -26   5   1 293.119 33.6907   9
 -21  -5  -1 247.202 33.1370   9
 -26   5  -1 285.110 35.1805   9
   5 -26  -1 286.724 30.5305   7
 -21  -5   2 169.889 31.5733  10
 -21  -5  -2 168.420 33.6932  10
 -21  -5  -2 204.148 32.1871   9
 -26   5   2 141.705 29.0168   9
 -26   5  -2 215.514 34.1518   9
  26 -21   2 132.618 21.7971   6
  21 -26   2 228.395 33.5219   6
   5 -26  -2 178.946 29.1663   7
 -21  -5  -3 162.169 33.3392  10
 -21  -5  -3 208.708 33.6144   9
 -26   5   3 187.241 27.6316   9
 -26   5  -3 189.165 34.4022   9
  21 -26   3 191.714 32.0121   6
   5 -26  -3 207.231 30.3287   7
  21 -26   4 300.406 31.5628   6
 -21  -5  -4 248.682 35.5535  10
 -26   5  -4 248.076 33.7613   9
   5 -26  -4 284.975 31.9672   7
 -21  -5  -5 171.237 32.0142  10
 -26   5  -5 129.516 22.3565  10
 -26   5  -5 201.706 30.8512   9
 -26  21  -5 189.408 29.8381   9
  21 -26   5 191.651 27.9330   6
   5 -26  -5 159.274 28.0155   7
 -21  -5  -6 93.7914 28.1539  10
 -26   5  -6 122.531 22.5893  10
 -26   5  -6 121.524 26.3568   9
 -26  21  -6 156.892 26.2163   9
  21 -26   6 172.834 24.7273   6
   5 -26  -6 139.572 25.4109   7
 -21  -5  -7 95.4590 26.1890  10
 -26   5  -7 87.5115 20.8837  10
 -26   5  -7 69.1766 22.0039   9
 -26  21  -7 80.0709 20.9059   9
  21 -26   7 82.1179 20.2365   6
   5 -26  -7 70.3227 21.7299   7
 -21  -5  -8 79.4779 22.1272  10
 -26   5  -8 62.8668 19.1591  10
 -26   5  -8 64.9512 19.0976   9
  21 -26   8 84.7645 17.2528   6
   5 -26  -8 80.0859 19.2425   7
 -21  -5  -9-4.19187 18.1189  10
  21 -26   9 23.2430 13.0758   6
   5 -26  -9 33.6836 15.0139   7
 -21  -5 -10 22.9326 15.0577  10
 -26   5 -10 29.9873 14.0829  10
  21 -26  10 16.7003 9.27255   6
   5 -26 -10 15.4579 11.6703   7
 -22  -4   0 93.4563 31.0573  10
 -22  -4   0 86.7530 28.0548   9
 -26   4   0 63.2303 28.6770   9
 -22  -4   1 102.517 29.6096  10
 -22  -4  -1 93.6059 30.9788  10
 -22  -4   1 80.4121 26.9292   9
 -22  -4  -1 83.6083 28.8306   9
 -26   4   1 62.2899 28.2095   9
 -26   4  -1 102.469 30.8066   9
   4 -26  -1 95.8941 27.3216   7
 -22  -4   2 22.7161 26.8280  10
 -22  -4  -2 67.4811 30.2040  10
 -22  -4  -2 36.4444 28.1006   9
 -26   4   2 30.3798 25.3483   9
 -26   4  -2 32.1595 30.2772   9
  26 -22   2 31.5620 19.9730   6
  22 -26   2 64.4661 30.0745   6
   4 -26  -2 58.7832 26.8070   7
 -22  -4  -3 59.1925 29.4612  10
 -22  -4  -3 60.3338 29.5723   9
 -26   4   3 60.4127 23.7347   9
 -26   4  -3 65.9393 31.0927   9
  26 -22   3 55.9910 19.1026   6
  22 -26   3 36.9834 27.4297   6
   4 -26  -3 79.8442 27.1458   7
 -22  -4  -4 114.183 31.1169  10
 -26   4  -4 70.9252 21.3620  10
 -22  -4  -4 109.890 29.7218   9
 -26   4  -4 103.445 29.8126   9
  26 -22   4 73.8368 18.2632   6
  22 -26   4 89.2451 26.3298   6
   4 -26  -4 138.926 27.5877   7
 -22  -4  -5 59.8365 28.7054  10
 -26   4  -5 48.8538 21.1932  10
 -26   4  -5 64.7256 26.7748   9
 -26  22  -5 114.957 27.6001   9
  22 -26   5 62.1701 23.4310   6
   4 -26  -5 21.5191 23.5472   7
 -22  -4  -6 28.4968 25.3528  10
 -26   4  -6 42.7597 20.4890  10
 -26   4  -6 43.1968 23.4302   9
 -26  22  -6 6.69489 22.2166   9
  22 -26   6 63.5059 20.8628   6
   4 -26  -6 10.6323 21.5799   7
 -22  -4  -7 34.1962 22.8881  10
 -26   4  -7 29.5565 19.4441  10
 -26   4  -7 54.7055 21.0187   9
 -26  22  -7 26.7190 17.9873   9
  22 -26   7 17.8340 17.6053   6
   4 -26  -7 41.8350 18.9347   7
 -22  -4  -8 47.8124 20.3816  10
 -26   4  -8 24.4556 17.6792  10
 -26   4  -8 14.5609 16.7045   9
  22 -26   8 16.7232 14.2592   6
   4 -26  -8 32.3418 15.8202   7
 -22  -4  -9 0.87319 16.4602  10
 -26   4  -9 8.71507 15.2795  10
  22 -26   9 6.20789 11.1822   6
   4 -26  -9 8.23913 12.6234   7
 -22  -4 -10 1.34596 13.4765  10
 -26   4 -10 5.75755 13.3230  10
  22 -26  10 3.39536 7.35589   6
   4 -26 -10 10.5461 9.36616   7
 -23  -3   0 251.101 31.4521  10
 -23  -3   0 320.515 31.9245   9
 -26   3   0 305.809 32.4428   9
 -23  -3   1 208.099 30.2025  10
 -23  -3  -1 236.456 31.6040  10
 -23  -3   1 252.040 29.1930   9
 -23  -3  -1 220.324 31.1339   9
 -26   3   1 236.271 29.9341   9
 -26   3  -1 225.385 31.7794   9
 -23  -3  -2 179.574 30.6229  10
 -23  -3  -2 240.251 31.6179   9
 -26   3   2 228.444 28.1743   9
 -26   3  -2 237.825 32.2416   9
  26 -23   2 214.750 23.2367   6
  23 -26   2 243.204 29.2136   6
   3 -26  -2 196.579 28.7260   7
 -23  -3  -3 177.794 30.5188  10
 -23  -3  -3 210.266 30.1659   9
 -26   3   3 207.878 25.2772   9
 -26   3  -3 188.979 30.7919   9
  26 -23   3 145.017 20.5083   6
  23 -26   3 202.313 27.1525   6
   3 -26  -3 163.299 26.6146   7
 -23  -3  -4 204.095 30.0874  10
 -26   3  -4 163.358 23.4610  10
 -23  -3  -4 253.083 29.9458   9
 -26   3  -4 235.946 30.2235   9
  26 -23   4 178.424 19.0350   6
  23 -26   4 210.563 25.5483   6
   3 -26  -4 257.978 27.0473   7
 -23  -3  -5 171.772 28.2884  10
 -26   3  -5 115.320 22.4601  10
 -26   3  -5 154.490 26.7112   9
 -26  23  -5 155.246 25.9923   9
  26 -23   5 138.902 16.5042   6
  23 -26   5 195.166 22.8482   6
   3 -26  -5 165.906 23.2975   7
 -23  -3  -6 83.1807 24.2189  10
 -26   3  -6 62.3433 20.3098  10
 -26   3  -6 81.5039 22.5704   9
 -26  23  -6 42.7884 20.6029   9
  23 -26   6 62.2174 18.0074   6
   3 -26  -6 75.4222 19.9506   7
 -23  -3  -7 83.4788 22.5917  10
 -26   3  -7 70.3120 19.3421  10
 -26   3  -7 103.447 20.6443   9
 -26  23  -7 61.3858 17.7999   9
  23 -26   7 64.6432 15.9398   6
   3 -26  -7 73.7956 17.7786   7
 -23  -3  -8 54.2008 19.3036  10
 -26   3  -8 58.3220 17.2996  10
 -26   3  -8 51.8145 16.3401   9
  23 -26   8 40.9012 12.5761   6
   3 -26  -8 19.6896 13.8921   7
 -23  -3  -9 34.7285 15.5769  10
 -26   3  -9 23.7880 14.5743  10
  23 -26   9 22.8729 9.41289   6
   3 -26  -9 16.5977 10.9327   7
 -23  -3 -10 11.7385 11.9676  10
 -24  -2   0 40.3635 23.5313  10
 -24  -2   0 66.7720 26.7020   9
 -26   2   0 73.7723 26.0992   9
 -24  -2   1 33.4317 23.6802   9
 -24  -2  -1 50.2889 26.7931   9
 -26   2   1 37.0068 25.0599   9
 -26   2  -1 52.2159 27.1872   9
 -24  -2  -1 59.7697 25.4419  10
  26 -24   1 34.6613 20.9074   6
  24 -26   1 103.156 26.1628   6
 -24  -2  -2 51.6183 25.6783  10
 -24  -2  -2 87.2478 27.5812   9
 -26   2   2 62.1619 23.2696   9
 -26   2  -2 39.0669 26.5803   9
  26 -24   2 47.8483 19.9398   6
  24 -26   2 69.2532 24.7733   6
 -24  -2  -3 32.5362 24.5948  10
 -26   2  -3 47.0714 20.6669  10
 -24  -2  -3 67.4723 26.2125   9
 -26   2   3 42.3880 20.1779   9
 -26   2  -3 34.7002 26.0266   9
  26 -24   3 30.1467 18.6023   6
  24 -26   3 53.4359 22.2072   6
 -24  -2  -4 72.0440 25.5419  10
 -26   2  -4 30.8075 20.2954  10
 -24  -2  -4 33.6746 24.6207   9
 -26   2  -4 59.1654 25.3327   9
  26 -24   4 43.4564 16.9668   6
  24 -26   4 68.3587 21.0594   6
   2 -26  -4 48.4445 21.5558   7
 -24  -2  -5 46.5001 23.5251  10
 -26   2  -5 19.5000 19.3443  10
 -26   2  -5 14.4146 22.3837   9
 -26  24  -5 46.0590 22.0981   9
  26 -24   5 35.6487 14.9414   6
  24 -26   5 29.2016 18.2330   6
   2 -26  -5 37.3002 19.1552   7
 -24  -2  -6 9.86490 21.3331  10
 -26   2  -6 13.4608 18.9589  10
 -26   2  -6 16.7074 19.4621   9
 -26  24  -6 13.6853 18.0150   9
  26 -24   6 19.2610 12.3372   6
  24 -26   6 7.26350 15.1178   6
   2 -26  -6 19.6655 16.6862   7
 -24  -2  -7 57.6453 19.9061  10
 -26   2  -7 3.78385 17.5623  10
 -26   2  -7 35.1299 17.1721   9
  24 -26   7 18.3486 13.1883   6
   2 -26  -7 35.4866 14.6926   7
 -24  -2  -8 3.31017 16.2017  10
 -26   2  -8 8.13991 15.8679  10
  24 -26   8 12.1364 10.1214   6
   2 -26  -8 0.00659 11.8332   7
 -24  -2  -9 7.79450 13.8127  10
 -26   2  -9-17.6404 13.4221  10
 -25  -1   0 96.7507 25.0387   9
 -26   1   0 98.6235 25.0261   9
 -25  -1  -1 103.146 22.7506  10
 -25  -1   1 107.928 24.2016   9
 -25  -1  -1 108.105 25.8400   9
 -26   1   1 136.788 25.2648   9
 -26   1  -1 112.572 26.1773   9
  26 -25   1 85.9804 21.6578   6
  25 -26   1 136.150 23.7074   6
 -25  -1  -2 38.4386 22.3277  10
 -25  -1   2 79.3696 21.3298   9
 -25  -1  -2 78.0876 24.8505   9
 -26   1   2 72.7809 21.4597   9
 -26   1  -2 76.2943 25.6123   9
  26 -25   2 60.0731 19.3879   6
  25 -26   2 49.0539 21.5002   6
 -25  -1  -3 62.7139 22.6103  10
 -26   1  -3 29.1173 18.1202  10
 -25  -1  -3 101.208 25.0930   9
 -26   1  -3 49.1772 24.5256   9
  26 -25   3 62.0163 17.8300   6
  25 -26   3 76.8328 20.1197   6
 -25  -1  -4 41.1661 21.6476  10
 -26   1  -4 41.3012 20.2901  10
 -25  -1  -4 32.7745 22.8871   9
 -26   1  -4 74.6182 23.4568   9
  26 -25   4 37.9957 15.9369   6
  25 -26   4 57.3381 17.8243   6
 -25  -1  -5 39.8466 20.6225  10
 -26   1  -5 15.3774 18.2057  10
 -25  -1  -5 24.3990 20.3495   9
 -26   1  -5 18.0412 20.9777   9
 -26  25  -5 39.0814 19.3338   9
  26 -25   5-4.82165 13.5758   6
  25 -26   5 29.7369 15.1736   6
 -25  -1  -6 22.9060 18.4673  10
 -26   1  -6 30.1588 17.5627  10
 -26   1  -6 24.6726 18.2725   9
 -26  25  -6 32.5900 16.6330   9
  26 -25   6 22.8883 11.7331   6
  25 -26   6 19.5522 12.9845   6
 -25  26  -6-1.00578 15.0949   9
 -25  -1  -7 26.7164 17.3340  10
 -26   1  -7 10.1055 15.7178  10
  26 -25   7-3.27401 9.19909   6
  25 -26   7 17.8865 10.7466   6
 -25  -1  -8 9.99992 14.2565  10
 -26   1  -8 20.6896 14.4863  10
  25 -26   8 2.99288 7.71030   6
 -26   0   0 17.6326 21.5068   9
  26 -26   0 15.0649 19.5640   6
 -26   0   1 12.3312 20.5015   9
 -26   0  -1 11.3391 22.1561   9
  26 -26   1 16.3160 18.9806   6
 -26   0  -2 23.6664 21.9434   9
  26 -26   2-17.2251 18.1217   6
 -26   0  -3-14.2188 16.5822  10
 -26   0  -3 10.1104 21.5199   9
  26 -26   3-10.0552 16.5601   6
 -26   0  -4 11.7407 17.6645  10
 -26   0  -4-1.46283 20.1048   9
  26 -26   4-10.9249 14.5189   6
 -26   0  -5-21.5305 17.6733  10
  26 -26   5-10.0186 12.8036   6
 -26   0  -6 7.33511 15.5678  10
  26 -26   6 1.97675 10.3883   6
 -26  26  -6 2.88078 13.6613   9
 -26   0  -7-6.39340 14.6863  10
  26 -26   7-16.3590 8.13417   6
 -13 -14   0 66.6975 33.6325  10
 -14 -13   0 35.0340 33.0973  10
 -27  13   0 51.0201 30.5594   9
 -27  14   0 32.8384 30.0095   9
  14 -27   0 30.4809 21.6301   6
 -13 -14   1 35.4044 32.9125  10
 -14 -13   1 29.9105 32.1156  10
 -13 -14  -1 55.1511 32.0105  10
 -14 -13  -1 36.0610 31.4790  10
 -27  13   1 39.7313 28.9424   9
 -27  13  -1 49.1747 31.6666   9
 -27  14   1 47.2560 29.2222   9
 -27  14  -1 75.1747 32.7596   9
  13 -27   1 7.69423 19.9603   6
  14 -27   1 50.4750 22.0895   6
 -13 -14  -2 41.4855 29.8309  10
 -14 -13  -2 30.6547 29.5582  10
 -27  13   2 28.3047 26.7554   9
 -27  13  -2 60.4921 32.6032   9
 -27  14   2 63.2140 27.7912   9
 -27  14  -2 73.0305 32.7395   9
  13 -27   2 27.5976 19.5032   6
  14 -27   2 49.1563 21.7853   6
  13 -27  -2 42.0003 19.7379   7
 -13 -14  -3 34.0310 28.0225  10
 -14 -13  -3 25.8592 29.0024  10
 -27  13   3 35.1877 23.8403   9
 -27  13  -3 36.1808 31.7204   9
 -27  14   3 19.2759 23.9659   9
 -27  14  -3 35.6340 31.5372   9
  13 -27   3-7.17291 19.3050   6
  14 -27   3 31.1860 21.3175   6
  13 -27  -3 9.24157 19.5247   7
  14 -27  -3 34.2425 18.8245   7
 -13 -14  -4 20.1833 25.9332  10
 -14 -13  -4 11.6071 26.8740  10
 -27  13  -4 19.6970 30.3737   9
 -27  14  -4 0.58013 30.0975   9
  13 -27   4 10.4482 19.6148   6
  14 -27   4 15.1320 20.6378   6
  13 -27  -4 4.94104 20.0405   7
  14 -27  -4 4.80792 18.9724   7
 -13 -14  -5 31.4948 24.9423  10
 -14 -13  -5 17.7924 25.2528  10
 -27  13  -5 24.8196 27.5873   9
 -27  14  -5 7.04875 27.5092   9
  13 -27   5 28.1832 19.6003   6
  14 -27   5-5.72484 20.0121   6
  13 -27  -5 7.36465 20.1418   7
  14 -27  -5 14.4318 19.1677   7
 -14 -13  -6 12.8126 23.1100  10
 -27  13  -6 46.6945 24.5801   9
 -27  14  -6 4.94373 23.9026   9
  13 -27   6-13.6661 18.6266   6
  14 -27   6 5.96231 18.7395   6
 -13 -14  -6 6.39117 21.4442  10
  13 -27  -6 5.22292 19.8672   7
  14 -27  -6-12.0903 19.1046   7
 -13 -14  -7 16.0416 20.0939  10
 -14 -13  -7-41.1673 21.4673  10
 -27  13  -7 7.02421 21.2545   9
 -27  14  -7 0.01330 21.4359   9
  13 -27   7 23.0771 16.4165   6
  14 -27   7 27.4142 18.0095   6
  13 -27  -7 36.2745 18.9461   7
  14 -27  -7 8.83005 18.2228   7
 -13 -14  -8-22.0169 17.6246  10
 -14 -13  -8-5.84612 18.0952  10
 -27  13  -8 7.28999 18.0159   9
 -27  14  -8-17.7416 18.0161   9
  13 -27   8 4.30253 13.9861   6
  14 -27   8-3.95192 15.0375   6
  13 -27  -8-20.2787 17.8136   7
  14 -27  -8-4.82743 16.6983   7
 -14 -13  -9-10.8543 15.0726  10
  13 -27   9-10.3684 11.6237   6
  14 -27   9 4.65670 12.6478   6
  13 -27  -9 15.4470 16.4781   7
  14 -27  -9 7.12140 15.2283   7
  13 -27  10-3.19391 9.61783   6
  14 -27  10-4.64713 9.90728   6
  13 -27 -10 9.77523 13.4715   7
  14 -27 -10 3.62868 12.8149   7
  13 -27  11-4.22117 7.14995   6
  14 -27  11-6.03424 7.72551   6
  13 -27 -11-7.45129 10.9449   7
  14 -27 -11 3.05481 10.8275   7
 -12 -15   0 25.0490 31.5656  10
 -15 -12   0 41.6963 33.7311  10
 -27  12   0 14.6628 29.7450   9
 -27  15   0 35.6752 30.9020   9
  15 -27   0 22.7380 22.9112   6
 -15 -12   1 43.7734 32.9711  10
 -12 -15  -1 40.2597 30.5838  10
 -15 -12  -1 25.8253 33.1989  10
 -27  12   1-1.63533 27.5093   9
 -27  12  -1 2.95103 31.0919   9
 -27  15   1-25.5897 29.5374   9
 -27  15  -1 27.8967 32.3164   9
  15 -27   1 28.0460 23.6039   6
  12 -27  -1 7.52998 18.6955   7
 -12 -15  -2-3.14491 28.2482  10
 -15 -12  -2 18.1155 31.5310  10
 -27  12   2-25.9299 27.1086   9
 -27  12  -2-1.15889 31.2324   9
 -27  15   2 14.7749 26.8232   9
 -27  15  -2 27.8743 32.5442   9
  15 -27   2 9.36167 22.4915   6
  12 -27  -2 5.63122 20.0761   7
 -12 -15  -3 20.7404 26.4016  10
 -15 -12  -3 15.7584 30.2293  10
 -27  12   3-0.16885 23.2581   9
 -27  12  -3 12.4887 31.3888   9
 -27  15   3-10.6447 24.4353   9
 -27  15  -3 42.8066 32.9798   9
  15 -27   3-2.53988 22.1805   6
  12 -27  -3 30.9299 21.2115   7
 -12 -15  -4-17.0223 24.8593  10
 -15 -12  -4 28.2748 28.9878  10
 -27  12  -4 29.0349 29.7340   9
 -27  15   4 27.9623 22.9500   9
 -27  15  -4 14.7472 30.9023   9
  12 -27   4-14.8317 18.5059   6
  15 -27   4 23.9915 21.6837   6
  12 -27  -4 15.5553 21.7589   7
  15 -27  -4 42.0689 19.2936   7
 -12 -15  -5-7.25728 23.3006  10
 -15 -12  -5 16.6122 27.1946  10
 -27  12  -5 9.06830 27.3462   9
 -27  15  -5 44.3105 29.1538   9
  12 -27   5 10.1147 17.6705   6
  15 -27   5 37.7141 21.5207   6
  12 -27  -5 11.9347 21.4749   7
  15 -27  -5 18.0555 18.6102   7
 -12 -15  -6 0.42186 20.6661  10
 -15 -12  -6 0.57974 23.9664  10
 -27  12  -6 25.1958 24.7507   9
 -27  15  -6-16.1710 25.0228   9
  12 -27   6 13.2199 16.6549   6
  15 -27   6 9.21783 20.2300   6
  12 -27  -6 2.75301 20.7302   7
  15 -27  -6-15.0196 17.8888   7
 -12 -15  -7 6.52925 18.6853  10
 -15 -12  -7 20.0620 21.4241  10
 -27  12  -7-3.39938 21.5187   9
 -27  15  -7 30.3911 21.1910   9
  12 -27   7 1.25120 15.3983   6
  15 -27   7 14.0598 18.6237   6
  12 -27  -7-3.56853 19.6299   7
  15 -27  -7 4.21956 16.8872   7
 -15 -12  -8-7.37313 19.3725  10
 -27  12  -8-9.18552 18.4110   9
  12 -27   8 6.35323 13.1278   6
 -27  15  -8-44.0197 18.9868   9
  15 -27   8 26.9266 16.3909   6
  12 -27  -8-11.4820 18.3406   7
  15 -27  -8 2.40155 16.0951   7
 -15 -12  -9 12.4632 16.2926  10
  12 -27   9-0.00526 10.5552   6
  15 -27   9 7.81978 12.9044   6
  12 -27  -9-17.6861 16.3477   7
  15 -27  -9-19.9830 14.8156   7
  12 -27  10-17.5229 8.19549   6
  15 -27  10-3.72471 10.4947   6
  12 -27 -10-9.20468 13.7822   7
  15 -27 -10 4.23367 12.5884   7
  15 -27  11 2.32155 8.26933   6
  12 -27 -11 3.70652 10.9445   7
  15 -27 -11-9.66448 10.5258   7
 -16 -11   0 54.3007 34.5192  10
 -27  11   0 59.8113 30.6677   9
 -27  16   0 68.2445 32.6315   9
  11 -27   0 22.0827 18.9278   7
 -11 -16  -1 59.0510 30.5686  10
 -16 -11   1 70.0431 34.3001  10
 -16 -11  -1 65.1951 34.0878  10
 -27  11   1 48.8430 29.4335   9
 -27  11  -1 91.0283 32.7364   9
 -27  16   1 61.6017 30.4537   9
 -27  16  -1 111.494 35.2916   9
  16 -27   1 106.872 26.2394   6
  11 -27  -1 56.5189 21.1661   7
 -16 -11   2 54.6357 32.3921  10
 -16 -11  -2 27.9095 34.2268  10
 -27  11   2 21.5555 26.2887   9
 -27  11  -2 42.4375 32.7499   9
 -27  16   2 20.4502 27.9623   9
 -27  16  -2 87.2094 34.7586   9
  16 -27   2 63.1582 25.6606   6
 -11 -16  -2 40.1129 28.5350  10
  11 -27  -2 36.5676 22.4499   7
 -11 -16  -3 47.8327 26.7758  10
 -16 -11  -3 48.4656 32.9293  10
 -27  11   3 50.0899 24.4661   9
 -27  11  -3 41.6365 32.1487   9
 -27  16   3 59.8503 25.8334   9
 -27  16  -3 60.3453 34.3441   9
  16 -27   3 59.2628 24.7563   6
  11 -27  -3 26.5159 22.7170   7
 -11 -16  -4 28.2698 24.5801  10
 -16 -11  -4 28.4589 30.8047  10
 -27  11  -4 22.4734 30.1417   9
 -27  16   4 25.9626 23.4383   9
 -27  16  -4 54.7716 31.6689   9
  16 -27   4 57.9369 24.4656   6
  11 -27  -4 10.4588 22.8767   7
 -11 -16  -5 50.7081 23.4390  10
 -16 -11  -5 43.1447 28.5559  10
 -27  11  -5 28.8128 28.1267   9
 -27  16  -5-3.29779 28.3834   9
  16 -27   5 12.4690 23.1177   6
  11 -27  -5 11.2413 23.0617   7
  16 -27  -5 17.2084 17.9379   7
 -11 -16  -6 14.6677 19.9548  10
 -16 -11  -6 72.5719 27.1491  10
 -27  11  -6 1.81564 24.9485   9
  11 -27   6 8.87412 15.3686   6
 -27  16  -6 17.4053 25.2304   9
  16 -27   6 17.6402 21.6676   6
  11 -27  -6 32.1500 23.0166   7
  16 -27  -6 22.5486 17.4759   7
 -16 -11  -7 2.29460 22.1638  10
 -27  11  -7 3.59273 21.7353   9
  11 -27   7 10.2048 13.8845   6
 -27  16  -7 9.56229 21.5889   9
  16 -27   7 17.6989 19.8654   6
  11 -27  -7 22.8093 21.3744   7
  16 -27  -7 3.76949 16.4466   7
 -16 -11  -8 20.9896 19.5157  10
 -27  11  -8-21.6515 19.0787   9
  11 -27   8-13.8548 11.4271   6
  16 -27   8 7.96473 17.1013   6
  11 -27  -8 12.2952 19.1220   7
  16 -27  -8 28.4873 15.7360   7
 -16 -11  -9 16.3096 16.8185  10
  11 -27   9 6.71594 8.22525   6
  16 -27   9 3.42120 13.4107   6
  11 -27  -9 19.9155 17.4012   7
  16 -27  -9 8.04446 13.7442   7
 -16 -11 -10 3.32932 12.8368  10
  11 -27  10 2.53231 8.44905   6
  16 -27  10 10.4841 10.6954   6
  11 -27 -10 7.72832 14.5469   7
  16 -27 -10 4.69274 12.2564   7
  16 -27  11 8.98582 8.18394   6
  11 -27 -11 20.8374 11.6881   7
  16 -27 -11 6.21012 9.85419   7
 -17 -10   0 209.923 38.0634  10
 -27  10   0 174.571 34.1794   9
  10 -27   0 192.765 24.1693   7
 -17 -10   1 184.631 36.5356  10
 -17 -10  -1 156.987 36.8602  10
 -27  10   1 139.881 31.4993   9
 -27  10  -1 135.368 33.7003   9
 -27  17   1 171.843 33.7406   9
 -27  17  -1 244.467 38.5061   9
  17 -27   1 193.626 29.5021   6
  10 -27   1 168.009 22.3151   7
  10 -27  -1 141.584 24.5311   7
 -10 -17  -2 171.094 31.5451  10
 -17 -10   2 193.817 36.4052  10
 -17 -10  -2 179.686 37.7214  10
 -27  10   2 141.362 30.2060   9
 -27  10  -2 243.615 36.5983   9
 -27  17   2 216.544 32.2631   9
 -27  17  -2 236.184 40.0075   9
  17 -27   2 236.160 30.3158   6
  10 -27  -2 205.862 26.9737   7
  17 -27   3 239.592 30.3947   6
 -10 -17  -3 212.707 30.6297  10
 -17 -10  -3 263.799 39.6630  10
 -27  17  -3 316.824 39.3532   9
 -27  10   3 85.9647 26.7321   9
 -27  10  -3 242.020 37.3766   9
 -27  17   3 106.518 28.5774   9
  10 -27  -3 234.335 28.6420   7
 -10 -17  -4 51.9327 24.6735  10
 -17 -10  -4 157.913 34.8915  10
 -27  10  -4 121.229 32.4040   9
 -27  17   4 36.9389 23.9098   9
 -27  17  -4 120.716 34.2596   9
  17 -27   4 115.482 27.3973   6
  10 -27  -4 87.7526 26.4002   7
 -10 -17  -5 79.2259 23.0203  10
 -17 -10  -5 130.847 31.7506  10
 -27  10  -5 101.278 29.9409   9
 -27  17  -5 78.2539 30.5328   9
  17 -27   5 148.531 26.7774   6
  10 -27  -5 112.120 26.2315   7
 -17 -10  -6 102.251 28.7072  10
 -27  10  -6 110.256 27.6120   9
 -27  17  -6 104.294 27.5834   9
  17 -27   6 133.806 24.4850   6
  10 -27  -6 142.235 25.6819   7
  17 -27  -6 100.905 18.5700   7
 -17 -10  -7 49.7491 24.2967  10
 -27  10  -7 42.8815 23.0492   9
 -27  17  -7 30.3996 21.6274   9
  17 -27   7 91.8455 21.5112   6
  10 -27  -7 94.7763 23.0798   7
  17 -27  -7 27.6090 15.7752   7
 -17 -10  -8 61.4990 21.1732  10
 -27  10  -8 46.1282 14.8137  10
 -27  10  -8 6.97676 18.9818   9
  17 -27   8 52.1337 18.5189   6
  10 -27  -8 60.3424 20.7026   7
  17 -27  -8 40.0526 15.1842   7
 -17 -10  -9 23.3103 17.1716  10
 -27  10  -9 5.43215 12.6375  10
  17 -27   9 20.0205 14.2946   6
  10 -27  -9 41.0065 17.3984   7
  17 -27  -9 35.0252 13.9630   7
 -17 -10 -10 5.72583 13.9363  10
 -27  10 -10 14.6891 11.2075  10
  17 -27  10 16.9649 10.8476   6
  10 -27 -10 6.43741 14.2197   7
  17 -27 -10 21.7123 11.2837   7
  17 -27  11-4.17224 7.80894   6
  10 -27 -11 5.92227 10.5399   7
  17 -27 -11 17.4626 9.21400   7
 -18  -9   0 108.987 35.1531  10
 -27   9   0 122.933 32.3470   9
 -27  18   0 150.174 35.7644   9
   9 -27   0 65.3935 22.2888   7
 -18  -9   1 108.441 34.4431  10
 -18  -9  -1 100.468 35.0064  10
 -27   9   1 66.3564 29.3973   9
 -27   9  -1 67.2820 31.5155   9
 -27  18   1 78.5216 31.7448   9
 -27  18  -1 128.149 36.0256   9
  18 -27   1 80.9687 28.7400   6
   9 -27  -1 100.264 24.1134   7
 -18  -9   2 59.1380 32.2501  10
 -18  -9  -2 55.0914 34.7848  10
 -27   9   2 68.5674 28.2285   9
 -27   9  -2 70.2072 32.5954   9
 -27  18   2 40.7205 28.5659   9
 -27  18  -2 126.533 36.6890   9
  18 -27   2 61.2729 28.5130   6
   9 -27  -2 47.3209 23.9183   7
 -18  -9  -3 110.644 35.9509  10
 -27   9   3 44.5517 26.3054   9
 -27   9  -3 120.496 33.9072   9
 -27  18   3 85.4870 27.7500   9
 -27  18  -3 87.9107 35.7151   9
  18 -27   3 107.899 28.9817   6
   9 -27  -3 94.6532 26.5343   7
  -9 -18  -4 58.5752 23.0402  10
 -18  -9  -4 35.0698 32.5281  10
 -27   9  -4 61.2967 30.9070   9
 -27  18   4 47.6255 23.1516   9
 -27  18  -4 56.9103 32.1601   9
  18 -27   4 30.2682 25.7522   6
   9 -27  -4 51.7932 25.2910   7
 -18  -9  -5 39.6629 29.9628  10
 -27   9  -5 44.3794 28.0280   9
 -27  18  -5 46.6602 28.2387   9
  18 -27   5 44.1441 24.8997   6
   9 -27  -5 33.3751 24.6697   7
 -18  -9  -6 60.1748 27.7121  10
 -27   9  -6 33.0794 25.7627   9
 -27  18  -6 11.4591 24.4928   9
  18 -27   6 63.5990 23.3395   6
   9 -27  -6 73.8972 24.5443   7
 -18  -9  -7 37.4677 23.5972  10
 -27   9  -7 50.6755 17.1128  10
 -27   9  -7 40.8943 22.2673   9
 -27  18  -7 13.1446 20.4641   9
  18 -27   7 33.6163 20.4835   6
   9 -27  -7 46.9396 22.1664   7
  18 -27  -7 34.7090 15.2236   7
 -18  -9  -8 33.5983 20.5324  10
 -27   9  -8-3.73196 14.8873  10
 -27   9  -8 17.2555 17.5980   9
  18 -27   8 44.5291 18.2850   6
   9 -27  -8 10.3444 19.4758   7
  18 -27  -8 10.7559 13.2399   7
 -18  -9  -9 24.5134 17.0743  10
 -27   9  -9-15.6542 13.8873  10
  18 -27   9 9.31701 13.3670   6
   9 -27  -9 12.4368 16.6618   7
  18 -27  -9 2.62736 12.0633   7
 -18  -9 -10-11.1750 13.7664  10
 -27   9 -10-1.15130 10.4692  10
  18 -27  10-6.74949 9.92434   6
   9 -27 -10 19.2414 13.0780   7
  18 -27 -10 4.26881 10.1793   7
  18 -27  11-2.37309 7.68401   6
   9 -27 -11 8.61529 9.83119   7
 -19  -8   0 406.659 40.6809  10
 -27   8   0 466.702 37.2525   9
 -27  19   0 516.063 41.4587   9
   8 -27   0 421.642 28.5343   7
 -19  -8   1 353.772 37.7070  10
 -19  -8  -1 369.744 39.1489  10
  19 -27   1 367.033 34.0058   6
 -27   8   1 330.998 34.0738   9
 -27   8  -1 439.662 38.0361   9
 -27  19   1 373.522 36.4896   9
   8 -27  -1 383.235 28.7320   7
  19 -27   2 364.778 33.6655   6
 -19  -8  -2 368.554 39.4868  10
 -19  -8   2 305.937 36.7796  10
 -27   8   2 342.389 33.1630   9
 -27   8  -2 403.401 38.2376   9
 -27  19   2 355.770 34.4460   9
 -27  19  -2 386.504 41.6354   9
   8 -27  -2 325.135 29.4250   7
  19 -27   3 425.418 32.7390   6
 -19  -8  -3 344.290 38.6313  10
 -27   8   3 322.189 30.6591   9
 -27   8  -3 387.820 38.3326   9
 -27  19   3 321.591 31.6712   9
 -27  19  -3 414.088 40.6572   9
   8 -27  -3 371.752 30.8132   7
 -19  -8  -4 224.707 36.2085  10
 -27   8  -4 242.752 33.4902   9
 -27  19   4 200.738 26.2257   9
 -27  19  -4 238.548 35.0438   9
  19 -27   4 204.928 28.9811   6
   8 -27  -4 144.606 26.6945   7
 -19  -8  -5 192.054 32.6282  10
 -27   8  -5 249.310 31.3195   9
 -27  19  -5 220.991 31.2680   9
  19 -27   5 183.900 26.2858   6
   8 -27  -5 191.514 27.4047   7
 -19  -8  -6 170.021 29.5444  10
 -27   8  -6 176.558 27.4667   9
 -27  19  -6 181.653 27.3020   9
  19 -27   6 147.528 24.3505   6
   8 -27  -6 167.990 25.8176   7
 -19  -8  -7 114.057 25.4236  10
 -27   8  -7 40.9014 15.7117  10
 -27   8  -7 134.146 23.1666   9
 -27  19  -7 78.6355 21.1770   9
  19 -27   7 129.638 21.6619   6
   8 -27  -7 129.442 23.0881   7
 -19  -8  -8 72.9434 21.4339  10
 -27   8  -8 79.0126 17.1995  10
 -27   8  -8 85.5424 18.7158   9
  19 -27   8 75.4545 17.5440   6
   8 -27  -8 73.9339 19.3190   7
  19 -27  -8 85.8447 13.2984   7
 -19  -8  -9 66.5362 18.2322  10
 -27   8  -9 59.1884 15.8441  10
  19 -27   9 45.8637 13.8513   6
   8 -27  -9 69.2891 16.3420   7
  19 -27  -9 33.8217 11.4136   7
 -19  -8 -10 32.6180 13.3211  10
 -27   8 -10-5.07892 10.3725  10
  19 -27  10 4.53436 9.24364   6
   8 -27 -10 18.5329 12.4200   7
  19 -27 -10 4.13950 9.00438   7
 -20  -7   0 163.332 34.4746  10
 -27   7   0 126.888 31.5530   9
 -27  20   0 159.594 34.5583   9
   7 -27   0 108.890 24.0815   7
 -20  -7   1 142.847 33.2680  10
 -20  -7  -1 130.608 34.7542  10
 -27   7   1 90.8352 29.3369   9
 -27   7  -1 54.9173 31.0506   9
 -27  20   1 76.9159 30.6953   9
 -27  20  -1 109.600 35.3409   9
  20 -27   1 124.987 30.2657   6
   7 -27  -1 86.4225 24.2891   7
 -20  -7   2 64.0803 30.2228  10
 -20  -7  -2 87.7415 33.6739  10
 -27   7   2 121.039 28.2434   9
 -27   7  -2 133.187 32.7324   9
 -27  20   2 113.513 29.3691   9
 -27  20  -2 99.0569 35.8087   9
  20 -27   2 109.292 29.8208   6
   7 -27  -2 114.114 25.9933   7
 -20  -7  -3 98.3032 33.2755  10
 -27   7   3 126.412 26.3964   9
 -27   7  -3 126.882 32.6601   9
 -27  20   3 69.8105 25.5456   9
 -27  20  -3 108.804 34.2417   9
  20 -27   3 106.203 29.5097   6
   7 -27  -3 86.0327 25.6781   7
 -20  -7  -4 66.0885 31.5995  10
 -27   7  -4 38.0700 29.3477   9
 -27  20   4 55.8865 22.6858   9
 -27  20  -4 116.381 31.4155   9
  20 -27   4 70.0360 27.0724   6
   7 -27  -4 98.0011 25.9334   7
 -20  -7  -5 49.2115 29.0182  10
 -27   7  -5 81.5852 27.6872   9
 -27  20  -5 55.8971 26.4732   9
  20 -27   5 94.8526 24.9919   6
   7 -27  -5 75.8724 24.9488   7
 -20  -7  -6 48.9743 26.4976  10
 -27   7  -6 110.105 18.9412  10
 -27   7  -6 48.0425 24.2636   9
 -27  20  -6 46.3572 23.1093   9
  20 -27   6 52.8385 21.9460   6
   7 -27  -6 35.6900 22.5999   7
 -20  -7  -7 44.5872 23.3594  10
 -27   7  -7 17.1887 17.1330  10
 -27   7  -7 32.8780 20.0967   9
 -27  20  -7 52.5145 19.5685   9
  20 -27   7 41.0393 19.0677   6
   7 -27  -7 10.2161 19.8096   7
 -20  -7  -8 19.2769 19.8403  10
 -27   7  -8 17.0664 15.9956  10
 -27   7  -8 1.32465 15.9426   9
  20 -27   8 22.4961 15.8699   6
   7 -27  -8 34.2002 17.1670   7
 -20  -7  -9 13.6588 16.5011  10
 -27   7  -9 32.4293 15.1041  10
  20 -27   9 16.9277 12.0796   6
   7 -27  -9 13.8140 14.4015   7
 -20  -7 -10 12.6079 12.6056  10
 -27   7 -10-4.25180 10.5140  10
  20 -27  10 1.30983 8.34883   6
   7 -27 -10-8.94637 10.5582   7
 -21  -6   0 231.393 34.8710  10
 -27   6   0 265.515 33.4182   9
 -21  -6   1 158.186 32.4505  10
 -21  -6  -1 160.052 33.4143  10
 -27   6   1 157.058 29.9456   9
 -27   6  -1 185.025 32.3052   9
  21 -27   1 236.977 32.1212   6
   6 -27  -1 168.479 25.9489   7
 -21  -6   2 114.114 30.3329  10
 -21  -6  -2 173.316 33.5593  10
 -27   6   2 162.651 28.7066   9
 -27   6  -2 154.054 32.7022   9
 -27  21   2 131.707 28.4951   9
 -27  21  -2 222.613 36.9428   9
  21 -27   2 200.715 31.5755   6
   6 -27  -2 138.334 26.0206   7
  21 -27   3 265.965 29.8849   6
 -21  -6  -3 141.547 32.6802  10
 -27   6   3 161.072 25.4426   9
 -27   6  -3 198.809 33.3962   9
 -27  21   3 95.8673 25.4582   9
 -27  21  -3 252.053 35.0154   9
   6 -27  -3 180.601 26.9818   7
 -21  -6  -4 174.641 31.8202  10
 -27   6  -4 174.922 30.2846   9
 -27  21   4 131.609 23.1044   9
 -27  21  -4 167.197 31.1058   9
  21 -27   4 222.861 27.2110   6
   6 -27  -4 188.788 26.5454   7
 -21  -6  -5 150.569 30.0888  10
 -27   6  -5 144.089 28.2800   9
 -27  21  -5 180.347 28.4071   9
  21 -27   5 195.617 25.1426   6
   6 -27  -5 188.709 25.8895   7
 -21  -6  -6 147.565 26.8863  10
 -27   6  -6 132.083 24.6317   9
 -27  21  -6 122.708 23.1515   9
  21 -27   6 131.308 21.7885   6
   6 -27  -6 149.761 23.3192   7
 -21  -6  -7 31.2573 22.3446  10
 -27   6  -7 42.0100 17.2264  10
 -27   6  -7 46.6310 19.7472   9
 -27  21  -7 54.5233 18.5687   9
  21 -27   7 62.4199 18.2356   6
   6 -27  -7 62.0549 19.2532   7
 -21  -6  -8 25.0350 18.7738  10
 -27   6  -8 60.5119 16.2181  10
 -27   6  -8 53.5571 16.6109   9
  21 -27   8 46.9693 14.8895   6
   6 -27  -8 66.6653 16.7100   7
 -21  -6  -9 0.41614 15.7921  10
 -27   6  -9 36.6311 13.7739  10
  21 -27   9 11.3796 10.8460   6
   6 -27  -9 50.0912 13.9617   7
 -21  -6 -10 25.7048 12.6442  10
  21 -27  10 7.98132 7.38800   6
 -22  -5   0 25.9886 27.3062  10
 -27   5   0 21.6296 27.2865   9
 -22  -5   1 39.7435 27.7304  10
 -22  -5  -1 20.0041 28.8758  10
 -27   5   1 14.5678 25.6426   9
 -27   5  -1 14.3260 27.2305   9
  27 -22   1 19.2224 18.5116   6
  22 -27   1 54.1068 28.0514   6
 -22  -5   2 21.9686 25.4495  10
 -27   5   2 26.8549 23.4600   9
 -27   5  -2 3.66239 27.3353   9
 -22  -5  -2 8.93876 28.8050  10
  22 -27   2 83.5446 27.6568   6
   5 -27  -2 14.2291 23.2871   7
 -22  -5  -3-4.72544 27.7419  10
 -27   5   3 9.58744 21.0902   9
 -27   5  -3 37.2845 27.6313   9
 -27  22   3 29.6855 22.3814   9
 -27  22  -3 26.3786 28.4387   9
  22 -27   3 41.2941 24.6148   6
   5 -27  -3 49.6034 23.1924   7
 -22  -5  -4 13.8194 26.6157  10
 -27   5  -4 5.45822 25.0127   9
 -27  22   4 7.96995 19.1935   9
 -27  22  -4 45.6172 26.8001   9
  22 -27   4 49.9828 23.3011   6
   5 -27  -4 12.5576 22.0962   7
 -22  -5  -5 2.28607 24.6402  10
 -27   5  -5 50.1609 17.0651  10
 -27   5  -5 21.6190 23.3567   9
 -27  22  -5 8.36468 22.5433   9
  22 -27   5 33.4487 20.3807   6
   5 -27  -5 41.9912 20.9544   7
 -22  -5  -6 25.4170 23.1485  10
 -27   5  -6 47.6694 16.6912  10
 -27   5  -6 6.88044 20.4230   9
 -27  22  -6 27.2740 19.6893   9
  22 -27   6 29.2558 17.9017   6
   5 -27  -6 27.7437 18.5497   7
 -22  -5  -7 12.0582 20.2003  10
 -27   5  -7 21.0429 16.5060  10
 -27   5  -7 7.40441 17.3214   9
 -27  22  -7 0.01894 15.6853   9
  22 -27   7 0.43146 14.9567   6
   5 -27  -7 4.04652 16.1757   7
 -22  -5  -8 7.81487 17.6757  10
 -27   5  -8 17.1734 15.2576  10
 -27   5  -8 8.72835 14.3729   9
  22 -27   8 15.6098 12.8188   6
   5 -27  -8-0.57045 13.7133   7
 -22  -5  -9 8.28744 14.0123  10
 -27   5  -9 3.73943 11.3566  10
  22 -27   9 2.94615 8.73127   6
   5 -27  -9 3.15263 10.6973   7
 -23  -4   0 87.6948 26.3162  10
 -27   4   0 86.9806 26.5006   9
 -23  -4   1 48.1623 24.4241  10
 -23  -4  -1 73.1502 27.5671  10
 -27   4   1 67.5151 24.8201   9
 -27   4  -1 55.5737 25.8992   9
  27 -23   1 48.9961 18.2878   6
  23 -27   1 50.9779 25.3472   6
 -23  -4  -2 68.3978 26.5830  10
 -27   4   2 102.750 23.3410   9
 -27   4  -2 66.9397 27.0429   9
  27 -23   2 62.4367 17.2461   6
  23 -27   2 71.6268 24.4661   6
 -27   4   3 76.0578 20.9329   9
 -27   4  -3 48.8981 25.9458   9
 -23  -4  -3 23.6744 25.5634  10
  27 -23   3 27.1558 15.6448   6
  23 -27   3 48.8608 22.7874   6
   4 -27  -3 75.3408 22.3833   7
 -23  -4  -4 50.9801 25.6517  10
 -27   4  -4 72.6075 24.7790   9
 -27  23   4 41.1116 18.5257   9
 -27  23  -4 42.9805 24.6664   9
  23 -27   4 45.4790 20.7155   6
   4 -27  -4 42.2998 20.7226   7
 -23  -4  -5 106.495 24.4578  10
 -27   4  -5 45.8931 14.9940  10
 -27   4  -5 44.2657 21.9433   9
 -27  23  -5 47.3013 21.4983   9
  23 -27   5 57.0773 18.8082   6
   4 -27  -5 54.0478 19.2504   7
 -23  -4  -6 43.9529 21.5505  10
 -27   4  -6 69.0734 16.7674  10
 -27   4  -6 29.6351 19.0355   9
 -27  23  -6 7.66120 17.4506   9
  23 -27   6 8.47927 15.5143   6
   4 -27  -6 25.1601 16.8758   7
 -23  -4  -7 38.0772 19.2316  10
 -27   4  -7 33.4940 16.1352  10
 -27   4  -7-6.40544 16.4004   9
 -27  23  -7 0.47409 14.0603   9
  23 -27   7 35.3364 13.4640   6
   4 -27  -7 17.4859 14.4620   7
 -23  -4  -8 27.7091 16.5828  10
 -27   4  -8 1.92420 13.5827  10
  23 -27   8 29.6415 10.7178   6
   4 -27  -8 19.8946 12.0937   7
 -23  -4  -9 14.9152 12.8690  10
  23 -27   9 0.71214 7.83934   6
 -24  -3   0 42.1406 22.4248  10
 -27   3   0 34.5439 23.8159   9
 -24  -3  -1 0.15627 22.4182  10
 -27   3   1-6.30084 21.8045   9
 -27   3  -1-8.10204 23.4847   9
  27 -24   1 10.1345 17.6973   6
  24 -27   1 24.7346 22.6918   6
 -24  -3  -2-9.76253 22.5218  10
 -27   3   2 20.3980 20.3970   9
 -27   3  -2 5.41776 23.3685   9
  27 -24   2 24.9761 16.1646   6
  24 -27   2 33.0563 21.4529   6
 -24  -3  -3 8.76948 22.5934  10
 -27   3  -3-4.82366 23.6512   9
  27 -24   3 9.09440 14.6208   6
  24 -27   3 9.42393 20.2979   6
 -24  -3  -4-1.62181 21.8248  10
 -27   3  -4 20.8079 22.0261   9
 -27  24   4 1.07084 13.8088   9
 -27  24  -4 17.1032 22.2134   9
  27 -24   4-0.82841 13.1485   6
  24 -27   4-21.6864 18.1822   6
 -24  -3  -5-3.72219 21.0200  10
 -27   3  -5 9.67750 13.3329  10
 -27   3  -5 28.0693 20.3486   9
 -27  24  -5 20.8116 19.2589   9
  24 -27   5 2.83507 16.2675   6
   3 -27  -5 14.4432 16.3608   7
 -24  -3  -6 20.9448 18.9907  10
 -27   3  -6-2.11208 14.1279  10
 -27   3  -6 7.58699 17.9038   9
 -27  24  -6 9.65100 16.0824   9
  24 -27   6 15.5622 13.5135   6
   3 -27  -6 2.97923 14.1623   7
 -24  -3  -7-11.4259 17.0984  10
 -27   3  -7 12.9949 13.7255  10
 -27   3  -7 31.7540 14.9904   9
  24 -27   7-0.12343 11.6238   6
   3 -27  -7 19.3633 12.6715   7
 -24  -3  -8-2.23198 14.4569  10
 -27   3  -8 7.67229 10.7694  10
  24 -27   8 1.02559 8.20600   6
 -27   2   0 109.805 24.1271   9
  27 -25   0 119.815 19.4363   6
  25 -27   0 105.068 22.0236   6
 -25  -2  -1 61.5222 17.6272  10
 -27   2   1 67.3981 21.8233   9
 -27   2  -1 124.904 24.7829   9
  27 -25   1 93.2746 18.7033   6
  25 -27   1 111.806 21.9073   6
 -25  -2  -2 81.4080 21.3491  10
 -27   2   2 48.6009 19.3520   9
 -27   2  -2 72.4752 23.5503   9
  27 -25   2 75.1002 16.6354   6
  25 -27   2 84.3914 19.8601   6
 -25  -2  -3 82.7679 21.2311  10
 -27   2  -3 75.4388 22.6983   9
  27 -25   3 55.2303 15.3266   6
  25 -27   3 77.8334 18.7317   6
 -25  -2  -4 40.5809 19.9404  10
 -27   2  -4 59.4137 16.2199  10
 -27   2  -4 36.4033 21.0509   9
 -27  25   4 14.4650 13.1021   9
 -27  25  -4 30.2126 20.2232   9
  27 -25   4 19.6167 12.6865   6
  25 -27   4 33.6159 15.6349   6
 -25  -2  -5 46.4122 18.7711  10
 -27   2  -5-0.25182 12.9763  10
 -27   2  -5 11.3855 18.6304   9
 -27  25  -5 37.5052 17.6503   9
  27 -25   5 22.7167 11.2801   6
  25 -27   5 30.0379 13.7737   6
 -25  -2  -6 36.2028 18.1321  10
 -27   2  -6 21.8798 12.1663  10
 -27   2  -6 34.3600 16.2136   9
 -27  25  -6 27.6322 14.5755   9
  25 -27   6 6.78338 11.2633   6
 -25  27  -6 28.5850 13.7970   9
 -27   2  -7-5.70558 11.8861  10
  25 -27   7 11.2203 9.06307   6
 -27   1   0 26.9592 20.6694   9
  27 -26   0 41.1736 17.1064   6
  26 -27   0 22.0130 18.3372   6
 -27   1   1 52.1015 19.6477   9
 -27   1  -1 24.6221 20.5507   9
  27 -26   1 26.3596 16.1208   6
  26 -27   1 19.3444 17.4291   6
 -26  -1  -2 35.4463 17.1840  10
 -27   1  -2 39.1787 21.1129   9
  27 -26   2 15.5921 15.1837   6
  26 -27   2 11.8031 16.7086   6
 -26  -1  -3-11.2664 14.3604  10
 -27   1  -3 18.8595 19.4264   9
  27 -26   3 15.8906 13.6853   6
  26 -27   3 13.8875 15.0475   6
 -26  -1  -4 43.5625 17.1587  10
 -27   1  -4 30.2162 15.3103  10
 -27   1  -4 16.7181 18.1229   9
 -27  26   4-0.43371 13.8110   9
 -27  26  -4-8.47468 17.9266   9
  27 -26   4 1.27330 11.6836   6
  26 -27   4 6.80883 12.7649   6
 -26  -1  -5 25.9679 15.7344  10
 -27   1  -5 12.1224 12.6657  10
 -27  26  -5 18.5656 15.0291   9
  27 -26   5 16.2981 9.89128   6
 -26  27  -5 5.60900 14.8753   9
  26 -27   5 20.0373 11.7014   6
 -26  -1  -6 10.2587 15.0625  10
 -27   1  -6-3.26473 12.3649  10
  26 -27   6 0.49682 9.20915   6
  27 -27   0 52.4410 15.9389   6
  27 -27   1 27.0193 14.7224   6
  27 -27  -1 34.6083 16.2983   6
  27 -27   2 31.4139 14.0037   6
  27 -27   3 6.26351 12.5234   6
 -27   0  -4 7.27192 13.5642  10
 -27  27  -4 13.9275 15.3696   9
  27 -27   4 15.0761 10.9727   6
  27 -27   5 1.99573 8.94799   6
 -27  27  -5 12.4537 12.4448   9
 -14 -14   0-3.11399 31.0996  10
 -28  14   0 25.6241 28.1984   9
 -14 -14  -1 27.4099 29.7236  10
 -28  14   1 25.9823 26.0759   9
 -28  14  -1 31.2429 29.2648   9
  14 -28   1-16.1400 18.7239   6
 -14 -14  -2 21.3127 29.1623  10
 -28  14   2-13.2212 24.7147   9
 -28  14  -2-19.1617 30.4679   9
  14 -28   2-9.26261 18.8144   6
 -14 -14  -3 9.55383 26.6504  10
 -28  14   3-16.6625 22.6889   9
 -28  14  -3 22.1897 29.9667   9
  14 -28   3 5.05388 17.6357   6
  14 -28  -3 0.42435 16.7082   7
 -14 -14  -4 28.8620 25.6077  10
 -28  14  -4 42.9846 28.1164   9
  14 -28   4 9.38957 17.5707   6
  14 -28  -4 38.5293 18.1976   7
 -14 -14  -5 6.23306 22.3567  10
 -28  14  -5 25.2686 25.7769   9
  14 -28   5 13.5351 16.4557   6
  14 -28  -5 2.48147 17.1767   7
 -14 -14  -6-9.40892 20.2263  10
 -28  14  -6-27.3818 22.1950   9
  14 -28   6-13.7074 15.7182   6
  14 -28  -6-3.28699 17.1346   7
 -14 -14  -7-19.4587 17.5977  10
 -28  14  -7-24.5495 19.4869   9
  14 -28   7-3.22475 13.6815   6
  14 -28  -7 5.93860 16.2899   7
 -14 -14  -8-19.9552 15.5333  10
 -28  14  -8 15.6168 15.4242   9
  14 -28   8-7.74294 11.7602   6
  14 -28  -8 0.85994 14.5923   7
  14 -28   9 4.31771 9.36957   6
  14 -28  -9 6.86013 12.5159   7
  14 -28  10-24.8628 7.17353   6
  14 -28 -10 0.81637 10.9156   7
 -15 -13   0-8.76356 32.3535  10
 -28  13   0 7.29632 27.7270   9
 -28  15   0 11.3596 28.2151   9
  15 -28   0 6.35448 19.8285   6
 -13 -15  -1 53.4651 29.4886  10
 -15 -13  -1 32.3005 31.8109  10
 -28  13   1-26.9641 26.8846   9
 -28  13  -1-5.22543 28.7792   9
 -28  15   1 16.8794 26.9151   9
 -28  15  -1 20.8851 30.3149   9
  15 -28   1 15.4505 20.0175   6
  15 -28  -1 9.42359 19.0735   6
 -13 -15  -2 15.2513 27.1198  10
 -15 -13  -2 3.77968 29.5442  10
 -28  13   2 17.6704 24.3472   9
 -28  13  -2 3.19612 29.9945   9
 -28  15   2-38.5991 25.4623   9
 -28  15  -2-10.7857 31.4783   9
  15 -28   2 2.09547 19.4411   6
  13 -28  -2-35.6167 18.5441   7
 -13 -15  -3 23.9701 26.1219  10
 -15 -13  -3-1.50534 27.5977  10
 -28  13   3-30.3118 23.1545   9
 -28  13  -3 14.1172 30.4732   9
 -28  15   3-18.8028 22.8403   9
 -28  15  -3 19.6189 30.3499   9
  13 -28   3-4.05259 16.9935   6
  15 -28   3-6.32165 19.9148   6
  13 -28  -3 2.01356 18.8062   7
 -13 -15  -4 10.5959 24.0597  10
 -15 -13  -4 14.4589 25.9486  10
 -28  13  -4 18.7503 27.9461   9
 -28  15  -4 35.3488 28.4823   9
  13 -28   4-16.5777 16.4522   6
  15 -28   4 2.88242 18.7436   6
  13 -28  -4 8.87247 18.6852   7
  15 -28  -4 23.2769 17.0915   7
 -13 -15  -5-18.3455 21.9779  10
 -15 -13  -5 13.4970 23.7823  10
 -28  13  -5 19.3249 24.8034   9
 -28  15  -5-2.71625 25.0456   9
  13 -28   5-8.66430 15.7525   6
  15 -28   5-14.6196 17.9054   6
  13 -28  -5 6.36595 18.2620   7
  15 -28  -5-4.73619 16.8447   7
 -13 -15  -6 15.1371 20.0077  10
 -15 -13  -6 20.4142 21.4030  10
 -28  13  -6-13.0404 21.8927   9
 -28  15  -6-9.10464 21.7089   9
  13 -28   6 24.8689 15.0025   6
  15 -28   6 13.6631 16.8046   6
  13 -28  -6 5.85654 17.9850   7
  15 -28  -6 2.98232 16.3716   7
 -13 -15  -7 11.2933 16.3975  10
 -15 -13  -7-6.69126 18.5419  10
 -28  13  -7-0.77156 18.5280   9
 -28  15  -7-5.25704 19.0795   9
  13 -28   7 11.7574 12.7804   6
  15 -28   7-15.4169 14.8461   6
  13 -28  -7-4.61750 16.6985   7
  15 -28  -7 2.63238 15.3589   7
 -15 -13  -8-5.64967 15.3932  10
 -28  13  -8-25.1646 16.2188   9
  13 -28   8 3.29066 10.6813   6
  15 -28   8 9.30066 12.5683   6
  13 -28  -8 19.3262 15.3640   7
  15 -28  -8-18.3890 14.3582   7
 -15 -13  -9-5.14944 12.9713  10
  13 -28   9-14.3743 7.30007   6
  15 -28   9-15.0460 10.3063   6
  13 -28  -9 11.2587 13.1496   7
  15 -28  -9 2.89597 12.1715   7
  15 -28  10 3.02720 7.56477   6
  13 -28 -10 0.00597 10.9188   7
  15 -28 -10-10.2569 10.7001   7
 -16 -12   0 40.4497 31.7215  10
 -28  12   0-6.97661 27.4886   9
 -28  16   0 5.39888 29.0388   9
  16 -28   0-1.25742 21.2882   6
 -16 -12   1 7.10755 31.6114  10
 -16 -12  -1-24.2907 32.3210  10
 -28  12   1 13.2641 26.3950   9
 -28  12  -1-27.5386 29.6377   9
 -28  16   1 11.2371 27.7734   9
 -28  16  -1 16.5157 30.9584   9
  16 -28   1 13.7188 21.6481   6
  16 -28  -1 12.9346 20.7205   6
  12 -28  -1 8.58775 17.6286   7
 -12 -16  -2 24.9301 26.6275  10
 -16 -12  -2 2.89220 30.9952  10
 -28  12   2 6.11506 24.0135   9
 -28  12  -2 15.4986 30.0397   9
 -28  16   2 0.88341 24.6878   9
 -28  16  -2 27.7628 32.2145   9
  16 -28   2 34.9111 21.1227   6
  12 -28  -2 20.5199 18.5435   7
 -12 -16  -3 14.4360 25.6230  10
 -16 -12  -3 18.9715 29.9413  10
 -28  12   3 27.3935 22.7546   9
 -28  12  -3 11.6208 30.0878   9
 -28  16   3 7.91150 22.8615   9
 -28  16  -3 39.6618 31.1744   9
  16 -28   3 23.8868 21.2302   6
  12 -28  -3 30.3957 19.9286   7
 -12 -16  -4-1.68352 22.9753  10
 -16 -12  -4 52.8966 28.5723  10
 -28  12  -4 17.3509 28.3275   9
 -28  16  -4 36.8739 28.9624   9
  16 -28   4 44.7553 20.7907   6
  12 -28  -4-0.81526 19.8892   7
 -12 -16  -5 14.5674 21.4953  10
 -16 -12  -5 20.6527 25.8203  10
 -28  12  -5 18.2475 25.3766   9
 -28  16  -5-12.0343 25.6155   9
  16 -28   5-0.72084 19.1854   6
  12 -28  -5 19.5871 19.9906   7
  16 -28  -5 17.2931 16.1994   7
 -12 -16  -6 18.3302 18.6201  10
 -16 -12  -6 29.0600 22.4371  10
 -28  12  -6 17.4455 22.7343   9
 -28  16  -6 23.2477 22.0610   9
  16 -28   6 24.7984 18.2663   6
  12 -28  -6 8.12741 18.8978   7
  16 -28  -6 1.40155 15.2903   7
 -16 -12  -7 1.17106 19.1791  10
 -28  12  -7-0.30459 19.1500   9
 -28  16  -7 23.7604 18.6622   9
  16 -28   7 38.1093 16.2686   6
  12 -28  -7-12.6608 17.5710   7
  16 -28  -7 3.77706 14.2042   7
 -16 -12  -8 10.1930 16.1824  10
  12 -28   8-32.3235 8.99916   6
 -28  12  -8-3.08814 15.7938   9
  16 -28   8 9.88990 13.4924   6
  12 -28  -8 0.99861 15.8694   7
  16 -28  -8 8.21305 13.3462   7
 -16 -12  -9 17.4157 13.5136  10
  12 -28   9 0.55242 7.90960   6
  16 -28   9 0.54633 10.1543   6
  12 -28  -9 18.6568 13.9315   7
  16 -28  -9-4.22013 11.4025   7
  16 -28  10 5.84975 8.04265   6
  12 -28 -10-5.11424 11.0428   7
  16 -28 -10 8.19864 9.96474   7
 -17 -11   0-5.37902 31.2055  10
 -28  11   0 21.2092 27.4139   9
 -28  17   0 22.7899 29.3069   9
  17 -28   0 20.2525 22.5063   6
  11 -28   0-19.1265 17.5050   7
 -17 -11   1 23.2545 31.4250  10
 -17 -11  -1-28.6101 32.5306  10
 -28  11   1-44.5029 26.5015   9
 -28  11  -1 10.1482 29.0323   9
 -28  17   1-4.24292 26.6048   9
 -28  17  -1 3.91822 30.1937   9
  17 -28   1-12.7604 22.4397   6
  11 -28  -1 22.9902 18.2578   7
 -17 -11  -2 12.8148 32.0511  10
 -28  11   2 11.2316 23.5262   9
 -28  11  -2 42.2088 29.9117   9
 -28  17   2 21.7204 25.0394   9
 -28  17  -2-3.77162 31.9126   9
  17 -28   2 11.4397 22.7113   6
  11 -28  -2 13.7744 19.0982   7
 -11 -17  -3 28.9674 24.2873  10
 -17 -11  -3 19.0993 31.0610  10
 -28  11   3 4.32394 22.1464   9
 -28  11  -3 46.7510 30.1977   9
 -28  17   3-16.3338 22.9796   9
 -28  17  -3-12.0195 30.6146   9
  17 -28   3 8.05830 22.5677   6
  11 -28  -3 12.9696 20.0718   7
 -11 -17  -4 1.17606 21.6384  10
 -17 -11  -4-4.34906 28.0045  10
 -28  11  -4 21.3829 27.6513   9
 -28  17   4-1.77508 20.1083   9
 -28  17  -4 2.94222 28.4392   9
  17 -28   4 0.53245 20.8932   6
  11 -28  -4 7.79772 20.3356   7
 -11 -17  -5-8.59060 19.7852  10
 -17 -11  -5 5.70136 25.6257  10
 -28  11  -5 21.5651 24.8621   9
 -28  17  -5 35.4355 25.9355   9
  17 -28   5 32.4093 20.1925   6
  11 -28  -5-1.79247 20.1059   7
 -11 -17  -6 1.26161 17.3462  10
 -17 -11  -6-4.95889 22.8392  10
 -28  11  -6 9.20428 22.4289   9
 -28  17  -6-5.17890 22.2437   9
  17 -28   6 24.5052 18.6144   6
  11 -28  -6 1.20347 19.6462   7
  17 -28  -6 11.9114 14.6960   7
 -17 -11  -7 19.0440 20.3237  10
 -28  11  -7-10.0747 19.0316   9
 -28  17  -7 12.6237 18.4232   9
  17 -28   7-10.8466 16.4863   6
  11 -28  -7-2.72208 18.0795   7
  17 -28  -7 5.06006 13.5736   7
 -17 -11  -8-7.69754 17.2214  10
 -28  11  -8 19.4029 15.9222   9
  17 -28   8 13.7665 13.6455   6
  11 -28  -8 1.06103 15.6819   7
  17 -28  -8 4.05742 12.4073   7
 -17 -11  -9-1.39583 14.0584  10
  17 -28   9 5.01050 10.1944   6
  11 -28  -9 2.42049 13.9052   7
  17 -28  -9-5.73284 11.1279   7
  17 -28  10 3.58125 7.74890   6
  11 -28 -10-4.78249 11.3356   7
 -18 -10   0 23.6062 31.5789  10
 -28  10   0-28.3006 27.9857   9
 -28  18   0 12.3236 29.0948   9
  18 -28   0 12.6459 23.7265   6
  10 -28   0 9.27104 18.2735   7
 -18 -10   1-3.71442 30.3070  10
 -18 -10  -1-18.6796 31.5706  10
 -28  10   1-1.35725 25.3797   9
 -28  10  -1-16.0328 28.4332   9
 -28  18   1 37.8958 27.8979   9
 -28  18  -1 38.4707 31.1800   9
  18 -28   1 28.6982 23.7438   6
  10 -28  -1-1.78791 18.8787   7
 -18 -10  -2 47.5519 32.7097  10
 -28  10   2-2.74371 23.4247   9
 -28  10  -2 15.2047 28.9340   9
 -28  18   2 20.4994 25.0344   9
 -28  18  -2 6.59912 31.2430   9
  18 -28   2-17.0946 23.5662   6
  10 -28  -2 4.17447 19.8517   7
 -18 -10  -3-2.28095 30.5138  10
 -28  10   3 26.9677 21.9173   9
 -28  10  -3 15.4639 28.6854   9
 -28  18   3-0.80477 22.6370   9
 -28  18  -3-18.6620 30.2245   9
  18 -28   3 21.0099 22.7645   6
  10 -28  -3-11.7855 21.3117   7
 -18 -10  -4 4.02060 28.6013  10
 -28  10  -4-15.1032 27.4330   9
 -28  18   4 13.5664 19.7984   9
 -28  18  -4 34.0318 28.2816   9
  18 -28   4-1.92133 21.6208   6
  10 -28  -4 12.2917 20.6471   7
 -18 -10  -5 17.3131 26.0643  10
 -28  10  -5 20.2894 24.9557   9
 -28  18  -5 21.9824 24.8809   9
  18 -28   5 10.8570 20.2195   6
  10 -28  -5 16.7590 20.3703   7
 -18 -10  -6 21.7673 23.2269  10
 -28  10  -6-11.2258 22.2305   9
 -28  18  -6-5.41006 21.6737   9
  18 -28   6 19.1294 18.6798   6
  10 -28  -6-13.2293 19.4943   7
 -18 -10  -7 31.3565 20.6665  10
 -28  10  -7-25.1258 19.0179   9
 -28  18  -7 8.88745 18.0595   9
  18 -28   7 0.97290 16.2040   6
  10 -28  -7 4.87043 17.7435   7
  18 -28  -7 7.49443 12.6785   7
 -18 -10  -8 1.55042 17.2175  10
 -28  10  -8-23.4772 15.6177   9
  18 -28   8 4.28854 13.9579   6
  10 -28  -8 4.18552 15.2449   7
  18 -28  -8 5.03784 11.0222   7
 -18 -10  -9-7.18631 13.7328  10
  18 -28   9 14.6177 10.1743   6
  10 -28  -9 16.2309 13.5674   7
  18 -28  -9 6.22920 9.77285   7
  18 -28  10-0.77488 7.11889   6
  10 -28 -10-1.06818 10.2542   7
 -19  -9   0 114.254 32.9649  10
 -28   9   0 5.11054 27.7401   9
 -28  19   0 25.1814 29.9596   9
  19 -28   0 64.2445 25.9388   6
 -19  -9   1 56.1791 30.7684  10
 -19  -9  -1 44.8214 31.7433  10
 -28   9   1 28.5147 25.6912   9
 -28   9  -1 15.0256 28.2628   9
 -28  19   1 40.7901 28.1433   9
 -28  19  -1 31.1790 31.0520   9
  19 -28   1 64.7622 25.4801   6
   9 -28  -1 30.9517 19.9774   7
 -19  -9  -2 12.3134 31.3003  10
 -28   9   2-3.89461 23.9960   9
 -28   9  -2 45.7336 29.5858   9
 -28  19   2 24.2841 25.7700   9
 -28  19  -2 82.2579 33.6039   9
  19 -28   2 46.5228 25.1713   6
   9 -28  -2 32.3379 21.3177   7
 -19  -9  -3 59.9780 32.3729  10
 -28   9   3-6.52646 22.2845   9
 -28   9  -3 72.9059 30.7981   9
 -28  19   3 6.94493 22.1285   9
 -28  19  -3 44.0161 31.3373   9
  19 -28   3 85.8279 24.5470   6
   9 -28  -3 58.3392 22.4206   7
 -19  -9  -4 6.66381 28.3019  10
 -28   9  -4 8.61128 26.3682   9
 -28  19   4-13.6650 20.0035   9
 -28  19  -4 10.8413 27.8112   9
  19 -28   4 14.3104 22.2296   6
   9 -28  -4 19.6518 21.7182   7
 -19  -9  -5 32.4319 26.8663  10
 -28   9  -5-20.5175 24.8555   9
 -28  19  -5-4.41239 24.3403   9
  19 -28   5 23.4243 21.0594   6
   9 -28  -5 30.2672 21.0278   7
 -19  -9  -6 31.9387 23.3001  10
 -28   9  -6 18.7512 21.9934   9
 -28  19  -6-17.4040 20.8859   9
  19 -28   6 41.6584 18.8349   6
   9 -28  -6 22.2503 19.5443   7
 -19  -9  -7 32.9922 20.9511  10
 -28   9  -7-18.9373 18.4784   9
 -28  19  -7 9.13350 16.5921   9
  19 -28   7 41.3672 16.7369   6
   9 -28  -7 27.6715 17.7271   7
 -19  -9  -8-1.55574 16.5950  10
 -28   9  -8 5.39590 14.5843   9
  19 -28   8 27.0555 13.4946   6
   9 -28  -8 17.1753 14.9530   7
 -19  -9  -9-4.79523 13.2151  10
  19 -28   9 10.6521 9.86439   6
   9 -28  -9 6.41839 12.3077   7
 -20  -8   0 34.3337 29.6067  10
 -28   8   0 88.7227 27.8946   9
 -28  20   0 89.6706 30.3408   9
  20 -28   0 60.2567 26.3566   6
 -20  -8   1 37.6167 28.9931  10
 -20  -8  -1 89.2159 31.2100  10
 -28   8   1 27.4234 26.0259   9
 -28   8  -1 51.1713 28.0284   9
 -28  20   1 58.7614 27.8716   9
 -28  20  -1 68.6662 31.3287   9
  20 -28   1 71.0952 26.4847   6
   8 -28  -1 51.9737 20.4229   7
 -20  -8  -2 84.0591 30.6814  10
 -28   8   2 61.9633 25.0693   9
 -28   8  -2 59.6982 28.5490   9
 -28  20   2 77.0525 26.6960   9
 -28  20  -2 106.939 32.6054   9
  20 -28   2 68.7726 24.9964   6
   8 -28  -2 51.8974 21.2662   7
 -20  -8  -3 53.0793 29.8917  10
 -28   8   3 48.6312 22.0545   9
 -28   8  -3 20.8083 27.9373   9
 -28  20   3 31.8206 21.8396   9
 -28  20  -3 62.6115 29.3660   9
  20 -28   3 42.5541 23.9670   6
   8 -28  -3 57.5935 21.7641   7
 -20  -8  -4 62.5133 28.4474  10
 -28   8  -4 81.1607 26.7288   9
 -28  20   4 7.84314 18.3637   9
 -28  20  -4 17.0651 25.8377   9
  20 -28   4 24.4994 21.9529   6
   8 -28  -4 12.7123 20.8140   7
 -20  -8  -5 62.0061 26.7447  10
 -28   8  -5 26.4886 23.2533   9
 -28  20  -5 32.0672 23.0609   9
  20 -28   5 21.2204 20.0830   6
   8 -28  -5 26.4968 20.0933   7
 -20  -8  -6 0.83618 21.9587  10
 -28   8  -6-1.68113 20.6005   9
 -28  20  -6 2.73185 19.9658   9
  20 -28   6 49.7007 18.0409   6
   8 -28  -6 29.0143 18.9196   7
 -20  -8  -7 14.1455 19.4248  10
 -28   8  -7 18.4170 17.5225   9
 -28  20  -7 28.3506 15.8636   9
  20 -28   7 10.5061 15.5170   6
   8 -28  -7 22.2554 16.7318   7
 -20  -8  -8 6.13143 16.4996  10
 -28   8  -8-5.85070 12.5597  10
 -28   8  -8 2.50929 13.4714   9
  20 -28   8-1.05238 12.2016   6
   8 -28  -8 1.99324 13.5295   7
 -20  -8  -9-9.92659 13.0770  10
  20 -28   9 4.61627 9.17620   6
   8 -28  -9 10.6958 11.0617   7
 -21  -7   0 121.689 30.7384  10
 -28   7   0 100.278 27.2073   9
 -28  21   0 113.132 29.5085   9
  21 -28   0 108.705 26.2633   6
 -21  -7   1 71.7886 28.1872  10
 -21  -7  -1 88.3338 29.1407  10
 -28   7   1 114.889 26.1873   9
 -28   7  -1 101.715 28.5547   9
 -28  21   1 64.6053 26.6414   9
 -28  21  -1 143.525 31.0079   9
  21 -28   1 93.2842 26.0756   6
 -21  -7  -2 59.5112 28.6303  10
 -28   7   2 50.3282 23.2926   9
 -28   7  -2 85.9039 28.1482   9
 -28  21   2 97.8308 24.7179   9
 -28  21  -2 142.992 31.2476   9
  21 -28   2 69.8879 24.2267   6
   7 -28  -2 51.0538 21.0349   7
 -21  -7  -3 85.1160 29.0724  10
 -28   7   3 94.4855 21.7754   9
 -28   7  -3 122.070 28.6796   9
 -28  21   3 89.9369 22.0845   9
 -28  21  -3 119.517 29.3305   9
  21 -28   3 106.605 24.1803   6
   7 -28  -3 69.0043 21.1955   7
 -21  -7  -4 95.7500 27.8401  10
 -28   7  -4 131.080 26.9919   9
 -28  21  -4 106.331 26.4407   9
  21 -28   4 45.8885 21.0692   6
   7 -28  -4 62.0638 20.7313   7
 -21  -7  -5 34.3113 24.3066  10
 -28   7  -5 47.2440 23.2332   9
 -28  21  -5 41.5173 22.0874   9
  21 -28   5 37.2885 19.2859   6
   7 -28  -5 40.9758 19.0402   7
 -21  -7  -6 60.2519 22.4338  10
 -28   7  -6 55.2737 20.0588   9
 -28  21  -6 28.4898 18.8817   9
  21 -28   6 69.2867 17.4805   6
   7 -28  -6 34.8452 17.9899   7
 -21  -7  -7 36.9166 18.8525  10
 -28   7  -7 27.0787 13.7998  10
 -28   7  -7 33.6672 16.8400   9
 -28  21  -7 26.6971 15.2656   9
  21 -28   7 38.2886 15.0330   6
   7 -28  -7 24.4230 15.1944   7
 -21  -7  -8 26.8888 15.9438  10
 -28   7  -8 8.92733 12.3199  10
 -28   7  -8 0.65376 12.4665   9
  21 -28   8 30.6775 11.5842   6
   7 -28  -8 28.1462 12.9479   7
 -21  -7  -9 11.9548 13.0305  10
  21 -28   9 6.25325 8.45104   6
   7 -28  -9 9.36139 9.72842   7
 -22  -6   0 94.0816 28.0815  10
 -28   6   0 133.232 26.4803   9
 -28  22   0 148.513 28.5345   9
  22 -28   0 121.188 25.3627   6
 -22  -6   1 109.634 26.8390  10
 -22  -6  -1 78.5910 27.4509  10
 -28   6   1 90.4026 24.1693   9
 -28   6  -1 141.177 27.3355   9
 -28  22   1 105.507 25.7036   9
 -28  22  -1 98.4427 28.6529   9
  22 -28   1 87.2954 24.4403   6
 -22  -6  -2 65.7385 26.7755  10
 -28   6   2 72.9550 22.7037   9
 -28   6  -2 93.4261 26.8205   9
 -28  22   2 82.7422 23.2077   9
 -28  22  -2 86.3552 28.2829   9
  22 -28   2 43.0300 22.4025   6
 -22  -6  -3 92.4447 26.8984  10
 -28   6   3 165.748 21.3754   9
 -28   6  -3 106.463 26.0271   9
 -28  22   3 91.6958 21.3301   9
 -28  22  -3 54.5200 26.4347   9
  22 -28   3 73.3848 21.9708   6
   6 -28  -3 92.0137 21.1875   7
 -22  -6  -4 70.6452 25.4366  10
 -28   6  -4 119.623 24.8068   9
 -28  22   4 28.7933 14.8146   9
 -28  22  -4 103.746 24.6443   9
  22 -28   4 85.2033 20.6101   6
   6 -28  -4 70.2531 19.6969   7
 -22  -6  -5 38.8879 22.9228  10
 -28   6  -5 37.6447 20.9190   9
 -28  22  -5 41.9401 20.5828   9
  22 -28   5 22.2166 17.8022   6
   6 -28  -5 33.2722 17.8784   7
 -22  -6  -6 32.8688 20.2194  10
 -28   6  -6 30.0267 18.7906   9
 -28  22  -6 50.1482 17.3343   9
  22 -28   6 38.1594 15.6909   6
   6 -28  -6 42.0463 16.2683   7
 -22  -6  -7 28.1725 17.5207  10
 -28   6  -7 17.1849 12.8608  10
 -28   6  -7 15.9560 15.4559   9
 -28  22  -7 17.7692 13.4410   9
  22 -28   7 20.9586 13.0783   6
   6 -28  -7 26.0253 14.1843   7
 -22  -6  -8 9.41816 15.1728  10
  22 -28   8 20.0277 10.4269   6
   6 -28  -8 13.3177 11.1140   7
 -23  -5   0 60.0902 24.0345  10
 -28   5   0 65.1060 23.3445   9
 -28  23   0 71.7425 25.4536   9
  28 -23   0 35.8558 16.2667   6
  23 -28   0 63.1576 22.6736   6
 -23  -5   1 56.3785 22.4850  10
 -23  -5  -1 65.2640 24.7884  10
 -28   5   1 74.2095 22.3488   9
 -28   5  -1 80.3693 24.9038   9
 -28  23   1 45.4670 23.6879   9
 -28  23  -1 88.5796 26.5668   9
  23 -28   1 127.929 23.6220   6
 -23  -5  -2 90.7651 25.6945  10
 -28   5   2 58.9585 20.5612   9
 -28   5  -2 40.5334 23.9924   9
 -28  23   2 38.4580 20.8267   9
 -28  23  -2 82.6420 27.1813   9
  23 -28   2 76.8667 21.8800   6
 -23  -5  -3 56.7900 24.3097  10
 -28   5  -3 93.8686 24.1048   9
 -28  23   3 61.2388 19.5761   9
 -28  23  -3 77.8362 25.0693   9
  23 -28   3 65.5753 20.4759   6
 -23  -5  -4 80.5329 23.8287  10
 -28   5  -4 64.8422 22.7744   9
 -28  23   4-11.3129 14.3250   9
 -28  23  -4 64.6775 22.5785   9
  23 -28   4 76.8658 19.3373   6
   5 -28  -4 34.9123 17.7402   7
 -23  -5  -5 12.0112 20.5414  10
 -28   5  -5 32.7189 20.1486   9
 -28  23  -5 38.2413 18.7692   9
  23 -28   5 35.4629 16.0949   6
   5 -28  -5 7.07638 16.0440   7
 -23  -5  -6 44.2703 19.2724  10
 -28   5  -6 17.7892 16.8572   9
 -28  23  -6 18.8602 15.8507   9
  23 -28   6 34.6907 13.8723   6
   5 -28  -6 29.6957 14.6978   7
 -23  -5  -7 40.3166 16.3177  10
 -28   5  -7 14.4409 13.7622   9
  23 -28   7 15.2549 11.4497   6
   5 -28  -7 12.8344 11.9663   7
 -23  -5  -8 15.3010 13.7178  10
  23 -28   8 12.5771 8.77442   6
   5 -28  -8 8.55470 9.39088   7
 -24  -4   0 21.8879 17.8872  10
 -28   4   0 26.4959 20.8763   9
 -28  24   0 10.8457 21.9521   9
  28 -24   0-12.4541 15.8680   6
  24 -28   0 12.0995 20.0929   6
 -24  -4  -1 21.7056 21.2558  10
 -28   4   1 11.2098 19.9242   9
 -28   4  -1 23.6096 21.2304   9
 -28  24   1 28.9219 20.7837   9
 -28  24  -1 22.2827 23.0327   9
  28 -24   1 8.67048 13.9907   6
  24 -28   1 28.2067 19.9174   6
 -24  -4  -2 2.79220 21.3165  10
 -28   4   2 2.62591 17.8274   9
 -28   4  -2 21.2065 21.7516   9
 -28  24   2 25.2068 19.2420   9
 -28  24  -2 4.24700 23.0678   9
  28 -24   2 10.3740 13.2651   6
  24 -28   2 20.9731 18.9499   6
 -24  -4  -3 22.6969 20.6742  10
 -28   4  -3 0.06092 20.4856   9
 -28  24   3 2.55774 17.1507   9
 -28  24  -3 6.84744 21.6733   9
  24 -28   3 21.1189 17.8309   6
 -24  -4  -4-2.45020 20.3629  10
 -28   4  -4 7.22003 19.6016   9
 -28  24   4 31.1220 14.6250   9
 -28  24  -4-10.6530 19.6074   9
  24 -28   4 0.93591 15.9818   6
 -24  -4  -5 13.5486 18.2902  10
 -28   4  -5 20.5872 17.5763   9
 -28  24  -5-10.5804 16.9830   9
  24 -28   5 5.67411 13.7102   6
 -24  -4  -6 12.7284 16.2259  10
 -28   4  -6 20.8595 15.9748   9
 -28  24  -6-5.99013 13.7595   9
  24 -28   6 14.0134 11.7753   6
 -24  -4  -7 29.2931 14.2430  10
  24 -28   7-1.10195 9.66813   6
 -28   3   0 14.2240 19.2661   9
 -28  25   0 30.6388 21.2831   9
  28 -25   0 3.94801 14.6282   6
  25 -28   0 38.7081 18.9018   6
 -25  -3  -1 10.7475 14.6910  10
 -28   3   1 13.7443 18.5505   9
 -28   3  -1 18.4028 19.9736   9
 -28  25   1 27.0225 19.4332   9
 -28  25  -1-10.4143 20.5462   9
  28 -25   1 14.7443 13.9906   6
  25 -28   1 23.8619 17.6868   6
  28 -25  -1 9.97759 14.9298   6
  25 -28  -1-0.93443 17.8685   6
 -25  -3  -2-0.28018 18.1053  10
 -28   3   2 10.1849 13.7920   9
 -28   3  -2 40.9232 19.8973   9
 -28  25   2-2.67171 17.5508   9
 -28  25  -2 4.85961 20.5237   9
  28 -25   2 24.2053 13.0111   6
  25 -28   2 10.8311 16.6796   6
 -25  -3  -3 38.6394 18.1893  10
 -28   3  -3 2.09905 18.6630   9
 -28  25   3 33.9416 15.6090   9
 -28  25  -3 3.45104 19.3062   9
  28 -25   3-1.48807 11.3397   6
  25 -28   3 5.50728 15.1768   6
 -25  -3  -4 29.5403 17.7485  10
 -28   3  -4 9.71551 17.5639   9
 -28  25   4 4.24694 12.9722   9
 -28  25  -4 8.88549 17.9927   9
  25 -28   4 1.14699 13.7320   6
 -25  -3  -5 10.5810 16.1283  10
 -28   3  -5-1.23708 15.5639   9
 -28  25  -5-0.00873 14.1370   9
  25 -28   5 0.84618 11.9781   6
 -25  -3  -6 6.80398 15.1087  10
  25 -28   6-0.84137 9.87414   6
 -28   2   0 12.5937 17.5829   9
 -28  26   0 1.68557 18.9189   9
  28 -26   0 31.4303 14.1981   6
  26 -28   0-21.8373 15.8217   6
 -28   2   1 10.1662 16.5502   9
 -28   2  -1-7.40859 18.2030   9
 -28  26   1 3.29928 17.1978   9
 -28  26  -1-17.8968 19.1782   9
  28 -26   1 18.6849 12.9835   6
  26 -28   1 2.19621 14.9329   6
  28 -26  -1-11.8209 14.4294   6
  26 -28  -1 3.13544 16.1973   6
 -26  -2  -2 19.5920 15.5703  10
 -28   2  -2-4.79221 17.8800   9
 -28  26   2-2.42996 16.1497   9
 -28  26  -2-21.4946 18.5733   9
  28 -26   2 4.22329 11.7328   6
  26 -28   2 2.72839 14.2279   6
 -26  -2  -3-8.45899 13.0008  10
 -28   2  -3 5.46282 16.7461   9
 -28  26   3-1.39036 11.6802   9
 -28  26  -3 12.5667 17.2182   9
  28 -26   3 1.11341 10.6402   6
  26 -28   3 12.2303 12.7384   6
 -26  -2  -4 13.5582 12.4158  10
 -28   2  -4-9.28188 15.4029   9
 -28  26  -4 8.96494 14.5427   9
  26 -28   4-3.67230 11.6103   6
 -26  -2  -5 1.10812 12.2748  10
 -28  26  -5 5.19490 11.8679   9
  26 -28   5 2.70454 9.55364   6
 -26  28  -5-10.7107 12.1153   9
 -28  27   0 31.0323 16.6976   9
  28 -27   0 12.1279 12.1109   6
  27 -28   0 4.72884 13.6557   6
 -28  27   1 2.19800 14.9301   9
 -28  27  -1 4.18740 16.0974   9
  28 -27   1 19.6272 11.9261   6
  27 -28   1 21.8263 13.0099   6
  28 -27  -1 20.9388 12.6365   6
  27 -28  -1 25.4451 14.3995   6
 -28  27   2-18.4232 14.7688   9
 -28  27  -2-4.44917 16.0431   9
  28 -27   2 16.1563 11.2489   6
  27 -28   2 21.5451 11.8721   6
  28 -27  -2 24.3575 12.8225   6
  27 -28  -2 5.33041 13.2145   6
 -28  27  -3-6.95673 15.5131   9
 -27  28  -3 0.00849 15.1177   9
  28 -27   3-1.95190 9.56208   6
  27 -28   3 6.46623 10.5535   6
  27 -28  -3 6.52745 12.5630   6
 -28  27  -4 4.48332 12.8991   9
 -27  28  -4 7.09569 12.6956   9
 -28  28   0-7.21703 13.3747   9
  28 -28   0-5.08451 10.6615   6
 -28  28   1 7.91053 12.8108   9
 -28  28  -1 18.2170 14.6437   9
  28 -28   1-0.30450 10.0636   6
  28 -28  -1-0.25903 11.1055   6
 -28  28  -2 15.7536 13.9397   9
  28 -28  -2 3.92099 11.0225   6
 -29  14   0 43.6936 27.6392   9
 -29  15   0-19.1800 26.5371   9
 -15 -14  -1 44.3897 29.8321  10
 -29  14   1 36.0756 25.2187   9
 -29  14  -1 58.1791 29.4027   9
 -29  15   1 20.5801 25.0653   9
 -29  15  -1 48.8018 28.7492   9
  15 -29   1 23.7337 16.9541   6
 -14 -15  -2 37.5983 26.3222  10
 -15 -14  -2 11.9568 27.4845  10
 -29  14   2 1.25373 22.4628   9
 -29  14  -2-0.94510 27.8285   9
 -29  15   2 10.0732 22.5935   9
 -29  15  -2-0.04667 28.0348   9
  15 -29   2 18.8695 16.7292   6
 -14 -15  -3 18.8542 24.7089  10
 -15 -14  -3 43.6632 26.5047  10
 -29  14   3-15.9401 19.9041   9
 -29  15   3 2.62103 19.3451   9
 -29  14  -3 18.7687 27.4982   9
 -29  15  -3 0.13554 27.2422   9
  14 -29   3-9.11005 14.9357   6
  15 -29   3 29.6491 16.0284   6
  14 -29  -3 15.7738 15.7096   7
 -14 -15  -4-7.16953 22.4013  10
 -15 -14  -4-11.5483 22.9987  10
 -29  14  -4 4.09332 25.1674   9
 -29  15  -4-8.59026 24.4068   9
  15 -29   4-18.2995 15.6833   6
  14 -29  -4-10.0043 15.6600   7
  15 -29  -4 5.72429 14.5787   7
 -14 -15  -5-3.75399 19.7602  10
 -15 -14  -5-10.9889 20.4266  10
 -29  14  -5 8.85691 22.0406   9
 -29  15  -5-10.9098 22.3080   9
  14 -29   5 2.73657 12.0881   6
  15 -29   5 7.09696 14.0590   6
  14 -29  -5-16.0046 15.5183   7
  15 -29  -5-10.2280 14.6600   7
 -14 -15  -6-0.30878 16.9190  10
 -15 -14  -6 6.84349 18.1898  10
 -29  14  -6-25.4264 19.8555   9
 -29  15  -6-13.5296 19.2999   9
  14 -29   6-22.2401 11.6281   6
  15 -29   6-2.80425 13.0361   6
  14 -29  -6-14.2521 15.2969   7
  15 -29  -6 9.36040 14.0465   7
 -14 -15  -7-5.70019 14.8084  10
 -15 -14  -7 27.5767 16.4120  10
 -29  14  -7 1.09057 15.9784   9
 -29  15  -7 17.2513 16.2462   9
  14 -29   7 6.53846 8.47551   6
  15 -29   7 9.83250 11.0103   6
  14 -29  -7 25.9675 14.5430   7
  15 -29  -7 2.08369 12.9528   7
 -15 -14  -8-7.61108 12.7963  10
  14 -29   8-9.82851 7.55402   6
  15 -29   8-5.63746 7.90578   6
  14 -29  -8 4.17113 12.1604   7
  15 -29  -8 6.12428 11.8019   7
  14 -29  -9-10.7063 9.94457   7
  15 -29  -9 2.21816 9.65150   7
 -16 -13   0 62.6592 31.2987  10
 -29  13   0 32.9777 26.5201   9
 -29  16   0 72.5375 28.2124   9
  16 -29   0 29.7177 17.8497   6
 -16 -13  -1 40.1212 31.1784  10
 -29  13   1 37.5543 24.9852   9
 -29  13  -1 56.7709 28.3273   9
 -29  16   1 55.6684 26.1697   9
 -29  16  -1 22.1934 28.5351   9
  16 -29   1 64.0018 19.3713   6
  16 -29  -1 25.7020 17.3746   6
 -16 -13  -2 54.0697 29.0750  10
 -29  13   2 3.53662 22.0449   9
 -29  13  -2 36.0384 27.7348   9
 -29  16   2-4.22420 22.5043   9
 -29  16  -2 47.6854 28.5665   9
  16 -29   2 7.57075 17.0430   6
  16 -29  -2-3.02518 17.1476   6
  13 -29  -2 34.3437 16.1185   7
 -13 -16  -3 17.8199 23.7030  10
 -16 -13  -3 25.9115 26.5718  10
 -29  13   3 51.0686 20.4937   9
 -29  13  -3 9.80011 26.6534   9
 -29  16   3 4.47437 19.7020   9
 -29  16  -3 36.7778 27.3107   9
  16 -29   3 16.8683 17.3596   6
  13 -29  -3 18.2513 16.3645   7
 -13 -16  -4 57.1171 21.7385  10
 -16 -13  -4 23.0214 24.0289  10
 -29  13  -4 37.2476 25.2512   9
 -29  16  -4 24.4992 25.0084   9
  16 -29   4 21.1311 16.3635   6
  13 -29  -4 22.6248 16.8463   7
 -13 -16  -5 4.17163 19.0911  10
 -16 -13  -5 22.4271 22.1265  10
 -29  13  -5 28.5709 22.8883   9
 -29  16  -5 33.1923 22.4926   9
  16 -29   5 16.9639 15.6024   6
  13 -29  -5 24.8440 16.0975   7
  16 -29  -5 17.2628 14.2388   7
 -13 -16  -6 30.1674 16.4359  10
 -16 -13  -6 33.8735 19.2234  10
 -29  13  -6 30.9743 20.4487   9
 -29  16  -6 18.4709 19.0823   9
  16 -29   6 19.3526 14.0101   6
  13 -29  -6-6.98940 15.5901   7
  16 -29  -6 9.78728 13.6628   7
 -16 -13  -7 17.0424 16.6570  10
  13 -29   7 7.17000 9.07201   6
 -29  13  -7 20.5042 16.5726   9
 -29  16  -7 9.12398 15.2021   9
  16 -29   7 12.2274 12.0009   6
  13 -29  -7-7.36416 14.5816   7
  16 -29  -7 8.48555 12.3717   7
 -16 -13  -8 3.06296 13.0831  10
  16 -29   8 0.53650 9.25974   6
  13 -29  -8 0.00667 12.6838   7
  16 -29  -8 0.00594 11.1542   7
  13 -29  -9 8.86393 10.4566   7
 -17 -12   0 27.6469 30.3376  10
 -29  12   0 14.7443 25.5004   9
 -29  17   0 12.5636 26.7006   9
  17 -29   0-6.42707 18.7387   6
 -17 -12  -1 26.8942 30.3500  10
 -29  12   1 36.6703 24.7752   9
 -29  12  -1 41.8291 27.5885   9
 -29  17   1 17.3833 25.2805   9
 -29  17  -1 33.7047 28.8712   9
  17 -29   1 17.2041 19.2008   6
  17 -29  -1 48.5197 19.2277   6
  12 -29  -1 22.7975 16.2320   7
 -17 -12  -2 42.2644 29.1717  10
 -29  12   2 21.2239 21.9346   9
 -29  12  -2 42.4600 27.8014   9
 -29  17   2 7.84801 22.2113   9
 -29  17  -2 32.5121 28.6280   9
  17 -29   2 9.51007 18.6484   6
  17 -29  -2-11.3515 18.3586   6
  12 -29  -2 20.4334 16.5583   7
 -17 -12  -3 32.7202 27.5397  10
 -29  12   3 14.0923 19.9332   9
 -29  12  -3-6.03566 26.1560   9
 -29  17   3 19.5618 19.6038   9
 -29  17  -3 41.7199 28.1220   9
  17 -29   3 21.2216 18.1308   6
  12 -29  -3 30.4479 17.0371   7
 -17 -12  -4 8.03716 24.7203  10
 -29  12  -4 33.4464 24.9409   9
 -29  17  -4 6.76387 25.0964   9
  17 -29   4 42.1218 18.0570   6
  12 -29  -4 14.5643 17.4923   7
 -17 -12  -5 45.2442 22.6813  10
 -29  12  -5 40.0248 23.4060   9
 -29  17  -5 45.8317 22.7451   9
  17 -29   5 24.4515 16.3903   6
  12 -29  -5 41.6677 17.4166   7
 -17 -12  -6 2.45683 19.3643  10
 -29  12  -6 36.2481 20.1437   9
 -29  17  -6 12.4182 19.0909   9
  17 -29   6 24.6225 15.3123   6
  12 -29  -6-8.10722 15.7449   7
  17 -29  -6 1.19558 12.3966   7
 -17 -12  -7 12.4453 17.0170  10
 -29  12  -7 0.00975 16.0565   9
 -29  17  -7 11.7054 14.9590   9
  17 -29   7 2.10240 12.8351   6
  12 -29  -7 25.7468 14.8045   7
  17 -29  -7 11.1872 11.6383   7
 -17 -12  -8-9.29251 13.2640  10
  17 -29   8 1.14423 9.86273   6
  12 -29  -8-18.1274 12.8770   7
  17 -29  -8 0.00548 10.1622   7
  17 -29   9-2.27172 7.54999   6
  12 -29  -9-14.2465 10.6810   7
 -18 -11   0 69.8326 30.8425  10
 -29  11   0 66.5480 26.3708   9
 -29  18   0 94.8422 27.2552   9
  18 -29   0 67.6494 20.7337   6
 -18 -11  -1 109.978 31.1918  10
 -29  11   1 129.684 26.3625   9
 -29  11  -1 87.9549 27.7391   9
 -29  18   1 72.5914 25.3949   9
 -29  18  -1 148.891 30.0773   9
  18 -29   1 71.1055 21.6059   6
  18 -29  -1 58.5915 20.6397   6
  11 -29  -1 103.393 18.0438   7
 -18 -11  -2 101.134 30.3711  10
 -29  11   2 101.634 23.8042   9
 -29  11  -2 76.6470 27.8838   9
 -29  18   2 70.2251 23.2682   9
 -29  18  -2 76.6109 28.6795   9
  18 -29   2 83.1306 20.7512   6
  18 -29  -2 60.7736 19.6696   6
  11 -29  -2 69.0710 18.2145   7
 -18 -11  -3 104.584 28.6882  10
 -29  11   3 83.3971 20.7772   9
 -29  11  -3 76.4887 27.3374   9
 -29  18   3 80.4962 20.8189   9
 -29  18  -3 146.186 29.5287   9
  18 -29   3 74.8542 19.9023   6
  11 -29  -3 56.1529 18.1693   7
 -18 -11  -4 73.6645 25.6577  10
 -29  11  -4 73.9357 26.0282   9
 -29  18  -4 75.9122 25.7640   9
  18 -29   4 59.1420 18.8907   6
  11 -29  -4 65.9479 17.9487   7
 -18 -11  -5 36.3292 22.8127  10
 -29  11  -5 41.5798 22.6539   9
 -29  18  -5 52.7188 22.0228   9
  18 -29   5 41.4396 16.9207   6
  11 -29  -5 55.7245 17.6847   7
 -18 -11  -6 29.8498 19.7509  10
 -29  11  -6 25.4790 20.1349   9
 -29  18  -6 41.8771 19.1705   9
  18 -29   6 10.8303 15.1714   6
  11 -29  -6 44.0628 16.2631   7
 -18 -11  -7 38.7480 17.2210  10
 -29  11  -7 28.2156 16.5302   9
 -29  18  -7 27.9724 14.9994   9
  18 -29   7 22.1706 12.8871   6
  11 -29  -7 33.4441 14.8237   7
 -18 -11  -8 15.8868 13.8073  10
  18 -29   8-3.08571 9.67538   6
  11 -29  -8 24.3571 12.7766   7
  11 -29  -9 8.15254 9.75275   7
 -19 -10   0 62.3730 29.6411  10
 -29  10   0 9.57434 24.4246   9
 -29  19   0 34.1827 26.4573   9
  19 -29   0 28.8683 21.3867   6
 -19 -10  -1 69.0157 28.9398  10
 -29  10   1 63.5396 24.2530   9
 -29  10  -1 52.4200 26.7551   9
 -29  19   1 27.8455 24.5614   9
 -29  19  -1 76.0027 28.4904   9
  19 -29   1 56.9225 21.4012   6
  19 -29  -1 72.7064 21.3471   6
 -19 -10  -2 22.7485 28.1794  10
 -29  10   2-17.5512 21.7488   9
 -29  10  -2 45.0636 26.2932   9
 -29  19   2 32.8369 22.2224   9
 -29  19  -2 43.3729 27.8806   9
  19 -29   2 53.2696 21.7371   6
  10 -29  -2 58.9232 18.1036   7
 -19 -10  -3 53.3227 27.2246  10
 -29  10   3 27.1450 16.3165   9
 -29  10  -3 65.8088 26.2472   9
 -29  19   3 17.7150 19.4559   9
 -29  19  -3 29.8302 26.4661   9
  19 -29   3 23.2689 19.9336   6
  10 -29  -3 9.74217 17.3117   7
 -19 -10  -4 36.6836 25.1147  10
 -29  10  -4 26.6749 23.7902   9
 -29  19  -4 77.0890 25.0841   9
  19 -29   4 24.6998 18.2908   6
  10 -29  -4 37.2021 17.6017   7
 -19 -10  -5 30.2782 22.4585  10
 -29  10  -5-21.0773 21.4922   9
 -29  19  -5 36.3600 21.4622   9
  19 -29   5 26.6199 16.7756   6
  10 -29  -5 59.7023 17.6161   7
 -19 -10  -6 3.34297 19.4474  10
 -29  10  -6 11.8942 18.1801   9
 -29  19  -6 14.1303 18.0745   9
  19 -29   6-10.6695 15.3433   6
  10 -29  -6 24.9805 16.2851   7
 -19 -10  -7 29.0782 16.8300  10
 -29  10  -7 21.6910 15.8432   9
 -29  19  -7 3.66209 14.2527   9
  19 -29   7 28.4184 12.8466   6
  10 -29  -7 29.2895 14.2888   7
 -19 -10  -8 26.7751 13.7880  10
  19 -29   8 16.5490 9.47489   6
  10 -29  -8 7.28303 11.9915   7
 -20  -9   0 98.9680 28.2373  10
 -29   9   0 127.061 26.2569   9
 -29  20   0 122.454 27.1033   9
  20 -29   0 77.2738 22.1139   6
 -20  -9  -1 149.007 29.2914  10
 -29   9   1 119.892 24.9502   9
 -29   9  -1 171.343 28.0250   9
 -29  20   1 121.313 25.5897   9
 -29  20  -1 134.452 28.2041   9
  20 -29   1 111.704 22.4611   6
  20 -29  -1 99.4455 22.0358   6
 -20  -9  -2 92.6314 28.0010  10
 -29   9   2 87.4050 22.5511   9
 -29   9  -2 96.2186 26.7459   9
 -29  20   2 82.9577 22.6189   9
 -29  20  -2 122.764 27.7991   9
  20 -29   2 106.823 21.7273   6
   9 -29  -2 89.2996 18.3493   7
 -20  -9  -3 68.8422 26.8396  10
 -29   9   3-20.4506 17.3454   9
 -29   9  -3 68.5212 25.0307   9
 -29  20   3 28.1983 19.0466   9
 -29  20  -3 62.1437 25.7330   9
  20 -29   3 77.0857 19.8428   6
   9 -29  -3 43.3136 17.5119   7
 -20  -9  -4 43.6391 24.3044  10
 -29   9  -4 79.1708 23.9007   9
 -29  20  -4 70.6136 23.9288   9
  20 -29   4 76.6536 19.0495   6
   9 -29  -4 82.9162 18.4787   7
 -20  -9  -5 50.0762 22.4490  10
 -29   9  -5 64.6286 21.2340   9
 -29  20  -5 61.5628 21.2182   9
  20 -29   5 66.1738 17.3721   6
   9 -29  -5 77.2413 17.2211   7
 -20  -9  -6 33.7339 19.0542  10
 -29   9  -6 24.3005 17.8790   9
 -29  20  -6 24.4149 17.0982   9
  20 -29   6 27.2554 14.2309   6
   9 -29  -6 15.8751 14.9378   7
 -20  -9  -7 30.8106 17.0490  10
 -29   9  -7 17.9931 14.7222   9
 -29  20  -7 28.8031 13.5351   9
  20 -29   7 30.0952 12.6392   6
   9 -29  -7 29.7416 13.5665   7
 -20  -9  -8 6.66769 12.7174  10
  20 -29   8 8.39368 8.83390   6
   9 -29  -8 14.1618 10.7971   7
 -21  -8   0 43.6105 26.1140  10
 -29   8   0 50.5367 24.0071   9
 -29  21   0 16.0817 23.5701   9
  21 -29   0 17.9760 20.1155   6
 -21  -8  -1 45.3453 25.7659  10
 -29   8   1 37.0991 22.6024   9
 -29   8  -1 45.2873 23.9705   9
 -29  21   1 30.7592 22.0967   9
 -29  21  -1 30.9739 24.5954   9
  21 -29   1 21.0633 20.3993   6
  21 -29  -1 22.4410 20.3449   6
 -21  -8  -2 40.3184 25.3990  10
 -29   8   2 2.22251 18.7209   9
 -29   8  -2 6.62232 23.1506   9
 -29  21   2-5.13160 19.8938   9
 -29  21  -2 16.9769 25.2933   9
  21 -29   2 9.09852 20.0433   6
 -21  -8  -3 11.2069 23.8588  10
 -29   8  -3 53.9432 23.7669   9
 -29  21   3 13.7531 17.3473   9
 -29  21  -3 30.0460 23.1654   9
  21 -29   3 25.6429 19.0390   6
   8 -29  -3 24.0018 16.9072   7
 -21  -8  -4 20.2833 22.6019  10
 -29   8  -4 32.7223 21.3449   9
 -29  21  -4 32.1118 21.2198   9
  21 -29   4-0.65268 17.0527   6
   8 -29  -4 16.4159 16.8705   7
 -21  -8  -5 24.7919 20.8247  10
 -29   8  -5 14.1200 18.9660   9
 -29  21  -5 42.2053 19.4585   9
  21 -29   5 5.64276 15.8175   6
   8 -29  -5 15.5427 15.3610   7
 -21  -8  -6 12.5999 18.3862  10
 -29   8  -6-6.34187 15.8792   9
 -29  21  -6 19.4675 15.6500   9
  21 -29   6 20.7239 13.6307   6
   8 -29  -6 5.02902 13.6150   7
 -21  -8  -7 9.74830 15.1921  10
 -29   8  -7 4.21571 13.3560   9
  21 -29   7 9.75760 10.9720   6
   8 -29  -7 14.7028 12.3455   7
 -21  -8  -8-1.99925 12.9073  10
  21 -29   8 1.90732 8.26820   6
   8 -29  -8 2.89146 9.89268   7
 -22  -7   0 37.6993 24.1459  10
 -29   7   0 70.5180 22.3451   9
 -29  22   0 42.5731 22.6746   9
  22 -29   0 51.8376 21.0647   6
 -22  -7  -1 58.0984 25.2715  10
 -29   7   1 89.3440 22.1386   9
 -29   7  -1 88.9841 23.6099   9
 -29  22   1 91.9837 22.8979   9
 -29  22  -1 94.2334 25.0081   9
  22 -29   1 74.9173 21.1411   6
  22 -29  -1 48.1542 20.1792   6
 -22  -7  -2 33.7309 24.1527  10
 -29   7   2 15.8788 18.0019   9
 -29   7  -2 51.1896 22.8632   9
 -29  22   2 18.6697 18.9839   9
 -29  22  -2 51.9924 24.2044   9
  22 -29   2 33.2707 19.1566   6
 -22  -7  -3 48.0759 23.7119  10
 -29   7  -3 60.7859 22.9083   9
 -29  22   3 52.8988 17.3508   9
 -29  22  -3 56.1950 22.9266   9
  22 -29   3 56.1345 18.2089   6
 -22  -7  -4 29.2047 21.8037  10
 -29   7  -4 72.1915 20.8788   9
 -29  22  -4 36.7759 20.7035   9
  22 -29   4 56.3758 16.8760   6
   7 -29  -4 29.1589 15.7300   7
 -22  -7  -5 48.6458 20.1127  10
 -29   7  -5 36.9089 18.7544   9
 -29  22  -5 28.6058 17.1896   9
  22 -29   5 46.0923 14.7825   6
   7 -29  -5 18.5696 14.7581   7
 -22  -7  -6 8.61485 16.5347  10
 -29   7  -6 11.2770 16.1290   9
 -29  22  -6 6.25640 14.4068   9
  22 -29   6 11.9353 12.4302   6
   7 -29  -6 15.9120 13.0459   7
 -22  -7  -7 13.4360 15.1333  10
  22 -29   7-0.11024 10.3403   6
   7 -29  -7 10.8996 10.8338   7
 -23  -6   0 0.15463 20.4226  10
 -29   6   0-9.51469 19.9603   9
 -29  23   0 9.24405 20.7098   9
  23 -29   0-12.3045 19.1828   6
 -23  -6  -1 19.2588 21.6145  10
 -29   6   1 9.05579 19.3878   9
 -29   6  -1-19.9866 20.6089   9
 -29  23   1 9.18386 19.8762   9
 -29  23  -1 33.4862 22.8128   9
  23 -29   1 2.58847 18.5826   6
  23 -29  -1 32.3072 18.8760   6
 -23  -6  -2 12.2790 21.0884  10
 -29   6   2-14.3639 15.1973   9
 -29   6  -2-3.45219 20.8515   9
 -29  23   2 24.7793 18.4176   9
 -29  23  -2 3.10902 21.2715   9
  23 -29   2 30.6475 17.7911   6
 -23  -6  -3 10.6416 21.0970  10
 -29   6  -3-6.30677 19.5605   9
 -29  23   3-3.79912 14.2322   9
 -29  23  -3 5.79765 20.0387   9
  23 -29   3 1.38999 15.9799   6
 -23  -6  -4 0.40546 19.8561  10
 -29   6  -4 20.7488 18.5377   9
 -29  23  -4 1.44727 17.7626   9
  23 -29   4 3.90458 14.7899   6
 -23  -6  -5 13.3276 18.0415  10
 -29   6  -5 24.1409 16.6017   9
 -29  23  -5 0.00925 15.1081   9
  23 -29   5 11.8638 13.4133   6
 -23  -6  -6 10.6699 15.5634  10
 -29   6  -6 7.84009 14.5473   9
 -29  23  -6-2.04632 12.2786   9
  23 -29   6-4.02108 11.1033   6
 -23  -6  -7 8.95746 13.7943  10
  23 -29   7 13.9981 9.15166   6
 -29   5   0 25.2994 19.1607   9
 -29  24   0 37.3201 19.8870   9
  24 -29   0 15.6935 17.0020   6
 -24  -5  -1-19.3926 19.4461  10
 -29   5   1-3.95526 17.1064   9
 -29   5  -1 19.6845 19.2172   9
 -29  24   1 20.7175 18.3387   9
 -29  24  -1 30.9770 20.6108   9
  24 -29   1 16.2314 16.5821   6
  24 -29  -1-1.71076 16.8868   6
 -24  -5  -2 33.1485 19.0200  10
 -29   5   2 9.64577 13.0806   9
 -29   5  -2 35.4019 19.8895   9
 -29  24   2 2.35392 16.5186   9
 -29  24  -2 18.5464 19.9879   9
  24 -29   2 17.9881 15.9046   6
  24 -29  -2 11.8819 16.1429   6
 -24  -5  -3 5.61898 18.7829  10
 -29   5  -3 23.2019 18.3827   9
 -29  24   3 21.9510 12.2510   9
 -29  24  -3 26.1247 18.3601   9
  24 -29   3 33.3987 14.9153   6
 -24  -5  -4 21.3604 17.9654  10
 -29   5  -4 32.3545 17.2292   9
 -29  24  -4 27.7003 17.1683   9
  24 -29   4 19.1584 13.2029   6
 -24  -5  -5 12.3472 16.0462  10
 -29   5  -5 16.6553 15.4962   9
 -29  24  -5 20.6753 13.9828   9
  24 -29   5 26.5190 11.6041   6
 -24  -5  -6 1.36179 13.8599  10
 -29   5  -6 1.58742 11.9488   9
  24 -29   6 7.66962 9.68792   6
 -29   4   0-2.50632 16.6142   9
 -29  25   0 0.43693 17.8866   9
  29 -25   0-13.3074 11.5196   6
  25 -29   0 6.57804 15.6677   6
 -25  -4  -1 6.88284 15.5812  10
 -29   4   1 2.99972 14.9598   9
 -29   4  -1-14.1839 16.9762   9
 -29  25   1 3.41953 16.7117   9
 -29  25  -1 12.9805 17.7487   9
  25 -29   1-0.30009 15.1672   6
  29 -25  -1 10.3555 12.1443   6
  25 -29  -1-8.21055 15.1417   6
 -25  -4  -2 6.10743 13.4642  10
 -29   4   2 4.65769 13.6611   9
 -29   4  -2 3.63916 16.6412   9
 -29  25   2 8.87241 14.4635   9
 -29  25  -2 13.2944 17.6454   9
  25 -29   2 6.25024 14.0383   6
  29 -25  -2 9.66176 11.6871   6
  25 -29  -2 35.0974 16.0730   6
 -25  -4  -3 13.7346 16.2682  10
 -29   4  -3-2.75907 16.7429   9
 -29  25   3 18.3437 12.9598   9
 -29  25  -3-3.51530 15.8315   9
  25 -29   3-3.49008 12.3860   6
 -25  -4  -4 19.8716 15.4702  10
 -29   4  -4 8.13886 15.5245   9
 -29  25  -4 6.35002 14.7094   9
  25 -29   4 1.88558 11.1268   6
 -25  -4  -5-1.32625 13.8186  10
 -29   4  -5 9.21476 13.4176   9
  25 -29   5 8.46858 10.0362   6
 -29   3   0 11.1481 15.1597   9
 -29  26   0 3.34545 15.7639   9
  29 -26   0 6.42818 10.7280   6
  26 -29   0 23.2281 13.1619   6
 -29   3  -1-1.50157 14.8377   9
 -29  26   1 13.7826 14.8207   9
 -29  26  -1-2.60655 15.5384   9
  26 -29   1 4.75249 12.5320   6
  29 -26  -1 3.96709 10.5480   6
  26 -29  -1-3.32032 13.6021   6
 -29   3  -2 9.54354 14.8027   9
 -29  26   2 10.9051 12.0635   9
 -29  26  -2-22.0279 15.4526   9
  26 -29   2-13.3960 11.7828   6
  29 -26  -2 6.78873 10.9914   6
  26 -29  -2 5.06453 12.6376   6
 -29   3  -3 2.20752 15.0985   9
 -29  26  -3 17.2152 14.7094   9
  26 -29   3-3.75345 10.9329   6
  29 -26  -3 1.23152 10.9683   6
  26 -29  -3-6.80898 12.7015   6
 -29  26  -4 4.43840 12.6117   9
  26 -29   4 6.86430 9.70577   6
 -29  27   0 2.74876 13.4750   9
  27 -29   0 1.97455 11.2873   6
 -29  27   1 7.76011 12.3268   9
 -29  27  -1-9.59238 13.4373   9
  27 -29   1-5.04550 10.6186   6
  27 -29  -1 5.11390 10.7776   6
 -29  27  -2 9.97272 13.2281   9
  27 -29   2 8.95886 9.68195   6
  27 -29  -2 11.7961 11.4536   6
 -30  15   0 18.8113 23.5661   9
 -30  15   1 1.28532 21.7235   9
 -30  15  -1 13.2290 24.2794   9
 -30  15   2 13.1212 19.8539   9
 -30  15  -2 5.93181 24.2922   9
 -15 -15  -3 19.9252 22.0035  10
 -30  15   3 22.0188 14.4745   9
 -30  15  -3 18.6489 23.4074   9
 -15 -15  -4-7.13981 20.0747  10
 -30  15  -4 15.1362 21.4271   9
  15 -30   4 5.37826 11.2777   6
  15 -30  -4-9.64296 12.2311   7
 -15 -15  -5-2.69221 16.9054  10
 -30  15  -5 6.72219 18.5559   9
  15 -30   5-7.84548 9.70854   6
  15 -30  -5 1.00286 11.8824   7
 -15 -15  -6 7.21582 14.5770  10
 -30  15  -6 7.18452 16.6221   9
  15 -30   6 8.82710 9.44658   6
  15 -30  -6 5.61101 11.1922   7
 -30  15  -7 4.78578 13.0438   9
  15 -30  -7 14.3005 10.1676   7
 -30  14   0 168.946 26.6001   9
 -30  16   0 146.127 26.3665   9
 -30  14   1 72.9676 22.7007   9
 -30  14  -1 132.757 26.0857   9
 -30  16   1 61.2373 22.7691   9
 -30  16  -1 115.372 26.6082   9
 -16 -14  -2 89.8023 26.1858  10
 -30  14   2 55.8010 20.6961   9
 -30  14  -2 71.6723 25.3879   9
 -30  16   2 56.8710 20.1465   9
 -30  16  -2 78.0025 25.9202   9
  16 -30   2 7.77862 12.7252   6
 -16 -14  -3 63.0373 23.6824  10
 -30  14   3 36.9151 14.8936   9
 -30  14  -3 58.4881 23.9811   9
 -30  16   3 39.7934 15.0460   9
 -30  16  -3 64.9160 25.0283   9
  16 -30   3 61.3492 13.4740   6
  14 -30  -3 42.5175 13.9697   7
 -16 -14  -4 74.6700 21.7082  10
 -30  14  -4 62.6437 23.1652   9
 -30  16  -4 71.2927 22.4999   9
  16 -30   4 58.1098 13.1990   6
  14 -30  -4 39.6668 13.6411   7
 -16 -14  -5 22.7773 18.3852  10
 -30  14  -5 29.4988 19.2406   9
 -30  16  -5 42.3853 19.1326   9
  16 -30   5 25.6283 11.0607   6
  14 -30  -5 21.0368 13.0959   7
 -16 -14  -6 17.3748 15.4343  10
 -30  14  -6 32.1681 17.5508   9
 -30  16  -6 35.9313 16.9002   9
  16 -30   6 12.5913 9.00699   6
  14 -30  -6 25.3686 12.3087   7
  16 -30  -6 15.9798 11.0795   7
 -16 -14  -7 12.3115 13.4133  10
 -30  14  -7 4.33655 13.3836   9
 -30  16  -7 4.68895 12.4275   9
  16 -30   7 7.37871 8.02031   6
  14 -30  -7 7.49010 10.9348   7
  16 -30  -7 8.91399 9.82826   7
 -30  13   0 17.5087 23.2415   9
 -30  17   0 21.1599 24.0038   9
  17 -30   0 41.7371 16.0032   6
 -30  13   1 13.4297 21.5367   9
 -30  13  -1-1.24306 23.4547   9
 -30  17   1 1.11635 21.4289   9
 -30  17  -1 24.2652 25.2022   9
  17 -30   1 7.71684 14.8732   6
  17 -30  -1 10.5224 12.4449   6
 -17 -13  -2 49.2765 25.8883  10
 -30  13   2-1.74569 19.7602   9
 -30  13  -2 11.4997 23.8483   9
 -30  17   2 22.1676 20.1003   9
 -30  17  -2 11.8654 24.8007   9
  17 -30   2 2.04518 14.8826   6
  13 -30  -2 11.2014 13.7215   7
 -17 -13  -3 4.17116 22.8164  10
 -30  13  -3 10.5450 23.4139   9
 -30  17   3 4.76365 13.8391   9
 -30  17  -3 48.1501 23.6686   9
  17 -30   3 33.4796 15.4429   6
  13 -30  -3 16.4650 13.9856   7
 -17 -13  -4 23.5628 21.2384  10
 -30  13  -4 32.4572 21.4422   9
 -30  17  -4-6.18174 20.8146   9
  17 -30   4 8.55342 13.8785   6
  13 -30  -4 8.08932 13.4881   7
 -17 -13  -5-2.65714 18.0947  10
 -30  13  -5-8.32862 18.8321   9
 -30  17  -5 16.6158 18.4933   9
  17 -30   5 3.51694 12.7801   6
  13 -30  -5 3.10753 12.6533   7
 -17 -13  -6-23.9454 16.6180  10
 -30  13  -6 8.06279 16.2168   9
 -30  17  -6 3.81512 15.3062   9
  17 -30   6 19.6786 11.2556   6
  13 -30  -6 11.8421 12.0610   7
 -17 -13  -7 10.8396 13.2161  10
 -30  13  -7 8.25179 12.6443   9
  17 -30   7 3.39321 7.78854   6
  13 -30  -7 0.00575 11.0568   7
 -30  12   0 44.6089 22.6035   9
 -30  18   0 68.2909 23.7319   9
  18 -30   0 46.9470 16.6313   6
 -18 -12  -1 29.3387 25.8348  10
 -30  12   1 37.9430 21.1440   9
 -30  12  -1 43.7791 24.0830   9
 -30  18   1 40.3120 21.3312   9
 -30  18  -1 52.2417 24.3720   9
  18 -30   1 25.9560 16.3102   6
  18 -30  -1 53.8822 16.1296   6
 -18 -12  -2 51.5541 25.2381  10
 -30  12   2 30.0794 19.3806   9
 -30  12  -2 57.6739 24.2877   9
 -30  18   2 13.3407 18.7939   9
 -30  18  -2 45.7598 24.4534   9
  18 -30   2 53.1206 16.8686   6
  18 -30  -2 46.6161 14.5879   6
  12 -30  -2 32.3608 14.4995   7
 -18 -12  -3 28.5127 23.3459  10
 -30  12   3 58.6147 17.3649   9
 -30  12  -3 56.4730 23.5455   9
 -30  18   3 23.8924 14.3747   9
 -30  18  -3 29.6168 23.3225   9
  18 -30   3 29.8967 15.1673   6
  18 -30  -3 7.53304 11.7152   6
  12 -30  -3 16.8381 14.3777   7
 -18 -12  -4 39.9222 21.6160  10
 -30  12  -4 7.31932 20.5988   9
 -30  18  -4 35.5399 20.9367   9
  18 -30   4 16.0268 14.7249   6
  12 -30  -4 17.4272 13.8181   7
 -18 -12  -5 13.1155 18.2757  10
 -30  12  -5 15.0319 18.6646   9
 -30  18  -5 10.8886 17.7343   9
  18 -30   5 4.06655 12.9349   6
  12 -30  -5 8.41730 13.1530   7
 -18 -12  -6 23.2123 16.0213  10
 -30  12  -6 60.5536 16.8329   9
 -30  18  -6 3.48745 14.4990   9
  18 -30   6 45.7360 11.7518   6
  12 -30  -6 22.8482 12.9791   7
 -18 -12  -7 8.02587 12.6724  10
  18 -30   7-0.92762 9.38851   6
  12 -30  -7 8.16102 10.2524   7
 -30  11   0 0.83715 21.3213   9
 -30  19   0-12.2969 22.7256   9
  19 -30   0 0.00803 16.2377   6
 -19 -11  -1 1.41605 24.4820  10
 -30  11   1-2.71754 20.3207   9
 -30  11  -1 4.49292 22.0109   9
 -30  19   1-19.2838 20.1830   9
 -30  19  -1 2.44866 22.8594   9
  19 -30   1-10.9895 16.7106   6
  19 -30  -1-7.64033 15.9897   6
 -19 -11  -2-1.81234 23.4245  10
 -30  11   2 8.93884 17.7872   9
 -30  11  -2 31.6111 22.9564   9
 -30  19   2 4.38484 18.5814   9
 -30  19  -2-11.7798 22.2306   9
  19 -30   2 22.2944 16.6344   6
  19 -30  -2-12.6415 15.5421   6
 -19 -11  -3 6.05379 22.5148  10
 -30  11  -3-9.74132 22.2177   9
 -30  19   3 0.54782 12.7772   9
 -30  19  -3-13.8880 21.7795   9
  19 -30   3-2.46191 15.2229   6
  19 -30  -3-12.9504 14.4881   6
  11 -30  -3 7.04016 13.8292   7
 -19 -11  -4-6.30586 20.1685  10
 -30  11  -4-10.3237 20.4781   9
 -30  19  -4-0.74126 19.3235   9
  19 -30   4 0.01353 14.3110   6
  19 -30  -4 6.21791 10.8575   6
  11 -30  -4-12.5767 13.3025   7
 -19 -11  -5-13.9527 18.2184  10
 -30  11  -5-30.6162 18.0386   9
 -30  19  -5 24.3846 17.3530   9
  19 -30   5-7.21009 13.0269   6
  19 -30  -5-2.21393 11.3317   6
  11 -30  -5-11.8217 12.6441   7
 -19 -11  -6-4.78416 15.1360  10
 -30  11  -6 6.69846 15.3895   9
 -30  19  -6-3.79526 14.2850   9
  19 -30   6-1.51563 11.4964   6
  11 -30  -6 3.24927 12.0503   7
 -19 -11  -7-9.97878 13.1785  10
  19 -30   7 6.13664 8.89341   6
  11 -30  -7 5.49486 10.5808   7
 -30  10   0 55.6107 21.9115   9
 -30  20   0 53.6375 22.0567   9
  20 -30   0 29.9213 17.5576   6
 -20 -10  -1 57.4031 25.0579  10
 -30  10   1 47.5946 20.9804   9
 -30  10  -1 48.8354 22.3518   9
 -30  20   1 53.2766 20.2717   9
 -30  20  -1 14.2001 22.2537   9
  20 -30   1 38.6911 16.8757   6
  20 -30  -1 30.4199 17.1124   6
 -20 -10  -2 30.6295 23.3191  10
 -30  10   2 45.7704 18.4365   9
 -30  10  -2 42.4603 22.4376   9
 -30  20   2 61.6900 18.9769   9
 -30  20  -2 28.1804 22.4193   9
  20 -30   2 31.5508 16.7515   6
  20 -30  -2 9.13512 16.0222   6
 -20 -10  -3 21.4318 21.9113  10
 -30  10  -3 27.7001 21.2489   9
 -30  20   3 13.6829 12.6181   9
 -30  20  -3 22.8899 21.2067   9
  20 -30   3 2.60750 14.8405   6
  20 -30  -3 12.4091 14.4816   6
  10 -30  -3 21.7156 14.3973   7
 -20 -10  -4 27.0112 19.9007  10
 -30  10  -4-2.14466 18.9426   9
 -30  20  -4 36.1908 19.3505   9
  20 -30   4 22.5214 14.4569   6
  20 -30  -4 30.7553 13.4722   6
  10 -30  -4 14.9162 13.2472   7
 -20 -10  -5 16.9738 17.2793  10
 -30  10  -5 46.2212 17.8887   9
 -30  20  -5 7.50029 15.9975   9
  20 -30   5 13.8840 12.6741   6
  10 -30  -5 5.24721 12.7006   7
 -20 -10  -6 5.09600 14.8116  10
 -30  10  -6 10.2576 14.3969   9
 -30  20  -6 2.41868 13.0802   9
  20 -30   6 22.7643 11.2983   6
  10 -30  -6 0.42259 10.9359   7
 -20 -10  -7 0.19209 12.9967  10
  20 -30   7 7.60138 8.94440   6
  10 -30  -7 2.89857 10.0591   7
 -30   9   0-4.15808 19.9897   9
  21 -30   0-3.98345 16.1822   6
 -21  -9  -1 31.3661 23.0901  10
 -30   9   1 35.4400 18.8241   9
 -30   9  -1 0.18125 20.2404   9
 -30  21   1 10.2692 18.8596   9
 -30  21  -1 22.0402 21.1691   9
  21 -30   1 4.53078 16.9481   6
  21 -30  -1 18.7717 16.4307   6
 -21  -9  -2 27.3170 21.9626  10
 -30   9   2-6.18788 13.4287   9
 -30   9  -2-1.10781 20.5704   9
 -30  21   2 8.21543 16.4897   9
 -30  21  -2 6.66989 21.1094   9
  21 -30   2 9.48737 15.2258   6
  21 -30  -2-7.78173 15.9102   6
 -21  -9  -3 14.8168 20.6329  10
 -30   9  -3 1.56192 19.3101   9
 -30  21   3-2.47384 12.0832   9
 -30  21  -3 17.0599 19.4769   9
  21 -30   3-2.08359 14.6047   6
  21 -30  -3-10.8650 14.8837   6
 -21  -9  -4 19.6169 18.9239  10
 -30   9  -4-20.5862 17.8680   9
 -30  21  -4 28.7128 18.1798   9
  21 -30   4-0.45807 13.8314   6
   9 -30  -4 18.6109 13.5778   7
 -21  -9  -5-3.74710 17.0449  10
 -30   9  -5 18.0080 16.2293   9
 -30  21  -5-1.00978 14.7603   9
  21 -30   5-8.61555 12.7141   6
   9 -30  -5 2.19776 12.4578   7
 -21  -9  -6-16.3815 14.9594  10
 -30   9  -6-4.31525 13.7491   9
 -30  21  -6 0.71410 11.4290   9
  21 -30   6-1.01093 10.3536   6
   9 -30  -6 8.46764 11.1041   7
 -30   8   0 51.1399 19.6243   9
 -30  22   0 53.7570 19.8936   9
  22 -30   0 69.6450 17.0671   6
 -22  -8  -1 42.2001 21.2268  10
 -30   8   1 62.3722 18.6598   9
 -30   8  -1 81.6918 20.9563   9
 -30  22   1 59.9974 18.8619   9
 -30  22  -1 82.2907 20.7620   9
  22 -30   1 41.3577 16.5803   6
  22 -30  -1 40.8467 16.3224   6
 -22  -8  -2 50.4355 21.5913  10
 -30   8   2 1.12028 12.5883   9
 -30   8  -2 47.7668 20.0018   9
 -30  22   2 25.3111 16.0688   9
 -30  22  -2 74.0560 20.9002   9
  22 -30   2 20.1110 15.2206   6
  22 -30  -2 25.3533 15.7629   6
 -22  -8  -3 42.2904 19.8520  10
 -30   8  -3 59.6725 19.8670   9
 -30  22   3 31.3956 13.2431   9
 -30  22  -3 18.5666 18.9655   9
  22 -30   3 37.5370 14.4336   6
  22 -30  -3 17.6466 14.3361   6
 -22  -8  -4 61.7474 18.6480  10
 -30   8  -4 25.3886 17.9016   9
 -30  22  -4 43.6672 17.5390   9
  22 -30   4 28.2980 13.2001   6
 -22  -8  -5 35.2943 16.9387  10
 -30   8  -5 45.5753 15.6630   9
 -30  22  -5 40.4182 15.1093   9
  22 -30   5 7.15941 11.3464   6
 -22  -8  -6-12.4074 14.5324  10
  22 -30   6 2.26045 10.0778   6
 -30   7   0 3.56179 17.1195   9
 -30  23   0 2.24363 17.9524   9
  23 -30   0 28.8700 15.6695   6
 -23  -7  -1 18.3971 19.1295  10
 -30   7   1 15.1643 15.8203   9
 -30   7  -1-9.84144 17.4573   9
 -30  23   1 20.4095 16.7856   9
 -30  23  -1-1.81311 18.2284   9
  23 -30   1 3.82772 15.1905   6
  23 -30  -1 17.7595 15.4163   6
 -23  -7  -2 33.7562 19.1303  10
 -30   7   2 7.45245 14.2684   9
 -30   7  -2-5.68625 18.1870   9
 -30  23   2-14.4637 15.2843   9
 -30  23  -2-13.5620 18.2422   9
  23 -30   2 15.6718 14.0979   6
  23 -30  -2 0.76473 14.7848   6
 -23  -7  -3 13.8429 17.4573  10
 -30   7  -3 5.59938 16.8419   9
 -30  23   3-8.14787 12.7626   9
 -30  23  -3 12.5619 16.9111   9
  23 -30   3 26.6075 13.3824   6
  23 -30  -3 4.86861 13.1990   6
 -23  -7  -4 4.41503 16.4302  10
 -30   7  -4 28.2071 15.9139   9
 -30  23  -4 22.3773 15.9487   9
  23 -30   4 9.62439 11.7493   6
  23 -30  -4 8.24955 12.6758   6
 -23  -7  -5 0.14519 14.6669  10
 -30   7  -5 14.0628 13.2687   9
 -30  23  -5 2.46498 12.2415   9
  23 -30   5 2.66393 10.5209   6
 -30   6   0 0.00967 16.2282   9
 -30  24   0 16.1031 16.7302   9
  24 -30   0 7.95795 13.9639   6
 -30   6   1-0.58130 11.9058   9
 -30   6  -1 33.3324 16.8206   9
 -30  24   1 14.0517 15.0789   9
 -30  24  -1 10.2318 16.4132   9
  24 -30   1 21.1901 13.5353   6
  24 -30  -1 3.99112 13.4314   6
 -24  -6  -2 9.02992 15.4566  10
 -30   6  -2 5.59260 16.6180   9
 -30  24   2 8.43433 11.5359   9
 -30  24  -2 18.7749 17.0687   9
  24 -30   2 20.8723 13.3696   6
  24 -30  -2 1.46387 13.1194   6
 -24  -6  -3 5.71514 15.1242  10
 -30   6  -3 9.95680 15.3052   9
 -30  24  -3 11.0350 15.8543   9
  24 -30   3 20.6225 11.8830   6
  24 -30  -3 18.8281 12.9335   6
 -24  -6  -4 16.9715 14.7529  10
 -30   6  -4 6.64092 14.7901   9
 -30  24  -4 21.5861 14.1948   9
  24 -30   4 14.5553 10.4875   6
  24 -30  -4-8.57670 11.4989   6
 -30   5   0 15.1673 14.2462   9
 -30  25   0 25.2373 15.0544   9
  25 -30   0 16.6395 12.7360   6
 -30   5  -1-9.60070 14.1961   9
 -30  25   1 18.4452 13.6618   9
 -30  25  -1 15.4939 15.3300   9
  25 -30   1 13.3219 12.5488   6
  25 -30  -1 11.1426 12.6984   6
 -30   5  -2 5.06651 14.3620   9
 -30  25  -2 0.71334 14.5755   9
  25 -30   2 14.8943 11.3215   6
  25 -30  -2 9.60231 12.2757   6
 -30   5  -3 7.71043 13.3682   9
 -30  25  -3-10.6292 13.7903   9
  25 -30   3 25.9425 10.9337   6
  25 -30  -3 2.12201 10.8846   6
 -30  26   0 2.31559 12.3427   9
  26 -30   0 14.2128 10.2659   6
 -30  26  -1 9.43326 12.4580   9
  26 -30   1-2.40436 9.42670   6
  26 -30  -1-1.23340 10.0632   6
 -31  15   0 9.72544 19.1601   9
 -31  16   0-9.82796 19.8922   9
 -31  15   1 9.10098 18.0779   9
 -31  15  -1 24.5523 20.4806   9
 -31  16   1 16.8822 17.4324   9
 -31  16  -1 19.1520 20.1318   9
 -31  15   2-21.5568 14.5961   9
 -31  16   2-6.80157 15.0425   9
 -31  15  -2-6.15839 19.6294   9
 -31  16  -2-9.81231 19.6782   9
 -31  16   3-1.60592 13.0322   9
 -31  15  -3 41.5395 19.7024   9
 -31  16  -3 19.4401 18.6531   9
 -31  15  -4 18.3629 17.3902   9
 -31  16  -4-16.7511 17.7793   9
 -31  15  -5 1.90656 14.8004   9
 -31  16  -5 9.17379 14.8756   9
 -31  14   0 16.4279 19.5056   9
 -31  17   0 34.4452 19.5370   9
 -31  14   1-9.07266 17.9404   9
 -31  14  -1-18.1773 19.5908   9
 -31  17   1-0.14499 17.0954   9
 -31  17  -1 4.90322 19.4079   9
  17 -31   1 7.40136 11.0529   6
 -31  14   2 11.1209 13.2115   9
 -31  14  -2 1.41709 19.2184   9
 -31  17   2 29.1221 15.7615   9
 -31  17  -2 6.99313 19.6071   9
  17 -31   2 13.7452 11.0271   6
 -31  14  -3-5.75493 18.3144   9
 -31  17   3 2.65883 12.9949   9
 -31  17  -3 8.68419 18.8817   9
  17 -31   3 1.32326 10.4342   6
 -31  14  -4 26.8492 17.6971   9
 -31  17  -4 21.7697 17.1801   9
  17 -31   4 0.55683 9.76979   6
  14 -31  -4 5.30182 9.58644   7
 -31  14  -5 9.09703 15.6086   9
 -31  17  -5 15.7511 14.9866   9
  14 -31  -5 1.28356 8.89316   7
 -31  13   0 7.42581 18.7177   9
 -31  18   0 32.3008 19.4228   9
  18 -31   0-19.5615 10.9769   6
 -31  13   1 30.3454 17.7611   9
 -31  13  -1 26.3865 19.2615   9
 -31  18   1 16.3347 17.1833   9
 -31  18  -1-8.02424 19.8523   9
  18 -31   1 4.30334 9.88189   6
  18 -31  -1 19.6816 11.6249   6
 -31  13   2 17.1571 13.1981   9
 -31  13  -2 18.1269 19.6730   9
 -31  18   2 35.9055 15.2471   9
 -31  18  -2 70.6178 20.5774   9
  18 -31   2 12.0623 10.0730   6
 -31  13  -3 41.9634 19.4626   9
 -31  18   3 26.5416 12.8466   9
 -31  18  -3 18.2075 18.1771   9
  18 -31   3 16.6666 9.23827   6
 -18 -13  -4 10.1851 16.4832  10
 -31  13  -4 36.4278 17.1637   9
 -31  18  -4 50.5103 17.5702   9
  18 -31   4 12.5168 8.76401   6
  13 -31  -4 19.2155 10.2892   7
 -18 -13  -5-19.7040 15.2653  10
 -31  13  -5-8.67991 14.7529   9
 -31  18  -5-11.5759 14.3067   9
  18 -31   5-12.6212 9.12345   6
  13 -31  -5 4.82903 9.37621   7
 -31  12   0 14.5121 17.6589   9
 -31  19   0-4.48898 18.1566   9
  19 -31   0-31.9728 10.8253   6
 -31  12   1 8.35809 17.0227   9
 -31  12  -1 27.6429 19.0605   9
 -31  19   1-8.66989 16.2670   9
 -31  19  -1-5.88356 18.2805   9
  19 -31   1 15.3938 11.8330   6
  19 -31  -1 6.55992 10.1467   6
 -31  12   2-15.8406 12.9660   9
 -31  12  -2 24.4940 18.4481   9
 -31  19   2-3.33781 13.3274   9
 -31  19  -2 24.1625 18.8248   9
  19 -31   2 3.66277 11.7146   6
  19 -31  -2 16.4030 11.2925   6
 -19 -12  -3-6.64056 18.2215  10
 -31  12  -3-13.4818 17.8028   9
 -31  19   3 23.7917 12.4966   9
 -31  19  -3 9.31998 17.1683   9
  19 -31   3 9.61582 11.6374   6
 -19 -12  -4 34.8166 16.8283  10
 -31  12  -4-2.57584 16.1578   9
 -31  19  -4 8.46346 15.4470   9
  19 -31   4 20.6081 10.5115   6
 -19 -12  -5-23.6526 14.9296  10
 -31  12  -5 15.5995 14.8733   9
 -31  19  -5-2.99250 13.5537   9
  19 -31   5-20.3687 8.97538   6
  12 -31  -5 4.06525 9.05166   7
 -31  11   0 25.5036 17.1095   9
 -31  20   0 24.3048 17.6072   9
  20 -31   0 15.6289 12.2399   6
 -31  11   1 5.57877 15.9417   9
 -31  11  -1 14.9867 17.5935   9
 -31  20   1 31.9002 16.0388   9
 -31  20  -1 30.8732 18.4008   9
  20 -31   1 13.8804 12.5616   6
  20 -31  -1 14.0566 11.9500   6
 -31  11   2 62.7377 14.5393   9
 -31  11  -2 19.6367 18.0833   9
 -31  20   2 5.24026 11.7845   9
 -31  20  -2 32.1381 18.5702   9
  20 -31   2 22.4354 12.5007   6
  20 -31  -2 1.17397 9.34057   6
 -20 -11  -3 5.59610 17.3395  10
 -31  11  -3 11.5481 17.2975   9
 -31  20  -3 35.8515 17.1042   9
  20 -31   3 13.6746 11.0790   6
  20 -31  -3-4.20443 10.4590   6
 -20 -11  -4 20.5733 16.1098  10
 -31  11  -4 1.78950 15.1047   9
 -31  20  -4 13.8311 15.2894   9
  20 -31   4-0.00505 10.4356   6
 -20 -11  -5 15.9876 13.9137  10
 -31  11  -5-12.6114 13.2521   9
 -31  20  -5 3.80819 12.9447   9
  20 -31   5 6.66184 8.55805   6
 -31  10   0-9.14123 15.6191   9
 -31  21   0 1.37255 15.8765   9
  21 -31   0-9.11802 12.1525   6
 -31  10   1 18.0633 14.2178   9
 -31  10  -1-5.31114 16.0660   9
 -31  21   1 4.12402 15.0105   9
 -31  21  -1 1.26056 16.2165   9
  21 -31   1 8.38901 12.4458   6
  21 -31  -1 2.11453 12.3331   6
 -31  10   2 14.9196 12.9913   9
 -31  10  -2-0.95608 16.8411   9
 -31  21   2 1.74006 10.4760   9
 -31  21  -2 9.15148 16.5972   9
  21 -31   2 2.40853 11.8889   6
  21 -31  -2 3.82866 10.7869   6
 -21 -10  -3-10.9568 16.9741  10
 -31  10  -3 10.8752 15.9239   9
 -31  21  -3 17.8908 15.2897   9
  21 -31   3-0.63797 11.1168   6
  21 -31  -3-25.3747 9.77246   6
 -21 -10  -4-0.63327 15.1156  10
 -31  10  -4-0.00876 14.0993   9
 -31  21  -4 7.30535 14.2318   9
  21 -31   4 4.05191 9.63069   6
 -21 -10  -5-19.3150 13.7659  10
 -31   9   0 32.8981 15.9483   9
 -31  22   0 12.6346 14.9911   9
  22 -31   0 17.7995 12.2744   6
 -31   9   1-9.35605 12.5413   9
 -31   9  -1 18.9934 16.4442   9
 -31  22   1-2.89671 13.7207   9
 -31  22  -1 14.1280 15.6988   9
  22 -31   1 11.7664 11.8410   6
  22 -31  -1 9.76999 11.7668   6
 -31   9  -2-3.46965 14.9640   9
 -31  22   2-7.12489 12.0337   9
 -31  22  -2-14.5628 16.1956   9
  22 -31   2 14.7731 11.7871   6
  22 -31  -2 17.4643 11.7864   6
 -22  -9  -3-3.28493 15.0531  10
 -31   9  -3 9.74394 14.8355   9
 -31  22  -3-10.7481 15.0950   9
  22 -31   3 5.07196 10.9374   6
  22 -31  -3-12.0722 9.87935   6
 -22  -9  -4 10.7857 14.0800  10
 -31   9  -4 3.74106 13.5928   9
 -31  22  -4 11.4233 12.2288   9
  22 -31   4 14.8844 9.81214   6
 -31   8   0 4.74060 13.8850   9
 -31  23   0 10.4762 13.9707   9
  23 -31   0 4.89481 11.6180   6
 -31   8  -1 25.5843 15.2028   9
 -31  23   1 7.87048 13.2566   9
 -31  23  -1 10.4773 14.2870   9
  23 -31   1 16.6691 11.0767   6
  23 -31  -1 9.94959 11.5568   6
 -31   8  -2-8.40781 14.6371   9
 -31  23  -2-2.10093 14.5544   9
  23 -31   2 1.18459 10.4951   6
  23 -31  -2-7.21041 10.2632   6
 -31   8  -3-9.84960 14.3297   9
 -31  23  -3 9.34270 13.6768   9
  23 -31   3 12.1328 10.0772   6
 -31  24   0 10.2493 12.8007   9
  24 -31   0-7.41110 10.5014   6
 -31   7  -1 1.18621 12.3930   9
 -31  24  -1-1.77112 12.9224   9
  24 -31   1-5.63416 10.3527   6
  24 -31  -1 5.29743 9.91364   6
 -31   7  -2 15.3391 12.5558   9
 -31  24  -2 7.77581 12.4920   9
  24 -31   2 5.74654 9.38332   6
 -32  16   0 18.6031 15.1601   9
 -32  16   1 9.01220 11.6066   9
 -32  16  -1 20.7419 15.6635   9
 -32  16  -2-0.12625 15.5205   9
 -32  16  -3 12.2253 14.3613   9
 -32  16  -4 7.27436 12.3940   9
 -32  15   0 18.3766 14.4722   9
 -32  17   0 43.3814 15.3748   9
 -32  15   1 3.22018 11.4479   9
 -32  15  -1 10.0189 15.2061   9
 -32  17   1 20.7174 12.2000   9
 -32  17  -1 28.0268 15.7355   9
 -32  15  -2 18.5832 15.1743   9
 -32  17  -2 23.6543 15.7516   9
 -32  15  -3 30.0901 15.0432   9
 -32  17  -3 20.2607 14.4088   9
 -32  15  -4 8.93933 13.2650   9
 -32  17  -4 17.6357 13.2907   9
 -32  14   0 33.3117 14.9922   9
 -32  18   0 1.77901 14.3882   9
 -32  14   1 22.3975 12.8416   9
 -32  14  -1 14.7833 15.0753   9
 -32  18   1 6.29756 11.0379   9
 -32  18  -1 7.29142 14.4254   9
 -32  14  -2 12.3949 15.5926   9
 -32  18  -2 19.3503 14.7127   9
 -32  14  -3 7.07108 14.3539   9
 -32  18  -3 8.18854 14.2625   9
 -32  13   0 11.1022 13.6791   9
 -32  19   0 0.65609 14.0244   9
 -32  13  -1 30.5373 14.6697   9
 -32  19   1 8.28005 11.3225   9
 -32  19  -1 16.6434 14.0589   9
 -32  13  -2 25.8209 14.7826   9
 -32  19  -2 0.30233 13.5071   9
 -32  13  -3 26.4740 13.9753   9
 -32  19  -3 23.9408 13.8284   9
 -32  12   0-4.64786 12.4380   9
 -32  20   0-8.11683 13.4821   9
 -32  12  -1-9.24577 13.8244   9
 -32  20  -1 12.0309 13.6791   9
 -32  12  -2-9.85563 13.9396   9
 -32  20  -2 8.85379 14.1024   9
 -32  12  -3-2.88667 13.4330   9
 -32  20  -3 7.30413 12.8675   9
 -32  21   0-0.42918 12.4325   9
 -32  11  -1-23.8890 12.8878   9
 -32  21  -1 19.4922 12.4164   9
 -32  11  -2 6.44945 12.9551   9
 -32  21  -2-4.42747 12.6358   9
   0   0   0    0.00    0.00   0

TITL Trikal_Ho_5_Cu in P6/mmm
REM P6/mmm (#191 in standard setting)
CELL 1.54184  26.515898  26.515898  16.567118  90.0000  90.0000 120.0000
ZERR    9.00   0.000700   0.000700   0.000601   0.0000   0.0000   0.0000
LATT  1
SYMM -y, x-y, z
SYMM -x+y,-x, z
SYMM -x,-y, z
SYMM  y,-x+y, z
SYMM  x-y, x, z
SYMM  y, x,-z
SYMM  x-y,-y,-z
SYMM -x,-x+y,-z
SYMM -y,-x,-z
SYMM -x+y, y,-z
SYMM  x, x-y,-z
SFAC C H N O Ho
UNIT 360.00 180.00 18.00 180.00 18.00
TREF
HKLF 4
END
;
_shelx_hkl_checksum              95415
_shelx_fab_file
;
   -1    2    0    170.94      0.00
    0    2    0   -249.83      0.00
   -1    3    0   -119.22      0.00
    0    3    0     42.17      0.00
   -2    4    0    201.55      0.00
   -1    4    0    -46.81      0.00
    0    4    0    -28.18      0.00
   -2    5    0      9.47      0.00
   -1    5    0     52.31      0.00
    0    5    0     15.28      0.00
   -3    6    0     95.47      0.00
   -2    6    0    -53.22      0.00
   -1    6    0     20.46      0.00
    0    6    0     72.04      0.00
   -3    7    0    -26.26      0.00
   -2    7    0     -7.97      0.00
   -1    7    0      3.39      0.00
    0    7    0     50.27      0.00
   -4    8    0     34.18      0.00
   -3    8    0    -36.54      0.00
   -2    8    0    -18.85      0.00
   -1    8    0     28.61      0.00
    0    8    0     30.58      0.00
   -4    9    0    -10.79      0.00
   -3    9    0     14.14      0.00
   -2    9    0      5.51      0.00
   -1    9    0      2.31      0.00
    0    9    0     14.99      0.00
   -5   10    0     35.50      0.00
   -4   10    0      0.11      0.00
   -3   10    0    -10.34      0.00
   -2   10    0     -2.78      0.00
   -1   10    0      2.58      0.00
    0   10    0      1.47      0.00
   -5   11    0    -17.77      0.00
   -4   11    0      1.53      0.00
   -3   11    0     -0.89      0.00
   -2   11    0    -12.05      0.00
   -1   11    0      4.35      0.00
    0   11    0      7.75      0.00
   -6   12    0     -0.67      0.00
   -5   12    0    -18.72      0.00
   -4   12    0    -17.22      0.00
   -3   12    0    -12.05      0.00
   -2   12    0     -4.52      0.00
   -1   12    0     -4.84      0.00
    0   12    0     -4.94      0.00
   -6   13    0    -15.07      0.00
   -5   13    0     -1.93      0.00
   -4   13    0      1.94      0.00
   -3   13    0    -16.90      0.00
   -2   13    0     -2.25      0.00
   -1   13    0     -6.80      0.00
    0   13    0     -7.31      0.00
   -7   14    0      3.06      0.00
   -6   14    0     -3.83      0.00
   -5   14    0      1.56      0.00
   -4   14    0      6.17      0.00
   -3   14    0     -4.60      0.00
   -2   14    0     -5.10      0.00
   -1   14    0      1.19      0.00
    0   14    0      2.42      0.00
   -7   15    0      3.49      0.00
   -6   15    0      4.32      0.00
   -5   15    0      3.69      0.00
   -4   15    0     -4.85      0.00
   -3   15    0      6.07      0.00
   -2   15    0      2.29      0.00
   -1   15    0      1.11      0.00
    0   15    0      5.17      0.00
   -8   16    0     13.38      0.00
   -7   16    0     -1.11      0.00
   -6   16    0      1.39      0.00
   -5   16    0      3.94      0.00
   -4   16    0     -1.15      0.00
   -3   16    0      3.70      0.00
   -2   16    0      3.43      0.00
   -1   16    0      4.12      0.00
    0   16    0      4.52      0.00
   -8   17    0     -0.39      0.00
   -7   17    0      1.39      0.00
   -6   17    0     -3.68      0.00
   -5   17    0     -6.75      0.00
   -4   17    0      5.96      0.00
   -3   17    0     -0.44      0.00
   -2   17    0      1.21      0.00
   -1   17    0      5.77      0.00
    0   17    0      1.94      0.00
   -9   18    0      2.07      0.00
   -8   18    0     -2.68      0.00
   -7   18    0     -3.97      0.00
   -6   18    0      1.61      0.00
   -5   18    0     -5.80      0.00
   -4   18    0     -1.42      0.00
   -3   18    0      6.18      0.00
   -2   18    0      0.47      0.00
   -1   18    0      1.27      0.00
    0   18    0      5.32      0.00
   -9   19    0      1.72      0.00
   -8   19    0      1.75      0.00
   -7   19    0     -0.91      0.00
   -6   19    0     -4.52      0.00
   -5   19    0      4.55      0.00
   -4   19    0     -2.07      0.00
   -3   19    0      3.35      0.00
   -2   19    0      5.59      0.00
   -1   19    0      2.26      0.00
    0   19    0      4.43      0.00
  -10   20    0      4.74      0.00
   -9   20    0      0.35      0.00
   -8   20    0     -3.66      0.00
   -7   20    0      1.35      0.00
   -6   20    0      0.43      0.00
   -5   20    0     -0.69      0.00
   -4   20    0      5.58      0.00
   -3   20    0      0.84      0.00
   -2   20    0      2.96      0.00
   -1   20    0      6.66      0.00
    0   20    0     -1.12      0.00
  -10   21    0      1.81      0.00
   -9   21    0      2.40      0.00
   -8   21    0     -2.07      0.00
   -7   21    0      1.67      0.00
   -6   21    0      2.56      0.00
   -5   21    0     -1.84      0.00
   -4   21    0      0.98      0.00
   -3   21    0      5.15      0.00
   -2   21    0      1.01      0.00
   -1   21    0      3.02      0.00
    0   21    0      2.99      0.00
  -11   22    0      0.51      0.00
  -10   22    0     -0.04      0.00
   -9   22    0      1.42      0.00
   -8   22    0      1.72      0.00
   -7   22    0      1.06      0.00
   -6   22    0     -0.67      0.00
   -5   22    0      0.28      0.00
   -4   22    0     -1.90      0.00
   -3   22    0      0.04      0.00
   -2   22    0      4.55      0.00
   -1   22    0     -0.38      0.00
    0   22    0     -2.18      0.00
  -11   23    0     -1.39      0.00
  -10   23    0      1.51      0.00
   -9   23    0     -0.41      0.00
   -8   23    0      0.87      0.00
   -7   23    0     -1.60      0.00
   -6   23    0     -1.28      0.00
   -5   23    0      4.51      0.00
   -4   23    0      0.02      0.00
   -3   23    0     -1.41      0.00
   -2   23    0     -0.10      0.00
   -1   23    0     -0.78      0.00
    0   23    0     -0.35      0.00
  -12   24    0      0.72      0.00
  -11   24    0     -0.78      0.00
  -10   24    0     -2.95      0.00
   -9   24    0      3.13      0.00
   -8   24    0      0.62      0.00
   -7   24    0      0.62      0.00
   -6   24    0     -0.43      0.00
   -5   24    0      0.80      0.00
   -4   24    0      2.16      0.00
   -3   24    0      1.74      0.00
   -2   24    0      0.58      0.00
   -1   24    0      0.61      0.00
    0   24    0      0.12      0.00
  -12   25    0     -2.33      0.00
  -11   25    0      0.58      0.00
  -10   25    0      0.00      0.00
   -9   25    0     -0.59      0.00
   -8   25    0     -1.18      0.00
   -7   25    0     -0.51      0.00
   -6   25    0      0.35      0.00
   -5   25    0     -0.58      0.00
   -4   25    0      0.69      0.00
   -3   25    0      2.38      0.00
   -2   25    0      0.69      0.00
   -1   25    0     -1.18      0.00
    0   25    0      1.04      0.00
  -13   26    0     -2.50      0.00
  -12   26    0      0.05      0.00
  -11   26    0      2.51      0.00
  -10   26    0      0.17      0.00
   -9   26    0     -3.72      0.00
   -8   26    0      1.21      0.00
   -7   26    0      0.30      0.00
   -6   26    0     -0.34      0.00
   -5   26    0      0.80      0.00
   -4   26    0     -0.29      0.00
   -3   26    0     -0.50      0.00
   -2   26    0     -0.62      0.00
   -1   26    0     -0.33      0.00
    0   26    0      0.77      0.00
  -13   27    0      1.07      0.00
  -12   27    0     -0.94      0.00
  -11   27    0      0.12      0.00
  -10   27    0      0.50      0.00
   -9   27    0     -0.11      0.00
   -8   27    0     -0.53      0.00
   -7   27    0      0.51      0.00
   -6   27    0      1.09      0.00
   -5   27    0     -1.43      0.00
   -4   27    0      0.30      0.00
   -3   27    0     -0.19      0.00
   -2   27    0     -0.72      0.00
   -1   27    0      0.56      0.00
    0   27    0      1.03      0.00
  -14   28    0     -0.12      0.00
  -13   28    0      0.82      0.00
  -12   28    0     -1.52      0.00
  -11   28    0      1.11      0.00
  -10   28    0     -1.87      0.00
   -9   28    0      0.08      0.00
   -8   28    0      0.16      0.00
   -7   28    0      0.44      0.00
   -6   28    0      0.70      0.00
   -5   28    0     -0.35      0.00
   -4   28    0      0.76      0.00
   -3   28    0     -1.51      0.00
   -2   28    0      0.96      0.00
   -1   28    0      0.48      0.00
  -14   29    0      0.54      0.00
  -13   29    0     -0.72      0.00
  -12   29    0      1.47      0.00
  -11   29    0     -1.31      0.00
  -10   29    0     -0.35      0.00
   -9   29    0      1.01      0.00
   -8   29    0      0.79      0.00
   -7   29    0      0.34      0.00
   -6   29    0      0.08      0.00
   -5   29    0     -1.59      0.00
   -4   29    0     -0.21      0.00
   -3   29    0     -0.31      0.00
  -15   30    0      0.50      0.00
  -14   30    0      0.68      0.00
  -13   30    0      0.01      0.00
  -12   30    0     -0.51      0.00
  -11   30    0     -1.60      0.00
  -10   30    0      0.73      0.00
   -9   30    0     -0.33      0.00
   -8   30    0      0.51      0.00
   -7   30    0     -0.70      0.00
   -6   30    0     -1.28      0.00
   -5   30    0      0.49      0.00
  -15   31    0      0.84      0.00
  -14   31    0      1.02      0.00
  -13   31    0      0.95      0.00
  -12   31    0     -1.12      0.00
  -11   31    0     -0.84      0.00
  -10   31    0      0.01      0.00
   -9   31    0     -0.90      0.00
   -8   31    0      0.81      0.00
  -16   32    0      0.08      0.00
  -15   32    0      1.19      0.00
  -14   32    0      0.31      0.00
  -13   32    0      0.23      0.00
    0    1    1      8.81      0.00
   -1    2    1    -53.93      0.00
    0    2    1     48.28      0.00
   -1    3    1    -73.26      0.00
    0    3    1     61.04      0.00
   -1    4    1     42.01      0.00
    0    4    1    -40.84      0.00
   -1    5    1      8.47      0.00
    0    5    1    -54.80      0.00
   -3    6    1     45.07      0.00
   -2    6    1     29.85      0.00
   -1    6    1    -73.85      0.00
    0    6    1    -24.88      0.00
   -3    7    1    -14.52      0.00
   -2    7    1     32.59      0.00
   -1    7    1      3.18      0.00
    0    7    1    -22.84      0.00
   -4    8    1     -1.91      0.00
   -3    8    1     20.03      0.00
   -2    8    1     -3.51      0.00
   -1    8    1      4.26      0.00
    0    8    1    -16.89      0.00
   -4    9    1     -5.95      0.00
   -2    9    1    -10.69      0.00
   -1    9    1    -10.31      0.00
    0    9    1      4.16      0.00
   -5   10    1     -4.58      0.00
   -4   10    1      3.34      0.00
   -3   10    1     -6.41      0.00
   -2   10    1     -1.21      0.00
   -1   10    1    -14.57      0.00
    0   10    1     -6.70      0.00
   -5   11    1      1.24      0.00
   -4   11    1      8.99      0.00
   -3   11    1     -1.81      0.00
   -2   11    1      1.87      0.00
   -1   11    1      2.99      0.00
    0   11    1     -1.55      0.00
   -6   12    1      0.62      0.00
   -5   12    1     10.82      0.00
   -4   12    1     10.85      0.00
   -3   12    1      9.08      0.00
   -2   12    1      1.99      0.00
   -1   12    1     -3.46      0.00
    0   12    1      8.57      0.00
   -6   13    1      8.03      0.00
   -5   13    1      8.27      0.00
   -4   13    1      0.41      0.00
   -3   13    1      6.02      0.00
   -2   13    1      6.82      0.00
   -1   13    1      6.17      0.00
    0   13    1      1.57      0.00
   -7   14    1      3.99      0.00
   -6   14    1      7.25      0.00
   -5   14    1     -5.88      0.00
   -4   14    1     -5.17      0.00
   -3   14    1      4.16      0.00
   -2   14    1     -0.68      0.00
   -1   14    1      6.99      0.00
    0   14    1      1.40      0.00
   -7   15    1     -3.09      0.00
   -6   15    1     -0.34      0.00
   -5   15    1     -7.11      0.00
   -4   15    1      2.84      0.00
   -3   15    1     -2.36      0.00
   -2   15    1     -0.63      0.00
   -1   15    1     -5.61      0.00
    0   15    1     -2.80      0.00
   -8   16    1     -1.95      0.00
   -7   16    1     -1.58      0.00
   -6   16    1     -1.93      0.00
   -5   16    1      0.22      0.00
   -4   16    1      3.56      0.00
   -3   16    1     -1.82      0.00
   -2   16    1     -0.32      0.00
   -1   16    1     -2.70      0.00
    0   16    1     -4.93      0.00
   -8   17    1     -3.39      0.00
   -7   17    1      4.17      0.00
   -6   17    1     -3.02      0.00
   -5   17    1      4.04      0.00
   -4   17    1      0.05      0.00
   -3   17    1     -2.06      0.00
   -2   17    1     -2.13      0.00
   -1   17    1     -0.20      0.00
    0   17    1     -5.32      0.00
   -9   18    1     -0.50      0.00
   -8   18    1     -0.16      0.00
   -7   18    1      0.18      0.00
   -6   18    1      5.62      0.00
   -5   18    1      2.30      0.00
   -4   18    1     -2.07      0.00
   -3   18    1     -1.34      0.00
   -2   18    1     -3.93      0.00
   -1   18    1     -3.50      0.00
    0   18    1     -2.63      0.00
   -9   19    1     -0.62      0.00
   -8   19    1      3.11      0.00
   -7   19    1      0.91      0.00
   -6   19    1      1.18      0.00
   -5   19    1      0.57      0.00
   -4   19    1     -1.50      0.00
   -3   19    1     -2.76      0.00
   -2   19    1     -1.69      0.00
   -1   19    1     -4.99      0.00
    0   19    1     -2.92      0.00
  -10   20    1     -1.54      0.00
   -9   20    1     -2.95      0.00
   -8   20    1      0.08      0.00
   -7   20    1      1.44      0.00
   -6   20    1     -2.44      0.00
   -5   20    1     -2.07      0.00
   -4   20    1     -0.48      0.00
   -3   20    1     -3.31      0.00
   -2   20    1     -2.96      0.00
   -1   20    1     -1.11      0.00
    0   20    1     -1.27      0.00
  -10   21    1     -2.03      0.00
   -9   21    1      2.14      0.00
   -8   21    1     -1.05      0.00
   -7   21    1     -3.15      0.00
   -6   21    1      0.22      0.00
   -5   21    1      2.28      0.00
   -4   21    1     -3.01      0.00
   -3   21    1      0.53      0.00
   -2   21    1     -3.08      0.00
   -1   21    1     -2.68      0.00
    0   21    1      2.84      0.00
  -11   22    1      3.36      0.00
  -10   22    1     -1.59      0.00
   -9   22    1      0.14      0.00
   -8   22    1     -0.02      0.00
   -7   22    1     -0.28      0.00
   -6   22    1      0.30      0.00
   -5   22    1     -0.39      0.00
   -4   22    1      0.69      0.00
   -3   22    1     -1.45      0.00
   -2   22    1     -3.29      0.00
   -1   22    1      0.99      0.00
    0   22    1      0.71      0.00
  -11   23    1      2.80      0.00
  -10   23    1     -0.60      0.00
   -9   23    1     -2.09      0.00
   -8   23    1     -1.31      0.00
   -7   23    1      0.09      0.00
   -6   23    1     -0.44      0.00
   -5   23    1     -2.34      0.00
   -4   23    1     -0.91      0.00
   -3   23    1      0.48      0.00
   -2   23    1     -0.66      0.00
   -1   23    1      0.42      0.00
    0   23    1     -1.42      0.00
  -12   24    1      1.26      0.00
  -11   24    1      0.74      0.00
  -10   24    1      2.82      0.00
   -9   24    1     -0.80      0.00
   -8   24    1     -4.39      0.00
   -7   24    1     -0.21      0.00
   -6   24    1      1.02      0.00
   -5   24    1     -1.01      0.00
   -4   24    1     -0.43      0.00
   -3   24    1     -0.05      0.00
   -2   24    1      0.03      0.00
   -1   24    1     -0.91      0.00
    0   24    1     -0.43      0.00
  -12   25    1      0.85      0.00
  -11   25    1      1.24      0.00
  -10   25    1      0.08      0.00
   -9   25    1     -0.72      0.00
   -8   25    1      0.37      0.00
   -7   25    1     -0.42      0.00
   -6   25    1     -0.51      0.00
   -5   25    1      0.81      0.00
   -4   25    1     -0.47      0.00
   -3   25    1     -2.33      0.00
   -2   25    1      0.28      0.00
   -1   25    1      1.00      0.00
    0   25    1      0.83      0.00
  -13   26    1      2.62      0.00
  -12   26    1     -0.13      0.00
  -11   26    1      0.24      0.00
  -10   26    1      0.37      0.00
   -9   26    1      2.98      0.00
   -8   26    1      0.94      0.00
   -7   26    1      0.34      0.00
   -6   26    1     -1.61      0.00
   -5   26    1      0.65      0.00
   -4   26    1      0.39      0.00
   -3   26    1     -1.30      0.00
   -2   26    1      1.45      0.00
   -1   26    1     -0.67      0.00
    0   26    1     -0.47      0.00
  -13   27    1     -0.52      0.00
  -12   27    1      1.31      0.00
  -11   27    1     -0.20      0.00
  -10   27    1     -0.22      0.00
   -9   27    1      1.29      0.00
   -8   27    1      0.04      0.00
   -7   27    1     -0.64      0.00
   -6   27    1     -0.08      0.00
   -5   27    1      0.59      0.00
   -4   27    1      0.70      0.00
   -3   27    1     -0.92      0.00
   -2   27    1      0.07      0.00
   -1   27    1      0.22      0.00
    0   27    1      0.69      0.00
  -14   28    1      0.40      0.00
  -13   28    1      0.39      0.00
  -12   28    1     -1.19      0.00
  -11   28    1     -0.76      0.00
  -10   28    1      0.79      0.00
   -9   28    1     -1.51      0.00
   -8   28    1      1.49      0.00
   -7   28    1     -0.66      0.00
   -6   28    1     -0.64      0.00
   -5   28    1      0.60      0.00
   -4   28    1     -0.24      0.00
   -3   28    1      1.01      0.00
   -2   28    1     -0.57      0.00
   -1   28    1     -1.67      0.00
  -14   29    1      1.17      0.00
  -13   29    1     -0.88      0.00
  -12   29    1     -1.15      0.00
  -11   29    1      1.24      0.00
  -10   29    1      1.07      0.00
   -9   29    1     -0.19      0.00
   -8   29    1      0.32      0.00
   -7   29    1      0.13      0.00
   -6   29    1      0.55      0.00
   -5   29    1     -0.88      0.00
   -4   29    1     -0.37      0.00
   -3   29    1     -0.25      0.00
  -15   30    1      0.58      0.00
  -14   30    1      0.01      0.00
  -13   30    1      1.27      0.00
  -12   30    1     -1.18      0.00
  -11   30    1      0.28      0.00
  -10   30    1     -0.27      0.00
   -9   30    1      0.60      0.00
   -8   30    1      0.82      0.00
   -7   30    1      0.40      0.00
   -6   30    1      0.26      0.00
   -5   30    1     -0.57      0.00
  -15   31    1     -0.04      0.00
  -14   31    1      0.79      0.00
  -13   31    1     -0.09      0.00
  -12   31    1      0.34      0.00
  -11   31    1      0.42      0.00
  -10   31    1      0.10      0.00
   -9   31    1     -0.87      0.00
   -8   31    1      1.54      0.00
  -16   32    1      0.35      0.00
  -15   32    1     -0.54      0.00
  -14   32    1      0.40      0.00
  -13   32    1     -0.03      0.00
    0    0    2    242.97      0.00
    0    1    2    -19.71      0.00
   -1    2    2     30.92      0.00
    0    2    2    -63.98      0.00
   -1    3    2     41.22      0.00
    0    3    2      3.72      0.00
   -2    4    2     53.78      0.00
   -1    4    2    -12.88      0.00
    0    4    2    -10.87      0.00
   -2    5    2     -0.61      0.00
   -1    5    2    -53.88      0.00
    0    5    2     -8.39      0.00
   -3    6    2     -5.18      0.00
   -2    6    2    -16.42      0.00
   -1    6    2     16.68      0.00
    0    6    2      7.23      0.00
   -3    7    2      7.20      0.00
   -2    7    2      2.67      0.00
   -1    7    2     23.39      0.00
    0    7    2      8.69      0.00
   -4    8    2      2.32      0.00
   -3    8    2     -1.56      0.00
   -2    8    2     21.21      0.00
   -1    8    2     -7.64      0.00
    0    8    2     -6.90      0.00
   -4    9    2     -4.86      0.00
   -2    9    2      5.84      0.00
   -1    9    2     -8.07      0.00
    0    9    2     -5.34      0.00
   -5   10    2      8.41      0.00
   -4   10    2     -4.61      0.00
   -3   10    2     -1.86      0.00
   -2   10    2     -1.05      0.00
   -1   10    2     14.40      0.00
    0   10    2     11.97      0.00
   -5   11    2     -4.70      0.00
   -4   11    2     -3.61      0.00
   -3   11    2      8.09      0.00
   -2   11    2      2.31      0.00
   -1   11    2      5.72      0.00
    0   11    2     -0.13      0.00
   -6   12    2      0.23      0.00
   -5   12    2     -2.91      0.00
   -4   12    2     -8.80      0.00
   -3   12    2     -2.54      0.00
   -2   12    2      2.42      0.00
   -1   12    2     -6.50      0.00
    0   12    2     -9.31      0.00
   -6   13    2     -7.99      0.00
   -5   13    2     -5.42      0.00
   -4   13    2      5.81      0.00
   -3   13    2     -8.73      0.00
   -2   13    2     -2.46      0.00
   -1   13    2     -4.40      0.00
    0   13    2     -4.15      0.00
   -7   14    2    -13.05      0.00
   -6   14    2     -5.70      0.00
   -5   14    2      2.37      0.00
   -4   14    2      4.72      0.00
   -3   14    2     -0.12      0.00
   -2   14    2     -1.56      0.00
   -1   14    2      2.18      0.00
    0   14    2      2.82      0.00
   -7   15    2      0.64      0.00
   -6   15    2     -0.96      0.00
   -5   15    2      5.88      0.00
   -4   15    2     -3.36      0.00
   -3   15    2      4.15      0.00
   -2   15    2      0.03      0.00
   -1   15    2     -0.42      0.00
    0   15    2      0.30      0.00
   -8   16    2      3.44      0.00
   -7   16    2      3.58      0.00
   -6   16    2      2.50      0.00
   -5   16    2      2.28      0.00
   -4   16    2     -2.79      0.00
   -3   16    2      0.57      0.00
   -2   16    2     -0.03      0.00
   -1   16    2      0.38      0.00
    0   16    2      4.77      0.00
   -8   17    2      4.44      0.00
   -7   17    2     -1.40      0.00
   -6   17    2     -0.08      0.00
   -5   17    2     -2.65      0.00
   -4   17    2      5.38      0.00
   -3   17    2     -0.77      0.00
   -2   17    2      0.41      0.00
   -1   17    2      1.66      0.00
    0   17    2      3.26      0.00
   -9   18    2      1.32      0.00
   -8   18    2      0.02      0.00
   -7   18    2     -1.34      0.00
   -6   18    2      0.87      0.00
   -5   18    2     -1.12      0.00
   -4   18    2      2.20      0.00
   -3   18    2      3.34      0.00
   -2   18    2      0.79      0.00
   -1   18    2      2.74      0.00
    0   18    2      4.14      0.00
   -9   19    2      0.81      0.00
   -8   19    2     -0.60      0.00
   -7   19    2      0.14      0.00
   -6   19    2     -1.80      0.00
   -5   19    2      2.25      0.00
   -4   19    2     -0.08      0.00
   -3   19    2      1.80      0.00
   -2   19    2      1.39      0.00
   -1   19    2      2.37      0.00
    0   19    2      3.83      0.00
  -10   20    2      0.08      0.00
   -9   20    2      0.47      0.00
   -8   20    2     -2.70      0.00
   -7   20    2     -0.46      0.00
   -6   20    2     -0.57      0.00
   -5   20    2     -0.57      0.00
   -4   20    2      1.30      0.00
   -3   20    2      0.09      0.00
   -2   20    2      1.99      0.00
   -1   20    2      0.73      0.00
    0   20    2     -1.64      0.00
  -10   21    2      0.52      0.00
   -9   21    2     -0.97      0.00
   -8   21    2      0.52      0.00
   -7   21    2     -0.02      0.00
   -6   21    2      0.85      0.00
   -5   21    2     -2.49      0.00
   -4   21    2      0.96      0.00
   -3   21    2     -0.25      0.00
   -2   21    2      0.88      0.00
   -1   21    2     -0.21      0.00
    0   21    2     -1.66      0.00
  -11   22    2     -3.16      0.00
  -10   22    2      1.08      0.00
   -9   22    2      1.01      0.00
   -8   22    2      1.02      0.00
   -7   22    2      0.06      0.00
   -6   22    2      0.92      0.00
   -5   22    2      0.02      0.00
   -4   22    2     -0.06      0.00
   -3   22    2      0.23      0.00
   -2   22    2      1.06      0.00
   -1   22    2      0.88      0.00
    0   22    2     -2.27      0.00
  -11   23    2     -1.22      0.00
  -10   23    2      0.66      0.00
   -9   23    2      1.12      0.00
   -8   23    2      0.97      0.00
   -7   23    2     -0.66      0.00
   -6   23    2      0.86      0.00
   -5   23    2      3.76      0.00
   -4   23    2      0.12      0.00
   -3   23    2      0.31      0.00
   -2   23    2     -0.91      0.00
   -1   23    2     -1.58      0.00
    0   23    2      1.52      0.00
  -12   24    2      0.32      0.00
  -11   24    2     -0.47      0.00
  -10   24    2     -2.19      0.00
   -9   24    2      1.61      0.00
   -8   24    2      1.51      0.00
   -7   24    2      0.24      0.00
   -6   24    2     -1.31      0.00
   -5   24    2      2.19      0.00
   -4   24    2      1.65      0.00
   -3   24    2      0.20      0.00
   -2   24    2      0.44      0.00
   -1   24    2      0.30      0.00
    0   24    2      0.73      0.00
  -12   25    2     -1.66      0.00
  -11   25    2      0.09      0.00
  -10   25    2     -0.41      0.00
   -9   25    2     -1.23      0.00
   -8   25    2     -1.21      0.00
   -7   25    2     -0.24      0.00
   -6   25    2      0.37      0.00
   -5   25    2      0.32      0.00
   -4   25    2      1.53      0.00
   -3   25    2      1.97      0.00
   -2   25    2     -0.25      0.00
   -1   25    2     -0.66      0.00
    0   25    2      0.78      0.00
  -13   26    2     -2.68      0.00
  -12   26    2     -0.17      0.00
  -11   26    2      0.05      0.00
  -10   26    2     -0.45      0.00
   -9   26    2     -3.18      0.00
   -8   26    2      0.20      0.00
   -7   26    2      0.59      0.00
   -6   26    2      0.66      0.00
   -5   26    2      0.37      0.00
   -4   26    2     -0.16      0.00
   -3   26    2      0.08      0.00
   -2   26    2     -0.14      0.00
   -1   26    2      0.19      0.00
    0   26    2     -1.28      0.00
  -13   27    2     -0.10      0.00
  -12   27    2     -0.66      0.00
  -11   27    2     -0.53      0.00
  -10   27    2      0.03      0.00
   -9   27    2     -0.08      0.00
   -8   27    2     -0.87      0.00
   -7   27    2     -0.06      0.00
   -6   27    2      0.67      0.00
   -5   27    2     -1.30      0.00
   -4   27    2      0.26      0.00
   -3   27    2      0.95      0.00
   -2   27    2     -0.07      0.00
   -1   27    2      1.12      0.00
    0   27    2     -0.54      0.00
  -14   28    2      0.56      0.00
  -13   28    2      0.68      0.00
  -12   28    2     -0.83      0.00
  -11   28    2      1.87      0.00
  -10   28    2     -0.72      0.00
   -9   28    2     -0.09      0.00
   -8   28    2     -0.21      0.00
   -7   28    2      0.55      0.00
   -6   28    2      0.18      0.00
   -5   28    2      0.11      0.00
   -4   28    2      0.04      0.00
   -3   28    2      0.90      0.00
   -2   28    2      1.52      0.00
   -1   28    2      0.23      0.00
  -14   29    2     -0.43      0.00
  -13   29    2      0.84      0.00
  -12   29    2      0.64      0.00
  -11   29    2     -0.41      0.00
  -10   29    2     -0.14      0.00
   -9   29    2      0.36      0.00
   -8   29    2     -0.19      0.00
   -7   29    2      0.62      0.00
   -6   29    2      0.37      0.00
   -5   29    2     -0.38      0.00
   -4   29    2     -0.38      0.00
   -3   29    2      0.54      0.00
  -15   30    2      0.03      0.00
  -14   30    2     -0.25      0.00
  -13   30    2     -0.74      0.00
  -12   30    2      0.82      0.00
  -11   30    2     -0.51      0.00
  -10   30    2      0.55      0.00
   -9   30    2     -0.28      0.00
   -8   30    2     -0.41      0.00
   -7   30    2     -0.15      0.00
   -6   30    2     -0.75      0.00
   -5   30    2      0.33      0.00
  -15   31    2      0.49      0.00
  -14   31    2      0.52      0.00
  -13   31    2     -0.13      0.00
  -12   31    2     -0.58      0.00
  -11   31    2      0.05      0.00
  -10   31    2      0.03      0.00
   -9   31    2      0.24      0.00
  -16   32    2     -0.14      0.00
  -15   32    2      0.76      0.00
  -14   32    2     -0.38      0.00
    0    0    3     32.68      0.00
    0    1    3     -1.41      0.00
   -1    2    3      1.70      0.00
    0    2    3    -36.56      0.00
   -1    3    3    -39.16      0.00
    0    3    3     43.68      0.00
   -2    4    3     52.23      0.00
   -1    4    3     12.60      0.00
    0    4    3    -46.41      0.00
   -2    5    3     14.60      0.00
   -1    5    3      5.69      0.00
    0    5    3    -20.35      0.00
   -3    6    3     -7.55      0.00
   -2    6    3     12.01      0.00
   -1    6    3    -24.15      0.00
    0    6    3     12.00      0.00
   -3    7    3     -6.98      0.00
   -2    7    3      9.51      0.00
   -1    7    3     15.46      0.00
    0    7    3    -14.12      0.00
   -4    8    3    -11.91      0.00
   -3    8    3      8.83      0.00
   -2    8    3      8.04      0.00
   -1    8    3    -12.14      0.00
    0    8    3    -13.93      0.00
   -4    9    3      5.69      0.00
   -3    9    3      6.59      0.00
   -2    9    3     -1.46      0.00
   -1    9    3     -1.07      0.00
    0    9    3     -7.71      0.00
   -5   10    3     -3.78      0.00
   -4   10    3      1.20      0.00
   -3   10    3      4.58      0.00
   -2   10    3     -1.99      0.00
   -1   10    3      2.97      0.00
    0   10    3      5.96      0.00
   -5   11    3      4.54      0.00
   -4   11    3     -3.52      0.00
   -3   11    3     -2.95      0.00
   -2   11    3      1.07      0.00
   -1   11    3      0.55      0.00
    0   11    3      0.21      0.00
   -6   12    3     -0.01      0.00
   -5   12    3      2.07      0.00
   -4   12    3      0.56      0.00
   -3   12    3      0.37      0.00
   -2   12    3     -1.46      0.00
   -1   12    3     -5.42      0.00
    0   12    3      0.29      0.00
   -6   13    3      5.29      0.00
   -5   13    3      2.86      0.00
   -4   13    3     -3.11      0.00
   -3   13    3     -1.96      0.00
   -2   13    3     -4.44      0.00
   -1   13    3      4.07      0.00
    0   13    3      0.38      0.00
   -7   14    3      4.77      0.00
   -6   14    3      1.54      0.00
   -5   14    3     -0.37      0.00
   -4   14    3     -6.21      0.00
   -3   14    3      0.48      0.00
   -2   14    3      1.16      0.00
   -1   14    3      4.17      0.00
    0   14    3      4.87      0.00
   -7   15    3     -2.77      0.00
   -6   15    3      3.25      0.00
   -5   15    3     -1.49      0.00
   -4   15    3     -1.76      0.00
   -3   15    3     -3.04      0.00
   -2   15    3      3.90      0.00
   -1   15    3     -0.93      0.00
    0   15    3     -1.76      0.00
   -8   16    3      2.38      0.00
   -7   16    3     -1.12      0.00
   -6   16    3     -2.83      0.00
   -5   16    3     -4.45      0.00
   -4   16    3      0.17      0.00
   -3   16    3     -1.34      0.00
   -2   16    3     -0.28      0.00
   -1   16    3      1.31      0.00
    0   16    3      0.05      0.00
   -8   17    3     -1.93      0.00
   -7   17    3      2.19      0.00
   -6   17    3     -2.97      0.00
   -5   17    3     -0.99      0.00
   -4   17    3     -3.11      0.00
   -3   17    3      2.77      0.00
   -2   17    3     -1.12      0.00
   -1   17    3      1.43      0.00
    0   17    3     -2.22      0.00
   -9   18    3      0.54      0.00
   -8   18    3     -4.15      0.00
   -7   18    3      0.83      0.00
   -6   18    3     -0.85      0.00
   -5   18    3      2.30      0.00
   -4   18    3     -2.46      0.00
   -3   18    3     -2.01      0.00
   -2   18    3     -0.09      0.00
   -1   18    3     -4.67      0.00
    0   18    3      0.98      0.00
   -9   19    3     -3.24      0.00
   -8   19    3      0.71      0.00
   -7   19    3     -0.84      0.00
   -6   19    3      3.85      0.00
   -5   19    3     -1.18      0.00
   -4   19    3      0.29      0.00
   -3   19    3     -4.79      0.00
   -2   19    3      1.27      0.00
   -1   19    3     -4.65      0.00
    0   19    3     -2.09      0.00
  -10   20    3      1.00      0.00
   -9   20    3     -0.73      0.00
   -8   20    3      1.39      0.00
   -7   20    3      1.44      0.00
   -6   20    3      1.21      0.00
   -5   20    3     -1.57      0.00
   -4   20    3      1.89      0.00
   -3   20    3     -0.12      0.00
   -2   20    3     -1.30      0.00
   -1   20    3      2.91      0.00
    0   20    3     -0.34      0.00
  -10   21    3      0.29      0.00
   -9   21    3      1.75      0.00
   -8   21    3      0.50      0.00
   -7   21    3     -1.02      0.00
   -6   21    3      0.88      0.00
   -5   21    3      1.14      0.00
   -4   21    3      0.66      0.00
   -3   21    3      2.47      0.00
   -2   21    3     -2.09      0.00
   -1   21    3     -1.85      0.00
    0   21    3      2.35      0.00
  -11   22    3      2.86      0.00
  -10   22    3     -0.67      0.00
   -9   22    3     -2.11      0.00
   -8   22    3      0.25      0.00
   -7   22    3     -0.26      0.00
   -6   22    3     -0.72      0.00
   -5   22    3      0.96      0.00
   -4   22    3      0.12      0.00
   -3   22    3      0.22      0.00
   -2   22    3     -1.04      0.00
   -1   22    3     -1.37      0.00
    0   22    3      1.24      0.00
  -11   23    3     -0.15      0.00
  -10   23    3     -0.36      0.00
   -9   23    3     -2.06      0.00
   -8   23    3      0.60      0.00
   -7   23    3      0.43      0.00
   -6   23    3     -0.67      0.00
   -5   23    3     -2.40      0.00
   -4   23    3     -0.32      0.00
   -3   23    3     -1.61      0.00
   -2   23    3     -0.94      0.00
   -1   23    3      1.46      0.00
    0   23    3     -0.28      0.00
  -12   24    3      2.04      0.00
  -11   24    3     -1.29      0.00
  -10   24    3      1.45      0.00
   -9   24    3     -1.20      0.00
   -8   24    3     -1.89      0.00
   -7   24    3      0.10      0.00
   -6   24    3      0.89      0.00
   -5   24    3     -2.83      0.00
   -4   24    3     -1.64      0.00
   -3   24    3     -0.69      0.00
   -2   24    3     -0.39      0.00
   -1   24    3      0.33      0.00
    0   24    3     -0.50      0.00
  -12   25    3      0.68      0.00
  -11   25    3      0.67      0.00
  -10   25    3     -0.12      0.00
   -9   25    3      0.89      0.00
   -8   25    3      0.91      0.00
   -7   25    3     -0.77      0.00
   -6   25    3     -0.06      0.00
   -5   25    3      0.77      0.00
   -4   25    3     -1.23      0.00
   -3   25    3     -2.17      0.00
   -2   25    3      0.40      0.00
   -1   25    3      1.57      0.00
    0   25    3     -0.65      0.00
  -13   26    3      2.02      0.00
  -12   26    3     -1.12      0.00
  -11   26    3     -0.60      0.00
  -10   26    3      0.75      0.00
   -9   26    3      1.93      0.00
   -8   26    3      0.50      0.00
   -7   26    3      1.24      0.00
   -6   26    3     -1.38      0.00
   -5   26    3      0.14      0.00
   -4   26    3     -0.62      0.00
   -3   26    3     -0.73      0.00
   -2   26    3     -0.42      0.00
   -1   26    3     -0.57      0.00
    0   26    3      0.66      0.00
  -13   27    3     -0.33      0.00
  -12   27    3      0.99      0.00
  -11   27    3      0.15      0.00
  -10   27    3     -1.42      0.00
   -9   27    3      0.96      0.00
   -8   27    3      0.22      0.00
   -7   27    3     -0.67      0.00
   -6   27    3     -0.17      0.00
   -5   27    3      0.78      0.00
   -4   27    3     -0.47      0.00
   -3   27    3     -0.52      0.00
   -2   27    3     -0.32      0.00
   -1   27    3      0.28      0.00
    0   27    3      0.61      0.00
  -14   28    3      0.80      0.00
  -13   28    3     -0.13      0.00
  -12   28    3      0.80      0.00
  -11   28    3     -0.37      0.00
  -10   28    3      0.80      0.00
   -9   28    3     -0.09      0.00
   -8   28    3      0.85      0.00
   -7   28    3     -0.80      0.00
   -6   28    3     -0.70      0.00
   -5   28    3      1.03      0.00
   -4   28    3      0.55      0.00
   -3   28    3      0.73      0.00
   -2   28    3     -0.84      0.00
   -1   28    3      0.10      0.00
  -14   29    3      0.55      0.00
  -13   29    3     -0.54      0.00
  -12   29    3     -0.27      0.00
  -11   29    3      0.72      0.00
  -10   29    3      0.57      0.00
   -9   29    3     -0.74      0.00
   -8   29    3     -0.47      0.00
   -7   29    3      0.57      0.00
   -6   29    3      0.17      0.00
   -5   29    3     -0.23      0.00
   -4   29    3     -0.92      0.00
   -3   29    3     -0.05      0.00
  -15   30    3     -0.20      0.00
  -14   30    3      0.60      0.00
  -13   30    3      1.02      0.00
  -12   30    3     -0.46      0.00
  -11   30    3      0.24      0.00
  -10   30    3     -0.37      0.00
   -9   30    3      0.16      0.00
   -8   30    3     -0.56      0.00
   -7   30    3      0.17      0.00
   -6   30    3     -0.76      0.00
  -15   31    3      0.58      0.00
  -14   31    3      0.42      0.00
  -13   31    3      0.74      0.00
  -12   31    3      0.20      0.00
  -11   31    3      0.74      0.00
  -10   31    3     -0.54      0.00
   -9   31    3     -0.22      0.00
    0    0    4     61.39      0.00
    0    1    4     20.41      0.00
   -1    2    4     -7.21      0.00
    0    2    4    -21.81      0.00
   -1    3    4      1.52      0.00
    0    3    4    -10.46      0.00
   -2    4    4     -8.40      0.00
   -1    4    4     -5.40      0.00
   -2    5    4      5.85      0.00
   -1    5    4     -0.53      0.00
    0    5    4     -1.67      0.00
   -3    6    4     -5.87      0.00
   -2    6    4      1.65      0.00
   -1    6    4     -5.43      0.00
    0    6    4     -9.31      0.00
   -3    7    4     -3.01      0.00
   -2    7    4      7.23      0.00
   -1    7    4      2.86      0.00
    0    7    4    -12.24      0.00
   -4    8    4      3.94      0.00
   -3    8    4      2.68      0.00
   -2    8    4      4.16      0.00
   -1    8    4      1.68      0.00
    0    8    4      4.78      0.00
   -4    9    4      3.81      0.00
   -3    9    4      8.37      0.00
   -2    9    4     -2.56      0.00
   -1    9    4     -3.36      0.00
    0    9    4      5.81      0.00
   -5   10    4      5.02      0.00
   -4   10    4     -2.31      0.00
   -3   10    4     -7.91      0.00
   -2   10    4      0.75      0.00
   -1   10    4      6.64      0.00
    0   10    4     -5.98      0.00
   -5   11    4     -2.52      0.00
   -4   11    4     -1.24      0.00
   -3   11    4      2.08      0.00
   -2   11    4     -1.43      0.00
   -1   11    4      0.93      0.00
    0   11    4     -4.77      0.00
   -6   12    4      3.00      0.00
   -5   12    4      2.68      0.00
   -4   12    4     -7.60      0.00
   -3   12    4      3.78      0.00
   -2   12    4      4.87      0.00
   -1   12    4     -5.59      0.00
    0   12    4      2.15      0.00
   -6   13    4     -1.51      0.00
   -5   13    4      0.04      0.00
   -4   13    4     -2.06      0.00
   -3   13    4     -7.07      0.00
   -2   13    4      4.15      0.00
   -1   13    4      0.65      0.00
    0   13    4     -2.47      0.00
   -7   14    4     -5.24      0.00
   -6   14    4      1.08      0.00
   -5   14    4     -4.23      0.00
   -4   14    4      2.83      0.00
   -3   14    4     -0.58      0.00
   -2   14    4     -5.82      0.00
   -1   14    4      2.77      0.00
    0   14    4      0.15      0.00
   -7   15    4     -0.45      0.00
   -6   15    4      0.46      0.00
   -5   15    4      0.23      0.00
   -4   15    4     -2.90      0.00
   -3   15    4      7.92      0.00
   -2   15    4     -4.94      0.00
   -1   15    4     -3.20      0.00
    0   15    4      0.06      0.00
   -8   16    4     -1.95      0.00
   -7   16    4      2.22      0.00
   -6   16    4     -3.35      0.00
   -5   16    4      3.42      0.00
   -4   16    4     -2.62      0.00
   -3   16    4     -3.62      0.00
   -2   16    4      2.28      0.00
   -1   16    4     -2.42      0.00
    0   16    4      0.79      0.00
   -8   17    4      2.04      0.00
   -7   17    4     -0.01      0.00
   -6   17    4     -0.18      0.00
   -5   17    4     -0.08      0.00
   -4   17    4      5.04      0.00
   -3   17    4     -2.67      0.00
   -2   17    4      0.22      0.00
   -1   17    4      1.37      0.00
    0   17    4     -0.67      0.00
   -9   18    4      1.29      0.00
   -8   18    4      0.95      0.00
   -7   18    4      0.32      0.00
   -6   18    4      3.22      0.00
   -5   18    4      0.13      0.00
   -4   18    4      1.20      0.00
   -3   18    4      2.48      0.00
   -2   18    4     -0.66      0.00
   -1   18    4     -0.98      0.00
    0   18    4      1.63      0.00
   -9   19    4     -2.35      0.00
   -8   19    4      0.42      0.00
   -7   19    4      0.91      0.00
   -6   19    4      0.10      0.00
   -5   19    4      4.12      0.00
   -4   19    4      0.47      0.00
   -3   19    4     -0.19      0.00
   -2   19    4     -0.54      0.00
   -1   19    4      1.21      0.00
    0   19    4      1.55      0.00
  -10   20    4     -0.05      0.00
   -9   20    4      0.35      0.00
   -8   20    4     -3.71      0.00
   -7   20    4      0.96      0.00
   -6   20    4      0.10      0.00
   -5   20    4      0.47      0.00
   -4   20    4      0.56      0.00
   -3   20    4     -0.77      0.00
   -2   20    4      1.51      0.00
   -1   20    4      0.55      0.00
    0   20    4      0.30      0.00
  -10   21    4      0.12      0.00
   -9   21    4     -2.33      0.00
   -8   21    4      1.65      0.00
   -7   21    4     -0.34      0.00
   -6   21    4      2.60      0.00
   -5   21    4     -2.46      0.00
   -4   21    4     -0.13      0.00
   -3   21    4     -1.76      0.00
   -2   21    4      1.01      0.00
   -1   21    4     -1.79      0.00
    0   21    4     -1.38      0.00
  -11   22    4     -1.24      0.00
  -10   22    4      1.24      0.00
   -9   22    4     -0.52      0.00
   -8   22    4      2.10      0.00
   -7   22    4     -0.36      0.00
   -6   22    4      1.83      0.00
   -5   22    4      0.75      0.00
   -4   22    4     -1.05      0.00
   -3   22    4     -1.18      0.00
   -2   22    4      0.32      0.00
   -1   22    4      1.18      0.00
    0   22    4     -2.09      0.00
  -11   23    4     -1.19      0.00
  -10   23    4      0.67      0.00
   -9   23    4      1.67      0.00
   -8   23    4     -0.29      0.00
   -7   23    4      0.61      0.00
   -6   23    4      0.91      0.00
   -5   23    4      1.02      0.00
   -4   23    4      0.21      0.00
   -3   23    4     -0.25      0.00
   -2   23    4     -1.79      0.00
   -1   23    4     -0.29      0.00
    0   23    4      0.33      0.00
  -12   24    4     -0.04      0.00
  -11   24    4     -0.68      0.00
  -10   24    4     -1.00      0.00
   -9   24    4      1.79      0.00
   -8   24    4      0.29      0.00
   -7   24    4     -0.65      0.00
   -6   24    4     -1.40      0.00
   -5   24    4      0.89      0.00
   -4   24    4      0.07      0.00
   -3   24    4      0.51      0.00
   -2   24    4     -0.02      0.00
   -1   24    4     -0.01      0.00
    0   24    4      1.29      0.00
  -12   25    4     -1.56      0.00
  -11   25    4      0.87      0.00
   -9   25    4      0.93      0.00
   -8   25    4     -0.29      0.00
   -7   25    4     -0.40      0.00
   -6   25    4      0.22      0.00
   -5   25    4      0.87      0.00
   -4   25    4      0.81      0.00
   -3   25    4      2.21      0.00
   -2   25    4      0.66      0.00
   -1   25    4     -1.66      0.00
    0   25    4     -0.09      0.00
  -13   26    4     -2.45      0.00
  -12   26    4     -0.06      0.00
  -11   26    4      0.95      0.00
  -10   26    4      0.75      0.00
   -9   26    4     -2.00      0.00
   -8   26    4      0.42      0.00
   -7   26    4      0.47      0.00
   -6   26    4      0.06      0.00
   -5   26    4      0.48      0.00
   -4   26    4      0.98      0.00
   -3   26    4     -0.28      0.00
   -2   26    4     -0.07      0.00
   -1   26    4      0.65      0.00
    0   26    4     -1.82      0.00
  -13   27    4     -0.06      0.00
  -12   27    4     -0.06      0.00
  -11   27    4     -0.15      0.00
  -10   27    4      0.69      0.00
   -9   27    4     -1.40      0.00
   -8   27    4     -1.39      0.00
   -7   27    4     -0.16      0.00
   -6   27    4      0.96      0.00
   -5   27    4     -1.09      0.00
   -4   27    4      0.42      0.00
   -3   27    4      1.56      0.00
   -2   27    4     -0.60      0.00
   -1   27    4      0.65      0.00
    0   27    4     -0.45      0.00
  -14   28    4      0.93      0.00
  -13   28    4      0.98      0.00
  -12   28    4      1.12      0.00
  -11   28    4      0.35      0.00
  -10   28    4     -1.17      0.00
   -9   28    4      0.80      0.00
   -8   28    4     -0.62      0.00
   -7   28    4      0.57      0.00
   -6   28    4      0.13      0.00
   -5   28    4      0.28      0.00
   -4   28    4     -0.17      0.00
   -3   28    4      1.73      0.00
   -2   28    4      0.97      0.00
  -14   29    4      1.14      0.00
  -13   29    4      0.88      0.00
  -12   29    4     -0.49      0.00
  -11   29    4      0.25      0.00
  -10   29    4     -1.16      0.00
   -9   29    4      0.73      0.00
   -8   29    4      0.23      0.00
   -7   29    4      0.10      0.00
   -6   29    4     -0.27      0.00
   -5   29    4      0.11      0.00
   -4   29    4      0.85      0.00
  -15   30    4      1.60      0.00
  -14   30    4      0.01      0.00
  -13   30    4     -0.70      0.00
  -12   30    4      0.62      0.00
  -11   30    4     -0.25      0.00
  -10   30    4      0.59      0.00
   -9   30    4     -0.18      0.00
   -8   30    4      0.15      0.00
   -7   30    4     -0.76      0.00
  -15   31    4      0.67      0.00
  -14   31    4     -0.29      0.00
  -13   31    4     -0.13      0.00
  -12   31    4      0.04      0.00
  -11   31    4     -0.34      0.00
  -10   31    4      0.61      0.00
    0    0    5     63.07      0.00
    0    1    5     -1.90      0.00
   -1    2    5     14.18      0.00
    0    2    5    -24.35      0.00
   -1    3    5    -12.05      0.00
    0    3    5     23.23      0.00
   -2    4    5     43.36      0.00
   -1    4    5      3.83      0.00
    0    4    5    -17.32      0.00
   -2    5    5     -6.01      0.00
   -1    5    5      5.11      0.00
    0    5    5    -10.36      0.00
   -3    6    5     -4.44      0.00
   -2    6    5     -7.46      0.00
   -1    6    5     -4.15      0.00
    0    6    5      8.54      0.00
   -3    7    5      0.14      0.00
   -2    7    5      6.37      0.00
   -1    7    5      4.57      0.00
    0    7    5     -2.82      0.00
   -4    8    5      0.65      0.00
   -3    8    5      3.84      0.00
   -2    8    5     -1.23      0.00
   -1    8    5      2.81      0.00
    0    8    5     -0.57      0.00
   -4    9    5     -4.98      0.00
   -3    9    5     -0.14      0.00
   -2    9    5      0.31      0.00
   -1    9    5     -6.91      0.00
    0    9    5      2.56      0.00
   -5   10    5      1.39      0.00
   -4   10    5     -1.30      0.00
   -3   10    5     -0.77      0.00
   -2   10    5     -0.06      0.00
   -1   10    5      2.12      0.00
    0   10    5     -0.54      0.00
   -5   11    5      2.93      0.00
   -4   11    5      2.03      0.00
   -3   11    5      1.22      0.00
   -2   11    5     -2.26      0.00
   -1   11    5      0.76      0.00
    0   11    5      6.94      0.00
   -6   12    5      4.52      0.00
   -5   12    5     -2.78      0.00
   -4   12    5     -0.12      0.00
   -3   12    5      0.23      0.00
   -2   12    5     -1.81      0.00
   -1   12    5     -3.32      0.00
    0   12    5      0.31      0.00
   -6   13    5     -4.92      0.00
   -5   13    5     -4.59      0.00
   -4   13    5     -1.14      0.00
   -3   13    5     -1.07      0.00
   -2   13    5     -2.75      0.00
   -1   13    5      1.20      0.00
    0   13    5     -0.54      0.00
   -7   14    5      3.11      0.00
   -6   14    5     -3.35      0.00
   -5   14    5     -2.10      0.00
   -4   14    5     -0.71      0.00
   -3   14    5      0.65      0.00
   -2   14    5      0.43      0.00
   -1   14    5     -0.10      0.00
    0   14    5      1.48      0.00
   -7   15    5      0.34      0.00
   -6   15    5      1.52      0.00
   -5   15    5      0.94      0.00
   -4   15    5     -0.02      0.00
   -3   15    5     -2.93      0.00
   -2   15    5      0.68      0.00
   -1   15    5      0.00      0.00
    0   15    5      0.81      0.00
   -8   16    5      6.96      0.00
   -7   16    5     -3.17      0.00
   -6   16    5     -0.90      0.00
   -5   16    5      0.40      0.00
   -4   16    5      0.28      0.00
   -3   16    5     -3.14      0.00
   -2   16    5     -1.45      0.00
   -1   16    5      0.63      0.00
    0   16    5     -0.58      0.00
   -8   17    5     -2.49      0.00
   -7   17    5      2.24      0.00
   -6   17    5     -0.45      0.00
   -5   17    5      1.34      0.00
   -4   17    5     -0.68      0.00
   -3   17    5      2.55      0.00
   -2   17    5     -0.92      0.00
   -1   17    5      2.18      0.00
    0   17    5     -2.16      0.00
   -9   18    5      2.71      0.00
   -8   18    5     -2.33      0.00
   -7   18    5      0.69      0.00
   -6   18    5     -0.78      0.00
   -5   18    5      0.16      0.00
   -4   18    5     -0.87      0.00
   -3   18    5     -0.17      0.00
   -2   18    5      0.76      0.00
   -1   18    5     -0.77      0.00
    0   18    5      1.28      0.00
   -9   19    5     -1.85      0.00
   -8   19    5      2.50      0.00
   -7   19    5     -2.30      0.00
   -6   19    5      0.90      0.00
   -5   19    5      0.59      0.00
   -4   19    5     -0.77      0.00
   -3   19    5     -1.04      0.00
   -2   19    5      3.21      0.00
   -1   19    5     -2.75      0.00
    0   19    5     -1.35      0.00
  -10   20    5      1.57      0.00
   -9   20    5     -0.80      0.00
   -8   20    5      0.47      0.00
   -7   20    5      1.24      0.00
   -6   20    5      1.64      0.00
   -5   20    5     -0.10      0.00
   -4   20    5      1.41      0.00
   -3   20    5     -0.11      0.00
   -2   20    5     -0.28      0.00
   -1   20    5      1.48      0.00
    0   20    5     -0.14      0.00
  -10   21    5     -0.83      0.00
   -9   21    5      1.94      0.00
   -8   21    5     -2.11      0.00
   -7   21    5      0.08      0.00
   -6   21    5      0.31      0.00
   -5   21    5      0.10      0.00
   -4   21    5     -0.16      0.00
   -3   21    5      2.05      0.00
   -2   21    5     -0.89      0.00
   -1   21    5      0.83      0.00
    0   21    5      1.14      0.00
  -11   22    5      2.17      0.00
  -10   22    5     -1.03      0.00
   -9   22    5     -1.71      0.00
   -8   22    5     -1.96      0.00
   -7   22    5     -1.44      0.00
   -6   22    5     -2.07      0.00
   -5   22    5      0.25      0.00
   -4   22    5      0.38      0.00
   -3   22    5      0.77      0.00
   -2   22    5      0.13      0.00
   -1   22    5     -0.05      0.00
    0   22    5      2.05      0.00
  -11   23    5     -1.47      0.00
  -10   23    5      0.54      0.00
   -9   23    5     -1.42      0.00
   -8   23    5     -0.45      0.00
   -7   23    5     -0.55      0.00
   -6   23    5     -0.56      0.00
   -5   23    5     -1.41      0.00
   -4   23    5      0.12      0.00
   -3   23    5     -0.51      0.00
   -2   23    5      0.23      0.00
   -1   23    5      0.50      0.00
    0   23    5     -0.90      0.00
  -12   24    5      1.24      0.00
  -11   24    5      0.83      0.00
  -10   24    5      1.00      0.00
   -9   24    5     -1.30      0.00
   -8   24    5     -0.17      0.00
   -7   24    5      0.52      0.00
   -6   24    5      0.77      0.00
   -5   24    5     -0.86      0.00
   -4   24    5     -0.77      0.00
   -3   24    5     -0.21      0.00
   -2   24    5     -0.10      0.00
   -1   24    5     -0.01      0.00
    0   24    5     -0.91      0.00
  -12   25    5      2.11      0.00
  -11   25    5      0.54      0.00
  -10   25    5      0.09      0.00
   -9   25    5      0.43      0.00
   -8   25    5      0.91      0.00
   -7   25    5      0.29      0.00
   -6   25    5      0.27      0.00
   -5   25    5      0.41      0.00
   -4   25    5     -0.68      0.00
   -3   25    5     -1.73      0.00
   -2   25    5      0.05      0.00
   -1   25    5      0.95      0.00
    0   25    5     -0.05      0.00
  -13   26    5      1.33      0.00
  -12   26    5     -0.35      0.00
  -11   26    5     -1.50      0.00
  -10   26    5     -1.01      0.00
   -9   26    5      2.14      0.00
   -8   26    5     -0.03      0.00
   -7   26    5     -0.24      0.00
   -6   26    5     -1.05      0.00
   -5   26    5     -0.44      0.00
   -4   26    5     -1.17      0.00
   -3   26    5     -0.16      0.00
   -2   26    5      0.36      0.00
   -1   26    5     -0.46      0.00
    0   26    5      1.02      0.00
  -13   27    5     -0.78      0.00
  -12   27    5      0.43      0.00
  -11   27    5      0.12      0.00
  -10   27    5     -2.11      0.00
   -9   27    5      1.58      0.00
   -8   27    5      0.82      0.00
   -7   27    5     -1.05      0.00
   -6   27    5     -1.01      0.00
   -5   27    5      0.50      0.00
   -4   27    5      0.06      0.00
   -3   27    5     -0.61      0.00
   -2   27    5     -0.23      0.00
   -1   27    5      0.24      0.00
    0   27    5      1.04      0.00
  -14   28    5     -0.10      0.00
  -13   28    5      0.22      0.00
  -12   28    5     -0.53      0.00
  -11   28    5     -1.23      0.00
  -10   28    5      1.02      0.00
   -9   28    5      0.37      0.00
   -8   28    5      0.25      0.00
   -7   28    5     -0.50      0.00
   -6   28    5      0.22      0.00
   -5   28    5     -0.14      0.00
   -4   28    5      0.17      0.00
   -3   28    5     -0.38      0.00
   -2   28    5     -0.65      0.00
  -14   29    5     -0.79      0.00
  -13   29    5     -1.31      0.00
  -12   29    5     -0.75      0.00
  -11   29    5     -0.16      0.00
  -10   29    5      0.58      0.00
   -9   29    5     -1.09      0.00
   -8   29    5      0.59      0.00
   -7   29    5     -0.38      0.00
   -6   29    5     -0.18      0.00
   -5   29    5     -0.18      0.00
  -15   30    5     -0.97      0.00
  -14   30    5      0.02      0.00
  -13   30    5     -0.45      0.00
  -12   30    5     -0.45      0.00
  -11   30    5      0.46      0.00
  -10   30    5     -0.48      0.00
   -9   30    5     -0.32      0.00
   -8   30    5     -0.52      0.00
  -15   31    5      0.44      0.00
  -14   31    5      0.02      0.00
  -13   31    5     -0.60      0.00
  -12   31    5      0.73      0.00
    0    0    6     24.14      0.00
    0    1    6      6.31      0.00
   -1    2    6      0.52      0.00
    0    2    6     -2.89      0.00
   -1    3    6     -5.30      0.00
    0    3    6     -4.16      0.00
   -2    4    6      9.10      0.00
   -1    4    6     -1.55      0.00
    0    4    6     -2.85      0.00
   -2    5    6      1.74      0.00
   -1    5    6      4.74      0.00
    0    5    6    -12.93      0.00
   -3    6    6      9.12      0.00
   -2    6    6     -6.94      0.00
   -1    6    6     -0.97      0.00
    0    6    6      6.54      0.00
   -3    7    6     -8.54      0.00
   -2    7    6      8.50      0.00
   -1    7    6      3.03      0.00
    0    7    6     -0.11      0.00
   -4    8    6      1.92      0.00
   -3    8    6      2.78      0.00
   -2    8    6     -0.42      0.00
   -1    8    6      0.35      0.00
    0    8    6     -6.31      0.00
   -4    9    6     -0.74      0.00
   -3    9    6      1.79      0.00
   -2    9    6     -3.61      0.00
   -1    9    6     -2.78      0.00
    0    9    6      4.00      0.00
   -5   10    6      0.56      0.00
   -4   10    6     -1.18      0.00
   -3   10    6      0.72      0.00
   -2   10    6      2.68      0.00
   -1   10    6      1.16      0.00
    0   10    6     -0.27      0.00
   -4   11    6      1.17      0.00
   -3   11    6      1.57      0.00
   -2   11    6      3.51      0.00
   -1   11    6     -1.34      0.00
    0   11    6     -2.16      0.00
   -6   12    6      0.49      0.00
   -5   12    6      0.10      0.00
   -4   12    6     -0.94      0.00
   -3   12    6      3.18      0.00
   -2   12    6      0.56      0.00
   -1   12    6     -2.48      0.00
    0   12    6     -0.10      0.00
   -6   13    6      0.30      0.00
   -5   13    6      1.03      0.00
   -4   13    6      0.89      0.00
   -3   13    6     -1.14      0.00
   -2   13    6      2.83      0.00
   -1   13    6      1.86      0.00
    0   13    6      4.20      0.00
   -7   14    6     -3.50      0.00
   -6   14    6      3.41      0.00
   -5   14    6      2.19      0.00
   -4   14    6      3.71      0.00
   -3   14    6      1.32      0.00
   -2   14    6      0.18      0.00
   -1   14    6      1.79      0.00
    0   14    6      1.29      0.00
   -7   15    6      0.68      0.00
   -6   15    6      1.03      0.00
   -5   15    6      1.28      0.00
   -4   15    6      0.60      0.00
   -3   15    6      0.93      0.00
   -2   15    6     -0.32      0.00
   -1   15    6     -2.38      0.00
    0   15    6     -0.05      0.00
   -8   16    6      1.97      0.00
   -7   16    6      2.12      0.00
   -6   16    6     -0.65      0.00
   -5   16    6     -1.40      0.00
   -4   16    6     -0.02      0.00
   -3   16    6      0.47      0.00
   -2   16    6      1.21      0.00
   -1   16    6     -0.75      0.00
    0   16    6     -0.27      0.00
   -8   17    6      3.20      0.00
   -7   17    6     -0.69      0.00
   -6   17    6      0.00      0.00
   -5   17    6     -1.82      0.00
   -4   17    6      2.16      0.00
   -3   17    6      0.22      0.00
   -2   17    6     -0.04      0.00
   -1   17    6      2.94      0.00
    0   17    6      0.59      0.00
   -9   18    6     -2.22      0.00
   -8   18    6      1.84      0.00
   -7   18    6     -1.68      0.00
   -6   18    6      1.14      0.00
   -5   18    6     -0.70      0.00
   -4   18    6      0.13      0.00
   -3   18    6      0.52      0.00
   -2   18    6     -2.49      0.00
   -1   18    6     -1.27      0.00
    0   18    6     -1.51      0.00
   -9   19    6     -0.95      0.00
   -8   19    6     -0.16      0.00
   -7   19    6      2.53      0.00
   -6   19    6     -2.10      0.00
   -5   19    6      3.48      0.00
   -4   19    6     -2.55      0.00
   -3   19    6     -0.35      0.00
   -2   19    6     -0.51      0.00
   -1   19    6      0.65      0.00
    0   19    6     -0.31      0.00
  -10   20    6      1.41      0.00
   -9   20    6      0.71      0.00
   -8   20    6     -1.58      0.00
   -7   20    6      1.95      0.00
   -6   20    6     -0.15      0.00
   -5   20    6      0.72      0.00
   -4   20    6      0.96      0.00
   -3   20    6     -0.45      0.00
   -2   20    6      0.75      0.00
   -1   20    6      0.02      0.00
    0   20    6      0.13      0.00
  -10   21    6     -0.04      0.00
   -9   21    6     -1.04      0.00
   -8   21    6      1.62      0.00
   -7   21    6      0.83      0.00
   -6   21    6      0.41      0.00
   -5   21    6     -1.36      0.00
   -4   21    6      1.20      0.00
   -3   21    6     -0.03      0.00
   -2   21    6     -0.61      0.00
   -1   21    6     -0.38      0.00
    0   21    6     -0.21      0.00
  -11   22    6     -0.16      0.00
  -10   22    6     -1.08      0.00
   -9   22    6      1.33      0.00
   -8   22    6      2.32      0.00
   -7   22    6     -0.17      0.00
   -6   22    6      0.83      0.00
   -5   22    6      0.22      0.00
   -4   22    6     -1.46      0.00
   -3   22    6      0.19      0.00
   -2   22    6      1.24      0.00
   -1   22    6      1.30      0.00
    0   22    6     -1.79      0.00
  -11   23    6     -0.01      0.00
  -10   23    6      0.14      0.00
   -9   23    6      1.86      0.00
   -8   23    6     -0.28      0.00
   -7   23    6      0.09      0.00
   -6   23    6     -0.13      0.00
   -5   23    6      1.16      0.00
   -4   23    6      0.32      0.00
   -3   23    6      1.54      0.00
   -2   23    6      0.59      0.00
   -1   23    6     -0.89      0.00
    0   23    6     -0.13      0.00
  -12   24    6      0.89      0.00
  -11   24    6     -0.17      0.00
  -10   24    6     -1.65      0.00
   -9   24    6      0.89      0.00
   -8   24    6      0.11      0.00
   -7   24    6     -0.36      0.00
   -6   24    6     -0.74      0.00
   -5   24    6      1.43      0.00
   -4   24    6      1.19      0.00
   -3   24    6      0.94      0.00
   -2   24    6      0.28      0.00
   -1   24    6     -0.37      0.00
    0   24    6      0.99      0.00
  -12   25    6     -0.15      0.00
  -11   25    6     -1.07      0.00
  -10   25    6     -0.26      0.00
   -9   25    6      0.42      0.00
   -8   25    6     -0.69      0.00
   -7   25    6      0.32      0.00
   -6   25    6     -0.03      0.00
   -5   25    6     -0.34      0.00
   -4   25    6      0.44      0.00
   -3   25    6      0.05      0.00
   -2   25    6     -0.62      0.00
   -1   25    6     -0.63      0.00
    0   25    6      0.15      0.00
  -13   26    6     -0.45      0.00
  -12   26    6      0.37      0.00
  -11   26    6     -0.13      0.00
  -10   26    6     -0.70      0.00
   -9   26    6     -0.53      0.00
   -8   26    6      0.09      0.00
   -7   26    6     -0.22      0.00
   -6   26    6      0.06      0.00
   -5   26    6     -0.67      0.00
   -4   26    6     -0.06      0.00
   -3   26    6      0.08      0.00
   -2   26    6     -0.16      0.00
   -1   26    6      0.12      0.00
    0   26    6      0.40      0.00
  -13   27    6      0.30      0.00
  -12   27    6     -0.47      0.00
  -11   27    6      0.41      0.00
  -10   27    6      1.48      0.00
   -9   27    6     -0.07      0.00
   -8   27    6     -0.55      0.00
   -7   27    6     -0.79      0.00
   -6   27    6      0.16      0.00
   -5   27    6     -0.83      0.00
   -4   27    6      0.36      0.00
   -3   27    6      0.58      0.00
   -2   27    6      0.75      0.00
   -1   27    6     -0.10      0.00
  -14   28    6     -0.95      0.00
  -13   28    6      0.77      0.00
  -12   28    6     -0.54      0.00
  -11   28    6     -0.19      0.00
  -10   28    6     -0.41      0.00
   -9   28    6     -0.35      0.00
   -8   28    6     -0.57      0.00
   -7   28    6     -0.05      0.00
   -6   28    6      0.13      0.00
   -5   28    6     -0.22      0.00
   -4   28    6      0.01      0.00
   -3   28    6     -0.73      0.00
  -14   29    6      0.32      0.00
  -13   29    6     -0.47      0.00
  -12   29    6     -0.41      0.00
  -11   29    6      0.01      0.00
  -10   29    6     -0.63      0.00
   -9   29    6      0.12      0.00
   -8   29    6      0.60      0.00
   -7   29    6      0.64      0.00
   -6   29    6      0.11      0.00
  -15   30    6      1.04      0.00
  -14   30    6     -0.11      0.00
  -13   30    6      0.01      0.00
  -12   30    6      0.89      0.00
  -11   30    6      0.22      0.00
  -10   30    6      0.05      0.00
   -9   30    6      0.66      0.00
    0    0    7     26.09      0.00
    0    1    7     -5.15      0.00
   -1    2    7     -0.09      0.00
    0    2    7    -11.53      0.00
   -1    3    7     -3.47      0.00
    0    3    7      2.80      0.00
   -2    4    7     15.81      0.00
   -1    4    7      1.88      0.00
    0    4    7     -2.17      0.00
   -2    5    7      1.22      0.00
   -1    5    7      3.20      0.00
    0    5    7     -3.07      0.00
   -3    6    7      0.27      0.00
   -2    6    7     -2.03      0.00
   -1    6    7     -0.86      0.00
    0    6    7    -10.13      0.00
   -3    7    7     -2.14      0.00
   -2    7    7     -2.48      0.00
    0    7    7    -12.62      0.00
   -3    8    7     -1.61      0.00
   -2    8    7     -0.52      0.00
   -1    8    7     -0.68      0.00
    0    8    7      3.38      0.00
   -4    9    7     -6.40      0.00
   -3    9    7      1.21      0.00
   -2    9    7      3.04      0.00
   -1    9    7      0.14      0.00
    0    9    7      5.45      0.00
   -5   10    7      1.32      0.00
   -3   10    7     -2.64      0.00
   -2   10    7     -0.11      0.00
   -1   10    7      3.61      0.00
    0   10    7     -3.18      0.00
   -4   11    7     -2.63      0.00
   -3   11    7     -3.15      0.00
   -2   11    7     -3.78      0.00
   -1   11    7     -0.43      0.00
    0   11    7     -0.60      0.00
   -6   12    7      3.93      0.00
   -5   12    7     -0.05      0.00
   -3   12    7     -1.76      0.00
   -2   12    7      1.24      0.00
   -1   12    7     -1.80      0.00
    0   12    7      3.15      0.00
   -6   13    7     -1.35      0.00
   -5   13    7     -2.36      0.00
   -4   13    7     -1.02      0.00
   -3   13    7     -2.75      0.00
   -2   13    7      2.26      0.00
   -1   13    7     -0.57      0.00
    0   13    7      1.64      0.00
   -7   14    7     -0.12      0.00
   -6   14    7     -1.08      0.00
   -5   14    7     -1.31      0.00
   -4   14    7      0.44      0.00
   -3   14    7      2.02      0.00
   -2   14    7     -0.85      0.00
   -1   14    7      1.12      0.00
    0   14    7     -0.88      0.00
   -7   15    7     -0.45      0.00
   -6   15    7      1.35      0.00
   -5   15    7     -0.62      0.00
   -4   15    7     -0.31      0.00
   -3   15    7     -3.27      0.00
   -2   15    7      0.55      0.00
   -1   15    7     -2.13      0.00
    0   15    7      0.41      0.00
   -8   16    7      1.94      0.00
   -7   16    7     -2.92      0.00
   -6   16    7     -0.10      0.00
   -5   16    7     -0.02      0.00
   -4   16    7      0.93      0.00
   -3   16    7     -2.60      0.00
   -2   16    7      0.77      0.00
   -1   16    7      1.17      0.00
    0   16    7     -1.38      0.00
   -8   17    7      0.34      0.00
   -7   17    7     -1.32      0.00
   -6   17    7     -0.76      0.00
   -5   17    7      0.64      0.00
   -4   17    7     -2.60      0.00
   -3   17    7      0.14      0.00
   -2   17    7     -0.21      0.00
   -1   17    7      0.54      0.00
    0   17    7     -0.95      0.00
   -9   18    7     -2.14      0.00
   -8   18    7      1.35      0.00
   -7   18    7      0.02      0.00
   -6   18    7     -0.89      0.00
   -5   18    7      0.53      0.00
   -4   18    7     -0.24      0.00
   -3   18    7     -0.33      0.00
   -2   18    7     -2.60      0.00
   -1   18    7     -1.64      0.00
    0   18    7     -0.84      0.00
   -9   19    7      1.25      0.00
   -8   19    7      1.04      0.00
   -7   19    7     -0.68      0.00
   -6   19    7      0.41      0.00
   -5   19    7     -0.47      0.00
   -4   19    7      0.31      0.00
   -3   19    7      0.57      0.00
   -2   19    7     -1.33      0.00
   -1   19    7     -1.97      0.00
    0   19    7     -1.26      0.00
  -10   20    7     -1.89      0.00
   -9   20    7      0.23      0.00
   -8   20    7      0.36      0.00
   -7   20    7     -1.35      0.00
   -6   20    7      0.04      0.00
   -5   20    7      0.02      0.00
   -4   20    7      0.72      0.00
   -3   20    7     -0.11      0.00
   -2   20    7     -2.12      0.00
   -1   20    7     -0.19      0.00
    0   20    7      0.74      0.00
  -10   21    7     -0.26      0.00
   -9   21    7      1.38      0.00
   -8   21    7     -2.45      0.00
   -7   21    7     -0.29      0.00
   -6   21    7     -1.71      0.00
   -5   21    7      0.82      0.00
   -4   21    7     -1.60      0.00
   -3   21    7      0.45      0.00
   -2   21    7      0.29      0.00
   -1   21    7      1.34      0.00
    0   21    7      1.38      0.00
  -11   22    7      1.47      0.00
  -10   22    7      0.37      0.00
   -9   22    7     -0.22      0.00
   -8   22    7     -1.44      0.00
   -7   22    7     -0.58      0.00
   -6   22    7     -1.33      0.00
   -5   22    7      0.60      0.00
   -4   22    7      0.23      0.00
   -3   22    7     -0.15      0.00
   -2   22    7      0.55      0.00
   -1   22    7      0.60      0.00
    0   22    7      0.98      0.00
  -11   23    7     -0.65      0.00
  -10   23    7      0.41      0.00
   -9   23    7     -1.18      0.00
   -8   23    7     -0.95      0.00
   -7   23    7      0.17      0.00
   -6   23    7     -0.27      0.00
   -5   23    7     -1.99      0.00
   -4   23    7      0.35      0.00
   -3   23    7     -0.49      0.00
   -2   23    7      0.21      0.00
   -1   23    7     -0.15      0.00
    0   23    7     -1.30      0.00
  -12   24    7      0.02      0.00
  -11   24    7      0.47      0.00
  -10   24    7      0.39      0.00
   -9   24    7     -0.91      0.00
   -8   24    7     -0.72      0.00
   -7   24    7      0.15      0.00
   -6   24    7      0.51      0.00
   -5   24    7     -1.29      0.00
   -4   24    7     -1.34      0.00
   -3   24    7      0.36      0.00
   -2   24    7     -0.80      0.00
   -1   24    7      0.26      0.00
    0   24    7     -0.51      0.00
  -12   25    7      0.78      0.00
  -11   25    7      0.66      0.00
  -10   25    7     -0.36      0.00
   -9   25    7     -0.07      0.00
   -8   25    7      0.65      0.00
   -7   25    7      0.03      0.00
   -6   25    7     -0.43      0.00
   -5   25    7      0.02      0.00
   -4   25    7     -2.30      0.00
   -3   25    7     -2.31      0.00
   -2   25    7      0.33      0.00
   -1   25    7     -0.35      0.00
    0   25    7      0.70      0.00
  -13   26    7      0.45      0.00
  -12   26    7     -0.49      0.00
  -11   26    7     -0.64      0.00
  -10   26    7     -0.49      0.00
   -9   26    7      0.92      0.00
   -8   26    7      0.85      0.00
   -7   26    7     -0.01      0.00
   -6   26    7     -0.48      0.00
   -5   26    7      0.05      0.00
   -4   26    7     -0.64      0.00
   -3   26    7     -1.05      0.00
   -2   26    7      0.27      0.00
   -1   26    7     -0.48      0.00
    0   26    7      0.84      0.00
  -13   27    7     -0.41      0.00
  -12   27    7     -0.21      0.00
  -11   27    7     -0.59      0.00
  -10   27    7     -1.31      0.00
   -9   27    7      2.22      0.00
   -8   27    7      0.69      0.00
   -7   27    7      0.26      0.00
   -6   27    7     -0.09      0.00
   -5   27    7      0.15      0.00
   -4   27    7      0.27      0.00
   -3   27    7      0.00      0.00
   -2   27    7      0.67      0.00
  -14   28    7      0.16      0.00
  -13   28    7      0.56      0.00
  -12   28    7     -1.05      0.00
  -11   28    7     -0.82      0.00
  -10   28    7      0.08      0.00
   -9   28    7      0.20      0.00
   -8   28    7     -0.05      0.00
   -7   28    7     -0.68      0.00
   -6   28    7      1.00      0.00
   -5   28    7     -0.64      0.00
   -4   28    7      0.65      0.00
  -14   29    7      1.34      0.00
  -13   29    7     -0.60      0.00
  -12   29    7      0.30      0.00
  -11   29    7      0.32      0.00
  -10   29    7      0.68      0.00
   -9   29    7     -0.70      0.00
   -8   29    7      0.44      0.00
   -7   29    7     -0.65      0.00
  -15   30    7      1.04      0.00
  -14   30    7      0.83      0.00
  -13   30    7      0.37      0.00
  -12   30    7     -0.44      0.00
    0    0    8     11.73      0.00
    0    1    8      1.54      0.00
   -1    2    8      7.33      0.00
    0    2    8     -4.05      0.00
   -1    3    8     -6.99      0.00
    0    3    8      8.93      0.00
   -2    4    8      2.79      0.00
   -1    4    8     -2.66      0.00
    0    4    8      0.88      0.00
   -2    5    8      0.82      0.00
    0    5    8     -0.21      0.00
   -3    6    8      2.61      0.00
   -2    6    8      0.32      0.00
   -1    6    8     -0.66      0.00
    0    6    8      9.03      0.00
   -3    7    8     -3.47      0.00
   -2    7    8      5.02      0.00
    0    7    8      4.43      0.00
   -4    8    8     -1.59      0.00
   -3    8    8      1.53      0.00
   -2    8    8      3.75      0.00
   -1    8    8     -0.78      0.00
    0    8    8      1.26      0.00
   -4    9    8     -0.46      0.00
   -3    9    8      0.99      0.00
   -2    9    8      0.04      0.00
   -1    9    8     -0.98      0.00
    0    9    8     -5.02      0.00
   -5   10    8     -0.34      0.00
   -4   10    8     -1.67      0.00
   -3   10    8      0.08      0.00
   -2   10    8      0.23      0.00
   -1   10    8      3.07      0.00
    0   10    8      2.62      0.00
   -5   11    8      2.74      0.00
   -4   11    8      0.00      0.00
   -3   11    8      1.48      0.00
   -2   11    8      1.23      0.00
   -1   11    8     -1.23      0.00
    0   11    8      0.65      0.00
   -6   12    8      4.43      0.00
   -5   12    8      0.21      0.00
   -4   12    8     -2.88      0.00
   -3   12    8      2.03      0.00
   -2   12    8      0.65      0.00
   -1   12    8      0.06      0.00
    0   12    8     -0.19      0.00
   -6   13    8      2.31      0.00
   -5   13    8      1.12      0.00
   -4   13    8     -1.95      0.00
   -3   13    8     -0.21      0.00
   -2   13    8      1.73      0.00
   -1   13    8      1.12      0.00
    0   13    8      0.76      0.00
   -7   14    8      2.65      0.00
   -6   14    8     -0.40      0.00
   -5   14    8      0.27      0.00
   -4   14    8      1.68      0.00
   -3   14    8      1.04      0.00
   -2   14    8      1.89      0.00
   -1   14    8      1.08      0.00
    0   14    8     -0.42      0.00
   -7   15    8      0.99      0.00
   -6   15    8      2.91      0.00
   -5   15    8     -0.29      0.00
   -4   15    8      0.16      0.00
   -3   15    8      0.79      0.00
   -2   15    8     -1.07      0.00
   -1   15    8     -1.83      0.00
    0   15    8      2.33      0.00
   -8   16    8      3.21      0.00
   -7   16    8     -0.19      0.00
   -6   16    8      0.11      0.00
   -5   16    8      2.21      0.00
   -4   16    8      0.07      0.00
   -3   16    8      2.33      0.00
   -2   16    8      2.10      0.00
   -1   16    8     -0.73      0.00
    0   16    8     -0.41      0.00
   -8   17    8      1.08      0.00
   -7   17    8      0.77      0.00
   -6   17    8      0.10      0.00
   -5   17    8     -1.70      0.00
   -4   17    8      2.65      0.00
   -3   17    8      0.21      0.00
   -2   17    8      0.08      0.00
   -1   17    8      1.96      0.00
    0   17    8      0.77      0.00
   -9   18    8      1.21      0.00
   -8   18    8     -0.15      0.00
   -7   18    8     -1.29      0.00
   -6   18    8      0.65      0.00
   -5   18    8     -1.24      0.00
   -4   18    8     -0.10      0.00
   -3   18    8      0.71      0.00
   -2   18    8     -0.12      0.00
   -1   18    8      0.42      0.00
    0   18    8      0.13      0.00
   -9   19    8     -0.61      0.00
   -8   19    8      1.04      0.00
   -7   19    8      0.60      0.00
   -6   19    8     -2.05      0.00
   -5   19    8      1.74      0.00
   -4   19    8     -1.73      0.00
   -3   19    8     -0.31      0.00
   -2   19    8     -0.31      0.00
   -1   19    8      0.55      0.00
    0   19    8      2.00      0.00
  -10   20    8      0.34      0.00
   -9   20    8     -0.44      0.00
   -8   20    8     -0.83      0.00
   -7   20    8     -0.28      0.00
   -6   20    8      0.03      0.00
   -5   20    8      1.53      0.00
   -4   20    8     -0.24      0.00
   -3   20    8     -0.62      0.00
   -2   20    8      1.06      0.00
   -1   20    8     -0.13      0.00
    0   20    8     -0.14      0.00
  -10   21    8      0.96      0.00
   -9   21    8     -0.38      0.00
   -8   21    8      1.15      0.00
   -7   21    8     -0.19      0.00
   -6   21    8      0.53      0.00
   -5   21    8     -0.93      0.00
   -4   21    8      2.43      0.00
   -3   21    8     -0.21      0.00
   -2   21    8     -0.52      0.00
   -1   21    8      0.16      0.00
    0   21    8     -0.99      0.00
  -11   22    8     -0.79      0.00
  -10   22    8      0.29      0.00
   -9   22    8      2.19      0.00
   -8   22    8      1.83      0.00
   -7   22    8     -0.20      0.00
   -6   22    8      1.04      0.00
   -5   22    8      0.12      0.00
   -4   22    8     -1.09      0.00
   -3   22    8      1.36      0.00
   -2   22    8     -0.21      0.00
   -1   22    8      0.00      0.00
    0   22    8     -0.39      0.00
  -11   23    8      0.19      0.00
  -10   23    8      0.18      0.00
   -9   23    8      2.07      0.00
   -8   23    8      0.29      0.00
   -7   23    8      0.08      0.00
   -6   23    8      0.26      0.00
   -5   23    8      1.36      0.00
   -4   23    8     -1.06      0.00
   -3   23    8     -0.11      0.00
   -2   23    8      0.48      0.00
   -1   23    8     -0.58      0.00
    0   23    8      1.97      0.00
  -12   24    8      0.72      0.00
  -11   24    8     -0.14      0.00
  -10   24    8     -0.19      0.00
   -9   24    8      0.70      0.00
   -8   24    8      0.34      0.00
   -7   24    8      0.20      0.00
   -6   24    8      0.18      0.00
   -5   24    8      0.64      0.00
   -4   24    8      1.35      0.00
   -3   24    8      0.26      0.00
   -2   24    8      0.13      0.00
   -1   24    8     -0.10      0.00
    0   24    8      0.79      0.00
  -12   25    8     -0.11      0.00
  -11   25    8     -0.50      0.00
  -10   25    8     -0.87      0.00
   -9   25    8     -0.08      0.00
   -8   25    8     -0.36      0.00
   -7   25    8      0.51      0.00
   -6   25    8      0.37      0.00
   -5   25    8     -0.61      0.00
   -4   25    8      1.15      0.00
   -3   25    8      0.22      0.00
   -2   25    8     -0.39      0.00
   -1   25    8      0.00      0.00
    0   25    8     -1.22      0.00
  -13   26    8     -0.73      0.00
  -12   26    8     -0.28      0.00
  -11   26    8     -0.13      0.00
  -10   26    8      0.30      0.00
   -9   26    8     -1.31      0.00
   -8   26    8     -0.16      0.00
   -7   26    8      0.78      0.00
   -6   26    8      1.01      0.00
   -5   26    8     -0.06      0.00
   -4   26    8      0.31      0.00
   -3   26    8      0.52      0.00
   -2   26    8     -0.76      0.00
   -1   26    8      0.49      0.00
  -13   27    8     -0.79      0.00
  -12   27    8      0.50      0.00
  -11   27    8      0.64      0.00
  -10   27    8      1.16      0.00
   -9   27    8     -0.08      0.00
   -8   27    8     -0.30      0.00
   -7   27    8      0.59      0.00
   -6   27    8      0.32      0.00
   -5   27    8     -0.09      0.00
   -4   27    8     -0.02      0.00
   -3   27    8      0.66      0.00
  -14   28    8      0.01      0.00
  -13   28    8      0.14      0.00
  -12   28    8     -0.49      0.00
  -11   28    8      0.70      0.00
  -10   28    8      0.00      0.00
   -9   28    8     -0.49      0.00
   -8   28    8     -0.64      0.00
   -7   28    8     -0.41      0.00
   -6   28    8     -0.14      0.00
  -14   29    8     -0.08      0.00
  -13   29    8      0.61      0.00
  -12   29    8     -0.63      0.00
  -11   29    8      0.42      0.00
  -10   29    8      0.15      0.00
    0    0    9      3.43      0.00
    0    1    9     -0.01      0.00
   -1    2    9     -4.70      0.00
    0    2    9     -7.00      0.00
   -1    3    9      0.04      0.00
    0    3    9     -2.46      0.00
   -2    4    9      4.03      0.00
   -1    4    9     -1.45      0.00
    0    4    9     -3.75      0.00
   -2    5    9     -0.97      0.00
   -1    5    9     -0.72      0.00
    0    5    9      4.97      0.00
   -3    6    9     -3.98      0.00
   -2    6    9     -2.16      0.00
   -1    6    9      1.59      0.00
    0    6    9      9.36      0.00
   -3    7    9     -1.35      0.00
   -2    7    9      1.65      0.00
   -1    7    9      2.03      0.00
    0    7    9     -1.07      0.00
   -4    8    9      1.69      0.00
   -3    8    9     -2.45      0.00
   -2    8    9     -3.11      0.00
   -1    8    9      2.04      0.00
    0    8    9      3.35      0.00
   -4    9    9     -2.07      0.00
   -3    9    9      0.20      0.00
   -2    9    9     -0.90      0.00
   -1    9    9     -2.05      0.00
    0    9    9      3.06      0.00
   -5   10    9     -0.64      0.00
   -4   10    9     -0.77      0.00
   -3   10    9     -2.33      0.00
   -2   10    9      0.90      0.00
   -1   10    9     -1.78      0.00
    0   10    9     -2.97      0.00
   -5   11    9      1.80      0.00
   -4   11    9     -0.77      0.00
   -3   11    9      0.59      0.00
   -2   11    9     -1.26      0.00
   -1   11    9     -0.15      0.00
    0   11    9     -5.69      0.00
   -6   12    9      1.95      0.00
   -5   12    9     -0.15      0.00
   -4   12    9     -1.12      0.00
   -3   12    9     -0.08      0.00
   -2   12    9     -0.92      0.00
   -1   12    9      0.44      0.00
    0   12    9      1.19      0.00
   -6   13    9     -0.52      0.00
   -5   13    9     -1.20      0.00
   -4   13    9     -0.94      0.00
   -3   13    9      0.29      0.00
   -2   13    9     -0.37      0.00
   -1   13    9     -1.82      0.00
    0   13    9      1.37      0.00
   -7   14    9     -1.14      0.00
   -6   14    9     -0.74      0.00
   -5   14    9     -0.37      0.00
   -4   14    9     -1.12      0.00
   -3   14    9     -0.43      0.00
   -2   14    9     -0.72      0.00
   -1   14    9      0.57      0.00
    0   14    9     -1.25      0.00
   -7   15    9      1.56      0.00
   -6   15    9     -0.91      0.00
   -5   15    9      1.17      0.00
   -4   15    9     -0.05      0.00
   -3   15    9      0.56      0.00
   -2   15    9     -2.08      0.00
   -1   15    9      0.41      0.00
    0   15    9     -0.39      0.00
   -8   16    9      1.09      0.00
   -7   16    9      0.01      0.00
   -6   16    9     -3.45      0.00
   -5   16    9      1.02      0.00
   -4   16    9      1.17      0.00
   -3   16    9     -0.64      0.00
   -2   16    9     -0.38      0.00
   -1   16    9     -0.13      0.00
    0   16    9      2.18      0.00
   -8   17    9     -0.32      0.00
   -6   17    9     -2.50      0.00
   -5   17    9      0.29      0.00
   -4   17    9     -1.47      0.00
   -3   17    9      0.48      0.00
   -2   17    9      0.31      0.00
   -1   17    9     -1.68      0.00
    0   17    9     -1.53      0.00
   -9   18    9     -0.32      0.00
   -8   18    9     -1.97      0.00
   -7   18    9     -1.94      0.00
   -6   18    9     -2.02      0.00
   -5   18    9      0.02      0.00
   -4   18    9      0.15      0.00
   -3   18    9      0.79      0.00
   -2   18    9     -0.44      0.00
   -1   18    9     -2.87      0.00
    0   18    9     -0.82      0.00
   -9   19    9      2.15      0.00
   -8   19    9     -0.50      0.00
   -7   19    9     -1.96      0.00
   -6   19    9      1.78      0.00
   -5   19    9     -0.87      0.00
   -4   19    9      1.38      0.00
   -3   19    9     -0.60      0.00
   -2   19    9      0.25      0.00
   -1   19    9     -0.62      0.00
    0   19    9     -1.07      0.00
  -10   20    9     -0.91      0.00
   -9   20    9      0.03      0.00
   -8   20    9      0.21      0.00
   -7   20    9      0.07      0.00
   -6   20    9      1.10      0.00
   -5   20    9     -1.22      0.00
   -4   20    9     -0.27      0.00
   -3   20    9      0.99      0.00
   -2   20    9     -1.73      0.00
   -1   20    9     -0.08      0.00
    0   20    9      1.53      0.00
  -10   21    9     -0.75      0.00
   -9   21    9     -0.02      0.00
   -8   21    9     -0.59      0.00
   -7   21    9      0.21      0.00
   -6   21    9     -0.01      0.00
   -5   21    9      0.12      0.00
   -4   21    9     -1.24      0.00
   -3   21    9      0.21      0.00
   -2   21    9     -0.34      0.00
   -1   21    9     -0.45      0.00
    0   21    9      1.30      0.00
  -11   22    9      0.22      0.00
  -10   22    9      0.22      0.00
   -9   22    9     -1.02      0.00
   -8   22    9     -0.76      0.00
   -7   22    9     -0.71      0.00
   -6   22    9     -1.28      0.00
   -5   22    9      0.64      0.00
   -4   22    9      1.96      0.00
   -3   22    9     -0.54      0.00
   -2   22    9      0.07      0.00
   -1   22    9     -0.55      0.00
    0   22    9     -0.37      0.00
  -11   23    9     -0.52      0.00
  -10   23    9      0.30      0.00
   -9   23    9     -1.22      0.00
   -8   23    9     -0.25      0.00
   -7   23    9     -0.67      0.00
   -6   23    9     -0.54      0.00
   -5   23    9     -0.93      0.00
   -4   23    9      1.35      0.00
   -3   23    9     -0.51      0.00
   -2   23    9      0.66      0.00
   -1   23    9      0.76      0.00
    0   23    9     -1.30      0.00
  -12   24    9     -0.55      0.00
  -11   24    9     -0.07      0.00
  -10   24    9      0.76      0.00
   -9   24    9     -0.47      0.00
   -8   24    9      0.84      0.00
   -7   24    9      0.08      0.00
   -6   24    9     -0.33      0.00
   -5   24    9     -0.56      0.00
   -4   24    9     -0.96      0.00
   -3   24    9      0.23      0.00
   -2   24    9      0.38      0.00
   -1   24    9      0.38      0.00
    0   24    9      0.56      0.00
  -12   25    9      0.03      0.00
  -11   25    9      1.01      0.00
  -10   25    9      0.00      0.00
   -9   25    9      0.23      0.00
   -8   25    9      0.94      0.00
   -7   25    9     -0.49      0.00
   -6   25    9      0.36      0.00
   -5   25    9      0.57      0.00
   -4   25    9     -1.37      0.00
   -3   25    9     -0.65      0.00
   -2   25    9      0.94      0.00
   -1   25    9     -0.21      0.00
    0   25    9      0.47      0.00
  -13   26    9      0.24      0.00
  -12   26    9      0.17      0.00
  -11   26    9     -0.07      0.00
  -10   26    9      0.10      0.00
   -9   26    9      0.76      0.00
   -8   26    9      0.28      0.00
   -7   26    9     -0.21      0.00
   -6   26    9     -0.34      0.00
   -5   26    9     -0.07      0.00
   -4   26    9      0.94      0.00
   -3   26    9     -0.27      0.00
  -13   27    9     -0.12      0.00
  -12   27    9      0.34      0.00
  -11   27    9     -0.39      0.00
  -10   27    9     -0.83      0.00
   -9   27    9      1.06      0.00
   -8   27    9      0.22      0.00
   -7   27    9     -0.33      0.00
   -6   27    9     -0.18      0.00
   -5   27    9     -0.03      0.00
  -14   28    9     -0.43      0.00
  -13   28    9     -0.26      0.00
  -12   28    9      0.68      0.00
  -11   28    9      0.43      0.00
  -10   28    9      0.42      0.00
   -9   28    9     -0.25      0.00
   -8   28    9      0.68      0.00
    0    0   10      9.35      0.00
    0    1   10     -2.03      0.00
   -1    2   10      2.84      0.00
    0    2   10     -3.80      0.00
   -1    3   10     -3.57      0.00
    0    3   10      3.77      0.00
   -2    4   10      2.44      0.00
   -1    4   10      1.30      0.00
    0    4   10      1.68      0.00
   -2    5   10     -0.05      0.00
    0    5   10      2.02      0.00
   -3    6   10      3.78      0.00
   -2    6   10      0.67      0.00
   -1    6   10      0.42      0.00
    0    6   10     -0.03      0.00
   -3    7   10      0.22      0.00
   -2    7   10      0.74      0.00
   -1    7   10     -0.37      0.00
    0    7   10      3.91      0.00
   -4    8   10      0.11      0.00
   -3    8   10      0.76      0.00
   -2    8   10      0.93      0.00
   -1    8   10     -1.08      0.00
    0    8   10     -1.79      0.00
   -4    9   10     -1.08      0.00
   -3    9   10     -0.16      0.00
   -2    9   10      0.78      0.00
   -1    9   10     -0.17      0.00
    0    9   10     -0.67      0.00
   -5   10   10     -0.32      0.00
   -4   10   10      0.98      0.00
   -3   10   10     -1.74      0.00
   -2   10   10      1.28      0.00
   -1   10   10      1.44      0.00
    0   10   10      0.18      0.00
   -5   11   10     -0.44      0.00
   -4   11   10      3.47      0.00
   -3   11   10      0.95      0.00
   -2   11   10     -0.18      0.00
   -1   11   10     -0.38      0.00
    0   11   10      4.95      0.00
   -6   12   10      4.47      0.00
   -5   12   10      0.71      0.00
   -4   12   10      1.76      0.00
   -3   12   10      0.77      0.00
   -2   12   10     -0.18      0.00
   -1   12   10     -1.37      0.00
    0   12   10      1.75      0.00
   -6   13   10     -0.75      0.00
   -5   13   10      3.44      0.00
   -4   13   10     -0.62      0.00
   -3   13   10      0.08      0.00
   -2   13   10     -1.24      0.00
   -1   13   10      5.11      0.00
    0   13   10     -1.48      0.00
   -7   14   10      0.62      0.00
   -6   14   10     -0.01      0.00
   -5   14   10     -1.40      0.00
   -4   14   10     -0.10      0.00
   -3   14   10      0.73      0.00
   -2   14   10     -1.35      0.00
   -1   14   10      0.62      0.00
    0   14   10      0.26      0.00
   -7   15   10      0.10      0.00
   -6   15   10     -0.99      0.00
   -5   15   10     -0.36      0.00
   -4   15   10     -0.37      0.00
   -3   15   10      2.80      0.00
   -2   15   10     -0.07      0.00
   -1   15   10     -1.44      0.00
    0   15   10      0.24      0.00
   -8   16   10     -0.87      0.00
   -7   16   10      1.27      0.00
   -6   16   10     -1.25      0.00
   -5   16   10      1.02      0.00
   -4   16   10      0.23      0.00
   -3   16   10      1.57      0.00
   -2   16   10      2.49      0.00
   -1   16   10     -1.23      0.00
    0   16   10     -0.78      0.00
   -8   17   10      1.60      0.00
   -7   17   10     -0.89      0.00
   -6   17   10     -0.32      0.00
   -5   17   10      0.91      0.00
   -4   17   10      1.96      0.00
   -3   17   10      0.24      0.00
   -2   17   10     -0.39      0.00
   -1   17   10      1.59      0.00
    0   17   10      1.59      0.00
   -9   18   10      2.15      0.00
   -8   18   10      0.93      0.00
   -7   18   10      0.62      0.00
   -6   18   10     -0.85      0.00
   -5   18   10     -0.41      0.00
   -4   18   10      0.06      0.00
   -3   18   10      0.00      0.00
   -2   18   10     -0.74      0.00
   -1   18   10      1.50      0.00
    0   18   10      3.34      0.00
   -9   19   10     -0.46      0.00
   -8   19   10      0.33      0.00
   -7   19   10     -0.07      0.00
   -6   19   10     -0.71      0.00
   -5   19   10      0.97      0.00
   -4   19   10     -1.00      0.00
   -3   19   10     -0.67      0.00
   -2   19   10      0.71      0.00
   -1   19   10     -1.19      0.00
    0   19   10      1.41      0.00
  -10   20   10     -1.70      0.00
   -9   20   10     -0.08      0.00
   -8   20   10      0.10      0.00
   -7   20   10     -0.41      0.00
   -6   20   10      0.51      0.00
   -5   20   10      0.63      0.00
   -4   20   10      0.20      0.00
   -3   20   10     -1.63      0.00
   -2   20   10      1.36      0.00
   -1   20   10      0.19      0.00
    0   20   10     -2.19      0.00
  -10   21   10      0.35      0.00
   -9   21   10      0.47      0.00
   -8   21   10      1.55      0.00
   -7   21   10     -0.64      0.00
   -6   21   10      1.70      0.00
   -5   21   10     -1.65      0.00
   -4   21   10      0.69      0.00
   -3   21   10      1.07      0.00
   -2   21   10     -0.75      0.00
   -1   21   10      0.42      0.00
    0   21   10     -0.49      0.00
  -11   22   10     -0.53      0.00
  -10   22   10     -0.03      0.00
   -9   22   10      0.43      0.00
   -8   22   10      1.80      0.00
   -7   22   10     -0.82      0.00
   -6   22   10     -0.01      0.00
   -5   22   10      0.60      0.00
   -4   22   10     -1.62      0.00
   -3   22   10      0.70      0.00
   -2   22   10      0.35      0.00
   -1   22   10     -0.71      0.00
    0   22   10      0.66      0.00
  -11   23   10     -0.63      0.00
  -10   23   10      0.22      0.00
   -9   23   10     -0.22      0.00
   -8   23   10     -1.31      0.00
   -7   23   10      0.72      0.00
   -6   23   10     -0.40      0.00
   -5   23   10      0.59      0.00
   -4   23   10     -0.01      0.00
   -3   23   10     -0.20      0.00
   -2   23   10      0.02      0.00
   -1   23   10     -0.91      0.00
    0   23   10      1.68      0.00
  -12   24   10      0.87      0.00
  -11   24   10      0.00      0.00
  -10   24   10     -0.84      0.00
   -9   24   10      1.75      0.00
   -8   24   10     -0.19      0.00
   -7   24   10     -0.24      0.00
   -6   24   10      0.54      0.00
   -5   24   10     -0.24      0.00
   -4   24   10      1.41      0.00
   -3   24   10     -1.52      0.00
   -2   24   10      0.49      0.00
   -1   24   10      0.10      0.00
    0   24   10      0.79      0.00
  -12   25   10      0.58      0.00
  -11   25   10      0.42      0.00
  -10   25   10     -0.12      0.00
   -9   25   10     -0.22      0.00
   -8   25   10      1.10      0.00
   -7   25   10     -0.78      0.00
   -6   25   10      0.30      0.00
   -5   25   10     -0.47      0.00
   -4   25   10      1.03      0.00
   -3   25   10      0.66      0.00
   -2   25   10     -0.56      0.00
  -13   26   10      0.32      0.00
  -12   26   10     -0.16      0.00
  -11   26   10     -0.75      0.00
  -10   26   10      1.04      0.00
   -9   26   10     -0.70      0.00
   -8   26   10     -0.23      0.00
   -7   26   10      0.01      0.00
   -6   26   10     -0.05      0.00
   -5   26   10      0.09      0.00
   -4   26   10     -0.69      0.00
  -13   27   10      0.10      0.00
  -12   27   10      0.15      0.00
  -11   27   10      0.56      0.00
  -10   27   10      1.32      0.00
   -9   27   10     -0.84      0.00
   -8   27   10     -0.19      0.00
   -7   27   10      0.41      0.00
  -14   28   10      0.70      0.00
  -13   28   10     -0.17      0.00
    0    0   11      2.83      0.00
    0    1   11     -1.64      0.00
   -1    2   11     -1.13      0.00
    0    2   11      0.96      0.00
   -1    3   11     -0.87      0.00
    0    3   11     -1.35      0.00
   -2    4   11      1.17      0.00
   -1    4   11      3.73      0.00
    0    4   11     -0.02      0.00
   -2    5   11      1.51      0.00
   -1    5   11     -0.74      0.00
    0    5   11     -1.21      0.00
   -3    6   11      3.88      0.00
   -2    6   11     -1.49      0.00
   -1    6   11     -0.13      0.00
    0    6   11      0.53      0.00
   -3    7   11     -3.16      0.00
   -2    7   11      1.00      0.00
   -1    7   11      1.88      0.00
    0    7   11     -2.64      0.00
   -4    8   11      1.83      0.00
   -3    8   11     -0.33      0.00
   -2    8   11     -3.71      0.00
   -1    8   11     -1.12      0.00
    0    8   11     -3.58      0.00
   -4    9   11     -1.69      0.00
   -3    9   11     -0.23      0.00
   -2    9   11      1.15      0.00
   -1    9   11     -8.52      0.00
    0    9   11     -0.02      0.00
   -5   10   11     -0.74      0.00
   -4   10   11      1.49      0.00
   -3   10   11     -0.41      0.00
   -2   10   11     -1.21      0.00
   -1   10   11     -2.29      0.00
    0   10   11     -3.03      0.00
   -5   11   11     -1.06      0.00
   -4   11   11      0.15      0.00
   -3   11   11      0.18      0.00
   -2   11   11     -2.17      0.00
   -1   11   11      2.36      0.00
    0   11   11     -1.67      0.00
   -6   12   11      2.53      0.00
   -5   12   11     -0.01      0.00
   -4   12   11      0.55      0.00
   -3   12   11     -1.30      0.00
   -2   12   11      0.19      0.00
   -1   12   11     -0.94      0.00
    0   12   11     -1.18      0.00
   -6   13   11      0.12      0.00
   -4   13   11      0.33      0.00
   -3   13   11      0.30      0.00
   -2   13   11      1.90      0.00
   -1   13   11     -1.92      0.00
    0   13   11     -0.13      0.00
   -7   14   11     -0.25      0.00
   -6   14   11     -1.08      0.00
   -5   14   11     -0.63      0.00
   -3   14   11     -1.32      0.00
   -2   14   11     -0.93      0.00
   -1   14   11      0.93      0.00
    0   14   11     -0.76      0.00
   -7   15   11     -1.41      0.00
   -6   15   11     -1.06      0.00
   -5   15   11     -1.13      0.00
   -4   15   11     -1.85      0.00
   -3   15   11      1.26      0.00
   -2   15   11     -1.64      0.00
   -1   15   11      0.36      0.00
    0   15   11     -1.23      0.00
   -8   16   11      1.71      0.00
   -7   16   11     -0.35      0.00
   -6   16   11     -1.48      0.00
   -5   16   11      0.95      0.00
   -4   16   11     -0.13      0.00
   -3   16   11      0.06      0.00
   -2   16   11     -0.59      0.00
   -1   16   11     -1.53      0.00
    0   16   11      1.10      0.00
   -8   17   11     -0.54      0.00
   -7   17   11      0.82      0.00
   -6   17   11     -0.45      0.00
   -5   17   11      0.11      0.00
   -4   17   11      0.71      0.00
   -3   17   11      0.07      0.00
   -2   17   11     -0.16      0.00
   -1   17   11     -1.29      0.00
    0   17   11      0.77      0.00
   -9   18   11     -0.18      0.00
   -8   18   11     -1.03      0.00
   -7   18   11     -0.03      0.00
   -6   18   11      0.97      0.00
   -5   18   11     -0.36      0.00
   -4   18   11     -0.14      0.00
   -3   18   11     -0.36      0.00
   -2   18   11     -0.57      0.00
   -1   18   11     -0.15      0.00
    0   18   11     -1.67      0.00
   -9   19   11      0.25      0.00
   -8   19   11     -0.13      0.00
   -7   19   11     -0.91      0.00
   -6   19   11      1.76      0.00
   -5   19   11      1.00      0.00
   -4   19   11      0.35      0.00
   -3   19   11      0.23      0.00
   -2   19   11     -0.14      0.00
   -1   19   11     -0.19      0.00
    0   19   11     -0.35      0.00
  -10   20   11      0.00      0.00
   -9   20   11     -0.27      0.00
   -8   20   11      0.12      0.00
   -7   20   11      0.64      0.00
   -6   20   11      1.35      0.00
   -5   20   11     -0.09      0.00
   -4   20   11      0.29      0.00
   -3   20   11      0.83      0.00
   -2   20   11     -0.42      0.00
   -1   20   11     -0.19      0.00
    0   20   11      1.28      0.00
  -10   21   11      0.70      0.00
   -9   21   11     -0.22      0.00
   -8   21   11     -1.86      0.00
   -7   21   11     -0.15      0.00
   -6   21   11     -1.15      0.00
   -5   21   11      0.12      0.00
   -4   21   11     -0.57      0.00
   -3   21   11      0.12      0.00
   -2   21   11      0.23      0.00
   -1   21   11      0.86      0.00
    0   21   11     -0.39      0.00
  -11   22   11      1.00      0.00
  -10   22   11      0.04      0.00
   -9   22   11     -0.32      0.00
   -8   22   11     -1.25      0.00
   -7   22   11     -1.01      0.00
   -6   22   11     -0.72      0.00
   -5   22   11      0.46      0.00
   -4   22   11      0.98      0.00
   -3   22   11     -0.83      0.00
   -2   22   11     -0.20      0.00
   -1   22   11     -1.14      0.00
    0   22   11      0.35      0.00
  -11   23   11      0.23      0.00
  -10   23   11      0.50      0.00
   -9   23   11     -0.32      0.00
   -8   23   11      0.82      0.00
   -7   23   11     -0.15      0.00
   -6   23   11     -0.03      0.00
   -5   23   11      0.38      0.00
   -4   23   11      0.24      0.00
   -3   23   11     -0.02      0.00
   -2   23   11      0.54      0.00
   -1   23   11      1.03      0.00
    0   23   11     -0.17      0.00
  -12   24   11     -0.42      0.00
  -11   24   11      0.27      0.00
  -10   24   11      0.54      0.00
   -9   24   11      0.29      0.00
   -8   24   11      0.68      0.00
   -7   24   11      0.86      0.00
   -6   24   11     -0.19      0.00
   -5   24   11     -0.62      0.00
   -4   24   11     -0.49      0.00
   -3   24   11      0.18      0.00
   -2   24   11      0.64      0.00
  -12   25   11     -0.13      0.00
  -11   25   11      0.26      0.00
  -10   25   11     -0.84      0.00
   -9   25   11     -0.28      0.00
   -8   25   11      0.41      0.00
   -7   25   11     -0.85      0.00
   -6   25   11      0.07      0.00
   -5   25   11      0.98      0.00
   -4   25   11      0.06      0.00
  -13   26   11     -0.17      0.00
  -12   26   11     -0.54      0.00
  -11   26   11     -0.01      0.00
  -10   26   11     -0.85      0.00
   -9   26   11     -0.02      0.00
   -8   26   11      0.24      0.00
   -7   26   11      0.24      0.00
  -13   27   11      0.17      0.00
  -12   27   11      0.08      0.00
    0    0   12      5.93      0.00
    0    1   12     -0.16      0.00
   -1    2   12      1.87      0.00
    0    2   12      1.79      0.00
   -1    3   12     -0.65      0.00
    0    3   12     -0.46      0.00
   -2    4   12      1.45      0.00
   -1    4   12      0.57      0.00
    0    4   12     -4.45      0.00
   -2    5   12     -2.56      0.00
   -1    5   12      0.29      0.00
    0    5   12      0.49      0.00
   -3    6   12      0.81      0.00
   -2    6   12      0.53      0.00
   -1    6   12     -1.12      0.00
    0    6   12     -1.13      0.00
   -3    7   12     -0.70      0.00
   -2    7   12     -0.37      0.00
   -1    7   12      0.66      0.00
    0    7   12     -0.06      0.00
   -4    8   12     -1.64      0.00
   -3    8   12      3.35      0.00
   -2    8   12      0.30      0.00
   -1    8   12      0.47      0.00
    0    8   12     -0.92      0.00
   -4    9   12      0.35      0.00
   -3    9   12      0.24      0.00
   -2    9   12      2.31      0.00
   -1    9   12     -0.76      0.00
    0    9   12     -1.12      0.00
   -5   10   12     -0.29      0.00
   -4   10   12      1.89      0.00
   -3   10   12     -1.06      0.00
   -2   10   12      0.13      0.00
   -1   10   12      1.51      0.00
    0   10   12      0.86      0.00
   -5   11   12     -0.57      0.00
   -4   11   12      0.21      0.00
   -3   11   12     -0.54      0.00
   -2   11   12     -0.34      0.00
   -1   11   12      0.51      0.00
    0   11   12      3.42      0.00
   -6   12   12     -1.78      0.00
   -5   12   12      0.76      0.00
   -4   12   12      0.91      0.00
   -3   12   12     -0.07      0.00
   -2   12   12     -0.59      0.00
   -1   12   12     -0.43      0.00
    0   12   12     -0.86      0.00
   -6   13   12      0.82      0.00
   -5   13   12      1.08      0.00
   -4   13   12      1.22      0.00
   -3   13   12      2.05      0.00
   -2   13   12      0.58      0.00
   -1   13   12      1.14      0.00
    0   13   12     -0.39      0.00
   -7   14   12      1.17      0.00
   -6   14   12      0.71      0.00
   -5   14   12      1.77      0.00
   -4   14   12      2.71      0.00
   -3   14   12      1.56      0.00
   -2   14   12      1.96      0.00
   -1   14   12     -0.27      0.00
    0   14   12      0.38      0.00
   -7   15   12      0.43      0.00
   -6   15   12     -0.13      0.00
   -5   15   12      0.64      0.00
   -4   15   12      2.89      0.00
   -3   15   12     -0.99      0.00
   -2   15   12      0.83      0.00
   -1   15   12     -0.03      0.00
    0   15   12     -0.12      0.00
   -8   16   12     -0.29      0.00
   -7   16   12     -1.05      0.00
   -6   16   12      1.59      0.00
   -5   16   12      1.27      0.00
   -4   16   12     -0.58      0.00
   -3   16   12      0.11      0.00
   -2   16   12      0.25      0.00
   -1   16   12      1.03      0.00
    0   16   12      0.26      0.00
   -8   17   12     -0.01      0.00
   -7   17   12     -0.50      0.00
   -6   17   12      0.29      0.00
   -5   17   12      0.40      0.00
   -4   17   12      0.02      0.00
   -3   17   12      0.11      0.00
   -2   17   12      1.00      0.00
   -1   17   12      0.70      0.00
    0   17   12      0.14      0.00
   -9   18   12      0.30      0.00
   -8   18   12      0.63      0.00
   -7   18   12      0.16      0.00
   -6   18   12      0.29      0.00
   -5   18   12     -0.85      0.00
   -4   18   12      0.53      0.00
   -3   18   12      0.47      0.00
   -2   18   12     -0.60      0.00
   -1   18   12      0.00      0.00
    0   18   12      0.50      0.00
   -9   19   12      0.65      0.00
   -8   19   12      1.03      0.00
   -7   19   12      0.45      0.00
   -6   19   12     -1.68      0.00
   -5   19   12      0.95      0.00
   -4   19   12     -0.42      0.00
   -3   19   12     -0.17      0.00
   -2   19   12      0.24      0.00
   -1   19   12      0.48      0.00
    0   19   12      1.56      0.00
  -10   20   12      0.76      0.00
   -9   20   12     -0.03      0.00
   -8   20   12     -0.66      0.00
   -7   20   12     -0.89      0.00
   -6   20   12     -0.32      0.00
   -5   20   12      0.35      0.00
   -4   20   12      0.60      0.00
   -3   20   12     -0.38      0.00
   -2   20   12     -0.21      0.00
   -1   20   12     -0.13      0.00
    0   20   12     -0.65      0.00
  -10   21   12     -0.42      0.00
   -9   21   12      0.80      0.00
   -8   21   12      0.17      0.00
   -7   21   12     -0.99      0.00
   -6   21   12      0.54      0.00
   -5   21   12     -0.18      0.00
   -4   21   12      0.37      0.00
   -3   21   12     -0.03      0.00
   -2   21   12     -1.47      0.00
   -1   21   12      0.54      0.00
    0   21   12     -0.61      0.00
  -11   22   12     -0.12      0.00
  -10   22   12      0.17      0.00
   -9   22   12      0.85      0.00
   -8   22   12      1.52      0.00
   -7   22   12      0.62      0.00
   -6   22   12     -0.13      0.00
   -5   22   12     -0.21      0.00
   -4   22   12     -1.08      0.00
   -3   22   12      0.36      0.00
   -2   22   12      0.13      0.00
   -1   22   12      1.08      0.00
    0   22   12     -0.57      0.00
  -11   23   12     -0.35      0.00
  -10   23   12      0.20      0.00
   -9   23   12      0.82      0.00
   -8   23   12     -0.23      0.00
   -7   23   12      0.34      0.00
   -6   23   12     -1.36      0.00
   -5   23   12      0.40      0.00
   -4   23   12     -0.97      0.00
   -3   23   12      0.25      0.00
   -2   23   12      0.58      0.00
  -12   24   12      0.03      0.00
  -11   24   12      0.03      0.00
  -10   24   12     -1.15      0.00
   -9   24   12      0.69      0.00
   -8   24   12      0.18      0.00
   -7   24   12      0.09      0.00
   -6   24   12     -0.14      0.00
   -5   24   12      0.41      0.00
   -4   24   12      0.22      0.00
  -12   25   12      0.61      0.00
  -11   25   12      0.03      0.00
  -10   25   12     -0.06      0.00
   -9   25   12     -0.21      0.00
   -8   25   12     -0.36      0.00
   -7   25   12      0.69      0.00
    0    0   13     -0.21      0.00
    0    1   13     -0.66      0.00
   -1    2   13      0.14      0.00
    0    2   13      0.11      0.00
   -1    3   13      0.69      0.00
    0    3   13      0.11      0.00
   -2    4   13      1.28      0.00
   -1    4   13     -0.83      0.00
    0    4   13      0.14      0.00
   -2    5   13      2.12      0.00
   -1    5   13     -2.01      0.00
    0    5   13     -3.26      0.00
   -3    6   13      1.66      0.00
   -2    6   13     -2.02      0.00
   -1    6   13     -0.81      0.00
    0    6   13     -0.53      0.00
   -3    7   13     -0.02      0.00
   -2    7   13     -0.87      0.00
   -1    7   13     -0.40      0.00
    0    7   13     -0.25      0.00
   -4    8   13      1.86      0.00
   -3    8   13     -0.57      0.00
   -2    8   13      0.36      0.00
   -1    8   13      0.37      0.00
    0    8   13      1.32      0.00
   -4    9   13      0.61      0.00
   -3    9   13     -1.08      0.00
   -2    9   13     -0.29      0.00
   -1    9   13      0.13      0.00
    0    9   13      1.07      0.00
   -5   10   13     -0.82      0.00
   -4   10   13     -0.74      0.00
   -3   10   13      1.46      0.00
   -2   10   13     -0.93      0.00
   -1   10   13      0.78      0.00
    0   10   13      0.22      0.00
   -5   11   13     -0.65      0.00
   -4   11   13     -0.79      0.00
   -3   11   13      0.64      0.00
   -2   11   13     -2.22      0.00
   -1   11   13     -1.27      0.00
    0   11   13     -1.53      0.00
   -6   12   13     -2.05      0.00
   -5   12   13     -0.18      0.00
   -4   12   13     -0.96      0.00
   -3   12   13     -3.99      0.00
   -2   12   13     -1.44      0.00
   -1   12   13     -1.78      0.00
   -6   13   13      1.03      0.00
   -5   13   13      0.09      0.00
   -4   13   13     -0.14      0.00
   -3   13   13     -0.94      0.00
   -2   13   13     -0.11      0.00
   -1   13   13     -0.81      0.00
    0   13   13     -0.11      0.00
   -7   14   13      1.60      0.00
   -6   14   13      0.86      0.00
   -5   14   13      1.12      0.00
   -4   14   13      0.26      0.00
   -3   14   13      1.39      0.00
   -2   14   13      1.59      0.00
   -1   14   13     -1.34      0.00
    0   14   13      0.28      0.00
   -7   15   13      0.22      0.00
   -6   15   13     -1.04      0.00
   -5   15   13     -1.51      0.00
   -4   15   13      1.12      0.00
   -3   15   13     -0.87      0.00
   -2   15   13     -0.03      0.00
   -1   15   13      0.79      0.00
    0   15   13     -1.50      0.00
   -8   16   13      0.07      0.00
   -7   16   13     -0.91      0.00
   -6   16   13     -0.52      0.00
   -5   16   13     -0.33      0.00
   -4   16   13      0.00      0.00
   -3   16   13      1.21      0.00
   -2   16   13      0.25      0.00
   -1   16   13     -0.45      0.00
    0   16   13      0.75      0.00
   -8   17   13     -0.41      0.00
   -7   17   13      0.01      0.00
   -6   17   13     -0.33      0.00
   -5   17   13      0.20      0.00
   -4   17   13      0.53      0.00
   -3   17   13     -0.02      0.00
   -2   17   13      0.12      0.00
   -1   17   13     -0.88      0.00
    0   17   13      0.15      0.00
   -9   18   13     -0.84      0.00
   -8   18   13     -0.14      0.00
   -7   18   13     -0.93      0.00
   -6   18   13     -0.89      0.00
   -5   18   13     -1.45      0.00
   -4   18   13     -0.35      0.00
   -3   18   13     -0.74      0.00
   -2   18   13     -0.74      0.00
   -1   18   13      0.75      0.00
    0   18   13     -1.92      0.00
   -9   19   13      0.19      0.00
   -8   19   13     -0.32      0.00
   -7   19   13     -0.97      0.00
   -6   19   13     -1.05      0.00
   -5   19   13     -1.42      0.00
   -4   19   13      0.06      0.00
   -3   19   13      0.16      0.00
   -2   19   13      0.04      0.00
   -1   19   13     -1.30      0.00
    0   19   13     -2.55      0.00
  -10   20   13     -0.28      0.00
   -9   20   13     -0.01      0.00
   -8   20   13      0.15      0.00
   -7   20   13     -0.01      0.00
   -6   20   13     -0.77      0.00
   -5   20   13     -0.27      0.00
   -4   20   13      0.03      0.00
   -3   20   13      0.24      0.00
   -2   20   13      0.24      0.00
   -1   20   13     -0.57      0.00
    0   20   13     -0.34      0.00
  -10   21   13     -0.27      0.00
   -9   21   13     -0.04      0.00
   -8   21   13      0.29      0.00
   -7   21   13      0.35      0.00
   -6   21   13     -0.13      0.00
   -5   21   13      0.32      0.00
   -4   21   13     -0.99      0.00
   -3   21   13     -0.05      0.00
   -2   21   13      1.49      0.00
   -1   21   13      0.31      0.00
    0   21   13     -0.47      0.00
  -11   22   13     -0.45      0.00
  -10   22   13     -0.11      0.00
   -9   22   13     -0.97      0.00
   -8   22   13     -0.36      0.00
   -7   22   13     -0.06      0.00
   -6   22   13     -0.26      0.00
   -5   22   13      0.34      0.00
   -4   22   13      0.59      0.00
   -3   22   13      0.13      0.00
   -2   22   13     -0.43      0.00
  -11   23   13     -0.41      0.00
  -10   23   13     -0.49      0.00
   -9   23   13     -0.19      0.00
   -8   23   13     -0.65      0.00
   -7   23   13     -0.48      0.00
   -6   23   13      0.12      0.00
   -5   23   13     -0.37      0.00
   -4   23   13      0.03      0.00
  -12   24   13      0.72      0.00
  -11   24   13      0.22      0.00
  -10   24   13      0.51      0.00
   -9   24   13      0.33      0.00
   -8   24   13     -0.02      0.00
   -7   24   13     -0.18      0.00
    0    0   14     -4.75      0.00
    0    1   14     -0.16      0.00
   -1    2   14     -0.54      0.00
    0    2   14      0.47      0.00
   -1    3   14     -0.07      0.00
    0    3   14      0.53      0.00
   -2    4   14     -0.95      0.00
   -1    4   14     -1.76      0.00
    0    4   14     -2.45      0.00
   -1    5   14      0.81      0.00
    0    5   14      1.00      0.00
   -3    6   14      0.58      0.00
   -2    6   14      2.43      0.00
   -1    6   14     -0.08      0.00
    0    6   14      1.14      0.00
   -3    7   14      0.73      0.00
   -2    7   14      0.70      0.00
   -1    7   14     -0.95      0.00
    0    7   14     -0.58      0.00
   -4    8   14     -1.27      0.00
   -3    8   14      0.66      0.00
   -2    8   14     -0.46      0.00
   -1    8   14      0.51      0.00
    0    8   14      1.43      0.00
   -4    9   14     -0.35      0.00
   -3    9   14      0.69      0.00
   -2    9   14     -0.49      0.00
   -1    9   14      0.04      0.00
    0    9   14      0.15      0.00
   -5   10   14      0.92      0.00
   -4   10   14      1.44      0.00
   -3   10   14     -0.15      0.00
   -2   10   14      1.31      0.00
   -1   10   14      0.82      0.00
    0   10   14      0.18      0.00
   -5   11   14      2.80      0.00
   -4   11   14      1.10      0.00
   -3   11   14      1.00      0.00
   -2   11   14      0.73      0.00
   -1   11   14      1.12      0.00
    0   11   14      2.23      0.00
   -6   12   14     -0.13      0.00
   -5   12   14      0.39      0.00
   -4   12   14      0.73      0.00
   -3   12   14     -0.55      0.00
   -2   12   14     -0.56      0.00
   -1   12   14      1.01      0.00
    0   12   14      0.83      0.00
   -6   13   14      0.37      0.00
   -5   13   14     -0.24      0.00
   -4   13   14     -0.92      0.00
   -3   13   14      1.39      0.00
   -2   13   14     -0.65      0.00
   -1   13   14      1.14      0.00
    0   13   14      1.35      0.00
   -7   14   14      0.95      0.00
   -6   14   14      0.37      0.00
   -5   14   14      1.22      0.00
   -4   14   14     -1.05      0.00
   -3   14   14     -0.92      0.00
   -2   14   14      1.18      0.00
   -1   14   14      0.00      0.00
    0   14   14      0.81      0.00
   -7   15   14      1.29      0.00
   -6   15   14      0.44      0.00
   -5   15   14     -0.51      0.00
   -4   15   14      0.23      0.00
   -3   15   14     -0.45      0.00
   -2   15   14      0.29      0.00
   -1   15   14     -0.23      0.00
    0   15   14     -3.31      0.00
   -8   16   14      0.29      0.00
   -7   16   14      0.93      0.00
   -6   16   14      1.44      0.00
   -5   16   14      0.35      0.00
   -4   16   14      0.62      0.00
   -3   16   14      1.41      0.00
   -2   16   14     -0.21      0.00
   -1   16   14      0.01      0.00
    0   16   14      0.61      0.00
   -8   17   14     -0.73      0.00
   -7   17   14     -0.12      0.00
   -6   17   14     -0.08      0.00
   -5   17   14      0.66      0.00
   -4   17   14      1.48      0.00
   -3   17   14      0.69      0.00
   -2   17   14      0.78      0.00
   -1   17   14      0.36      0.00
    0   17   14      0.05      0.00
   -9   18   14      0.33      0.00
   -8   18   14     -0.42      0.00
   -7   18   14      0.16      0.00
   -6   18   14     -1.58      0.00
   -5   18   14      0.12      0.00
   -4   18   14      0.00      0.00
   -3   18   14      0.23      0.00
   -2   18   14      0.91      0.00
   -1   18   14     -0.55      0.00
    0   18   14      0.62      0.00
   -9   19   14      0.91      0.00
   -8   19   14      1.51      0.00
   -7   19   14      0.51      0.00
   -6   19   14      0.26      0.00
   -5   19   14      0.29      0.00
   -4   19   14     -0.17      0.00
   -3   19   14     -0.81      0.00
   -2   19   14     -0.22      0.00
   -1   19   14      0.22      0.00
    0   19   14      0.84      0.00
  -10   20   14      0.90      0.00
   -9   20   14      0.57      0.00
   -8   20   14     -0.10      0.00
   -7   20   14      0.14      0.00
   -6   20   14      0.68      0.00
   -5   20   14     -0.97      0.00
   -4   20   14     -0.16      0.00
   -3   20   14      0.26      0.00
   -2   20   14     -0.57      0.00
   -1   20   14     -0.09      0.00
    0   20   14     -0.02      0.00
  -10   21   14     -1.06      0.00
   -9   21   14     -0.25      0.00
   -8   21   14      0.80      0.00
   -7   21   14     -0.12      0.00
   -6   21   14      0.97      0.00
   -5   21   14     -0.64      0.00
   -4   21   14      0.70      0.00
   -3   21   14     -0.50      0.00
   -2   21   14     -0.26      0.00
  -11   22   14     -1.14      0.00
  -10   22   14      0.93      0.00
   -9   22   14      0.25      0.00
   -8   22   14      0.24      0.00
   -7   22   14      0.97      0.00
   -6   22   14      0.20      0.00
   -5   22   14      0.62      0.00
  -11   23   14     -0.07      0.00
  -10   23   14      0.62      0.00
   -9   23   14      0.74      0.00
    0    0   15      1.08      0.00
    0    1   15      0.76      0.00
   -1    2   15     -1.46      0.00
    0    2   15     -1.56      0.00
   -1    3   15      1.38      0.00
    0    3   15     -0.06      0.00
   -2    4   15      2.21      0.00
   -1    4   15      1.74      0.00
    0    4   15      2.36      0.00
   -2    5   15      2.87      0.00
   -1    5   15      1.29      0.00
    0    5   15      5.31      0.00
   -3    6   15     -1.30      0.00
   -2    6   15     -0.25      0.00
   -1    6   15     -0.04      0.00
    0    6   15      1.03      0.00
   -3    7   15     -1.35      0.00
   -2    7   15     -0.84      0.00
   -1    7   15      0.27      0.00
    0    7   15     -4.34      0.00
   -4    8   15      0.86      0.00
   -3    8   15      1.23      0.00
   -2    8   15     -1.24      0.00
   -1    8   15     -1.71      0.00
    0    8   15      0.76      0.00
   -4    9   15      1.32      0.00
   -3    9   15     -0.17      0.00
   -2    9   15      0.41      0.00
   -1    9   15     -1.22      0.00
    0    9   15      0.40      0.00
   -5   10   15     -0.34      0.00
   -4   10   15      0.73      0.00
   -3   10   15      0.16      0.00
   -2   10   15      0.54      0.00
   -1   10   15     -1.36      0.00
    0   10   15     -1.57      0.00
   -5   11   15     -0.36      0.00
   -4   11   15     -0.82      0.00
   -3   11   15      0.89      0.00
   -2   11   15     -0.14      0.00
   -1   11   15      0.00      0.00
    0   11   15     -0.56      0.00
   -6   12   15     -1.96      0.00
   -5   12   15     -2.60      0.00
   -4   12   15     -1.52      0.00
   -3   12   15     -1.17      0.00
   -2   12   15     -1.07      0.00
   -1   12   15     -0.94      0.00
    0   12   15     -1.32      0.00
   -6   13   15     -1.52      0.00
   -5   13   15     -0.76      0.00
   -4   13   15     -2.45      0.00
   -3   13   15     -0.85      0.00
   -2   13   15     -1.02      0.00
   -1   13   15     -0.39      0.00
    0   13   15     -1.35      0.00
   -7   14   15     -0.11      0.00
   -6   14   15      0.67      0.00
   -5   14   15     -0.02      0.00
   -4   14   15     -0.48      0.00
   -3   14   15     -0.36      0.00
   -2   14   15     -0.40      0.00
   -1   14   15     -0.95      0.00
    0   14   15     -0.24      0.00
   -7   15   15     -0.72      0.00
   -6   15   15      0.54      0.00
   -5   15   15      0.51      0.00
   -4   15   15     -0.32      0.00
   -3   15   15      0.49      0.00
   -2   15   15     -0.22      0.00
   -1   15   15      0.27      0.00
    0   15   15     -0.41      0.00
   -8   16   15     -0.75      0.00
   -7   16   15      0.59      0.00
   -6   16   15     -1.50      0.00
   -5   16   15     -0.72      0.00
   -4   16   15     -0.82      0.00
   -3   16   15      0.46      0.00
   -2   16   15      0.82      0.00
   -1   16   15      0.16      0.00
    0   16   15      0.86      0.00
   -8   17   15     -0.87      0.00
   -7   17   15     -0.56      0.00
   -6   17   15     -1.00      0.00
   -5   17   15     -0.85      0.00
   -4   17   15      0.09      0.00
   -3   17   15      0.68      0.00
   -2   17   15     -0.50      0.00
   -1   17   15     -0.03      0.00
    0   17   15     -0.48      0.00
   -9   18   15     -0.04      0.00
   -8   18   15     -0.13      0.00
   -7   18   15     -0.13      0.00
   -6   18   15     -0.38      0.00
   -5   18   15      0.37      0.00
   -4   18   15     -0.01      0.00
   -3   18   15     -0.25      0.00
   -2   18   15      0.17      0.00
   -1   18   15      0.61      0.00
    0   18   15      0.29      0.00
   -9   19   15     -0.09      0.00
   -8   19   15     -0.43      0.00
   -7   19   15      0.30      0.00
   -6   19   15      1.19      0.00
   -5   19   15      0.15      0.00
   -4   19   15      0.41      0.00
   -3   19   15     -0.17      0.00
   -2   19   15      0.74      0.00
   -1   19   15     -0.23      0.00
  -10   20   15     -1.12      0.00
   -9   20   15     -0.28      0.00
   -8   20   15     -0.82      0.00
   -7   20   15     -0.35      0.00
   -6   20   15     -0.77      0.00
   -5   20   15      0.25      0.00
   -4   20   15      0.13      0.00
   -3   20   15     -0.13      0.00
  -10   21   15     -0.19      0.00
   -9   21   15     -1.11      0.00
   -8   21   15      0.23      0.00
   -7   21   15     -0.07      0.00
   -6   21   15     -0.36      0.00
    0    0   16      3.79      0.00
    0    1   16      0.09      0.00
   -1    2   16      1.77      0.00
    0    2   16     -1.12      0.00
   -1    3   16     -2.35      0.00
    0    3   16      2.89      0.00
   -2    4   16     -3.67      0.00
   -1    4   16     -2.60      0.00
    0    4   16      1.00      0.00
   -1    5   16      1.24      0.00
    0    5   16      4.98      0.00
   -3    6   16     -3.06      0.00
   -2    6   16     -0.64      0.00
   -1    6   16      2.18      0.00
    0    6   16      3.38      0.00
   -3    7   16      1.42      0.00
   -2    7   16     -0.81      0.00
   -1    7   16      0.61      0.00
    0    7   16      1.58      0.00
   -4    8   16      0.20      0.00
   -3    8   16     -0.05      0.00
   -2    8   16     -1.69      0.00
   -1    8   16     -0.27      0.00
    0    8   16      2.60      0.00
   -4    9   16     -0.91      0.00
   -3    9   16     -1.21      0.00
   -2    9   16     -1.19      0.00
   -1    9   16     -0.41      0.00
    0    9   16      0.72      0.00
   -5   10   16     -0.65      0.00
   -4   10   16     -1.03      0.00
   -3   10   16     -0.14      0.00
   -2   10   16      0.02      0.00
   -1   10   16      1.39      0.00
    0   10   16     -0.03      0.00
   -5   11   16     -0.33      0.00
   -4   11   16      0.70      0.00
   -3   11   16      2.20      0.00
   -2   11   16     -0.57      0.00
   -1   11   16     -1.84      0.00
    0   11   16      1.13      0.00
   -6   12   16      1.29      0.00
   -5   12   16     -0.04      0.00
   -4   12   16      0.49      0.00
   -3   12   16     -0.14      0.00
   -2   12   16      0.27      0.00
   -1   12   16     -0.35      0.00
    0   12   16     -0.55      0.00
   -6   13   16      0.27      0.00
   -5   13   16     -0.65      0.00
   -4   13   16      0.69      0.00
   -3   13   16      0.50      0.00
   -2   13   16      0.10      0.00
   -1   13   16      1.13      0.00
    0   13   16      0.27      0.00
   -7   14   16     -0.26      0.00
   -6   14   16     -0.90      0.00
   -5   14   16     -0.33      0.00
   -4   14   16     -0.15      0.00
   -3   14   16      1.01      0.00
   -2   14   16     -0.12      0.00
   -1   14   16     -0.43      0.00
    0   14   16      1.32      0.00
   -7   15   16     -0.30      0.00
   -6   15   16     -1.13      0.00
   -5   15   16      0.19      0.00
   -4   15   16     -0.46      0.00
   -3   15   16     -0.60      0.00
   -2   15   16     -0.25      0.00
   -1   15   16     -0.78      0.00
    0   15   16      0.03      0.00
   -8   16   16     -0.69      0.00
   -7   16   16     -0.85      0.00
   -6   16   16      1.50      0.00
   -5   16   16      0.89      0.00
   -4   16   16      0.16      0.00
   -3   16   16     -0.92      0.00
   -2   16   16     -1.37      0.00
   -1   16   16      0.53      0.00
    0   16   16     -0.18      0.00
   -8   17   16     -1.07      0.00
   -7   17   16     -0.28      0.00
   -6   17   16      1.43      0.00
   -5   17   16      0.73      0.00
   -4   17   16     -0.31      0.00
   -3   17   16     -0.33      0.00
   -2   17   16     -0.93      0.00
   -1   17   16      0.00      0.00
    0   17   16      0.35      0.00
   -9   18   16     -0.46      0.00
   -8   18   16     -0.74      0.00
   -7   18   16      0.04      0.00
   -6   18   16     -0.63      0.00
   -5   18   16      0.03      0.00
   -4   18   16     -0.59      0.00
   -3   18   16     -0.53      0.00
   -9   19   16      0.47      0.00
   -8   19   16      0.27      0.00
   -7   19   16      0.49      0.00
   -6   19   16     -0.87      0.00
   -5   19   16     -0.73      0.00
    0    0   17     -3.31      0.00
    0    1   17     -5.31      0.00
   -1    2   17      4.43      0.00
    0    2   17      1.11      0.00
   -1    3   17     -0.49      0.00
    0    3   17      7.03      0.00
   -2    4   17     -4.00      0.00
   -1    4   17     -2.08      0.00
    0    4   17      0.69      0.00
   -2    5   17     -6.27      0.00
   -1    5   17     -2.06      0.00
    0    5   17     -4.27      0.00
   -3    6   17     -1.48      0.00
   -2    6   17     -2.12      0.00
   -1    6   17     -5.23      0.00
    0    6   17     -0.04      0.00
   -3    7   17      0.65      0.00
   -2    7   17      1.95      0.00
   -1    7   17      3.10      0.00
    0    7   17      0.92      0.00
   -4    8   17      2.34      0.00
   -3    8   17      1.71      0.00
   -2    8   17      0.09      0.00
   -1    8   17      4.07      0.00
    0    8   17      5.01      0.00
   -4    9   17     -1.23      0.00
   -3    9   17      1.05      0.00
   -2    9   17     -0.06      0.00
   -1    9   17      0.95      0.00
    0    9   17      0.97      0.00
   -5   10   17     -1.92      0.00
   -4   10   17     -3.63      0.00
   -3   10   17     -0.74      0.00
   -2   10   17     -0.02      0.00
   -1   10   17     -0.13      0.00
    0   10   17      0.59      0.00
   -5   11   17     -3.12      0.00
   -4   11   17      0.42      0.00
   -3   11   17     -0.74      0.00
   -2   11   17     -1.31      0.00
   -1   11   17      0.14      0.00
    0   11   17      1.98      0.00
   -6   12   17     -1.96      0.00
   -5   12   17      0.20      0.00
   -4   12   17      0.62      0.00
   -3   12   17      2.28      0.00
   -2   12   17     -0.27      0.00
   -1   12   17     -0.48      0.00
    0   12   17      1.28      0.00
   -6   13   17      0.92      0.00
   -5   13   17      2.08      0.00
   -4   13   17      1.03      0.00
   -3   13   17     -1.17      0.00
   -2   13   17     -0.21      0.00
   -1   13   17     -0.29      0.00
    0   13   17      0.06      0.00
   -7   14   17      0.24      0.00
   -6   14   17      0.94      0.00
   -5   14   17     -0.72      0.00
   -4   14   17      0.82      0.00
   -3   14   17      1.49      0.00
   -2   14   17     -0.33      0.00
   -1   14   17     -0.07      0.00
    0   14   17     -0.58      0.00
   -7   15   17     -0.88      0.00
   -6   15   17      1.22      0.00
   -5   15   17      0.00      0.00
   -4   15   17      0.42      0.00
   -3   15   17      0.04      0.00
   -2   15   17      1.58      0.00
   -1   15   17     -1.20      0.00
    0   15   17      0.20      0.00
   -8   16   17      0.25      0.00
   -7   16   17      0.02      0.00
   -6   16   17      0.27      0.00
   -5   16   17      0.45      0.00
   -4   16   17      1.35      0.00
   -3   16   17     -0.49      0.00
   -2   16   17      0.31      0.00
   -8   17   17      0.39      0.00
   -7   17   17      1.28      0.00
   -6   17   17      0.30      0.00
    0    0   18      3.67      0.00
    0    1   18      0.07      0.00
   -1    2   18      0.22      0.00
    0    2   18      0.35      0.00
   -1    3   18      2.31      0.00
    0    3   18      3.98      0.00
   -2    4   18      0.43      0.00
   -1    4   18      0.65      0.00
    0    4   18      0.30      0.00
   -2    5   18     -6.57      0.00
   -1    5   18     -0.09      0.00
    0    5   18      6.61      0.00
   -3    6   18     -3.54      0.00
   -2    6   18      0.52      0.00
   -1    6   18      1.28      0.00
    0    6   18      4.08      0.00
   -3    7   18      3.15      0.00
   -2    7   18     -0.65      0.00
   -1    7   18      2.76      0.00
    0    7   18     -0.75      0.00
   -4    8   18      1.32      0.00
   -3    8   18      0.13      0.00
   -2    8   18     -3.42      0.00
   -1    8   18      0.37      0.00
    0    8   18      4.66      0.00
   -4    9   18     -0.14      0.00
   -3    9   18     -1.33      0.00
   -2    9   18     -0.26      0.00
   -1    9   18     -0.04      0.00
    0    9   18      0.24      0.00
   -5   10   18      1.71      0.00
   -4   10   18     -0.26      0.00
   -3   10   18      0.06      0.00
   -2   10   18     -0.48      0.00
   -1   10   18      2.31      0.00
    0   10   18     -0.64      0.00
   -5   11   18      0.53      0.00
   -4   11   18     -0.15      0.00
   -3   11   18      0.54      0.00
   -2   11   18     -0.13      0.00
   -1   11   18     -0.70      0.00
    0   11   18     -1.13      0.00
   -6   12   18     -0.55      0.00
   -5   12   18      0.03      0.00
   -4   12   18     -1.78      0.00
   -3   12   18     -0.10      0.00
   -2   12   18      1.89      0.00
   -1   12   18     -0.23      0.00
    0   12   18     -1.13      0.00
   -6   13   18      0.35      0.00
   -5   13   18     -1.33      0.00
   -4   13   18      0.13      0.00
   -3   13   18     -1.18      0.00
   -2   13   18      1.09      0.00
   -1   13   18     -1.15      0.00
   -7   14   18     -0.20      0.00
   -6   14   18     -0.08      0.00
   -5   14   18      0.45      0.00
   -4   14   18      0.64      0.00
    0    0   19      2.10      0.00
    0    1   19     -1.64      0.00
   -1    2   19      1.08      0.00
    0    2   19     -0.27      0.00
   -1    3   19     -0.06      0.00
    0    3   19      2.16      0.00
   -2    4   19      0.83      0.00
   -1    4   19      2.58      0.00
    0    4   19      2.71      0.00
   -2    5   19      3.79      0.00
   -1    5   19     -0.50      0.00
    0    5   19     -2.86      0.00
   -3    6   19      0.88      0.00
   -2    6   19      0.88      0.00
   -1    6   19     -1.25      0.00
    0    6   19     -2.23      0.00
   -3    7   19     -0.79      0.00
   -2    7   19     -1.23      0.00
   -1    7   19      0.64      0.00
    0    7   19      0.28      0.00
   -4    8   19     -1.59      0.00
   -3    8   19      0.45      0.00
   -2    8   19      1.55      0.00
   -1    8   19     -0.88      0.00
    0    8   19     -3.26      0.00
   -4    9   19      0.64      0.00
   -3    9   19      0.81      0.00
   -2    9   19      0.91      0.00
   -1    9   19      0.34      0.00
    0    9   19     -2.01      0.00
   -5   10   19     -1.41      0.00
   -4   10   19     -0.49      0.00
   -3   10   19      1.88      0.00
   -2   10   19      1.19      0.00
   -1    2   20     -1.37      0.00
    0    2   20      0.75      0.00
   -1    3   20      0.76      0.00
    0    3   20     -0.65      0.00
   -2    4   20      0.25      0.00
   -1    4   20      0.26      0.00
    0    1    0    116.99      0.00
    0   28    0      0.06      0.00
   -2   29    0      0.45      0.00
   -4   30    0     -0.20      0.00
   -7   31    0     -0.07      0.00
  -12   32    0     -0.15      0.00
  -11   32    0     -0.78      0.00
    0    0    1   -123.22      0.00
   -2    4    1    -60.67      0.00
   -2    5    1     -6.55      0.00
   -3    9    1     13.46      0.00
    0   28    1     -1.26      0.00
   -2   29    1     -2.18      0.00
   -7   31    1      1.59      0.00
  -12   32    1      0.81      0.00
  -11   32    1     -0.67      0.00
   -3    9    2     12.80      0.00
    0   28    2     -0.28      0.00
   -2   29    2      0.77      0.00
   -8   31    2     -0.03      0.00
  -13   32    2     -0.54      0.00
  -12   32    2     -0.86      0.00
   -5   30    3     -0.65      0.00
   -8   31    3     -0.41      0.00
  -16   32    3     -1.37      0.00
  -15   32    3     -0.20      0.00
  -14   32    3      0.41      0.00
  -13   32    3      0.07      0.00
    0    4    4     23.47      0.00
  -10   25    4      1.82      0.00
   -1   28    4     -0.56      0.00
   -3   29    4      1.04      0.00
   -6   30    4     -1.05      0.00
   -9   31    4      0.63      0.00
   -4   29    5     -0.55      0.00
   -7   30    5      0.24      0.00
  -11   31    5      0.45      0.00
   -5   11    6     -1.75      0.00
   -5   29    6     -0.11      0.00
   -8   30    6      1.43      0.00
  -15   31    6     -0.58      0.00
  -14   31    6      0.20      0.00
  -13   31    6      0.35      0.00
   -1    7    7     -9.77      0.00
   -4    8    7    -10.78      0.00
   -4   10    7     -0.23      0.00
   -5   11    7      4.07      0.00
   -4   12    7     -8.04      0.00
  -11   30    7      0.14      0.00
  -10   30    7     -0.05      0.00
   -1    5    8      6.88      0.00
   -1    7    8      9.79      0.00
   -5   28    8      0.35      0.00
   -9   29    8     -0.68      0.00
   -8   29    8     -0.67      0.00
   -7   17    9     -5.29      0.00
   -2   26    9     -0.85      0.00
   -4   27    9      0.22      0.00
   -7   28    9     -0.13      0.00
  -14   29    9     -0.46      0.00
  -13   29    9      1.03      0.00
  -12   29    9      1.51      0.00
   -1    5   10      4.98      0.00
   -1   25   10      1.43      0.00
   -6   27   10      0.24      0.00
  -12   28   10      0.72      0.00
  -11   28   10      1.05      0.00
  -10   28   10      1.02      0.00
   -5   13   11      0.40      0.00
   -4   14   11      0.02      0.00
   -1   24   11      0.49      0.00
   -3   25   11     -0.59      0.00
   -6   26   11     -0.01      0.00
  -11   27   11     -0.79      0.00
  -10   27   11     -0.58      0.00
   -1   23   12     -1.52      0.00
   -3   24   12     -2.04      0.00
   -6   25   12      1.59      0.00
  -13   26   12      0.56      0.00
  -12   26   12      0.30      0.00
  -11   26   12     -0.29      0.00
  -10   26   12     -0.42      0.00
    0   12   13     -4.22      0.00
   -1   22   13      0.87      0.00
   -3   23   13      0.69      0.00
   -6   24   13      0.20      0.00
  -12   25   13      0.01      0.00
  -11   25   13      0.24      0.00
   -2    5   14      1.09      0.00
   -4   22   14      0.37      0.00
   -8   23   14     -0.16      0.00
   -7   23   14      0.58      0.00
    0   19   15      0.09      0.00
   -5   21   15     -0.21      0.00
  -11   22   15      0.53      0.00
   -2    5   16     -5.36      0.00
   -2   18   16      0.39      0.00
   -4   19   16     -0.05      0.00
  -10   20   16      0.84      0.00
   -9   20   16      1.09      0.00
   -8   20   16      0.50      0.00
   -5   17   17     -0.66      0.00
   -4   17   17     -0.44      0.00
    0   13   18      0.08      0.00
   -3   14   18      0.70      0.00
   -2   14   18     -0.22      0.00
   -7   15   18      0.93      0.00
   -6   15   18      0.02      0.00
   -1   10   19     -0.82      0.00
    0   10   19      1.03      0.00
   -5   11   19     -1.44      0.00
   -4   11   19      0.11      0.00
   -3   11   19     -0.33      0.00
    0    0   20     -3.21      0.00
    0    1   20     -1.20      0.00
    0    4   20     -2.07      0.00
   -2    5   20     -1.32      0.00
   -1    5   20     -0.29      0.00
    0    5   20      1.13      0.00
   -3    6   20      0.45      0.00
    0    0    0      0.00      0.00
# SQUEEZE RESULTS (Version = 120716)
# Note: Data are Listed for all Voids in the P1 Unit Cell
# i.e. Centre of Gravity, Solvent Accessible Volume,
# Recovered number of Electrons in the Void and
# Details about the Squeezed Material
loop_
  _platon_squeeze_void_nr
  _platon_squeeze_void_average_x
  _platon_squeeze_void_average_y
  _platon_squeeze_void_average_z
  _platon_squeeze_void_volume
  _platon_squeeze_void_count_electrons
  _platon_squeeze_void_content
   1 -0.027 -0.021 -0.008      5120       999 ' '
   2  0.045  0.523  0.000         7         0 ' '
   3  0.115  0.558  0.143         8         1 ' '
   4  0.115  0.558  0.856         8         1 ' '
   5  0.442  0.558  0.143         9         2 ' '
   6  0.442  0.558  0.856         9         2 ' '
   7  0.442  0.885  0.143         8         2 ' '
   8  0.442  0.885  0.856         8         1 ' '
   9  0.477  0.523  0.000         7         0 ' '
  10  0.477  0.955  0.000         7         0 ' '
  11  0.523  0.047  0.000         7         0 ' '
  12  0.523  0.477  0.000         7         0 ' '
  13  0.558  0.115  0.143         8         1 ' '
  14  0.558  0.115  0.856         8         1 ' '
  15  0.558  0.442  0.143         9         2 ' '
  16  0.558  0.442  0.856         9         2 ' '
  17  0.884  0.442  0.143         8         2 ' '
  18  0.885  0.442  0.856         8         1 ' '
  19  0.953  0.477  0.000         7         0 ' '
# Missing Reflections Below sin(th)/lambda = 0.25
loop_
  _platon_missing_refln_index_h
  _platon_missing_refln_index_k
  _platon_missing_refln_index_l
  _platon_missing_refln_theta
    0    1    0     1.924
    0    0    1     2.667
   -2    4    1     7.196
   -2    5    1     8.833
   -3    9    1    15.694
   -3    9    2    16.395
    0    4    4    13.269
_platon_squeeze_void_probe_radius                  1.20
_platon_squeeze_details
)
TITL _ho_5_cu  P 6/m m m    R = 0.17
CELL   26.5159   26.5159   16.5671     90.00     90.00    120.00
SPGR P6/mmm
# Solvent Accessible Volume =      5255
# Electrons Found in S.A.V. =      1009
# Note: Atoms in Void as Cxxx and Qxxx all others
C101 0.664 0.328 0.008 !       2.71 eA-3
C102 1.000 1.000 0.500 !       1.85 eA-3
C103 0.641 0.281 0.000 !       1.35 eA-3
C104 0.333 0.664 0.194 !       1.28 eA-3
Q105 0.712 0.461 0.499 !       1.14 eA-3
C106 0.787 0.211 0.504 !       0.98 eA-3
C107 0.180 0.824 0.558 !       0.97 eA-3
C108 0.332 0.662 0.726 !       0.95 eA-3
C109 0.671 0.335 0.359 !       0.94 eA-3
C110 0.333 0.669 0.116 !       0.94 eA-3
Q111 0.335 0.336 0.497 !       0.85 eA-3
C112 0.626 0.312 0.374 !       0.84 eA-3
C113 1.002 0.125 0.493 !       0.84 eA-3
C114 0.170 0.836 0.489 !       0.83 eA-3
C115 0.723 0.356 0.613 !       0.82 eA-3
C116 0.719 0.443 0.401 !       0.82 eA-3
C117 0.904 0.203 0.005 !       0.79 eA-3
C118 0.305 0.164 0.001 !       0.76 eA-3
C119 0.999 0.045 0.471 !       0.73 eA-3
Q120 0.203 0.203 0.499 !       0.72 eA-3
Q121 0.561 0.641 0.440 !       0.69 eA-3
Q122 0.201 0.209 0.434 !       0.68 eA-3
C123 0.026 0.836 0.498 !       0.65 eA-3
Q124 0.999 0.273 0.504 !       0.64 eA-3
C125 1.001 0.119 0.420 !       0.63 eA-3
C126 0.247 0.781 0.488 !       0.63 eA-3
Q127 0.611 0.391 0.496 !       0.62 eA-3
Q128 0.389 0.609 0.535 !       0.61 eA-3
C129 0.157 0.308 0.657 !       0.59 eA-3
C130 0.422 0.164 0.499 !       0.58 eA-3
Q131 0.062 0.527 0.829 !       0.57 eA-3
C132 0.833 0.945 0.504 !       0.57 eA-3
Q133 0.718 0.719 0.451 !       0.56 eA-3
Q134 0.556 0.336 0.494 !       0.56 eA-3
C135 0.999 0.045 0.611 !       0.55 eA-3
C136 1.000 1.004 0.359 !       0.54 eA-3
Q137 0.881 0.250 0.504 !       0.53 eA-3
Q138 0.558 0.117 0.500 !       0.51 eA-3
)
;
_shelx_fab_checksum              33753
loop_
_space_group_symop_operation_xyz
'x, y, z'
'-y, x-y, z'
'-x+y, -x, z'
'-x, -y, z'
'y, -x+y, z'
'x-y, x, z'
'y, x, -z'
'x-y, -y, -z'
'-x, -x+y, -z'
'-y, -x, -z'
'-x+y, y, -z'
'x, x-y, -z'
'-x, -y, -z'
'y, -x+y, -z'
'x-y, x, -z'
'x, y, -z'
'-y, x-y, -z'
'-x+y, -x, -z'
'-y, -x, z'
'-x+y, y, z'
'x, x-y, z'
'y, x, z'
'x-y, -y, z'
'-x, -x+y, z'
loop_
_atom_site_label
_atom_site_type_symbol
_atom_site_fract_x
_atom_site_fract_y
_atom_site_fract_z
_atom_site_U_iso_or_equiv
_atom_site_adp_type
_atom_site_occupancy
_atom_site_site_symmetry_order
_atom_site_calc_flag
_atom_site_refinement_flags_posn
_atom_site_refinement_flags_adp
_atom_site_refinement_flags_occupancy
Ho1 Ho 0.45867(2) 0.54133(2) 0.5000 0.1441(6) Uani 1 4 d S T P
Ho2 Ho 0.63452(5) 0.63452(5) 0.5000 0.1455(6) Uani 1 4 d S T P
O3 O 0.5481(3) 0.5481(3) 0.5000 0.115(2) Uani 1 4 d S T P
C1 C 0.5281(7) 0.7109(5) 1.0000 0.153(4) Uani 1 2 d DS T P
O2 O 0.5904(7) 0.6535(6) 0.6028(8) 0.280(7) Uani 1 1 d . . .
C2 C 0.5285(5) 0.7388(4) 0.9277(5) 0.152(3) Uani 1 1 d D . .
O1 O 0.4958(7) 0.6077(5) 0.5902(7) 0.260(5) Uani 1 1 d . . .
C3 C 0.5264(12) 0.6536(7) 1.0000 0.215(9) Uani 1 2 d DS T P
H3A H 0.5263 0.6415 0.9454 0.323 Uiso 0.5 1 calc R U P
H3B H 0.5600 0.6575 1.0277 0.323 Uiso 0.5 1 calc R U P
H3C H 0.4917 0.6250 1.0269 0.323 Uiso 0.5 1 calc R U P
C4 C 0.5333(4) 0.7133(3) 0.8506(3) 0.158(3) Uani 1 1 d G . .
C5 C 0.4833(3) 0.6779(3) 0.8062(5) 0.201(5) Uani 1 1 d G . .
H5 H 0.4471 0.6700 0.8253 0.242 Uiso 1 1 calc R U .
C6 C 0.4875(4) 0.6545(3) 0.7332(5) 0.233(8) Uani 1 1 d G . .
H6 H 0.4541 0.6308 0.7035 0.280 Uiso 1 1 calc R U .
C7 C 0.5417(5) 0.6664(4) 0.7046(4) 0.220(7) Uani 1 1 d DG . .
C8 C 0.5916(4) 0.7017(4) 0.7490(5) 0.268(9) Uani 1 1 d G . .
H8 H 0.6278 0.7097 0.7299 0.322 Uiso 1 1 calc R U .
C9 C 0.5874(3) 0.7252(4) 0.8220(5) 0.214(6) Uani 1 1 d G . .
H9 H 0.6208 0.7489 0.8517 0.256 Uiso 1 1 calc R U .
C10 C 0.5433(9) 0.6386(8) 0.6264(8) 0.210(6) Uani 1 1 d D U .
N1 N 0.5000 0.5000 0.7700(7) 0.151(5) Uani 1 4 d DS T P
C11 C 0.5000 0.5000 0.6934(10) 0.221(13) Uani 1 4 d DS T P
H11 H 0.5182 0.4818 0.6690 0.265 Uiso 0.5 2 calc R U P
O6 O 0.4795(4) 0.5205(4) 0.6483(10) 0.176(6) Uani 0.5 2 d DS TU P
C12 C 0.5430(9) 0.5430(9) 0.811(2) 0.357(19) Uani 1 2 d DS TU P
H12A H 0.5358 0.5358 0.8680 0.535 Uiso 1 2 calc R U P
H12B H 0.5792 0.5450 0.7977 0.535 Uiso 0.5 1 calc R U P
H12C H 0.5450 0.5792 0.7977 0.535 Uiso 0.5 1 calc R U P
O5 O 0.7329(8) 0.6909(15) 0.5000 0.265(16) Uani 0.5 2 d S T P
O4 O 0.4370(9) 0.6200(10) 0.5000 0.224(11) Uani 0.5 2 d S T P
loop_
_atom_site_aniso_label
_atom_site_aniso_U_11
_atom_site_aniso_U_22
_atom_site_aniso_U_33
_atom_site_aniso_U_23
_atom_site_aniso_U_13
_atom_site_aniso_U_12
Ho1 0.1613(9) 0.1613(9) 0.1651(11) 0.000 0.000 0.1222(9)
Ho2 0.1254(7) 0.1254(7) 0.1742(12) 0.000 0.000 0.0541(6)
O3 0.092(3) 0.092(3) 0.167(7) 0.000 0.000 0.050(3)
C1 0.204(12) 0.118(6) 0.144(8) 0.000 0.000 0.085(8)
O2 0.233(11) 0.265(12) 0.256(11) -0.119(10) 0.019(10) 0.061(10)
C2 0.192(8) 0.127(5) 0.139(6) -0.006(4) -0.008(5) 0.082(5)
O1 0.330(14) 0.238(11) 0.223(9) -0.106(9) -0.068(10) 0.150(11)
C3 0.34(3) 0.145(10) 0.183(13) 0.000 0.000 0.142(15)
C4 0.212(10) 0.146(6) 0.127(5) -0.030(5) -0.021(6) 0.098(7)
C5 0.250(14) 0.148(7) 0.205(11) -0.051(8) -0.058(10) 0.098(8)
C6 0.32(2) 0.178(11) 0.194(12) -0.048(10) -0.050(14) 0.116(13)
C7 0.34(2) 0.177(10) 0.144(7) -0.064(7) -0.023(11) 0.126(13)
C8 0.257(18) 0.32(2) 0.222(15) -0.110(15) 0.023(13) 0.136(17)
C9 0.210(12) 0.247(13) 0.157(8) -0.087(9) -0.020(8) 0.095(11)
C10 0.227(10) 0.186(8) 0.200(9) -0.035(7) -0.011(8) 0.091(7)
N1 0.197(11) 0.197(11) 0.103(7) 0.000 0.000 0.132(12)
C11 0.32(3) 0.32(3) 0.095(9) 0.000 0.000 0.22(3)
O6 0.193(7) 0.193(7) 0.148(9) 0.022(4) -0.022(4) 0.101(8)
C12 0.36(2) 0.36(2) 0.32(2) -0.023(12) -0.023(12) 0.168(17)
O5 0.099(10) 0.27(3) 0.37(4) 0.000 0.000 0.052(15)
O4 0.151(13) 0.200(17) 0.39(3) 0.000 0.000 0.139(14)
loop_
_atom_type_symbol
_atom_type_description
_atom_type_scat_dispersion_real
_atom_type_scat_dispersion_imag
_atom_type_scat_source
C C 0.0181 0.0091 'International Tables Vol C Tables 4.2.6.8 and 6.1.1.4'
H H 0.0000 0.0000 'International Tables Vol C Tables 4.2.6.8 and 6.1.1.4'
N N 0.0311 0.0180 'International Tables Vol C Tables 4.2.6.8 and 6.1.1.4'
O O 0.0492 0.0322 'International Tables Vol C Tables 4.2.6.8 and 6.1.1.4'
Ho Ho -14.9734 3.7046 'International Tables Vol C Tables 4.2.6.8 and 6.1.1.4'
loop_
_geom_angle_atom_site_label_1
_geom_angle_atom_site_label_2
_geom_angle_atom_site_label_3
_geom_angle
_geom_angle_site_symmetry_1
_geom_angle_site_symmetry_3
O1 Ho1 O1 88.7(8) 10_666 19_665
O1 Ho1 O1 80.0(9) 10_666 16_556
O1 Ho1 O1 143.4(7) 19_665 16_556
O1 Ho1 O1 143.4(7) 10_666 .
O1 Ho1 O1 80.0(9) 19_665 .
O1 Ho1 O1 88.7(8) 16_556 .
O1 Ho1 O3 128.2(4) 10_666 .
O1 Ho1 O3 128.2(4) 19_665 .
O1 Ho1 O3 84.4(4) 16_556 .
O1 Ho1 O3 84.4(4) . .
O1 Ho1 O3 84.4(4) 10_666 13_666
O1 Ho1 O3 84.4(4) 19_665 13_666
O1 Ho1 O3 128.2(4) 16_556 13_666
O1 Ho1 O3 128.2(4) . 13_666
O3 Ho1 O3 67.8(3) . 13_666
O1 Ho1 O4 84.4(6) 10_666 .
O1 Ho1 O4 84.4(6) 19_665 .
O1 Ho1 O4 60.1(5) 16_556 .
O1 Ho1 O4 60.1(5) . .
O3 Ho1 O4 128.0(5) . .
O3 Ho1 O4 164.3(5) 13_666 .
O1 Ho1 O4 60.1(5) 10_666 19_665
O1 Ho1 O4 60.1(5) 19_665 19_665
O1 Ho1 O4 84.4(6) 16_556 19_665
O1 Ho1 O4 84.4(6) . 19_665
O3 Ho1 O4 164.3(5) . 19_665
O3 Ho1 O4 127.9(5) 13_666 19_665
O4 Ho1 O4 36.3(10) . 19_665
O1 Ho1 O6 57.5(5) 10_666 16_556
O1 Ho1 O6 139.9(5) 19_665 16_556
O1 Ho1 O6 57.5(5) 16_556 16_556
O1 Ho1 O6 139.9(5) . 16_556
O3 Ho1 O6 72.5(4) . 16_556
O3 Ho1 O6 72.5(4) 13_666 16_556
O4 Ho1 O6 110.1(4) . 16_556
O4 Ho1 O6 110.1(4) 19_665 16_556
O1 Ho1 O6 139.9(4) 10_666 .
O1 Ho1 O6 57.5(5) 19_665 .
O1 Ho1 O6 139.9(5) 16_556 .
O1 Ho1 O6 57.5(5) . .
O3 Ho1 O6 72.5(4) . .
O3 Ho1 O6 72.5(4) 13_666 .
O4 Ho1 O6 110.1(4) . .
O4 Ho1 O6 110.1(4) 19_665 .
O6 Ho1 O6 137.5(9) 16_556 .
O1 Ho1 Ho1 108.3(4) 10_666 13_666
O1 Ho1 Ho1 108.3(4) 19_665 13_666
O1 Ho1 Ho1 108.3(4) 16_556 13_666
O1 Ho1 Ho1 108.3(4) . 13_666
O3 Ho1 Ho1 33.88(15) . 13_666
O3 Ho1 Ho1 33.88(15) 13_666 13_666
O4 Ho1 Ho1 161.8(5) . 13_666
O4 Ho1 Ho1 161.8(5) 19_665 13_666
O6 Ho1 Ho1 68.7(4) 16_556 13_666
O6 Ho1 Ho1 68.7(4) . 13_666
O2 Ho2 O2 79.7(9) 7_556 16_556
O2 Ho2 O2 97.8(9) 7_556 22
O2 Ho2 O2 163.0(7) 16_556 22
O2 Ho2 O2 163.0(7) 7_556 .
O2 Ho2 O2 97.8(9) 16_556 .
O2 Ho2 O2 79.7(9) 22 .
O2 Ho2 O5 114.0(6) 7_556 7_556
O2 Ho2 O5 82.0(8) 16_556 7_556
O2 Ho2 O5 114.0(6) 22 7_556
O2 Ho2 O5 82.0(8) . 7_556
O2 Ho2 O5 82.0(8) 7_556 .
O2 Ho2 O5 114.0(6) 16_556 .
O2 Ho2 O5 82.0(8) 22 .
O2 Ho2 O5 114.0(6) . .
O5 Ho2 O5 50.3(19) 7_556 .
O2 Ho2 O3 81.5(3) 7_556 .
O2 Ho2 O3 81.5(3) 16_556 .
O2 Ho2 O3 81.5(3) 22 .
O2 Ho2 O3 81.5(3) . .
O5 Ho2 O3 154.8(9) 7_556 .
O5 Ho2 O3 154.8(9) . .
Ho1 O3 Ho1 112.2(3) 13_666 .
Ho1 O3 Ho2 123.88(15) 13_666 .
Ho1 O3 Ho2 123.88(15) . .
C2 C1 C2 117.0(10) 16_557 .
C2 C1 C3 121.5(5) 16_557 .
C2 C1 C3 121.5(5) . .
C10 O2 Ho2 139.4(10) . .
C2 C2 C1 121.5(5) 21_565 .
C2 C2 C4 119.9(4) 21_565 .
C1 C2 C4 118.4(7) . .
C10 O1 Ho1 140.3(12) . .
C1 C3 H3A 109.5 . .
C1 C3 H3B 109.5 . .
H3A C3 H3B 109.5 . .
C1 C3 H3C 109.5 . .
H3A C3 H3C 109.5 . .
H3B C3 H3C 109.5 . .
C5 C4 C9 120.0 . .
C5 C4 C2 119.7(7) . .
C9 C4 C2 120.3(7) . .
C4 C5 C6 120.0 . .
C4 C5 H5 120.0 . .
C6 C5 H5 120.0 . .
C7 C6 C5 120.0 . .
C7 C6 H6 120.0 . .
C5 C6 H6 120.0 . .
C6 C7 C8 120.0 . .
C6 C7 C10 117.5(11) . .
C8 C7 C10 122.5(11) . .
C7 C8 C9 120.0 . .
C7 C8 H8 120.0 . .
C9 C8 H8 120.0 . .
C8 C9 C4 120.0 . .
C8 C9 H9 120.0 . .
C4 C9 H9 120.0 . .
O2 C10 O1 127.5(12) . .
O2 C10 C7 114.1(16) . .
O1 C10 C7 117.9(16) . .
C11 N1 C12 120.9(19) . 4_665
C11 N1 C12 120.9(19) . .
C12 N1 C12 118(4) 4_665 .
O6 C11 N1 128.4(13) . .
O6 C11 H11 115.8 . .
N1 C11 H11 115.8 . .
C11 O6 Ho1 149.7(17) . .
N1 C12 H12A 109.5 . .
N1 C12 H12B 109.5 . .
H12A C12 H12B 109.5 . .
N1 C12 H12C 109.5 . .
H12A C12 H12C 109.5 . .
H12B C12 H12C 109.5 . .
O4 O4 Ho1 71.8(5) 19_665 .
loop_
_geom_bond_atom_site_label_1
_geom_bond_atom_site_label_2
_geom_bond_distance
_geom_bond_site_symmetry_2
Ho1 O1 2.137(9) 10_666
Ho1 O1 2.137(9) 19_665
Ho1 O1 2.137(9) 16_556
Ho1 O1 2.137(9) .
Ho1 O3 2.286(4) .
Ho1 O3 2.286(4) 13_666
Ho1 O4 2.424(17) .
Ho1 O4 2.424(17) 19_665
Ho1 O6 2.636(13) 16_556
Ho1 O6 2.636(13) .
Ho1 Ho1 3.7962(18) 13_666
Ho2 O2 2.261(12) 7_556
Ho2 O2 2.261(12) 16_556
Ho2 O2 2.261(12) 22
Ho2 O2 2.262(12) .
Ho2 O5 2.27(2) 7_556
Ho2 O5 2.27(2) .
Ho2 O3 2.293(7) .
O3 Ho1 2.286(4) 13_666
C1 C2 1.404(7) 16_557
C1 C2 1.404(7) .
C1 C3 1.496(9) .
O2 C10 1.17(2) .
C2 C2 1.352(17) 21_565
C2 C4 1.480(10) .
O1 C10 1.26(2) .
C3 H3A 0.9600 .
C3 H3B 0.9600 .
C3 H3C 0.9600 .
C4 C5 1.3900 .
C4 C9 1.3900 .
C5 C6 1.3900 .
C5 H5 0.9300 .
C6 C7 1.3900 .
C6 H6 0.9300 .
C7 C8 1.3900 .
C7 C10 1.500(9) .
C8 C9 1.3900 .
C8 H8 0.9300 .
C9 H9 0.9300 .
N1 C11 1.27(2) .
N1 C12 1.328(10) 4_665
N1 C12 1.328(10) .
C11 O6 1.203(9) .
C11 H11 0.9300 .
C12 H12A 0.9600 .
C12 H12B 0.9600 .
C12 H12C 0.9600 .
O4 O4 1.51(5) 19_665
