#------------------------------------------------------------------------------
#$Date: 2017-09-06 14:00:00 +0300 (Wed, 06 Sep 2017) $
#$Revision: 200217 $
#$URL: file:///home/coder/svn-repositories/cod/cif/4/51/41/4514177.cif $
#------------------------------------------------------------------------------
#
# This file is available in the Crystallography Open Database (COD),
# http://www.crystallography.net/
#
# All data on this site have been placed in the public domain by the
# contributors.
#
data_4514177
loop_
_publ_author_name
'Chen, Ya'
'Wang, Bin'
'Wang, Xiaoqing'
'Xie, Lin-Hua'
'Li, Jinping'
'Xie, Yabo'
'Li, Jian-Rong'
_publ_section_title
;
 A Copper(II)-Paddlewheel Metal-Organic Framework with Exceptional
 Hydrolytic Stability and Selective Adsorption and Detection Ability of
 Aniline in Water.
;
_journal_issue                   32
_journal_name_full               'ACS applied materials &amp; interfaces'
_journal_page_first              27027
_journal_page_last               27035
_journal_paper_doi               10.1021/acsami.7b07920
_journal_volume                  9
_journal_year                    2017
_chemical_formula_moiety         'C100 H60 Cu8 O40, 46.48(O)'
_chemical_formula_sum            'C100 H168.96 Cu8 O86.48'
_chemical_formula_weight         3263.30
_chemical_name_systematic
;
 ?
;
_space_group_crystal_system      tetragonal
_space_group_IT_number           129
_space_group_name_Hall           '-P 4a 2a'
_space_group_name_H-M_alt        'P 4/n m m'
_symmetry_space_group_name_Hall  '-P 4a 2a'
_symmetry_space_group_name_H-M   'P 4/n m m :2'
_atom_sites_solution_hydrogens   geom
_atom_sites_solution_primary     direct
_audit_creation_date             2017-05-22
_audit_creation_method
;
Olex2 1.2
(compiled 2017.03.28 svn.r3405 for OlexSys, GUI svn.r5337)
;
_cell_angle_alpha                90
_cell_angle_beta                 90
_cell_angle_gamma                90
_cell_formula_units_Z            1
_cell_length_a                   18.9911(10)
_cell_length_b                   18.9911(10)
_cell_length_c                   13.4276(13)
_cell_measurement_reflns_used    2543
_cell_measurement_temperature    100.01(10)
_cell_measurement_theta_max      67.2050
_cell_measurement_theta_min      4.6260
_cell_volume                     4842.8(6)
_computing_cell_refinement
;
CrysAlisPro, Agilent Technologies,
Version 1.171.37.35 (release 13-08-2014 CrysAlis171 .NET)
(compiled Aug 13 2014,18:06:01)
;
_computing_data_collection
;
CrysAlisPro, Agilent Technologies,
Version 1.171.37.35 (release 13-08-2014 CrysAlis171 .NET)
(compiled Aug 13 2014,18:06:01)
;
_computing_data_reduction
;
CrysAlisPro, Agilent Technologies,
Version 1.171.37.35 (release 13-08-2014 CrysAlis171 .NET)
(compiled Aug 13 2014,18:06:01)
;
_computing_molecular_graphics    'Olex2 (Dolomanov et al., 2009)'
_computing_publication_material  'Olex2 (Dolomanov et al., 2009)'
_computing_structure_refinement  'ShelXL (Sheldrick, 2015)'
_computing_structure_solution    'SIR2004 (Burla et al., 2007)'
_diffrn_ambient_temperature      100.01(10)
_diffrn_detector_area_resol_mean 10.3376
_diffrn_detector_type            AtlasS2
_diffrn_measured_fraction_theta_full 0.999
_diffrn_measured_fraction_theta_max 0.993
_diffrn_measurement_details
;
#__ type_ start__ end____ width___ exp.time_
  1 omega -114.00  -14.00   1.0000   15.0000
omega____ theta____ kappa____ phi______ frames
    -      -41.8105  -57.0000  150.0000 100

#__ type_ start__ end____ width___ exp.time_
  2 omega  -49.00   33.00   1.0000   15.0000
omega____ theta____ kappa____ phi______ frames
    -      -41.8105   37.0000  120.0000 82

#__ type_ start__ end____ width___ exp.time_
  3 omega  -96.00   -2.00   1.0000   15.0000
omega____ theta____ kappa____ phi______ frames
    -      -41.8105  125.0000   30.0000 94

#__ type_ start__ end____ width___ exp.time_
  4 omega   30.00   90.00   1.0000   40.0000
omega____ theta____ kappa____ phi______ frames
    -      105.8759  -30.0000   60.0000 60

#__ type_ start__ end____ width___ exp.time_
  5 omega   78.00  178.00   1.0000   40.0000
omega____ theta____ kappa____ phi______ frames
    -      105.8759   30.0000 -120.0000 100

#__ type_ start__ end____ width___ exp.time_
  6 omega   23.00  109.00   1.0000   40.0000
omega____ theta____ kappa____ phi______ frames
    -      105.8759  -94.0000  -60.0000 86

#__ type_ start__ end____ width___ exp.time_
  7 omega   78.00  178.00   1.0000   40.0000
omega____ theta____ kappa____ phi______ frames
    -      105.8759   30.0000  -30.0000 100

#__ type_ start__ end____ width___ exp.time_
  8 omega   33.00   98.00   1.0000   40.0000
omega____ theta____ kappa____ phi______ frames
    -      105.8759  -45.0000 -180.0000 65

#__ type_ start__ end____ width___ exp.time_
  9 omega   33.00   98.00   1.0000   40.0000
omega____ theta____ kappa____ phi______ frames
    -      105.8759  -45.0000  -90.0000 65

#__ type_ start__ end____ width___ exp.time_
 10 omega   23.00  109.00   1.0000   40.0000
omega____ theta____ kappa____ phi______ frames
    -      105.8759  -94.0000   30.0000 86

#__ type_ start__ end____ width___ exp.time_
 11 omega -114.00  -20.00   1.0000   15.0000
omega____ theta____ kappa____ phi______ frames
    -      -41.8105  -57.0000   30.0000 94
;
_diffrn_measurement_device       'four-circle diffractometer'
_diffrn_measurement_device_type  'SuperNova, Dual, Cu at zero, AtlasS2'
_diffrn_measurement_method       '\w scans'
_diffrn_radiation_type           CuK\a
_diffrn_radiation_wavelength     1.54184
_diffrn_reflns_av_R_equivalents  0.1522
_diffrn_reflns_av_unetI/netI     0.0640
_diffrn_reflns_Laue_measured_fraction_full 0.999
_diffrn_reflns_Laue_measured_fraction_max 0.993
_diffrn_reflns_limit_h_max       18
_diffrn_reflns_limit_h_min       -22
_diffrn_reflns_limit_k_max       23
_diffrn_reflns_limit_k_min       -22
_diffrn_reflns_limit_l_max       15
_diffrn_reflns_limit_l_min       -16
_diffrn_reflns_number            27132
_diffrn_reflns_point_group_measured_fraction_full 0.999
_diffrn_reflns_point_group_measured_fraction_max 0.993
_diffrn_reflns_theta_full        67.684
_diffrn_reflns_theta_max         74.233
_diffrn_reflns_theta_min         4.032
_exptl_absorpt_coefficient_mu    1.634
_exptl_absorpt_correction_T_max  1.00000
_exptl_absorpt_correction_T_min  0.37566
_exptl_absorpt_correction_type   multi-scan
_exptl_absorpt_process_details
;
CrysAlisPro, Agilent Technologies,
Version 1.171.37.35 (release 13-08-2014 CrysAlis171 .NET)
(compiled Aug 13 2014,18:06:01)
Empirical absorption correction using spherical harmonics,
 implemented in SCALE3 ABSPACK scaling algorithm.
;
_exptl_crystal_density_diffrn    1.119
_exptl_crystal_description       block
_exptl_crystal_F_000             1693
_refine_diff_density_max         0.908
_refine_diff_density_min         -0.699
_refine_diff_density_rms         0.121
_refine_ls_extinction_method     none
_refine_ls_goodness_of_fit_ref   1.028
_refine_ls_hydrogen_treatment    constr
_refine_ls_matrix_type           full
_refine_ls_number_parameters     163
_refine_ls_number_reflns         2724
_refine_ls_number_restraints     0
_refine_ls_restrained_S_all      1.028
_refine_ls_R_factor_all          0.1392
_refine_ls_R_factor_gt           0.0903
_refine_ls_shift/su_max          0.000
_refine_ls_shift/su_mean         0.000
_refine_ls_structure_factor_coef Fsqd
_refine_ls_weighting_details
'w=1/[\s^2^(Fo^2^)+(0.1913P)^2^] where P=(Fo^2^+2Fc^2^)/3'
_refine_ls_weighting_scheme      calc
_refine_ls_wR_factor_gt          0.2557
_refine_ls_wR_factor_ref         0.2974
_reflns_Friedel_coverage         0.000
_reflns_number_gt                1583
_reflns_number_total             2724
_reflns_threshold_expression     'I > 2\s(I)'
_iucr_refine_instructions_details
;
TITL cy044-100K-after in P4/nmm
CELL 1.54184 18.991058 18.991058 13.427588 90 90 90
ZERR 1 0.001044 0.001044 0.001319 0 0 0
LATT 1
SYMM 0.5-Y,+X,+Z
SYMM 0.5-X,0.5-Y,+Z
SYMM +Y,0.5-X,+Z
SYMM 0.5+X,-Y,-Z
SYMM -X,0.5+Y,-Z
SYMM 0.5+Y,0.5+X,-Z
SYMM -Y,-X,-Z
SFAC C H Cu O
UNIT 100 168.96 8 86.48
 
L.S. 20 0 0
PLAN  2
TEMP -173.14(10)
MORE -1
BOND $H
CONF
fmap 2 53
acta
REM <olex2.extras>
REM <HklSrc "%.\\water@BUT-155.hkl">
REM </olex2.extras>
 
WGHT    0.191300
FVAR       1.08326
CU1   3    0.467251    0.467251    0.572789    10.50000    0.03172    0.03172 =
         0.04943    0.00665    0.00665    0.00399
O2    4    0.379791    0.482521    0.498377    11.00000    0.03451    0.06291 =
         0.06148    0.02085   -0.00099   -0.00069
O1    4    0.460335    0.563386    0.622945    11.00000    0.06647    0.02922 =
         0.06042    0.00919    0.01769    0.00516
O3    4    0.416603    0.416603    0.698622    10.50000    0.05998    0.05998 =
         0.06800    0.02500    0.02500    0.00224
C9    1    0.250000    0.685594    0.106292    10.50000    0.03320    0.04944 =
         0.03732    0.00324    0.00000    0.00000
C6    1    0.250000    0.686251    0.210585    10.50000    0.03090    0.04580 =
         0.03377    0.00365    0.00000    0.00000
C10   1    0.250000    0.750000    0.053505    10.25000    0.03441    0.04500 =
         0.03853    0.00000    0.00000    0.00000
C4    1    0.312909    0.592956    0.303398    11.00000    0.03787    0.04663 =
         0.04301    0.00742    0.00581    0.00421
AFIX  43
H4    2    0.356188    0.610220    0.277656    11.00000   -1.20000
AFIX   0
C3    1    0.250000    0.513423    0.412290    10.50000    0.03992    0.04474 =
         0.04438    0.00968    0.00000    0.00000
AFIX  43
H3    2    0.250000    0.478196    0.462522    10.50000   -1.20000
AFIX   0
C5    1    0.250000    0.620797    0.269765    10.50000    0.03966    0.04464 =
         0.03518    0.00442    0.00000    0.00000
C7    1    0.250000    0.750000    0.261810    10.25000    0.04046    0.05306 =
         0.02840    0.00000    0.00000    0.00000
C8    1    0.250000    0.750000    0.375838    10.25000    0.07124    0.05306 =
         0.02842    0.00000    0.00000    0.00000
AFIX  33
H8A   2    0.250000    0.701348    0.400166    10.25000   -1.50000
H8B   2    0.207866    0.774326    0.400166    10.25000   -1.50000
H8C   2    0.292134    0.774326    0.400166    10.25000   -1.50000
AFIX   0
C2    1    0.313243    0.539240    0.375477    11.00000    0.03543    0.03972 =
         0.05097    0.00830   -0.00236    0.00182
C11   1    0.250000    0.617091    0.048522    10.50000    0.06737    0.04630 =
         0.04833   -0.00511    0.00000    0.00000
AFIX  33
H11A  2    0.250000    0.627233   -0.023038    10.50000   -1.50000
H11B  2    0.207866    0.589859    0.065614    10.50000   -1.50000
H11C  2    0.292134    0.589859    0.065614    10.50000   -1.50000
AFIX   0
C1    1    0.382454    0.518566    0.419450    11.00000    0.04591    0.03867 =
         0.05110    0.00439    0.00515    0.00689
 
PART 1
O5    4    0.513340    0.350677    0.823919    10.75000    0.11079    0.35603 =
         0.24459    0.22614    0.04442    0.09638
 
PART 0
PART 2
O6    4    0.323135    0.323135    0.615765    10.30000    0.05663    0.05663 =
         0.38830   -0.04439   -0.04439   -0.00443
 
PART 0
PART 3
O4    4    0.174650    0.325350    0.398312    10.30000    0.10771    0.10771 =
         0.22212    0.00545   -0.00545    0.02226
 
PART 0
PART 4
O8    4    0.549432    0.250000    0.670599    10.10500    0.06437    0.46668 =
         0.02074    0.00000   -0.02134    0.00000
 
PART 0
PART 5
O12   4    0.076833    0.532422    0.109697    10.50000    0.12158    0.40350 =
         0.18570   -0.14058   -0.03456   -0.05080
 
PART 0
PART 6
O10   4    0.172831    0.407840    0.178745    10.30000    0.21882    0.29478 =
         0.42299   -0.31494   -0.21600    0.16487
 
PART 0
PART 7
O9    4    0.434113    0.250000    0.931231    10.25000    0.10455    0.32639 =
         0.09706    0.00000   -0.00408    0.00000
 
PART 0
PART 8
O7    4    0.574093    0.250000    0.770521    10.25000    0.10779    0.23553 =
         0.19848    0.00000    0.04588    0.00000
 
PART 0
PART 9
O11   4    0.037900    0.462100    0.173425    10.15000    0.27509    0.27509 =
         0.04204   -0.01865    0.01865    0.18475
HKLF 4
 
REM  cy044-100K-after in P4/nmm
REM R1 =  0.0903 for    1583 Fo > 4sig(Fo)  and  0.1392 for all    2724 data
REM    163 parameters refined using      0 restraints
 
END  
     
WGHT      0.1913      0.0000 

REM Highest difference peak  0.908,  deepest hole -0.699,  1-sigma level  0.121
Q1    1   0.3000  0.2000  0.8609  10.50000  0.05    0.91
Q2    1   0.5000  0.5000  0.5000  10.25000  0.05    0.65

  REM The information below was added by Olex2.
  REM
  REM R1 = 0.0903 for 1583 Fo > 4sig(Fo) and 0.1392 for all 27756 data
  REM n/a parameters refined using n/a restraints
  REM Highest difference peak 0.91, deepest hole -0.70
  REM Mean Shift 0, Max Shift 0.000.

  REM +++ Tabular Listing of Refinement Information +++
  REM R1_all = 0.1392
  REM R1_gt = 0.0903
  REM wR_ref = 0.2974
  REM GOOF = 1.028
  REM Shift_max = 0.000
  REM Shift_mean = 0
  REM Reflections_all = 27756
  REM Reflections_gt = 1583
  REM Parameters = n/a
  REM Hole = -0.70
  REM Peak = 0.91
  REM Flack = n/a

  
;
_cod_data_source_file            am7b07920_si_002.cif
_cod_data_source_block           water@BUT-155
_cod_original_cell_volume        4842.8(7)
_cod_database_code               4514177
_shelxl_version_number           2014-1
_shelx_space_group_comment
;
The symmetry employed for this shelxl refinement is uniquely defined
by the following loop, which should always be used as a source of
symmetry information in preference to the above space-group names.
They are only intended as comments.
;
_olex2_refinement_description
;
1. Fixed Uiso
 At 1.2 times of:
  All C(H) groups
 At 1.5 times of:
  All C(H,H,H) groups
2. Others
 Fixed Sof: H8A(0.25) H8B(0.25) H8C(0.25) H11B(0.5) H11C(0.5) O5(0.75) O6(0.3)
 O4(0.3) O8(0.105) O12(0.5) O10(0.3) O9(0.25) O7(0.25) O11(0.15)
3.a Me refined with riding coordinates:
 C8(H8A,H8B,H8C), C11(H11A,H11B,H11C)
3.b Aromatic/amide H refined with riding coordinates:
 C4(H4), C3(H3)
;
_olex2_date_sample_data_collection 2016-07-24
_olex2_submission_special_instructions 'No special instructions were received'
loop_
_space_group_symop_operation_xyz
'x, y, z'
'-y+1/2, x, z'
'-x+1/2, -y+1/2, z'
'y, -x+1/2, z'
'x+1/2, -y, -z'
'-x, y+1/2, -z'
'y+1/2, x+1/2, -z'
'-y, -x, -z'
'-x, -y, -z'
'y-1/2, -x, -z'
'x-1/2, y-1/2, -z'
'-y, x-1/2, -z'
'-x-1/2, y, z'
'x, -y-1/2, z'
'-y-1/2, -x-1/2, z'
'y, x, z'
loop_
_atom_site_label
_atom_site_type_symbol
_atom_site_fract_x
_atom_site_fract_y
_atom_site_fract_z
_atom_site_U_iso_or_equiv
_atom_site_adp_type
_atom_site_occupancy
_atom_site_site_symmetry_order
_atom_site_calc_flag
_atom_site_refinement_flags_posn
_atom_site_refinement_flags_adp
_atom_site_refinement_flags_occupancy
_atom_site_disorder_assembly
_atom_site_disorder_group
Cu1 Cu 0.46725(4) 0.46725(4) 0.57279(9) 0.0376(4) Uani 1 2 d S T P . .
O2 O 0.3798(2) 0.4825(2) 0.4984(4) 0.0530(12) Uani 1 1 d . . . . .
O1 O 0.4603(2) 0.5634(2) 0.6229(3) 0.0520(11) Uani 1 1 d . . . . .
O3 O 0.4166(3) 0.4166(3) 0.6986(5) 0.0627(19) Uani 1 2 d S T P . .
C9 C 0.2500 0.6856(5) 0.1063(6) 0.0400(18) Uani 1 2 d S T P . .
C6 C 0.2500 0.6863(4) 0.2106(6) 0.0368(17) Uani 1 2 d S T P . .
C10 C 0.2500 0.7500 0.0535(8) 0.039(2) Uani 1 4 d S T P . .
C4 C 0.3129(3) 0.5930(3) 0.3034(4) 0.0425(13) Uani 1 1 d . . . . .
H4 H 0.3562 0.6102 0.2777 0.051 Uiso 1 1 calc R . . . .
C3 C 0.2500 0.5134(5) 0.4123(6) 0.0430(19) Uani 1 2 d S T P . .
H3 H 0.2500 0.4782 0.4625 0.052 Uiso 1 2 calc RS T P . .
C5 C 0.2500 0.6208(4) 0.2698(6) 0.0398(18) Uani 1 2 d S T P . .
C7 C 0.2500 0.7500 0.2618(8) 0.041(3) Uani 1 4 d S T P . .
C8 C 0.2500 0.7500 0.3758(8) 0.051(3) Uani 1 4 d S T P . .
H8A H 0.2500 0.7013 0.4002 0.076 Uiso 0.5 2 calc RS T P . .
H8B H 0.2079 0.7743 0.4002 0.076 Uiso 0.25 1 calc R . . . .
H8C H 0.2921 0.7743 0.4002 0.076 Uiso 0.25 1 calc R . . . .
C2 C 0.3132(3) 0.5392(3) 0.3755(5) 0.0420(13) Uani 1 1 d . . . . .
C11 C 0.2500 0.6171(5) 0.0485(7) 0.054(2) Uani 1 2 d S T P . .
H11A H 0.2500 0.6272 -0.0230 0.081 Uiso 1 2 calc RS T P . .
H11B H 0.2079 0.5899 0.0656 0.081 Uiso 0.5 1 calc R . . . .
H11C H 0.2921 0.5899 0.0656 0.081 Uiso 0.5 1 calc R . . . .
C1 C 0.3825(3) 0.5186(3) 0.4194(5) 0.0452(13) Uani 1 1 d . . . . .
O5_a O 0.5133(7) 0.3507(12) 0.8239(13) 0.237(11) Uani 0.75 1 d . . . A 1
O6_b O 0.3231(6) 0.3231(6) 0.616(2) 0.167(11) Uani 0.6 2 d S T P B 2
O4_c O 0.1746(8) 0.3254(8) 0.3983(19) 0.146(8) Uani 0.6 2 d S T P C 3
O8_d O 0.549(2) 0.2500 0.671(3) 0.18(4) Uani 0.21 2 d S T P D 4
O12_e O 0.0768(12) 0.5324(19) 0.110(2) 0.237(18) Uani 0.5 1 d . . . E 5
O10_f O 0.173(2) 0.408(2) 0.179(4) 0.31(4) Uani 0.3 1 d . . . F 6
O9_g O 0.4341(15) 0.2500 0.9312(18) 0.176(15) Uani 0.5 2 d S T P G 7
O7_h O 0.5741(16) 0.2500 0.771(3) 0.181(14) Uani 0.5 2 d S T P H 8
O11_i O 0.0379(16) 0.4621(16) 0.173(3) 0.20(4) Uani 0.3 2 d S T P I 9
loop_
_atom_site_aniso_label
_atom_site_aniso_U_11
_atom_site_aniso_U_22
_atom_site_aniso_U_33
_atom_site_aniso_U_23
_atom_site_aniso_U_13
_atom_site_aniso_U_12
Cu1 0.0317(5) 0.0317(5) 0.0494(7) 0.0067(4) 0.0067(4) 0.0040(4)
O2 0.035(2) 0.063(3) 0.061(3) 0.021(2) -0.001(2) -0.0007(18)
O1 0.066(3) 0.029(2) 0.060(3) 0.009(2) 0.018(2) 0.0052(19)
O3 0.060(3) 0.060(3) 0.068(4) 0.025(3) 0.025(3) 0.002(3)
C9 0.033(4) 0.049(5) 0.037(4) 0.003(4) 0.000 0.000
C6 0.031(4) 0.046(4) 0.034(4) 0.004(3) 0.000 0.000
C10 0.034(5) 0.045(6) 0.039(6) 0.000 0.000 0.000
C4 0.038(3) 0.047(3) 0.043(3) 0.007(3) 0.006(2) 0.004(2)
C3 0.040(4) 0.045(4) 0.044(5) 0.010(4) 0.000 0.000
C5 0.040(4) 0.045(4) 0.035(4) 0.004(3) 0.000 0.000
C7 0.040(6) 0.053(7) 0.028(5) 0.000 0.000 0.000
C8 0.071(9) 0.053(7) 0.028(6) 0.000 0.000 0.000
C2 0.035(3) 0.040(3) 0.051(3) 0.008(3) -0.002(2) 0.002(2)
C11 0.067(6) 0.046(5) 0.048(5) -0.005(4) 0.000 0.000
C1 0.046(3) 0.039(3) 0.051(3) 0.004(3) 0.005(3) 0.007(2)
loop_
_atom_type_symbol
_atom_type_description
_atom_type_scat_dispersion_real
_atom_type_scat_dispersion_imag
_atom_type_scat_source
C C 0.0181 0.0091 'International Tables Vol C Tables 4.2.6.8 and 6.1.1.4'
H H 0.0000 0.0000 'International Tables Vol C Tables 4.2.6.8 and 6.1.1.4'
Cu Cu -1.9646 0.5888 'International Tables Vol C Tables 4.2.6.8 and 6.1.1.4'
O O 0.0492 0.0322 'International Tables Vol C Tables 4.2.6.8 and 6.1.1.4'
loop_
_geom_angle_atom_site_label_1
_geom_angle_atom_site_label_2
_geom_angle_atom_site_label_3
_geom_angle
_geom_angle_site_symmetry_1
_geom_angle_site_symmetry_3
O2 Cu1 Cu1 87.24(13) . 9_666
O2 Cu1 Cu1 87.24(13) 16 9_666
O2 Cu1 O2 89.5(3) 16 .
O2 Cu1 O3 95.0(2) . .
O2 Cu1 O3 95.0(2) 16 .
O1 Cu1 Cu1 81.13(13) 16 9_666
O1 Cu1 Cu1 81.13(13) . 9_666
O1 Cu1 O2 88.9(2) 16 16
O1 Cu1 O2 88.9(2) . .
O1 Cu1 O2 168.32(19) . 16
O1 Cu1 O2 168.32(19) 16 .
O1 Cu1 O1 90.4(3) . 16
O1 Cu1 O3 96.7(2) . .
O1 Cu1 O3 96.7(2) 16 .
O3 Cu1 Cu1 176.9(2) . 9_666
C1 O2 Cu1 118.3(4) . .
C1 O1 Cu1 126.5(4) 8_666 .
C6 C9 C10 119.6(8) . .
C6 C9 C11 121.3(8) . .
C10 C9 C11 119.1(8) . .
C9 C6 C5 122.1(8) . .
C7 C6 C9 120.1(8) . .
C7 C6 C5 117.8(7) . .
C9 C10 C9 119.8(10) 3_565 .
C9 C10 C10 120.1(5) 3_565 10_565
C9 C10 C10 120.1(5) . 10_565
C5 C4 H4 119.8 . .
C5 C4 C2 120.4(6) . .
C2 C4 H4 119.8 . .
C2 C3 H3 120.1 . .
C2 C3 H3 120.1 13_655 .
C2 C3 C2 119.8(8) 13_655 .
C4 C5 C6 119.9(4) 13_655 .
C4 C5 C6 119.9(4) . .
C4 C5 C4 119.6(8) . 13_655
C6 C7 C6 120.8(10) . 3_565
C6 C7 C8 119.6(5) . .
C6 C7 C8 119.6(5) 3_565 .
C7 C8 H8A 109.5 . .
C7 C8 H8B 109.5 . .
C7 C8 H8C 109.5 . .
H8A C8 H8B 109.5 . .
H8A C8 H8C 109.5 . .
H8B C8 H8C 109.5 . .
C4 C2 C1 117.8(5) . .
C3 C2 C4 119.8(6) . .
C3 C2 C1 121.9(6) . .
C9 C11 H11A 109.5 . .
C9 C11 H11B 109.5 . .
C9 C11 H11C 109.5 . .
H11A C11 H11B 109.5 . .
H11A C11 H11C 109.5 . .
H11B C11 H11C 109.5 . .
O2 C1 C2 116.0(6) . .
O1 C1 O2 126.4(6) 8_666 .
O1 C1 C2 117.6(6) 8_666 .
loop_
_geom_bond_atom_site_label_1
_geom_bond_atom_site_label_2
_geom_bond_distance
_geom_bond_site_symmetry_2
Cu1 Cu1 2.630(2) 9_666
Cu1 O2 1.960(4) .
Cu1 O2 1.960(4) 16
Cu1 O1 1.950(4) 16
Cu1 O1 1.950(4) .
Cu1 O3 2.169(6) .
O2 C1 1.263(7) .
O1 C1 1.242(8) 8_666
C9 C6 1.400(11) .
C9 C10 1.414(10) .
C9 C11 1.515(12) .
C6 C5 1.475(11) .
C6 C7 1.392(9) .
C10 C9 1.414(10) 3_565
C10 C10 1.44(2) 10_565
C4 H4 0.9500 .
C4 C5 1.382(7) .
C4 C2 1.406(8) .
C3 H3 0.9500 .
C3 C2 1.388(7) .
C3 C2 1.388(7) 13_655
C5 C4 1.382(7) 13_655
C7 C6 1.392(9) 3_565
C7 C8 1.531(15) .
C8 H8A 0.9800 .
C8 H8B 0.9800 .
C8 H8C 0.9800 .
C2 C1 1.493(8) .
C11 H11A 0.9800 .
C11 H11B 0.9800 .
C11 H11C 0.9800 .
C1 O1 1.242(8) 8_666
loop_
_geom_torsion_atom_site_label_1
_geom_torsion_atom_site_label_2
_geom_torsion_atom_site_label_3
_geom_torsion_atom_site_label_4
_geom_torsion
_geom_torsion_site_symmetry_1
_geom_torsion_site_symmetry_4
Cu1 O2 C1 O1 8.4(9) . 8_666
Cu1 O2 C1 C2 -169.6(4) . .
C9 C6 C5 C4 -94.6(7) . 13_655
C9 C6 C5 C4 94.6(7) . .
C9 C6 C7 C6 0.000(2) . 3_565
C9 C6 C7 C8 180.000(3) . .
C6 C9 C10 C9 0.000(4) . 3_565
C6 C9 C10 C10 180.000(3) . 10_565
C10 C9 C6 C5 180.000(3) . .
C10 C9 C6 C7 0.000(3) . .
C4 C2 C1 O2 164.5(6) . .
C4 C2 C1 O1 -13.6(9) . 8_666
C3 C2 C1 O2 -7.4(10) . .
C3 C2 C1 O1 174.4(7) . 8_666
C5 C6 C7 C6 180.000(0) . 3_565
C5 C6 C7 C8 0.000(3) . .
C5 C4 C2 C3 0.7(11) . .
C5 C4 C2 C1 -171.4(6) . .
C7 C6 C5 C4 85.4(7) . 13_655
C7 C6 C5 C4 -85.4(7) . .
C2 C4 C5 C6 167.4(7) . .
C2 C4 C5 C4 -3.5(13) . 13_655
C2 C3 C2 C4 2.0(13) 13_655 .
C2 C3 C2 C1 173.8(5) 13_655 .
C11 C9 C6 C5 0.000(3) . .
C11 C9 C6 C7 180.000(3) . .
C11 C9 C10 C9 180.000(2) . 3_565
C11 C9 C10 C10 0.000(4) . 10_565
loop_
_refln_index_h
_refln_index_k
_refln_index_l
_refln_F_squared_meas
_refln_F_squared_sigma
0 0 2 9600.94 388.48
0 0 -2 10477.98 302.77
0 0 3 1399.5 306.1
0 0 -3 1512.24 200.81
0 0 -4 46562.46 906.71
0 0 4 48070.35 1178.28
0 0 5 12373.02 719.62
0 0 -5 11970.57 542.69
0 0 6 21348.75 1020.93
0 0 -6 20394.99 784.46
0 0 7 6215.92 681.74
0 0 -7 6489.92 508.74
0 0 -8 1314.71 321.33
0 0 8 1240.18 485.78
0 0 -8 1761.41 340.96
0 0 -9 4277.8 505.4
0 0 9 4061.32 690.83
0 0 -10 7780.13 507.88
0 0 10 6455.69 890.83
0 0 11 2253.25 673.39
0 0 -11 1857.3 345.08
0 0 -12 62.68 218.49
0 0 -13 2683.24 355.04
0 0 -14 3139.17 346.7
0 0 -15 2638.57 295.13
0 0 -16 915.31 186.58
0 -1 1 166.94 92.26
-1 0 1 241.24 92.86
0 1 -1 247.46 50.56
0 1 -1 273.19 60.56
0 -1 -1 278 56.16
0 1 1 241.59 67.92
0 1 -1 245.11 65.92
-1 0 -1 292.2 67.68
0 1 -2 574.52 122.48
-1 0 -2 629.71 117.6
1 0 2 575.15 162.12
-1 0 2 660.22 172.26
1 0 -2 469 108.29
0 -1 2 601.14 178.46
0 1 2 494.94 145.69
0 -1 -2 600.74 99.67
0 1 3 951.61 262.2
-1 0 -3 1180.14 191.46
1 0 3 1204.66 290.73
1 0 -3 1105.34 174.66
0 -1 3 753.45 290.68
0 1 -3 926.09 184.61
0 -1 -3 1039.44 165.19
-1 0 3 1231.11 318.33
1 0 4 1554.54 349.65
-1 0 4 1812.92 374.09
0 1 -4 1526.33 233.25
0 -1 4 1819.55 380.86
-1 0 -4 1750.06 238.23
0 1 4 1496.67 332.99
0 -1 -4 1733.6 217.96
1 0 -4 1553.26 220.1
1 0 -5 571.34 209.63
-1 0 -5 465.54 201.49
0 1 -5 397.61 191.51
0 -1 -5 352.16 170.31
1 0 5 323.21 298.21
-1 0 5 269.24 309.24
0 1 5 543 321.18
0 -1 5 292.68 329.41
0 1 -6 571.11 248.57
-1 0 6 291.86 340.04
1 0 6 513.17 351.8
-1 0 -6 786.11 244.11
0 1 -6 712.73 221.29
0 -1 -6 861.07 238.71
0 -1 6 263.97 352.54
1 0 -6 825.97 224.07
0 1 6 844.58 361.44
0 1 7 1930.4 460.17
0 -1 -7 1656.15 293.01
-1 0 -7 1519.02 306.28
-1 0 7 1181.37 404.18
0 1 -7 1843.45 320.72
0 -1 7 2313.81 513.01
1 0 -7 1756.39 311.02
1 0 7 1393.09 425.19
0 1 -7 1763.27 319.35
0 -1 -8 189.71 210.78
-1 0 -8 -64.52 212.78
1 0 -8 41.68 282.8
0 1 -8 477.85 294.02
0 -1 8 -212.77 396.62
1 0 8 -127.38 386.28
-1 0 8 -212.16 399.68
0 1 -8 60.53 234.09
0 1 -8 454.71 273.01
0 1 8 207.74 377.74
0 -1 -9 918.92 301.92
0 -1 -9 1081.76 356.03
-1 0 -9 621.27 344.26
1 0 -9 317.99 324.32
0 -1 9 -175.76 517.71
-1 0 -9 774.3 343.32
-1 0 9 310.16 445.95
0 1 9 578.35 460.05
1 0 9 277.28 491.7
0 -1 -10 579.56 254.02
-1 0 10 429.58 222.93
0 1 10 -123.32 561.41
0 -1 10 133.52 536.29
1 0 -10 316.19 223.2
0 1 -10 291.23 223.96
0 -1 10 532.39 253.1
1 0 10 1001.43 596.04
-1 0 10 784.14 524.77
1 0 -11 971.5 279.45
-1 0 -11 1002.95 283.9
0 1 -11 459.74 249.89
0 -1 -11 894.89 280.55
-1 0 11 1253.73 631.93
0 1 11 1430.36 595.07
1 0 11 47.23 518.12
0 -1 11 713.34 598.78
0 -1 -12 206.88 240.93
-1 0 -12 126.72 230.6
1 0 -12 200.55 232.68
0 1 -12 23.44 204.6
0 1 -13 252.82 209.2
0 1 13 -283.68 227.45
-1 0 -13 -125.12 210.59
1 0 -13 273.96 221.16
0 -1 -13 -137.25 217.21
0 -1 -14 263.37 210.2
0 1 -14 -151.61 192.46
-1 0 -14 6.6 183.32
-1 0 14 72.1 179.65
1 0 -14 31.75 194.47
0 1 -15 -50.33 157.16
1 0 -15 180.54 183.69
0 -1 -15 -47.46 163.75
-1 0 -15 -56.66 169.33
-1 0 -16 19.54 123.4
0 -1 -16 124 141.07
0 1 -16 163.74 137.64
1 0 -16 11.51 135.45
-1 1 1 3248.92 175.19
-1 1 1 3804.5 155.66
1 1 -1 3752.58 193.51
1 -1 1 3763.75 197.89
-1 1 -1 3699.52 167.6
1 1 1 3779.12 167.73
-1 1 -1 3695.5 162.19
-1 -1 1 3978.12 214.13
-1 -1 -1 3855.71 179.74
1 1 2 7929.56 326.26
-1 1 -2 7875.57 306.63
-1 -1 -2 7847.13 288.9
-1 1 -2 7729.09 306.13
-1 -1 2 8527.16 399.4
-1 1 2 8642.95 356.87
1 -1 -2 7867.92 226.35
1 1 -2 7599.59 326.67
1 -1 2 8229.97 379.73
-1 1 -3 5817.23 347.64
1 1 3 5249.38 399.62
-1 -1 -3 5839.56 320.16
1 1 -3 5907.7 351.83
-1 1 3 5251.4 420.47
1 1 -3 6170 385.15
1 -1 3 5533.13 445.51
-1 -1 3 5393.76 470.06
1 -1 -3 5487.65 276.83
-1 1 4 996.88 327.49
-1 1 -4 806.05 202.69
-1 -1 -4 1096.01 211.87
1 -1 4 1074.7 331.06
1 1 -4 1065.76 217.9
-1 -1 4 1149.31 365.24
1 1 4 819.09 302.74
1 1 -4 1154.89 262.54
1 -1 -4 701.38 177.65
-1 1 -5 188.36 190.4
1 1 5 408.04 309.87
1 -1 -5 310.6 165.81
-1 -1 -5 166.41 175.23
1 1 -5 234.11 228.87
1 -1 5 208.72 316.52
-1 1 5 641.03 347.28
1 1 -5 395.98 200
-1 -1 5 485.4 350.14
1 -1 -6 1784.65 273.88
-1 -1 -6 2001.27 301.52
-1 -1 6 2016.03 458.3
1 1 6 2215.08 424.27
1 1 -6 2081.79 311.52
-1 1 -6 2028.07 313.65
1 -1 6 1856.03 410.46
-1 1 6 2327.89 436.29
1 1 -6 2420.66 358.74
1 1 -7 360.36 249.45
-1 1 7 787.49 395.37
-1 -1 -7 399.47 224.43
1 -1 7 394.71 374.12
1 -1 -7 268.41 218.79
-1 -1 7 609.29 394.9
-1 1 -7 155.21 218.53
1 1 7 195.87 359.17
-1 1 -7 56.13 228.64
-1 1 -7 664.23 275.19
-1 1 8 292.93 370.06
-1 -1 -8 24.39 221.75
1 -1 8 16.48 429.07
-1 1 -8 84.53 229.28
1 1 8 474.61 427.44
1 1 -8 45.22 258.77
-1 -1 8 -277.89 425.59
-1 1 -8 128.82 236.7
1 -1 -8 219.6 244.53
-1 -1 -9 359.09 286.5
1 -1 -9 198.37 325.24
1 1 9 166.6 473.05
-1 1 -9 673.12 308.08
-1 -1 9 -273.25 515.84
1 -1 9 536.04 515.45
-1 1 9 -457.46 498.16
-1 1 -9 -17.87 243.06
1 1 10 50.62 554.63
1 -1 -10 70.26 212.47
1 -1 10 -152.32 583.77
-1 -1 -10 248.96 238.32
-1 1 -10 432.44 234.48
-1 -1 10 73.82 214.22
-1 -1 10 380.64 485.03
-1 1 10 317.36 448.66
1 1 -10 -164.26 237.38
-1 -1 -10 464.26 321.57
-1 -1 -10 140.1 298.85
-1 1 -11 5.34 219.56
1 -1 -11 127 235.37
-1 -1 11 -186.42 236.85
-1 -1 -11 101.97 228.6
-1 1 11 -688.91 581.44
1 -1 11 -309.07 621.63
1 1 -11 -176.8 234.44
-1 -1 11 -66.11 535.52
1 1 11 -574.3 589.93
-1 -1 -12 953.36 289.93
-1 1 -12 1055.13 260.19
1 1 -12 630.77 260.91
1 -1 -12 885.53 281.25
-1 -1 -13 118.83 213.7
1 1 -13 377.04 228.04
-1 1 -13 -0.39 209.63
1 -1 -13 287.69 226.06
-1 1 14 202.51 192.11
1 -1 -14 220.67 197.7
1 1 -14 114.58 198.26
-1 1 -14 -1.56 177.52
-1 -1 -14 -14.01 198.87
1 -1 -15 -113.4 169.52
1 1 -15 45.79 170.97
-1 1 -15 86.6 163.79
-1 -1 -15 175.59 172.79
-1 -1 -16 -1.67 130.44
1 -1 -16 50.88 135.34
1 1 -16 34.39 134.41
-1 1 -16 62.3 127.13
-2 0 0 61063.78 576.97
0 -2 0 62187.51 478.55
0 2 0 62149.06 605.2
2 0 1 96323.66 717.51
-2 0 -1 93951.12 856.02
2 0 -1 92365.93 1005.16
0 -2 1 93693.2 961
0 2 -1 93402.65 751.42
0 2 -1 96040.49 667.84
0 2 2 45667.13 677.58
0 2 -2 48200.48 777.71
0 -2 2 48494.13 912.89
0 2 -2 47020.81 634.57
0 -2 -2 47052.66 619.63
-2 0 2 45845.81 855.48
0 2 -2 46819.22 569.24
-2 0 -2 48187.27 736.93
2 0 3 11068.71 529.98
0 2 3 10504.9 462.19
0 2 -3 11028.47 400.02
-2 0 3 11638.34 557.77
0 2 -3 10885.33 440.12
0 -2 -3 10898.3 368.51
0 2 -3 10338.42 360.85
-2 0 -3 10115.42 409.25
0 -2 3 11067.39 572.1
0 -2 -4 11610.96 449.64
0 2 4 12298.29 596.21
2 0 4 11345.31 637.05
0 2 -4 11562.64 523.76
-2 0 -4 12393.42 528.94
0 2 -4 11368.85 483.65
0 -2 4 11478.89 678.29
-2 0 4 12141.32 675.87
0 2 -4 10501.79 442.71
-2 0 5 10228.53 690.14
2 0 5 9971.51 662.73
-2 0 -5 10166.85 545.9
0 -2 -5 10163.7 493.16
0 2 -5 10330.03 541.19
0 -2 5 10336.01 724.49
0 2 -5 9659.17 480.96
0 2 5 10949.69 653.44
0 2 -5 10065 520.67
-2 0 6 1088.77 369.71
0 -2 6 1286.31 429.02
2 0 6 1012.89 383.43
0 2 6 1291.41 373.36
0 2 -6 1140.18 246.92
-2 0 -6 1245.03 288.09
0 2 -6 1041.87 268.04
0 2 -6 1237.55 287.22
0 -2 -6 906.98 228.43
-2 0 -7 13548.57 756.63
0 -2 7 13214.33 944.18
0 2 7 14052.14 901.11
0 2 -7 13413.48 743.89
2 0 -7 12656.81 784.27
0 2 -7 12963.21 655.09
0 -2 -7 13052.27 682.46
0 2 -7 13654.92 709.2
2 0 7 13405.36 923.42
-2 0 7 13387.37 913.17
0 -2 8 2099.16 523.36
-2 0 8 2784.14 542.21
2 0 8 3172.75 607.93
0 2 -8 2475.19 342.47
-2 0 -8 2577.87 408.17
2 0 -8 2501.37 450.32
0 -2 -8 2803.18 367.99
0 2 8 2578.24 514.55
-2 0 -9 105.8 259.52
-2 0 9 318.05 433.2
2 0 9 53.21 485.73
2 0 -9 241.02 359.5
0 2 9 -233.7 481.6
0 -2 9 -314.34 489.56
-2 0 -9 163.18 325.25
0 -2 -9 -5.01 234.99
-2 0 -10 149 229.53
-2 0 -10 209.26 296.44
-2 0 10 231.78 518.77
0 -2 -10 135.82 229.67
-2 0 10 67.65 206.16
-2 0 -10 504.27 368.46
0 2 -10 62.43 206.45
0 -2 10 248.3 218.53
0 2 10 9.39 517.35
2 0 10 -382.83 579.54
0 -2 10 -273.16 555.86
2 0 -10 439.11 252.35
0 2 -11 652.18 261.24
2 0 -11 476.16 248.39
-2 0 -11 1186.38 291.92
-2 0 11 357.94 506.95
0 -2 11 751.66 592.03
0 -2 -11 1018.93 301.33
2 0 11 663.84 583.76
-2 0 -12 3460.53 387.79
0 -2 -12 3870.78 421.85
0 2 -12 3073.74 375.7
2 0 -12 3707.06 401.11
0 2 -13 1085.54 261.21
0 2 13 948.05 253.37
2 0 -13 1283.65 288.93
0 -2 -13 964.25 272.53
-2 0 -13 933.59 274.68
2 0 -14 2181.7 313.42
-2 0 14 1420.32 265.8
0 -2 -14 2204.12 316.58
0 2 14 1631.94 286.95
0 2 -14 1786.87 277.61
-2 0 -14 1668.25 288.22
-2 0 -15 1385.73 234.41
0 2 -15 1683.84 248.68
2 0 -15 1710.66 260.66
0 -2 -15 1976.21 268.44
-2 0 -16 287.45 144.58
0 -2 -16 129.64 146.71
2 0 -16 335.66 158.6
0 2 -16 259.49 139.14
1 2 0 39.11 89.66
-1 2 0 2.43 74.28
2 1 0 -47.4 89.64
-2 1 0 7.73 64.34
-2 1 0 25.79 48.82
2 1 1 2174.95 160.97
-1 2 1 2155.85 210.32
-1 -2 1 2267.53 189.72
1 -2 1 2229.19 183.17
2 1 -1 2165.88 208.5
2 -1 1 2099.08 88.91
-2 -1 1 2134.82 196.24
1 2 1 2101.54 165.88
-1 2 -1 2039.01 139.01
-2 1 -1 2170.91 170.53
-2 1 -1 2136.1 148.83
-2 1 1 2047.29 158.26
1 2 -1 2277.84 177
-1 2 -1 2043.87 154.74
1 2 -1 2019.03 97.72
1 -2 -2 2954.74 135.52
1 2 -2 2688.24 108.53
-2 1 2 2652.43 241.05
1 2 -2 2997.56 243.73
-2 -1 2 2908.95 286.37
-1 2 -2 2839.26 197.84
-2 1 -2 2998.79 248.33
1 2 2 2860.3 216.61
-1 2 -2 2791.79 215.77
-2 -1 -2 2832.34 220.66
-2 1 -2 2910.67 218.69
-1 -2 2 2832.43 297.72
1 -2 2 2731.14 277.43
-1 2 2 2977.05 221.25
2 1 -2 2843.08 271.36
-1 2 -2 2606.25 119
-1 -2 -2 2706.98 206.52
2 -1 2 3007.82 285.01
1 -2 -3 5080.69 244.29
-2 1 3 5982.39 428.98
2 -1 3 5451.87 458.67
1 2 -3 5220.09 230.73
-2 -1 -3 5237.81 325.75
2 1 3 5234.5 413.44
-1 2 -3 5534.22 342.36
2 -1 -3 5606.54 295.34
1 2 -3 5494.6 361.7
-1 -2 -3 5062.97 297.01
-1 2 -3 5240.91 251.1
-2 1 -3 5383.7 339.59
1 2 3 5311.49 374.05
-1 -2 3 5739.7 486.7
-1 2 -3 5248.95 311.83
1 -2 3 4878.51 445.98
-2 -1 3 4443.27 424.25
-2 1 -3 4964.16 369.5
2 1 -3 5426.86 405.84
-1 2 3 5245.85 387.38
2 1 4 2421.1 364.42
-1 2 4 3448.86 384.58
-2 1 4 2742.35 368.24
-1 2 -4 2874.28 290.91
-2 1 -4 2731.45 285.4
-1 -2 -4 2878.24 270.7
-1 2 -4 2946.17 300.96
1 2 -4 2692.48 310.56
2 1 -4 2949.68 357.21
2 -1 4 2652.48 397.07
1 2 4 3116.67 364.5
-1 2 -4 2866 251
-2 -1 4 2890.88 414.68
1 -2 -4 2612.38 229.64
1 2 -4 2786.22 231.03
1 -2 4 2648.18 395.55
-1 -2 4 2966.02 440.32
2 -1 -4 3171.75 273.74
-2 -1 -4 2911.2 287.6
-1 2 5 4.12 300.75
-2 1 -5 79.13 184.83
-2 -1 5 142.29 315.1
2 1 5 114.7 284.15
-2 1 5 -61.86 297.67
2 -1 5 67.55 303.64
-1 -2 5 257.51 430.07
1 -2 -5 20.68 148.16
-1 2 -5 136.13 187.06
-1 2 -5 103.36 187.3
-2 -1 -5 -76.84 182.95
2 1 -5 -144.82 239.52
1 -2 5 -194.55 328.84
-1 -2 -5 -45.34 172.35
1 2 -5 360.79 230.56
1 2 -5 20.89 152.52
1 2 5 -148.25 276.76
2 -1 -5 186.98 173.66
-1 2 -5 228.39 181.59
-1 2 -6 208.88 217.19
1 2 -6 434.76 249.91
-1 -2 6 315.85 365.86
-2 1 -6 465.26 256.9
-2 1 6 277.33 319.5
1 -2 -6 241.54 176.27
-2 -1 6 184.03 344.92
1 2 -6 245.16 182.69
2 -1 6 215.51 346.53
-1 -2 -6 226.57 183.65
-1 2 6 -133.85 300.95
-1 2 -6 334.26 210.74
2 1 -6 418.98 267.75
1 -2 6 552.36 361.99
2 1 6 323.59 328.34
-2 1 -6 348.07 204.32
1 2 6 274.11 310.4
-2 -1 -6 140.19 209.88
-1 2 -6 440.7 229
-2 -1 -7 1028.82 276.99
2 1 7 469.58 383.27
-2 -1 7 1134.1 429.85
-1 2 -7 978.68 286.07
-2 1 -7 598.44 223.36
-2 1 7 1022.24 397.23
1 2 7 597.66 368.88
1 -2 -7 863.69 244.94
-1 2 -7 788.37 248.84
-1 2 -7 371.79 209.53
1 2 -7 708.83 214.41
-2 1 -7 448.06 231.51
-1 2 7 691.82 351.49
2 -1 7 985.8 428.91
1 2 -7 896.71 282.67
-2 1 -7 907.81 301.74
-1 -2 -7 959.13 244.97
1 -2 7 960.19 442.74
-1 -2 7 914.21 415.02
2 1 -7 669.28 292.57
1 2 8 889.44 434.12
-2 1 -8 378.97 258.37
-1 2 -8 414.65 249.19
1 2 -8 345.2 264.37
2 1 8 301.61 423.64
-1 2 -8 826.8 317.54
-2 -1 8 152.29 409.8
-2 1 8 356.11 378.6
-1 2 8 -345.66 453.01
2 -1 8 416.66 431.1
1 -2 8 -61.11 398.81
2 1 -8 158.45 279.74
-1 -2 -8 286.45 243.98
1 -2 -8 448.7 238.16
-1 -2 8 -139.34 427.67
-2 -1 -8 260.94 244.77
-2 1 -8 414.82 253.13
2 -1 -8 272.13 305.14
-2 -1 -9 340.02 272.43
-2 1 -9 6.14 247.04
-1 -2 9 337.15 488.39
2 1 -9 -102.84 303.6
1 -2 9 26.52 469.92
2 1 9 387.13 457.25
-1 -2 -9 13.24 268.91
-2 1 -9 379.23 303.65
-2 -1 9 536.28 490.8
1 2 9 -716.68 540.4
2 -1 9 219.01 506.81
2 -1 -9 236.15 326.99
-1 2 9 596.95 418.04
-2 1 9 420.36 445.32
2 -1 10 276.5 542.91
-2 1 10 378.19 432.74
-1 -2 -10 624.35 275.63
2 1 10 371.62 554.55
2 -1 -10 -74.88 229.78
-1 -2 -10 436.7 312.06
-1 2 -10 366.42 237.08
-1 -2 10 1070.39 547.45
1 2 -10 42.54 208.37
1 -2 10 142.59 530.12
1 2 10 -202.54 523.23
-2 1 -10 509.42 240.42
-2 -1 -10 410.78 317.3
-1 -2 10 368.14 201.86
2 1 -10 -112.03 251.2
-2 -1 10 395.8 223.89
-2 1 10 220.28 214.8
1 -2 -10 440.77 230.98
-2 -1 -10 409.45 239.84
-2 -1 10 983.7 536.79
1 -2 10 220.69 222.57
-1 2 10 744.97 535.94
-2 -1 -10 386.24 326.55
2 -1 -10 500.73 387.13
1 -2 -10 6.52 362.11
-2 1 -11 217.54 231.82
-1 -2 11 424.76 491.32
-1 -2 -11 629.57 273.75
2 -1 -11 249.8 229.96
2 1 11 672.03 553.31
-2 1 11 22.51 440.66
1 -2 11 -63.23 657.1
-1 2 -11 497.95 257.61
1 -2 -11 651.78 276.73
-1 -2 11 346.71 243.01
2 1 -11 105.89 224.19
-2 -1 -11 682.42 266.39
2 -1 11 -88.47 589.36
-2 -1 11 604.12 254.05
-2 -1 11 432.67 527.43
1 2 -11 420.4 234.05
2 -1 -12 231.33 228.68
-1 -2 -12 425 251.94
1 2 12 289.12 234.07
1 2 -12 -68.97 204.5
1 -2 -12 182.58 225.55
-2 1 -12 -11.46 206.09
-2 -1 -12 -96.88 213.9
2 1 -12 222.79 221.79
-1 2 -12 365.27 227.76
-1 2 13 -376.33 227.28
-1 2 -13 -88.49 198.42
-2 -1 -13 -74.6 213.2
-2 1 -13 -160.18 202.79
1 2 -13 122.74 222.33
2 1 -13 135.3 215.85
2 -1 -13 185.44 243.23
-1 -2 -13 119.86 243.68
1 -2 -13 145.25 229.55
1 2 -14 -164.5 209.58
1 -2 -14 69.54 191.27
-1 2 14 12 181.71
2 1 -14 256.13 203.65
-2 1 14 159.33 205.63
2 -1 -14 7.12 197.72
-2 1 -14 72.78 186.48
-1 -2 -14 150.52 204.26
-2 -1 -14 33.35 181.92
-1 2 -14 -28.88 174.15
-2 -1 -15 -128.83 161.68
-1 -2 -15 -259.87 181.78
-1 2 -15 -27.46 154.08
-2 1 15 -126.74 169.46
1 -2 -15 205.59 181.58
1 2 -15 106.25 171.62
-2 1 -15 -90.12 167.66
2 1 -15 75.79 168.58
2 -1 -15 191.89 186.46
-2 1 -16 76.97 115.41
-2 -1 -16 -57.07 126.23
1 -2 -16 -65.14 142.77
2 -1 -16 -94.89 141.41
-1 -2 -16 -16.09 132.31
-1 2 -16 111.45 122.03
2 1 -16 -92.76 141.71
1 2 -16 -86.67 125.44
-2 2 0 80331.54 849.25
2 2 0 82144.74 974.44
-2 2 0 79981.95 611.61
2 2 1 15716.88 438.69
-2 -2 1 15960.69 475.13
-2 2 -1 16231.86 387.29
2 2 -1 15496.32 468.95
-2 2 -1 15624.93 391.73
-2 2 1 15900.88 453.05
-2 -2 2 16138.67 581.48
2 -2 2 16988.06 598.61
-2 2 -2 17065.63 499.14
2 2 -2 17731.59 572.2
-2 2 -2 17785.2 507.32
-2 2 2 15999.38 465.93
-2 -2 -2 17813.55 522.65
-2 -2 -3 2437.42 256.13
-2 2 -3 2060.58 114.25
2 -2 3 2864.21 385.68
-2 2 -3 2716.46 276.42
2 2 3 2895.9 333.77
-2 2 -3 2554.47 265.18
2 -2 -3 2302.68 180.75
2 2 -3 2565.84 317.42
-2 -2 3 2327.93 357.96
2 2 -3 2110.55 115.96
-2 2 3 3020.58 329.03
-2 2 -4 7550.64 293.86
-2 2 -4 7849.89 447.23
2 -2 -4 7224.09 349.33
2 2 -4 7712.27 486.74
-2 2 -4 6977.82 423.75
2 -2 4 7311.84 550.31
-2 -2 -4 7270.31 422.33
-2 -2 4 7690.91 566.43
-2 2 4 8213.97 524.27
2 2 4 7447.94 500.62
2 -2 5 7226.38 617.39
-2 2 -5 7804.56 369.42
-2 2 -5 7239.51 477.97
-2 -2 5 7023.08 634.39
2 2 -5 7474.67 532.62
-2 2 -5 7594.27 497.66
-2 -2 -5 8001.73 477.03
2 2 5 7423.63 566.97
2 -2 -5 7132.69 404.25
-2 2 5 7269.92 569.52
2 2 -6 18115.25 830.29
2 -2 -6 18614.11 691.05
2 2 6 17218.75 916.32
-2 2 -6 18293.15 619.88
-2 2 -6 17769.39 777.11
2 -2 6 16570.69 943.55
2 2 -6 17864.98 589.44
-2 2 6 18651.36 928.02
-2 -2 6 18178.87 1018.26
-2 2 -6 18037.4 800.86
-2 -2 -6 19841.9 806.87
-2 2 -7 5497.82 511.32
-2 -2 -7 5623.67 501.4
-2 2 -7 5280.3 484.36
-2 -2 7 4981.09 646.06
2 2 7 4841.37 606.23
2 2 -7 5344.39 520.08
-2 2 7 5888.74 623.62
2 -2 7 5611.52 669.3
-2 2 -8 1104.22 305.19
-2 2 8 1144.65 422.55
-2 2 -8 1276.66 336.71
2 2 8 1153.66 507.09
2 -2 8 1365.48 532.24
-2 -2 -8 1298.93 313.75
2 2 -8 716.54 307.19
-2 -2 8 1235.33 502.04
-2 2 9 905.92 493.45
-2 2 -9 1147.93 378.7
-2 2 -9 400.61 249.41
-2 -2 -9 649.38 303.78
2 2 9 428.87 457.84
2 -2 9 290.75 474.27
-2 -2 9 1299.6 569.32
2 -2 -9 353.66 368.1
-2 -2 10 95.47 210.78
-2 2 -10 148.3 214.99
2 2 -10 -298.43 266.86
2 2 10 289.18 547.61
2 -2 10 105.84 519.83
-2 -2 -10 82.7 230.29
2 -2 -10 -219.54 220.33
-2 -2 10 166.78 504.08
-2 2 10 447.26 445.19
2 -2 -10 129.97 428.95
-2 -2 -10 226.81 276.5
-2 -2 -11 -2.26 231.16
2 -2 -11 166.93 242.27
2 2 -11 -148.04 232.42
-2 -2 11 -361.79 518.6
-2 2 -11 335.13 237.63
2 -2 11 -253.73 559.87
-2 -2 11 27.07 212.75
2 2 -12 320.4 216.09
-2 -2 -12 591.47 268.62
-2 2 -12 636.96 230.83
2 -2 -12 474.19 258.43
-2 -2 -13 2098.11 339.44
2 2 -13 1481.37 291.24
2 -2 -13 1631.46 317.85
-2 2 -13 1607 282.41
-2 -2 -14 862.53 237.79
-2 2 -14 691.25 210.86
-2 2 14 622.16 219.11
2 2 -14 1006.39 242.36
2 -2 -14 702.06 236
-2 -2 -15 612.12 194.47
-2 2 15 681.37 197.98
2 -2 -15 651.92 209.68
-2 2 -15 520.4 179.92
2 2 -15 438.75 186.53
-2 2 -16 204.83 117.02
2 -2 -16 106.67 142.22
-2 -2 -16 163.02 142.8
2 2 -16 164.72 140.18
3 0 0 16.62 117.03
0 3 0 87.02 134.31
-3 0 0 22.46 81.64
0 -3 0 9.5 73.3
0 3 0 5.24 95.98
0 -3 1 28923.47 609.2
-3 0 -1 28801 615.37
3 0 -1 31358.16 694.38
0 3 -1 28937.57 472.93
-3 0 1 28719.39 444.24
0 3 -1 29380.46 505.41
3 0 1 29961.28 520.38
-3 0 -1 30043.32 578.89
-3 0 -2 37042.2 722.53
0 3 -2 37778.78 615.29
-3 0 2 40065.56 880.88
3 0 -2 40410.87 886.35
0 3 -2 37172.94 528.51
-3 0 2 36202.88 589.95
3 0 2 38296.68 545.44
0 -3 -2 37338.3 618.22
0 -3 2 39460.77 883.58
0 3 2 38195.92 552.5
0 -3 -3 7583 326.04
0 3 -3 7861.47 341.15
3 0 -3 7786.97 495.37
-3 0 -3 7825.77 400.78
0 3 -3 7499.14 286.74
-3 0 3 7908.27 500.74
0 3 3 7503.1 387.2
3 0 3 7798.35 503.32
0 -3 3 7625.96 542.47
0 -3 4 2593.57 432.73
3 0 -4 2146.8 345.17
-3 0 -4 2400.82 281.51
0 3 -4 2344.16 216.03
0 3 -4 2217.56 253.11
-3 0 4 2878.69 397.32
0 3 -4 2807.23 317.71
0 -3 -4 2468.24 239.94
0 3 4 2728.58 336.62
3 0 4 2363.05 396.83
0 3 5 14291.91 705.3
0 3 -5 13517.38 632.65
3 0 5 12549.33 756.91
-3 0 5 13781.32 778.01
0 3 -5 14170.53 581.22
0 -3 -5 13114.85 537.82
0 -3 5 13348.45 823.9
3 0 -5 12662.72 693.71
0 3 -5 13328.25 508.19
-3 0 -5 14098.24 638.6
3 0 -6 6285.76 553.36
0 3 6 6941.2 589.27
3 0 6 6190.94 622.98
-3 0 6 6588.73 624.88
0 3 -6 6247.81 399.77
-3 0 -6 6286.45 494.4
0 3 -6 7207.15 478.51
0 -3 -6 6687.24 445.35
0 -3 6 6154.27 665.93
3 0 7 -416.78 390.72
0 3 7 244.73 330.84
3 0 -7 325.47 311.58
0 -3 -7 214.62 208.52
-3 0 -7 -110.95 245.48
0 3 -7 29.79 178.61
-3 0 7 296.05 377.56
0 3 -7 -197.91 216.24
0 -3 7 420.47 420.12
0 -3 -8 5814.24 508.57
0 -3 8 6071.07 780.87
-3 0 8 6207.29 728.63
-3 0 -8 6622.49 609.76
3 0 8 5862.52 744.98
-3 0 -8 5898.76 597.11
3 0 -8 6105.68 646.11
0 3 8 5743.82 672.36
0 -3 -9 4720.45 417.5
3 0 9 4165.93 760.72
0 3 9 4738.4 703.09
-3 0 9 4667.01 717.99
0 -3 9 3936.33 744.68
-3 0 -9 4032.19 555.26
-3 0 -9 3946.23 545.66
3 0 -9 3857.26 590.8
-3 0 -10 1220.32 284.06
-3 0 10 554.41 459.86
3 0 -10 172.46 227.85
0 -3 10 234.05 516.39
3 0 -10 880.84 433.25
3 0 10 1068.44 615.26
-3 0 10 738.01 250.14
-3 0 -10 1145.07 389.45
-3 0 -10 1137.5 391.12
0 3 -10 458.71 224.55
0 -3 -10 1525.89 312.19
0 -3 10 834.63 263.41
0 -3 -11 255.53 253.12
0 3 -11 303.71 241.29
-3 0 -11 477.37 350.61
-3 0 11 -250.85 456.42
-3 0 -11 28.64 218.19
0 -3 11 487.81 590.31
3 0 11 -185.54 627.09
-3 0 11 94.03 216.6
0 -3 11 119.03 238.85
3 0 -11 -389.4 264.82
0 -3 -12 391.61 260.52
-3 0 -12 539.04 244.33
0 3 12 91.88 212.92
0 3 -12 614.54 246.9
3 0 -12 136.7 225.95
0 -3 -13 623.82 252.5
3 0 -13 855.04 265.81
0 3 13 458.8 228.36
0 3 -13 648.72 234.78
-3 0 -13 611.2 238.31
0 3 -14 -25.53 170.38
0 -3 -14 162.66 203.75
0 3 14 81.28 182.74
3 0 -14 176.91 222.7
-3 0 -14 -138.76 183.67
0 -3 -15 -58.42 168.36
3 0 -15 198.94 183.04
0 3 -15 84.22 148.58
-3 0 15 150.59 158.93
-3 0 -15 6.39 149.11
0 -3 -16 246.44 148.45
0 3 -16 372.02 133.27
-3 0 -16 380.71 149.46
3 0 -16 120.15 140.2
-3 -1 0 6354.04 255.67
-1 3 0 6480.79 298.92
1 -3 0 6192.42 203.96
3 1 0 7072.52 333.93
-3 1 0 6064.7 226.12
1 3 0 6201.08 292.87
3 -1 0 6755.84 292.14
-3 1 0 6568.61 271.17
-3 1 -1 2954.61 233.25
-3 1 1 2750.41 194.8
3 1 1 2881.7 214.76
1 3 -1 2941.53 175.15
3 -1 1 3115.85 167.18
1 -3 1 2625.13 221.75
-1 3 1 2872.82 301.46
1 3 1 2829.95 233.91
-1 3 -1 2711.92 183.53
1 3 -1 2769.1 223.63
-3 -1 1 2561.65 122.35
-3 1 -1 2878.11 191.69
3 1 -1 2776.69 260.7
-1 -3 1 2761.08 232.87
-3 -1 -2 85.59 154.19
1 3 -2 165.98 82.65
3 1 2 165.59 137.51
-1 -3 2 -78.38 250.11
-1 3 -2 130.01 85.63
-3 1 -2 160.17 149.42
-3 1 2 300.78 194.17
-1 3 -2 138.57 159.86
-3 -1 2 -135.63 239.48
1 3 -2 -6.27 156.73
1 -3 2 170.62 232.23
-1 3 2 151.62 122.7
-1 3 -2 1.8 115.58
1 3 2 12.6 135.99
-3 1 -2 152.91 178.02
1 -3 -2 91.64 94.71
3 1 -2 18.74 209.53
-1 -3 -3 3075.52 264.16
-3 -1 -3 3127.87 291.21
-3 1 -3 3139.41 325.99
-3 -1 3 2978.04 388.3
-1 3 -3 2994.45 285.42
1 3 3 3127.29 301.7
1 3 -3 3163.35 300.02
-1 3 -3 2996.91 186.08
-1 -3 3 3155.03 408.28
3 1 3 2945.44 362.75
3 -1 3 3245.63 394.19
-3 1 -3 2890.75 275.76
1 -3 3 2847.07 389.42
-1 3 -3 2965.56 243.18
1 3 -3 3152.58 163.17
1 -3 -3 3106.74 195.9
-1 3 3 2923.69 286.07
-3 1 3 3014.65 350.09
3 1 -3 3351.68 383.85
1 -3 4 3979.4 460.5
-1 3 -4 4492.48 311.57
3 1 -4 4355.91 425.93
-1 -3 -4 4397.36 313.17
-3 1 4 4530.63 443.6
1 3 -4 4205.35 223.36
1 -3 -4 3976.69 256.87
3 1 4 3685.75 412.98
-1 -3 4 4591.34 499.46
1 3 4 4093.06 379.98
-3 -1 4 4570.13 482.68
-3 1 -4 4291 357.18
3 -1 4 4567.65 469.44
1 3 -4 4355.6 357.75
-3 -1 -4 4244.82 340.91
-1 3 -4 4286.54 251.32
-1 3 4 4655.2 388.53
-1 3 -4 4209.98 346.67
-3 1 -4 3802.92 375.01
-3 1 -5 122.31 192.88
-3 1 5 493.8 299.14
-1 3 -5 488.76 172.75
1 3 -5 342.81 223.26
-1 3 -5 203.49 200.31
3 1 5 477.09 313.66
1 -3 5 335.32 331
-1 3 -5 171.96 170.77
-1 3 5 103.77 275.2
-3 1 -5 340 253.5
1 -3 -5 152.18 152.67
-3 -1 5 312.91 313.09
3 -1 5 282.01 311.86
-3 -1 -5 82.17 177.91
1 3 5 282.69 262.65
3 1 -5 284.37 272.26
1 3 -5 240.45 134.43
-1 -3 -5 332.37 173.66
-1 -3 5 53.57 329.55
-1 3 -6 426.98 197.9
-3 -1 -6 63.21 205.93
-3 1 -6 367.57 214.77
-1 3 6 -169.64 302.41
-3 1 6 776.84 361.09
-3 -1 6 654.71 386.21
3 1 6 439.77 342.72
1 3 -6 581.04 247.81
3 1 -6 437.68 281.33
-1 3 -6 404.44 198.63
3 -1 6 463.61 366.34
1 3 -6 274.33 141.36
1 -3 -6 358.4 182.76
-1 3 -6 358.51 230.77
-3 1 -6 322.35 245.8
1 3 6 661.97 332.75
-1 -3 -6 227.24 190.06
-1 -3 6 206.41 363.73
1 -3 6 448.74 389.56
-3 -1 -7 -155.96 224.16
-1 3 -7 122.85 185.74
-1 -3 7 -296.01 415.06
1 3 -7 111.95 240.05
-3 1 7 355.59 356.21
1 3 7 924.54 400.88
-1 -3 -7 172.9 204.15
1 -3 7 169.03 383.53
-1 3 -7 284.02 257.04
-1 3 7 -170.1 330.35
3 -1 -7 202.28 286.11
-3 1 -7 34.91 233.79
-3 -1 7 66.89 368.16
-3 1 -7 -250.76 260.8
1 -3 -7 209.88 181.29
3 -1 7 66.58 367.55
3 1 7 -308.62 397.29
3 1 -7 -37.27 278.56
-3 1 8 252.37 362.7
3 1 -8 125.62 284.12
-1 3 -8 -44.16 196.1
-3 1 -8 64.7 251.64
3 1 8 28.39 412.54
-3 -1 8 217.38 401.22
-3 1 -8 103.24 245.69
1 -3 -8 270.18 220.4
-1 -3 -8 75.42 209.11
3 -1 -8 27.68 312.46
1 -3 8 30.51 439.98
3 -1 8 552.02 441.79
-1 3 8 -113.44 386.33
-1 -3 8 58.54 422.58
1 3 8 -111.2 398.3
-3 -1 -8 129.48 249.86
3 -1 9 444.34 517.09
1 -3 -9 160.06 215.54
-3 -1 -9 293.88 354.73
-1 -3 -9 182.24 235.64
3 1 9 30.09 465.82
-3 -1 -9 111.24 268.08
-3 1 9 -32.11 186.52
-3 -1 9 816 477.75
1 -3 9 528.3 525.77
-1 -3 -9 199.23 229.98
-1 -3 9 21.56 466.84
-3 1 -9 -174.11 288.72
-1 3 9 179.97 418.31
1 3 9 -74.91 474.86
3 1 -9 -244.57 360.43
3 -1 -9 62.6 355.69
-3 1 -9 -329.04 290.78
-3 1 9 410.13 434.44
1 -3 10 -3.68 209.43
-3 1 10 -428.56 456.62
-3 -1 -10 30.97 212.89
-1 3 -10 -23.53 195.72
-3 1 -10 526.2 356.88
3 1 10 -331.73 552.37
3 -1 -10 -302.87 398.3
-3 1 10 -217.01 224.22
-1 -3 10 -146.39 233.54
1 -3 -10 -368.35 451.64
1 -3 10 123.02 523.54
3 -1 10 633.99 546.61
-3 -1 -10 41.37 340.11
3 -1 -10 -286.55 224.24
1 -3 -10 168.49 235.7
-1 -3 -10 63.98 236.53
1 3 -10 -130.02 219.88
-3 -1 10 -118.85 207.97
-3 -1 10 -306.64 464.29
-3 1 -10 -185.08 309.05
-3 -1 -10 174.44 281.39
-3 1 -10 165.18 215.5
-1 -3 10 103.47 498.04
-1 -3 11 -55.44 534.79
-1 3 -11 -90.54 223.57
-3 -1 11 -21.01 452.95
-1 -3 11 -68.57 231.93
1 -3 11 -278.16 607.9
-1 -3 -11 369.64 267.52
3 -1 11 -45.5 601.8
-3 -1 -11 863.96 358.14
-3 1 11 322.81 475.78
1 3 11 -220.34 237.71
1 -3 -11 515.62 271.37
-3 1 -11 142.95 224.29
3 1 -11 -238.48 237.33
3 1 11 445.34 567.51
-3 -1 11 -60.03 231.57
1 3 -11 80.29 218.92
3 -1 -11 25.24 222.78
-3 -1 -11 -3.56 225.86
-3 -1 -12 -5.52 207.63
3 1 -12 -269.21 233.81
3 -1 -12 99.55 225.72
1 3 12 -82.55 211.01
1 -3 -12 181.66 239.02
-1 -3 -12 310.19 236.72
-3 1 -12 141.96 206.04
1 3 -12 339.19 216.06
-1 3 -12 118.9 215.47
3 -1 -13 627.67 250.9
3 1 -13 222.42 218.37
-3 1 -13 259.2 201.92
1 3 -13 340.64 218.45
1 -3 -13 307.49 222.77
-1 3 -13 424.89 223.24
-3 -1 -13 605.76 239.77
-1 -3 -13 416.44 236.77
1 3 13 323.79 215.66
-1 3 13 216.75 210.01
-1 -3 -14 6.44 192.11
-1 3 -14 200.67 181.98
-3 1 14 -1.59 185.37
3 1 -14 164.54 200.03
1 3 -14 -104.42 197.89
-1 3 14 -107.86 184.14
3 -1 -14 443.79 220.74
-3 1 -14 48.87 177.16
-3 -1 -14 206.53 197.25
1 -3 -14 66.21 194.13
-3 -1 -15 26.86 165.84
-1 -3 -15 -50.49 171.75
-3 -1 15 97.62 154.25
-3 1 15 -72.1 153.49
3 -1 -15 80.04 180
1 3 -15 107.15 148.66
-3 1 -15 36.3 145.65
3 1 -15 183.02 177.5
-1 3 -15 4.27 143.65
1 -3 -15 94.79 177.97
-1 3 15 147.95 155.05
3 1 -16 61.21 134.18
1 3 -16 157.61 117.35
-3 -1 -16 27.6 117.63
1 -3 -16 -32.2 129.27
-1 -3 -16 116.26 136.88
-3 1 -16 -31 108.35
3 -1 -16 -99.8 143.37
-3 2 0 78.48 116.91
-2 3 0 13.28 112.85
-3 2 0 -52.99 75.07
3 2 0 28.38 146.86
2 3 0 -105.89 145.67
-3 2 1 261.87 142.28
-2 -3 1 203.17 162.84
-2 3 -1 435.07 132.99
-3 2 -1 440.16 141.58
2 -3 1 139.24 169.99
2 3 -1 445.57 180.83
3 -2 1 259.42 89
2 3 1 448.28 185.76
-2 3 -1 258.77 133.59
3 2 -1 195.7 187.71
-3 2 -1 382.19 125.49
-3 -2 1 182.44 64.76
-2 3 1 226.62 177.84
3 2 1 323.31 172.34
-3 -2 -2 3435.01 299.7
-3 2 -2 3618.78 285.31
-3 -2 2 3422.28 347.99
-3 2 2 3744.87 334.65
3 2 -2 3106.78 335.29
3 2 2 3259.57 276.16
-3 2 -2 3538.65 266.42
3 -2 2 3293.53 358.37
-2 3 -2 3371.6 251.56
2 -3 2 3537.54 358.88
2 3 -2 3442.52 315.59
-2 3 -2 3475.13 271.11
-2 -3 2 3774.02 366.1
-2 3 -3 2112.26 265.95
2 3 3 1959.99 288.32
2 -3 3 2054.73 358.78
-3 2 3 2043.43 296.51
-3 2 -3 2199.65 287.23
-2 3 3 2181.23 263.68
-2 3 -3 2145.51 251.03
-3 -2 3 2149.55 354.52
3 2 -3 1843.23 327.75
-3 2 -3 2131.04 260.04
2 -3 -3 1896.51 145.34
-2 -3 3 1820.08 350.49
3 -2 3 2021.62 365.36
2 3 -3 2062.9 295.17
-2 -3 -3 2138.86 265.69
-3 -2 -3 2060.35 265.63
-2 -3 -4 12846.13 545.77
3 -2 4 13356.69 735.98
-2 3 -4 12956.37 580.78
-3 2 -4 12585.15 584.93
-3 -2 4 12962.97 709.12
2 3 4 12770.85 606.19
2 -3 -4 12879.89 419.27
2 3 -4 13988.39 633.75
-2 3 -4 13478.23 548.78
-3 2 4 14429.61 677.75
-3 -2 -4 13080.43 557.66
-2 3 4 14073.65 621.56
2 -3 4 12671.38 711.74
3 2 -4 12746.07 653.64
-2 -3 4 12946.54 730.5
-3 2 -4 13371.8 587.45
3 2 4 12623.21 640.97
-3 -2 -5 1502.42 273.16
-2 3 -5 1105.95 239.8
-2 3 -5 1191.03 257.62
2 3 -5 1145.68 299.6
-2 3 5 1524.14 332.52
3 2 -5 1305.03 307.64
-3 2 -5 1213.97 276.59
3 2 5 1159.8 337.98
-3 -2 5 1190.92 364.43
-3 2 -5 1266.74 258.03
3 -2 5 1268.12 389.45
-2 -3 -5 1384.02 260.04
2 3 -5 972 124
2 -3 -5 1012.5 191.87
-3 2 -5 1025.75 146.21
-2 -3 5 1221.36 380.15
-3 2 5 1274.79 336.94
-2 3 -5 1024.78 135.31
2 -3 5 1272.31 388.79
2 3 5 1061.29 313.86
3 2 6 4097.72 511.67
-2 3 -6 3600.44 398.03
3 -2 6 3189.59 519.26
-3 -2 -6 3595.23 384.01
-2 3 6 4072.05 478.16
-2 3 -6 3663.51 369.99
-3 2 -6 3835 420.41
-2 -3 6 3630.5 546.27
2 3 -6 4081.95 446.79
-2 -3 -6 3809.69 395.07
-3 2 6 3958.43 479.72
2 -3 6 3353.41 522.93
-3 2 -6 3603.92 399.67
2 3 6 3609.66 479.53
3 2 -6 3247.05 441.57
2 -3 -6 3502.66 313.99
-3 -2 6 4242.22 573.03
-2 -3 7 -204.54 435
-2 -3 -7 50.65 220.78
3 2 7 -6.44 355
3 2 -7 -312.12 321.96
-2 3 7 20.63 294.07
-3 -2 -7 -204.96 240.95
-3 2 -7 41.85 227.51
2 3 7 39.52 329.12
2 -3 7 280.33 408.03
-3 -2 7 334.74 372.23
-3 2 7 263.31 324.36
2 3 -7 192.99 261.85
-2 3 -7 159.56 223.13
2 -3 -7 235.55 181.3
-2 3 -7 -53 218.93
3 -2 7 -206.13 410.61
-3 2 -7 191.53 238.87
-2 3 -8 767.64 272.97
-3 2 8 966.65 393.67
-2 -3 -8 508.11 240.82
-3 2 -8 717.09 296.3
3 2 -8 622.42 318.48
-2 3 8 716.66 350.51
3 2 8 727.62 450.53
-3 -2 8 662.02 439.86
3 -2 8 795.14 473.87
-3 -2 -8 557.55 258
2 -3 8 350.78 437.54
-2 -3 8 893.79 469.47
-2 3 -8 971.12 324.93
2 3 8 1076.19 479.08
-3 2 -8 548.28 281.39
2 3 -8 1031.96 338.59
-2 -3 -9 1312.99 349.59
-3 2 -9 1169.77 364.56
-2 -3 9 1686.11 577.17
-3 -2 -9 793 335.58
3 2 -9 1521.11 415.41
3 2 9 1312.42 595.47
-3 -2 -9 1240.22 260.46
2 3 9 1326.5 553.02
-2 -3 -9 1701.63 305.86
-3 2 9 1098.15 240.83
-3 2 9 1280.14 465.68
-3 -2 9 1706.15 578.29
-3 -2 9 1457.25 254.59
-3 2 -9 913.14 326.92
2 -3 9 1708.56 619.34
3 -2 9 1580.76 580.19
2 -3 -9 1180.59 247.55
3 -2 -9 1342.33 470.01
-2 3 9 1174.34 427.97
-2 -3 10 2880.05 697.36
3 -2 -10 2549.75 585.61
3 -2 -10 1949.96 305.96
-3 2 -10 2524.73 338.48
2 -3 -10 1991.76 611.47
2 3 10 1928.73 304.22
3 2 10 2099.95 717.07
-3 2 10 1835.38 575.06
-2 -3 -10 3354.8 395.32
3 -2 10 2288.39 728.79
2 3 -10 1556.9 277.12
-2 3 -10 2507.57 344.59
-3 -2 10 2753.63 365.82
-3 -2 -10 2462.27 347.19
-3 -2 -10 2749.07 538.4
-3 -2 10 2350.98 647.05
-3 -2 -10 2423.29 489.33
2 -3 10 2879.63 755.52
-3 2 -10 3245.13 580.17
2 -3 -10 2953.3 364.14
-2 -3 10 2597.05 351.54
-2 -3 -10 2201.28 458.64
-2 -3 -11 869.12 295.42
-2 -3 -11 1128.28 453.87
-2 3 -11 854.61 259.59
2 3 -11 742.25 259.58
-3 -2 -11 1321.74 527.43
-3 2 -11 1146.15 290.66
2 -3 11 595.23 597.8
3 -2 -11 767.44 272.43
-3 -2 11 956.66 281.75
-2 -3 11 401.98 561.26
3 2 -11 635.99 255.53
-3 -2 11 1394.6 620.93
-3 -2 -11 796.92 275.67
-3 -2 -11 1135.34 373.71
-2 -3 11 909.42 280.07
2 3 11 309.69 227.47
3 -2 11 700.13 590.8
2 -3 -11 1039.74 300.64
3 -2 -12 294.3 249
-2 -3 12 84.59 195.5
3 2 -12 97.09 210.69
-3 2 -12 295.15 216.23
-2 3 -12 266.08 222.7
2 3 -12 306.33 214.36
-3 -2 -12 488.73 242.53
-3 -2 12 66.16 198.99
2 -3 -12 428.68 250.4
-2 -3 -12 327.3 249.99
-3 2 -13 -28.26 179.04
2 3 -13 155.18 227.91
-3 -2 -13 314.01 223.48
3 2 -13 117.89 193.11
2 -3 -13 -68.72 206.6
-2 3 -13 31.47 185.08
-2 -3 -13 -100.62 216.68
3 -2 -13 -118.47 210.76
-2 3 13 -139.33 210.14
-2 3 14 -94.55 181.17
3 -2 -14 130.81 202.93
2 3 -14 241.09 185.22
-2 -3 -14 -34.2 202.97
3 2 -14 206.34 195.89
-3 -2 -14 271.52 207.29
2 -3 -14 59.44 201.14
-3 2 14 56.32 179.47
-3 2 -14 286.33 187.63
-2 3 -14 -143.62 156.88
-3 2 -15 113.7 150.37
3 2 -15 -125.55 169.02
-2 3 -15 80.7 144.13
3 -2 -15 94.23 169.76
-2 -3 -15 242.56 163.66
-3 -2 -15 54.26 159.28
2 3 -15 206.23 155.7
-2 3 15 -82.47 147.96
-3 2 15 170.43 154.5
2 -3 -15 748.95 202.99
-2 -3 -16 83.55 135.8
3 -2 -16 -6.03 140.91
2 -3 -16 1.59 131.82
3 2 -16 53.58 127.05
-3 -2 -16 149.26 131.35
2 3 -16 72.62 117.75
3 3 0 4106.81 322.94
-3 3 0 3366.85 182.36
-3 3 0 4158.86 283.45
-3 3 1 12523.38 460.91
-3 3 -1 12210.08 391.53
3 3 -1 12762.15 521.6
3 3 1 12039.28 480.98
-3 3 -1 12685.01 448.48
-3 3 2 3368.34 354.48
3 3 -2 3182.91 338.03
3 3 2 2857.28 288.4
-3 3 -2 2855.31 263.53
3 -3 2 3342.65 363.73
-3 3 -2 3095.03 271.28
-3 -3 2 3177.7 356.83
3 -3 3 624.01 304.09
-3 -3 3 265.19 264.36
-3 -3 -3 465.38 212.75
-3 3 -3 276.72 176.81
-3 3 -3 486.5 193.49
3 3 -3 492.61 258.44
-3 3 4 22627.31 784.52
3 3 4 20377.12 764.39
-3 3 -4 21210.31 721.65
-3 -3 4 20459.16 885.49
-3 -3 -4 20461.1 704.51
-3 3 -4 20903.21 741.56
3 -3 4 21239.79 907.66
3 3 -4 21388.71 825.07
-3 -3 5 3797.89 510.9
-3 3 -5 3125.11 358.12
3 3 5 2707.41 416.41
3 3 -5 3782.33 452.89
-3 -3 -5 3486.86 365.81
-3 3 5 3191.4 421.4
-3 3 -5 3160.44 374.15
3 -3 5 2832.96 477.87
-3 -3 6 731.6 393.29
-3 3 6 691.14 315.17
-3 3 -6 624.29 244.49
3 3 -6 1290.66 364.18
-3 3 -6 729.14 246.38
3 3 6 511.07 329.3
3 -3 6 1005.91 422.03
-3 -3 -6 649.66 237.26
3 3 7 6771.3 671.72
-3 3 -7 6425.13 565.41
-3 -3 7 7315.99 770.77
3 3 -7 6531.75 606.04
-3 3 -7 6907.98 545.53
-3 3 7 7013.09 633.98
3 -3 7 6218.67 732.24
-3 -3 -7 6926.98 561.35
3 3 8 6563.33 760.83
-3 3 -8 7125.35 586.88
3 -3 8 6273.52 810.71
-3 3 8 6707.71 677.6
-3 3 -8 7004.86 649.19
-3 -3 -8 6851.12 622.59
3 3 -8 6539.79 648.83
-3 -3 8 5879.18 747.08
-3 -3 9 464.78 487.58
-3 3 9 -296.62 407.42
-3 -3 -9 -14.02 269.06
-3 3 -9 341.18 291.41
3 -3 -9 255.56 451.31
3 -3 9 262.05 510.05
-3 -3 -9 -162.95 201.3
-3 -3 9 100.14 204.9
-3 3 -9 427.06 333.7
3 -3 -9 -434.32 257.88
3 3 9 131.04 482.56
-3 -3 10 381.52 228.57
-3 -3 -10 48.52 222.96
-3 3 -10 144.52 215.99
-3 -3 10 -285.81 485.7
-3 -3 -10 -197.06 306.11
3 -3 10 -71.53 570.57
3 -3 -10 -25.61 227.38
3 -3 -10 -453.43 484.6
3 -3 11 492.7 634.56
3 3 -11 239.29 214.89
-3 -3 11 256.01 224.07
-3 -3 -11 755.64 274.85
-3 3 -11 892.4 274.38
-3 -3 -11 924.54 443.91
3 -3 -11 1300.74 541.32
3 -3 -11 878.26 278.27
-3 -3 11 966.28 598.97
-3 3 -12 17.84 195.49
3 -3 -12 533.96 247.81
3 3 -12 -59.58 217.69
-3 -3 -12 205.41 225.18
-3 -3 12 53.47 199.45
3 -3 -13 400.24 240.27
-3 3 -13 191.73 199.17
-3 -3 -13 691.75 261.1
3 3 -13 475.44 227.26
-3 3 13 290.51 207.88
-3 3 14 368.92 205.36
3 -3 -14 458.36 215.08
-3 -3 -14 221.68 197.35
3 3 -14 301.15 201.13
-3 3 -14 337.29 182.84
-3 -3 -15 202.17 169.03
3 3 -15 83.07 158.61
3 -3 -15 -60.38 172.47
-3 3 15 221.02 155.46
-3 3 -15 101.28 153.21
3 -3 -16 -5.15 125.57
3 3 -16 -69.13 121.96
-3 -3 -16 -54.53 125.25
4 0 0 86863.8 1129.73
-4 0 0 82522.3 939.18
0 4 0 88348.77 1199.25
0 4 -1 12570.27 403.32
-4 0 1 12379.35 358.14
4 0 1 13616.39 435.7
-4 0 -1 12732.75 465.84
-4 0 -1 12713.64 449.33
0 4 -1 12702.88 396.5
0 -4 1 12790.28 456.13
4 0 -1 12921.45 544.64
-4 0 -2 11906.56 529.52
4 0 2 11457.92 371.01
-4 0 -2 11452.21 454.87
0 -4 2 11234.02 558.76
0 4 -2 11333.35 350.27
4 0 -2 12120.5 586.09
-4 0 2 10634.25 365.27
0 4 -2 11498.66 392.38
-4 0 -3 1310.77 224.43
0 -4 3 1279.88 331.8
-4 0 3 1424.13 322.59
0 4 3 1672.56 225.57
0 -4 -3 1558.12 201.73
-4 0 -3 1177.95 284.13
0 4 -3 1337.87 195.66
4 0 -3 1533.94 319.65
0 4 -3 1175.22 149.19
4 0 4 15550.59 764.82
0 -4 -4 15334.74 524.3
0 4 -4 15011.76 444.53
0 -4 4 14685.82 778.91
-4 0 -4 14082.78 598.59
-4 0 4 16690.6 781.54
0 4 -4 15072.58 509.68
4 0 -4 15251.5 746.04
0 4 4 16182.68 610.45
4 0 5 22342.9 1014.91
0 -4 -5 22032.66 682.79
0 -4 5 22102.07 1029.29
0 4 -5 22167.44 600.74
0 4 5 22944.69 838.99
-4 0 5 23428.72 1005.27
4 0 -5 21254.05 929.54
-4 0 -5 22095.51 809.27
0 4 -5 21578.58 664.71
4 0 6 18588.32 1028.79
-4 0 6 19504.94 1003.85
-4 0 -6 17747.95 900.25
4 0 -6 18499.91 945.58
0 4 6 20078.42 920.41
0 4 -6 19516.24 621.85
-4 0 -6 18635.55 840.93
0 -4 -6 18707.06 710.78
0 4 -6 18638 682.45
0 -4 6 18014.1 1044.6
4 0 7 1324.85 438.83
-4 0 -7 1256.54 302.33
-4 0 7 1723.86 452.47
-4 0 -7 1356.19 365.45
0 -4 7 1489.95 468.15
0 -4 -7 1158.21 259.95
0 4 7 1005.17 364.78
4 0 -7 1377.83 401.99
-4 0 -8 754.72 336.96
4 0 -8 587.43 362.83
0 -4 -8 410.48 206.46
-4 0 -8 216.59 242.72
-4 0 8 569.44 394.93
0 -4 8 851.83 487
0 4 8 24.37 382.64
4 0 8 730.88 478.84
0 -4 -9 233.54 231.28
-4 0 9 -14.11 391.61
-4 0 9 -41.98 185.73
0 -4 9 57.69 483.99
0 4 -9 -185.04 234.67
-4 0 -9 403.59 305.99
4 0 -9 157.74 361.67
-4 0 -9 370.38 214.66
4 0 9 254.95 503.13
-4 0 -9 580.25 360.15
0 -4 10 350.11 493.22
0 4 -10 411.87 229.59
4 0 10 -291.42 613.34
-4 0 10 -101.83 508.93
0 -4 -10 602.02 275.25
-4 0 10 32.23 205.31
-4 0 -10 33.75 215.23
-4 0 -10 210.25 314.78
4 0 -10 -104.02 396.5
-4 0 -10 237.97 309.29
0 -4 10 291.5 241.63
0 4 11 -432.07 258.17
4 0 -11 -296.49 270.26
0 4 -11 280.97 232.19
-4 0 -11 316.82 365.35
0 -4 11 -32.99 230.34
0 -4 11 627.86 537.35
4 0 11 -41.73 611.71
-4 0 11 234.87 229.89
-4 0 11 -299.31 584.72
-4 0 -11 163.69 224.93
0 -4 -11 147.24 245.09
0 4 -12 934.86 253.68
0 4 12 326.38 222.66
0 -4 -12 768.52 265.92
4 0 -12 442 241.44
-4 0 -12 753.93 251.1
0 4 13 1046.18 255.03
4 0 -13 1047.51 282.22
-4 0 -13 1298.53 262.98
0 -4 -13 1421.89 295.52
0 4 -13 1580.4 278.85
4 0 -14 715.93 255.36
0 4 14 321.14 193.68
-4 0 -14 643.78 213.82
0 -4 -14 690.43 238.61
0 4 -14 627.69 212.37
-4 0 -15 176.68 148.37
4 0 -15 -64.52 174.57
0 4 -15 13.95 145.26
0 -4 -15 129.64 165.06
-4 0 15 179.37 164.47
0 -4 -16 5.69 140.68
-4 0 -16 13.08 108.17
4 0 -16 94.9 136.09
-4 -1 0 -23.19 122.54
1 4 0 -70.66 162.56
4 1 0 -89.02 188.57
4 -1 0 -141.12 181.12
1 -4 0 128.34 126.19
-1 4 0 -54.37 166.22
-4 1 0 34.11 114.68
-4 1 0 -65.87 126.35
-1 -4 1 11027.19 444.69
4 -1 -1 11375.8 500.64
-4 1 -1 10767.83 383.66
-4 1 1 10566.27 368.64
-4 1 -1 11138 422.13
-4 -1 -1 10783.25 464.56
4 -1 1 11776.7 370.8
4 1 1 11122.82 437.13
-1 4 -1 11535.45 396.31
-4 -1 1 10796.15 291.81
1 -4 1 10877.52 429.97
1 4 -1 11012.77 426.27
4 1 -1 11229.29 514
4 1 -2 9971.93 538.51
-4 -1 -2 10457.39 475.47
-1 4 -2 10101.59 373.27
1 -4 2 10321.83 519.51
1 4 -2 9388.28 293.08
-1 -4 2 9873.04 520.95
1 4 2 10048.92 311.41
-4 -1 2 9641.11 291.49
4 1 2 10014.31 401.67
-4 1 2 9595.15 405.38
4 -1 -2 10819.06 557.54
-4 1 -2 10906.42 492.61
-1 4 -2 9664.14 289.5
4 -1 2 10373.34 294.42
1 4 -2 9976.98 429.29
-4 1 -2 10056.11 422.22
1 4 -3 2728.16 167.82
-1 4 3 2549.69 231.11
4 1 -3 2618.03 359.57
-4 1 -3 2466 276.14
-1 -4 -3 2580.37 264.57
4 -1 3 2669.45 382.08
-1 4 -3 2566.46 228.66
1 -4 -3 2507.23 189.23
-4 -1 3 2349.75 355.53
-4 1 -3 2397.73 302.82
1 4 -3 2619.06 278
-4 -1 -3 2799.78 285.93
1 4 3 2406.74 257.42
-1 -4 3 2263.56 382.85
1 -4 3 2537.03 379.86
-1 4 -3 2553.89 175.78
4 1 -4 550.65 290.93
4 -1 4 813.48 338.88
-1 -4 4 372.9 306.7
-1 4 -4 907.77 251.54
-1 4 -4 594.86 141.79
-4 -1 -4 472.97 195.69
1 4 -4 541.74 110.63
1 4 -4 621.56 209.89
4 1 4 571.28 302.31
-1 4 -4 418.26 154.6
-4 1 4 624.85 282.88
1 -4 4 457.74 321.22
-4 1 -4 503.14 247.41
-4 -1 4 629.79 302.11
-4 1 -4 662.77 210.07
1 -4 -4 534.58 141.18
-1 -4 -4 448.1 185.92
1 4 4 713.71 234.69
-1 4 4 135.01 228.38
-1 -4 -5 2514.87 298.51
4 -1 5 2460.05 449.87
4 1 5 2379.57 420.41
-1 -4 5 2308.45 435.22
1 4 -5 2216.63 303.52
1 -4 5 1929.19 429.86
-4 -1 5 1864.22 405.4
-1 4 -5 2725.14 353.36
-1 4 -5 2114.07 206.06
1 -4 -5 2071.8 229.42
-4 1 -5 2446.73 367.8
-1 4 -5 2086.56 248.19
-4 -1 -5 2192.32 313.23
1 4 5 2157.26 340.85
4 1 -5 1947.96 376.12
-4 1 -5 2213.66 324.45
-1 4 5 2244.34 325.94
-4 1 5 2343.67 395.77
1 4 -5 2267.12 185.3
-1 4 -6 335.46 173.06
4 -1 -6 138.02 289.39
1 4 -6 270.4 226.4
-4 1 -6 444.94 240.67
1 4 6 111.92 280.02
1 -4 6 448.31 383.55
-4 1 -6 315.38 253.66
-1 -4 -6 401.14 198.66
-4 -1 -6 108.23 210.36
-4 -1 6 259.19 326.49
-1 -4 6 42.94 375.7
-1 4 6 -53.26 302.2
1 -4 -6 318.81 166.36
4 1 6 43.78 326.85
4 -1 6 251.16 369.52
4 1 -6 554.53 329.19
-4 1 6 211.56 301.6
-4 -1 7 544.5 365.01
4 -1 7 486.71 420.18
4 1 -7 679.35 349.41
4 -1 -7 739.92 369.11
4 1 7 656.78 409.55
-4 1 7 562.06 363.01
-1 -4 -7 442.23 213.96
1 -4 7 407.12 416.37
-1 -4 7 681.12 445.03
1 4 -7 496.31 248.79
-1 4 -7 580.6 207.55
1 4 7 603.95 354.32
1 -4 -7 979.06 230.66
-4 1 -7 461.34 250.71
-4 1 -7 509.17 270.32
-1 4 7 454.93 323.43
-4 -1 -7 411.04 258.03
-4 1 -8 -194.64 268.05
1 4 8 -329.79 419.76
4 -1 -8 -275.39 343.81
-4 1 8 -170.23 338.24
1 -4 8 102.42 428.86
-1 -4 -8 -142.02 237.62
4 1 8 205.44 413.06
-4 -1 -8 194.73 251.66
4 1 -8 -168.95 318.41
-4 -1 -8 168.52 339.01
-1 -4 8 -665.17 527.24
-4 1 -8 -343.67 271.93
-4 -1 8 226.26 412.59
4 -1 8 -140.62 453.89
-1 4 8 -256.83 314.21
-4 1 9 -107.41 184.69
-4 -1 9 226 207.92
-4 -1 -9 27.59 205.85
-4 1 -9 -45.21 285.36
-1 -4 -9 391.89 242.3
-4 -1 9 374.7 467.09
4 1 -9 -168.62 392.52
4 1 9 109.96 494.07
-1 4 -9 -278.08 247.51
1 4 -9 -408.85 244.73
-4 -1 -9 179.56 344.32
1 -4 9 90.1 499.17
1 -4 -9 17.58 213.52
4 -1 -9 604.21 427.35
-4 1 9 -469.94 472.3
-1 -4 9 -333.64 558.34
-4 -1 -9 -49 273
-4 1 -9 4.73 290.57
4 -1 9 483.75 508.43
4 -1 10 -34.33 574.32
1 4 -10 -171.02 227
-1 4 -10 226.31 228.99
-4 -1 -10 -279.37 320.86
1 4 10 -346.06 232.04
-4 1 10 -203.26 485.5
-1 -4 10 42.37 218.22
-4 1 -10 -286.22 348.79
4 1 -10 189.23 356.63
-1 -4 -10 340.05 261.65
-4 1 10 -31.15 202.49
1 -4 10 -749.78 594.15
1 -4 -10 537.68 268.54
-4 1 -10 49.15 204.58
-1 -4 10 412.34 491.01
4 1 10 753.58 576.26
-4 -1 -10 -96.92 355.55
4 -1 -10 174.5 457.04
-4 1 -10 378.87 356.41
-4 -1 10 429.89 498.34
-4 -1 -10 -17.28 208.56
-4 -1 10 -175.73 221.99
-4 1 11 4.39 214
-4 -1 -11 36.39 224.56
4 1 11 -389.76 552.9
1 -4 11 93.45 563.28
4 1 -11 -645.59 296.28
-1 -4 11 201.29 470.49
-4 -1 -11 396.76 362.5
4 -1 -11 -450.63 258.68
4 -1 11 431.37 595.35
-4 -1 11 -419.26 574.15
1 -4 -11 259.94 258.71
1 4 11 -71.86 221.67
-1 -4 11 120.27 231.54
-1 4 -11 242.45 227.47
-4 1 -11 262.48 372.15
-4 1 -11 -39.35 216.22
-1 -4 -11 45.61 252.77
-4 -1 11 -87.54 216.53
1 4 -11 -34.82 208.77
-4 -1 -11 -13.69 367.29
-1 4 12 -114.93 221.51
1 -4 -12 54.96 215.98
-1 -4 -12 -17.45 227.97
-4 -1 -12 -63.37 200.59
-4 -1 12 168.31 206.17
4 -1 -12 129.92 226.03
1 4 -12 214.27 201.47
-1 -4 12 -83.42 210.88
-1 4 -12 -103.21 196.67
-4 1 -12 461.21 238.12
4 1 -12 -397.82 233.51
1 4 12 39.58 199.58
1 4 -13 61.18 179.92
-1 -4 -13 254.04 226.01
-1 4 13 5.14 188.38
4 -1 -13 196.41 226.83
-4 1 -13 136.28 190.01
1 4 13 241.73 202.13
1 -4 -13 329.05 298.93
-4 -1 -13 135.72 198.09
-1 4 -13 228.41 182.92
4 1 -13 417.42 238.52
-1 4 -14 171.17 190.78
4 1 -14 12.86 193.41
1 -4 -14 57.67 190.29
-4 -1 -14 240.14 193.53
1 4 -14 -177.59 175.65
-1 4 14 143.55 182.14
-4 1 -14 202.84 174.87
4 -1 -14 466.75 233.25
-1 -4 -14 75.34 195.8
-1 4 15 129.32 152.46
-1 4 -15 38.46 128.74
4 1 -15 39.5 162.02
-4 -1 -15 184.11 151.54
1 -4 -15 42.35 175.07
-4 1 -15 84.97 150.94
-4 1 15 -55.5 158.08
1 4 -15 154.32 148.56
4 -1 -15 -98.16 171.67
-4 -1 15 -55.15 153.94
-1 -4 -15 99.11 165.43
4 -1 -16 -40.95 132.1
1 -4 -16 19.83 138.52
4 1 -16 222.89 141.89
-4 -1 -16 27.11 108.67
-1 -4 -16 -3.2 126.32
-4 2 0 17.58 158.47
4 2 0 53.85 205.79
2 -4 0 124.83 143.44
2 4 0 40.24 191.3
-4 2 0 203.03 108.46
4 -2 0 190.14 188.98
-2 4 0 -3.65 173.02
2 4 1 2607.22 284.87
-2 -4 1 2704.8 284.76
-4 2 -1 2733.03 220.25
-2 4 -1 2874.81 252.85
-4 2 1 2451.36 127.79
4 2 -1 2848.57 329.16
4 2 1 2438.11 276.41
2 -4 1 2745.35 284.59
2 4 -1 2684.64 283.74
-4 2 -1 2783.73 255.96
4 -2 1 2987.96 211.63
-2 4 1 3086.58 322.18
-4 2 1 2848.58 257.02
-4 -2 1 2623.25 154.67
-2 4 -2 599.02 191.45
4 2 -2 755.62 272.65
-4 -2 2 287.67 53.09
2 4 -2 750.6 228.81
-4 2 2 382.66 200.54
2 -4 -2 567.84 79.35
-4 2 -2 596.15 199.17
-4 -2 -2 746.95 232.25
4 -2 2 367.98 66.85
4 2 2 649.16 208.03
-2 4 -2 518.7 161.37
2 -4 2 756.07 272.52
-4 2 -2 543.82 182.58
-2 -4 2 656.56 282.77
2 4 3 4528.61 325.57
4 2 -3 4453.29 429.44
2 -4 3 4754.4 454.69
2 -4 -3 3977.31 169.38
-4 -2 3 4760.62 439.67
-2 4 -3 4583.8 349.14
-4 -2 -3 4328.22 354.97
-2 -4 -3 4434.22 351.65
2 4 -3 4638.69 370.05
-4 2 -3 4433.4 347.12
4 -2 3 4623.97 461.4
-2 4 -3 4653.95 308.26
-4 2 -3 4577.28 369.8
-2 -4 3 4172.73 427.44
-4 2 -4 1131.99 267.53
2 4 -4 678.43 67.58
-4 2 4 945.66 291.78
-4 -2 4 1078.67 332.86
-2 4 -4 1005.76 229.76
2 -4 4 1117.15 347.56
4 -2 4 1156.46 363.53
-2 -4 -4 1010.17 227.72
-2 4 -4 862.95 201.92
4 2 4 1042.03 310.56
2 4 4 1012.48 266.7
2 -4 -4 818.35 136.05
-2 4 4 1072.51 224.81
-2 -4 4 653.17 308.4
-4 2 -4 961.38 224.93
2 4 -4 901.76 261.42
4 2 -4 1079.1 292.4
-4 -2 -4 935.03 232.91
2 -4 -5 3992.03 272.95
4 2 5 4280.71 491.99
-4 2 -5 4636.2 421.8
-4 2 5 5438.2 516.49
-2 -4 -5 4652.63 384.58
-4 -2 -5 4755.88 414.78
4 -2 5 4727.41 562.84
-2 4 -5 5058.51 381.06
-4 2 -5 4533.73 428.21
2 4 5 4627.5 448.65
-4 -2 5 4946.72 539.16
4 2 -5 4580.11 491.26
-2 4 5 5263.91 448.96
-2 4 -5 4404.7 416.93
2 -4 5 4272.71 540.18
-2 -4 5 4433.33 547.49
2 4 -5 4822.96 443.42
2 4 6 7643.13 627.16
-2 -4 6 7480.34 726.69
2 -4 -6 6290.65 369.65
4 -2 6 7787.04 742.72
-4 2 -6 7367.77 567.75
-2 4 -6 8106.76 581.94
-4 2 6 8405.04 674.1
-4 -2 6 7571 700.81
4 2 -6 7821.81 646.09
-2 4 6 8317.25 596.26
-4 -2 -6 7605.69 545.6
-2 4 -6 8123.15 503.29
-2 -4 -6 8286.96 543.99
-4 2 -6 7609.76 578.3
2 4 -6 8145.53 582.02
2 -4 6 7317.04 712.23
4 2 6 7453.23 683.72
2 -4 7 7674.13 822.42
4 2 7 8018.32 776.32
-2 -4 -7 8015.87 584.78
-2 4 -7 8660.28 658.26
-2 4 -7 8787.33 558.96
-2 -4 7 7582.3 790.18
-4 -2 -7 8624.62 643.99
2 4 -7 8727.86 655.38
4 2 -7 7972.64 690.03
-4 2 -7 8433.2 647.19
-2 4 7 9726.64 714.94
-4 2 -7 7936.2 631.64
4 -2 7 8298.88 836.64
2 4 7 9267.24 759.07
-4 -2 7 8215.91 785.58
-4 2 7 8746.2 751.46
2 -4 8 6424.97 846.23
-4 2 -8 6264 598.84
4 -2 -8 5626.28 687.74
-2 -4 -8 5651.99 554.08
-4 2 -8 5735.89 582.35
-2 -4 8 6053.36 771.67
4 2 -8 5339.92 623.79
-4 2 8 6164.57 680.45
-2 4 -8 6173.97 505.54
2 4 8 6471.89 746.78
-2 4 8 6242.21 642.13
4 -2 8 5833.85 811.29
-4 -2 -8 6302.96 616.02
4 2 8 5667.18 733.88
-4 -2 8 5349.91 722.18
-2 -4 -9 1306.38 346.45
2 -4 -9 1465.44 282.73
-2 4 -9 858.8 217.81
4 2 -9 1217.01 424.37
-4 2 9 714.46 431.61
-2 -4 -9 1703.51 316.49
-4 2 9 1467.54 275.46
4 2 9 1721.69 571.44
-4 2 -9 1518.29 381.44
-4 -2 -9 1427.13 436.63
-4 2 -9 1539.77 412.91
4 -2 9 1831.21 662.14
2 -4 9 1145.24 596.72
-4 -2 9 2179.53 314.93
-4 -2 -9 2082.67 422.01
-2 -4 9 1378.78 275.89
4 -2 -9 1382.84 492.85
-4 -2 9 1127.19 508.74
-4 -2 -9 1038.99 257.56
-2 -4 9 2085.02 610.86
-4 -2 10 445.86 240.21
-4 2 -10 689.59 378.39
-2 -4 -10 354.55 243.38
4 -2 -10 1158.51 572.68
-4 2 -10 50.06 217.94
-4 -2 -10 272.79 411.26
-4 -2 -10 88.56 305.71
-4 -2 -10 358.32 238.78
2 4 10 317.41 217.39
-2 -4 10 474.73 546.01
-4 2 10 -330.24 514.9
-2 4 -10 373.5 224.43
-4 2 10 73.37 205.27
-2 -4 10 599.99 260.62
-4 -2 10 -25.2 469.07
2 -4 10 147.16 618.04
-4 2 -10 90.09 275.24
2 -4 -10 861.96 271.28
4 2 10 -145.65 558.2
4 -2 -10 283.45 224.42
4 -2 10 708.28 591.15
-4 2 -11 51.03 209.93
-4 -2 -11 70.41 238.73
-4 -2 -11 -212.66 371.36
-2 -4 11 -42.28 507.54
2 4 -11 72.24 201.81
-2 -4 -11 135.38 238.5
2 -4 11 -536.46 643.2
2 -4 -11 446.02 264.32
-4 -2 11 -261.83 241.66
-4 -2 11 -24.43 451.91
2 4 11 167.53 230.76
4 -2 -11 155.23 483.27
4 2 -11 -771.83 292.58
-2 4 -11 -0.36 227.56
-2 -4 11 -195.38 224.7
2 -4 -11 631.05 543.01
4 -2 11 432.42 612.99
4 -2 -11 1.26 222.03
-4 -2 -11 -460.2 363.94
-4 -2 12 -169.39 201.37
-2 -4 -12 82.93 223.46
4 2 -12 378.37 240.57
-4 2 -12 411.38 217.78
-2 4 -12 376.48 220.94
-4 -2 -12 136.49 222.65
2 4 -12 143.09 211.29
4 -2 -12 307.57 231.21
-2 4 12 145.04 221.32
2 4 12 358.72 237.54
2 -4 -12 456.18 254.36
-2 -4 12 600.42 244.05
-4 2 -13 345.07 199.44
4 -2 -13 453.46 230.72
-2 4 13 31.27 206.19
-2 -4 -13 260.33 220.03
4 2 -13 332.86 222.84
-2 4 -13 456.19 221.07
-4 -2 -13 347.3 222.29
2 4 -13 423.74 212.25
2 -4 -13 85.99 205.08
2 4 -14 484.06 204.23
-4 -2 -14 199.52 195.55
4 2 -14 192.83 201.21
-2 4 14 341.01 196.43
-4 2 -14 149.12 182.89
-2 -4 -14 252.69 194.79
-4 2 14 -126.81 198.37
-2 4 -14 86.92 163.78
4 -2 -14 322.48 225.07
2 -4 -14 170.86 202.67
4 -2 -15 146.97 167.95
-2 4 15 -4.26 151.87
-4 2 -15 149.2 157.45
4 2 -15 -1.71 168.91
2 -4 -15 144.51 166.38
-4 2 15 370.73 173.79
-4 -2 15 -222.03 163.92
2 4 -15 89.26 150.8
-4 -2 -15 -18.35 149.82
-2 -4 -15 19.69 158.29
4 2 -16 67.55 130.36
2 -4 -16 3.48 131.08
-2 -4 -16 -1.66 123.8
-4 -2 -16 87.55 126.21
4 -2 -16 -4.25 127.38
-4 3 0 74.94 168.16
3 4 0 -96.88 211.15
4 3 0 82.89 226.5
-4 3 0 18.35 105.3
-3 4 0 126.2 178.87
-4 3 -1 2609.32 273.36
-3 4 -1 2231.92 213.86
-4 3 1 2713.27 269.7
-3 4 -1 2279.22 256.86
4 -3 1 2473.33 203.64
3 4 -1 2340.56 305.14
-4 3 -1 2182.08 211.37
3 -4 1 2081.48 289.78
-4 -3 1 2275.12 167.37
3 4 1 2317.25 300.56
4 3 -1 2371.3 320.34
-3 4 1 2091.17 264.46
4 3 1 2087.07 291.6
3 -4 2 -48.45 261.19
-3 4 2 520.04 289.54
4 3 -2 -123.07 251.48
-4 3 2 348.23 213.79
-3 4 -2 -27 160.38
-3 4 -2 74.07 158.35
-4 3 -2 -79.51 157.89
3 4 2 54.53 219.07
-4 -3 2 -51.88 282.38
-3 -4 2 8.28 231.22
3 4 -2 31.14 213.89
-4 3 -2 75.66 169.98
4 3 2 39.69 193.27
-4 -3 -3 3748.38 364.56
4 3 -3 3967.13 424.7
-3 -4 -3 4186.32 379.33
-3 4 -3 3741.7 328.79
-4 3 -3 4113.14 351.62
-4 -3 3 3382.47 406.7
-3 -4 3 3680.08 403.33
-4 3 -3 3828.79 336.84
4 -3 3 3945.8 451.73
-3 4 -3 3892.01 325.9
3 -4 3 3826.32 439.96
3 4 -3 3913.14 390.6
-4 3 -4 8061 500.42
-3 -4 4 7981.34 607.51
-4 -3 4 8270.06 609.43
-4 3 -4 8427.72 502.92
3 4 -4 7889.82 539.43
-3 4 -4 8659.54 474.83
3 4 4 8041.31 509.87
3 -4 4 8373.73 636.87
4 -3 4 7949.45 643.39
-3 4 -4 8307.12 500.91
4 3 4 7408.01 537.66
4 3 -4 8279.34 584.8
-3 -4 -4 7949.33 490.42
-4 -3 -4 7886.37 485.79
3 4 5 2390.43 384.56
-3 -4 -5 2331.97 315.32
4 -3 5 2873.53 493.39
-3 4 5 2504.59 346.97
-4 3 -5 2316.39 325.2
4 3 -5 2343.71 397.45
3 4 -5 2298.98 360.17
-3 4 -5 2693.66 325.61
4 3 5 2396.28 405.69
-4 -3 5 2391.5 433.09
-3 4 -5 2110.45 318.5
-4 3 5 2700.73 408.11
-4 -3 -5 2588 351.88
3 -4 5 2405.77 444.33
-3 -4 5 2381.38 439.34
-4 3 -5 2385.93 329.68
-3 -4 6 377.64 389.23
3 -4 6 -133.73 368.33
3 4 6 185.28 300.93
-3 4 6 -338.18 273.2
4 3 -6 -36.16 288.81
-4 3 6 207.76 287.57
4 3 6 490.66 338.19
-4 3 -6 94.99 226.16
-3 4 -6 38.61 215.47
4 -3 6 -14.71 380.23
-3 4 -6 -14.17 192.75
3 4 -6 -26.55 250.71
-3 -4 -6 102.63 191.72
-4 3 -6 106.53 211.15
-4 -3 6 226.07 342.99
-4 -3 -6 247.47 222.83
3 4 7 545.26 334.62
-4 3 7 -322.04 325.29
3 -4 7 143.73 420.67
-4 3 -7 -263.89 245.43
-3 4 -7 208.78 247.01
-3 4 -7 -187.06 224.61
-3 -4 -7 21.38 201.51
4 -3 7 223.54 420.55
4 3 -7 194.74 309.56
-4 -3 -7 162.1 249.96
-4 -3 7 -103.53 370.29
-3 4 7 109.11 284.43
4 3 7 305.2 389.05
-3 -4 7 459.84 419.53
3 4 -7 -91.27 285.9
-4 3 -7 57.42 226.84
-4 3 8 47.64 361.76
-4 -3 8 980.48 448.18
-3 -4 8 293.67 458.13
-4 3 -8 308.89 251.48
3 4 8 106.82 409.4
-3 -4 -8 259.01 259.31
-4 -3 -8 306.45 251.48
3 4 -8 606.49 351.2
4 3 8 662.74 473.67
-3 4 -8 153.25 219.73
3 -4 8 1175.38 571.34
-3 4 -8 512.42 318.8
4 3 -8 532.09 351.34
4 -3 8 848.09 538.72
-4 3 -8 249.51 255.9
-4 -3 9 -154.2 435.29
4 -3 9 261.7 561.68
3 -4 -9 129.78 226.86
4 3 9 545.13 550.65
-4 -3 -9 213.17 218.18
-4 3 -9 622.69 330.94
-4 3 9 131.58 198.91
-4 3 -9 34.04 253.15
3 -4 9 592.37 602.01
-3 -4 9 444.75 451.4
-4 -3 -9 771.77 351.85
4 3 -9 -163.63 353.27
-4 -3 9 163.26 219.67
-3 -4 9 210.33 202.63
-3 -4 -9 204.01 259.91
-3 -4 -9 138.82 223.83
4 -3 -9 227.04 445.2
-3 4 -10 276.65 241.79
-4 -3 10 300.87 220.47
-3 -4 -10 327.2 323.52
3 4 10 429 243.31
3 -4 10 396.15 565.16
-4 -3 10 752.04 528.43
-4 3 -10 170 226.22
4 -3 -10 -231.37 267.39
-4 -3 -10 305.4 233.58
-4 -3 -10 883.69 434.65
-4 -3 -10 564.2 351.43
4 -3 -10 -180.78 471.89
4 3 10 535.55 584.74
-3 -4 10 480.82 565.63
3 -4 -10 287.59 215.98
4 -3 10 374.13 574.56
-3 -4 10 161.46 235.05
3 -4 -10 479.11 481.66
-3 -4 -10 177.02 235.71
3 -4 11 -120.2 597.74
-3 -4 -11 864.06 295.48
4 -3 11 902.42 643.33
4 -3 -11 938.82 486.77
-4 -3 -11 682.71 376.54
-4 -3 -11 1088.95 291.41
-3 -4 11 845.14 273.8
-4 3 -11 1111.87 281.23
4 -3 -11 798.08 271.05
3 -4 -11 494.01 523.57
-3 4 -11 1053.45 282.32
-4 -3 11 1189.65 556.81
3 4 -11 743.87 244.12
-4 -3 11 713.38 250.91
-3 -4 11 522.52 516.36
-3 -4 -11 507.73 449.66
3 -4 -11 950.29 290.61
-4 -3 -12 181.94 227.82
-4 3 -12 317.82 225.9
-4 -3 12 158.52 201.17
4 -3 -12 4.21 213.55
4 3 -12 27.05 209.74
-3 4 -12 184.24 201.76
-3 -4 12 155.06 204.44
3 4 -12 -22.52 209.8
-3 -4 -12 42.88 218.51
3 -4 -12 328.05 239.46
-4 3 -13 -23.95 173.27
3 -4 -13 176.95 215.58
-3 4 13 -70.48 195.72
-4 -3 -13 8.4 200.28
4 3 -13 -51.2 210
4 -3 -13 311.61 214.18
3 4 -13 -21.37 181.73
-3 -4 -13 78.37 208.5
-3 4 -13 38.25 182.58
3 4 -14 46.89 176.74
4 3 -14 46.56 176.56
-4 3 -14 79.64 173.39
3 -4 -14 322.98 210.72
4 -3 -14 6.39 191.73
-4 3 14 -68.63 182.5
-3 4 -14 -37.87 160.92
-4 -3 -14 -132.38 180.21
-3 -4 -14 -218.94 202.25
-3 4 14 29.97 180.72
-3 4 15 137.29 152.25
3 -4 -15 7.46 163.73
3 4 -15 45.63 152.62
-3 -4 -15 -104.66 153.27
-4 3 15 99.08 159.55
-4 -3 -15 222.24 163.4
-4 -3 15 567.99 181.35
4 3 -15 16.47 149.29
4 -3 -15 6.53 161.48
4 3 -16 108.94 122.34
-4 -3 -16 17 116.32
3 -4 -16 -3.7 127.13
4 -3 -16 -4.99 124.53
-3 -4 -16 145.73 130.87
-4 4 0 8836.2 438.24
4 4 0 8330.81 485.22
-4 4 0 7982.97 286.35
4 4 -1 3110.17 338.65
-4 4 -1 3592.92 259.53
-4 4 1 3450.54 312.86
4 4 1 2931.11 333.47
-4 4 -1 3358.6 305.03
4 4 -2 5859.3 461.56
-4 4 2 6287.27 436.48
-4 4 -2 6024.54 372.97
4 -4 2 6331.71 480.56
-4 4 -2 6256.35 398.16
4 4 2 5996.8 430.7
-4 -4 -3 13234.91 635.81
-4 4 -3 13441.21 584.68
-4 -4 3 12954.31 682.13
-4 4 -3 13650.26 589.43
4 -4 3 13432.78 725.28
4 4 -3 12935.86 664.05
4 4 4 7403.12 525.38
-4 4 -4 8023.21 513.96
-4 -4 4 6833.25 581.26
4 4 -4 7571.23 566.29
-4 4 -4 7939.7 491.46
4 -4 4 7909.13 646.56
-4 -4 -4 8101.17 528.09
-4 -4 5 8489.44 689.83
4 4 5 9272.6 641.01
-4 -4 -5 8639.34 555.4
4 4 -5 8924.26 647.12
4 -4 5 9627.59 770.44
-4 4 -5 9008.39 586.4
-4 4 -5 9676.92 579.22
4 -4 6 7576.01 763.37
4 4 -6 8400.73 678.1
4 4 6 8706.42 699.5
-4 4 -6 7146.02 583.6
-4 4 -6 8442.95 577.77
-4 -4 -6 8282.02 589.96
-4 -4 6 8326.07 749.98
-4 4 7 6839 647.2
-4 4 -7 4920.03 517.37
4 4 -7 5325.71 586.35
-4 4 -7 6063.88 539.18
-4 -4 -7 5775.36 538.58
4 4 7 6474.46 681.13
4 -4 7 5444.72 741.47
-4 -4 7 5740.67 704.42
4 -4 8 2851.11 686.45
-4 4 -8 3980.8 524.2
4 4 -8 3110.05 508.56
-4 -4 -8 3903.43 500.69
-4 4 -8 3783.68 472.21
-4 -4 8 2995.12 616.78
4 4 8 2474.25 580.14
4 -4 -9 1747.2 281
-4 4 -9 3194.07 552.91
4 -4 9 1745.96 687.1
-4 -4 9 2617.33 348.25
4 -4 -9 2572.88 649.68
-4 -4 9 2522.88 651.47
-4 -4 -9 3010.62 361.98
-4 -4 -9 2968.11 485.07
-4 4 -9 2443.46 416.42
-4 -4 -10 175.16 237.62
4 -4 10 832.18 654.24
4 -4 -10 265.59 220.89
4 -4 -10 525.85 500.94
-4 -4 10 307.8 453.19
-4 -4 -10 257.73 333
-4 -4 10 238.9 230.32
4 -4 -11 82.9 221.39
-4 4 -11 -53.56 228.17
-4 -4 11 -233.49 225.27
-4 -4 -11 139.31 231.5
4 -4 -11 632.7 480.59
-4 -4 -12 224.52 226.39
4 4 -12 -230.66 225.15
4 -4 -12 585.24 267
-4 4 -12 -166.22 199.98
-4 -4 12 28.81 208.89
-4 4 -13 -160.67 188.62
4 4 -13 57.92 198.57
-4 4 13 21.09 206.23
4 -4 -13 291.74 216.77
-4 -4 -13 -81.82 221.44
-4 -4 -14 -84.97 179.23
4 4 -14 132.24 198.66
-4 4 14 310.98 206.21
4 -4 -14 3.73 179.64
4 4 -15 -105.04 159.84
-4 -4 -15 47.04 146.4
-4 4 15 -130.65 146.45
4 -4 -15 2 157.33
-4 -4 -16 2.88 119.26
4 -4 -16 -8.16 113.76
5 0 0 -2.37 216.42
-5 0 0 -49.22 149.05
0 -5 0 36.23 123.99
-5 0 1 2373.13 208.95
-5 0 -1 2944.93 289.92
0 5 -1 2643.82 258.09
0 5 -1 2749.43 260.31
5 0 -1 3111.25 356.3
0 -5 1 2662.91 289.1
-5 0 -1 3126.24 297.22
5 0 1 2806.81 271.33
0 5 -2 97804.75 1104.32
0 5 -2 98028.1 1194.67
0 -5 2 99999 1532.63
-5 0 2 99307.59 1113.76
5 0 2 97920.89 1178.59
-5 0 -2 99262.92 1371.14
-5 0 -2 99672.72 1507.05
5 0 -2 99309.92 1638.58
5 0 -3 27864.69 966.22
-5 0 -3 25751.66 763.7
0 5 -3 27229.33 585.21
0 -5 3 27435.7 957.52
-5 0 -3 26827.5 887.41
5 0 3 27093.14 602.63
0 5 3 25283.52 487.74
0 5 -3 27119.63 650.1
0 -5 -3 27728 680.31
0 5 -4 9056.67 413.74
0 -5 4 8749.62 653.78
-5 0 -4 9947.97 625.36
-5 0 4 9743.38 675.42
0 5 -4 9049.6 369.86
0 5 4 9610.46 455
5 0 4 9590.53 664.59
-5 0 -4 9050.53 517.34
0 -5 -4 8843.34 427.45
5 0 -4 8725.49 636.09
0 5 5 9653.85 537.43
5 0 -5 8610.13 668.33
-5 0 -5 8210.67 524.68
0 5 -5 9040.36 387.83
-5 0 5 9036.86 688.43
0 5 -5 8612.23 421.36
5 0 5 8213.23 677.6
-5 0 -5 7694.13 580.67
0 -5 5 8600.11 702.11
0 -5 -5 8880.67 449.17
0 5 -6 1193.23 196.33
0 -5 -6 1219.57 239.48
-5 0 6 1023.75 392.91
5 0 -6 1087.27 400.8
-5 0 -6 938.91 268.71
5 0 6 1236.14 454.08
0 5 6 1275.63 333.88
-5 0 -6 1253.16 359.04
0 -5 6 1313.52 442.12
-5 0 -7 493.34 237.99
5 0 7 534.83 425
5 0 -7 824.32 375.37
0 -5 -7 552.45 206.88
0 -5 7 314.08 392.28
-5 0 -7 220.98 267.6
-5 0 7 395.02 362.91
5 0 -8 2531.09 521.76
5 0 8 2621.58 635.06
-5 0 8 2289.47 531.39
0 -5 8 2135.68 554.5
-5 0 -8 2878.95 477.15
-5 0 -8 2536.56 447.99
-5 0 -9 5749.29 441.08
-5 0 9 5822.24 453.67
-5 0 -9 5801.61 637.67
0 5 -9 6547.56 467.55
-5 0 -9 5440.72 636.49
0 -5 -9 6848.67 509.75
5 0 9 6375.87 904.98
-5 0 9 4159.36 708.31
0 -5 9 5738.61 867.89
5 0 -9 5467.76 716.91
-5 0 10 2784.07 362.14
-5 0 -10 3086.49 552.45
0 -5 10 2275.82 359.06
-5 0 -10 3313.1 386.14
-5 0 10 2414.78 632.47
0 5 10 2905.05 369.1
5 0 10 3674.47 862.52
-5 0 -10 3143.2 551.2
0 5 -10 3060.36 345.92
0 5 -10 2763.63 360.14
0 -5 -10 4090.96 430.69
5 0 -10 2606.97 579.86
0 -5 10 2369.98 716.85
0 5 11 2009.57 345.26
-5 0 11 1649.87 324.07
0 -5 11 1732.73 336.37
-5 0 -11 1743.89 319.43
0 -5 11 1957.53 674.1
-5 0 -11 2283.3 501.4
5 0 -11 1752.35 307.99
5 0 11 1619.01 680.59
0 -5 -11 1864.88 347.16
0 5 -11 2197.99 315.71
0 5 -12 961.21 268.85
-5 0 -12 344.36 225.21
0 5 12 369.49 220.13
0 -5 -12 348.97 255.43
5 0 -12 155.53 218.58
0 5 -13 601 209.66
-5 0 -13 267.56 202.02
0 5 13 254.44 210.98
0 -5 -13 286.4 222.33
5 0 -13 230.1 227.36
0 5 -14 297.16 186.93
0 5 14 80.86 173.14
5 0 -14 613.5 231.49
0 -5 -14 402.89 212.59
-5 0 -14 141.92 169.51
-5 0 -15 247.65 154.98
5 0 -15 79.52 165.57
0 -5 -15 288.48 172.45
-5 0 15 235.52 167.57
5 0 -16 414.83 158.54
0 -5 -16 -1.87 137.31
1 5 0 31863.01 783.73
1 -5 0 29576.85 530.19
5 -1 0 30680.81 759.61
5 1 0 31309.53 820.69
-1 5 0 30896.36 764.78
-5 -1 0 28732.33 641.65
-5 1 0 30480.27 676.61
-5 1 0 30393.96 655.32
5 1 -1 2282.67 326.73
-5 1 -1 2263.9 256.52
-5 -1 -1 2757.1 318.73
1 5 -1 2304.32 259.63
-1 5 -1 2221.16 241.48
1 -5 1 2310.31 274.55
-5 1 1 2534.63 234.16
-5 -1 -1 2122.27 272.49
5 1 1 2176.23 272.27
-5 1 -1 2337.87 235.6
5 -1 1 2381.07 243.41
-1 -5 1 2583.84 284.15
-5 -1 1 2387.85 189.66
5 -1 -1 2237.78 320.87
1 5 -2 1715.15 253.89
-1 5 -2 1689.28 176.71
-1 -5 2 1131.68 252.74
5 -1 2 2064.94 204.85
-1 5 -2 1814.14 215
-5 -1 -2 1729.4 275.78
5 -1 -2 1720.09 322.14
1 5 2 1319.07 128.49
-5 1 2 1484.31 205.43
-5 1 -2 1524.27 222.11
5 1 -2 1767.69 338.6
1 -5 2 2009.71 329.1
-5 -1 2 1639.98 163.15
-5 1 -2 1532.09 260.62
5 1 2 1772.34 238.43
1 5 -2 1689.71 193.22
-5 -1 -2 1770.14 298.53
-1 -5 3 4261.44 449.67
1 -5 -3 5042.93 269.42
-5 1 -3 4484.02 355.42
5 1 3 4764.66 316.79
-1 5 -3 4564.27 233.56
5 -1 -3 4631.19 468.8
-1 5 -3 4710.78 302.35
1 5 -3 4441.87 225.95
1 5 3 4018.83 255.95
-1 -5 -3 4607.85 349.6
1 5 -3 4255.15 332.08
-5 1 -3 4964.93 408.04
5 1 -3 4336.06 447.5
-5 -1 -3 4784.58 378.17
1 -5 3 4682.08 454.38
1 5 -4 6400.65 259.95
5 1 -4 5457.23 507.08
5 -1 -4 5585.53 527.29
-1 -5 4 5458.47 544.59
1 -5 4 5925.37 554.34
5 -1 4 5704.39 547.29
-1 -5 -4 6029.86 384.87
1 -5 -4 6214.48 312.23
-5 -1 4 6260.24 563.37
-1 5 -4 5759.24 265.55
5 1 4 5267.83 504.28
1 5 4 6099.19 381.25
-5 -1 -4 5431.83 409
-1 5 4 5842.09 321.93
-5 1 -4 5172.74 406.75
-5 1 -4 5956.72 482.01
1 5 -4 6011.79 394.21
-1 5 -4 5904.55 336.61
5 -1 -5 3501.75 466.12
-5 1 -5 3881.13 394.38
-5 1 5 4355.17 525.45
-1 5 -5 4066.53 310.31
1 5 5 4202.87 401.7
-1 5 5 4396.93 382.34
1 5 -5 3884.9 224.39
-5 1 -5 3411.47 412.16
1 -5 5 3594.98 525.62
-5 -1 -5 3655.55 379.39
-5 -1 5 3895.77 496
5 1 -5 3514.6 469.78
-1 -5 5 3485.32 512.2
1 -5 -5 3912.52 286.36
1 5 -5 4072.67 359.63
5 -1 5 4173.31 545.49
-1 -5 -5 4035.61 350.33
5 1 5 3907.19 509.7
1 -5 -6 696.85 182.94
-5 1 -6 876.2 285.44
-1 5 6 1154.46 300.17
5 1 6 1405.55 432.92
1 -5 6 908.83 409.36
5 1 -6 682.58 315.21
-1 -5 -6 1026.64 231.54
-5 1 -6 1063.09 282
-5 -1 6 999.75 388.97
1 5 6 958.38 319.37
-5 1 6 1004.89 370.87
-1 -5 6 829.31 376.09
5 -1 -6 1164.74 392.42
-1 5 -6 1017.31 212.35
1 5 -6 774.22 235.38
-5 -1 -6 1261.32 299.96
5 -1 6 1191.74 433.69
5 -1 7 2490.49 575.9
-5 1 -7 2316.16 406.84
-5 -1 -7 1883.68 410.79
-1 -5 7 1581.18 458.87
5 1 -7 1983.56 450.43
-5 -1 -7 2307.82 363.76
1 5 7 2616.14 467.75
-5 1 -7 2259.46 385.3
-5 1 7 2145.65 464.33
-5 -1 7 2141.01 472.72
-1 -5 -7 2268.35 329.45
5 -1 -7 2288.71 480.22
5 1 7 2499.75 540.38
1 -5 7 2299.88 577.71
-5 1 8 1220.6 424.09
1 -5 8 1113.57 541.93
5 -1 8 1856.91 595.01
5 -1 -8 815.24 446.33
-5 1 -8 1246.18 340.99
-1 -5 -8 1857.26 327.37
-5 -1 8 938.48 446.37
-5 -1 -8 1868.94 444.8
-1 -5 8 1069.54 484.74
5 1 -8 1366.93 423.04
-5 -1 -8 1485.16 377.81
-5 1 -8 1023.42 350.2
5 1 8 1543.73 558.62
-5 -1 9 664.09 244.49
-5 1 -9 584.8 318.16
-1 -5 9 680.77 237.48
5 1 9 660.12 581.32
-5 1 -9 613.29 229.75
-5 -1 -9 474.9 349.9
1 5 -9 420 222.68
-5 1 9 -599.75 468.8
-1 -5 9 533.51 522.42
1 5 9 409.5 224.96
1 -5 -9 843.77 272.21
-5 -1 -9 1072.62 271.84
-5 1 -9 472.49 319.04
-5 1 9 881.76 260.17
-1 5 -9 863.81 254.23
5 -1 9 387.21 582.22
5 1 -9 585.37 381.62
-5 -1 -9 638.24 321.38
-5 -1 9 345.52 457.46
1 -5 9 459.19 570.77
-1 -5 -9 672.35 252.87
5 -1 -9 659.55 444.36
-5 -1 -10 -172.15 308.79
-5 -1 -10 207.3 363.72
1 -5 10 -108.47 589.69
-5 -1 -10 -35.68 213.03
1 -5 -10 336.4 253.86
1 5 -10 -401.49 251.65
1 5 10 76.05 234.66
-5 1 -10 37.85 296.97
-5 -1 10 1525.51 323.7
5 -1 -10 459.81 484.77
1 5 -10 -190.89 218.84
-5 1 10 -1013.94 644.04
-5 -1 10 -367.39 581.05
5 1 -10 787.53 456.57
-1 -5 10 204.12 242.46
-1 -5 -10 179.27 260.74
-5 1 -10 168.72 310.08
-5 1 10 57.86 231.48
5 -1 10 417.41 623.94
-1 5 -10 36.43 199.79
-5 1 -10 4.99 218.04
-1 -5 10 343.78 505.56
5 1 10 621.8 580.03
-5 -1 -11 306.91 377.42
5 -1 -11 -337.89 261.43
1 5 11 31.91 222.77
-1 -5 11 282.08 496.32
5 1 11 491.47 574.98
-5 -1 -11 203.96 224.08
1 5 -11 230.02 220.81
-5 -1 -11 340.93 275.45
-1 -5 -11 355.63 279.96
-5 1 11 -18.76 216.3
-1 5 11 -26.23 239.29
-1 5 -11 366.56 245.59
-5 1 -11 31.33 224.24
1 -5 -11 287.79 263.73
1 -5 11 -628.85 558.43
-5 1 -11 595.06 347.86
-5 -1 11 -592.79 478.91
5 -1 11 664.74 595.97
-1 -5 11 554.44 260.43
-5 -1 11 180.59 228.81
1 5 12 385.11 239.03
-1 -5 12 468.76 250.03
-1 -5 -12 510.14 261.31
1 -5 -12 305.72 217.95
-5 -1 12 481.1 220.75
1 5 -12 376.66 224.82
5 -1 -12 398.81 239.12
5 1 -12 353.11 216.8
-1 5 12 448.55 223.97
-1 5 -12 428.07 215.14
-5 1 -12 515.47 218.42
-5 -1 -12 223.13 210.73
1 -5 -13 -206.27 211.16
-1 5 -13 -56.67 192.11
-5 1 -13 -34.59 185.83
1 5 13 -260.15 195.78
5 1 -13 28.55 204.91
5 -1 -13 9.13 203.6
-5 -1 -13 -110.64 201.3
-1 5 13 -54.14 206.13
1 5 -13 -54.92 172.92
-1 -5 -13 -137.31 221.12
-1 5 14 164.94 167.21
-5 1 -14 134.9 179.58
5 1 -14 264.67 219.24
-5 -1 -14 345.63 190.76
5 -1 -14 465.38 234.89
1 5 14 189.42 170.46
1 5 -14 47.89 176.91
1 -5 -14 315.71 206.21
-1 -5 -14 373.41 208.48
-1 5 -14 58.21 152.19
-1 5 15 -11.57 141.5
5 -1 -15 -74.89 170.29
1 -5 -15 12.15 164.93
1 5 -15 985.63 203.86
-5 -1 -15 129.97 147.28
-1 -5 -15 118.43 163.5
5 1 -15 67.95 167.73
-5 1 -15 1225.54 242.39
-5 -1 15 -108.29 170.21
-5 1 15 -223.6 161.57
-1 -5 -16 4.3 122.63
1 -5 -16 -9.92 119.15
5 1 -16 -74.98 135.81
5 -1 -16 -6.91 126.76
-5 -1 -16 58.4 105.39
-5 2 0 -127.24 186.63
-2 5 0 -60.84 195.32
-5 2 0 -26.33 129.92
-5 -2 0 44.44 151.82
2 5 0 173.6 209.81
5 -2 0 -46.14 196.86
5 2 0 95.31 226.5
2 -5 0 -149.55 158.62
2 5 1 8577.27 483
-2 -5 1 8188.29 430.5
-5 2 -1 8457.71 421.24
-5 2 1 9075.67 417.92
-2 5 1 9619.24 518.62
-5 2 1 8711.2 277.79
-5 -2 1 7723.88 280.73
5 2 -1 8593.51 508.5
5 -2 -1 9138.16 502.76
-5 2 -1 8806.25 379.04
2 -5 1 8389.23 431.18
5 2 1 8078.68 459.32
-2 5 -1 8589 415.96
5 -2 1 9022.92 367.83
2 5 -1 8622.09 464.47
-5 2 2 10854.84 468.41
2 5 -2 10367.24 508.38
-2 5 -2 11190.6 454.87
2 -5 2 10398.94 548.59
-2 -5 2 10387.01 546.24
5 2 2 10989.16 505.07
-5 -2 -2 11409.17 570.29
5 2 -2 10768.37 595.14
-5 -2 2 10014.78 267.85
-5 2 -2 11134.31 513.52
-5 2 -2 10720.71 462.99
5 -2 2 10767.21 312.08
-5 2 2 9481.73 252.8
5 -2 -2 11060.24 604.11
-2 -5 -3 10823.61 553.1
-5 2 -3 10621.35 514.99
5 2 3 10490.33 493.52
-5 -2 -3 10525.25 549.97
-5 2 -3 10311.11 554.89
2 5 -3 10027.01 521.49
-5 2 3 11175.57 566.39
-2 -5 3 10942.04 634.28
-2 5 -3 10578.94 466.7
5 2 -3 10369.53 638.33
2 5 3 9991.7 429.79
2 -5 3 10692.51 641.89
2 -5 -3 9459.09 264.67
-2 -5 4 6478.92 587.84
-5 2 -4 7951.58 542.29
-5 -2 -4 7331.88 495.38
-5 -2 4 7324.85 610.39
-5 2 -4 6988.55 479.46
-2 -5 -4 7444.1 472.91
5 2 -4 7386.49 595.03
2 5 4 6801.48 438.29
2 -5 -4 5859.37 258.43
5 -2 4 7037.02 629.55
2 5 -4 7180.55 481.37
-2 5 -4 7369.79 423.47
2 -5 4 6466.1 576.92
-2 -5 -5 14468.69 649.52
-2 5 -5 14108.42 595.66
-5 -2 5 12912.79 824.53
-5 2 -5 13640.94 712.62
5 -2 5 12552.52 851.21
5 2 5 13324.6 812.32
5 2 -5 13543.52 815.94
2 5 5 12931.98 661.84
2 -5 5 12302.29 828.98
-5 2 -5 13606.25 702.66
2 5 -5 13904.69 686.87
-5 -2 -5 13621.91 680.16
-2 5 5 14694.41 609.57
-2 -5 5 13242.45 844.53
-5 2 -6 3535.2 424.43
-2 5 -6 4237.13 379.26
5 2 -6 3731.83 526.63
-2 -5 -6 3687.35 382.47
-5 -2 6 3883.72 568.9
2 5 -6 4124.56 438.72
-2 5 6 4130.12 420.21
5 2 6 3408 542.27
5 -2 -6 3410.53 536.44
5 -2 6 3483.88 573.57
-2 -5 6 3411.27 570.98
-5 -2 -6 4016.65 429.46
-5 2 6 4054.18 552.09
2 5 6 4353.08 485.57
2 -5 6 3810.17 579.71
-5 2 -6 3832.67 461.04
-5 2 -7 -63.26 241.76
-5 -2 7 -312.54 381.69
-2 5 -7 168.55 188.62
5 2 7 311.48 406.51
-5 2 -7 -21.02 224.88
-2 -5 -7 204.91 206.44
5 2 -7 -278.48 359.92
2 -5 7 197.83 410.56
2 5 7 272.7 324.87
-5 -2 -7 -110.28 245.83
-5 2 7 -364.28 392.79
5 -2 7 195.2 417.13
5 -2 -7 -129.93 341.13
-2 -5 7 169.02 412.7
2 5 -7 305.75 251.58
-5 2 8 -109.35 430.6
5 2 8 274.33 441.74
2 -5 8 391.33 519.85
-5 -2 -8 378.43 279.95
5 -2 8 590.72 548.19
-2 -5 8 284.18 448.2
-5 -2 8 -168.42 417.12
5 2 -8 370.69 345.87
-2 -5 -8 -126.41 241.6
5 -2 -8 190.52 401.98
-5 2 -8 131.51 252.74
-5 2 -8 261.51 280.25
-5 -2 -9 5130.99 688.37
-2 -5 9 4509.85 416.99
-5 2 9 4899.48 725.52
5 2 9 4702.12 800.47
2 -5 9 4710.16 855.19
-5 -2 -9 4810.8 426.41
-2 -5 9 4495.28 778.15
-5 -2 9 4511.44 739.62
-5 2 9 4623.54 417.91
-5 2 -9 4393.55 396.22
5 -2 9 4586.52 847.39
2 5 -9 4591.34 397.9
5 2 -9 4874.86 667.96
-5 -2 9 4919.56 434.08
-5 -2 -9 4969.24 615.65
2 -5 -9 4639.16 425.54
-2 5 -9 4249.17 388.29
-5 2 -9 4067.31 537.31
5 -2 -9 4735.87 746.08
-2 -5 -9 5608.02 455.06
2 5 9 3763.3 379.76
-5 2 -9 4139.28 574.09
-5 -2 -10 4988.59 684.13
2 5 -10 4841.18 425.97
-5 -2 10 5498.68 837.4
2 -5 10 4915.91 899.7
-5 -2 -10 5739.97 478.94
5 -2 10 5656.46 965.19
-5 2 -10 5736.82 670.38
-2 -5 -10 6799.22 513.86
-2 -5 10 5757.72 478.59
5 -2 -10 5495.14 810.78
5 2 10 5563.43 931.66
-2 -5 10 5055.01 834.44
-5 2 -10 6050.64 470.53
-5 -2 10 5518.14 480.99
-5 -2 -10 6210.13 715.18
-5 2 10 5877.55 485.07
2 -5 -10 6568.34 498.65
-5 2 -10 6476.36 711.5
2 5 10 5641.39 462.04
2 -5 -11 1264.6 589.93
-2 5 -11 2147.19 344.93
-2 -5 11 1060.46 281.37
-2 -5 -11 1083.69 320.12
5 -2 -11 1014.66 281.04
-5 -2 -11 1832.31 459.55
5 -2 -11 1376.37 519.03
-5 -2 11 170.06 540.92
-5 -2 11 947.91 276.94
-5 -2 -11 1185.11 422.88
2 5 11 779.98 260.07
-2 5 11 1381.42 310.3
2 5 -11 1507.44 291.68
-2 5 -11 1356.08 312.34
2 -5 -11 2246.78 355.81
5 -2 11 1025.94 651.15
-5 2 -11 1387.31 291.25
-5 -2 -11 1716.95 314.2
2 5 -12 1466.6 273.8
2 -5 -12 1890.63 326.76
-5 2 -12 1077.98 264.69
-2 5 -12 1744.61 286.21
-5 -2 12 1373.65 297.21
-5 -2 -12 1333.54 282.32
5 -2 -12 1450.13 306.05
5 2 -12 928.5 272.1
-2 -5 12 821.53 259.03
-2 -5 -12 1303.99 306.85
-2 5 12 1092.93 287.39
2 5 12 974.13 265.55
-2 5 13 82.45 200.67
-5 2 -13 272.41 185.62
-5 -2 -13 136.14 205.65
2 5 -13 518.09 215.18
-2 5 -13 255.53 193.67
5 -2 -13 410.49 232.53
5 2 -13 -41.42 214.84
2 5 13 373.49 226.51
-2 -5 -13 247.78 224.41
2 -5 -13 -22.57 209.93
-5 2 14 -180.72 193.45
5 2 -14 291.19 208.43
-2 -5 -14 -9.23 195.32
-2 5 14 37.45 169.63
5 -2 -14 498.94 220.55
-5 -2 -14 -129.8 183.23
-5 2 -14 277.71 179.19
2 5 -14 149.76 172.86
2 -5 -14 15.37 189.61
-5 -2 -15 191.89 160.13
5 2 -15 194.21 165.09
5 -2 -15 277.24 183.17
-2 5 15 188.78 164.59
-5 2 15 203.78 163.71
-5 2 -15 0.3 130.33
-5 -2 15 261.42 161.39
2 -5 -15 19.14 181.48
-2 -5 -15 342.36 170.73
2 5 -15 112.65 136.65
-5 -2 -16 204.98 122.76
5 2 -16 251.95 139.92
2 -5 -16 3.13 128.01
5 -2 -16 8.41 136.1
-2 -5 -16 16.67 143.58
5 3 0 2907.92 348.36
3 5 0 2914.92 337.81
-5 3 0 2935.44 206.86
-3 5 0 2419.1 281.29
3 -5 0 2673.13 244.25
-5 3 0 3237.94 300.69
5 -3 0 3460.19 326.33
-3 5 -1 18769.13 611.88
-5 3 -1 17829.87 535.69
5 3 1 17540.68 663.82
3 5 -1 17957.27 672.2
5 -3 1 18665.54 495.62
3 -5 1 18363.18 620.41
-5 3 1 16293.23 310.14
5 3 -1 17411.21 715.19
-5 3 -1 18371.65 625.37
3 5 1 16928.28 673.33
-3 5 1 18631.82 662.34
-5 -3 1 16750.38 400.19
-5 3 1 18612.52 613.09
-5 3 -2 322.49 174.48
-3 5 -2 299.37 185.72
-3 5 -2 66.44 171.09
5 3 2 131.67 196.56
-5 -3 2 81.09 36.33
-5 3 2 -12.28 177.03
5 -3 2 152.91 71.43
3 5 -2 324.37 235.73
-5 3 -2 215.92 193.78
3 -5 2 301.73 264.11
-3 5 2 397.37 293.07
-3 -5 2 32.71 233.03
3 5 2 244 221.62
5 3 -2 115.14 258.21
-3 5 -3 49.55 166.72
-3 -5 3 416.08 286.49
5 3 3 492.12 222.77
-3 5 -3 286.16 188.61
-5 3 3 416.1 265.44
-5 -3 -3 405.45 238.26
-5 3 -3 307.2 213.12
-5 3 -3 59.71 171.91
5 3 -3 -37.99 264.38
-3 -5 -3 318.09 246.26
3 5 -3 204.31 233.91
3 -5 3 148.16 273.99
5 -3 3 107.3 285.98
5 3 -4 972.4 323.73
-3 5 -4 1359.27 264.86
-3 5 -4 1088.6 231.75
-5 -3 4 917.11 328.27
5 -3 4 998.08 383.42
-5 3 -4 1134.92 261.87
-3 -5 4 1034.42 326.9
-5 -3 -4 1079.09 262
3 -5 4 919.65 357.35
-3 -5 -4 1264.71 265.26
-5 3 -4 1013.09 253.58
3 5 -4 1123.03 288.16
3 5 4 1234.94 275.7
5 -3 5 -57.61 358.33
5 3 -5 95.29 291.01
3 5 -5 114.3 249.12
-3 -5 -5 -37.56 190.68
-3 5 -5 32.6 184.25
3 -5 5 48.71 340.26
-5 -3 5 -124.87 319.4
5 3 5 -116.05 300.45
-5 3 -5 -127.84 213.3
-5 3 -5 -37.9 205.74
3 5 5 62.91 253.05
-3 -5 5 53.75 312.13
-5 -3 -5 25.92 213.68
-3 5 -5 164.8 205.45
-3 5 -6 1583.65 349.2
-5 -3 -6 1243.68 301.27
-5 -3 6 967.65 405.34
5 3 6 1335.19 413.81
-5 3 -6 1381.04 310.55
-3 5 -6 1361.63 272.83
3 5 -6 1206.58 322.83
-5 3 -6 1448.38 326.47
-3 -5 -6 1769.6 321.77
-3 -5 6 2105.54 470.1
3 5 6 1229.22 352.96
3 -5 6 1722.96 480.25
5 3 -6 1686.06 426.01
5 -3 6 1864.29 500.96
-5 -3 -7 4565.78 498.32
-3 -5 -7 5100.77 495.7
3 5 7 4478.15 600.39
-3 5 -7 5136.58 551.5
5 3 7 5071.6 662.3
-5 3 -7 4794.8 512.7
-3 -5 7 4654.5 676.04
-5 -3 7 4252.39 619.14
3 5 -7 4348.53 512.61
5 3 -7 4521.27 589.93
5 -3 7 4448.16 700.56
3 -5 7 5413.53 732.82
-3 5 -7 4780.23 457.11
-5 3 -7 4163.95 494.62
3 -5 8 5192.05 814.47
-3 -5 -8 4818.84 533.03
-5 3 -8 3661.76 506.86
-5 -3 8 4577.71 697.51
-5 -3 -8 4790.29 559.91
-5 3 -8 4420.24 526.72
5 -3 -8 4726.44 722.03
5 3 -8 4486.54 622.68
5 3 8 3541.32 664.23
5 -3 8 4385.04 753.07
-3 5 -8 5053.84 475.34
-3 -5 8 4378.48 729.69
-3 -5 -9 424.6 243.42
-3 5 -9 -161.1 240.32
5 3 9 -80.41 543.08
3 5 -9 152.4 202.82
-5 -3 -9 446.22 213.17
3 -5 -9 471.29 238.74
-5 -3 9 291.49 224.36
5 -3 -9 170.77 485.76
-3 -5 9 327.62 234.28
-5 3 -9 894.35 362.56
5 -3 9 120.74 546.34
3 5 9 704.08 250.54
5 3 -9 1077 434.61
-3 -5 9 700.38 530.27
-5 3 9 413.82 243.92
-5 3 -9 588.31 347.41
-5 -3 -9 475.96 328.96
-3 -5 -9 -92.46 281.92
-5 -3 9 -175.61 523.73
3 -5 9 709.51 573.8
-5 -3 -10 -179.9 227.53
-3 -5 -10 297.3 256
-5 -3 10 -174.44 238.99
5 -3 -10 -342.11 273.77
5 -3 10 432.53 611.41
-5 -3 -10 360.22 418
-5 3 -10 694.29 386.39
-5 3 -10 -44.22 220.99
-3 -5 10 24 517.37
5 -3 -10 380.4 555.67
-5 -3 -10 16.44 294.01
3 -5 10 -557.65 683.19
3 5 10 228.15 222.75
-5 -3 10 -516.65 552.14
5 3 10 -808.35 548.05
3 -5 -10 -100.76 241.43
-3 -5 10 40.47 213.36
-3 5 -10 -718.54 341.96
3 5 -11 -39.44 223.56
3 5 11 355.07 224.2
-3 -5 11 307.17 237.1
-3 5 -11 -83.62 264.76
5 -3 -11 129.69 221.12
-5 -3 11 311.25 246.01
-5 3 -11 339.32 239.06
3 -5 -11 567.4 253.56
-3 -5 -11 492.26 272.4
-5 -3 -11 288.22 241.71
-3 -5 12 454.79 223.13
-5 -3 12 350.17 228.19
5 -3 -12 569.13 252.48
5 3 -12 292.59 209.14
-3 5 12 174.03 211.06
-5 -3 -12 371.02 230.32
-3 -5 -12 566.47 266.37
-5 3 -12 274.09 210.91
3 5 -12 263.83 209.71
3 -5 -12 342.01 220.01
5 -3 -13 254.65 213.24
-5 3 -13 235.35 181.18
3 5 -13 354.58 224.39
5 3 -13 82.32 203.01
-3 5 13 267.8 220.85
-3 -5 -13 124.64 209.61
3 -5 -13 118.92 203.4
-5 -3 -13 77.46 206.34
5 -3 -14 728.78 230.63
5 3 -14 874.52 233.2
-5 3 -14 384.36 184.4
3 -5 -14 5.27 199.19
-3 -5 -14 710.42 233.98
-5 -3 -14 414.2 207.57
3 5 -14 628.51 213.3
-5 3 14 336.01 206.41
-3 5 14 454.91 201.21
-3 5 15 337.63 149.69
-5 -3 -15 442.08 166.67
3 -5 -15 7.83 169.89
-3 -5 -15 -56.03 150.12
5 -3 -15 -0.41 167.06
-5 3 15 187.61 165.55
5 3 -15 174.53 160.34
3 5 -15 197.69 154.69
-3 -5 -16 -3.24 113.67
-5 -3 -16 89.59 114.71
5 -3 -16 -0.27 134.14
3 -5 -16 -2.45 114.89
5 3 -16 189.45 122.25
-4 5 0 -9.89 210.79
5 4 0 -109.11 232.09
-5 4 0 34.59 102.5
-5 4 0 -34.93 181
4 5 0 -203.94 243
-4 5 -1 2127.44 226.12
-4 5 1 2220.47 292.11
5 4 1 1868.06 302.96
4 5 1 2105.12 318.59
-5 -4 1 1917.98 180.43
5 4 -1 2090.26 329.56
-4 5 -1 1858.64 265.63
-5 4 1 1714.48 251.93
4 5 -1 1775.83 298.33
-5 4 -1 1775.18 206.91
5 -4 1 2098.2 222.05
4 -5 1 1910.38 300.28
-5 4 -1 2146.27 277.64
5 4 -2 4486.97 448.33
5 4 2 4196.65 388.59
4 5 -2 3937.8 402.45
-4 5 -2 4011.92 319.31
-4 5 2 4650.19 418.14
4 5 2 4314.81 404.92
-5 4 -2 4631.66 369.41
4 -5 2 4193.93 420.27
-4 5 -2 4366.94 355.26
-5 4 2 4452.75 379.57
-5 4 -2 4191.99 327
5 -4 3 10022.58 671.17
-5 -4 -3 10088.58 611.92
-5 4 -3 9373.48 522.32
-5 4 -3 10286.1 548.7
5 4 -3 9773.91 625.88
4 5 -3 9649.81 602.07
-4 5 -3 10241.23 532.68
-4 5 -3 9959.66 528
-4 -5 3 9671.44 616.15
5 4 3 10111.92 573.01
-4 -5 -3 10025.92 615.73
4 -5 3 9967.12 657.06
5 -4 4 3572.09 520.55
-5 -4 4 3012.4 441.98
-4 -5 4 3064.03 435.06
-5 4 -4 3824.98 391.09
-4 -5 -4 3419.95 391.84
-5 4 -4 3268.05 370.89
-5 -4 -4 3354.01 397.65
-4 5 -4 3308.45 371.65
5 4 -4 3235.13 464.57
4 5 -4 3117.35 429.87
4 -5 4 3203.1 499.67
-4 5 -4 3630.87 364.36
4 5 4 2930.49 372.16
-5 -4 5 9075.55 721.61
5 -4 5 8605.9 770.46
-5 4 -5 8230.21 584.5
-4 -5 5 8532.13 701.78
4 -5 5 8554.62 778.9
-4 5 -5 9227.93 572.31
5 4 5 8513.18 667.17
4 5 5 8543.36 619.15
-5 -4 -5 8719.05 586.33
5 4 -5 8911.09 692.47
-5 4 -5 9143.6 593.98
4 5 -5 9633.61 684.33
-4 5 -5 8892.87 592.34
-4 -5 -5 8447.34 574.28
4 -5 6 1198.46 492.09
-5 -4 6 809.84 370.51
-5 4 -6 927.7 292.97
5 4 6 982.49 381.63
4 5 -6 1013.64 346.84
5 4 -6 1080.71 376.09
5 -4 6 1311.78 485.32
-5 4 -6 953.75 295.09
-4 5 -6 1161.3 317.6
-4 -5 6 878.89 390.76
-4 -5 -6 1007.66 282.09
4 5 6 1155.31 384.74
-4 5 -6 734.53 257.47
-5 -4 -6 884.84 282.29
4 -5 7 146.19 429.3
4 5 -7 -389.69 343.84
-5 -4 -7 98.85 222.46
4 5 7 196.78 364.41
-4 -5 -7 73.34 214.46
-5 4 -7 17.71 224.92
-5 -4 7 -76.01 371.61
5 -4 7 38.91 446.51
5 4 -7 -216.63 326.2
5 4 7 -27.16 379.66
-4 5 -7 431.47 292.87
-4 5 -7 -70.74 213.91
-4 -5 7 86.83 396.74
-5 4 -7 13.61 224.04
-4 5 -8 823.1 288.81
-4 -5 -8 399.46 259.23
5 -4 8 354.06 513.59
-5 -4 8 521.89 447.43
4 5 -8 530.33 313.79
-5 -4 -8 1102.43 345.75
-4 -5 8 657.5 479.62
5 4 -8 810.64 387.54
5 4 8 603.58 467.51
-5 4 -8 1198.16 343.6
4 -5 8 1249.05 602.05
-5 4 -8 1194.97 329.87
-4 5 -8 1463.32 391.7
5 -4 9 1281.85 645.19
-5 -4 -9 562.53 238.06
-4 -5 9 524.72 498.73
4 5 -9 111.19 204.39
4 -5 -9 660.78 244.28
-4 -5 -9 742.18 264.22
5 4 -9 624.06 385.99
-4 -5 9 343.76 239.81
-5 -4 -9 333.38 281.93
-5 4 -9 465.56 323.26
5 -4 -9 566.56 523.17
-5 4 -9 650.53 276.87
-4 5 -9 142.96 225.17
5 -4 -9 92.16 242.05
4 -5 9 1323.43 675.11
-4 5 -9 -10.76 292.41
-5 4 -9 1427.92 429.66
-4 -5 -9 45.72 275.79
-5 -4 9 488.1 471.69
5 4 9 760 567.92
-5 -4 9 307.41 235.49
5 -4 10 1493.78 706.86
4 -5 -10 794.94 551.84
-5 -4 10 1595.61 612.46
5 -4 -10 1774.21 636.51
-5 -4 -10 1877.18 580.45
-5 -4 -10 621.77 361.63
-5 -4 -10 1381.53 298.51
4 -5 -10 1101.52 274.52
5 -4 -10 1472.02 307.5
-4 -5 -10 1232.57 315.48
-4 5 -10 1341.42 324.97
-4 -5 10 1249.17 303.28
-5 -4 10 1554.38 313.05
-4 -5 10 1049.04 520.5
4 -5 10 868.44 638.37
4 -5 -11 1878.5 317.52
-5 -4 -11 2014.55 344.7
-5 -4 11 1797.44 341.7
5 -4 -11 2047.67 321.6
-4 5 -11 1859.29 345.06
-4 -5 11 1795.98 323.96
-4 -5 -11 2158.76 352.27
-4 -5 -12 321.17 231.15
4 5 -12 162.05 205.85
5 4 -12 215.79 211.48
-4 -5 12 561.22 241.54
4 -5 -12 703.89 243.65
-4 5 12 15.95 222.72
5 -4 -12 230.83 213.93
-5 -4 12 266.88 232.99
-5 -4 -12 101.75 213.23
5 4 -13 -92.68 205.66
4 5 -13 334.43 207.35
-4 -5 -13 116.45 219.14
5 -4 -13 151.67 215.08
-5 -4 13 169.9 211.28
-5 -4 -13 -197.11 223.97
4 -5 -13 178.23 203.12
-5 4 13 49.78 205.59
-4 -5 13 -155.98 214.69
-4 5 13 -106.54 206.17
5 4 -14 282.45 196.63
5 -4 -14 7.69 181.92
-4 -5 -14 106.34 192.92
4 5 -14 260.46 189.19
-5 4 14 76.86 181.31
-5 -4 -14 -73.02 179.08
-4 5 14 187.94 190.67
4 -5 -14 -0.16 199.87
5 4 -15 -15.44 141.72
5 -4 -15 -2.28 157.25
4 5 -15 84.24 135.04
-4 5 15 87.78 144.1
-4 -5 -15 218.88 158.22
4 -5 -15 0.49 142.21
-5 -4 -15 77.56 147.97
-5 4 15 80.45 150.67
4 -5 -16 2.4 111.26
-4 -5 -16 -7.2 113.43
-5 -4 -16 -33.04 106.13
5 -4 -16 -9.58 107.03
5 5 0 5482.91 451.24
-5 5 0 5588.4 412.07
5 5 1 3649.33 388.54
-5 5 -1 3859.38 349.87
-5 5 1 3746.68 353.91
5 5 -1 3625.27 400.46
-5 5 -1 3463.11 272.09
5 -5 2 717.11 307.57
5 5 -2 387.06 266.84
5 5 2 520.86 254.33
-5 5 2 631.5 250.31
-5 5 -2 654.31 198.26
-5 5 -2 709.48 224.38
5 5 -3 4254.34 468.72
-5 5 -3 4532.8 396.91
5 -5 3 4467.27 506.28
-5 -5 -3 4495.28 469.98
-5 5 -3 3785.48 367.88
-5 -5 4 -246.26 323.7
-5 5 -4 8.01 196.76
5 -5 4 -128.21 322.82
5 5 -4 112.52 264
-5 -5 -4 56.16 237.17
-5 5 -4 11.29 196.53
-5 -5 5 2844.62 478.57
-5 5 -5 3294.44 389.28
5 -5 5 3358.87 574.19
5 5 5 2756.57 448.82
-5 5 -5 2596.59 363.82
5 5 -5 3107.16 459.54
-5 -5 -5 3002.42 397.21
5 5 -6 7979.24 703.33
5 5 6 8680.13 737.2
-5 -5 6 8147.12 786.8
5 -5 6 8667.85 869.7
-5 5 -6 9348.97 651.8
-5 -5 -6 8047.99 620.95
-5 5 -6 8161.53 635.53
5 -5 7 13481.1 1126.1
5 5 -7 14296.03 953.69
5 5 7 13483.35 970.84
-5 -5 7 12177.33 995.73
-5 5 -7 14431.71 826.75
-5 5 -7 13780.93 862.85
-5 -5 -7 13144.1 830.27
-5 5 -8 14465.81 886.4
5 -5 8 13260.47 1192.89
5 5 -8 13516.99 986.76
-5 5 -8 12991.06 894.24
-5 -5 8 12523 1087.04
-5 5 -8 12096.58 604.09
-5 -5 -8 13104.94 619.08
-5 -5 -8 12550.69 866.87
-5 -5 8 12322.02 652.68
-5 5 -9 3549.76 521.68
-5 -5 -9 3196.36 377.96
-5 -5 9 3410.25 401.75
5 -5 9 3586.36 822.73
5 -5 -9 2964.49 347.25
5 -5 -9 3048.47 732.72
-5 -5 9 2774.21 645.4
-5 5 -9 2567.1 367.69
-5 -5 -9 2884.16 496.8
-5 -5 -10 90.34 306.31
-5 -5 10 -27.51 457.3
5 -5 10 108.35 650.49
-5 5 -10 161.79 280.61
5 -5 -10 138.06 225.5
-5 -5 -10 167.53 243.92
-5 -5 10 223.03 237.35
5 -5 -10 382.44 543.26
-5 -5 -11 261.42 238.02
-5 -5 11 493.78 268.23
5 -5 -11 180.26 214.44
-5 -5 12 781.79 267.7
5 -5 -12 767.36 263.54
5 5 -12 652.1 245.81
-5 -5 -12 624.36 275.99
-5 5 12 251.79 231.73
5 -5 -13 958.22 259.45
-5 5 13 1211.95 274.52
-5 -5 -13 1204.86 273.28
5 5 -13 1370.13 266.98
-5 -5 13 1191.88 277.31
5 -5 -14 5.99 211.48
5 5 -14 624.47 209.98
-5 5 14 717.25 217.87
-5 -5 -14 755.61 229.74
5 5 -15 191.33 148.22
-5 5 15 228.91 155.89
-5 -5 -15 335.63 169.77
5 -5 -15 3.12 151.27
6 0 0 391.45 214.98
0 -6 0 256.69 126.62
-6 0 0 198.76 156.08
0 -6 1 25167.46 692.79
0 6 -1 25111.09 694.4
6 0 -1 26098.91 849.46
-6 0 1 24922.63 620.8
6 0 1 25948.36 734.49
-6 0 -1 26398.05 764.62
0 6 -1 25399.31 691.05
-6 0 -1 24788.35 726.03
-6 0 -2 10352.71 551.04
-6 0 2 9478.66 397.92
0 -6 2 9575.93 551.25
0 6 -2 8975.06 426.04
6 0 -2 9059.16 594.54
0 6 -2 9074.5 398.85
6 0 2 9955.93 458.43
-6 0 -2 9120.06 494.47
-6 0 3 17939.64 593.68
0 6 -3 17382.04 518.14
0 -6 3 16567.97 787.42
6 0 3 17148.01 535.13
0 -6 -3 17263.8 592.66
6 0 -3 16543.07 812.37
-6 0 -3 17217.23 756.91
-6 0 -3 17524.05 677.47
0 6 -3 16846.82 554.91
-6 0 -4 1961.62 341.14
0 6 -4 2172.27 211.84
6 0 -4 1997.18 398.77
0 6 -4 1972.14 229.26
0 -6 4 1930.31 415.96
-6 0 -4 1709.36 292.24
0 -6 -4 2144.41 243.9
-6 0 -5 11152.57 631.84
0 6 -5 11537.97 479.91
6 0 -5 11536.38 792.33
-6 0 -5 11584.04 730.03
0 -6 -5 12012.71 523.28
6 0 5 11209.59 818.45
0 -6 5 11630.85 818.86
0 6 -5 11684.37 442.67
0 -6 6 275.17 404.51
-6 0 -6 -35.91 279.36
-6 0 -6 102.22 201.13
6 0 -6 222.8 327.97
0 -6 -6 199.54 159.85
6 0 6 201.97 377.98
6 0 -7 883.77 389.19
6 0 7 508.25 456.53
-6 0 -7 210.69 237.31
-6 0 7 -7.95 400.2
0 -6 7 198.09 408.34
-6 0 -7 243.92 280.95
0 -6 8 -154.81 492.34
6 0 8 423.22 528
-6 0 8 -364.44 504.22
6 0 -8 -223.83 364.22
-6 0 -8 94.49 255.03
-6 0 -8 -139.75 297.91
6 0 9 90.95 558.15
-6 0 -9 237.21 226.63
-6 0 9 249.89 223.17
0 -6 9 159.87 486.95
0 6 -9 356.2 214.95
0 -6 -9 907.1 283.46
-6 0 -9 370.26 324.13
0 6 9 395.46 226.85
6 0 -9 305.92 408.7
-6 0 -9 384.46 298.25
-6 0 -10 115.44 332.58
0 -6 10 352.62 609.82
0 -6 -10 -48.77 257.22
6 0 10 106.18 565.48
0 6 -10 -165.31 263.63
-6 0 10 -13.93 211.35
-6 0 -10 22.46 221.28
-6 0 -10 283.83 352.52
0 6 10 -47.25 220.54
6 0 -10 127.55 439.83
-6 0 11 188.41 227.6
0 -6 -11 65.71 250.24
0 6 -11 436.47 243.02
-6 0 -11 120.27 206.79
0 6 11 97.02 229.16
6 0 -12 781.01 262.37
-6 0 -12 1314.24 278.57
0 6 12 1152.38 280.58
0 6 -12 1107.42 252.88
0 -6 -12 1369.98 295.98
-6 0 -13 353.04 207.32
0 6 13 418.2 213.3
6 0 -13 228.43 222.47
0 -6 -13 134.2 209.57
0 6 -13 332.05 185.51
-6 0 -14 542.71 204.59
0 -6 -14 -2.64 200.56
6 0 -14 376.6 207.95
0 6 14 328.4 179.77
-6 0 15 -1.97 150.06
6 0 -15 302.14 181.95
0 -6 -15 -14.9 147.93
0 6 15 124.53 138.59
-6 0 -15 19.67 130.58
6 0 -16 8.21 128.53
0 -6 -16 -0.67 119.69
-6 1 0 81.79 158.49
1 -6 0 -189.57 134.51
-6 1 0 58.04 152.32
-6 -1 0 -84.12 151.36
6 -1 0 48.08 202.51
6 1 0 -19.76 218.96
1 6 0 2.73 200.46
-1 6 0 232.72 212.58
1 -6 1 1052.06 244.49
6 1 -1 1067.83 284.07
-6 -1 -1 1200.96 240.99
6 -1 -1 1058.76 279.34
6 1 1 1039.31 256.29
1 6 -1 1188.49 247.89
-6 1 -1 1199.66 230.98
-6 1 -1 1215.56 221.14
-6 -1 -1 1152.34 263.99
-6 1 1 1122.72 199.32
-6 -1 1 1082.91 169.13
-1 6 -1 1269.43 219.28
-1 -6 1 1146.16 230.68
6 -1 1 1160.43 221.5
-6 1 1 1202.41 203.54
-1 -6 2 172.62 257.3
-6 1 -2 -9.88 186.59
1 6 -2 255.62 170.46
-6 -1 -2 25.88 201.76
-6 1 -2 9.65 208.13
1 6 -2 107.2 183.07
-6 -1 -2 160.29 228.66
-6 1 2 -58.55 162.31
-1 6 -2 186.86 150.11
6 1 -2 12.67 254.17
-6 -1 2 153.42 126.58
6 1 2 33.11 183.81
6 -1 2 506.84 181.88
6 -1 -2 57.71 279.77
1 -6 2 151.56 257.54
-6 -1 -3 1209.53 258.7
-6 1 3 1995.29 279.8
1 6 -3 1186.38 226.31
-1 6 -3 1542.45 216.11
-6 1 -3 1390.44 285.65
-1 -6 3 1165.56 299.52
-1 6 -3 1561.51 176.67
6 1 -3 1371.35 367.28
1 -6 3 1281.26 340.76
1 6 3 1045.89 120.11
6 1 3 1642.4 238.34
-6 1 -3 1533.14 253.12
1 -6 -3 1680.93 204.28
6 -1 -3 1451.66 354.31
-6 -1 -3 1527.05 312.76
6 -1 3 1447.11 175.61
1 6 -3 1460.96 178.71
-6 1 -4 109.66 192.25
-6 -1 -4 -198.08 269
-1 -6 4 97.07 307.84
-6 -1 -4 72.42 195.95
-1 6 -4 99.82 113.8
-1 -6 -4 239.16 176.78
1 -6 -4 -64.08 131.57
-6 1 -4 272.67 243.09
1 6 4 -3.42 141.04
1 6 -4 -35.51 178.02
1 6 -4 48.74 110.35
6 1 -4 91.78 285.61
1 -6 4 148.94 291.93
6 -1 4 173.41 309.85
6 -1 -4 56.89 297.98
-1 6 -4 228.61 142.66
-6 -1 -5 810.74 251.37
-6 1 -5 1214.8 309.64
-1 -6 -5 816.69 195.04
1 -6 -5 655.02 155.44
6 1 -5 1153.87 454.74
-1 6 -5 928.76 182.05
1 6 -5 700.47 219.29
1 -6 5 721.99 379.84
6 -1 -5 1255.81 371.22
-6 1 -5 812.72 252.83
6 1 5 807.73 380.48
-1 -6 5 673.8 363.22
6 -1 5 751.97 386.09
-6 -1 -5 697.36 308.04
6 -1 6 696.17 434.49
-1 6 -6 609.61 177.61
-6 -1 -6 962.47 350.24
-6 1 -6 659.93 277.44
1 -6 6 404.57 378.9
-1 -6 6 497.8 380.24
-6 1 -6 452.5 256.54
6 1 6 769.65 415.14
6 1 -6 919.86 399.67
1 6 -6 797.34 225.33
-6 -1 6 262.55 378.74
-6 -1 -6 709.13 257.43
-1 -6 -6 641.88 202.25
6 -1 -6 688.2 371.36
1 -6 7 1222.53 511.41
-6 -1 -7 1022.81 315.11
6 1 -7 879.87 373.96
-6 -1 -7 1151.65 372.11
-1 -6 -7 1207.25 281.92
-6 -1 7 277.67 399.93
6 -1 7 1159.67 498.13
-1 -6 7 651.96 406.47
6 1 7 577.02 467.21
6 -1 -7 1454.51 458.98
-6 1 -7 873.63 319.55
-6 1 -7 985.69 300.14
6 -1 8 488.67 549.7
-6 -1 -8 371.88 297.23
-6 1 -8 63.86 254.56
6 1 -8 -416.01 430.75
6 -1 -8 397.33 384.01
1 -6 8 245.13 483.24
6 1 8 184.75 497.96
-1 -6 8 344.12 488.6
-6 -1 -8 395.12 327.77
-6 1 -8 204.55 291.81
-6 -1 8 -395.92 478.84
-1 -6 -9 -28.6 230.2
1 6 -9 -19.9 221.65
1 6 9 -195.35 222.29
1 -6 9 -297.39 510.47
-6 -1 9 -684.09 583.64
1 -6 -9 -107.54 230.53
-6 1 9 -38 193.89
-1 6 9 -108.11 231.52
6 -1 -9 -498.18 513.67
-6 -1 9 412.88 232.41
-1 -6 9 25 483.12
-6 -1 -9 -681.26 377.17
-1 6 -9 198.31 233.8
-6 -1 -9 -83.63 305.83
-6 1 -9 -263.26 343.41
6 1 -9 -235.32 392.5
-6 1 -9 49.53 209.72
-6 1 -9 -213.03 313.69
6 -1 9 74.71 528.37
6 1 9 387.45 575.57
-6 -1 -9 112.51 212.51
-1 -6 9 -127.67 217.74
1 6 -10 -107.42 233.05
-1 6 -10 -379.96 267.76
1 -6 -10 132.26 250.37
6 -1 10 317.24 584.81
6 1 10 263.03 573.13
-6 -1 10 -31.77 213.85
6 -1 -10 -408.87 514.84
-6 1 -10 187.68 242.1
-1 -6 10 57.9 535.31
-6 -1 -10 -301.2 422.6
1 -6 10 -474.91 544.67
-6 1 -10 -400.32 328.17
-6 -1 -10 16.65 215.99
1 6 10 137.24 224.06
-1 -6 10 207.87 242.04
1 6 -10 -281.77 269.68
6 1 -10 78.45 401.29
-6 1 -10 272.19 348.1
-6 1 10 -106.27 208.41
-6 -1 -10 -90.65 344.73
-1 6 10 306.99 260.17
-1 -6 -10 68.21 260.95
1 6 -11 -26.54 202.86
1 6 11 202.08 225.92
1 -6 -11 229.91 230.73
-1 -6 -11 110.69 249.18
-1 6 11 -3.31 224.08
-1 -6 11 60.42 225.35
-6 1 11 144.1 208.32
-6 -1 11 119.22 208.17
6 -1 -11 -364.7 266.57
-6 -1 -11 -53.18 209.85
-6 1 -11 68.51 216.92
-6 -1 12 247.64 225.61
6 1 -12 -268.59 245.49
-1 -6 -12 34.31 217.57
1 6 12 319.19 221.2
-1 6 -12 -255.04 280.83
1 6 -12 267.06 205.64
-6 1 -12 31.82 190.7
6 -1 -12 -134.85 240.28
-6 -1 -12 -19.78 190.92
-1 6 12 7.54 204.01
-1 -6 12 239.78 258.23
1 -6 -12 206.38 234.06
1 6 13 -136.4 193.39
1 6 -13 108.55 188.92
-6 -1 -13 -104.29 186.94
1 6 -13 -760.86 277.45
1 -6 -13 96.81 199.52
6 -1 -13 -111.44 213.44
-1 -6 -13 -3.17 202.94
-1 6 13 -69.45 203.01
-6 1 -13 -166.87 176.51
6 1 -13 -169.97 219.8
-1 6 14 54.53 184.48
1 6 -14 161.21 161.33
6 -1 -14 261.19 205.5
-1 -6 -14 26.38 173.66
1 -6 -14 1.46 184.4
6 1 -14 74.4 188.08
1 6 14 519.47 204.63
-6 1 -14 239.83 185.84
-6 -1 -14 -107.57 179.7
6 -1 -15 -37.73 163.31
1 -6 -15 8.23 156.95
-6 1 15 -160.59 161.43
-6 -1 15 -13.11 159.75
-6 1 -15 35.66 136.32
-1 -6 -15 0.64 156.22
-6 -1 -15 -15.47 137.61
6 1 -15 240.95 177.84
-1 6 15 144.11 148.23
-1 -6 -16 -3.1 122.11
1 -6 -16 6.76 112.31
6 -1 -16 -1 121.74
6 1 -16 70.17 124.83
-6 -2 0 723.29 179.92
-6 2 0 668.26 148.55
6 -2 0 914.68 219.85
-6 2 0 826.82 205.66
2 6 0 941.4 263.33
-2 6 0 828.42 227.76
2 -6 0 1163.07 198.59
6 2 0 788.54 269.34
-6 2 -1 2596.02 248.82
-2 -6 1 2118.61 271.01
6 2 -1 1963.93 335.11
6 -2 1 2215.22 245.45
-6 2 -1 1969.13 265.32
-6 2 1 2408.36 269.97
-6 -2 -1 2264.89 299.41
6 2 1 2329.18 320.11
-6 -2 1 1971.6 183.9
-2 6 1 2701.13 359.79
2 -6 1 2300.04 283.8
-2 6 -1 2125.65 255.33
2 6 -1 2248.25 298.22
-6 2 1 2138.76 189.25
6 -2 -1 2527.75 354.21
2 6 1 2245.24 318.58
2 -6 2 247.87 251.54
2 6 -2 242.7 202.17
-6 2 2 349.79 110.48
6 -2 -2 366.73 273.35
-6 2 -2 362.1 191.94
-6 2 2 165.47 168.48
-2 -6 2 302.04 255.79
-2 6 -2 313.08 179.2
6 2 2 134.48 204.04
6 2 -2 406.48 284.58
-6 2 -2 161.12 193.35
6 -2 2 111.19 129.73
-6 -2 -2 421.73 239.09
-6 -2 -2 173.61 252.03
-6 -2 2 353.97 109.35
-2 6 -3 106.7 161.02
-6 -2 -3 201.61 231.38
2 -6 3 155.19 275.35
-6 2 3 13.9 209.59
6 2 3 238.16 181.77
2 6 -3 111.97 193.79
-6 2 -3 226.6 184.13
-2 -6 3 327.43 265.21
6 2 -3 18 272.7
-6 2 -3 -25.23 205.05
2 -6 -3 13.62 82.02
6 -2 -3 294.24 286.24
2 6 3 22.49 147.37
-6 2 -4 1037.11 250.94
-2 -6 4 1166.32 359.12
-2 6 -4 923.49 199.08
2 6 -4 997.64 229.9
-6 -2 -4 1147.05 262.71
-6 2 -4 1286.59 311.2
2 6 4 971.11 221.91
6 2 -4 1726.88 398.53
2 -6 4 1110.2 360.26
6 -2 4 1481.37 403.91
6 -2 -4 1057.37 343.15
-2 -6 -4 1043.23 237.89
6 -2 -5 135.75 316.53
-2 -6 5 447.47 345.71
-6 -2 -5 248.75 215.25
2 6 -5 314.88 215
-2 6 -5 201.55 171.08
-6 -2 5 169 367.14
6 -2 5 -77.24 380.54
2 6 5 234.26 222.42
6 2 5 160.61 320.06
2 -6 5 417.98 368.54
6 2 -5 276.87 312.47
-6 2 -5 376.77 252.8
-6 2 -5 282.81 214.57
-2 -6 -5 245.24 192.88
2 -6 6 513.29 413.16
6 2 -6 430.93 345.4
-6 -2 -6 313.53 240.36
-2 -6 -6 405.58 209.78
-2 6 -6 38.63 171.36
2 6 -6 373.79 239.76
6 -2 6 -105.67 396.57
-6 2 -6 200.89 254.93
6 2 6 151.77 359.93
-6 2 -6 188.21 222.08
6 -2 -6 354.8 368.93
-6 -2 6 49.67 368.85
-2 -6 6 421.16 361.25
6 -2 -7 497.65 404.95
-2 -6 7 611.87 426.91
2 -6 7 577.33 463.73
-6 2 -7 -66.33 255.21
-6 -2 7 37.11 406.06
-6 2 -7 229.65 244.71
-6 -2 -7 277.83 248.64
-6 -2 -7 898.83 419.29
6 -2 7 304.03 479.95
6 2 7 141.41 437.93
6 2 -7 240.72 337.16
-2 -6 -7 331.28 238.67
-6 2 -8 579.49 312.37
6 -2 8 1020.55 570.41
-6 -2 -8 1131.56 435.63
6 2 8 666.18 493.72
6 2 -8 776.82 412.41
-6 -2 8 557.65 443.79
-6 2 -8 470.93 289.23
-2 -6 8 1581.34 558.82
2 -6 8 899.42 592.81
-2 -6 -8 526.92 266.75
6 -2 -8 768.25 459.25
-6 -2 -8 833.03 320.61
6 -2 9 130 547.73
-6 -2 -9 -120.58 303.05
6 2 9 -202.8 558.78
2 -6 9 -379.29 597.28
-2 6 -9 55.41 226.2
-6 -2 -9 52.44 348.43
-6 -2 -9 107.84 219.75
6 2 -9 -223.28 382.57
2 6 9 131.47 228.15
-6 -2 9 -3.82 208.19
-2 -6 9 328.76 480.64
2 6 -9 94.41 214.39
-6 2 -9 -434.72 323.22
2 -6 -9 357.48 231.99
-6 2 -9 56.88 208.15
-2 -6 -9 110.19 230.56
6 -2 -9 -884.66 518.59
-2 -6 9 -125.4 216.57
-6 2 -9 42.55 281.12
-6 -2 9 -885.96 612.39
-6 2 9 -99.46 211.81
-6 -2 -10 429.18 364.05
-2 -6 -10 274.07 260.92
2 -6 10 162.33 596.84
2 -6 -10 153.38 236.67
-6 -2 -10 656.19 265.12
2 6 -10 -312.26 264.18
-6 2 -10 181.93 301.78
-2 -6 10 179.94 226.92
-6 -2 -10 -257.39 327.17
-6 -2 10 120.3 228.93
6 -2 -10 288.41 506.86
2 6 10 462.63 257.54
2 6 -10 -249.95 269.09
6 -2 10 735.46 651.52
6 2 -10 582.98 442.55
-6 2 10 21.22 215.81
-2 6 -10 -280.41 266.82
6 2 10 491.36 632.75
-6 2 -10 562.25 375.21
-2 6 10 132.84 240.04
-6 2 -10 340.81 253.2
-2 -6 10 279.25 541.82
2 6 11 57.83 208.35
2 6 -11 36.19 203.46
6 -2 -11 -248.9 256.83
-6 2 -11 -210.24 212.39
2 -6 -11 351.48 252.54
-2 6 11 -178.87 240.63
-2 -6 -11 301.04 249.99
-6 -2 11 -406 263.16
-2 6 -11 -609.35 308.78
-2 -6 11 37.87 211.78
-6 -2 -11 -121.12 224.63
-2 6 -12 -138 270.44
-6 -2 12 7.61 213.12
-6 -2 -12 -225.11 211.65
-6 2 -12 -172.87 200.54
2 6 12 53.2 201.28
2 -6 -12 -19.09 204.25
-2 6 12 5.69 205.05
2 6 -12 139.09 200.95
6 -2 -12 59.07 207.51
6 2 -12 -631.07 277.23
-2 -6 -12 -66.98 221.62
-2 -6 12 8.89 208.25
-6 2 -13 -15.79 183.6
-6 -2 -13 71.01 192.69
-2 6 13 -67.83 195.03
6 -2 -13 85 214.01
2 6 13 361.95 234.1
2 6 -13 257.23 171.85
-2 -6 -13 33.78 212.51
2 -6 -13 -223.28 211.17
6 2 -13 -81.21 221.05
-6 -2 -14 -28.1 167.16
-2 6 14 180.77 184.2
-2 -6 -14 28.01 176.22
6 2 -14 73.88 187.83
2 -6 -14 9.05 173.86
-6 2 -14 97.59 165.25
6 -2 -14 223.85 200.66
-6 2 14 62.23 184.39
2 6 -14 -31.65 162.87
-6 2 15 191.48 159.99
2 -6 -15 4.36 138.89
-2 -6 -15 -5.67 162.86
6 -2 -15 -3.11 171.01
-6 -2 -15 -44.46 142.59
-6 -2 15 -195.48 160.37
-2 6 15 262.61 158.13
6 2 -15 331.3 176.65
2 -6 -16 9.65 118.63
-2 -6 -16 -2.96 118.8
6 -2 -16 0.09 127.25
6 2 -16 227.11 126.19
-6 3 0 3.51 119.4
3 -6 0 -261.86 180.41
-6 -3 0 67.5 151.77
6 3 0 91.13 234.56
6 -3 0 -113.99 190.14
3 6 0 113.48 218.04
-6 3 0 21.87 173.26
-3 6 0 -144.57 208.68
3 6 1 1024.26 271.18
3 -6 -1 728.83 118.53
6 3 1 1132.18 266.05
3 -6 1 813.86 238.06
-6 3 1 1217.29 237.55
6 -3 -1 914.26 274.05
-6 3 -1 1072.37 229.49
-6 -3 1 872.3 139.15
6 3 -1 833.55 280.71
6 -3 1 1190.77 200.4
-3 6 -1 1121.98 245.84
-6 3 -1 1061.17 191.34
-6 3 1 832.08 112.35
3 6 -1 1190.23 270.66
-3 6 1 1064.09 273.53
6 -3 -2 273.13 276.12
6 3 -2 163.26 254.58
-6 3 2 -44.56 185.16
-3 -6 2 55.2 232.05
6 3 2 220.41 225.26
-6 3 -2 233.63 182.8
-6 3 -2 85.91 192.07
-3 6 -2 328.33 198.16
6 -3 2 71.98 96.28
3 -6 2 25.38 251.5
-6 -3 2 117.22 70.12
3 6 -2 -125.49 224.63
-6 -3 -2 329.48 277.71
3 -6 -2 138.5 59.13
6 -3 3 266.96 312.62
-6 3 -3 355.55 231.16
-6 3 3 449.96 230.63
-6 -3 -3 377.57 258
6 3 -3 527.6 303.89
3 6 -3 140.57 207.15
-3 6 -3 266.55 172.33
-6 3 -3 296.99 191.92
6 3 3 128.82 195.12
3 -6 3 517.53 296.56
-3 -6 3 253.15 261.63
-6 3 -4 5356.94 459.46
3 6 -4 4827.7 437.87
3 -6 4 5515.3 567.84
-3 6 -4 5381.33 403.11
-3 -6 4 4948.7 519.75
-6 3 -4 5182.14 441.9
6 3 -4 4844.05 528.94
6 -3 4 5609.61 601.33
3 6 4 5701.94 427.93
-6 -3 -4 4678.23 448.63
-3 -6 -4 5370.69 453.6
-3 -6 -5 17.13 207.62
-6 3 -5 -27.64 213.92
3 -6 5 220.7 358.9
-3 -6 5 275.24 302.52
3 6 -5 63.75 244.64
6 -3 5 -147.55 361.05
3 6 5 -66.37 245.68
-6 -3 -5 -217.73 239.06
6 3 5 269.2 328.93
-6 3 -5 -130.39 220.96
6 3 -5 52.4 293.42
-6 -3 5 -341.83 378.78
-3 6 -5 -124.09 197
6 -3 6 71.61 398.31
3 6 -6 194.22 238.8
-6 -3 6 -159.78 389.11
-6 -3 -6 155.48 223.07
-3 -6 -6 -176.6 231.19
-6 3 -6 202.33 227.14
-6 3 -6 238.78 251.79
6 3 6 246.16 357.87
6 -3 -6 354.18 367.6
6 3 -6 31.33 311.78
3 -6 6 -224.29 383.88
-3 -6 6 173.81 385.7
-3 6 -6 -65.8 201.03
3 6 -7 32.01 251.29
-6 3 -7 69.74 244.64
-6 3 -7 110.73 244.61
-3 -6 7 320.76 408.66
6 -3 7 190.25 470.81
6 3 7 349.99 433.39
-3 -6 -7 -47.95 217.65
-3 6 -7 -6.21 203.26
-6 -3 -7 272.28 251.84
-6 -3 7 5.58 401.83
3 -6 7 702.87 496.07
6 -3 -7 175.18 395.66
6 3 -7 35.68 307.14
-6 -3 8 -717.65 532.41
-3 -6 -8 341.08 230.28
-3 -6 -8 282.65 250.43
6 -3 8 1193.48 613.33
6 3 8 229.35 463.72
-3 -6 8 883.36 480.88
-6 3 -8 591.92 296.77
3 -6 8 256.6 529.03
-6 3 -8 332.58 273.99
6 -3 -8 478.9 500.07
-3 6 -8 587.25 238.13
-6 -3 -8 654.98 232.49
-6 -3 8 456.23 205.86
6 3 -8 865.09 401.48
-6 -3 -8 168.43 259.59
3 -6 9 195.35 566.71
-3 -6 9 -120.26 231.79
3 6 -9 94.31 234.41
6 3 9 -34.13 558.51
6 -3 9 632.35 592.95
-6 -3 -9 1140.43 477.52
-6 -3 9 -940.88 590.17
-3 -6 9 -90.5 419.25
3 -6 -9 -137.08 230.14
6 -3 -9 -47.04 475.32
-3 -6 -9 308.99 247.26
-6 3 -9 23.27 274.11
-6 3 -9 192.09 297.85
3 6 9 -279.95 226.26
-3 6 -9 -37.68 221.77
6 3 -9 73.55 394.15
-6 -3 -9 -189.91 226.1
-6 -3 -9 3.84 347.78
-6 3 9 15.5 219.28
-6 -3 9 -184.45 241.97
6 -3 -10 123.95 536.82
-6 -3 -10 111.51 353.24
6 -3 10 1310.92 685.27
-3 -6 10 537.84 483.55
-6 3 -10 380.07 327.66
-3 -6 -10 419.09 272.89
-3 -6 10 654.76 271.09
-6 -3 -10 351.99 306.96
-6 3 -10 1573.18 427.31
-6 -3 -10 744.16 285.73
-3 6 -10 -20.67 319.56
3 6 -10 42.76 237.34
-6 -3 10 448.67 480.46
3 6 10 615.87 262.12
-6 -3 10 456.77 257.91
3 -6 10 2666.64 961.05
3 -6 -10 1166.49 294.1
-6 3 -10 358.46 234.4
-3 6 11 -122.99 228
-3 -6 11 189.97 213.18
-3 -6 -11 -101.2 242.81
-6 -3 -11 -58.41 217
-3 6 -11 -178.7 297.11
-6 3 -11 -128.24 221.65
3 -6 -11 89.14 210.29
3 6 11 -157.56 211.21
-6 -3 11 -128.61 217.74
6 -3 -11 -553.45 244.16
3 6 -11 -459.7 219.56
3 -6 -12 41.46 199.98
6 3 -12 -289.5 253.12
-6 3 -12 -64.4 210.89
3 6 12 76.32 202.94
-6 -3 12 270.89 214.73
3 6 -12 145.35 195.41
6 -3 -12 -280.99 221.48
-3 6 12 -187.77 235.44
-6 -3 -12 -153.42 216.96
-3 -6 -12 -39.29 222.59
-3 -6 12 -0.91 198.72
-3 6 -12 49.47 234.07
6 -3 -13 243.94 213.96
3 6 -13 238.02 194.02
3 -6 -13 2.76 200
-6 3 -13 195.4 189.06
-3 -6 -13 176.84 209.62
6 3 -13 -27.84 207.96
-6 -3 13 70.82 201.57
-3 -6 13 -227.81 214.19
-3 6 13 -42.65 209.15
-6 -3 -13 151.98 197.24
3 -6 -14 3.7 167.68
-6 3 14 18.77 174.24
6 3 -14 152.05 183.71
-3 -6 -14 -190.05 187.11
-3 6 14 91.37 176.91
-6 -3 -14 98.15 185.54
3 6 -14 81.54 161.01
6 -3 -14 -6.3 179.83
6 -3 -15 -0.13 154.48
-3 6 15 55.06 144.79
3 -6 -15 5.25 145.44
6 3 -15 148.52 156.4
-3 -6 -15 98.46 163.1
-6 3 15 21.97 147.45
-6 -3 -15 -58.26 137.59
-3 -6 -16 -2.05 114.13
6 -3 -16 10.85 111.06
-6 4 0 7314.09 321.49
-4 6 0 7528.74 459.14
6 4 0 7091.17 512.08
4 -6 0 7132.34 385.21
4 6 0 7046.54 503.14
-6 4 0 7578.57 462.29
6 -4 0 7504.34 459.51
4 6 -1 1306.12 298.22
-6 4 1 855.81 88.4
6 -4 1 1355.05 203.77
-6 4 1 1478.48 259.27
4 -6 1 1664.72 288.23
6 4 -1 1623.91 336.25
6 4 1 1249.02 274.74
-4 6 -1 1539.48 266.09
-6 -4 1 1210.01 160.62
-4 6 1 1582.4 294.09
-6 4 -1 1328.72 210.48
4 6 1 1450.32 308.6
-6 4 -1 1267.27 254.11
-6 4 -2 3045.39 339.35
6 4 -2 2552.32 394.28
-4 6 -2 2959.91 324.23
-4 6 2 3096.7 397
4 6 -2 2684.73 356.18
6 -4 2 2092.07 145.74
6 4 2 2626.24 344.47
-6 4 -2 2856.32 296.87
4 -6 2 2972.84 388.65
-6 4 2 2808.03 331.79
4 6 2 3036.26 382.09
-6 -4 -3 414.96 263.67
-4 -6 3 239.66 269.2
6 4 -3 402.54 292.84
-4 6 -3 256.97 193.84
-6 4 3 729.28 260.4
4 6 -3 502.41 263.97
-4 6 -3 411.29 204.4
-6 4 -3 424.17 191.22
6 -4 3 369.25 316.56
-6 4 -3 466.65 226.46
6 4 3 551.58 250.09
4 -6 3 237.81 297.45
6 -4 4 94.84 355.89
-6 -4 -4 143.77 229.3
-4 6 -4 229 207.29
-6 4 -4 196.63 219.69
-6 4 -4 127.55 213.62
4 6 4 198.89 230.18
4 -6 4 118.4 344.29
-4 6 -4 1.72 197.22
-4 -6 -4 191.39 242.44
6 4 -4 153.14 293.86
4 6 -4 761.21 303.85
-4 -6 4 -80.69 273.75
4 6 -5 632.52 304.79
-4 6 -5 744.67 275.25
-4 6 -5 487.62 230.47
6 -4 5 488.22 402.44
-6 -4 -5 391.61 252.09
-6 4 -5 739.13 282.74
4 6 5 734.36 307.29
-6 -4 5 37.79 354.19
-4 -6 -5 750.8 277.57
6 4 5 1004.47 361.57
6 4 -5 344.92 304.36
-6 4 -5 666.27 259.81
-4 -6 5 700.19 361.14
4 -6 5 452.92 388.13
4 6 6 645.15 345.71
-6 -4 6 574.94 362.83
6 -4 6 858.88 482.53
-6 4 -6 586.83 261.26
-4 6 -6 1116.79 276.81
4 6 -6 815.55 324.16
6 4 6 1058.87 418.46
4 -6 6 662.47 416.52
-6 -4 -6 611.13 259.16
-6 4 -6 956.77 310.37
6 4 -6 1314.67 431.44
-4 -6 -6 486.45 223.38
-4 -6 6 1040.56 407.49
-4 6 -6 1016.02 292.41
4 -6 7 1621.69 574.59
-4 -6 7 917.32 451.82
-6 4 -7 1361.26 352.99
-6 -4 7 1355.3 489.07
6 4 7 1887.48 515.08
-4 6 -7 1570.84 336.01
6 -4 -7 1453.03 531.32
-6 4 -7 1280.36 327.75
-6 -4 -7 1449.58 357.34
-4 -6 -7 1439.15 336.43
6 4 -7 1659.4 447.89
4 6 -7 987.53 356.27
6 -4 7 1709.1 570.57
6 -4 -8 732.5 552.19
4 -6 8 1320.78 630.28
-4 -6 -8 1170.52 278.37
-4 -6 8 1440.12 294.66
-6 -4 -8 1015.76 346.04
-4 6 -8 462.18 273.96
-4 -6 -8 1313.59 356.83
-6 4 -8 1266.58 361.03
6 -4 8 1600.83 646.17
-4 6 -8 918.89 263.47
-4 -6 8 1248.19 531.43
-6 -4 -8 1361.71 289
-6 4 -8 767.62 331.01
-4 6 -8 770.64 302.58
-6 -4 8 402.03 447.8
6 4 8 1139.74 549.81
6 4 -8 919.15 412.92
-6 4 8 487.3 222.18
-6 -4 8 1129.8 266.73
-4 -6 -9 1530.95 305.62
6 4 -9 1369.77 464.18
-4 -6 -9 1184.9 376.08
6 -4 -9 964.13 535.84
-4 -6 9 1241.4 566
-6 4 -9 1521.64 426.68
-6 4 -9 1299.36 328.08
4 6 9 1271.97 293.78
6 -4 9 1235.55 711.96
6 4 9 1548.35 616.17
-6 -4 -9 1732.1 572.88
-4 6 -9 1075.5 341.64
4 6 -9 1503.5 296.22
-4 6 -9 866.14 227.32
-6 4 -9 1257.18 390.93
-6 -4 9 745.79 533.98
4 -6 -9 1385.81 286.17
-6 -4 -9 1514.06 295.36
-4 -6 9 1416.18 306.96
-6 -4 9 1212.5 294.71
4 -6 9 1720.97 692.05
-6 -4 -9 1407.72 427.99
6 -4 -10 -8.84 478.75
-4 -6 10 -73.64 480
-6 -4 10 -288.14 547.27
-6 -4 -10 44.41 235.84
-4 6 -10 -510.41 319.23
-6 -4 10 227.61 234.99
-6 4 -10 639.59 388.54
6 -4 -10 -178.18 232.41
4 -6 -10 -594.27 619.73
-6 -4 -10 -17.28 313.45
-4 -6 -10 -95.43 243.32
6 -4 10 -136.81 595.75
-6 -4 -10 600.28 458.09
-4 -6 10 -134.57 219.3
4 -6 -10 357.04 260.18
4 6 10 304.09 244.25
4 -6 10 430.78 707.26
-4 6 11 -118.26 234.98
-4 -6 -11 11.91 228.56
-4 6 -11 -485.21 290.23
-6 -4 11 211.33 229.15
6 -4 -11 85.45 203.09
4 -6 -11 149.91 226.01
-6 -4 -11 -15.3 220.82
-4 -6 11 134.6 212.87
-4 -6 -12 -30.84 222.81
4 -6 -12 290.2 216.42
4 6 -12 23.16 202.6
-4 6 12 31.67 223.24
6 -4 -12 -174.65 214.57
-6 -4 -12 78.03 218.55
-4 6 -12 108.15 259.14
6 4 -12 -160.57 248.93
-6 -4 12 34 207.66
-4 -6 12 -71.77 203.87
6 4 -13 -236.4 220.8
4 -6 -13 101.8 202.43
4 6 -13 67.86 184.21
-4 -6 13 158.35 211.35
-6 4 13 -231.83 227.54
-4 -6 -13 219.01 219.18
6 -4 -13 321.46 218.95
-4 6 13 123.05 201.82
-6 -4 13 15.61 198.27
-6 -4 -13 352.19 221.3
-6 4 14 -78.71 187
-6 -4 -14 110.53 177.39
-4 -6 -14 189.96 189.79
4 -6 -14 8.63 165.55
6 -4 -14 -5.47 183.12
6 4 -14 -42.66 173.5
4 6 -14 135.17 163.74
-4 6 14 33.82 169.89
4 -6 -15 -8.07 139.53
-6 -4 -15 53.05 148.55
-4 -6 -15 37.44 147.32
4 6 -15 39.41 124.25
6 4 -15 225.35 159.13
-6 4 15 20.14 149.97
6 -4 -15 -7.05 139.14
-4 6 15 -46.77 147.57
-5 6 0 -2.65 210.59
-6 5 0 102.9 112.85
6 5 0 111.93 228.15
5 6 0 106.22 236.62
-6 5 0 -34.68 190.96
5 6 -1 2603.36 362.81
-6 5 1 2890.28 324.93
-6 5 -1 2789.5 255.93
5 -6 1 2773.61 355.63
5 6 1 2630.46 370
-6 5 -1 3330.7 358.24
6 5 1 2645.8 358.47
-5 6 -1 3181.46 351.59
-5 6 1 3133.91 347.65
6 -5 1 2861.99 269.23
6 5 -1 3092.92 407.17
-6 -5 1 2654.6 218.82
6 -5 2 1968.63 389.06
6 5 2 2013.75 334.17
5 -6 2 1888.48 362.84
-6 5 -2 2456.17 323.68
-5 6 2 2650.64 356.11
6 5 -2 1881.91 374.16
5 6 -2 1922.8 341.06
5 6 2 1882.44 341.2
-5 6 -2 2151.6 265.75
-6 5 2 2292.09 323.66
-6 5 -2 2151.41 272.89
-5 6 -2 2018.12 297.06
-6 5 -3 1198.55 275.5
-5 6 -3 1385.32 277.65
-5 6 -3 1537.78 280.63
-6 -5 -3 1305.01 334.94
6 -5 3 869.35 364.91
-6 5 -3 1040.08 234.95
6 5 3 1002.38 299.01
5 6 -3 1497.58 331.22
6 5 -3 1274.98 353.91
-6 5 3 1312.6 299.54
5 -6 3 1251.13 372.17
6 5 -4 434.06 294.91
-6 -5 -4 956.7 305.48
5 6 -4 883.04 321.05
6 -5 4 1113.94 432.37
5 -6 4 1056.25 397.07
-6 5 -4 1178.06 290.62
-5 6 -4 1079.11 275.16
-6 5 -4 709.71 235.96
-5 6 -4 928.18 264.52
-5 -6 -4 1067.55 320.82
5 6 4 1154 310.42
-5 -6 4 701.32 329.36
6 5 -5 1491.48 399.07
5 -6 5 1230.97 440.79
-5 6 -5 1404.63 313.39
6 -5 5 1766.83 526.31
5 6 -5 1644.22 398.79
-5 6 -5 1685.1 319.86
-5 -6 5 1140.89 409.64
-6 5 -5 1725.49 338.8
-6 -5 5 1236.42 381.78
6 5 5 1045.92 357.68
-6 5 -5 1197.05 291.63
-5 -6 -5 1788.84 363.82
5 6 5 1671.26 396.04
-6 -5 -5 1831.65 360.08
6 5 -6 224.63 331.91
-6 -5 6 -72.73 354.31
-5 6 -6 294.62 272.74
-5 6 -6 -12.08 219.97
5 6 -6 170.71 290.75
-6 -5 -6 112.24 233.98
-6 5 -6 -6.68 224.08
-5 -6 -6 -102.25 275.53
5 -6 6 126.54 411.67
-5 -6 6 144.04 354.05
6 5 6 -179.62 334.25
5 6 6 62.41 299.9
-6 5 -6 216.13 246.6
6 -5 6 326.97 464.91
-5 -6 -7 181.77 237.75
-6 -5 7 -606.33 504.94
6 -5 7 -170.68 474.95
5 6 -7 161.91 355.41
6 5 7 170.31 386.99
-6 5 -7 307.83 276.67
-5 -6 7 305.96 396.3
-5 6 -7 361.43 312.4
-6 5 -7 113.46 235.23
5 -6 7 -154.99 506.95
6 5 -7 -106.29 354.01
-6 -5 -7 17.63 262.19
-5 6 -7 448.53 267.32
5 -6 -8 -96.87 207.18
-5 -6 8 192.01 255.17
5 -6 8 360.68 552.67
6 5 -8 -128.8 402.12
-5 -6 -8 -116.86 279.64
-6 -5 8 -223.46 541.24
5 6 -8 650.35 398.96
-5 -6 8 -133.79 440.87
-5 6 -8 -96.84 296.84
-6 -5 8 26.75 226.89
-6 -5 -8 67.33 292.5
-5 6 -8 93.85 218.13
-5 6 -8 283.45 265.49
-6 5 -8 418.36 299.18
-6 5 -8 301.27 299.18
-6 -5 -8 -21.26 210.52
-5 -6 -8 297.48 222.17
-6 5 -8 356.64 263.01
6 -5 -8 641.81 521.38
6 -5 8 39.54 543.83
6 -5 -9 681.62 614.86
-5 -6 -9 -552.15 317.42
-6 5 -9 792.28 389.67
-5 6 -9 -143.15 315.45
6 -5 9 402.35 626.89
6 -5 -9 -512.42 277.2
-6 -5 -9 -608.7 355.3
-5 -6 9 -189.29 452.23
5 -6 9 -129.56 568.53
-6 5 -9 37.84 271.7
-6 -5 9 -373.11 263.92
-6 5 -9 -197.25 279.3
-6 -5 -9 -202.59 227.13
-5 -6 -9 -111.56 244.6
5 -6 -9 -301.48 243.99
-5 -6 9 -145.2 242.98
-6 -5 9 -682.42 636.68
-5 6 -9 -293.44 260.34
5 -6 -10 -341.97 572.56
-5 -6 10 -200.95 501.53
5 -6 10 476.56 595.13
-6 -5 -10 311.14 249.98
6 -5 -10 197.28 209.14
6 -5 10 701.84 651.2
5 -6 -10 176.53 228.25
-6 -5 -10 -48.54 298.73
-6 5 -10 236.35 287.34
6 -5 -10 -538.5 619.43
-5 6 -10 -13.91 295.14
-6 -5 10 201.83 238.03
-5 -6 10 238.3 244.25
-6 -5 -10 122.5 400.84
-5 -6 -10 349.18 260.72
-5 -6 -11 416.48 253.64
-5 6 -11 473.8 269.37
-5 -6 11 264.61 221.87
-6 -5 11 551.66 260.44
-5 6 11 653.98 266.3
5 -6 -11 828.7 258.66
6 -5 -11 337.86 220.94
-6 -5 -11 724.44 279.74
6 5 -12 -237.68 244.59
5 -6 -12 -28.97 204.32
-6 -5 -12 -116 217.98
-6 -5 12 35.49 202.9
-5 -6 -12 -39.69 230.15
-5 6 12 -110.01 225.01
-5 -6 12 -45.2 217.37
6 -5 -12 359.2 218.3
5 6 -12 -78.66 198.22
-5 -6 -13 -185.58 218.52
5 6 -13 218.24 181.5
5 -6 -13 -14.72 193.31
-6 -5 -13 131.41 219.94
-5 -6 13 165.83 205.82
-6 5 13 -439.64 221.58
-6 -5 13 14.92 194.95
-5 6 13 -185.54 206.9
6 -5 -13 1.76 216.14
6 5 -13 152.69 202
-6 5 14 39.14 182.91
6 -5 -14 -2.62 176.91
5 6 -14 217.29 170.84
-6 -5 -14 0.78 182.31
-5 -6 -14 107.95 187.2
5 -6 -14 4.26 164.98
-5 6 14 -32.82 164.77
6 5 -14 36.86 169.06
6 -5 -15 2.52 129.32
5 6 -15 123.01 127.11
5 -6 -15 -4.88 123.47
-6 -5 -15 -80.4 139.89
-5 6 15 -40.83 141.64
-5 -6 -15 -25.17 152.85
6 5 -15 -1.82 129.78
-6 5 15 98.6 154.05
6 6 0 1723.04 340.87
-6 6 0 1861.78 309.9
6 -6 1 -17.26 285.08
6 -6 1 355.3 215.39
6 6 -1 -105.27 263.3
-6 6 -1 309.8 228.55
-6 6 1 134.61 222.09
6 6 1 172.24 234.02
6 -6 2 471.76 337.48
-6 6 -2 309.1 220.06
6 6 2 136.23 237.82
-6 6 2 56.21 231.12
-6 6 -2 271.85 170.5
6 6 -2 148.19 257.41
-6 6 -3 1820.71 287.86
6 6 -3 1376.81 367.09
-6 -6 -3 1852.31 388.78
6 -6 3 1801.95 431.77
-6 6 -3 1712.92 324.69
6 -6 4 -69.5 365.94
6 6 -4 279.37 299.64
-6 6 -4 -99.12 194.86
-6 -6 -4 211.95 290.33
-6 6 -4 -64.33 216.17
6 6 5 146.09 293.02
-6 6 -5 97.26 209.83
6 -6 5 445.15 428.85
-6 6 -5 74.16 218.41
-6 -6 -5 244.51 274.14
6 6 -5 450.35 331.19
6 -6 6 861.54 484.65
-6 6 -6 713.04 297.12
-6 -6 6 706.55 396.77
6 6 -6 613.48 361.73
-6 6 -6 968.28 314.95
-6 -6 -6 586.26 274.61
6 6 6 784.67 378.9
6 6 -7 512.39 393.28
-6 -6 -7 216.74 263.76
-6 6 -7 -5.93 267.32
6 -6 7 122.78 486.7
-6 -6 7 98.12 425.69
-6 6 -7 346.71 290.7
6 6 -8 321.68 350.27
-6 6 -8 -386.63 264.81
-6 -6 8 14.06 478.62
-6 6 -8 211.41 304.25
6 -6 -8 -74.95 225.35
-6 -6 -8 -30.38 221.82
-6 -6 -8 5.56 263.37
6 -6 8 -377.56 613.35
-6 6 -8 74.07 287.65
-6 -6 8 205.92 252.87
-6 -6 9 427.42 278.83
6 -6 -9 -156.11 567.38
-6 -6 -9 559.8 266.72
6 -6 9 735.31 620.69
-6 -6 -9 645.27 366.84
-6 -6 9 170.83 553.77
-6 6 -9 574.15 321
6 -6 -9 323.81 223.95
-6 -6 -10 891.75 290.77
-6 6 -10 669.67 309.73
6 -6 -10 537.85 229.74
-6 -6 10 883.39 296.2
-6 6 -11 564.3 271.17
-6 -6 -11 69.47 234.57
6 -6 -11 232.46 224.58
-6 -6 11 -31.52 227.82
-6 6 12 -7.7 203.75
-6 -6 12 177.37 222.71
6 -6 -12 134.96 218.72
-6 -6 -12 6.82 213.5
-6 -6 13 -123.01 193.31
-6 6 13 107.2 195.79
6 6 -13 -91.87 173.88
6 -6 -13 -11.16 176.41
-6 -6 -13 108.44 215.58
6 6 -14 164.63 157.96
6 -6 -14 0.93 167.4
-6 -6 -14 -54.18 169.47
-6 6 14 -50.42 162.29
-6 6 15 58.6 125.48
-6 -6 -15 -86.03 131.37
6 6 -15 79.49 119.07
6 -6 -15 1.54 115.27
7 0 0 55.3 214.18
-7 0 0 -166.33 185.9
-7 0 0 -15.4 148.49
7 0 1 6995.11 453.12
-7 0 -1 6461.72 419.4
7 0 -1 6430.8 503.72
-7 0 -1 7125.16 466.82
-7 0 1 6325.76 362.77
0 7 -1 7164.12 447
0 -7 1 6879.67 404.57
0 7 -2 15425.86 580.31
0 7 -2 15264.74 560.92
-7 0 2 15828.47 538.52
7 0 -2 16561.75 807.51
0 -7 2 15881.8 709.18
-7 0 -2 16597.76 706.64
7 0 2 16378.06 619.07
-7 0 -2 15422.83 661.68
7 0 3 65780.51 1131.57
0 7 -3 63834.46 1130.66
-7 0 -3 67339.67 1519.12
0 7 -3 63824.36 1060.05
7 0 -3 63717.55 1625.52
-7 0 -3 66580.67 1387.3
-7 0 3 65329.54 1147.93
0 -7 3 67363.36 1573.37
-7 0 -4 63038.96 1585.13
0 -7 -4 61071.16 1159.31
0 7 -4 60190.2 1104.77
7 0 -4 57695.69 1651.13
0 7 -4 63126.35 1040.95
-7 0 -4 61168.66 1418.89
0 -7 4 60548.33 1659.32
-7 0 -5 19650.48 865.16
7 0 5 19155.78 1089.74
0 -7 -5 18557.79 667.49
0 -7 5 17291.97 1007.75
7 0 -5 19422.12 1043.46
-7 0 -5 19862.33 973.57
0 -7 6 126.16 415.19
-7 0 -6 104.02 218
7 0 6 1223.37 502.01
7 0 -6 175.04 344.3
-7 0 -6 157.43 273.56
-7 0 -7 6513.18 617.19
7 0 -7 5600.17 698.71
-7 0 -7 6966.72 696.87
0 -7 7 7502.95 816.49
7 0 7 6559.95 834.83
0 7 -8 690.73 222.71
-7 0 8 897.75 235.41
7 0 8 1446.71 592.01
-7 0 -8 789.84 375.94
0 -7 8 395.71 481.31
-7 0 -8 962.27 356.01
7 0 -8 834.69 431.88
0 7 8 315.53 204.38
-7 0 -9 6304.21 481.19
-7 0 9 5975.36 478.94
7 0 9 5298.48 891.83
0 -7 9 5655.37 860.33
0 7 9 6297.56 496.97
-7 0 -9 6396.42 697.07
7 0 -9 6577.62 845.51
0 -7 -9 7282.67 524.8
-7 0 -9 6221.7 729.53
0 7 -9 7520.7 535.64
-7 0 -10 7163.22 799.87
-7 0 -10 7685.2 551.08
0 -7 10 7281.81 1024.72
7 0 10 8189.73 1131.45
0 7 -10 7511.57 554.42
0 7 10 6735.6 532.1
0 -7 -10 8978.75 587.29
-7 0 -10 8080.93 841.46
-7 0 10 7863.91 559.49
7 0 -10 6510.5 872.23
0 7 11 3374.04 406.97
-7 0 -11 3565.72 385.67
-7 0 11 3797.54 425.64
0 -7 -11 3838.21 428.66
7 0 -12 4110.42 435.83
-7 0 -12 3760.24 388.07
0 7 12 3910.03 415.35
0 -7 -12 4428.59 431.52
0 7 -13 -84.78 247.89
0 7 13 194.71 205.57
-7 0 -13 -6.69 175.15
0 -7 -13 -22.66 195.65
7 0 -13 99.59 216.66
0 7 14 691.99 202.44
-7 0 -14 363.98 179.12
7 0 -14 797.13 237.19
-7 0 -15 505.97 162.07
7 0 -15 1117.23 231.11
-7 0 15 681.77 192.17
0 7 15 875.38 164.07
7 0 -16 32.1 137.96
-7 1 0 13187.99 542.67
-7 -1 0 12807.17 511.69
-7 1 0 13155.17 541.62
-1 7 0 13964.93 639.45
7 1 0 13451.43 653.29
7 -1 0 13493.22 617.66
7 1 1 166.46 218.18
-7 1 1 70.54 152.2
-7 -1 -1 227.78 226.58
-7 -1 -1 55.06 186.82
-7 1 -1 18.53 173.27
1 7 -1 82.9 189.72
-7 1 -1 83.71 167.58
7 -1 -1 -191.14 250.78
-1 7 -1 127.41 193.18
1 -7 1 220.36 213.1
7 -1 1 339.25 191.39
-7 1 1 58.87 154.71
-1 -7 1 -62.76 177.72
7 1 -1 20.52 252.85
-7 -1 1 -3.88 125.78
-7 1 -2 2299.94 289.59
-7 -1 2 2157.03 226.03
7 -1 2 2426.84 272.44
-7 1 2 2085.1 256.78
-7 -1 -2 2365.51 345.7
7 1 2 2431.09 320.63
7 1 -2 2318.49 382.06
-7 -1 -2 2242.05 328.64
-7 1 -2 1976.38 312.31
7 -1 -2 2575.03 419.51
1 -7 2 1817.24 331.91
-1 -7 2 2476.27 340.49
-1 7 -2 2135.84 255.59
1 7 -2 1919.56 289.99
7 -1 3 58.96 138.02
-7 -1 -3 277.76 246.02
-7 -1 -3 569.24 284.98
-7 1 -3 357.28 215.19
7 1 3 245.72 188.39
-1 -7 3 -6.88 272.62
1 -7 3 -241.2 309.64
1 7 -3 311.21 192.42
-7 1 -3 271.23 248.92
1 7 -3 263.14 167.6
-7 1 3 223.54 202.71
7 1 -3 535.43 331.14
7 -1 -3 383.25 336.9
-7 -1 3 331.59 165.26
1 -7 -3 353.07 172.13
-1 7 -3 22.58 151.31
1 -7 -4 4207.1 294.98
7 1 -4 4769.67 572.77
-7 1 -4 4958.68 499.74
1 -7 4 3642.76 500.96
1 7 -4 4512.29 284.11
7 -1 -4 4379.06 546.33
-7 1 -4 4474.34 441.1
-1 7 -4 4979.38 358.08
-7 -1 -4 4913.04 541.24
1 7 -4 4771.38 395.78
-1 -7 4 3779.04 491.91
-1 -7 -4 4930.56 410.38
-7 -1 -4 4710.39 452.86
-7 1 -5 624.5 306.55
7 -1 -5 412.87 369.78
-7 -1 -5 433.65 325.99
-1 -7 5 596.66 354.48
1 -7 5 227.89 362.19
7 1 5 430.58 399.23
-7 -1 -5 407.81 249.04
7 -1 5 231.74 407.53
-1 7 -5 604.11 189.61
1 7 -5 162.48 183.81
7 1 -5 604.98 353.42
-7 1 -5 596.86 247.02
-1 -7 -5 406.14 195.38
1 -7 6 1161.8 466.53
-7 1 -6 1242.3 316.07
-1 -7 6 627.89 370.43
-7 -1 -6 1143.87 371.98
7 1 -6 1225.32 413.11
7 -1 6 1332.1 503.05
-7 -1 -6 1219.37 322.7
7 1 6 1555.35 496.5
-1 -7 -6 1241.67 261.08
7 -1 -6 1630.4 468.88
-7 1 -6 1251.06 351.34
7 -1 -7 709.51 430.02
7 1 -7 512.12 403.58
1 -7 7 -19.75 449.55
7 1 7 506.62 504.58
-7 1 -7 287.71 292.7
-1 -7 7 69.81 463.75
-7 -1 -7 472.36 278.47
-7 1 -7 209.2 237.73
-7 -1 -7 309.66 310.49
7 -1 7 50.66 469.49
7 -1 8 -360.41 515.62
-1 -7 -8 217.6 220.06
-7 -1 -8 172.38 339.66
7 1 8 -248.02 550.71
-1 -7 8 212.03 456.8
7 -1 -8 158.51 417.38
1 7 8 145.3 211.27
-7 1 -8 151.33 279.47
1 7 -8 -106.42 234.17
-7 1 8 228.53 195.29
-1 7 8 238.58 210.77
-7 1 -8 -159.71 349.45
-7 -1 -8 222.28 217.61
7 1 -8 296.91 403.26
1 -7 8 90.83 482.62
-1 7 -8 -349.59 257.26
-7 -1 8 11.26 196.37
-7 -1 -8 244.14 301.32
-7 -1 9 5.92 220.85
-1 -7 -9 10.32 241.28
7 1 9 -167.73 560.02
1 7 -9 312.41 249.74
-1 -7 9 216.34 230.39
7 1 -9 135.76 414.63
-1 7 9 118.15 241.5
1 -7 9 -434.71 566.95
-7 1 -9 -240.6 218.33
7 -1 9 385.6 653.17
-7 1 -9 -5.91 340.53
-7 -1 -9 230.83 355.72
-7 -1 -9 143.16 304.15
-1 -7 9 303.85 504.76
-7 1 -9 295.64 304.8
1 7 9 335.13 232.55
-1 7 -9 451.24 259.65
-7 -1 -9 11.19 211.97
7 -1 -9 -230.67 475.79
1 -7 -9 635.56 281.79
-7 1 9 145.55 211.28
1 -7 10 -404.1 648.08
-7 1 -10 483 257.66
-1 -7 10 217.8 469.49
-1 7 -10 124.33 240.48
-1 7 10 470 274.43
-7 1 -10 800.33 430.03
-1 -7 -10 726.33 285.49
1 7 -10 189.34 238.04
1 -7 -10 647.69 262.27
-7 -1 -10 231.14 233.31
-7 -1 -10 147 331.19
-7 -1 -10 374.86 312.17
7 -1 -10 -443.93 495.43
7 -1 10 1172.26 677.65
1 7 10 259.82 231.81
-7 1 10 287.88 243.8
-7 -1 10 181.28 228.43
-1 -7 10 391.94 255.14
7 1 10 304.05 679.96
-7 1 -10 189.66 317.4
7 1 -10 827.92 501.18
-1 -7 -11 -73.33 235.11
-1 7 11 -5.82 224.18
-7 1 -11 180.73 209.77
1 -7 -11 206.08 222.5
-7 -1 -11 323.22 224.75
-1 -7 11 37.2 220.79
-7 1 11 98.58 211.8
-7 -1 11 38.84 213.7
1 7 11 264.23 219.7
7 1 -12 -365.08 269.06
-7 -1 12 178.97 213.93
-1 -7 -12 -52.04 218.55
1 -7 -12 238.91 216.72
-1 7 -12 -112.18 284.63
-1 7 12 180.43 228.84
1 7 12 121.79 220.54
-7 -1 -12 62.89 191.04
7 -1 -12 -221.16 253.25
-7 1 -12 22.03 198.85
-1 -7 12 275.26 238.18
1 -7 -13 296.93 207.35
-1 7 -13 246.44 229.48
7 1 -13 452.07 234.81
-7 -1 -13 409.33 214.45
-7 1 -13 757.8 234.73
-1 -7 -13 704.05 247.49
7 -1 -13 512.12 233.27
-1 7 13 483.34 227.18
1 7 13 435.56 213.28
1 7 -13 185.06 232.23
-1 -7 -14 2.02 165.11
7 -1 -14 401.71 210.88
1 7 14 127.43 157.41
-7 -1 -14 42.73 153.49
1 -7 -14 9.48 163.23
7 1 -14 262.27 208.79
-1 7 14 185.12 177.42
-7 1 -14 38.08 159.05
7 -1 -15 83.42 164.5
-1 -7 -15 -5.64 137.54
-1 7 15 213.19 142.42
-7 1 15 29.3 146.73
-7 -1 -15 -26.62 128.17
1 -7 -15 2.01 139.19
7 1 -15 73 155.67
-7 -1 15 -3.96 149.45
-2 7 0 156.08 217.26
-7 2 0 -72.06 139.75
7 2 0 -4.79 227.44
-7 -2 0 -111.99 153.33
7 -2 0 -144.58 196.12
2 7 0 -63.14 222.19
-7 2 0 -30.25 180.39
2 -7 0 -56.43 132.81
7 -2 1 621.89 193.23
2 7 -1 768.05 252.13
7 2 -1 1153.33 293.09
-7 -2 -1 913.16 235.24
-7 2 1 797.14 161.7
7 -2 -1 1027.08 290.46
-2 7 -1 776.19 215.62
2 -7 1 924.91 249.27
-7 2 -1 630.16 185.65
7 2 1 736.21 249.14
-7 2 1 948.99 218.11
-7 -2 1 716.78 146.96
-7 2 -1 743.21 208.91
-7 -2 -2 23459.68 873.65
7 -2 2 25130.98 658.36
-7 2 -2 24003.17 829.23
7 2 -2 23512.78 964.23
7 2 2 23428.84 820.86
-2 -7 2 23861.86 832.2
-7 2 -2 23599.24 774.95
-2 7 -2 25040.75 764.84
-7 2 2 24309.88 762.11
-7 -2 2 23552.32 535.39
2 -7 2 25124.42 881.58
-7 2 2 23359.31 533.43
7 -2 -2 24940.03 974.11
2 7 -2 23704.23 820.88
-7 -2 -2 25257.49 921.34
-7 -2 -3 22276.67 935.48
-2 7 -3 22375.45 726.46
2 7 -3 21501.36 785.84
7 2 3 22096.2 796.1
2 -7 3 22587.88 932.5
7 2 -3 21554.38 979
-7 2 -3 21676.35 843.89
-7 2 3 21571.98 761.21
-7 -2 -3 21733.99 871.92
-2 -7 3 22075.38 903.26
-7 2 -3 21546.85 800.74
7 -2 -3 22047.88 987.87
2 -7 -3 19650.25 479.92
-7 -2 -4 16135.22 780.09
7 -2 -4 15585 903.95
2 7 -4 14796.99 684.93
7 2 -4 15250.45 887.62
-2 7 -4 16161.98 642.1
-7 2 -4 15204.53 780.85
-2 -7 4 15620.47 874.03
2 -7 4 14971.86 878.63
-7 2 -4 16340.04 750.08
-2 -7 -4 15865.18 731.29
-7 -2 -4 16509.7 899.98
7 -2 4 15430.1 951.09
2 -7 5 20945.71 1108.3
7 -2 5 21695.38 1182.65
7 2 5 20534.01 1117.86
-2 -7 5 20651.51 1077.24
-7 2 -5 21129.51 924.78
7 -2 -5 21143.89 1116.75
-7 2 -5 20940.04 958.4
7 2 -5 20400.86 1075.6
-2 7 -5 22173.58 774.62
2 7 -5 19679.54 801.37
-7 -2 -5 20200.85 909
-2 -7 -5 20956.27 838.37
-7 -2 -5 22853.72 1134.09
-2 -7 -6 3485.27 388.88
-2 7 -6 3505.99 357.02
-7 -2 -6 3282.24 438.8
7 2 6 2928.27 567.16
7 -2 -6 3603.52 595.09
2 -7 6 3748.97 617.97
-7 2 -6 3598.62 482.5
-7 -2 -6 4268.9 611.67
2 7 -6 2627.04 346.22
7 2 -6 3088.85 530.61
-2 -7 6 3303.51 578.37
-7 2 -6 3828.13 466.38
7 -2 6 3750.71 678.43
-2 -7 7 563.59 462.37
-7 -2 -7 117.15 275.55
7 2 7 -499.01 458.61
7 -2 7 303.17 446.62
-2 -7 -7 -247.22 225.39
7 2 -7 38.89 366.31
-7 2 -7 -39.35 262.64
2 -7 7 253.76 472.41
-7 2 -7 190.76 267.11
-7 -2 -7 183.33 342.49
7 -2 -7 456.36 410.2
7 2 8 5165.87 832.65
-7 2 -8 5669.24 627.32
-7 -2 -8 6109.64 442.12
-7 2 -8 5055.44 607.36
7 2 -8 5509.16 718.61
2 7 8 5308.97 421.47
-2 -7 8 4662.93 740.5
-2 -7 -8 6146.15 454.21
2 7 -8 5871.3 449.26
-7 -2 -8 5410.58 624.74
7 -2 -8 5363.97 773.49
2 -7 8 4852.87 789.83
-2 7 -8 5595.78 442.89
-7 -2 8 5402.27 444.49
-2 7 8 5026.58 438.69
7 -2 8 5009.87 859.51
-7 2 8 5422.23 430.51
-7 -2 -8 5748.9 729.98
7 2 9 3005.54 756.3
-2 -7 9 4505.81 793.94
2 -7 9 3975.29 844.21
7 2 -9 2880.73 612.08
2 7 -9 4322.04 435.22
-7 2 -9 3690.16 573.11
-2 7 9 3507.14 425.5
7 -2 -9 3784.67 725.28
-7 -2 -9 3506.32 555.66
-7 -2 9 4008.42 420.97
-7 -2 -9 3682.23 385.97
-2 7 -9 3921.49 412.52
2 -7 -9 4641.91 436.19
-2 -7 9 3839.51 420.23
-7 -2 -9 3572.81 624.51
-7 2 -9 3838.28 555.49
2 7 9 4022.87 410.05
7 -2 9 3612.93 857.1
-2 -7 -9 4157.19 444.77
-7 2 9 4093.64 413.79
-7 2 -9 3813.04 398.14
-2 7 -10 3867.73 403.41
-7 -2 -10 4111.74 626.78
-7 2 -10 4559.02 639.19
-7 -2 -10 4514.93 675.42
-2 -7 10 3531.33 742.87
2 7 -10 4322.35 441.87
7 2 -10 3569.37 669.4
-7 -2 -10 4834.15 447.59
-2 -7 -10 5204.4 469.61
-7 2 -10 4080.86 631.31
2 7 -10 3615.5 380.4
7 -2 -10 4432.32 811.14
-2 -7 10 4922.13 460.62
7 -2 10 4510.08 947.49
-2 7 10 4278.11 462.29
2 7 10 4273.68 432.15
7 2 10 4198.83 887.3
-7 2 10 4131.05 420.33
-7 2 -10 4432.86 425.67
2 -7 -10 5182.8 472.56
-7 -2 10 4615.62 458.94
2 -7 10 5156.97 968.72
2 7 11 4368.46 442.8
-7 2 -11 5449.46 461.25
-7 -2 -11 3998.75 410.93
2 -7 -11 5055.05 462.84
2 7 -11 4910.75 423.84
7 -2 -11 4361.97 434.45
-2 -7 -11 5519.26 489.51
-2 7 -11 5086.98 500.14
-7 -2 11 4376.93 455.96
-2 -7 11 5337.83 482.8
-2 7 11 4226.14 463.03
-7 -2 -12 999.83 263.29
-7 2 -12 1060.22 268.64
-2 -7 -12 944.1 320.89
-2 7 12 464.18 238.57
7 2 -12 309.76 233.54
-7 -2 12 978.51 291.24
2 7 12 861.19 257.77
2 -7 -12 857.36 262.71
-2 -7 12 757.07 264.34
-2 7 -12 509.13 275.84
2 7 -12 935.08 233.67
7 -2 -12 612.33 256.01
-2 7 13 260.74 221.77
2 7 -13 242.82 178.03
-7 2 -13 -76.73 177.73
-2 7 -13 -93.63 208
2 7 13 292.14 216.75
7 -2 -13 3.7 199.27
-7 -2 -13 115.47 194.39
7 2 -13 -151.22 227.33
2 -7 -13 -50.29 183.84
-2 -7 -13 -106.88 212.94
7 -2 -14 355.95 206.68
2 -7 -14 5.41 181.17
-2 7 14 262.48 181
-7 2 -14 316.1 168.54
-2 -7 -14 11.87 204.6
-7 2 14 147.05 185.38
-7 -2 -14 237.18 169.42
7 2 -14 215.96 196.5
-2 -7 -15 -0.92 145
-7 -2 15 61.54 139.46
2 -7 -15 2.71 151.46
7 2 -15 423.12 181.08
7 -2 -15 7.62 168.01
-7 -2 -15 108.84 142.45
-2 7 15 258.44 144.99
-7 2 15 119.16 148.91
3 7 0 1495.64 309.57
3 -7 0 1506.49 220.68
-7 3 0 1586.93 260.8
7 -3 0 1580.61 272.18
7 3 0 1619.78 331.64
-7 3 0 1450.15 188.9
-7 -3 0 1525.78 226.14
-3 7 0 1575.67 278.93
-3 7 1 1912.4 334.19
3 7 1 1311.65 310.92
-7 3 -1 1598.9 221.72
3 -7 1 1567.36 279.46
-7 3 1 1596.01 159.34
7 3 -1 1411.71 331.76
-7 -3 1 1411.13 171.06
7 -3 1 1344.24 220.52
-7 3 -1 1462 254.56
-7 -3 -1 1302.72 255.43
-7 3 1 1493.17 258.06
3 7 -1 1591.17 302.04
-3 7 -1 1565.6 263.6
7 -3 -1 1884.55 337.05
7 3 1 1447.86 300.97
-7 3 -2 7926.8 470.43
7 -3 2 6511.24 323.94
7 3 2 7274.31 517.57
7 3 -2 6879.71 569.66
-7 3 2 7195.5 465.28
7 -3 -2 7147.92 573.34
3 7 -2 6737.19 502.2
-3 -7 2 7195.04 520.15
-7 -3 2 6034.13 250.97
-7 3 -2 7397.49 489.13
-3 7 -2 7336.7 462.93
-7 -3 -2 7208.48 539.21
3 -7 2 7033.37 523.07
-7 -3 -2 7752.71 581.94
-7 3 3 16319.1 712.48
7 -3 -3 15229.01 867.16
-7 3 -3 16924 728.24
3 7 -3 15739.6 731.53
3 -7 3 15378.01 810.69
-3 -7 3 15790.33 805.79
7 3 3 16490.32 752.24
3 7 3 14834.51 529.86
-7 3 -3 16304.15 750.88
-7 -3 -3 16824.02 817.97
7 3 -3 15383.68 854.36
-3 7 -3 16838.47 681.06
-3 -7 -4 803.99 284.54
3 -7 4 998.67 398.66
-3 -7 4 896.59 355.87
-7 3 -4 828.34 277.42
7 -3 -4 1105.72 384.36
7 3 -4 673.39 335.81
-7 3 -4 1016.34 271.87
3 7 -4 892.49 268.62
-3 7 -4 969.95 243.83
7 -3 4 659.5 402.99
-7 -3 -4 950.23 299.54
-3 7 -5 3325.32 362.43
-3 -7 -5 3539.96 410.61
3 7 -5 3163.13 387.46
-3 -7 5 2729.17 474.17
-7 3 -5 3227.82 431.9
7 3 5 3138.74 526.08
-7 3 -5 3251.01 407.57
3 -7 5 3228.76 553.46
7 -3 5 2726.32 538.18
7 3 -5 2802 489.12
-7 -3 -5 2738.36 397.45
7 -3 -5 3106.81 536.63
-7 3 -6 2619.98 413.34
-7 3 -6 2766.13 429.91
7 -3 -6 2098.7 506.72
-3 7 -6 2968.68 368
3 7 -6 2300.42 372.32
7 3 -6 2922.34 520.32
-7 -3 -6 3169.1 442.48
-3 -7 -6 2344.88 362.81
3 -7 6 3002.27 608.31
7 3 6 2871.73 591.62
7 -3 6 2507.75 592.78
-3 -7 6 2937.21 534.88
-7 3 -7 3077.12 458.47
7 -3 7 3745.56 716.14
-7 -3 -7 3621.15 620.56
-3 -7 7 2895.37 587.11
7 3 -7 3455.28 575.74
-7 3 -7 3319.11 479.8
-7 -3 -7 3278.29 487.18
7 3 7 3205.7 664.74
3 -7 7 4015.33 693.35
7 -3 -7 3792.5 692.39
-3 -7 -7 3959.79 460.68
-7 -3 -8 2783.41 627.75
-3 -7 -8 2414.62 409.87
7 3 -8 1955.12 487.59
-3 -7 -8 3707.24 369.72
3 7 -8 2474.74 334.86
7 -3 -8 2658.52 656.15
7 3 8 2624.32 658.42
-3 -7 8 1947.76 570.05
-3 7 -8 2626.9 331.26
-7 -3 -8 2728.6 469.89
-3 -7 8 2540.21 346.66
-7 3 -8 2546.03 455.04
7 -3 8 3042.03 753.43
3 7 8 2368.25 332.29
-7 -3 8 2464.79 334.34
3 -7 8 2726.59 715.68
-7 3 8 2229.66 319.8
-7 3 -8 2437.11 456.21
-7 -3 -8 2797.45 337.7
3 -7 -9 3624.64 393.12
7 -3 9 2785.23 735.11
3 7 -9 3605.12 407.55
7 -3 -9 2976.79 714.22
-3 -7 9 2922.71 384.95
-7 3 -9 3292.54 529.42
-3 -7 9 2648.06 678.27
7 3 9 2623.97 727.37
-3 7 9 3314.06 528.4
-7 -3 -9 2688.65 597.65
-7 -3 -9 3213.82 386.16
3 -7 9 3165.62 804.43
-7 -3 9 3617.54 415.65
-3 7 -9 3362.02 390.5
-7 3 -9 3155.09 536.58
-7 3 9 3293.76 382.96
-3 -7 -9 3894.76 423.88
-7 -3 -9 3085.84 547.74
7 3 -9 3418 637.07
3 7 9 3107.85 376.83
3 7 -10 -113.54 256.14
-3 -7 10 -131.45 477.51
7 -3 10 -102.55 625.18
-3 -7 -10 -19.73 249.77
-7 -3 -10 254.42 368.4
-7 3 -10 400.27 347.07
-7 3 -10 -20.18 311.41
-3 7 10 74.85 233
7 3 -10 -387.07 436.52
-7 -3 -10 17.06 224.17
-3 7 -10 -367.58 281.83
7 -3 -10 189.61 484.9
-7 -3 -10 -478.33 355.82
-3 7 -10 -361.55 383.53
-7 -3 10 179.95 241.39
-3 -7 10 510.74 256.12
3 7 10 32.45 226.5
3 -7 -10 484.08 256.94
3 -7 10 -812.89 680.92
3 -7 -11 505.61 253.1
-3 -7 11 341.46 246.03
3 7 -11 51.41 190.44
-3 7 -11 -86.6 295.67
-3 7 11 293.81 239.41
-7 -3 11 64.42 222.15
3 7 11 114.12 222.86
-3 -7 -11 325.15 241.1
-7 -3 -11 517.6 244.19
7 -3 -11 115.78 233.96
-3 7 12 1316.83 303.35
3 7 -12 1456.08 278.15
-3 -7 -12 1852.27 338.07
3 7 12 1720.99 298.54
-7 -3 -12 1548.58 294.94
3 -7 -12 1521.34 293.63
-3 7 -12 834.7 286.15
7 -3 -12 1571.92 298.55
-7 -3 12 1426.16 313.29
-3 -7 12 1588.66 314.65
7 3 -12 758.15 266.89
3 7 -13 1697.22 273.15
-3 7 13 1912.16 317.71
-7 -3 -13 1953.66 307.12
7 -3 -13 97.19 318.87
3 -7 -13 67.12 301.9
-7 -3 13 1905.89 318.29
7 3 -13 1811.44 317.28
-3 -7 -13 1969.42 315.08
-3 -7 13 2002.66 326.8
7 -3 -14 3.6 212.38
3 -7 -14 0.85 192.53
7 3 -14 334.69 206.06
-3 7 14 463.47 199.95
-7 -3 -14 446.06 184.1
-7 3 14 723.99 211.07
-3 -7 -14 18.63 232.38
-3 7 15 67.43 139.11
-3 -7 -15 2.62 146.29
-7 3 15 269.73 162.51
3 -7 -15 -12.68 137.62
7 -3 -15 18.75 154.07
-7 -3 -15 52.64 128.03
7 3 -15 -7.25 139.99
-7 -4 0 -4.3 156.31
7 -4 0 3.22 214.35
-7 4 0 33.07 110.04
-7 4 0 -106.46 192.72
4 -7 0 -427.42 210.99
4 7 0 93.34 233.07
7 4 0 2.21 235.4
-4 7 0 86.88 201.93
4 -7 -1 4419.3 256.5
-4 7 -1 5377.06 428.2
-7 4 -1 5311.41 353.2
7 -4 -1 5547.04 480.95
7 4 1 4924.96 461.57
7 4 -1 5291.1 505.13
4 7 1 5271.56 482.31
-7 4 -1 5426.31 437.02
4 7 -1 5338.6 473.3
-7 -4 1 4697.89 266.99
-7 -4 -1 5181.17 425.24
-4 7 1 5477.55 452.08
7 -4 1 5318.64 359.82
-7 4 1 5506.17 434.02
4 -7 1 5398.77 422.89
7 4 -2 5242.58 524.25
-7 4 -2 5678.75 456.75
4 -7 2 5632.26 514.13
4 7 -2 5348.7 475.11
7 -4 -2 5189.52 527.18
-7 4 2 5230.5 426.63
-4 7 -2 5603.55 430.63
-7 4 -2 5898.3 421.56
7 4 2 5879.22 504.66
7 -4 3 8714.81 740.64
4 7 -3 8681.29 605.4
-4 -7 3 8447.49 641.06
-4 7 -3 9308.03 553.24
-7 4 -3 9254.85 592.02
7 4 3 9020.12 609.47
7 -4 -3 9020.94 710.28
-7 4 -3 9674.2 581.25
4 -7 3 8844.55 676.92
-7 4 3 9357.63 595.62
-7 -4 -3 9555.42 670.72
7 4 -3 9025.13 696.05
-7 4 -4 16133.62 795.27
4 7 4 16071.32 698.29
4 7 -4 15504.05 802.57
-7 4 -4 16831.44 806.5
7 4 -4 15422.95 919.84
-4 7 -4 16294.24 747.34
4 -7 4 15110.18 915.01
-4 -7 4 15253.75 872.98
7 -4 4 16263.36 1017.69
-4 -7 -4 16193.33 850.42
7 -4 -4 15670.65 987.98
-7 -4 -4 16239.32 856.62
-7 -4 -5 2553.19 408.93
7 -4 5 2854.92 575.84
-4 -7 -5 2429.95 378.28
7 4 5 2235.44 466.97
-7 4 -5 2818.58 401.54
-4 -7 5 2187.74 447.22
4 7 -5 2510.58 398.36
7 -4 -5 2821.94 564.64
-7 4 -5 2620.99 393.5
4 -7 5 2213.95 499.92
7 4 -5 2514.26 456.45
-4 7 -5 2933.61 380.21
-7 4 -6 2501.48 419.25
4 -7 6 2361.66 596.91
4 7 -6 2462.67 436.57
-4 -7 -6 2198.76 376.31
-4 7 -6 2580.41 370.61
-7 4 -6 2580.43 420.08
-4 -7 6 2423.99 510.65
7 -4 -6 2698.43 576.66
7 4 -6 2377.55 508.85
7 -4 6 2567.34 614.52
7 4 6 2443.73 545.89
-7 -4 -6 2447.35 402.91
7 4 7 283.26 444.73
4 -7 7 499.01 494.21
7 -4 7 277.11 504.88
-7 4 -7 -176.29 273.94
7 -4 -7 275.12 476.94
-7 -4 -7 -62.9 259.29
7 4 -7 107.7 356.48
-4 7 -7 103.69 227.04
-7 4 -7 -76.68 238.88
-4 -7 7 123.75 389.06
-4 -7 -7 176.46 244.51
4 7 -7 262.67 293.83
-4 7 -8 -536.9 377.78
-7 4 -8 -47.72 286.45
4 7 -8 107.81 219.01
-4 7 -8 644.24 316.41
-4 -7 8 288.75 224.5
-7 -4 -8 100.01 220.15
4 -7 -8 175.97 210.92
-7 -4 -8 16.4 288.07
7 -4 -8 -111.4 476.26
7 -4 8 -42.54 532.75
4 7 8 -68.35 209.01
-7 -4 8 -13.77 214.55
-7 4 8 165.71 225.79
-7 -4 -8 -61.69 387.82
-4 -7 -8 -83.35 213.5
-4 7 -8 103.09 232.98
-4 -7 8 4.79 447.22
-4 -7 -8 182.42 253.24
-7 4 -8 294.73 256.07
4 -7 8 -200.51 523.84
7 4 8 -62.01 500.17
-7 4 -8 211.77 281.93
7 4 -8 -391.95 437.27
7 4 -9 5285.97 724.65
-4 -7 9 6123.2 518.28
7 -4 -9 6119.97 905.06
-7 4 -9 5368.98 670.46
4 7 -9 6840.36 506.94
4 7 9 6658.65 511.47
-4 7 -9 6472.75 494.66
-4 -7 9 5955.24 848.71
-4 7 -9 6185.23 557.95
-7 4 -9 6334.74 691.34
4 -7 9 5950 997.44
-7 4 -9 5963.67 472.17
4 -7 -9 6618.06 514.09
-7 -4 -9 6218.29 492.18
-4 -7 -9 6693.03 517.67
-7 -4 -9 6887.32 846.14
-4 7 9 5841.89 516.22
7 -4 9 7112.03 1064.4
-7 -4 -9 5940.87 719.36
-7 -4 9 5986.12 505.09
7 -4 -10 3878.33 799.14
-7 4 -10 4860.76 659.51
-4 -7 -10 5832.77 501.98
7 -4 10 5233.11 999.43
4 -7 -10 5502.76 472.21
4 7 10 4617.91 448.32
7 -4 -10 4126.15 404.84
-7 4 -10 3660.92 594.7
4 7 -10 4185.43 421.87
-4 7 10 5018.54 488.24
-7 -4 -10 4017.08 701.3
-7 -4 -10 3895.81 621.28
-4 -7 10 4208.38 777.04
-7 -4 10 4596.58 464.98
-4 -7 10 4201.86 452.59
-4 7 -10 5315.22 507.34
-7 -4 -10 4471.78 445.53
4 -7 10 4362.59 923.49
4 -7 -11 677.52 265.41
4 7 -11 6.08 197.4
-4 7 11 175.59 234.49
-7 -4 -11 418.59 242.4
4 7 11 559.06 258.13
-4 -7 11 267.07 237.17
-4 7 -11 249.65 253.32
-7 -4 11 399.54 239.48
-4 -7 -11 598.12 276.86
7 -4 -11 462.35 246.42
7 -4 -12 203.88 203.28
-7 -4 -12 123.45 208.64
-4 7 12 19.36 208.72
-4 -7 12 306.57 232.41
-4 -7 -12 178.17 227.41
4 -7 -12 35.02 193.66
4 7 -12 -15.44 190.78
-7 -4 12 10.39 210.84
-4 7 -12 261.77 245.42
-4 -7 -13 134.55 209.77
-7 -4 -13 121.32 201.15
4 7 -13 -110.12 161.01
-7 4 13 -284.58 211.01
7 4 -13 -151.78 227.97
-4 7 13 -132.57 196.47
4 -7 -13 11.15 183.64
-4 -7 13 6.57 193.39
7 -4 -13 -13.5 188.85
-7 -4 13 -2.69 202.81
-7 4 14 -9.74 167.25
4 7 -14 65.18 146.71
-4 7 14 -13.63 168.18
-7 -4 -14 10.12 159.7
7 4 -14 197.04 180.45
4 -7 -14 1.77 160.58
-4 -7 -14 71.78 173.57
7 -4 -14 5.87 170.15
-4 7 15 204.95 145.22
-4 -7 -15 9.2 157.01
7 4 -15 309.91 163.72
-7 -4 -15 295.94 147.43
4 -7 -15 -0.96 153.45
-7 4 15 257.22 146.63
7 -4 -15 2.65 158.18
7 5 0 698.03 277.57
5 -7 0 692.2 218.81
-7 -5 0 1045.25 220.51
7 -5 0 611.47 239.18
-7 5 0 810.86 146.4
-7 5 0 1115.82 262.21
5 7 0 879.67 283.67
-5 7 0 497.51 227.15
-7 5 -1 849.88 187.55
7 5 -1 697.43 285.92
7 -5 -1 948.63 316.32
-7 -5 1 781.18 149.91
5 -7 -1 799.21 200.62
-5 7 -1 1080.69 262.08
5 -7 1 1401.86 322.55
5 7 -1 939.99 291.21
-7 5 -1 1028.28 274.31
5 7 1 914.26 295.09
-7 5 1 955.38 263.72
-5 7 1 839.93 281.02
7 -5 1 788.4 205.3
7 5 1 983.61 304.01
7 5 -2 3531.85 465.12
5 7 -2 3298.18 435.36
-7 5 -2 3895.89 363.64
-5 7 -2 4105.49 413.14
5 -7 2 3168.03 447.69
-5 7 2 4174.63 455.81
-7 5 -2 3810.57 404.09
5 7 2 3494.28 446.22
-7 5 2 3817.83 411.66
7 5 2 3424.69 425.47
-7 5 3 2099.19 350.33
7 -5 3 1638.37 414.52
-7 -5 -3 1827.67 386.42
7 5 -3 2365.17 449.44
5 -7 3 1967.2 435.04
7 5 3 2185.3 377.72
-7 5 -3 2099.11 342.07
-5 7 -3 2084.88 329.9
-7 5 -3 1968.33 305.5
5 7 -3 1673.35 376.91
-5 7 -4 -211.02 231.82
-5 -7 -4 119.43 267.12
5 7 4 327.15 253.86
7 5 -4 -67.03 302.59
5 -7 4 -7.26 342.79
-5 -7 4 -398.87 375.61
-7 5 -4 1.77 218.64
-7 5 -4 -17.49 218.3
-7 -5 -4 145.93 260.86
7 -5 4 183.94 397.34
5 7 -4 -112.9 272.98
-7 -5 -5 8073.55 672.51
5 -7 5 7242.23 771.07
-7 5 -5 6989.32 596.7
7 -5 5 6916.14 796.24
-5 -7 5 6119.86 678.46
5 7 -5 6755.68 629.83
-5 -7 -5 7183.54 620.22
-5 7 -5 7415.82 574.65
7 5 5 6689.88 684.24
-7 5 -5 8089.32 627
7 5 -5 6467.11 677.28
-7 -5 -6 11697.11 823.67
7 5 6 12322.8 953.01
5 -7 6 11531.91 1016.62
-5 -7 6 12432.26 967.32
7 5 -6 13683.44 986.41
7 -5 6 12843.53 1099.32
-7 5 -6 13017.31 821.14
-5 7 -6 13108.71 786.82
-5 -7 -6 12295.1 814.08
7 -5 -6 12878.06 1073.68
-7 5 -6 13328.84 852.72
5 7 -6 12479.18 865.42
5 -7 7 15117.53 1227.13
5 7 -7 17408.61 1046.74
-5 -7 -7 14619.67 904.72
-7 -5 -7 14830.55 954.6
-7 5 -7 15377.04 933.9
-7 5 -7 14602.74 939.55
7 -5 7 13424.24 1225.46
-5 -7 7 14629.85 1123.52
-5 7 -7 16850.71 919.95
7 -5 -7 15988.47 1247.1
-7 -5 -7 15161.03 659.21
7 5 7 15355.6 1131.24
-7 -5 7 15031.18 715.22
7 5 -7 14621.93 1052.51
-7 -5 -8 9827.82 828.54
-5 7 -8 11157.54 665.4
-5 7 -8 11647.24 638.13
5 -7 8 9805.02 1147.48
-5 7 -8 10620.73 598.83
7 -5 8 9098.62 1087.55
5 7 -8 9134.4 533.83
-5 -7 8 9962.61 1018.53
-5 -7 -8 10841.24 594.28
-7 -5 -8 9834.93 573.1
5 7 8 10026.9 596.14
-7 5 -8 10552.02 819.16
-7 -5 8 10555.63 630.97
-5 -7 -8 10515.97 816.06
7 -5 -8 9201.56 1043.9
5 -7 -8 10337.18 558.11
-5 -7 8 10780.03 652.16
-7 5 -8 9993.18 823.03
-7 5 -8 9568.55 596.65
7 5 -8 10474.18 938.66
7 -5 9 2021.18 789.92
-7 -5 -9 1814.81 322.78
-5 -7 9 1554.01 343.53
7 5 -9 823.04 452.88
-5 -7 -9 1694.71 466.2
-5 -7 -9 2062.16 353.87
-5 7 -9 1415.98 357.25
5 -7 9 687.61 663.62
-5 -7 9 897.62 533.43
-7 5 -9 1561.91 448.38
5 7 -9 1918.16 313.37
-7 5 -9 1739.94 378.62
-7 -5 -9 1704.24 456.34
7 -5 -9 1411.5 277.86
-5 7 -9 1183.38 285.01
5 7 9 1726.79 331.16
-7 -5 -9 1471.64 574.49
-7 5 -9 2150.5 506.14
5 -7 -9 1518.71 298.65
-7 -5 9 1484.83 329.55
7 -5 -9 1224.37 628.49
-5 7 -10 2262.28 394.7
5 7 -10 1457.87 273.87
-7 5 -10 2297.65 358.44
5 -7 -10 2546.28 351.92
-7 -5 -10 2203.34 348.43
-5 -7 -10 2355.05 378.85
-7 -5 10 2524.53 390.99
-5 7 10 1962.01 362.89
-5 -7 10 2038.54 365.27
7 -5 -10 1654.51 287.58
5 -7 -11 409.45 231.97
-5 -7 11 124.71 223.2
-5 -7 -11 328.82 251.02
-5 7 -11 224.66 275.04
-7 -5 11 -23.68 213.01
7 -5 -11 -94.13 214.23
-5 7 11 -22.93 225.43
-7 -5 -11 157.97 227.71
-7 -5 -12 2077.67 334.31
-5 7 -12 1954.13 324.94
7 -5 -12 1897.5 301.7
-7 -5 12 1691.39 322.94
-5 -7 -12 2178.94 347.97
5 -7 -12 1445.85 290.51
-5 7 12 1624.5 310.53
-5 -7 12 1996.25 341.22
5 7 -12 1512.94 267.12
5 -7 -13 23.98 297.55
7 5 -13 1908.79 307.22
-7 -5 -13 2277.96 311.78
-5 -7 -13 2447.14 344.47
-7 -5 13 1482.74 299.7
-5 -7 13 1717.66 309.45
7 -5 -13 71.97 309.42
-5 7 13 1738.55 300.31
-7 5 13 1530.8 290.16
5 7 -13 1889.34 283.59
7 5 -14 332.46 188.15
-7 -5 -14 786.07 208.02
7 -5 -14 3.51 186.38
-5 7 14 580.79 202.08
5 7 -14 626.42 193.77
-7 5 14 591.32 206.6
5 -7 -14 3.22 194.62
-5 -7 -14 626.92 201.41
-7 -5 -15 24.45 126.35
7 5 -15 -35.29 121.82
5 -7 -15 -3.88 118.82
7 -5 -15 1.3 121.38
-7 5 15 -10.9 126.63
-5 -7 -15 30.16 131.09
-5 7 15 92.34 125.07
-6 7 0 -150.17 228.71
6 7 0 115.44 258.18
7 -6 0 87.56 241.52
7 6 0 6.53 272.38
6 -7 0 -336.04 269.42
-7 6 0 357.3 256.4
7 -6 1 3554.67 323.41
6 7 -1 4235.5 485.83
6 7 1 3824.75 471.04
-6 7 1 4322.31 444.6
6 -7 1 4157 463.2
-7 6 1 3958.31 424.49
7 6 -1 4203.96 484.64
-7 6 -1 4022.83 315.03
-7 6 -1 4841.99 454.65
7 6 1 4326.66 479.7
-6 7 -1 4304.17 437.11
6 -7 2 3184.21 485.09
7 6 -2 2373.16 409.08
7 6 2 3059.08 428.72
-6 7 -2 3361.6 401.63
-7 6 2 2774.11 391.33
6 7 2 2991.23 430.27
6 7 -2 2499.6 401.73
-6 7 2 2600.92 399.71
-7 6 -2 3177.07 331.95
-7 6 -2 2765.6 373.35
7 -6 2 2856.99 505.48
-7 -6 -3 1013.74 354.15
6 7 -3 869.4 325.07
7 6 -3 990.6 368.13
6 -7 3 354.56 329.43
-7 6 -3 747.77 229.02
-7 6 3 1486.3 356.38
7 -6 3 624.78 387.75
-7 6 -3 990.69 281.6
7 6 3 739.59 317.4
-6 7 -3 913.51 277.74
7 -6 4 619.37 439.86
6 -7 4 1066.14 448.53
-6 -7 -4 1130.27 360.89
-6 7 -4 922.78 283.69
7 6 -4 1078.94 372.72
-6 7 -4 1284.57 314.2
6 7 -4 855.34 343.29
-7 6 -4 819.69 276.64
-7 -6 -4 989.51 329.54
-7 6 -4 673.79 251.44
6 -7 5 1785.15 531.77
-7 -6 -5 1733.36 390.06
-6 -7 -5 1866.91 406.32
7 6 5 2038.23 442.13
-6 7 -5 1600.89 346.4
7 -6 5 2054.5 543.48
7 6 -5 1475.41 420.34
6 7 -5 1748.9 419.83
-7 6 -5 1800.12 370.15
-7 6 -5 1859.33 366.35
-6 7 -5 2265.82 410.89
7 6 -6 738.51 406.59
-7 6 -6 441.74 290.03
7 -6 6 157.67 504.24
6 -7 6 354.22 514.63
-6 -7 -6 501.25 309.45
7 6 6 260.75 380.21
6 7 -6 587.45 376.84
-7 6 -6 543.25 302.24
-6 7 -6 629.24 299.82
-7 -6 -6 587.3 311.6
-6 7 -7 276.16 300.62
6 7 -7 116.68 385.38
-6 7 -7 -94.51 275.07
-6 7 -7 542.55 305.17
-7 6 -7 549.77 319.2
-6 -7 -7 551.09 310.15
7 -6 7 372.56 560.87
-7 6 -7 -305.4 244.08
-7 6 -7 276.69 295.11
-6 -7 7 -202.17 501.07
-7 6 -7 201.23 306.75
-7 -6 7 5.76 265.77
-6 -7 7 -40.03 244.59
-7 6 -7 249.26 284.38
-6 7 -7 294.59 233.91
-7 -6 -7 204.98 223.54
6 -7 7 155.35 500.84
-7 -6 -7 324.99 294.34
-6 -7 -7 139.39 228.32
7 6 -7 89.61 372.31
7 -6 -7 699.35 528.61
-7 -6 7 203.05 234.76
-6 -7 7 42.53 280.85
-6 -7 8 -39.39 484.81
-7 6 -8 425.48 276.53
-6 7 -8 1326.7 372.36
7 -6 -8 10.07 232.68
-7 -6 8 514.49 265.41
7 -6 -8 317.03 513.61
7 6 -8 1168.06 484.92
-6 -7 -8 541.28 293.42
-6 7 -8 234.53 219.35
-6 -7 -8 1073.3 281.18
-7 -6 -8 770.73 268.2
-6 7 -8 470.55 340.29
-6 -7 8 557.24 261.26
-6 7 -8 1389.94 419.13
-7 -6 -8 439.53 312.24
6 -7 -8 862.14 252.14
6 -7 8 854.1 619.44
-7 6 -8 538.99 313.2
7 -6 8 388.72 654
-7 6 -8 1488.82 413.13
7 -6 9 1777.03 770.92
7 -6 -9 1333.13 292.34
-7 6 -9 2179.52 391.35
7 -6 -9 2228.85 721.67
-6 7 -9 1634.68 384.26
-6 -7 -9 1812.32 343.88
6 -7 -9 1829.93 680.13
-7 -6 9 2239.54 367.42
6 -7 9 1780.08 828.59
-7 -6 -9 2317.1 510.87
-6 -7 9 2134.57 374.72
-6 -7 -9 1581.95 435.25
-7 -6 -9 2208.47 359.17
6 -7 -9 1536.24 306.26
-7 6 -9 1956.04 449
-6 -7 10 1105.2 304.48
-7 -6 10 701.67 282.17
-6 7 -10 823.63 311.09
-7 6 -10 1135.54 326.51
-7 -6 -10 763.84 284.83
6 -7 -10 899.51 267.3
-6 7 10 964.94 306.38
-6 -7 -10 1129.02 310.83
7 -6 -10 711.93 253.89
6 -7 -11 724.27 266.03
-6 -7 -11 390.54 249.03
-7 -6 -11 -93.38 224.4
-6 -7 11 -126.44 220.93
-6 7 -11 420.01 257.95
7 -6 -11 211.66 215.35
-7 6 -11 108.55 247.31
-6 7 11 299.14 255.12
-7 -6 11 160.86 227.05
6 -7 -12 24.21 192.9
7 -6 -12 114.88 196.5
-6 -7 -12 226.32 231.69
6 7 -12 -170.01 198.91
-6 -7 12 40.77 211.37
-6 7 12 158.42 223.67
-6 7 -12 -33.27 217.82
-7 -6 12 195.47 216.99
-7 6 12 82.24 204.42
7 6 -12 -656.23 270.41
-7 -6 -12 286.25 232.39
-7 -6 -13 269.75 205.17
6 -7 -13 22.87 178.46
7 6 -13 272.94 204
-6 -7 -13 -29.79 195.04
-6 7 13 263.74 203.85
-7 -6 13 82 198.78
7 -6 -13 2.05 188.99
-6 -7 13 -91.28 189.3
6 7 -13 115.47 172.12
-7 6 13 -34.38 181.49
7 -6 -14 -5.36 154.71
-6 -7 -14 158.59 173.24
6 7 -14 205.44 156.37
7 6 -14 71.5 149.95
-6 7 14 55.3 165.67
-7 -6 -14 283.46 171.6
-7 6 14 46.16 156.67
6 -7 -14 0.83 145.1
7 -6 -15 0.08 112.97
-7 6 15 -4.42 121.13
-6 7 15 -27.84 122.56
-7 -6 -15 -23.7 126.44
-6 -7 -15 -2.93 119.35
-7 7 0 16294.2 806.63
7 7 0 15442.64 852.63
7 -7 0 16447.98 834.36
-7 7 -1 11057.72 681.12
-7 7 1 10857.09 681.58
7 7 -1 10788.65 746.38
7 7 1 9658.24 713.13
7 -7 1 10637.67 744.61
7 -7 2 1715.5 449.38
7 7 2 1696.39 378.6
-7 7 -2 2294.3 368.88
7 7 -2 1803.16 383.27
-7 7 2 1940.86 378.3
7 -7 3 1398.04 468.58
-7 7 -3 1610.7 340.87
-7 7 -3 1836.11 319.15
7 7 -3 940.61 333.51
-7 -7 -3 1284.45 410.44
7 -7 4 5875.96 733.7
-7 7 -4 6326 572.87
-7 7 -4 6712.64 566.26
7 7 -4 6004.49 642.45
-7 -7 -4 5880.62 609.5
7 7 5 3666.76 516.66
-7 7 -5 4380.19 515.06
7 -7 5 3381.07 696.18
-7 7 -5 4650.73 528.28
7 7 -5 3826.06 571.45
-7 -7 -5 3669.95 530.18
-7 -7 -6 12797.46 901.92
7 7 -6 13636.55 998.42
7 -7 6 12147.89 1143.27
-7 7 -6 14467.76 933.77
-7 7 -6 14518.68 916.61
7 7 -7 29234.57 1486.38
-7 -7 7 30420.88 1141.61
7 -7 7 26708.17 1727.98
-7 -7 -7 31692.21 956.23
-7 7 -7 31489.76 993
-7 7 -7 29099.98 903.7
-7 7 -7 31213.86 1359.32
-7 -7 -7 28009.61 1366.33
-7 -7 7 30052.92 1042.76
-7 7 -7 29315.24 997.1
-7 -7 -8 18763.77 1157.98
-7 7 -8 18325.62 767.04
-7 7 -8 20623.31 1162.88
-7 7 -8 18578.3 840.19
7 -7 8 18566.45 1565.83
-7 -7 -8 18154.48 783.17
7 -7 -8 17364.33 1467.03
7 7 -8 17986.21 1196.48
-7 -7 8 18723.57 874.38
-7 -7 -9 12679.77 1016.81
7 -7 9 13538.28 1454.12
7 -7 -9 13463.16 1332.89
-7 -7 -9 13150.86 711.79
-7 -7 9 13695.36 763.28
-7 7 -9 11712.57 686.7
7 -7 -9 13806.76 666.77
-7 -7 -10 823.09 296.42
-7 7 -10 824.55 292.27
-7 -7 10 907.93 292.07
-7 7 10 645.02 266.45
7 -7 -10 977.69 259.51
-7 -7 11 1194.89 308.64
-7 7 11 976.49 283.7
-7 7 -11 1164.29 275.48
-7 -7 -11 2098.63 349.02
7 -7 -11 1494.25 290.83
-7 -7 -12 2460.26 353.29
-7 7 -12 1334.99 253.37
-7 -7 12 2201.57 348.47
-7 7 12 1582.12 307.62
7 7 -12 1520.34 265.06
-7 -7 -13 1108.74 263.19
-7 7 13 994.83 241.32
7 7 -13 856.78 215.35
-7 -7 13 1136.87 254.92
-7 7 14 582.65 191.71
7 7 -14 1250.79 203.68
-7 -7 -14 712.75 197.77
-7 7 15 559.82 149.69
-7 -7 -15 7.39 152.98
8 0 0 713.85 274.51
-8 0 0 504 216.73
-8 0 0 622.08 191.35
8 0 -1 429.62 284.36
8 0 1 360.54 223.39
-8 0 -1 149.26 203.66
-8 0 1 44.64 143.21
0 -8 1 15.4 168.49
-8 0 -1 66.77 180.89
0 8 -2 5970.85 408.28
0 -8 2 6667.78 498.11
8 0 2 6343.4 440.84
-8 0 2 5895.54 369.23
8 0 -2 6282.65 564.55
-8 0 -2 6128.87 463.63
-8 0 -2 6494.34 493.34
-8 0 -3 15382.28 735.4
0 8 -3 15166.7 574.39
8 0 3 16270.47 635.87
-8 0 3 15638.84 592.68
0 -8 3 15966.05 829.66
0 8 -3 15747.64 619.01
8 0 -3 16168.23 891.72
-8 0 -3 16599.55 806.49
-8 0 -4 20605.64 889.17
0 8 -4 20120.64 683.92
-8 0 -4 20569.47 956.42
0 -8 4 19587.98 1003.54
0 8 -4 19928.64 636.78
8 0 -4 19252.3 1030.56
0 -8 -4 19289.44 696.97
0 -8 5 1081.57 405.63
8 0 5 1701.22 496.88
-8 0 -5 1307.9 352.9
8 0 -5 1110.1 380.04
-8 0 -5 1269.48 320.14
8 0 6 32.98 421.81
-8 0 -6 331.23 242.91
0 -8 6 215.46 389.92
-8 0 -6 353.37 321.67
8 0 -6 37.26 364.56
0 -8 7 -336.69 495.04
8 0 -7 -71.67 419.15
-8 0 -7 -184.83 270.01
-8 0 -7 -12.01 303.02
8 0 7 -182.86 532.14
8 0 -8 -244.77 401.53
-8 0 -8 122.35 250.48
0 -8 -8 -53.57 216.71
0 -8 8 -825.83 577.1
-8 0 -8 -24.1 217.82
-8 0 -8 -176.02 345.35
8 0 8 166.83 573.33
0 8 8 157.58 220.71
0 8 -8 -56.76 227.09
-8 0 8 256.55 221.24
0 8 -9 2271.93 366.54
-8 0 -9 1605.96 304.15
8 0 9 1999.84 730.38
0 8 9 1868.5 340.33
0 -8 9 2317.56 703.03
-8 0 -9 1549.32 412.27
-8 0 -9 1445.72 479.03
8 0 -9 1663.92 591.36
-8 0 9 1613.21 303.36
0 -8 -9 1560.49 313.63
0 8 -10 -284.17 254.44
0 -8 -10 241.9 247.69
-8 0 -10 41.04 303.23
8 0 10 -353.41 671.44
0 8 10 872.03 273.78
-8 0 -10 -119.07 309.03
-8 0 -10 184.42 223.53
8 0 -10 395.1 513.61
-8 0 10 39.46 212.73
0 -8 10 896.33 645.17
0 8 11 1453.82 314.51
0 8 -11 1166.3 299.3
-8 0 -11 1580.34 308.74
-8 0 11 1317.45 298.84
0 -8 -11 1347.64 302.12
0 -8 -12 2347.74 330.66
8 0 -12 2311.2 349.97
-8 0 -12 2282.79 324.1
0 8 12 2208.64 337.41
0 8 -13 2868.97 351.71
8 0 -13 2981.76 366.07
-8 0 -13 2549.29 303.4
0 8 13 1847.03 292
0 8 14 511.18 182.06
0 -8 -14 -1.68 173.83
-8 0 -14 1.42 144.89
8 0 -14 216.88 198.26
0 -8 -15 18.36 137.62
-8 0 15 99.73 144.94
0 8 15 244.79 126.86
8 0 -15 6.68 176.93
8 1 0 42.97 224.03
-8 1 0 97.61 164.67
-8 -1 0 -50.87 152.98
-8 1 0 87.51 166.98
8 -1 0 -110 207.81
8 1 -1 -55.75 253.06
-1 8 -1 220.45 217.64
-8 1 -1 0.34 174.2
-8 1 1 332.03 180.03
1 8 -1 58.49 201.02
8 -1 1 -193.31 203.37
-8 -1 -1 -45.87 182.99
-8 1 -1 185.61 187.35
-8 -1 1 13.11 139.67
1 -8 1 -180.44 214.23
8 1 1 42.27 217.95
-8 1 1 104.95 164.22
8 -1 -1 159.84 250.28
-8 -1 -1 -48.79 204.87
-1 -8 1 -118.48 177.99
-8 1 -2 5309.16 435.11
8 -1 2 6058.6 412.84
8 1 2 5431.67 450.06
-1 -8 2 5220.72 440.36
1 -8 2 5437.93 461.01
-8 -1 2 5495.8 338.2
8 1 -2 4924.81 531.36
-1 8 -2 5693.09 405.56
-8 1 2 5770.85 399.5
1 8 -2 5327.07 424.36
8 -1 -2 5465.66 537.48
-8 1 -2 5656.15 460.58
-8 1 2 5600.37 367.67
-8 -1 -2 5604.8 482.7
-8 -1 -2 5913.33 484.55
-1 8 -3 59.85 169.02
8 -1 -3 126.69 300.27
1 -8 3 -252.76 320.75
-1 -8 3 17.68 275.94
1 8 -3 276.02 213.77
8 1 3 142.78 215.61
-8 1 -3 195.05 234.95
-8 -1 -3 -44.25 252.59
-8 -1 3 258.28 164.33
-8 1 -3 42.95 188.42
-8 -1 -3 -37.55 216.08
8 1 -3 46.76 303.68
8 -1 3 141.83 163.75
-8 1 3 24.03 175.92
1 -8 -3 -65.81 170.79
-1 -8 4 685.04 352.48
-8 -1 -4 913.78 339.86
-8 1 -4 1140.47 303.53
-8 -1 -4 1111.22 295.21
-8 1 -4 1249.2 328.29
1 8 -4 910.06 221.32
-1 -8 -4 1069.16 257.2
8 1 -4 1229.45 386.77
-1 8 -4 763.5 194.87
1 -8 4 813.07 352.65
8 -1 -4 1243.23 419.34
-8 -1 -5 450.45 260.53
8 1 5 -424.56 415.74
8 -1 5 62.85 398.63
8 1 -5 44.85 332.32
-8 1 -5 182.09 233.16
-8 -1 -5 193.1 299.84
-8 1 -5 362.19 265.37
8 -1 -5 209.49 331.8
1 -8 5 43.19 358.64
-1 -8 -5 -175.13 173.02
-1 -8 5 -60.19 334.76
-1 8 -5 -35.79 166.65
8 -1 -6 490.46 415.14
-8 1 -6 234.06 268.04
8 -1 6 191.39 433.69
-8 1 -6 -64.72 243.52
-1 -8 6 73.84 372.21
8 1 -6 585.95 375.69
1 -8 6 165.11 399.39
8 1 6 191.81 421.13
-8 -1 -6 552.49 356.56
-8 -1 -6 -163.11 231.29
8 -1 7 456.91 521.88
-8 -1 -7 96.18 305.36
8 1 7 328.65 527.62
8 -1 -7 449.97 399.11
8 1 -7 217.43 397.33
1 -8 7 780.63 492.05
-8 1 -7 228.91 253.68
-1 -8 7 365.67 422.05
-8 1 -7 267.98 297.08
-8 -1 -7 217.84 246.65
-1 -8 -8 1344.53 286.27
8 1 8 652.14 557.46
-8 1 -8 713.56 345.66
8 -1 8 1455.75 642.23
-8 1 8 921.31 254.4
-8 1 -8 860.29 250.24
1 -8 8 684.67 508.46
-8 -1 -8 738.77 329.83
-1 -8 8 954.82 514.54
8 -1 -8 568.07 431.97
-8 -1 8 1173.39 259.52
-8 -1 -8 875.7 423.11
-1 8 8 918.99 285.81
-8 1 -8 641.46 320.71
1 8 -8 1035.9 287.3
-1 8 -8 1084.14 288.03
8 1 -8 1236.32 510.99
1 -8 -8 1360.64 277.5
1 8 8 860.8 257.09
-8 -1 -8 1351.83 281.29
-1 8 -9 68.56 230.85
-1 -8 -9 89.95 227.97
-8 1 -9 -202.65 312.93
8 1 9 -18.85 636
-8 -1 -9 -127.99 342.79
1 8 9 -128.99 224.84
-8 -1 -9 -132.18 335.32
-8 1 -9 128.13 350.42
1 -8 9 -203.82 584.87
-1 -8 9 59.56 490.17
-8 1 -9 -34.14 233.26
1 8 -9 105.06 249.07
8 -1 -9 -801.52 563.59
-1 -8 9 205.57 241.67
-8 -1 -9 167.02 224.83
8 -1 9 -329.87 630.56
8 1 -9 112.27 483.08
1 -8 -9 520.01 257.17
-1 8 9 18.77 242.39
-8 1 9 70.8 219.41
-8 -1 9 -84.86 210.75
-8 -1 -10 111.01 303.07
1 -8 -10 -176.32 240.73
1 8 -10 -332.57 278.22
1 8 10 58.94 235.78
8 -1 10 169.87 616.77
-8 1 -10 5.39 222.75
-8 -1 -10 -570.09 345.92
-1 -8 10 179.85 453.47
-8 1 -10 165.89 307.65
-8 -1 10 492.92 259.26
-1 -8 -10 -60.49 253.83
8 1 10 -347.48 602.13
-8 1 -10 626.48 360.37
-8 -1 -10 11.05 222.06
-8 1 10 11 212.51
-1 8 -10 -239.82 260.34
1 -8 10 531.01 579.14
8 1 -10 323.31 454.46
-1 -8 10 -395.65 264.71
-1 8 10 11.68 238.67
8 -1 -10 444.41 489.22
1 8 -11 24.49 224.25
1 8 11 516.77 257.22
1 -8 -11 383.84 230.74
-1 8 11 328.01 239.98
-8 -1 -11 389.89 223.91
-8 1 -11 460.17 225.53
-8 1 11 372.06 227.4
-1 -8 -11 250 224.42
-8 -1 11 383.14 240.68
1 8 12 -262.87 221.13
-1 -8 -12 116.65 215.09
-1 8 -12 -266.62 293.8
-8 1 -12 -108.01 191.77
-8 -1 12 50.53 208.53
1 -8 -12 130.64 217.56
8 -1 -12 -354.23 264.65
8 1 -12 -92.38 241.63
-8 -1 -12 321.34 223.04
-1 8 12 107 217.38
8 1 -13 -29.02 211.7
8 -1 -13 -6.43 195.42
-8 1 -13 -116.05 169.1
1 8 13 -4.97 184.06
-1 8 13 65.22 198
1 8 -13 -498.39 254.8
-1 8 -13 -311.24 233.99
-8 -1 -13 119.73 172.11
-1 -8 -13 -16.72 186.31
1 -8 -13 0.69 192.49
-1 8 14 189.05 175.16
-8 -1 -14 -61.42 157.38
-8 1 -14 39.87 147.96
8 1 -14 -117.09 187.27
1 -8 -14 -2.34 170.99
-1 -8 -14 1.14 159.54
1 8 14 52.39 166.53
8 -1 -14 76.64 182.15
1 -8 -15 2.64 134.28
-8 1 15 111.6 140.12
-1 -8 -15 14.2 136.94
-1 8 15 -23.65 119.1
8 -1 -15 10.38 144.7
8 1 -15 114.65 155.05
-8 -1 -15 11.34 116.6
-8 -1 15 -50.05 138.98
-8 -2 0 1890.29 250.18
2 8 0 2023.05 343.11
8 -2 0 2046.09 311.94
-8 2 0 1777.95 279.24
-8 2 0 2122.85 251.12
8 2 0 2146.07 361.63
-2 8 0 2004.02 325.75
-8 -2 -1 421.8 212.19
-8 2 1 561.55 204.42
2 -8 1 631.54 241.24
8 2 -1 328.42 258.33
8 2 1 670.3 272.98
-8 2 -1 789.15 198.53
-8 2 -1 489.93 207.75
2 8 -1 778.19 262.83
-8 -2 1 488.86 153.39
8 -2 -1 337.18 248.29
8 -2 1 296.22 186.01
-8 2 1 491.94 144.19
-8 -2 -1 830.44 275.1
-2 8 -1 566.65 232.82
8 -2 2 4918.01 349.97
8 2 2 4441.72 431.28
8 -2 -2 4318.31 501.67
2 8 -2 4753.78 438.52
-8 2 2 3755.38 353.97
-2 -8 2 4331.56 406.62
-8 -2 -2 4400.7 444.11
-8 -2 2 4406.17 278.98
-2 8 -2 4528.76 376
-8 2 -2 4233.4 404.28
-8 2 -2 4444.55 392.34
8 2 -2 3904.24 470.69
-8 -2 -2 4360.69 463.47
-8 2 2 4011.95 260.3
2 -8 2 4543.6 452.39
-8 2 -3 11032.43 622.05
2 8 -3 10471.07 603.26
-2 8 -3 11372.89 566.17
-2 -8 3 10633.16 682.32
8 2 3 10698.07 611.81
-8 -2 -3 11311.94 714.21
-8 2 3 11143.4 592.27
8 -2 -3 10370.15 759.64
2 -8 3 10348.28 701.76
8 2 -3 9705.27 733.28
-8 2 -3 10530.65 642.17
-8 -2 -3 10982.32 681.85
-2 -8 4 877.78 375.57
-2 -8 -4 1211.89 288.09
8 -2 4 1058.47 456.58
8 -2 -4 1168.27 394.67
-8 2 -4 1015.52 295.79
2 8 -4 660.4 226.27
-2 8 -4 1330.3 255.96
-8 -2 -4 949.1 329.26
-8 2 -4 1302.82 301.55
8 2 -4 1075.28 400.67
-8 -2 -4 1201.96 305.26
2 -8 4 1106.06 404.49
8 -2 5 1082.89 469.31
-8 -2 -5 938.29 364.17
-2 -8 -5 1199.33 273.03
2 -8 5 850.92 404.33
2 8 -5 932.75 253.21
-2 8 -5 1103.23 248.26
-8 2 -5 1161.48 329.39
-2 -8 5 1557.77 437.09
8 -2 -5 1343.49 449.33
-8 2 -5 650.21 270.03
8 2 -5 1209.32 441.03
-8 -2 -5 988.53 310.01
8 2 5 1414.12 487.9
-2 -8 -6 615.54 229.95
-8 2 -6 555.14 243.6
2 -8 6 619.96 462.58
8 -2 6 495.48 469.99
-8 -2 -6 737.59 383.98
-2 -8 6 926.35 461.04
-8 -2 -6 625.09 275.6
8 2 6 358.28 441.86
-8 2 -6 826.64 316.02
8 2 -6 573.43 400.36
8 -2 -6 823.89 460.7
-8 -2 -7 -324.27 368.15
8 -2 -7 430.29 440.12
-2 -8 7 275 423.9
2 -8 7 164.86 465.58
-8 2 -7 -253.95 274.35
-8 2 -7 -91.44 289.09
-8 -2 -7 38.29 250.5
8 2 -7 127.05 396.75
8 2 7 1206.31 578.24
8 -2 7 -76.57 498.58
-8 2 -8 -114.15 256.16
-8 -2 -8 89.79 218.43
-8 -2 -8 300.3 405.72
-8 2 -8 7.17 296.35
2 8 -8 -98.96 252.11
2 -8 -8 464.81 233.12
8 2 8 -270.81 556.94
8 2 -8 -200.04 407.33
-2 -8 8 -55.84 458.68
8 -2 8 129.11 594.46
-8 -2 8 78.95 225.9
8 -2 -8 36.8 418.88
-8 -2 -8 -178.23 277.78
-2 8 -8 -46.14 232.62
2 8 8 75.71 218.14
-2 8 8 32.24 226.63
2 -8 8 4.82 499.68
-8 2 8 -137.8 202.12
-2 -8 8 -82.61 219.19
-2 -8 -8 63.18 219.55
2 -8 9 110.08 610.91
2 -8 -9 604.39 271.74
-8 -2 -9 105.55 288.38
-8 2 -9 263.65 334.27
-2 -8 9 132.75 233.16
-8 2 -9 73.33 323.64
2 8 -9 -20.33 246.87
-2 -8 9 159.51 482.64
8 2 9 -136.88 607.8
8 -2 -9 20.95 531.23
-8 -2 9 214.26 222.67
8 -2 9 465.42 666.77
-2 -8 -9 366.28 249.03
2 8 9 338.05 258.12
-2 8 -9 367.97 256.99
-8 -2 -9 552.51 256.97
-8 -2 -9 307.12 365.86
-2 8 9 209.35 258.48
8 2 -9 95.06 449.59
-8 2 9 275.38 210.75
-8 2 -9 84.99 231.99
2 -8 -10 399.56 261.63
-8 -2 -10 253.68 245.55
8 2 10 -65.21 595.17
-8 2 -10 499.09 273.11
8 -2 10 644.91 660.31
-8 -2 -10 587.15 368.57
8 -2 -10 -70.07 467.54
-2 8 -10 150.17 239.05
-8 2 -10 46.64 272.51
2 -8 10 -370.94 598.49
-2 -8 -10 250.09 259.54
-2 -8 10 568.1 579.25
-8 -2 -10 348.94 321.47
-8 2 -10 304.67 298.3
-8 -2 10 344.47 255.25
-2 8 10 320.83 249.18
-8 2 10 743.22 268.79
2 8 10 304.4 248.46
-2 -8 10 937.79 287.32
2 8 -10 106.04 234.04
8 2 -10 161.24 418.53
2 8 11 938.24 263.14
-2 8 -11 515.22 301.39
2 8 -11 493.51 232.91
-2 -8 11 900.96 283.19
-2 8 11 930.99 288.85
-8 2 -11 1197.14 283.89
-2 -8 -11 914.36 284.63
2 -8 -11 1225.18 291.02
-8 -2 -11 810.6 248.55
8 -2 -11 377.41 221.14
-8 -2 11 831.63 278.17
2 8 12 1581.35 297.17
2 -8 -12 1291.34 277.26
8 -2 -12 1333.12 300.89
-2 8 -12 1164.57 309.91
-8 -2 -12 1326.91 271.43
-2 -8 -12 1222.84 288.24
-2 -8 12 1331.46 320.62
-8 -2 12 1208.52 296.84
-8 2 -12 1577.44 282.89
-2 8 12 1406.89 310.23
-2 8 -13 -155.05 230.37
8 -2 -13 27.11 222.59
-2 -8 -13 -169.85 202.33
2 8 -13 -346.97 251.91
2 -8 -13 -0.17 196.75
-8 -2 -13 6.45 174.97
2 8 13 2.92 183.68
-2 8 13 134.18 209.5
-8 2 -13 256.84 186.53
8 2 -13 240.85 218.85
-2 8 14 -50.91 159.12
-8 -2 -14 172.48 164.48
-2 -8 -14 2.14 171.13
8 -2 -14 4.01 179.69
2 8 -14 -27.05 197.43
2 8 14 218.98 153.89
2 -8 -14 -3.33 155.51
-8 2 14 93.52 173.5
8 2 -14 191.85 198.01
-2 8 15 80.75 125.33
-2 -8 -15 -2.14 131.7
2 -8 -15 -7.35 127.71
-8 -2 -15 -65.87 123.47
8 -2 -15 5.24 143.14
-8 2 15 -4.16 133.51
8 2 -15 185.72 156.14
-8 -2 15 -4.64 132.21
-8 3 0 -55.13 133.11
8 3 0 148.07 236.45
-8 -3 0 134.19 149.54
3 8 0 78.19 250.39
-8 3 0 -197.87 196.42
-3 8 0 235.74 237.19
8 -3 0 327.45 225.82
-8 3 1 3554.81 240.94
-8 3 -1 3839.49 333.62
3 8 -1 3862.56 430.35
8 3 1 3831.97 427.23
8 -3 1 4422.88 361.29
-3 8 -1 3931.2 375.26
-8 -3 -1 3629.96 377.42
3 -8 1 4311.16 387.54
8 3 -1 3102.39 422.3
-8 3 -1 3786.11 378.2
-8 -3 1 3609.86 263.88
-3 8 1 4772.43 460.01
8 -3 -1 3999.29 450.98
-8 3 1 4229.36 385.84
-8 -3 -2 1287.89 334.33
8 -3 -2 1340.57 363.99
-8 3 -2 1315.93 280.1
3 -8 2 1616.01 337.25
8 -3 2 1133.25 201.31
8 3 -2 1094.86 337.26
8 3 2 1141.21 315.18
-8 3 -2 1216.19 251.7
3 8 -2 943.61 280.61
-3 8 -2 1132.91 241.73
-8 3 2 977.09 255.37
-8 -3 -2 1232.85 303.24
8 3 -3 217.04 311.76
3 8 -3 -196.37 234.23
-8 3 -3 -183.71 202.2
-8 -3 -3 -133.61 258.7
3 -8 3 115.98 286.96
-3 -8 3 -15.62 276.99
-8 -3 -3 110.79 261.34
8 -3 -3 -26.68 322.07
-8 3 -3 21.36 210.32
8 3 3 -29.46 232.1
-3 8 -3 114.46 188.88
-8 3 3 131.09 210.27
3 8 -4 209.73 234.05
8 -3 4 -296.03 418.78
-3 -8 4 77.14 291.5
-3 -8 -4 23.45 223.79
-8 -3 -4 115.87 275.61
-3 8 -4 205.11 192.67
-8 3 -4 61.95 229.54
8 3 -4 -215.45 326.77
-8 3 -4 10.63 237.88
3 -8 4 300.18 369.24
8 -3 -4 25.8 343.68
-8 -3 -4 -262.63 260.94
3 8 -5 1077.11 279.72
-8 -3 -5 1687.23 442.6
-8 3 -5 1209.21 320.63
-8 3 -5 1595.35 342.17
8 -3 -5 1195.57 433.42
-3 -8 -5 1378.37 316.12
3 -8 5 1020.85 410.54
-3 -8 5 1105.06 409.22
8 3 -5 1475.48 433.69
-8 -3 -5 1060.85 330.17
8 -3 5 1532.49 520.44
-3 8 -5 1607.26 293.85
8 3 5 1321.49 488.84
-8 -3 -6 163.57 254.82
3 -8 6 490.35 442.1
8 3 6 210.48 424.46
8 -3 6 455.79 517.77
-3 8 -6 475.36 242.05
8 -3 -6 341.04 436.11
-3 -8 -6 100.11 250.37
-8 3 -6 325.88 242.01
-8 3 -6 -44.9 268.94
8 3 -6 -52.78 366.28
-8 -3 -6 495.82 391.41
3 8 -6 -163.37 241.49
-3 -8 6 -42.67 369.39
3 -8 7 291.44 488.29
8 3 7 426.74 488.73
-8 3 -7 -186.59 298.28
-3 -8 7 -199.87 390.48
-8 3 -7 -197.15 309.06
8 -3 7 557.54 507.23
-8 -3 7 -30.16 246.37
8 -3 -7 -176.36 457.66
-8 -3 -7 438.47 419.78
-8 -3 -7 159.99 274.7
-3 8 -7 -0.17 213.17
-3 8 7 75.6 208.84
8 3 -7 15.15 375.87
-3 -8 -7 -145.8 233.46
8 -3 -8 -221.38 456.66
8 3 8 370.43 548.33
8 -3 8 430.87 569.39
-8 -3 -8 -125.52 317.98
-3 8 -8 188.52 236.98
-8 3 -8 -30.61 284.66
-8 -3 -8 573.1 415.05
-8 -3 8 399.17 235.03
3 8 8 463.92 236.48
3 8 -8 206.3 244.49
-8 3 -8 307.16 301.74
-8 -3 -8 784.16 254.18
3 -8 8 -20.67 546.32
-3 -8 -8 -74.33 229.39
-3 8 8 475.88 253.4
3 -8 -8 379.77 223.79
-3 -8 8 504.11 484.14
-8 3 8 74.78 200.42
8 3 -8 -219.45 438.61
-3 -8 8 278.3 250.53
-8 -3 -9 -123.74 330.66
8 -3 -9 286.77 534.77
8 -3 9 -435.74 611.54
-3 8 -9 113.14 220.88
-8 -3 9 25.64 231.65
3 -8 9 766.76 613.29
-8 3 -9 -119.56 294.56
-3 -8 9 686.76 506.12
3 -8 -9 536.49 265.97
-8 -3 -9 -193.38 391.5
-8 3 -9 -61.8 302.21
-3 -8 -9 31.12 254.84
-3 -8 9 143.91 251.16
3 8 9 190.2 220.02
8 3 9 1126.24 728.45
-8 -3 -9 416.57 240.9
-3 8 9 -59.64 238.06
-8 3 9 389.47 243.58
8 3 -9 515.37 417.84
3 8 -9 89.87 246.32
3 -8 -10 -364.88 248.31
-8 -3 10 88.41 239.08
-3 8 -10 -528.69 356.91
-8 3 -10 27.89 285.77
-8 -3 -10 24.92 228.76
-3 8 -10 -365.81 261.06
-3 -8 -10 -182.34 246.12
3 8 10 -61.43 221.65
3 8 -10 -32.59 222.63
-3 8 10 205.42 224.93
-3 -8 10 16.02 227.71
-3 8 11 780.37 293.02
3 8 11 918.49 277.92
-3 -8 -11 1270.58 306.31
-3 8 -11 583.28 300.97
3 8 -11 789.96 247.69
-8 -3 11 730.65 267.14
-3 -8 11 1089.06 291.01
8 -3 -11 358.23 210.07
3 -8 -11 533.06 227.72
-8 -3 -11 949.6 271.54
3 -8 -12 124.95 201.72
-3 -8 -12 119.42 210.87
-8 -3 -12 -14.33 202.25
3 8 12 26.28 192.71
-3 8 -12 -235.03 253.42
-3 8 12 352.1 235.06
-8 -3 12 -7.7 207.57
-3 -8 12 -66.32 234.16
8 -3 -12 -36.78 199.81
-3 8 -13 95.98 211.82
-3 8 13 71.35 190.91
-3 -8 -13 5.06 218.91
-8 -3 -13 264.14 206.77
3 -8 -13 -5.23 174.21
8 3 -13 -147.07 227.83
3 8 13 118.78 189.44
-8 -3 13 108.74 192.93
-3 -8 13 107.23 201.69
8 -3 -13 1.07 181.71
-8 -3 -14 334.49 175.93
8 -3 -14 14.37 206.64
3 8 -14 824.76 231.2
3 -8 -14 -1.16 177.9
8 3 -14 929.13 232.59
-3 8 14 453.23 188.27
-8 3 14 568.48 205.8
-3 -8 -14 14.55 203.04
-8 3 15 19.89 129.58
-8 -3 -15 -63.09 124.08
-3 8 15 485.46 147.39
8 -3 -15 -3.9 132.39
3 -8 -15 5.2 131.72
-3 -8 -15 2.82 142.59
8 3 -15 74.82 136.15
-8 4 0 155.87 214.53
8 4 0 113.64 252.71
-8 4 0 171.23 144.42
-8 -4 0 -66.01 160.22
8 -4 0 187.36 232.29
4 8 0 123.48 245.39
-4 8 0 -160.72 230.26
-8 4 -1 1835.74 259.41
-8 -4 1 1228.72 169.28
-4 8 -1 1194.35 269.55
8 4 1 1134.74 294.65
-8 4 1 1895.41 321.78
8 -4 -1 1380.11 349.39
4 -8 1 1418.61 294.99
8 4 -1 1286.51 349.8
8 -4 1 1564.23 263.73
-8 4 -1 1989.95 326.7
-8 -4 -1 1184.35 267.97
-4 8 1 1457.22 329.44
4 8 -1 1583.45 335.36
4 8 1 1639.56 348.22
-8 -4 -2 1327.63 358.65
8 -4 -2 996.48 349.8
4 -8 2 566.71 308.87
-8 -4 -2 787.68 278.12
4 8 -2 1044.7 307.83
8 4 2 941.43 309.92
-4 8 -2 869.87 254.24
-8 4 -2 1122.91 279.47
-8 4 2 906.99 258.37
8 4 -2 1091.3 349.07
-8 4 -2 1067.22 241.13
8 -4 -3 1610.85 416.62
-8 4 -3 661.19 226.91
8 4 -3 313.37 312.44
-8 -4 -3 1239.02 352.7
4 8 -3 758.87 270.32
-8 -4 -3 767.76 316.64
8 4 3 720.61 272.08
-8 4 3 1024.99 292.14
-8 4 -3 904.92 261.06
4 -8 3 957.48 372.89
-4 8 -3 850.92 256.15
4 8 -4 942.74 280.51
-4 8 -4 847.4 257.44
8 -4 -4 892.97 435.8
8 4 -4 931.21 375.23
-4 -8 4 771.01 335.86
8 -4 4 937.37 472.53
-8 4 -4 1126.78 290.24
-8 4 -4 991.2 285.76
4 -8 4 853.11 396.22
-8 -4 -4 771.08 291.36
-4 -8 -4 880.68 311.94
-8 4 -5 366.78 262.3
8 4 5 307.48 398.99
-4 -8 -5 541.53 275.68
8 -4 -5 91.31 404.17
-8 -4 -5 432.21 264.91
4 -8 5 87.55 376.61
8 -4 5 212.48 452.32
-8 4 -5 380.45 244.56
4 8 -5 361.69 257.14
-4 -8 5 467.79 345.85
-4 8 -5 499.65 238.95
8 4 -5 334.13 350.05
-4 -8 -6 90.16 247.18
8 -4 -6 -165.04 421.67
-4 -8 6 -42.57 360.62
-8 4 -6 -166.98 287.46
-8 -4 -6 -249.99 272.95
-8 4 -6 193.29 271.82
4 -8 6 187.9 441.06
-4 8 -6 -98.58 212.66
8 4 -6 82.93 349.14
4 8 -6 -189.33 284.71
8 -4 6 -698.69 559.36
8 4 6 -288.73 417.01
-8 -4 -6 228.05 398.59
-8 -4 7 692.04 248.89
8 4 -7 810.33 447.95
-8 -4 7 577.36 245.17
-8 4 -7 1008.03 342.76
-4 8 -7 769.4 232.82
-4 -8 7 997.82 284.08
4 -8 7 1002.44 581.1
8 -4 -7 883.82 523.34
-8 -4 -7 1016.26 495.89
-4 -8 7 961.6 483.91
-8 -4 -7 922.26 350.94
-4 -8 -7 813.22 238.17
-4 -8 -7 1187.23 346.86
8 4 7 747.98 545.07
-8 4 -7 574.86 295.7
-8 -4 -7 956.87 243.89
-4 8 7 761.23 250.41
8 -4 7 376.58 523.68
8 4 -8 -137.31 413.88
4 8 8 230.44 235.27
-8 -4 8 -789.39 276.32
8 -4 8 658.09 586.45
-4 -8 -8 -3.9 239.54
-8 4 -8 148.32 278.16
-8 -4 8 658.85 272.58
-8 -4 -8 -61.87 308.38
-4 8 -8 59.87 223.64
4 8 -8 -241.02 245.25
-8 4 -8 48.47 264.99
8 -4 -8 -72.78 519.92
-8 -4 -8 730.74 462.16
-8 -4 -8 164.49 232.73
-4 -8 8 -67.41 238.96
-4 8 -8 444.3 332.93
4 -8 8 -45.77 551.15
8 4 8 -80.4 528.54
-8 4 8 -3.27 208.4
-4 -8 8 247.06 463.86
-4 8 8 -89.17 249.32
4 -8 -8 333.07 243
-8 4 -8 195.29 255.89
-4 8 -8 -614.56 386.3
8 4 -9 2450.98 561.37
8 -4 9 34.1 633.21
4 8 9 721.57 278.87
-4 8 -9 305.08 230.62
-8 -4 -9 224.81 317.19
-8 -4 -9 663.22 474.29
-8 4 -9 157.78 285.08
-4 8 -9 432.77 340.41
4 -8 -9 708.78 267.4
-4 -8 9 444.27 501.27
-8 4 -9 380.09 343.3
4 8 -9 762.85 280.94
4 -8 9 0.73 587.32
-8 -4 -9 723.41 267.58
-8 4 -9 -139.97 326.63
-4 -8 -9 446.49 268.45
8 -4 -9 381.52 511.48
-8 -4 9 639.79 264.11
-4 8 9 279.61 257.85
-4 -8 9 294.16 266.57
4 8 -10 -460.09 257.57
-4 -8 -10 49.76 245.43
-4 8 10 -216.53 254.78
4 8 10 453.49 267.1
-4 8 -10 -758.4 261.25
-8 -4 -10 -9.81 222.88
4 -8 -10 224.1 228.25
-8 -4 10 88.02 221.24
-4 -8 10 -61.98 233.07
8 -4 -10 -585.36 277.64
-4 8 -10 -122.79 331.29
-8 -4 11 276.46 229.44
4 8 11 618.56 252.17
4 -8 -11 511.11 238.67
-8 -4 -11 829.14 276.85
4 8 -11 167.93 204.76
-4 -8 -11 546.42 263.08
-4 8 11 506.61 257.49
-4 8 -11 523.09 292.41
8 -4 -11 318.49 206.72
-4 -8 11 453.41 234.41
4 8 -12 261.81 183.77
4 -8 -12 159.69 192.81
-4 -8 12 -220.12 231.31
8 -4 -12 156.13 200.08
4 8 12 56.24 206.33
-4 -8 -12 430.23 250.68
-4 8 -12 806.66 277.18
-8 -4 -12 22.38 202.75
-8 -4 12 61.71 202.49
-4 8 12 264.42 217.18
-4 8 -13 266.99 213.96
8 -4 -13 8.92 193.76
-4 8 13 -299.68 209.21
-8 -4 -13 180.15 193.41
-4 -8 -13 -8.48 191.06
4 -8 -13 -11.03 169.85
-8 4 13 -177.76 205.79
-8 -4 13 -121.17 207.03
-4 -8 13 -248.18 208.43
8 4 -13 -126.91 226.9
4 8 -14 -433.99 206.02
-8 4 14 -0.45 161.34
4 -8 -14 2.93 164.75
-8 -4 -14 109.37 165.99
-4 8 14 92.5 158.64
-4 -8 -14 -1.84 164.79
8 -4 -14 3.23 184.18
8 4 -14 -21.45 164.18
-4 -8 -15 -10.57 126.56
4 -8 -15 15.06 124.74
8 -4 -15 -2.57 119.62
-8 4 15 17.54 121.44
-8 -4 -15 24.1 122.84
-4 8 15 -100.26 123.47
8 4 -15 222.4 148.24
-8 -5 0 -112.26 157.37
5 8 0 8.99 256.52
-5 8 0 15.05 224.7
8 -5 0 -102.13 224.67
-8 5 0 292.01 229.39
8 5 0 137.07 278
8 5 -1 4975.96 535.2
-8 5 -1 4878.47 364.13
8 5 1 4781.55 502.31
5 8 1 5280.88 524.77
-8 -5 -1 4423.38 414.29
-8 5 -1 4813.99 465.97
5 -8 1 4948.27 450.03
-8 5 1 4854.54 451.44
5 8 -1 4650.15 485.81
-5 8 1 5038.27 475.47
8 -5 1 4835.51 379.66
-5 8 -1 4920.22 458.41
8 -5 -1 4988.63 521.48
-5 8 -2 1326.95 298.55
8 5 2 740.09 294.08
8 -5 -2 1277.92 368.58
5 8 -2 775.67 318.39
8 5 -2 1123.7 346.69
-8 5 -2 977.04 276.72
-8 5 -2 946.88 236.39
5 -8 2 942.83 322.67
-8 5 2 1168.04 308.1
8 -5 -3 217.3 342.35
5 8 -3 215.07 247.94
8 5 3 353.34 276.85
-8 -5 -3 630.87 346.81
-8 5 -3 218.81 242.99
-8 5 -3 299.25 213.71
5 -8 3 441.13 341.79
8 5 -3 364.04 307.58
-5 8 -3 459.99 243.35
8 -5 3 359.35 407.95
-8 5 3 510.54 283.27
-5 8 -4 202.81 253.88
8 -5 -4 175.25 387.72
-8 5 -4 37.14 232.91
5 -8 4 -339.24 407.57
8 5 -4 -23.54 320.53
-5 -8 -4 92.16 273.82
-8 -5 -4 -42.43 270.71
5 8 -4 -1.22 265.54
-8 5 -4 58.61 225.36
8 -5 4 -0.89 414.74
8 -5 5 -174.39 465.5
8 5 5 200.37 373.05
8 5 -5 -41.85 362.51
-5 -8 -5 -84.12 271.12
-8 5 -5 -54.7 248.95
-5 -8 5 -288.6 422.83
5 -8 5 110.02 414.45
8 -5 -5 -183.76 480.05
-8 5 -5 131.4 225.67
-5 8 -5 23.89 226.34
5 8 -5 49.3 277.68
-8 -5 -5 296.16 268.11
8 5 6 565.59 489.33
8 5 -6 467.61 396.17
5 -8 6 113.29 466.82
-8 5 -6 675.81 308.33
-5 8 -6 693.65 307.2
-5 -8 6 109.21 388.4
8 -5 6 250.97 524.72
-8 5 -6 301.53 291.98
5 8 -6 343.79 294.68
-5 -8 -6 181.18 262.81
8 -5 -6 581.51 517.92
8 5 7 -30.35 473.58
-5 -8 -7 756.2 329.89
-5 -8 7 -177.5 450.75
8 5 -7 -328.35 393.65
-8 -5 -7 -5.62 295.96
-5 8 -7 750.19 331.03
8 -5 7 232.95 577.87
5 -8 7 475.01 597.78
8 -5 -7 -69.94 491.87
-5 8 -7 -176.74 349.14
-8 -5 -7 349.44 449.35
-8 5 -7 130.6 256.62
-8 5 -7 63.98 277.12
-8 -5 7 -211.86 258.33
-8 5 -7 3.7 287.58
-8 -5 -7 330.24 239.7
-5 8 -7 144.11 223.12
-5 -8 -7 -140.34 215.81
-5 8 -7 23.19 259.36
5 8 7 306.52 242.17
-5 8 7 248.55 245.79
-8 -5 7 276.31 243.96
-5 -8 7 12.08 231.4
8 -5 8 -598.33 648.79
-8 -5 8 -304.95 295.15
-5 8 8 136.97 253.62
8 5 -8 -557.82 433.09
5 8 -8 -242.19 253.13
-5 -8 -8 12.22 240.74
5 -8 8 100.98 577.6
-5 -8 -8 -356.65 313.03
-5 -8 8 -202.92 480.89
-8 -5 -8 222.3 219.98
-8 -5 -8 690.78 357.92
-5 8 -8 -24.73 220.29
-8 5 -8 569.83 295.93
-5 8 -8 766.2 337.83
-8 -5 8 276.94 237.74
8 -5 -8 102.3 475.7
-8 -5 -8 324.27 479.5
-5 8 -8 -443.3 367.64
-8 5 -8 178.87 310.08
5 8 8 202.88 259.89
-8 5 -8 -437.22 350.77
-5 -8 8 188.77 243.57
8 -5 -9 778.39 563.96
-5 -8 9 1109.06 322.87
8 5 -9 377.26 403.18
-8 -5 -9 986.96 369.1
5 8 -9 515.18 258.82
-5 8 -9 266.31 328.1
-5 -8 9 254.6 450.53
8 -5 9 1624.49 762.63
-8 -5 -9 772.36 289.85
-8 -5 9 859.45 277.18
5 -8 9 1243.88 821.7
-8 5 -9 545.39 409.15
-8 5 -9 961.66 445.14
5 -8 -9 565.84 256.55
-5 -8 -9 759.87 273.16
5 8 9 1142.81 309.91
-5 8 9 316.49 258.9
-8 5 -9 1002.93 304.45
-5 8 -9 288.34 238.08
-8 -5 -9 524.01 470.53
5 -8 -10 1087.45 289.47
-8 5 -10 302.94 240.81
8 -5 -10 628.79 234.53
-5 -8 -10 1410.59 322.35
5 8 -10 809.83 237.98
-8 -5 -10 925.95 285.84
-5 8 -10 649.77 310.47
-5 8 10 742.78 278.04
-8 -5 10 811.14 281.81
5 8 10 1250.24 311.8
-5 -8 10 746.88 303.49
-5 8 -11 -390.28 265.71
8 -5 -11 77.09 189.54
5 -8 -11 48.4 220.58
-5 -8 -11 214.68 241.08
-8 -5 -11 177.55 216.22
-8 -5 11 147.42 215.66
5 8 11 241.24 225.65
-5 8 11 -135.87 231.93
-5 -8 11 -42.73 216.82
-5 8 -12 171.23 241.45
-5 -8 -12 25.07 213.91
5 8 -12 -93.64 176.95
-5 -8 12 7.2 213.41
-8 -5 -12 -102.48 203.49
8 -5 -12 180.94 196.22
-5 8 12 -74.84 207.49
-8 5 12 -289.33 225.7
-8 -5 12 -140.54 210.74
5 -8 -12 -123.02 197.41
5 -8 -13 -9.8 170.78
-5 8 -13 66.79 185.93
-8 5 13 326.6 198.5
-5 -8 13 174.3 233.59
-8 -5 -13 224.55 204.49
8 5 -13 -42.95 189.32
5 8 -13 245.85 175.52
8 -5 -13 6.8 205.69
-5 8 13 130.44 183.79
-8 -5 13 153.16 189.92
-5 -8 -13 130.71 189.31
-5 8 14 147 162.97
-8 -5 -14 27.39 158.51
-8 5 14 117.04 159.6
8 5 -14 -10.96 149.58
5 8 -14 -2.97 196.09
-5 -8 -14 -4.97 159.61
8 -5 -14 1.22 148.92
5 -8 -14 2.49 139
8 5 -15 269.66 131.37
-8 -5 -15 144.76 126.61
-5 8 15 54.44 124.98
8 -5 -15 -2.8 122.63
-5 -8 -15 3.67 118.94
-8 5 15 -62.11 120.92
6 8 0 1764.08 399.63
8 -6 0 1552.86 358.39
8 6 0 1285.72 343.7
-8 -6 0 1418.55 233.13
-8 6 0 1692.36 354.49
-6 8 0 1511.47 337.93
8 6 -1 -190.2 301.7
6 -8 1 -4.29 262.78
8 -6 -1 341.08 329.64
-8 6 -1 20.9 224.37
-8 -6 -1 307.92 233
8 6 1 199.45 283.53
-8 6 -1 45.69 148.35
6 8 -1 214.02 269.03
-6 8 -1 -290.18 259.22
-8 6 1 -128.74 253.83
-6 8 1 157.53 240.47
6 8 1 -54.91 259.36
6 -8 2 192.16 299.13
8 -6 2 313.48 398.01
-8 6 -2 31.58 170.25
8 -6 -2 69.03 334.52
6 8 2 90.45 272.48
6 8 -2 25.34 270.05
-6 8 2 431.86 297.43
8 6 2 51.65 259.07
-8 6 -2 21.83 237.25
-6 8 -2 236.41 239.8
-8 6 2 -13.68 241.3
8 6 -2 124.29 290.31
-6 8 -3 2414.08 379.92
-8 -6 -3 2847.54 482.03
6 -8 3 2244.3 471.11
6 8 -3 1906.44 395.53
8 -6 3 2608.87 573.08
8 6 -3 2018.46 419.28
-8 6 3 2435.89 414.72
-8 6 -3 2399.73 395.53
8 6 3 2631.29 431.37
-8 6 -3 2315.12 335.25
8 -6 -3 1850.48 529.2
-6 8 -4 202.03 243.31
6 -8 4 7.3 383.15
8 -6 4 138.95 439.96
-6 -8 -4 -43.49 276.39
-8 -6 -4 -40.77 302.96
-8 6 -4 -223.5 277.08
8 6 -4 109.63 318.97
-8 6 -4 -136.09 240.55
8 -6 -4 -32.03 425.86
6 8 -4 -168.42 331.03
8 6 -5 916.26 394.94
-6 -8 -5 1175.27 386.55
-8 6 -5 875.01 294.93
8 6 5 705.46 399.2
-8 -6 -5 1267.13 378.69
8 -6 5 574.08 497.46
6 -8 5 1257.84 508.2
-8 6 -5 790.5 315.03
6 8 -5 1188.33 377.72
-6 8 -5 1311.69 339.83
8 -6 -5 946.93 545.36
-6 -8 6 586.29 270.2
6 -8 6 269.44 518.24
8 -6 6 419.51 563.88
-8 6 -6 485.87 271.03
8 6 -6 490.15 422.58
8 -6 -6 92.41 504.72
8 6 6 406.41 419.74
-6 -8 -6 118.65 262.36
-8 -6 -6 153.42 272.24
-8 6 -6 472.86 301.16
6 8 -6 83.27 315.28
-8 -6 -6 363.85 221.89
-8 6 -6 126.5 269.41
-6 8 -6 633 313.38
-6 8 -6 309.74 297.83
-8 -6 6 30.15 213.72
-8 -6 7 -111.33 260.4
8 6 -7 782.26 454.05
-6 -8 -7 466.91 309
8 -6 7 244.04 606.97
6 -8 7 -148.36 584.49
-6 -8 -7 474.59 254.44
8 -6 -7 196.19 559.08
-8 6 -7 -4.12 277.16
-6 -8 7 -373.15 302.59
-6 8 -7 136.67 303.21
-8 -6 -7 -48.92 260.61
6 8 7 269.15 250.47
-6 8 -7 132.92 221.87
-8 6 -7 645.74 313.93
-8 -6 -7 229.73 223.22
-8 6 -7 -346.61 347.12
6 8 -7 462.63 359.08
-6 8 -7 -172.88 332.36
-6 8 -7 53.61 260.47
-8 6 -7 213.52 312.32
-6 8 7 336.82 265.03
-6 -8 7 -101.71 232.73
-8 -6 7 46.85 229.34
-6 8 -8 -42.68 303.77
8 -6 8 -40.02 624.53
-6 8 -8 -62.58 232.09
6 -8 8 328.43 588.7
8 6 -8 138.28 384.8
-8 -6 8 -460.19 323.7
-6 -8 -8 -341.55 337.34
-8 -6 -8 763.99 515.15
8 -6 -8 -236.82 566.05
-6 8 8 350.46 261.81
-8 6 -8 440.57 353.17
-8 6 -8 892.78 324.27
-8 -6 -8 307.78 322.23
-6 -8 -8 487.43 262.32
6 8 8 194.3 254.82
-8 6 -8 -49.67 333.64
-8 -6 -8 282.84 251.52
-6 8 -8 1057.77 367.29
-8 -6 8 191.16 246.55
-6 -8 8 204.66 257.95
8 -6 -9 333.74 546.39
8 -6 9 722.77 672.16
-6 8 9 719.24 289.97
-6 8 -9 421.29 327.69
-8 6 -9 251.65 312.38
-8 -6 -9 1281.62 517.44
6 8 9 471.67 275.17
-8 -6 -9 974.3 375.5
6 -8 9 888.27 679.91
-6 -8 9 594.69 288.7
6 -8 -9 -748.19 584.56
-8 6 -9 569.26 301.12
-6 8 -9 76.78 240.01
-6 -8 -9 1076.74 311.63
-8 -6 -9 555.95 276.1
8 -6 -9 279.86 217.66
-8 -6 9 636.66 275.33
-6 -8 -10 3176.71 409.64
-8 6 -10 2123.08 346.4
6 -8 -10 3602.96 391.56
-6 -8 10 2833.83 400.43
-8 -6 -10 3353.59 407.54
-6 8 -10 3098.52 440.57
-6 8 10 2951.47 402.96
-8 -6 10 2756.77 397.26
8 -6 -10 2344.29 336.17
-8 -6 -11 156.07 260.93
-8 6 -11 171.45 231.87
-6 8 -11 345.53 258.67
-8 -6 11 283.45 227.94
-6 -8 11 318.63 224.39
8 -6 -11 320.27 201.43
-6 -8 -11 315.01 252
6 -8 -11 443.42 226.2
-6 8 11 86.43 213.59
-8 6 11 414.13 226.5
-8 -6 -12 261.86 225.32
-8 6 12 6.19 193.54
-6 -8 -12 232.24 231.84
8 -6 -12 1.75 181.35
6 -8 -12 5.35 193.03
-6 8 -12 -256.81 222.41
-6 8 12 198.38 212.95
-8 -6 12 114.4 206.06
-6 -8 12 -107.9 206.16
6 8 -12 -94.51 177.15
6 -8 -13 13.02 176.51
-6 8 13 74.5 174.95
-8 -6 13 -41.02 179.65
6 8 -13 160.96 170.27
-6 -8 -13 -201.25 198.33
-8 -6 -13 -60.73 183.84
-8 6 13 11.25 180.74
8 6 -13 -14.37 178.93
-6 -8 13 -4.83 203.98
8 -6 -13 13.49 173.07
8 -6 -14 -2.06 137.04
8 6 -14 206.02 155.55
-6 -8 -14 9.62 151.88
-8 -6 -14 -101.18 155.14
6 -8 -14 -5.15 133.39
-6 8 14 -24.11 152.17
-8 6 14 67.59 157.13
6 8 -14 -417.34 210.31
-6 8 15 278.74 125.89
-6 -8 -15 0.42 114.79
-8 -6 -15 -5.76 111.94
-8 6 15 151.73 118.62
8 -7 0 379.04 341.85
-7 8 0 -48 242.31
-8 7 0 -54.79 272.66
7 8 0 250.29 297.24
8 7 0 40.78 270.75
7 -8 1 677.43 348.26
8 -7 -1 44.58 308.68
8 -7 1 -321.35 339.14
8 7 -1 40.41 291.21
-7 8 1 246.24 290.9
8 7 1 102.46 286.96
7 8 1 -32.46 272.89
-7 8 -1 -111.73 256.09
-8 7 -1 243.07 246.97
-8 7 1 50.54 238.19
7 8 -1 87.06 274.61
8 7 2 114.49 263.74
7 -8 2 -76.4 329.25
-8 7 -2 279.42 275.28
7 8 -2 20.72 282.34
-7 8 2 446.32 311.29
8 -7 2 64.88 392.11
7 8 2 145.97 283.84
-8 7 2 240.49 265.23
8 -7 -2 -28.56 372.75
8 7 -2 153.77 301.14
-7 8 -2 131.54 254.26
7 -8 3 291.25 420.29
-8 -7 -3 237.48 291.28
8 -7 3 364.1 437.46
8 7 3 278.65 304.2
-8 7 3 945.44 357.11
-7 -8 -3 480.82 336.17
-8 7 -3 435.56 222.49
8 7 -3 229.38 304.79
-7 8 -3 831.26 313.47
7 8 -3 210.28 313.99
-8 7 -3 169.37 247.89
8 7 -4 -512.96 376.09
-8 -7 -4 300.52 299.89
8 -7 4 93.21 480.84
7 -8 4 25.62 410.48
-7 8 -4 -125.63 257.08
-8 7 -4 129.22 209.22
-8 7 -4 -213.75 293.97
-7 -8 -4 91.88 311.48
7 8 -4 141.21 303.24
-8 7 -5 752.09 294.09
-8 -7 -5 1202.05 377.71
7 -8 5 856.69 540.1
8 7 -5 1247.57 451.19
-8 7 -5 1353.44 413.64
8 7 5 543.99 385.8
8 -7 5 286.85 514.07
-7 8 -5 636.82 301.84
7 8 -5 503.26 343.31
-7 -8 -5 809.07 355.51
-7 -8 6 19.17 296
-8 7 -6 416.59 329.03
-7 8 -6 263.33 209.19
-8 7 -6 349.32 292.43
-8 7 -6 1065.88 343
-7 8 -6 953.2 342.02
8 7 -6 94.11 375.36
8 -7 6 1372.58 674.76
7 -8 6 495.96 521.49
-8 7 -6 818.79 325.58
-8 -7 -6 -15.7 318.35
-7 -8 -6 -117.23 286.08
-8 -7 -6 323.41 228.84
-7 8 -6 233.56 299.79
8 -7 -6 -386.99 530.43
-7 -8 6 303.94 245.16
-8 -7 6 237.42 267.12
7 8 -6 -94.92 342.93
-7 -8 -6 609.89 246.15
-7 8 -6 497.11 332.66
-7 8 6 -27.96 229.4
-8 -7 6 401.85 241.83
-7 -8 -7 -173.91 339.61
-8 7 -7 673.69 330.48
-7 8 -7 305.22 326.99
8 -7 -7 267.93 523.25
7 -8 7 313.79 579.63
-8 7 -7 404.95 318.29
-7 8 -7 401.51 337.27
8 -7 7 -165.74 620.03
-8 -7 7 -270.72 297.55
-7 8 -7 7.91 208.03
8 7 -7 18.36 411.97
-8 -7 -7 527.54 256.02
-7 -8 -7 -65.67 220.32
-8 7 -7 216.46 314.3
7 8 -7 -312.06 403.98
-7 8 -7 -46.71 279.93
-7 8 7 82.02 240.15
-7 -8 7 -18.04 245.95
-8 -7 -7 -36.9 310.88
-8 7 -7 -133.86 239.85
-8 -7 7 -341 249.3
-7 -8 7 -268.74 311.1
-8 7 -8 837.23 368.7
7 -8 8 1272.25 787.24
-7 8 -8 1336.36 388.22
-7 8 -8 163.97 227.91
-7 -8 -8 686.55 273.05
8 -7 8 692.51 720.42
8 -7 -8 512.97 649.99
-8 -7 -8 104.41 316.82
8 7 -8 402.27 453.91
-7 8 -8 616.46 350.1
-7 -8 -8 570.89 366.96
-7 8 -8 449.97 363.72
-8 -7 8 316.32 276.78
-8 -7 -8 681.97 283.94
-8 7 -8 555.83 390.21
7 -8 -8 681.35 594.04
-7 8 8 254.68 254.45
-7 -8 8 485.49 284.81
-7 -8 -9 2203.82 364.91
-7 8 9 1473.62 331.61
8 -7 -9 1395.68 284.92
-8 -7 -9 1601.74 337.3
-7 -8 9 1507.86 349.08
-8 7 -9 1433.01 362.61
-7 8 -9 1874.4 393.33
-8 -7 9 1851.35 361.99
-7 8 -10 629.29 288.78
-8 -7 -10 405.52 244.43
-8 -7 10 183.43 227.93
-7 -8 -10 423.12 262.31
-8 7 -10 309.15 232.56
-7 8 10 437.81 247.48
-8 7 10 599.45 263.04
8 -7 -10 297.85 212.89
-7 -8 10 636.21 277.45
7 -8 -10 488.63 242.23
7 -8 -11 -129.14 197.82
-8 -7 11 -99 227.24
-8 7 -11 -227.2 246.08
-8 -7 -11 181.5 235.95
-7 -8 -11 -66.93 228.61
-7 8 11 116.12 207.74
-8 7 11 71.1 217.94
-7 8 -11 296.71 235.79
8 -7 -11 149.31 196.12
-7 -8 11 -29.32 219.4
-7 8 -12 1.96 218.38
-7 -8 -12 40.39 203.99
7 -8 -12 2.78 198.6
7 8 -12 -20.9 168.8
-8 -7 12 -27.33 206.17
8 7 -12 -664.59 235.54
-7 8 12 64.26 201.31
-8 7 12 226.85 214.93
8 -7 -12 6.1 208.56
-8 -7 -12 63.26 212.37
-7 -8 12 231.01 214.8
8 -7 -13 7.14 171.11
7 -8 -13 31.6 158.13
-7 -8 13 31.13 171.24
-8 7 13 110.99 175.92
-8 -7 -13 14.03 180.34
-7 -8 -13 31.11 178.25
-7 8 13 204.01 182.2
-8 -7 13 38.18 176.91
7 8 -13 35.72 156.87
8 7 -13 -91.67 160.32
-7 8 14 271.03 164.69
8 -7 -14 -5.83 126.78
-8 -7 -14 118.28 147.27
-7 -8 -14 -7.53 152.34
-8 7 14 74.02 140.05
8 7 -14 59.33 130.67
8 8 0 23145.59 1144.15
-8 8 0 24769.27 1090.96
8 -8 1 9764.28 782.14
8 -8 -1 10433.78 853.57
8 8 -1 10343.62 789.88
8 8 1 10507.19 785.65
-8 8 -1 10312.12 726.09
-8 8 1 10646.95 747.49
-8 8 -2 3795.11 491.43
8 8 -2 3585.57 539.31
8 -8 2 3799.4 595.95
-8 8 2 3795.07 510.27
8 8 2 3647.15 512.24
-8 -8 -3 2229.05 468.93
8 -8 3 2214.66 540.7
-8 8 -3 2411.81 440.75
8 8 -3 1626.91 421.93
8 -8 4 123.71 497.66
-8 -8 -4 129.44 307.66
-8 8 -4 202.47 276.51
8 8 -4 30.31 332.49
-8 -8 5 35.33 206.29
-8 8 -5 200.52 282.59
-8 -8 -5 -317.13 352.8
-8 8 -5 240.69 293.93
-8 -8 -5 253.64 221.5
-8 8 -5 -63.96 287.16
8 -8 5 150.49 544.11
8 8 -5 -82.63 350.08
-8 -8 6 406.35 284.94
-8 8 -6 1243.39 345.61
8 -8 6 64.17 606.34
-8 -8 -6 819.18 379.5
-8 8 -6 434.21 210.97
-8 8 -6 483.61 359.03
-8 -8 -6 594.06 259.29
8 8 -6 990.65 446.04
-8 8 6 379.16 237.47
-8 8 -6 710.58 331.87
-8 -8 6 558.57 265.41
-8 8 -7 -206.52 235.79
-8 8 -7 1045.88 345.81
8 -8 -7 285.54 490.05
8 -8 7 -566.63 679.23
-8 -8 -7 315.6 243.7
-8 -8 -7 -254.66 331.41
-8 8 -7 507.71 358.71
8 8 -7 916.96 431.07
-8 8 -7 146.19 325.65
-8 8 7 -34.26 253.75
-8 -8 7 185.73 254.75
-8 -8 7 -104.71 297.58
-8 -8 -8 1064.22 301.13
8 -8 -8 1242.42 535.1
-8 -8 -8 1393.65 433.89
8 -8 8 730.83 782.53
-8 8 8 877.01 300.79
-8 8 -8 595.58 380.86
-8 8 -8 973.28 347.57
-8 -8 8 733.53 277.8
-8 8 -9 4879.17 484.99
-8 -8 -9 4761.05 464.68
-8 8 9 4750.91 475.46
-8 -8 9 5343.3 508.55
-8 8 -10 -429.69 271.56
-8 -8 -10 329.75 242.47
-8 8 10 225.5 235.12
-8 -8 10 -8.24 225.39
-8 8 -11 -284.2 257.49
-8 -8 11 -10.64 210.97
-8 -8 -11 467.81 249.34
-8 8 11 353.94 232.33
8 -8 -12 -3.76 192.55
-8 -8 -12 -123.26 211.65
-8 8 -12 -274.02 216.84
-8 8 12 248.01 197.91
-8 -8 12 17.95 193.99
8 8 -12 -238.84 195.98
-8 -8 -13 201.03 187.71
-8 8 13 156.03 178.67
-8 -8 13 152.35 172.61
8 8 -13 -21.52 139.14
-8 -8 -14 -3.69 152
-8 8 14 -20.56 133.96
-9 0 0 55.37 181.42
9 0 0 34.45 237.14
-9 0 0 153.32 200.44
-9 0 1 1902.64 293.03
-9 0 -1 2106.43 321.3
0 -9 1 1591.77 224.36
9 0 1 1844.5 314.18
-9 0 1 1788.43 258.23
9 0 -1 2047.26 391.53
-9 0 -1 1842.17 300.75
9 0 -2 34774.88 1282.01
9 0 2 35689.1 1059.3
-9 0 2 35005.22 920.56
0 -9 2 35270.68 1055.55
-9 0 -2 36882.05 1146.22
-9 0 -2 35721.41 1119.95
-9 0 -3 45390.95 1314.22
0 -9 3 45035.93 1377.04
9 0 -3 42290.88 1482.76
9 0 3 45213.44 1131.24
-9 0 3 42858.38 1013.42
0 9 -3 45269.37 1067.25
-9 0 -3 45899.02 1366.06
-9 0 -4 24089.91 1086.83
-9 0 -4 21663.14 987.08
0 -9 4 21487.8 1089.43
9 0 -4 22062.68 1148.43
9 0 5 1007.2 509.79
-9 0 -5 1107.3 355.54
0 -9 5 475.88 357.99
-9 0 -5 1078.74 308.78
9 0 -5 725.91 416.33
9 0 -6 1283.53 493.53
-9 0 -6 958.9 325
-9 0 -6 759.23 378.7
0 -9 6 866.81 448.63
9 0 6 791.93 560.16
-9 0 -7 3110.03 558.7
-9 0 -7 2964.48 492.41
9 0 -7 2835.75 599.96
-9 0 7 2600.9 307.71
0 9 -7 3265.86 373.56
0 -9 7 2462.1 609.72
0 9 7 2902.76 357.19
-9 0 7 2425.14 318.46
9 0 7 3381.42 781.59
-9 0 -8 1401 398.86
9 0 8 1264.66 681.71
0 9 8 1453.58 314.66
9 0 -8 1423.36 520.82
0 -9 8 2649.61 682.01
-9 0 -8 1835.03 331.45
0 9 -8 1661.06 332.54
-9 0 8 1678.22 312.47
-9 0 -8 1774.44 501.55
0 -9 -9 793.87 270.5
0 -9 9 1449.21 603.43
-9 0 -9 299.47 360.01
0 9 9 472.29 268.72
-9 0 -9 532.54 280.79
-9 0 -9 209.39 314.61
0 9 -9 470.21 275.82
9 0 9 247.11 665.26
9 0 -9 828.19 538.43
-9 0 9 875.06 261.93
0 9 10 779.61 253.83
0 -9 -10 1451.86 316.41
-9 0 -10 1153.13 284.25
-9 0 10 1142.85 279.11
0 9 -10 1039.55 293.68
-9 0 -11 2728.07 351.13
0 9 -11 2711.37 378.89
0 9 11 2487.12 377.15
-9 0 11 2877.24 379.36
0 -9 -11 2911.28 374.73
-9 0 -12 797.8 243.71
0 -9 -12 1132.86 270.52
0 9 -12 386.72 262.62
0 9 12 952.12 265.17
9 0 -12 950.13 267.07
0 -9 -13 21.38 213.19
-9 0 -13 215.58 193.12
0 9 -13 355.64 240.8
9 0 -13 378.54 219
0 9 13 580.15 228.43
0 9 -14 124.34 177.23
-9 0 -14 157.4 148.9
0 -9 -14 -11.53 166.61
9 0 -14 135.25 180.51
0 9 14 -240.65 154.25
0 -9 -15 0.5 121.87
9 0 -15 -11.84 141.33
-9 0 15 -70.44 128.47
-9 1 0 5175.81 394.19
-9 -1 0 4785.48 443.82
-9 -1 0 4772.15 376.6
9 -1 0 5034.38 470.68
9 1 0 5038.97 488.26
-9 1 0 4630.92 392.3
-9 1 1 947.54 227.46
9 1 -1 1231.43 350.97
-9 -1 -1 1147.9 291.08
-9 1 1 997.94 216.19
-9 1 -1 961.08 267.41
9 -1 1 760.25 227.83
9 1 1 990.28 289.83
-9 -1 -1 1042.78 260.22
-9 1 -1 843.88 234.84
-9 -1 1 953.63 199.27
9 -1 -1 931.34 324.6
-9 -1 2 978.86 204.04
-9 -1 -2 763.86 278.84
-9 1 -2 991.96 258.39
9 1 -2 758.15 347.21
-9 1 2 701.84 200.06
1 -9 2 788.18 277.87
9 1 2 993.06 294.08
-9 1 -2 898.26 277.25
9 -1 -2 878.91 348.45
1 9 -2 785.85 258.93
-9 1 2 1083.87 245.72
9 -1 2 933.85 258.67
-1 -9 2 594.24 248.46
-9 -1 -2 802.79 277.61
-1 9 -2 989.33 260.3
-9 1 -3 2807.13 397.29
9 1 3 2502.53 351.44
1 9 -3 2628.12 348.31
-9 -1 -3 2302.2 375.38
-9 1 3 2077.03 293.2
1 -9 3 2463.83 439.64
-9 1 -3 2517.41 388.64
9 1 -3 2254.61 471.19
-1 -9 3 2255.79 393.93
-9 -1 -3 2724.13 420.12
9 -1 -3 2201.76 472.84
-1 9 -3 2860.02 329.61
-9 1 -4 1396.87 322.44
1 9 -4 1067.84 271.09
-1 -9 -4 1217.4 293.96
9 1 -4 1024.97 415.39
1 -9 4 570.05 382.92
-9 -1 -4 1437.57 336.49
9 -1 -4 1293.2 449.97
-9 1 -4 1184.37 331.04
-9 -1 -4 1234.68 346.95
-1 -9 4 1377.32 392.87
-1 9 -4 1165.73 240.4
9 1 5 1256.53 494.25
9 1 -5 1354.87 447.94
-1 -9 5 1054.35 431.16
-9 -1 -5 1371.68 347.55
-9 1 -5 1273.5 317.33
9 -1 -5 832.07 393.24
-9 -1 -5 869.6 340.44
9 -1 5 520.61 456.26
-9 1 -5 1125.12 352.47
1 -9 5 483.66 395.58
-9 -1 -6 363.39 340.02
-1 -9 6 976.41 482.91
9 1 -6 780.79 456.09
9 -1 -6 408.02 415.11
-9 1 -6 641.93 312.8
1 -9 6 578.06 417.48
9 1 6 133.01 480.31
-9 -1 -6 305.64 268.14
9 -1 6 1015.78 557.84
-9 1 -6 573.92 292.51
9 1 7 506.73 511.52
9 1 -7 692.06 473.94
-1 9 -7 39.93 220.98
-9 -1 -7 155.38 341.37
1 9 -7 314.91 241.44
-1 -9 7 758.5 474.31
-9 1 -7 223.96 283.75
1 9 7 209.66 211.09
1 -9 7 -628.44 558.71
-9 -1 -7 100.65 251.22
-9 -1 -7 154.76 242.16
-9 1 7 -442.72 237.19
-9 1 -7 71.25 292.72
9 -1 7 181.56 606.56
9 -1 -7 -70.67 435.26
-9 1 7 107.65 205.34
-9 -1 7 263.19 196.88
-9 -1 7 14.71 195.97
-1 9 7 120.44 205.65
9 -1 -8 -203.03 474.03
9 1 -8 504.98 459.25
-9 -1 -8 163.62 236.13
9 -1 8 237.01 607.62
-1 -9 8 -60.37 506.44
-9 -1 -8 -116 350.83
-1 9 -8 302.68 222.4
-9 1 -8 699.12 359.42
-9 -1 -8 355.26 302.05
-9 1 -8 111.33 269.27
1 9 -8 190.73 245.9
-9 1 -8 409.08 231.36
-1 -9 -8 728.1 273.87
1 -9 -8 327.63 233.84
1 9 8 588.73 247.03
-1 9 8 319.5 241.13
9 1 8 -263.97 594.09
-9 1 8 269.83 225.9
-9 -1 8 333.73 226.91
1 -9 8 170.89 516.05
1 9 -9 779.85 302.46
9 1 9 965.16 727.68
1 -9 9 1234.96 651.53
9 -1 9 -199 690.61
-1 -9 -9 569.12 273.81
-1 -9 9 885.38 578.81
-1 9 -9 1133.82 325.11
-9 -1 9 534.27 255.73
-9 1 -9 552.64 366.53
-9 1 9 1093.17 285.51
-9 -1 -9 1473.83 476.64
-9 1 -9 640.39 289.93
9 -1 -9 1165.5 571.87
-9 -1 -9 834.36 359.82
1 -9 -9 805.23 285.57
1 9 9 523.56 255.94
-1 9 9 355.44 259.7
9 1 -9 1210.77 503.66
-9 -1 -9 681.34 293.09
-9 1 -9 977.82 398.44
-1 -9 -10 252.12 246.58
-1 9 -10 -134.45 250.76
-9 -1 -10 373.33 247.15
-9 1 -10 288.2 255.19
1 9 -10 112.16 240.33
1 -9 -10 69.47 231.31
-1 9 10 261.84 243.69
-9 1 10 563.47 249.62
-9 -1 10 380.14 245.35
1 9 10 393.92 251.65
-9 -1 -11 226.43 221.68
-1 9 -11 -111.78 233.86
1 9 -11 -257.5 248.29
-1 -9 -11 59.74 210.7
1 -9 -11 161.07 211.53
1 9 11 -41.07 217.49
-1 9 11 254.27 238.03
-9 1 11 409.61 220.55
-9 -1 11 97.36 211.91
-9 1 -11 400.05 235.96
9 1 -12 -229.34 240.28
-1 9 -12 110.78 289.8
-1 -9 -12 243.42 218.63
-9 1 -12 39.13 187.14
-9 -1 -12 259.83 209.45
1 -9 -12 -89.8 196.83
1 9 12 166.66 218.76
-1 9 12 267.79 226.86
9 -1 -12 -269.31 240.3
-9 -1 12 203.19 209.62
-1 9 -13 150.36 226.97
-9 -1 -13 -129.44 185.75
1 -9 -13 -7.17 176.75
-9 1 -13 104.4 179.16
1 9 -13 -438.22 257.89
1 9 13 216.09 186.34
-1 -9 -13 -3.95 189.13
-1 9 13 305.13 215.46
9 -1 -13 203.44 212.05
9 1 -13 -68.72 208.7
1 9 14 7.94 147.07
-1 9 14 107.25 156.63
-1 9 -14 226.67 166.33
1 9 -14 3.37 179.02
9 1 -14 22.09 168.64
-9 -1 -14 139.51 148.99
-1 -9 -14 8.16 166.76
1 -9 -14 -11.9 160.45
9 -1 -14 13.27 194.34
-9 -1 15 4.12 120.92
-1 -9 -15 -4.45 117.35
1 -9 -15 1.92 121.74
-1 9 15 224.61 118.62
9 -1 -15 3.37 131.6
-9 1 15 8.5 127.68
9 1 -15 4.98 142.86
-9 -2 0 -19.94 163.45
-9 2 0 5.25 156.65
9 2 0 104.02 266.13
-9 2 0 239.86 203.41
9 -2 0 89.58 223.05
9 -2 1 12992.34 642.97
-9 2 1 13156.02 528.06
9 2 -1 12092.07 764.01
9 2 1 12618.78 713.25
-2 9 -1 13928.38 690.93
-9 2 1 12801.85 634.9
9 -2 -1 13825.14 779.58
2 9 -1 13376.42 742
-9 -2 -1 13016.38 653.25
-9 2 -1 13229.9 627.65
-9 -2 1 11725.51 507.94
-9 2 -1 12677.09 666.78
-9 -2 -1 12804.38 735.98
-9 -2 2 4544.38 311.2
-9 2 -2 5353.56 461.13
9 -2 2 5067.75 400.36
2 -9 2 5533.36 498.96
2 9 -2 5180.01 479.63
-9 -2 -2 5008.71 492.54
-2 -9 2 5291.91 475.13
-2 9 -2 5299.26 444.92
9 2 2 5294.87 494.6
-9 2 2 4735.45 413.95
-9 2 -2 5276.18 483.31
9 -2 -2 5423.79 579.16
-9 -2 -2 5030.77 508.42
9 2 -2 4777.13 544.64
-9 2 -3 20055.15 871.58
-2 9 -3 19509.41 768.25
-9 -2 -3 19856.74 943.42
2 -9 3 21375.16 1005.9
-2 -9 3 20002.01 941.79
9 2 3 19812.93 860.99
2 9 -3 18914.33 831.33
-9 2 -3 19978.2 908.72
-9 2 3 20114.08 805.1
9 2 -3 19533.22 1042.36
-9 -2 -3 19312.74 938.42
9 -2 -3 19528.32 1047.19
-9 -2 -4 7387.23 622.6
-9 2 -4 8148.56 616.69
2 9 -4 7151.34 524.49
2 -9 4 7893.36 730.49
-9 -2 -4 7430.58 658.52
-9 2 -4 7145.08 610.01
-2 -9 4 7065.14 667.41
-2 -9 -4 7493.93 583
-2 9 -4 7083.63 487.24
9 -2 -4 7243.47 758.62
9 2 -4 7169.48 711.16
-9 -2 -5 1650.33 362.49
-9 2 -5 887.08 287.87
9 -2 5 670.29 474.52
-2 -9 5 651.16 352.76
9 -2 -5 1186.58 454.03
9 2 -5 1217.48 451.12
-9 -2 -5 1281.29 409.68
2 -9 5 1355.23 450.25
9 2 5 992.31 492.4
-9 2 -5 780.27 314.35
-2 -9 -5 965.37 279.31
-2 9 -5 1072.3 254.2
9 2 6 343.31 468.99
-9 -2 -6 518.49 308.35
-2 -9 6 154.78 379.69
-9 2 -6 1204.06 355.44
9 -2 -6 178.45 397.16
-9 2 -6 124.9 261.86
9 2 -6 259.23 387.09
-9 -2 -6 171.57 354.9
9 -2 6 569.33 526.8
2 -9 6 314.22 431.16
-9 -2 7 211.64 213.07
-2 -9 7 558.29 435.68
9 2 7 -233.53 568.36
-2 9 -7 670.04 253.29
-9 -2 -7 520.12 389.58
-9 2 -7 133.66 276.43
9 -2 -7 110.3 446.63
2 9 -7 447.38 253.89
-9 2 -7 769.02 343.18
-9 -2 -7 604.66 246.3
9 -2 7 654.03 595.66
2 9 7 211.27 217.65
9 2 -7 297.48 377.76
-9 2 7 144.36 186.24
-2 9 7 255.94 227.39
-9 -2 -7 617.65 294.11
-9 -2 7 258.5 212.4
2 -9 7 546.15 522.1
2 9 -8 54.53 244.57
2 -9 8 362.53 509.38
-9 -2 8 449.9 234.87
-2 -9 8 -335.94 441.18
2 -9 -8 -232.89 235.85
-9 2 -8 -233.46 355.96
-2 9 -8 -216.6 254.52
9 2 -8 -349.52 417.64
-9 -2 -8 98.33 280.86
-2 -9 -8 -45.12 227.09
-9 -2 -8 43.97 234.12
9 -2 -8 424.11 496.45
-9 2 -8 168.18 327.14
2 9 8 -41.56 237.73
-2 9 8 -7.79 219.84
-9 2 8 658.65 269.63
-2 -9 8 112.64 235.6
9 2 8 14.21 588.86
9 -2 8 731.22 629.17
-9 -2 -8 639 447.05
2 9 9 1614.19 327.27
2 9 -9 2083 371.11
-9 2 -9 2218.38 466.06
-9 -2 -9 2649.45 595.38
9 2 9 2598.73 832.62
-2 -9 9 1731.37 365.74
9 -2 9 2426.63 834.68
-2 -9 9 2042.15 675.38
-9 -2 9 2040.78 347.96
-9 2 9 1637.67 315.37
-9 -2 -9 1642.71 471.99
-2 9 -9 2449.77 385.4
9 -2 -9 929.26 532.59
-9 2 -9 1387.04 439.62
-9 -2 -9 2266.46 364.17
-2 -9 -9 2526.18 369.6
-2 9 9 1615.12 346.93
9 2 -9 2187.31 607.22
2 -9 9 2309.24 715.93
2 -9 -9 2085.77 330.62
2 9 -10 1905.02 343.9
-9 2 -10 2315.76 346.94
-2 -9 -10 2029.91 359.93
2 -9 -10 2323.73 347.19
-2 9 10 2002.32 353.95
-2 -9 10 1563.4 352.93
-2 9 -10 2042.3 350.18
-9 2 10 1791.38 315.56
-9 -2 -10 2169.13 343.18
2 9 10 2126.06 354.08
-9 -2 10 1719.42 334.25
2 9 11 1214.16 294.26
-9 -2 -11 770.25 251.47
-2 9 11 696.68 260.45
-2 9 -11 49.63 301.92
-9 2 -11 630.96 249.11
-9 -2 11 505.1 240.18
-2 -9 11 589.06 262.89
2 -9 -11 318.43 212.12
2 9 -11 243.98 223.84
-2 -9 -11 318.65 258.55
2 -9 -12 643.44 243.8
-9 -2 -12 910.86 260.81
-2 -9 -12 942.93 263.3
-9 -2 12 743.23 254.79
2 9 12 871.87 257.56
-2 9 12 986.5 274.29
-2 9 -12 801.18 285.37
9 -2 -12 549.58 234.64
2 9 -13 -173.58 300.36
2 -9 -13 2.32 197.52
-2 9 -13 130.33 215.07
-9 -2 -13 264.23 174.73
-2 -9 -13 18.91 220.17
2 9 13 426.63 196.37
9 2 -13 511.52 225.67
9 -2 -13 -1.58 202.13
-2 9 13 206.99 201.07
-2 9 14 6.3 157.77
2 9 14 142.34 141.38
9 2 -14 59.31 174.32
2 -9 -14 -8.66 148.57
-9 -2 -14 -73.55 144.58
-2 -9 -14 1.41 155.72
9 -2 -14 -2.52 157.66
-9 2 14 213.54 174.29
2 9 -14 163.53 178.7
-2 -9 -15 1.03 117.04
-9 2 15 16.94 116.97
-9 -2 15 -90.32 120.7
-2 9 15 -142.95 126.43
9 -2 -15 1.43 122.92
9 2 -15 216.06 145.78
-9 3 0 7929.68 435.75
9 3 0 7246.7 594
3 9 0 7908.16 622.62
-9 -3 0 7158.02 441.72
-9 3 0 7986.81 541.01
-3 9 0 8667.93 605.4
9 -3 0 7885.86 566.78
9 3 -1 7419.63 635.14
-9 3 -1 8426.83 503.33
9 3 1 7456.26 596.49
3 9 -1 8193.54 615.63
-9 -3 -1 7784.09 533.16
-9 3 1 8017.27 542.62
-9 -3 -1 8494.96 652.77
9 -3 1 7714.17 503.54
-3 9 -1 8032.22 548.5
-9 -3 1 7535.85 391.86
-9 3 -1 7628.1 542.08
9 -3 -1 8199.05 637.91
-9 3 -2 9128.84 570.29
-9 3 2 8132.75 556.22
9 3 2 7858.83 605.69
3 9 -2 8690.23 623.98
3 -9 2 8845.83 619.51
-9 -3 -2 8522.69 605.69
-3 9 -2 8951.52 572.24
9 3 -2 8064.73 675.96
-9 -3 -2 8837.6 661.41
-9 3 -2 8691.08 609.21
9 -3 -2 7577.76 655.77
9 3 -3 110.35 324.36
-9 -3 -3 339.81 289.91
3 -9 3 189.75 322.7
-9 3 -3 217.86 209.61
-3 -9 3 -15.66 299.43
9 -3 -3 280.02 349.44
-9 3 -3 121.2 235.01
9 3 3 268.54 254.52
3 9 -3 309.87 243.62
-3 9 -3 321.48 216.73
-9 3 3 477.98 253.61
-9 -3 -3 294.51 265.31
9 3 -4 64.16 345.49
-9 3 -4 -141.92 218.13
9 -3 4 -122.79 497.41
-3 -9 4 -84.78 330.57
-3 -9 -4 -121.78 238.63
-9 -3 -4 152.16 277.93
3 -9 4 -112.46 331.89
3 9 -4 2.81 225.29
9 -3 -4 -109.64 354.26
-3 9 -4 -52.5 196.04
-9 3 -4 -86.51 239.59
-9 -3 -4 87.57 280.37
9 -3 5 1019.57 568.56
9 -3 -5 907.99 462.14
3 9 -5 695.32 286.98
-3 -9 -5 777.61 285.17
-3 -9 5 1042.12 422.4
-9 -3 -5 816.96 304.41
9 3 5 775.2 473.77
-9 -3 -5 682.81 375.17
-9 3 -5 751.28 332.38
-3 9 -5 568.03 231.22
3 -9 5 479.31 400.46
-9 3 -5 492.07 255.1
9 3 -5 1094.76 416.73
9 -3 -6 1144.96 518.23
-9 -3 -6 2211.76 522.68
9 -3 6 2177.87 691.95
3 -9 6 1571.68 549.57
-3 -9 6 1910.38 537.3
-9 -3 -6 1330.2 359.08
9 3 6 1477.75 568.68
-9 3 -6 1406.56 373.12
9 3 -6 1206.16 481.87
-3 -9 -6 968.04 282.2
-9 3 -6 1134.94 353.1
-9 -3 -7 -20.75 383.7
3 9 -7 700.36 285.23
3 -9 7 260.45 488.18
-9 -3 -7 370.74 300.87
9 -3 -7 916.23 529.07
-3 -9 7 473.37 434.24
-9 3 7 116.8 187.71
-9 3 -7 260.7 275.19
-9 3 -7 412.97 290.58
-9 -3 7 215.94 210.61
9 -3 7 987.46 682.24
-9 -3 -7 267.15 232.5
-3 -9 -7 395 231.48
3 9 7 481.62 239.48
-3 9 7 416.17 245.96
-3 9 -7 349.54 233.69
-9 -3 7 179.12 199.37
9 3 -7 784.19 471.05
-3 -9 7 95.23 220.93
9 3 7 66.25 589.45
9 -3 8 322.87 748.99
-3 -9 8 -208.26 246.79
3 -9 8 126.15 547.72
9 3 8 719.74 659.7
-3 -9 -8 67.87 224.14
-3 -9 8 453.11 461.73
-9 -3 -8 156.8 313.45
9 -3 -8 -540.99 567.7
-3 9 -8 182.63 224.94
3 9 -8 -9.68 249.09
-9 3 -8 201.97 321.69
-9 3 -8 403.9 342.6
-9 -3 8 116.36 214.43
-9 -3 -8 560.86 260.5
-9 3 8 10.85 206.29
3 9 8 421.43 263.67
-9 -3 8 -223 271.7
-3 9 8 128.46 258.7
-9 -3 -8 -38.54 364.67
9 3 -8 219.11 431.59
3 -9 9 66.07 538.61
9 3 -9 -265.65 484.34
3 9 -9 -282.48 284.6
-3 -9 9 112.79 261.7
-9 3 -9 249.67 318.13
9 3 9 -228.26 603.62
-3 -9 -9 166.49 238.31
-3 -9 9 -31.92 510.22
3 9 9 323.35 261.25
3 -9 -9 602.73 262.84
-9 -3 -9 -97.81 363.04
-9 -3 -9 -158.5 426.11
9 -3 -9 -716.24 558.71
-9 -3 -9 -210.19 221.82
-9 3 -9 -77.78 330.16
-3 9 9 424.28 281.79
-9 3 9 121.57 252.12
-9 -3 9 309.51 250.66
-3 9 -9 -159.17 245.36
-3 9 -9 -685.12 423.65
9 -3 9 81.75 734.61
3 9 -10 -63.8 234.28
-3 9 -10 -206.96 258.47
-3 -9 -10 188.78 234.77
-9 -3 -10 225.55 229.64
3 -9 -10 106.6 218.71
-3 9 10 162.9 304.3
-3 9 -10 200.58 315.05
-9 -3 10 72.31 215.56
3 9 10 321.83 239.24
-3 -9 10 -49.23 264.84
3 9 11 88.33 213.47
-3 9 -11 97.07 273.97
9 -3 -11 -246.77 241.96
-3 -9 -11 94.31 228
-9 -3 11 79.07 211.84
-9 -3 -11 -265 202.62
3 9 -11 -341.9 258.68
3 -9 -11 -136.07 201.05
-3 9 11 -15.21 219.56
-3 -9 11 -26.27 222.79
-3 9 -12 485.47 271.14
3 9 12 215.06 199.82
-3 -9 12 152.77 228.76
3 -9 -12 295.53 200.8
-9 -3 -12 187.32 203.31
-3 -9 -12 576.9 246.76
-3 9 12 294.12 214.02
-9 -3 12 296.63 227.87
9 -3 -12 240.79 198.22
-9 -3 -13 96.13 179.77
-3 9 -13 374.37 213.35
3 9 13 177.42 177.51
9 3 -13 79.78 201.6
-3 -9 -13 -1.17 227.02
3 -9 -13 12.17 188.87
-3 9 13 286.15 194.35
-9 -3 13 93.47 194.12
9 -3 -13 9.83 179.51
-3 -9 -14 4.6 177.24
9 3 -14 304.82 187.06
3 9 -14 120.62 195.1
-9 -3 -14 79.66 143.16
3 -9 -14 -6.5 166.65
-3 9 14 237.19 164.39
-9 3 14 61.68 150.55
9 -3 -14 0.79 181.74
-9 -3 15 43.99 119.9
-9 -3 -15 163.56 113.66
9 -3 -15 -17.36 113.79
-3 -9 -15 -5.21 109.93
-3 9 15 73.51 117.57
-9 3 15 220.95 131.1
9 3 -15 127.06 133.44
-9 4 0 -173.71 146.22
-9 -4 0 180.26 179.24
9 -4 0 -96.96 225.18
-4 9 0 270.72 243.83
4 9 0 347.77 297.87
-9 4 0 246.26 238.02
9 4 0 -67 270.54
-9 -4 -1 4061.83 403.13
9 4 -1 4123.01 521.71
-9 4 -1 4097.49 429.83
9 4 1 3888.12 484.74
4 9 -1 4368.69 480.04
-9 4 1 4486.81 455.18
-4 9 -1 4279.35 437.78
-4 9 1 4772.74 497.2
-9 4 -1 4117.14 362.7
9 -4 1 4334.16 399.25
9 -4 -1 3726.41 490.8
9 4 -2 3100.24 473.19
-9 4 -2 3713.53 394.98
-9 4 -2 3376.54 419.97
-9 -4 -2 3824.99 502.67
4 9 -2 3174.1 428.6
-4 9 -2 3792.39 414.28
4 -9 2 3882.69 485.62
-9 4 2 3199.03 390.32
9 -4 -2 3010.23 500.28
9 4 2 3539.64 452.86
-9 -4 -2 3371.42 420.31
-9 4 -3 3881.78 457.37
-9 4 -3 3956.84 441.83
4 9 -3 3149.31 431.68
9 4 3 4066.14 475.09
-4 9 -3 4167.06 431.8
4 -9 3 4063.66 519.02
9 -4 -3 3798.95 562.3
-9 4 3 4125.34 455.81
-9 -4 -3 3981.85 493.25
9 4 -3 4301.06 566.92
-9 -4 -3 4142.7 541.85
-9 4 -4 2444.27 385.97
9 -4 -4 2228.65 546.71
9 4 -4 1952.65 459.93
9 -4 4 2267.43 620.29
-9 -4 -4 2140.68 413.1
4 -9 4 2409.25 500.92
-4 -9 -4 1888.54 393.87
-4 -9 4 1912.59 416.71
4 9 -4 1768.61 354.56
-9 -4 -4 1882.14 424.11
-9 4 -4 1832.24 371.51
-4 9 -4 2501.07 368.49
9 -4 5 1745.81 616.8
9 4 5 1774.35 554.81
4 -9 5 2172.52 545.34
9 4 -5 1875.58 491.09
-9 -4 -5 1777.62 394.81
-4 -9 5 1472.65 452.3
9 -4 -5 1785.77 545.5
-9 4 -5 1472.41 365.44
-9 -4 -5 2589.29 534.28
4 9 -5 1827.29 378.09
-9 4 -5 2082.98 422.36
-4 9 -5 2178.89 359.49
-4 -9 -5 2120.64 407.05
9 -4 6 83.72 576.99
9 4 -6 390.5 410.2
4 -9 6 451.38 493.51
-4 -9 -6 -30.31 265.84
9 4 6 -61.29 492.02
-4 -9 6 29.07 393.92
9 -4 -6 434.59 477.1
-9 -4 -6 660.45 410.16
-9 4 -6 180.57 274.26
-9 4 -6 224.17 285.99
-9 -4 -6 335.62 290.54
-4 9 -6 106.37 229
-9 -4 7 288.82 222.46
-4 9 -7 -747.43 384.37
-9 4 -7 -321.36 333.65
9 4 7 -134.69 501.41
9 4 -7 85.99 425.68
-4 -9 -7 -200.17 225.43
-9 4 -7 -330.88 305.99
4 9 -7 254.33 253.37
-4 -9 7 -214.65 440.38
-4 9 -7 307.74 320.35
-9 -4 -7 285.56 275.73
-4 -9 -7 329.66 267.62
4 9 7 155.2 214.25
9 -4 -7 -29.74 523.48
4 -9 7 259.54 502.08
-9 -4 -7 148.91 437.98
-4 -9 7 166.91 237.39
-9 4 -7 92.24 278.22
-4 9 -7 -132.67 223.69
-9 -4 -7 82.91 218.34
-9 4 7 69.57 199.76
-4 9 7 -77.31 235.84
-9 -4 7 52.05 207.18
9 -4 7 206.33 655.08
-9 -4 -8 848.55 507.02
-4 9 8 1065.28 293.08
-9 -4 -8 1781.3 447.34
9 4 -8 531.08 467.69
4 9 8 1753.92 338.82
-4 9 -8 2053.25 393.71
9 4 8 1052.15 595.47
-4 -9 8 706.39 505.9
9 -4 8 2068.58 749.02
9 -4 -8 457.91 550.21
-4 9 -8 2090.14 342.18
-4 -9 8 1344.49 337.13
-9 4 -8 1281.12 315.35
-4 9 -8 1283.4 365.71
4 9 -8 1643.9 342.42
-9 4 -8 1159.41 383.24
-9 -4 -8 1251.44 285.08
-9 4 -8 1078.94 388.49
-4 -9 -8 1312.02 309.97
-9 4 8 1490.25 291.44
-9 -4 8 1526.01 320.91
-9 -4 8 829.15 267.2
4 -9 8 1279.03 729.26
-9 4 -9 688.05 366.89
9 -4 9 -84.28 652.95
9 4 -9 684.43 486.86
-4 9 -9 408.28 245.93
4 -9 9 280.23 580.15
-4 -9 9 -531.75 548
-4 9 -9 16.04 353.23
4 9 -9 9.1 256.02
9 -4 -9 -565.47 618.84
-9 4 -9 -31.14 305.11
-9 -4 -9 202.72 241.82
-4 -9 -9 50.2 237.42
4 9 9 30.52 240.04
-4 9 9 200.75 268.29
-9 -4 -9 221.11 355.48
-9 -4 9 -130.57 234.16
-4 -9 9 277.66 267
-9 4 -9 -502.8 287.37
-9 -4 -9 223.47 369.22
4 -9 -10 543.35 235.88
-4 9 -10 -189.28 318.23
4 9 -10 -106.99 223.27
-4 -9 -10 160.63 229.34
-4 9 -10 -143.65 244.05
-9 -4 -10 128.99 224.14
-4 9 10 224.74 249.87
4 9 10 258.76 244.16
-9 -4 10 -100.36 231.72
-4 -9 10 190.77 240.17
4 9 -11 664.56 218.08
9 -4 -11 609.28 231.26
-4 9 -11 1422.74 343.86
4 9 11 914.57 274.66
-9 -4 -11 1203.39 277.44
-4 -9 -11 1264.95 309.76
-4 9 11 904.66 289.31
-9 -4 11 1260.69 300.03
-4 -9 11 848.42 290.09
4 -9 -11 916.13 278.48
-9 -4 -12 278.13 217.79
4 -9 -12 0.17 196.24
-4 9 -12 230.91 232.14
-9 -4 12 296.03 222.52
-4 -9 -12 266.17 219.36
4 9 12 260.54 198.85
-4 -9 12 420.55 237.07
-4 9 12 306.54 224.27
9 -4 -12 268.38 215.01
-4 -9 -13 2.34 192.57
-4 9 -13 366.97 205.45
9 -4 -13 -11.73 162.51
-9 -4 -13 -84.31 182.65
4 -9 -13 38.57 205.64
-4 9 13 233.49 198.1
-9 4 13 27.55 177.8
-4 -9 13 16.02 200.58
-9 -4 13 242.63 209.17
9 4 -13 -135.12 198.33
4 9 -14 139.05 196.88
4 -9 -14 -1.56 127.25
9 4 -14 190.53 172.24
-9 -4 -14 -88.19 147.81
-4 -9 -14 -1.14 148.71
-4 9 14 43.46 150.69
9 -4 -14 2.04 141.98
-9 4 14 20.63 148.26
-4 9 15 -15.26 112.17
-4 -9 -15 -6.89 111.98
-9 -4 -15 -10.92 98.23
-9 4 15 17.31 115.3
9 4 -15 249.21 128.34
9 5 0 14885.2 866.45
-9 -5 0 14897.13 621.54
5 9 0 15724.99 884.33
-5 9 0 15801.55 814.11
-9 5 0 16000.24 806.18
9 -5 0 16102.28 826.89
9 5 -1 7256.06 648.02
-9 5 -1 8036.22 478.72
-9 5 1 7854.13 584.85
9 5 1 7623.67 645.13
5 9 -1 7353.98 628
5 9 1 8191.56 694.44
-9 -5 -1 6974.68 508.34
-5 9 -1 8218.59 604.61
-5 9 1 8509.8 647.09
-9 5 -1 8430.75 623.72
9 -5 -1 7654.16 653.29
-5 9 -2 4398.41 469.17
9 5 -2 3735.12 520.21
-9 5 -2 4024.07 401.51
-9 5 2 4451.78 470.03
-9 5 -2 4181.82 469.74
-9 -5 -2 3756.24 445.17
5 9 -2 4115.12 488.91
9 5 2 4186.63 507.11
5 -9 2 3909.45 485.76
9 -5 -2 4063.81 579.18
-9 -5 -2 4011.49 528.19
9 -5 3 2093.73 589.93
-9 5 -3 2019.4 339.57
5 9 -3 1707.79 397.27
9 5 3 2012.28 404.5
9 -5 -3 1605.03 466.41
9 5 -3 2088.83 463.96
-9 -5 -3 2072.51 408.11
5 -9 3 1866.1 439.44
-9 -5 -3 1828.99 409.61
-9 5 -3 1827.24 343.92
-5 9 -3 1864.98 335.39
-9 5 3 2280.85 398.46
-9 5 -4 2819.19 417.02
-5 -9 -4 2547.77 455.1
-9 -5 -4 2970.45 475.96
9 -5 -4 2527.64 567.77
5 -9 4 2436.74 507.13
5 9 -4 2520.05 435.49
9 5 -4 2750.55 526.37
-9 -5 -4 2710.87 482.44
-5 9 -4 3130.54 435.96
9 -5 4 2777.07 677.42
-9 5 -4 2578.95 414.6
-9 -5 -5 6651 668.72
9 5 -5 6430.87 740.82
5 9 -5 5736.63 600.35
-9 5 -5 7135.33 654.21
-9 5 -5 7256.14 664.75
9 -5 5 5615.52 868.39
5 -9 5 6185.07 783.93
-9 -5 -5 7044.29 762.58
-5 9 -5 6425.2 571.58
9 5 5 6435.19 800.94
9 -5 -5 6905.77 891.65
-5 -9 -5 5665.47 604.6
-5 -9 -6 5733.37 610.9
-9 -5 6 6998.64 533.84
-9 5 -6 6558.94 678.07
9 5 -6 5661.35 731.38
5 9 -6 6309.8 618.31
-9 5 -6 6590.4 660.66
-5 9 -6 7242.07 561.9
-9 5 -6 8126.53 538.89
-5 -9 6 5885.71 790.11
9 5 6 6027.53 829.97
-9 -5 -6 6775.1 803.75
5 -9 6 6045.39 859.92
-5 9 -6 7100.1 458.63
-9 5 -6 5312.15 450.26
-9 -5 -6 6766.21 705.62
-5 9 6 5464.38 456.06
9 -5 6 5747.23 965.95
-9 -5 6 6476.13 491.68
-5 -9 6 7077.19 531.86
-5 9 -6 6815.93 513.09
9 -5 -6 6054.68 919.03
-9 -5 -6 6936.42 477.41
-5 9 -6 6802.02 625.79
-9 -5 7 2782.32 386.56
-5 -9 -7 3862.1 549.25
-9 5 -7 2035.4 339.05
-9 -5 -7 3143.61 547.41
9 5 7 3000.64 715.84
-5 -9 7 3166.24 667.99
-5 9 -7 3810.49 464.7
-9 -5 -7 2582.7 359.52
9 5 -7 2278.64 556.49
-9 -5 7 2443.47 352.8
5 -9 7 2361.61 692.69
-5 9 7 2697.76 374.23
-5 -9 -7 3225.97 381.41
-5 9 -7 2615.18 445.75
-9 5 -7 2928.76 523.23
9 -5 -7 2257.75 639.39
5 9 7 2846.18 368.18
-9 -5 -7 2820.6 638.95
-5 9 -7 2488.93 346.28
9 -5 7 1987.43 761.21
-5 -9 7 2993.82 410.98
-9 5 -7 3508.97 528.38
5 9 -7 2831.92 368.82
-5 9 -8 3419.75 469.73
9 5 -8 1420.05 473.07
9 -5 8 3066.35 879.8
-9 5 -8 1745.68 349.73
5 9 -8 2358.02 356.25
-5 -9 -8 2734.25 377.01
-5 9 -8 2602 455.93
-5 9 -8 2535.38 356.49
-9 5 -8 2946.19 532.92
-9 -5 -8 2733.61 392.18
-9 -5 -8 2297.49 632.53
5 -9 8 3095.79 829.84
9 -5 -8 2684.02 709.04
-9 5 -8 2381.91 523.75
-5 -9 8 2346.93 630.95
5 9 8 2342.59 367.37
-5 9 8 2256.89 377.41
-9 -5 8 2612.94 375.38
-5 -9 8 2060.44 371.22
-9 -5 -8 2579.39 535.13
-9 -5 8 1583.23 326.54
9 5 -9 1984.97 537.94
5 -9 9 2071.78 765.45
-5 9 -9 2434.42 441.01
-5 -9 9 2726.37 628.35
-9 -5 -9 3093.72 572.47
5 9 -9 2506.2 363.08
-5 9 -9 2257.54 352.71
9 -5 -9 2634.67 794.11
5 9 9 3015.41 398.32
-5 -9 -9 3699.42 434.33
-9 -5 -9 2820.5 380.28
-9 -5 -9 2729.09 610.91
9 -5 9 2547.2 908.6
-9 5 -9 2189.13 343.58
-5 9 9 3108.76 411.22
-9 5 -9 2413.8 503.89
-9 5 -9 3503.7 570.39
-9 -5 9 2343.13 375.2
-5 -9 9 2181.25 367.36
5 9 -10 -281.46 219.77
-5 -9 10 211.65 235.18
-9 5 -10 -371.24 250.65
-5 9 -10 -75.87 298.09
-9 -5 -10 -51.44 233.58
-5 -9 -10 -8.45 222.05
5 9 10 7.35 232.69
-9 -5 10 -5.08 222.44
5 -9 -10 -6.03 213.88
-5 9 10 148.02 241.63
9 -5 -10 -390.07 230.71
-5 -9 -11 214.27 242.99
5 -9 -11 133.19 205.26
-5 9 -11 87.43 279.36
-9 -5 -11 56.59 215.63
9 -5 -11 122.88 195.61
5 9 11 -40.57 207.84
-9 -5 11 159.73 225.86
5 9 -11 -166.99 195.18
-5 9 11 91.7 225.87
-5 -9 11 227.64 236.44
-9 -5 -12 305.28 216.89
5 -9 -12 8.36 210.21
-5 9 -12 267.68 225.44
-5 -9 -12 77.78 206.3
-5 9 12 291.82 207.41
-9 5 12 251.64 207.68
9 -5 -12 9.24 215.73
-9 -5 12 20.26 199.91
-5 -9 12 230.58 316.88
-9 -5 13 547.63 206.49
-5 -9 -13 17.92 214.5
-9 -5 -13 539.85 207.22
5 -9 -13 15.44 213.21
-5 9 -13 232.5 192.41
9 5 -13 533.5 207.72
-5 9 13 738.72 224.24
-9 5 13 382.99 196.01
9 -5 -13 9.3 226.83
-5 -9 13 869.41 246.31
-9 -5 -14 290.8 162.1
5 9 -14 -39.7 179.35
9 -5 -14 -0.86 151.74
-5 -9 -14 4.76 166.41
-5 9 14 527 184.08
9 5 -14 328.4 165.42
-9 5 14 432.58 170.72
-9 5 15 188.41 117.51
-9 6 0 442.41 288.05
9 6 0 -150.24 282.67
9 -6 0 -50.46 263.48
6 9 0 -67.47 267.81
-6 9 0 65.27 234.43
9 -6 -1 142.03 304.78
-6 9 1 57.49 270.3
-9 -6 -1 178.32 218.1
9 6 1 -55.77 266.79
6 9 1 -108.89 283.56
-9 6 -1 154.16 253.94
-9 6 1 -207.31 285.36
9 6 -1 -25.19 291.84
6 9 -1 35.67 254.56
-6 9 -1 -190.62 259.36
-9 -6 -2 126.82 234.14
6 -9 2 148.15 320.91
9 -6 2 117.41 432.28
9 -6 -2 226.31 378.51
-9 6 -2 -10.14 232.05
6 9 -2 200.39 291.94
-9 6 -2 81.35 170.67
9 6 -2 32.85 298.84
-6 9 -2 -251.89 251.07
-9 6 2 -121.79 246.15
-9 -6 -2 42.68 318.04
9 6 2 252.58 295.82
6 -9 3 372.1 374.23
9 6 3 545.22 316.91
-9 -6 -3 786.12 347.61
9 -6 3 469 492.66
9 -6 -3 602.99 442.21
-9 -6 -3 674.41 291.95
-9 6 -3 317.22 241.8
6 9 -3 488.83 296.12
9 6 -3 231.26 316.68
-9 6 -3 570.87 251.66
-6 9 -3 762.02 281.08
-9 6 3 636.53 321.44
6 -9 4 424.09 409.37
-6 -9 -4 834.25 376.75
6 9 -4 174.75 292.23
-9 -6 -4 624.14 328.66
9 -6 -4 562.33 490.9
-6 9 -4 1206.09 348.65
9 6 -4 864.79 409.75
-9 6 -4 703.78 297.24
9 -6 4 726.98 559.63
-9 6 -4 480.5 266.67
6 9 -5 378.31 349.55
-6 -9 -5 -155.85 298.77
9 6 5 -108.11 447.49
6 -9 5 -592.05 505.92
-9 -6 -5 -124.12 316
9 -6 -5 153.63 538.09
9 -6 5 -375.02 560.41
-9 6 -5 88.61 247.04
-9 6 -5 279.08 276.45
9 6 -5 156.45 405.43
-6 9 -5 355.18 295.44
-6 -9 6 77.48 207.28
-6 -9 6 194.97 226.41
-9 -6 6 -230.33 258.51
-6 -9 -6 320.92 237.08
-6 9 -6 -283.18 237.16
9 6 6 594.33 490.14
-9 6 -6 186.7 300.49
-6 9 -6 157.49 307.47
9 6 -6 702.16 457.18
6 -9 6 477.78 574.24
9 -6 6 100.71 685.48
-6 -9 -6 310.33 330.81
-9 6 -6 -182.55 294.25
9 -6 -6 258.51 566.4
-9 -6 -6 -249.67 362.29
6 9 -6 13.06 337.73
6 9 6 151.39 231.74
-6 9 -6 204.58 316.09
-9 -6 -6 384.49 239.49
-9 6 -6 153.77 305.49
-9 6 -6 494.64 310.92
-9 -6 -6 508.74 408.57
-6 9 6 99.46 223.94
-6 9 -6 -21.04 269.36
-9 -6 6 447.75 253.08
-6 9 -7 387.42 351.52
9 -6 7 169.22 591.8
9 -6 -7 -523.98 561.06
6 -9 7 684.67 722.72
-6 9 -7 29.59 297.11
-9 6 -7 -856.55 347.93
-9 -6 -7 591.88 538.74
-9 6 -7 148.79 268.73
9 6 -7 -202.02 405.96
6 9 -7 100.83 234.18
-6 -9 -7 1473.07 571.9
-9 6 -7 -74.67 308.69
-6 9 -7 -177.48 342.81
-6 9 -7 126.99 223.66
-9 -6 -7 -56.3 215.88
-6 -9 -7 105.12 231.67
6 9 7 -65.97 271.07
-9 -6 7 156.02 247.83
-6 9 7 87.69 246.81
-9 6 -7 1002.02 348.46
-9 -6 -7 -5.9 337.61
-6 -9 7 106.85 245.8
-6 -9 7 -78.47 250.47
-9 -6 7 21.3 240.96
-9 -6 -8 124.67 435.75
-9 6 -8 -610.8 331.17
-9 -6 -8 122.61 306.27
-6 9 -8 463.38 378.84
9 -6 8 -268.1 710.5
-9 6 -8 217.42 339.55
6 -9 8 -83.79 645.41
-6 -9 -8 -138.95 300.03
-6 9 -8 -0.19 228.17
-6 9 -8 387.11 348.87
9 -6 -8 417.11 593.87
9 6 -8 297.55 411.5
-6 -9 -8 329.4 257.8
-9 -6 -8 386.27 276.99
6 9 -8 -152.4 223.38
-9 6 -8 262.9 327.41
6 9 8 412.81 262.56
-6 9 8 -92.12 239.66
-9 -6 8 104.26 250.34
-6 -9 8 318.13 289.67
-9 -6 8 -704.12 336.03
-6 9 -9 -662.7 249.61
-9 6 -9 -291.42 274.97
-6 9 -9 -127.8 313.41
-9 -6 9 8.11 234.05
-6 9 9 150.57 244.01
-9 -6 -9 -122.16 240.94
-6 -9 -9 -116.86 233.46
6 9 9 93.76 227.73
6 9 -9 -23.18 205.68
9 -6 -9 -541.7 286.91
-6 -9 9 142.29 263.18
-6 -9 10 18.25 231.05
6 9 10 31.84 219.09
-9 6 -10 -12.87 238.46
9 -6 -10 -44.14 199.33
-9 -6 -10 132.31 226.99
-6 -9 -10 -52.06 234.91
-9 -6 10 14.2 222.09
-6 9 -10 -262.54 281.42
-6 9 10 137.27 221.17
-9 6 -11 386.35 235.02
-6 9 -11 617.13 283.8
-9 -6 -11 131.04 226.49
-6 -9 -11 840.19 281.34
-6 9 11 244.6 231.01
-9 6 11 75.68 208.76
9 -6 -11 141.01 193.67
-9 -6 11 187.67 215.91
-6 -9 11 224.46 239.99
-6 -9 12 192.2 207.41
-9 -6 -12 189.11 212.54
6 -9 -12 3.95 189.17
6 9 -12 44.85 163.23
-6 -9 -12 -1.18 210.45
-6 9 -12 -3.9 226.07
-9 6 12 -153.01 201.5
-6 9 12 287.87 212.85
9 -6 -12 -4.6 182.26
-9 -6 12 -55.2 189.74
-6 9 -13 -28.7 171.34
9 -6 -13 -15.33 158.14
-9 -6 -13 -40.84 177.32
-6 -9 -13 -6.9 185.35
-6 9 13 103.16 167.25
-9 6 13 -68.02 171.55
-6 -9 13 94.95 178.75
-9 -6 13 126.42 171.15
9 6 -13 0.16 170.52
-9 -6 -14 -103.35 146.95
9 -6 -14 16.61 119.79
6 9 -14 -364.82 189.93
9 6 -14 28.99 130.68
-6 9 14 -50.44 141.66
-9 6 14 -20.84 136.96
-6 -9 -14 2.67 139.82
9 7 0 17761.77 1017.73
7 9 0 17799.68 1017.12
-7 9 0 19406.78 980.14
-9 7 0 18437.57 950.59
-9 -7 -1 9636.52 611.85
9 7 -1 10745.14 820.36
7 9 -1 9901.12 792.09
9 7 1 10815.06 809
7 9 1 10598.08 805.21
-7 9 -1 10899.27 759.75
-9 7 1 11164.53 754.28
9 -7 1 9501.85 839.21
-9 7 -1 11859.75 785.38
-7 9 1 11844.95 794.16
9 -7 -1 11024.58 863.52
9 7 -2 4467.66 593.78
7 9 -2 4513.03 579.59
-9 7 2 4855.08 547.94
9 7 2 3912.17 538.15
9 -7 2 4371.1 672.27
7 9 2 4466.34 578.05
7 -9 2 4847.01 609.17
-9 -7 -2 3741.82 458.54
-7 9 -2 4208.85 501.4
9 -7 -2 4599.69 677.13
-7 9 2 5777.84 612.82
-9 7 -2 4737.2 540.46
9 7 3 1496.72 419.53
-9 -7 -3 1721.81 444.13
9 -7 3 974.95 506.27
9 -7 -3 1021.12 493.84
-9 7 -3 1346.47 361.82
7 9 -3 1680.21 435.61
-9 7 -3 1689.86 314.98
9 7 -3 1022.5 398.31
-7 9 -3 1871.71 413.71
-9 7 3 2273.94 479.35
-7 -9 -3 1642.39 437.72
7 -9 3 1818.26 531.29
9 -7 4 71.94 523.38
-9 -7 -4 498.19 344.32
7 9 -4 212.87 336.42
-7 -9 -4 1120.09 419.95
7 -9 4 892.83 507.56
9 -7 -4 343.17 486.24
9 7 -4 549.77 380.9
-9 7 -4 328.63 293.93
-9 7 -4 844.64 315.31
-7 9 -4 624.49 334.93
-7 -9 5 2531.1 352.11
-9 -7 5 2750.62 407.64
-9 -7 5 2694.4 351.58
-9 7 -5 3368.61 422.04
-9 7 -5 3206.65 506.51
-7 9 -5 2476.22 374.24
9 -7 5 2744.51 739.37
9 7 5 2143.21 557.85
-7 -9 -5 2487.5 482.75
-9 -7 -5 3034.55 537.93
-7 9 -5 2710.74 412.43
-7 -9 -5 2114.6 308.41
7 -9 5 2179.14 651.18
-9 7 -5 2022.38 355.98
9 -7 -5 2222.45 693.06
9 7 -5 2497.17 564.63
7 9 -5 2516.08 500.15
-9 7 -5 2836.4 489.74
-7 9 -5 2839.43 475.93
-9 -7 -5 2632.77 351.39
-9 -7 -6 10149.72 875.59
9 7 -6 10161.18 962.26
-9 7 -6 10597.77 850.94
-9 -7 6 11554.95 662.21
7 9 -6 9753.79 887.11
-9 -7 6 11265.41 703.24
-9 7 -6 10402.39 633.21
-7 9 -6 11541.78 662.75
-7 9 -6 10101.59 565.36
9 -7 6 10941.38 1244.29
7 -9 6 10997.51 1146.89
-9 7 -6 9585.87 607.21
-7 9 -6 10721.76 667.16
9 -7 -6 9032.08 1101.74
-7 9 -6 10955.13 848.94
-9 7 -6 12075.87 898.45
-7 -9 -6 10465.71 601.88
-9 -7 -6 10473.44 590.04
-7 -9 -6 9938.1 855.86
7 9 6 10184.48 631.25
-7 9 6 10459.57 604.39
-7 -9 6 11295.24 664.46
-7 -9 6 9750.22 618.63
-7 -9 -7 9215.58 852.19
-9 -7 -7 11349.23 947.75
-7 9 -7 10322.57 593.94
9 -7 7 11156.34 1342.28
7 9 -7 7744.98 818.42
-7 9 -7 10357.45 651.69
-9 7 -7 11569.09 929.59
-7 9 -7 10918.89 870.9
-9 -7 -7 9246.26 582.13
-9 7 -7 7910.91 573.43
-7 9 -7 9984.44 681.24
-9 -7 7 9845.65 699.94
7 -9 7 10860.7 1224.07
-9 7 -7 11727.84 918.85
-9 -7 -7 10455.1 1016.48
7 9 7 9520.65 659.71
-7 -9 -7 10256.15 606.69
-7 -9 7 9005.17 614.45
9 -7 -7 8611.92 1114.31
-9 7 -7 11103.51 657.2
-7 9 7 9482.12 637.79
9 7 -7 9914.91 981.79
-9 -7 7 9420.86 639
-7 -9 7 9580.78 664.95
9 -7 -8 3758.47 865.74
-7 -9 -8 4589.47 646.28
-9 -7 -8 4537.62 661.21
-7 9 -8 5244.18 529.72
7 -9 8 4575.34 983.53
-7 9 -8 5255.75 539.85
-7 -9 -8 4379.92 444.79
9 7 -8 4045.75 688.39
-9 7 -8 3462.78 424.13
-9 -7 8 3598.8 465.32
-9 7 -8 4197.9 622.62
-9 -7 -8 5175.81 810.01
-9 -7 8 4428.35 481.92
7 9 8 4463.82 479.32
-7 9 8 4586.56 470.02
-7 -9 8 4162.08 482.42
9 -7 8 4661.22 1072.04
-9 -7 -8 4040.93 435.3
-7 9 -8 3935.82 402.25
-9 -7 -9 239.89 250.42
-9 7 -9 -569.12 303.56
-7 9 -9 102.92 287.39
-7 9 9 28.76 234.96
-7 -9 -9 254.02 244.2
-9 -7 9 -149.08 253.01
-7 -9 9 62.9 241.53
-7 -9 10 800.74 284.98
-9 7 10 938.19 269.58
-9 7 -10 587.07 243.2
-7 9 -10 1124.26 343.16
-9 -7 -10 666.9 270.35
-7 -9 -10 859.55 275.8
9 -7 -10 658.52 233.93
-7 9 10 983.96 281.25
-9 -7 10 990.77 301.2
-7 -9 -11 286.72 245.74
-9 -7 -11 -108.75 220.55
-9 -7 11 320.29 237.31
-7 9 -11 38.64 235.81
-7 -9 11 -70.85 223.24
-7 9 11 145.69 231.13
-9 7 11 229 208.29
9 -7 -11 -0.18 225.4
-9 7 -11 -79.83 211.69
-7 9 -12 366.13 202.96
-9 -7 -12 627.74 239.02
-7 -9 -12 -0.19 244.03
7 9 -12 192.08 179.76
-7 9 12 700.13 225.17
-9 7 12 477.16 225.48
9 -7 -12 31.28 233.93
-9 -7 12 344.72 219.32
-7 -9 12 814.36 260.86
-7 9 -13 306.11 168.19
-7 9 13 735.52 216
-7 -9 -13 5.84 218.83
-7 -9 13 574.07 215.51
-9 -7 -13 735.56 217.52
9 -7 -13 14.6 189.84
-9 7 13 775.36 213.09
-9 -7 13 767.39 212.97
9 7 -13 467.82 185.75
-9 7 14 203.41 138.86
7 9 -14 173.37 155.2
-9 -7 -14 627.96 169.35
-7 -9 -14 6.45 170.79
-7 9 14 511.41 160.04
9 7 -14 474.51 144.78
-9 8 0 -6.82 303.65
8 9 0 -34.65 294.86
9 8 0 13.96 287.32
-8 9 0 -308.89 306.43
9 8 1 106.51 304.67
8 9 1 152.5 305.12
9 -8 1 -130.06 378.54
9 -8 -1 373 405.92
9 8 -1 86.67 319.83
8 -9 -1 278.28 384.28
-9 8 -1 -18.53 332.75
-8 9 1 292.88 301.85
8 9 -1 150.15 306.8
-8 9 -1 89.36 263.51
-9 8 1 203.77 304.47
9 8 -2 360.98 320.41
9 -8 2 -439.53 450.88
9 -8 -2 621.91 478.21
9 8 2 402.99 341.23
8 9 -2 318.65 327.38
8 9 2 543.95 361.99
-9 8 -2 736.87 343.51
-8 9 -2 -19.69 297.05
-9 8 2 605.29 368.62
-8 9 2 723.53 374.91
9 -8 3 1184.56 564.26
-8 -9 -3 1476.58 471.37
8 -9 3 2203.2 590.26
8 9 -3 1884.7 457.22
9 -8 -3 1570.84 559.55
-9 -8 -3 1709.53 446.3
-9 8 -3 1911.43 413.14
-8 9 -3 2249.37 469
9 8 -3 1578.61 465.67
-9 -8 4 149.02 211.12
-8 -9 4 134.64 214.23
-9 -8 4 779.98 320.57
8 9 -4 -147.71 372.8
-9 -8 -4 24.66 217.15
-8 -9 -4 276.06 366.84
-9 8 -4 762.41 320.97
9 -8 4 364.87 548.51
-8 9 -4 133.7 259.92
9 -8 -4 495.98 480.32
-9 8 -4 -54.74 298.18
-8 9 -4 466.79 294.46
-8 -9 -4 390.3 236.42
-9 -8 -4 303.3 335.07
8 -9 4 150.27 493.33
-9 8 -4 453.14 334.69
-8 9 -4 246.43 317.51
9 8 -4 -52.26 378.02
-9 -8 5 -190.34 240.42
-8 -9 5 45.28 228.25
8 9 -5 -203.81 441.91
-8 -9 5 -432.23 314.23
-9 -8 5 241.14 286.42
-9 8 -5 860.5 330.45
-8 9 -5 -66.58 277.96
-8 9 -5 112.51 302.32
-9 -8 -5 -235.91 251.07
-8 -9 -5 43.66 331.14
9 -8 -5 -157.6 545.91
9 -8 5 -232.58 599.3
-8 -9 -5 -32.33 221.72
-8 9 -5 826.27 338.55
-9 8 -5 253.48 322.01
-9 -8 -5 108.2 335.59
8 -9 5 11.17 519.26
8 9 5 189.81 241.74
9 8 -5 45.4 397.7
-9 8 -5 -516.71 332.88
-8 -9 6 930.86 289.95
8 9 -6 479.28 470.7
-8 -9 6 539.78 286.65
-9 -8 6 1201.51 351.57
-8 -9 -6 1297.84 335.19
-9 8 -6 1380.24 376.66
-8 9 -6 1869.62 392.35
9 -8 6 1091.43 696.76
-8 9 -6 1615.09 396.81
9 -8 -6 1178.93 636.52
8 -9 6 1077.5 694.6
-9 -8 -6 1075.07 415.85
-9 8 -6 641.2 329.4
-8 9 6 727.44 267.38
-8 9 -6 897.93 245.25
-9 8 -6 1223.18 411.12
-9 -8 -6 854.13 275.59
-9 8 6 789.75 268.53
8 9 6 1110.45 311.36
9 8 -6 703.36 443.12
-8 9 -6 1310.45 405.02
-8 -9 -6 781.19 364.18
-9 -8 6 898.68 285.44
-9 -8 -7 887.26 475.38
9 -8 7 -274.89 711.56
-9 -8 7 219.85 271.34
-9 8 -7 1064.05 365.48
-8 9 -7 700.58 346.6
9 -8 -7 1425.36 671.74
-8 9 -7 -110.41 245.95
-9 8 -7 -64.65 317.46
-8 -9 -7 619.29 358.66
8 9 -7 -206.67 403.32
-9 -8 -7 302.25 255.63
-8 -9 -7 584.45 248.57
8 -9 7 569.84 704.08
-9 8 -7 -29.14 313.65
9 8 -7 246.88 393.81
-8 9 7 16.76 248.17
8 -9 -7 1121.62 600.13
-9 8 7 287.91 251.16
-8 9 -7 987.91 366.03
-8 -9 7 281.94 261.2
-8 -9 7 2.92 286.61
-9 -8 7 399.28 288.77
-9 8 -8 -612.33 346.9
-8 -9 8 -173.3 258.33
-8 9 -8 877.68 344.9
-8 9 -8 -66 221.3
-8 -9 -8 1369.88 432.95
-8 -9 -8 -20.23 230.88
-9 8 8 43.24 227.43
-8 9 -8 196.58 304.11
-9 -8 -8 -92.14 241.63
-9 8 -8 127.92 333.62
-8 9 8 49.48 230.27
-9 -8 8 -196.8 248.02
-9 -8 -9 882.23 281.69
-9 8 -9 1.45 259.59
-8 9 -9 1031.59 353.94
-8 -9 -9 674.02 263.27
-8 9 9 608.14 267.14
-9 8 9 649.5 255.76
-9 -8 9 777.22 287.21
-8 -9 9 486.01 265.53
-8 -9 10 395.37 259
-9 8 -10 -133.86 258.72
-8 -9 -10 509.8 280.59
-8 9 -10 -57.33 263.55
-9 -8 -10 389.98 246.23
-8 9 10 353.24 238.97
-9 8 10 284.71 236.71
-9 -8 10 366.08 250.78
-8 9 11 220.9 220.26
-8 9 -11 -204.64 251.25
-9 -8 -11 4.2 221.47
-8 -9 -11 404.92 244.8
-9 -8 11 32.74 212.78
-9 8 11 188.51 214.92
-8 -9 11 -118.81 211
-9 8 -11 -333.75 245.78
-9 8 -12 -129.45 189.63
-8 9 -12 -28.4 194.73
-9 -8 -12 95.43 205.19
-8 9 12 100.93 195.14
-9 8 12 -63.26 182.23
-9 -8 12 250.59 198.98
-8 -9 12 32.43 181.74
8 9 -12 -19.47 146.15
9 8 -12 -359.88 203.95
-8 -9 -12 144.66 200.83
9 8 -13 136.31 154.35
-9 -8 -13 127.57 168.29
-8 -9 -13 10.06 161.18
-8 9 13 181.87 162.01
-9 8 13 118.41 151.95
8 9 -13 19.21 125.14
-9 -8 13 -8.99 148.28
-8 -9 13 115.92 160.4
-8 -9 -14 0.96 126.62
-9 -8 -14 0.49 127
-8 9 14 92.09 121.21
-9 8 14 -92.44 116.36
9 9 0 18205.32 1104.37
-9 9 0 19089.32 1072.81
-9 9 -1 10646.99 818.15
9 9 -1 9774.8 846.42
-9 9 1 10499.35 819.21
9 9 1 9704.5 847.58
9 9 -2 4292.21 632.68
9 9 2 4361.35 609.46
-9 9 2 5323.92 655.3
9 -9 -2 3725.01 668.53
-9 9 -2 3878.85 536.26
-9 -9 3 1177.71 281.99
-9 -9 -3 802.62 419.36
9 -9 3 997.95 573.97
-9 9 -3 525.59 270.81
-9 9 -3 900.54 299.44
9 -9 -3 461.84 454.88
9 9 -3 837.2 420.78
-9 -9 -3 1222.32 287.78
-9 9 -3 1690.35 449.08
-9 -9 4 1654 308.53
-9 -9 4 2187.79 402.94
9 9 -4 1608.76 472.56
-9 -9 -4 1850.24 470.59
-9 9 -4 1681.8 357.51
9 -9 -4 1710.87 603.98
9 -9 4 1979.08 690.82
-9 9 -4 1134.01 321.35
-9 -9 -4 1721.03 312.7
-9 9 -4 2240.14 467.46
-9 -9 5 2819.26 446.98
9 9 -5 2769.8 582.44
-9 9 -5 3050.6 425.3
-9 -9 -5 2633.92 521.31
9 -9 -5 1589.79 580.91
-9 9 -5 3293.71 577.57
-9 -9 -5 2810.77 365.37
-9 9 -5 1479.07 361.02
9 -9 5 2532.07 810.63
-9 -9 5 2862 391.15
9 9 -6 1820.52 508.62
9 -9 6 1818.64 783.21
-9 9 -6 3451.5 463.05
-9 -9 6 1815.06 363.35
-9 -9 -6 2585.31 570.57
9 -9 -6 2465.75 668.23
-9 9 -6 1413.93 362.14
-9 -9 -6 2012.71 333.47
-9 9 -6 2323.59 506.63
-9 9 6 1979.8 332.5
-9 -9 6 2145.31 375.24
9 9 -7 289.08 381.85
-9 9 -7 896.01 354.18
9 -9 7 575.31 726.72
9 -9 -7 801.6 572.66
-9 -9 -7 380.44 349.37
-9 9 -7 -288.21 360.81
-9 -9 -7 301.47 260.3
-9 9 -7 -48.7 214.44
-9 9 -7 -9.27 331.17
-9 9 7 -42 231.15
-9 -9 7 329.09 256.79
-9 -9 7 78 265.97
-9 9 -8 -379.93 347.77
-9 -9 -8 312.68 251.69
-9 9 8 -176.27 224.77
-9 -9 8 75.31 234.91
-9 9 9 1757.43 319.64
-9 -9 -9 2021.27 356.17
-9 9 -9 1149.42 322.74
-9 -9 9 1650.82 337.45
-9 9 -10 -89.2 252.21
-9 -9 10 56.6 206.85
-9 -9 -10 264.28 241.03
-9 9 10 253.08 221.47
-9 9 -11 -66.03 234.11
-9 -9 11 -30.38 196.06
-9 -9 -11 24.5 220.46
-9 9 11 116.46 191.36
-9 9 -12 -28.31 181.01
-9 -9 12 125.92 178.77
-9 -9 -12 101.45 187.12
-9 9 12 228.26 191.52
9 9 -12 8.33 159.75
-9 -9 -13 9.38 184.08
9 9 -13 276.48 138.92
-9 -9 13 338.28 162.98
-9 9 13 319.04 157.11
-9 9 14 416.43 130.56
-9 -9 -14 10.01 147.35
10 0 0 6707.2 571.46
-10 0 0 5852.27 450.81
-10 0 0 6324.4 496.07
10 0 -1 1143.05 355.82
-10 0 -1 1222.74 279.4
-10 0 1 1348.08 275.6
10 0 1 1064.57 295.48
-10 0 1 901.57 233.71
-10 0 -1 810.71 267.07
10 0 2 1708.93 331.34
10 0 -2 1607.7 399.44
-10 0 -2 1525.44 315.63
-10 0 2 1567.7 255.47
-10 0 2 1482.9 278.17
-10 0 -2 1571.44 311.71
-10 0 -3 -58.65 225.77
0 -10 3 275.78 315.18
-10 0 -3 194.7 248.25
10 0 -3 204.87 320.88
0 -10 4 3445.83 529.54
-10 0 -4 3596.69 486.46
-10 0 -4 3683.35 467.66
10 0 -4 2972.66 536.06
10 0 5 10180.6 1115.61
-10 0 -5 9327.37 749.8
-10 0 -5 8971.1 760.41
10 0 -5 8506.19 841.6
0 -10 5 9043.89 827.54
-10 0 -6 7863.02 734.52
0 -10 6 7787.94 834.32
0 10 6 8301.37 523.35
-10 0 -6 8127.31 784.74
10 0 6 7912.9 1010.24
10 0 -6 7434.97 847.27
0 10 -6 10154.53 570.64
10 0 7 1253.6 725.97
-10 0 -7 243.57 352.99
0 -10 7 263.55 456.65
-10 0 -7 274.73 311.88
0 10 -7 525.54 281.99
-10 0 -7 55.33 214.86
10 0 -7 -73.51 443.24
0 10 7 199.19 240.01
-10 0 7 62.45 204.18
-10 0 7 -134.86 233.17
0 10 -8 -88.72 245.46
10 0 8 -425.77 689.99
-10 0 -8 -55.17 289.57
-10 0 -8 653.51 401.66
0 -10 8 540.3 534.47
0 -10 -8 -409.67 237.9
-10 0 8 390.22 235.97
-10 0 -8 152.57 243.91
0 10 8 0.86 240.97
10 0 -8 250.83 461.2
-10 0 -9 194.03 307.95
0 -10 9 -58.92 437.53
0 10 9 -102.68 246.38
10 0 9 -530.29 684.81
-10 0 -9 468.61 397.63
-10 0 -9 89.31 238.89
10 0 -9 -204.52 446.31
0 10 -9 -397.31 300.37
0 -10 -9 -63.21 217.05
-10 0 9 150.51 211.43
0 10 -10 1344.4 307.73
-10 0 -10 1450.55 294.2
0 -10 -10 1190.8 292.29
0 10 10 956.2 289.05
-10 0 10 1230.74 278.24
0 10 11 594.74 260.63
0 10 -11 658.5 260.08
-10 0 -11 717.1 241.14
0 -10 -11 847.58 260
-10 0 11 688.71 244.4
0 10 -12 -442.71 291.74
0 -10 -12 0.36 183.33
-10 0 -12 229.68 201.35
0 10 12 -23.89 212.14
10 0 -12 -312.23 242.92
0 10 -13 315.9 219.5
-10 0 -13 211.61 180.65
0 -10 -13 -3.53 172.86
0 10 13 486.9 203.9
10 0 -13 -63.87 192.86
0 10 -14 302.15 175.97
0 10 14 -19.84 137.44
10 0 -14 -0.95 150.76
0 -10 -14 -0.54 145.37
10 0 -15 0.26 122.25
-10 0 15 -5.35 107.55
10 -1 0 353.25 270.57
-10 -1 0 -56.99 220.28
-10 1 0 -87.72 184.46
10 1 0 -110.76 262.59
-10 -1 0 -75.1 160.9
-10 1 0 -26.38 203.45
10 -1 -1 838.04 338.08
10 -1 1 786.45 277.07
-10 -1 1 445.15 198.08
10 1 -1 797.17 324.23
-10 -1 -1 981.81 290.77
-10 1 1 708.92 213.89
-10 1 -1 550.49 217.4
-10 -1 -1 500.77 221.37
-10 1 -1 976.04 275.77
10 1 1 699.12 285.24
-10 1 1 742.04 229.27
-10 -1 1 586.26 256.51
10 1 -2 204.94 303.38
-10 1 -2 252.49 244.54
-10 -1 -2 123.79 212.79
-10 -1 2 262.27 176.45
-10 1 -2 103.71 191.9
-10 -1 -2 324.91 232.08
10 1 2 444.4 274.15
10 -1 -2 317.27 300.82
-10 1 2 140.94 183.63
10 -1 2 439.68 244.3
-1 -10 2 -7.82 226.25
-1 -10 3 -190.16 268.96
-10 1 -3 38.57 205.07
-10 -1 -3 238.7 245.19
10 1 3 265.27 231.79
-10 -1 -3 104.05 237.35
1 -10 3 301.33 281.55
10 -1 -3 257.7 339.68
-10 1 -3 -13.42 222.11
-10 1 3 109.21 190.83
-1 10 -3 330.44 246.54
10 1 -3 62.83 328.99
-1 -10 -4 156.55 229.46
1 -10 4 -242.59 386.4
-10 1 -4 -12.63 223.28
-10 -1 -4 -170.48 253.11
-10 1 -4 297.65 271.26
-1 -10 4 -33.96 312.64
10 -1 -4 230.52 364.34
-10 -1 -4 135.91 279.04
10 1 -4 22.31 352.54
-1 -10 5 1734.37 481.36
10 1 5 2306.88 685.08
-10 -1 -5 1767.15 387.49
-10 1 -5 1938.38 394.55
-10 -1 -5 1914.07 430.37
1 -10 5 1560.68 444.76
10 -1 -5 1962.02 538.61
-10 1 -5 2082.51 462.98
10 -1 5 2262.66 681.36
10 1 -5 1823.1 515.8
1 10 6 136.72 199.87
-1 -10 6 327.27 425.22
-10 -1 -6 115.51 267.78
1 -10 6 -143.83 438.32
10 1 6 173.82 551.78
-10 1 -6 40.34 278.84
-10 1 -6 198.86 302.7
-10 -1 -6 153.43 349.3
-1 10 -6 470.14 230.75
10 -1 -6 985.96 518.52
1 10 -6 428.55 260.98
-1 10 6 205.56 235.54
10 1 -6 32.28 396.11
10 -1 6 -57.44 557.18
-10 -1 7 -103.35 230.55
1 -10 7 -406.2 517.53
-1 -10 7 84.07 428.23
-10 -1 7 -147.18 202.29
-10 1 -7 368.45 321.17
-10 -1 -7 193.06 319.08
1 10 -7 12.8 230.83
-10 -1 -7 338.71 380.42
-1 10 -7 94.66 229.24
10 1 7 563.19 589.57
-10 1 -7 -60.3 316.78
-10 -1 -7 103.74 231.51
10 -1 7 -308.17 598.85
10 -1 -7 138.66 442.53
1 10 7 34.75 225.14
-1 10 7 119.61 235.65
10 1 -7 197.31 412.11
-10 1 7 -3.64 190.69
-10 1 7 -617.68 227.29
-10 -1 -8 -400.65 364.96
-10 1 8 397.4 244.05
-10 1 -8 75.75 324.8
1 -10 8 142.07 480.23
-1 -10 8 539 502.39
10 1 8 -298.57 645.94
1 10 -8 -23.27 261.2
-10 -1 -8 107.72 370.18
-10 1 -8 -290.07 330.91
-1 10 -8 -127.84 251.23
-10 1 -8 125.41 246.34
10 -1 8 732.45 764.82
-10 -1 -8 -46.39 233.52
-10 -1 8 -38.42 205.93
10 -1 -8 598.65 502.17
-1 -10 -8 -136.57 211.41
1 10 8 91.41 215.37
-1 10 8 49.75 237.33
10 1 -8 -414.73 484.32
-10 -1 -9 919.29 461.24
10 1 9 477.48 607.86
-1 -10 9 414.27 468.92
-10 1 -9 -13.67 298.02
1 10 -9 575.84 294.98
1 -10 9 850.82 533.39
10 -1 9 1362.1 770.59
1 -10 -9 772.16 261.82
1 10 9 367.85 266
-10 -1 -9 469.69 306.51
-10 1 -9 176.29 299.91
-10 1 -9 547.44 262.78
-10 -1 -9 667 281.86
-10 -1 9 661.88 276.7
10 -1 -9 294.61 514.69
-1 -10 -9 825.51 278.43
-1 10 9 614.32 280.17
-10 1 9 438.24 239.16
10 1 -9 726.54 475.12
-1 10 -9 531.73 291.43
-10 1 -10 197.6 218.88
-10 -1 10 393.58 228.47
-1 10 -10 282.23 235.31
-10 -1 -10 408.03 245.24
1 -10 -10 294.3 230.28
-10 1 10 197.83 192.68
1 10 10 105.02 228.62
-1 10 10 839.71 290.15
-1 -10 -10 283.85 211.22
1 10 -10 213.76 242.69
1 10 11 567.34 256.53
1 10 -11 -129.57 249.85
1 -10 -11 199.5 225.57
-1 10 -11 -805.8 350.4
-1 -10 -11 250.98 218.09
-10 1 -11 -127.55 205.89
-10 -1 -11 291.35 221.84
-1 10 -11 -785.28 267.59
-1 10 11 291.88 228.87
-10 1 11 -177.53 209.91
-10 -1 11 46.19 197.86
1 10 12 433.31 239.49
1 -10 -12 0.35 201.43
-1 10 -12 -0.63 250.4
-10 1 -12 -104.43 200.32
-10 -1 -12 173.02 198.92
-1 -10 -12 3.62 193.24
-1 10 12 200.08 220.91
-10 -1 12 43.6 185.8
10 -1 -12 -259.23 234.49
1 -10 -13 -1.73 172.39
10 1 -13 -344.59 215.41
1 10 -13 122.07 219.08
-1 -10 -13 7.78 178.68
-10 -1 -13 -69.71 161.52
-1 10 -13 77.2 207.23
1 10 13 130.62 179.87
-1 10 13 59.95 177.07
10 -1 -13 -0.17 197.98
-1 -10 -14 -2.55 143.53
-1 10 -14 282.18 169.38
1 10 -14 109.89 169.84
-10 -1 -14 69.24 133.12
-1 10 14 118.33 148.26
1 -10 -14 -1.68 131.4
1 10 14 142.6 143.52
-10 1 14 120.12 157.21
10 -1 -14 34.12 161.71
10 1 -14 160.89 167.09
10 -1 -15 0.25 121.75
-10 1 15 301.57 139.94
10 1 -15 -0.7 127.65
-10 -1 15 -50.81 105.03
-10 2 0 3235.81 332.06
10 2 0 3450.82 470.07
-10 2 0 3317.97 384.82
-10 -2 0 3557.42 350.23
-10 -2 0 3541.02 450.31
10 -2 0 3679.5 452.76
-10 2 1 1942.38 245.35
-10 -2 -1 2101.24 333.23
10 2 -1 2053.93 405.13
10 -2 1 2178.08 345.29
-10 2 1 2185.39 334.27
-10 -2 1 2108.51 262.39
-10 2 -1 2200.85 307.78
-10 2 -1 1967.11 332.57
10 -2 -1 2117.77 413.09
10 2 1 2544.04 401.02
-10 -2 -1 2676.4 407.16
-10 -2 -2 1031.6 329.38
10 2 -2 1091.17 370.95
-10 2 -2 799.48 263.71
2 10 -2 625.54 273.1
10 2 2 754.88 294.3
-10 -2 -2 610.06 280.36
10 -2 -2 1000.71 374.05
-10 2 2 459.28 222.05
-10 2 -2 918.54 287.53
-2 10 -2 614.97 270.7
-10 -2 -3 172.34 260.57
-10 -2 -3 201.94 251.28
10 2 -3 374.53 341.02
2 -10 3 455.73 332.24
-2 -10 3 262.38 293.65
2 10 -3 248.55 230.43
10 2 3 -157.65 240.13
-10 2 -3 350.96 218.14
-10 2 -3 316.44 251.25
10 -2 -3 32.35 333.57
-10 2 3 433.63 238.72
-2 10 -3 400.87 232.03
-2 -10 -4 563.07 296.23
-10 -2 -4 642.41 296.91
-2 -10 4 1083.68 414.55
-10 2 -4 516.39 269.42
-10 -2 -4 653.31 310.35
10 -2 -4 834.69 431.72
2 -10 4 1184.6 422.42
-10 2 -4 718.05 293.71
2 10 -4 935.6 281.9
-2 10 -4 808.11 228.53
10 2 -4 502.12 353.01
-10 -2 -5 4010.87 528.94
-10 2 -5 3574.91 493.16
-10 2 -5 4003.99 530.04
10 -2 5 4743.45 855.58
2 -10 5 3907.12 639.89
-2 -10 5 4411.88 610.15
10 -2 -5 4374.36 672.84
10 2 5 4989.52 828.73
-10 -2 -5 3692.79 551.57
10 2 -5 3635.35 626.75
2 -10 6 978.57 521.53
-10 -2 -6 1520.56 445.34
-2 -10 6 2098.67 554.79
-2 10 -6 1825.06 308.57
-10 2 -6 1611.26 400.69
-10 2 -6 1542.61 372.65
10 2 6 1072.65 588.96
10 -2 -6 1583.78 514.82
-10 -2 -6 1786.89 418.48
2 10 6 1965.99 322.8
-2 10 6 1233.85 269.53
-10 -2 6 1704.94 299.19
10 -2 6 2394.7 765.23
10 2 -6 1283.27 484.23
2 10 -6 1959.46 341.81
-10 -2 7 2168 327.98
-10 -2 -7 1939.6 531.51
10 -2 7 1692.44 751.29
2 10 7 2148.68 359.41
-2 -10 7 1841.59 378.9
-10 -2 -7 2223.48 339.84
2 -10 7 1469.88 551.48
-2 -10 7 2052.56 536.75
-10 2 7 1627.37 284.64
-10 2 -7 1685.28 436.44
-10 -2 -7 2212.27 476.3
-2 10 -7 1995.32 339.94
10 2 7 2253.65 795.74
2 10 -7 2192.56 361.86
-2 -10 -7 1925.35 306.44
10 -2 -7 1597.31 596.34
-10 2 -7 1783.3 446.37
-2 10 7 1998.18 347.08
10 2 -7 1791.2 539.1
-10 -2 7 2072.8 323.91
10 2 8 1275.92 747.57
10 2 -8 1513.76 537.5
-2 -10 8 1789.61 376.21
10 -2 8 1403.64 776.4
2 -10 8 1822.54 649.83
-10 -2 8 1499.39 302.53
-2 -10 8 1919.58 595.46
2 10 -8 1848.31 360.07
-10 -2 -8 1780.62 577.64
10 -2 -8 1892.49 619.19
-2 10 -8 1340.17 294.08
-10 2 -8 1764.28 458.57
-10 -2 -8 1714.84 328.56
-2 -10 -8 1823.88 316.81
-10 2 -8 1343.43 409.06
-10 -2 -8 1408.81 416.41
2 10 8 1860.21 333.24
-2 10 8 1511.31 349.34
-10 2 8 1362.21 300.85
-10 -2 8 746.44 254.85
10 -2 -9 566.85 525.72
-10 -2 -9 424.26 259.73
10 -2 9 37.59 642.14
10 2 9 857.42 698.52
-2 -10 9 -263.54 443.95
2 -10 9 1052.44 627.05
-10 -2 -9 500.24 434.19
-2 -10 9 480.26 272.07
-10 2 9 414.71 223.68
-10 -2 -9 423.36 326.86
-2 10 -9 451.39 258.46
-10 2 -9 180.21 301.03
-10 2 -9 1103.36 402.5
2 10 9 852.3 290.43
-2 10 9 489.6 275.62
2 10 -9 286.54 276.86
-10 -2 9 406.2 244
-2 -10 -9 594.38 259.37
10 2 -9 -393.26 457.45
2 10 -10 -101.92 224.19
-2 10 -10 111.46 323.27
-2 10 -10 -181.1 228.35
-2 -10 -10 214.38 234.44
-10 -2 -10 126.27 216.37
-2 -10 10 -11.9 271.02
2 10 10 206.45 231.13
-2 10 10 105.66 229.88
-10 2 10 -24.78 198.88
-10 -2 10 176.29 212.13
2 -10 -10 116.24 211.46
2 10 -11 -328.62 271.38
-2 10 -11 -158.17 231.71
-10 -2 -11 -78.62 195.86
-2 -10 -11 -13.25 227.54
2 -10 -11 -102.51 204.98
2 10 11 98.4 215.03
-2 10 11 54.83 220.39
-10 -2 11 -114.83 199.92
-2 10 -11 137.36 305.57
2 10 12 397.09 218.11
-2 10 -12 185.25 276.78
-10 -2 -12 0.71 192.96
-2 -10 -12 1.83 203.56
2 -10 -12 2.73 199.33
-2 10 12 133.13 210.48
-10 -2 12 87.03 188.53
10 -2 -12 -153.76 209.8
-2 10 -13 191.9 213.02
10 -2 -13 9.22 177.13
-2 -10 -13 -3.01 178.76
2 10 -13 -258.22 249.81
-10 -2 -13 58.88 158.24
2 -10 -13 -1.95 155.28
2 10 13 37.96 173.52
-2 10 13 145.36 189.87
10 2 -13 -134.5 212.62
2 10 14 -154.37 132.04
-2 10 -14 272.12 149.39
2 10 -14 103.89 178.79
-10 -2 -14 73.98 137.76
-2 -10 -14 5.69 148.86
-10 2 14 2.21 150.06
10 -2 -14 0.74 159.8
10 2 -14 33.16 151.86
-2 10 14 5.84 141.84
2 -10 -14 -3.07 131.54
10 -2 -15 -2.92 116.09
-10 2 15 234.02 117.95
10 2 -15 14.79 137.2
-10 -2 15 165.76 116.47
-10 -3 0 -60.02 152.01
-10 3 0 18.4 138.16
10 3 0 -205.75 297.4
-10 3 0 -61.52 209.11
10 -3 0 -52.47 251.71
10 3 -1 917.51 351.82
10 3 1 595.57 282.87
-10 -3 -1 626.25 305.38
10 -3 1 602.94 227.62
-10 -3 -1 847.03 257.09
3 10 -1 861.51 300.95
-10 3 -1 665.69 270.19
-10 -3 1 468.41 162.91
10 -3 -1 615.74 291.65
-10 3 1 822.6 262.74
-3 10 -1 574.47 268.81
-10 3 -1 858.04 231.18
-10 3 -2 309.74 196.53
-10 -3 -2 310.26 266.03
3 10 -2 9.61 245.72
10 3 -2 -130.7 295.8
10 -3 -2 69.8 322.15
10 3 2 364.32 275.29
-10 3 -2 183.05 224.45
-10 3 2 97.39 208.09
-3 10 -2 -44.34 219.42
-10 -3 -2 -102.74 242.94
10 3 -3 1481.56 429.96
10 3 3 1270.45 338.12
-10 -3 -3 1297.3 357.37
3 -10 3 1476.36 394.67
-10 3 -3 1558.93 313.19
-10 -3 -3 1448.58 331.49
10 -3 -3 1149.86 411.4
3 10 -3 1456.37 328.19
-10 3 -3 1688.13 360.89
-3 10 -3 1425.37 308.67
-10 3 3 1493.88 322.77
10 -3 -4 2344.32 559.54
10 3 -4 1813.53 482.4
-3 -10 -4 2140.43 417.94
-10 -3 -4 1990.6 416.82
3 10 -4 1755.93 340.89
-10 -3 -4 2365.93 433.26
-3 -10 4 2021.4 454.03
-10 3 -4 1698.21 360.76
10 -3 4 2044.55 666.94
-10 3 -4 2580.84 433.95
3 -10 4 1840.01 479.73
-3 10 -4 1927.39 322.16
10 3 -5 674.27 413.16
10 -3 5 808.47 642.76
-10 -3 -5 338.75 265.23
-10 3 -5 672.52 317.05
-3 -10 -5 635.16 277.82
-3 -10 5 1128.45 424.99
3 -10 5 269.15 425.12
-10 -3 -5 985.55 383.98
10 -3 -5 813.42 478.02
-10 3 -5 1212.27 358.25
-3 10 -5 868.54 254.3
-10 3 -6 251.77 292.44
10 3 -6 259.37 387.18
-10 -3 6 -7.78 215.17
-10 -3 -6 429.1 323.34
-3 -10 6 94.49 401.45
-10 3 -6 -105.09 281.13
10 -3 -6 -72.42 469.78
-10 -3 -6 202.82 361.35
3 -10 6 805.64 512.03
-10 -3 -6 173.12 229.31
10 -3 6 494.97 666.37
3 10 -6 427.05 262.34
-3 10 -6 203.27 210.85
3 10 6 355.58 243.01
-3 10 6 253.46 227.39
-10 -3 6 -49.85 207.02
10 3 6 113.89 529.17
10 3 -7 -83.09 426.08
10 3 7 -299.29 609.53
-10 3 -7 207.16 259.72
10 -3 7 22.21 661.95
-3 -10 7 -3.95 266.55
3 -10 7 -47.11 509.3
-3 -10 7 -131.09 459.75
-10 -3 -7 -110.83 283.06
10 -3 -7 334.11 505.33
-10 -3 -7 647.45 452.2
-10 3 -7 -67.63 293.16
-3 10 -7 15.75 218.17
3 10 -7 413.57 292.42
-10 3 -7 -89.29 317.23
-10 -3 -7 213.83 231.76
-10 3 7 40.49 190
-3 -10 -7 218.1 224.28
3 10 7 554.38 279.87
-3 10 7 465.09 248.04
-10 -3 7 42.95 220.23
-10 -3 7 -34.73 222.2
-3 10 -7 269.37 328.03
10 3 -8 1162.87 512.07
10 -3 -8 -351.47 572.73
3 -10 8 345.92 560.66
-10 3 -8 168.56 281.85
10 3 8 -874.24 694.57
10 -3 8 51.67 716.05
-3 -10 -8 107.58 228.6
-10 -3 -8 19.16 374.93
-3 -10 8 802.62 508.54
-10 -3 8 584.33 258.55
3 10 8 562.43 267.67
-10 -3 -8 596.44 375.94
-10 3 -8 408.45 309.06
3 10 -8 437.68 276.29
-10 -3 -8 237.02 247.59
-10 3 -8 343.37 357.56
-10 -3 8 -41.81 246.2
-3 10 8 290.44 253.47
-10 3 8 266.66 221.04
-3 10 -8 405.96 246.09
-3 -10 8 242.44 301.6
3 10 9 45.68 233.17
10 3 -9 30.16 438.74
10 3 9 222.11 664.44
-3 10 -9 177.32 235.19
3 -10 9 413.59 559.19
-10 -3 9 187.53 242.37
-3 10 -9 -512.75 392.2
3 10 -9 137.57 249.22
-10 -3 -9 168.61 236.53
-10 3 -9 173.49 315.79
-3 -10 -9 -70.31 237.52
-3 10 9 238.77 251.75
-10 3 9 286.67 229.12
-3 -10 9 -122.62 250.57
3 10 -10 -4.43 222.06
-3 10 -10 -709.3 260.21
-3 -10 -10 51.14 228.61
-3 10 -10 -267.34 330.74
-10 -3 -10 135.63 220.88
3 -10 -10 307.98 230.75
3 10 10 204.07 227.5
-3 10 10 -93.73 231.79
-10 -3 10 69.85 211.14
-3 -10 10 -285.58 289.16
3 10 -11 739.98 252.5
-10 -3 -11 1151.19 274.92
-3 10 -11 1106.51 338.4
-3 -10 11 971.72 295.9
-3 -10 -11 1630.14 326.64
3 -10 -11 1317.92 263.41
3 10 11 1438.36 295.11
-3 10 11 531.56 254.49
-10 -3 11 1192.8 281.22
10 -3 -11 764.36 238.8
3 -10 -12 1.33 193.5
3 10 12 453.63 224.56
-10 -3 -12 344.43 210.42
-3 -10 -12 19.75 223.92
-3 10 -12 301.85 241.54
-3 10 12 426.52 228.19
-10 -3 12 144.87 198.47
-3 -10 12 272.05 253.92
10 -3 -12 4.92 226.48
-10 -3 -13 32.49 161.13
-3 10 -13 210.08 203.79
3 10 -13 -263.86 242.76
-3 -10 -13 9.68 175.37
3 -10 -13 6.39 169.81
3 10 13 116.11 179.49
-3 10 13 254.93 193.6
10 -3 -13 4.57 179.24
10 3 -13 -162.93 192.41
3 10 -14 -86.85 169.79
-10 -3 -14 -114.9 143.28
-3 -10 -14 3.86 145.12
-3 10 14 269.64 160.79
-10 3 14 17.77 144.74
10 -3 -14 -3.2 156.85
10 3 -14 -137.37 164.88
10 3 -15 -3.46 109.11
10 4 0 4675.28 548.16
-10 4 0 5227.94 494.76
4 10 0 5135.92 571.94
-4 10 0 5589.53 551.09
-10 -4 0 4770.1 376.67
10 -4 0 5819.64 547.28
-10 4 -1 3923.12 471.15
10 4 -1 3396.42 512.52
-10 4 -1 3730.55 365.38
-10 4 1 3950.82 443.83
10 4 1 3725.99 487.82
4 10 -1 4222.06 508.56
-10 -4 -1 3635.58 401.53
10 -4 -1 4033.71 515.39
-4 10 -1 3970.08 466.62
-10 -4 -1 3711.53 506.26
4 10 -2 245.24 246.79
-10 -4 -2 354.69 303.07
-10 4 -2 249.97 185.66
10 -4 -2 557.02 376.34
10 4 -2 337.49 318.75
-10 -4 -2 222.9 240.17
-10 4 -2 269.35 232.36
10 4 2 343.78 271.35
-10 4 2 143.26 232.53
-4 10 -2 217.84 221.92
-10 4 -3 -117.01 227.01
4 10 -3 -157.64 251.44
-10 -4 -3 258.05 311.07
-4 10 -3 -98.66 237.08
10 4 -3 174.03 326.72
4 -10 3 333.45 357.82
10 -4 -3 -98.36 388.25
-10 -4 -3 162.31 247.5
-10 4 -3 -206.71 293.22
10 4 3 -283.36 292.02
-10 4 3 7.39 232.14
-10 4 -4 570.38 321.8
-4 -10 -4 141.51 289.89
10 4 -4 -21 345.4
-10 -4 -4 211.76 282.73
10 -4 4 322.3 530.77
-10 4 -4 197.42 265.65
4 -10 4 304.42 410.33
-10 -4 -4 449.84 321.39
10 -4 -4 127.33 453.75
-4 10 -4 278.62 247.52
4 10 -4 88.36 261
-10 -4 -5 74.23 323.34
-10 -4 -5 279.56 292.14
10 4 -5 728.44 423.28
-4 -10 -5 505.05 291.02
4 -10 5 557.31 472.52
10 -4 5 542.26 635.21
-4 -10 5 -419.71 494.02
-10 4 -5 24.32 254.76
10 -4 -5 780.9 509.22
-10 4 -5 663 341.09
4 10 -5 189.35 251.11
-4 10 -5 389.03 259.59
-4 -10 6 77.11 237.01
-4 10 6 -122.89 311.3
-10 -4 -6 355.61 346
-4 -10 6 -179.77 462.51
-10 -4 6 30.33 229.27
10 4 6 -681.04 584.31
-10 -4 -6 -370.02 393.63
10 4 -6 -378.54 446.44
-10 4 -6 22.58 305.99
4 -10 6 1090.91 600.64
-10 4 -6 -221.91 260.94
-4 10 -6 -30.84 289.87
-4 -10 -6 -138.26 252.79
10 -4 -6 -416.86 562.73
-10 4 -6 -116.59 289.58
-4 10 -6 -559.38 390.04
10 -4 6 358.25 647.97
4 10 -6 142.59 263.03
-4 10 -6 -67.39 194.66
-10 -4 -6 -78.91 221.76
-4 -10 -6 239.76 220.37
4 10 6 115.24 230.87
-4 10 6 35.8 221.19
-10 -4 6 233.39 223
-10 -4 7 785.93 263.72
-10 4 -7 730.53 356.59
10 4 -7 1405.66 574.91
-10 4 -7 700.45 385.74
-4 10 -7 1287.43 368.06
4 10 -7 1141.83 317.02
10 -4 7 1407.02 822.53
10 4 7 690.98 591.02
4 -10 7 941.09 623.91
-10 -4 -7 719.67 363.13
-4 -10 7 716.18 489.55
-4 10 -7 247.46 343.55
-4 10 7 836.75 334.86
-10 4 -7 443.03 266.37
-10 -4 -7 244.59 384.79
-4 10 -7 1374.59 301.78
-10 -4 -7 710.62 273.19
-4 -10 -7 691.28 272.59
10 -4 -7 278.67 555.2
4 10 7 1249.36 316.32
-4 -10 7 1013.57 327.82
-4 10 7 1053.32 292.44
-10 4 7 833.58 269.91
-10 -4 7 731.25 263.99
10 4 8 -422.7 665.24
-10 -4 8 310.94 239.78
-4 -10 8 1026.44 323.58
-10 4 -8 515.13 285.95
10 4 -8 1060.64 527.66
-4 10 -8 1444.73 380.03
-10 -4 -8 574.55 268.91
4 10 -8 1167.2 311.44
10 -4 8 144.3 722.15
-10 -4 -8 767.17 409.19
4 -10 8 734.19 589.55
-4 -10 8 130.72 488.46
4 10 8 598.35 275.93
10 -4 -8 905.47 601.72
-10 -4 -8 426.41 462.5
-4 10 -8 95.19 364.23
-10 4 -8 797.62 357.64
-4 -10 -8 966.55 286.09
-10 4 -8 619.32 351.35
-4 10 8 745.28 296.7
-10 4 8 494.61 233.14
-10 -4 8 514.18 235.01
-4 10 -8 579.16 269.25
4 10 9 423.77 263.32
-4 10 -9 97.65 214.51
-4 10 -9 -104.86 331.09
-10 -4 9 247.98 228.34
-4 10 9 -30.65 237.47
-10 -4 -9 109.79 237.45
-4 -10 -9 197.14 230.04
4 10 -9 -329.87 274.62
-4 -10 9 133.41 272.9
-10 4 -9 -229.02 261.04
-4 -10 -10 -99.43 231.86
-4 10 -10 -148.59 223.99
4 10 -10 37.37 207.81
-10 -4 -10 -203.86 227.83
-4 10 -10 -122.38 327.07
4 10 10 -149.3 210.95
-4 10 10 76.62 241.24
-10 -4 10 111.88 212.94
-4 -10 10 -25.93 231.51
-4 10 -11 287.49 306.75
-10 -4 -11 -22.57 198.58
4 10 -11 -210.97 231.37
-4 -10 -11 637.12 261.81
4 10 11 179.27 213.79
-4 10 11 182.21 217.68
-10 -4 11 119.35 212.6
-4 -10 11 -485.3 291.35
10 -4 -11 -191.94 223.04
4 10 12 423.1 218.5
-10 -4 -12 -78.95 187.61
-4 -10 -12 12.63 236.82
-4 10 -12 400.5 261.62
4 -10 -12 4.93 194.7
-4 10 12 90.79 193.55
-10 -4 12 115.05 190.48
-4 -10 12 27.14 217.28
10 -4 -12 3.1 198.65
-4 10 -13 480.33 200.25
-4 -10 13 -103.68 184.77
-4 -10 -13 -0.15 175.19
-10 -4 -13 -243.68 172.62
-4 10 13 107.91 169.45
-10 4 13 -213.3 186.2
-10 -4 13 -14.08 176.85
10 -4 -13 0.28 163.17
10 4 -13 -2.22 200.82
4 10 -14 5.25 173.16
-10 -4 -14 100.56 130.09
-4 -10 -14 -16.54 140.74
10 -4 -14 4.94 130.66
-10 4 14 47.75 138.75
10 4 -14 81.74 147.62
-4 10 14 295.35 156.7
10 5 0 -498.7 335.01
5 10 0 -152.47 281.79
10 -5 0 283.99 281.71
-10 5 0 7.68 236.58
-5 10 0 189.26 260.17
-10 5 -1 187.46 243.84
10 5 1 384.85 330.9
-10 -5 -1 -20.14 194.83
10 -5 -1 50.32 295.95
10 5 -1 87.63 292.74
-10 5 1 -181.52 273.05
5 10 -1 -60.8 277.91
-5 10 -1 380.55 271.01
10 -5 -2 336.87 363.95
10 5 2 202.5 273.92
-10 -5 -2 637.01 356.7
5 10 -2 443.78 303.73
-10 5 -2 426.06 259.71
10 5 -2 199.34 309.01
-10 -5 -2 153.88 214.99
-10 5 -2 179.32 203.14
-5 10 -2 1.12 249.36
-10 5 2 152.69 244.93
10 5 -3 3951.13 597.35
-10 5 -3 3997 459.09
5 10 -3 3759.24 497.71
10 5 3 4653.53 561.77
10 -5 3 3228.04 695.25
-10 -5 -3 3546.45 489.82
-10 5 3 4430.8 515.51
-5 10 -3 3857.88 461.71
10 -5 -3 4049.94 668.08
-10 5 -3 3917.64 502.48
-10 -5 -3 3743.82 544.09
10 -5 -4 3236.14 668.37
-10 5 -4 2971.19 448.63
-5 -10 -4 3015.59 518.6
5 -10 4 3158.03 608.41
-10 -5 -4 2855.64 496.68
-10 5 -4 3325.95 492.74
10 -5 4 3191.97 776.25
5 10 -4 2838.93 456.27
-10 -5 -4 3202.72 512.03
-5 10 -4 2931.51 423.63
10 5 -4 2601.92 546.67
-10 -5 5 1416.28 319.92
-10 5 -5 916.14 363.97
-10 5 -5 1119.55 326.61
10 5 5 967.45 505.85
-10 5 -5 599.49 274.97
-5 -10 -5 915.54 342.53
10 -5 5 444.78 650.15
5 -10 5 1225.86 565.45
-10 -5 -5 1059.43 376.08
10 5 -5 1090.78 445.73
-5 10 -5 787.77 325.15
5 10 -5 1060.46 367.71
-10 5 -5 1022.97 350.22
-10 -5 -5 1199.65 435.42
-10 -5 -5 934.63 264.95
-5 10 -5 1044.55 328.53
10 -5 -5 1242.66 572.87
-10 -5 5 994.98 261.85
-5 -10 6 69.47 244.98
-10 -5 6 318.68 257.54
5 10 6 321.11 243.3
-10 5 -6 597.78 329.61
-5 10 -6 206.03 297.24
10 -5 6 542.12 696.68
10 5 6 159.28 527.89
-5 -10 -6 -85.51 340.22
5 -10 6 278.51 537.97
-5 10 6 428.83 298.09
10 5 -6 800.29 422.29
-10 -5 -6 -291.27 363.21
-10 5 -6 34.12 266.16
-10 5 -6 223.16 293.27
5 10 -6 614.7 273.49
-5 10 -6 253 211.7
-10 -5 -6 249.13 230.63
10 -5 -6 415.41 565.67
-5 -10 -6 253.11 223.48
-10 5 -6 -8.39 301.28
-5 10 -6 -125.44 357.17
-5 10 6 503.35 257.07
-5 10 -6 -260.68 286.87
-10 -5 6 476.07 265.95
-10 -5 -6 477.79 412.29
-10 -5 7 28.98 255.26
10 -5 7 -29.9 639.23
-10 -5 -7 86.86 352.67
5 10 -7 34.41 247.64
-5 10 -7 814.49 364.09
5 -10 7 685.26 628.53
-10 5 -7 -317.42 306.9
-10 5 -7 291.91 316.36
10 5 7 436.75 565.28
10 -5 -7 -306.86 598.76
-10 -5 7 43.22 233.53
-5 10 -7 -358.13 363.77
-10 -5 -7 -241.38 431.66
10 5 -7 -138.52 398.79
-10 -5 -7 332.22 238.76
-5 -10 -7 -39.95 245.91
-10 5 -7 -200.37 326.66
5 10 7 61.63 262.38
-5 10 7 -45.57 230.14
-5 -10 7 143.96 269.88
-5 10 -7 -51.99 242.91
-10 -5 -8 -685.14 469.52
-10 -5 -8 -158.7 316
5 10 -8 -102.46 252.03
-5 10 -8 171.87 344.09
5 -10 8 -217.41 648.43
10 5 -8 -287.68 407.14
10 -5 8 -174.29 724.08
-10 5 -8 42.66 325.51
-5 10 -8 -49.05 342.92
5 10 8 64.24 236.86
-5 10 -8 -44.12 219.29
10 -5 -8 -306.65 571.33
-10 5 -8 -343.36 315.47
-10 -5 -8 5.54 228.1
-5 -10 -8 -53.34 235.18
-10 5 -8 -68.2 344.66
-5 10 8 124.83 251.82
-10 -5 8 110.44 234.25
-5 -10 8 144.72 264.81
-10 -5 8 -393.35 294.69
-10 5 -9 -291.86 291.42
-5 -10 9 131.13 245.96
5 10 -9 35.5 254.41
-5 10 -9 -373.44 341.31
-10 -5 -9 335.2 240.87
-5 -10 -9 27.31 240.62
5 10 9 57.2 220.49
-5 10 9 -66.58 248.28
-10 -5 9 -97.35 231.37
-5 10 -9 -119.68 226.19
-5 10 -10 436.17 309.9
5 10 -10 480.77 222
-10 -5 -10 612.51 260.51
-10 5 -10 359.13 246.98
-5 -10 -10 604.71 265.96
5 10 10 421.21 231.54
-5 10 10 424.15 270.93
-5 -10 10 326.88 249.86
-10 -5 10 456.74 234.42
10 -5 -10 181.6 208.17
-5 10 -10 112.49 214.2
5 10 -11 102.94 179.72
-5 -10 11 865.81 279.73
-10 -5 -11 721.84 258.03
-5 -10 -11 822.49 271.27
5 10 11 321.21 227.12
-5 10 11 438.61 240.31
-10 -5 11 700.18 258.65
10 -5 -11 591.39 215.97
-5 10 -11 816.75 321.79
-5 10 -12 399.01 230.3
-10 -5 -12 237.13 204.79
-5 -10 -12 2.58 208.8
-5 10 12 -70.18 199.75
-10 5 12 60.7 185.74
10 -5 -12 -2.59 173.42
-10 -5 12 100.98 192.41
-5 -10 12 -124.54 207.03
-5 10 -13 -137.08 184.28
-5 -10 -13 0.3 168.3
-10 -5 -13 -55.44 163.52
-10 5 13 -4.74 161.64
10 -5 -13 4.78 164.48
-10 -5 13 15.82 159.4
-5 -10 13 175.26 175.33
10 5 -13 -278.61 192.87
-5 10 13 179.95 181.19
-5 -10 -14 8.61 140.14
-10 -5 -14 -79.16 128.08
5 10 -14 163.96 161.76
-5 10 14 57.91 145.93
10 -5 -14 18.27 127.6
-10 5 14 226.45 143.15
10 5 -14 -1.1 136.79
10 6 0 147.52 299.01
-6 10 0 119.82 256.25
6 10 0 16.08 280.37
-10 6 0 374.62 289.82
-10 6 -1 258.6 268.46
10 6 1 287.91 294.2
-10 -6 -1 140.95 197.62
6 10 -1 84.64 295.54
6 10 1 257.69 321.51
-10 6 1 -127.8 263.96
-6 10 -1 -74.01 280.9
-6 10 1 49.98 303.79
10 -6 -1 73.16 334.21
10 6 -1 108.48 320.06
-10 -6 -2 -257.01 263.64
6 10 -2 -145.57 325.63
-10 -6 -2 248.22 317.33
10 6 2 -98.85 297.97
10 -6 -2 288.05 402.06
10 -6 2 -424.44 461.84
10 6 -2 -22.82 307.67
-6 10 -2 -310.27 292.35
-10 6 2 -6.55 252.78
-10 6 -2 14.85 254.23
10 6 3 -187.08 332.35
-10 -6 -3 344.11 313.86
10 -6 3 319.93 492.82
10 -6 -3 728.24 484.65
10 6 -3 119.48 329.3
-10 6 -3 236.41 205.05
-10 -6 -3 477.14 276.92
-10 6 -3 50.19 273.98
6 10 -3 188.12 291
-6 10 -3 -95.38 290.49
-10 6 3 436.4 311.95
-6 -10 -4 360.69 363.7
10 -6 -4 286.9 476.61
-10 -6 -4 -125.33 312.35
6 10 -4 131.77 297.08
10 -6 4 710.34 644.7
6 -10 4 280.1 448.85
10 6 -4 267.78 386.13
-10 -6 -4 21.89 309.54
-10 6 -4 235.32 249.76
-10 6 -4 498.02 337.15
-6 10 -4 -232.89 302.8
-10 -6 5 -85.87 220.4
-6 -10 5 141.34 237.54
-10 -6 5 368.88 265.84
-10 6 -5 257.88 290.1
10 -6 -5 261.97 553.37
-10 6 -5 340.25 302.92
6 -10 5 387.75 462.03
-6 -10 -5 -59.05 313.6
-10 -6 -5 -248.84 342.18
-6 10 -5 -46.03 273.14
6 10 -5 -183.14 338.3
-10 -6 -5 92.58 336.9
10 6 -5 -92.33 396.39
-6 10 -5 -327.45 329.49
10 6 5 -3.12 491.23
-10 -6 -5 90.66 213.72
-6 -10 -5 20.95 215.25
6 10 -5 48.46 228.73
10 -6 5 72.28 613.1
-10 6 -5 333.48 294.43
6 10 5 -224.78 253.37
-6 10 -5 -59.52 209.92
-6 10 5 71.84 207.5
-6 10 -5 -185.86 280.65
-10 6 -5 -67.03 295.4
-6 -10 6 315.25 266.14
-10 -6 6 -79.73 253.94
-10 6 -6 241.54 307.97
-6 10 -6 169.66 323.84
10 6 6 132.29 514.31
-6 -10 -6 -671.57 369.18
6 -10 6 755.64 608.87
6 10 -6 -79.57 346.46
-10 -6 -6 -214.31 390.68
6 10 6 64.16 227.85
10 6 -6 -34.7 363.61
6 10 -6 327.87 266.06
10 -6 -6 4.27 554.82
-10 -6 -6 178.42 408.47
-6 10 -6 440.43 371.54
-10 -6 6 383.49 249.51
10 -6 6 -1016.08 769.18
-10 -6 -6 -65.39 220.31
-6 -10 -6 22.28 224.35
-6 10 -6 -41.25 229.53
-10 6 -6 -52.5 291.39
-10 6 -6 -119.45 293.83
-6 10 6 -52.21 231.63
-6 10 -6 217.46 282.61
-10 6 -6 152.36 278.67
-6 -10 6 -95.64 201.83
-10 -6 7 621.27 283.16
-10 -6 7 382.45 254.91
-10 -6 -7 640.36 394.26
-6 10 -7 1627.94 416.12
10 6 -7 132.1 389.2
10 -6 -7 606.71 592.43
-10 6 -7 322.1 332.07
-6 10 -7 700.44 368.3
-10 -6 -7 133.77 381.98
-6 -10 -7 132.42 313.02
-6 -10 -7 763.09 281.63
6 -10 7 456.07 615.23
6 10 -7 438.68 270.35
-10 6 -7 497.09 364.32
6 10 7 726.74 286.94
-6 10 7 656.13 280.43
-10 6 -7 218.98 286.93
-6 10 -7 723.09 263.06
-10 -6 -7 333.62 253.75
-6 -10 7 586.19 294.12
-10 -6 -8 6.71 237.55
10 -6 8 271.37 746.79
-6 10 -8 955.25 385.61
-10 -6 8 -164.05 299.13
-10 6 -8 205.86 336.91
6 10 -8 103.74 229.09
6 -10 8 1399.16 721.2
10 -6 -8 -454.17 554.66
-10 6 -8 -100.21 303.76
-10 6 -8 247.17 272.14
10 6 -8 84.61 406.5
-10 -6 -8 970.58 477.95
-6 -10 8 221.33 268.39
-6 10 -8 220 228.49
-6 -10 -8 202.49 245.11
-6 10 -8 315.06 372.6
6 10 8 164.81 261.39
-10 -6 8 510.73 271.12
-6 10 8 358.77 275.77
-10 -6 -8 -72.17 333.24
-6 10 -9 65.24 215.37
6 10 9 409.74 256.65
-6 10 -9 709.94 357.83
-10 6 -9 226.8 243.79
6 10 -9 791.32 251.06
-10 -6 -9 465.29 240.9
-6 -10 -9 385.47 247.54
-6 10 9 487.54 265.51
10 -6 -9 168.72 206.22
-10 -6 9 395.12 264
-6 -10 9 365.71 279.56
6 10 -10 -31.67 193.38
-6 10 10 350.25 257
-6 10 -10 454.89 296.07
-10 -6 -10 78.73 227.18
-6 -10 -10 370.77 236.76
6 10 10 290.7 224.33
10 -6 -10 190 200.16
-10 -6 10 85.71 206.74
-6 -10 10 196.63 227.1
-10 6 -10 142.97 229.47
-6 10 -11 25.81 267.78
-10 -6 -11 -213.95 229.66
-6 -10 -11 264.48 248.13
-10 -6 11 130.82 197.47
-6 10 11 153 218.53
-10 6 11 81.96 203.67
10 -6 -11 -5.8 191.57
-6 -10 11 155.37 234.81
-6 -10 -12 -6.36 196.7
-10 -6 -12 -59.84 193.08
-6 10 -12 -330.13 266.89
-6 10 12 -274.04 201.86
-10 6 12 -21.63 182.13
10 -6 -12 24.65 196.95
-10 -6 12 151.23 197.06
-6 -10 12 -27.38 233.22
-6 10 -13 -223.91 184.1
-6 10 13 -6.72 166.57
-6 -10 -13 0.57 172.72
-10 -6 -13 30.92 158.1
10 -6 -13 -13.9 147.41
-10 6 13 100.18 154.03
-10 -6 13 129.21 163.29
-6 -10 13 370.9 190.21
10 6 -13 -65.87 174.33
6 10 -14 -225.93 157.72
-6 10 14 200.94 137.56
-6 -10 -14 -4.54 133.03
-10 -6 -14 93.1 131.95
-10 6 14 8.43 124.38
10 6 -14 73.11 123.86
7 10 0 67.02 307.03
10 7 0 268 320.39
-10 7 0 -156.44 306.69
-7 10 0 84.15 288.97
10 7 1 428.51 333.19
7 10 -1 503.26 345.73
10 -7 -1 215.11 366.57
10 -7 1 52.65 395.95
7 10 1 510.43 333.97
10 7 -1 614.83 379.76
-10 7 -1 1033.49 365.65
-10 7 1 571.16 297.37
-7 10 -1 731.98 307.7
-7 10 1 825.12 400.01
10 -7 -2 1416.9 522.27
-10 -7 -2 1633.54 450.05
10 -7 2 1250.89 538.65
-10 -7 -2 1322.08 339.52
-10 7 2 1776.03 407.97
-10 7 -2 1906.55 442.41
-7 10 -2 1314.37 359.78
10 7 2 1367.42 409.23
7 10 -2 1179.83 392.48
10 7 -2 1032.24 417.19
-10 7 -3 215.01 280.58
10 7 3 -115.11 338.82
10 -7 -3 793.86 532.38
-10 -7 -3 180.6 255.11
-10 -7 -3 1020.67 387.63
10 -7 3 281.91 574.28
7 10 -3 634.08 379.66
-7 10 -3 340.43 315.03
10 7 -3 173.14 353.67
-10 7 3 956.47 406.83
-7 -10 -3 685.66 418.73
-10 -7 4 1151.68 285.62
-10 7 -4 1011.27 300.61
-7 -10 4 1293.59 279.09
-10 -7 4 1239.04 313.36
-7 -10 -4 1149.27 423.14
-10 7 -4 1614.65 363.04
-7 10 -4 805.42 291.02
10 -7 4 1564.42 697.73
7 -10 4 1093.16 507.84
10 -7 -4 1082.95 598.65
-7 10 -4 1376.8 354.79
-10 -7 -4 1248.88 286.11
-10 -7 -4 793.72 369.43
7 10 -4 1104.1 404.77
-10 7 -4 1497.41 345.31
-10 -7 -4 1077.72 403.56
7 10 4 1435.05 308.03
10 7 -4 798.14 432.47
-10 7 -4 1109.38 393.38
-7 10 -4 1063.91 356.59
-10 -7 5 350.69 227.23
-7 -10 5 396.75 251.04
-7 -10 5 527.55 217.22
-10 -7 5 493.86 301.84
10 -7 -5 782.85 612.97
10 -7 5 252.86 630.12
7 -10 5 640.83 574.55
-10 7 -5 2602.2 381.97
-7 10 -5 465.85 298.32
-7 -10 -5 196.61 349.54
10 7 5 594.18 469.62
-10 -7 -5 471.57 353.61
-7 10 -5 322.64 209.46
7 10 -5 644.49 397.34
-10 7 -5 422.35 296.98
-10 -7 -5 286.83 221.13
-7 -10 -5 752.63 257.67
7 10 -5 87.24 213.81
10 7 -5 421.36 409.02
-7 10 -5 793.15 348.68
-10 -7 -5 1177.2 443.81
7 10 5 622.5 266.38
-10 7 -5 553.41 305.33
-10 7 -5 1164.43 417.05
-7 10 5 696.24 255.17
-7 10 -5 826.96 380.47
-7 -10 6 1896.1 313.85
-7 -10 6 2204.88 383.21
-7 10 -6 2132.41 325.7
-7 -10 -6 2232.52 350.78
-10 -7 6 2016.8 376.21
10 -7 6 2121.27 833.92
7 10 -6 2474.75 352.45
7 10 -6 3294.89 591.46
-10 7 -6 3317.06 554.97
-10 7 -6 3257.61 440.35
10 -7 -6 2019.07 718.2
-7 10 -6 2654.67 428.27
-10 7 -6 1753.17 359.66
-7 -10 -6 1980.92 451.37
7 -10 6 3360.52 857.63
-10 -7 -6 2639.19 541.25
-10 -7 -6 2251.96 341.34
-10 -7 6 2609.03 385.68
-7 10 -6 2640.92 432.93
10 7 -6 2271.91 572.29
-10 -7 -6 2454.13 566.96
7 10 6 2426.82 385.9
-10 7 -6 2047.56 492.3
-7 10 -6 2010.39 431.84
-7 10 6 2414.57 369.94
-10 -7 7 509.73 292.91
-10 -7 -7 232.45 483.74
10 -7 7 121.34 701.51
-10 -7 -7 273.53 246.03
-10 7 -7 1646.65 391.57
-10 7 -7 1435.36 461.74
-7 10 -7 1341.85 375.52
7 -10 7 669.64 705.15
-10 -7 -7 996.98 418.34
-7 10 -7 506.7 243.34
-7 10 -7 714.92 359.63
10 -7 -7 1479.09 681.32
7 10 -7 800.49 262.53
10 7 -7 -56.02 419.59
-7 -10 -7 600.04 274.03
-10 7 -7 281.61 307.53
7 10 7 193.35 256.97
-10 7 -7 311.29 356.65
-7 10 7 632.37 295.79
-7 -10 7 33.38 219.61
-7 -10 -7 136.77 363
-10 -7 7 860.68 301.36
-7 -10 7 653.88 294.07
-7 -10 -8 -78.21 243.25
-7 10 -8 219.89 324.4
-10 7 -8 -491.25 316.45
-10 -7 -8 193.1 235.17
-7 10 -8 78.37 304.7
-7 10 -8 -2.31 214.07
-7 -10 8 140.5 261.43
7 10 8 -212.94 251.42
-7 10 8 -79.64 238.02
-10 -7 8 -7.58 221.01
-10 -7 8 -700.05 323.48
-7 -10 -9 1017.03 302.23
-10 7 -9 607.28 268.61
-7 10 -9 1053.54 352.58
-7 10 -9 767.86 249.01
-10 -7 -9 1069.45 296.72
7 10 9 1042.14 304.24
-7 10 9 1290.91 311.39
-10 7 9 1367.55 297.1
-10 -7 9 1279.31 310.73
-7 -10 9 764.31 290.44
-10 7 -10 704.99 252.82
-7 10 -10 862.24 339.91
-10 -7 -10 904.37 283.98
-7 -10 -10 1298.41 303.24
-7 10 10 835.08 280.13
-10 7 10 987.27 282.4
-10 -7 10 699.32 264.87
-7 -10 10 975.38 292.73
-10 7 -11 199.38 214.34
-7 -10 -11 195.15 221.45
-7 10 -11 -380.03 267.15
-10 -7 -11 -30.75 212.17
-7 10 11 312.74 225.86
-10 7 11 19.3 192.36
-10 -7 11 47.23 198.1
-7 -10 11 3.34 207.91
-10 -7 -12 274.6 202.79
-7 -10 -12 -4.94 193.01
-7 10 12 65.24 183.4
-10 7 12 -4.59 170.37
-10 -7 12 -45.46 175.61
-7 -10 12 37.29 184.76
-7 10 -12 -126.68 215.79
-7 10 -13 113.66 157.7
-10 -7 -13 63.56 155.8
-7 -10 -13 10.44 159.16
-7 10 13 99.61 153.21
-10 7 13 99.17 146.3
-10 -7 13 133.16 152.52
-7 -10 13 206.18 167.75
10 7 -13 -13.7 144.96
-10 -7 -14 10.97 131.82
-7 -10 -14 16.5 135.28
-7 10 14 266.62 138
-10 7 14 3.89 112.01
10 8 0 1007.51 426.75
-10 8 0 829.22 340.32
-8 10 0 903.79 369.54
8 10 0 632.24 362.12
10 8 -1 1279.46 433.72
8 10 1 1295.53 403.5
8 10 -1 1394.65 428.41
10 -8 1 967.63 468.41
10 8 1 906.62 393.12
-10 8 -1 1309.38 374.07
-8 10 -1 1390.03 383.09
-10 8 1 1585.33 418.43
-8 10 1 2135.41 482.78
10 -8 2 2394.72 609.65
-8 -10 2 1885.09 291.19
-10 8 -2 1360.52 302.74
10 8 -2 1510.12 438.72
10 8 2 1952.84 483.05
-8 10 -2 2031.58 346.44
10 -8 -2 1903.65 609.64
-10 8 -2 2391.24 457.51
-8 10 -2 1758.93 432.29
-10 8 2 2273.47 483.99
-10 -8 -2 2166.4 500.84
8 10 -2 1702.67 432.55
-10 -8 3 808.8 229.67
-8 -10 3 999.26 255.67
10 8 -3 766.86 417.57
-8 -10 -3 925.55 435.55
-10 -8 3 1013.52 302.02
-10 -8 -3 1223.98 440.3
10 -8 -3 656.82 557.46
-10 8 -3 715.97 303.6
-8 10 -3 410.3 269.46
10 -8 3 889.47 552.4
-10 -8 -3 1176.15 385.44
-10 -8 -3 739.02 258.27
-8 10 -3 407.51 277.51
-10 8 -3 685.55 275.98
8 10 -3 1223.02 445.96
8 10 3 552.05 227.75
-10 8 -3 1357.01 422.81
-8 10 -3 1221.83 362.76
-8 -10 -3 938.09 257.33
-10 -8 4 1029.3 280.38
-8 -10 4 867.86 281.23
-8 -10 4 908.63 312.18
-10 -8 4 919.86 325.69
-10 8 -4 1384.88 387.08
-10 8 -4 963.5 334.54
-10 -8 -4 670.91 381.21
-8 10 -4 559.91 297.97
-10 8 -4 381.14 280.15
10 -8 -4 200.53 495.45
10 -8 4 902.51 691.86
8 10 -4 767.89 459.26
-8 10 -4 1141.18 351.38
-10 -8 -4 1091.48 417.82
-10 -8 -4 930.87 267.49
-8 -10 -4 261.69 231.66
8 10 4 339.69 231.91
-8 10 -4 505.75 334.5
10 8 -4 678.46 401.94
-8 -10 -4 618.18 389.96
-10 -8 5 1067.97 286.16
-8 -10 5 491.13 264.4
-8 -10 5 622.69 275.44
8 10 -5 829.6 466.52
-10 -8 5 994.45 345.35
-10 8 -5 1683.71 381.4
-10 8 -5 948.38 408.13
-8 10 -5 896.78 329.05
-8 -10 -5 691.2 370.45
-10 -8 -5 962.46 411.32
8 -10 5 1106.45 657.73
10 -8 -5 326.92 524.32
-10 -8 -5 663.17 257.63
-10 -8 -5 1191.01 471.88
-10 8 -5 654.39 288.2
10 -8 5 2279.41 783.19
-8 -10 -5 931.24 288.93
-8 10 -5 1129.99 356.2
-8 10 5 625.41 262.84
-8 10 -5 837.63 396.01
10 8 -5 819.53 457.2
8 10 5 951.85 298.02
-8 -10 6 46.41 239.99
-8 -10 6 10.96 289.76
-10 -8 6 49.44 303.7
-8 10 -6 -104 212.87
-10 8 -6 370.36 328.25
-8 10 -6 748.11 349.33
-10 8 -6 263.19 297.79
10 -8 6 63.98 750.69
-8 -10 -6 -6.32 418.54
-10 -8 -6 -451.91 403.72
8 10 -6 -168.75 386.8
10 -8 -6 -422.38 592.05
-10 -8 6 72.35 226.55
-8 10 -6 499.32 372.1
-10 -8 -6 796.42 455.08
-10 -8 -6 264.59 238.79
-8 -10 -6 -115.32 245.01
8 10 6 18.97 245.99
-10 8 -6 229.73 371.98
-8 10 -6 165.66 376.73
-8 10 6 305.95 248.97
-10 8 6 72.16 220.25
10 8 -6 415.33 426.48
8 -10 6 228.83 683.56
-10 -8 7 40.05 260.02
-8 10 -7 675.92 243.98
-10 -8 -7 571.64 478.66
10 -8 7 496.03 717.43
-10 8 -7 863.57 377.39
-8 10 -7 440.57 330.27
-10 8 -7 270.43 304.74
8 -10 7 996.59 785.84
-8 -10 -7 513.03 304.22
-10 -8 -7 1294.48 436.93
-8 -10 7 10.15 255.93
-8 10 -7 777.85 362.6
10 -8 -7 -777.93 566.9
-8 -10 -7 774.11 287.74
-10 -8 -7 588.54 272.02
8 10 7 1045.48 331.37
-10 8 -7 309.53 338.04
-8 10 -7 -165.1 347.88
-8 10 7 733.5 281.19
8 -10 -7 614.74 475.32
-10 8 7 569.24 282.22
10 8 -7 585.77 416.47
-8 -10 7 345.22 242.18
-10 -8 7 301.12 259.71
-10 -8 8 -37.22 263.21
-8 -10 8 756.59 285.51
-8 10 -8 921.8 340.22
-8 10 -8 713.04 357.18
-10 -8 -8 344.28 250.28
-8 -10 -8 774.23 284.19
-10 8 -8 290.18 280.4
-8 10 8 343.13 255.72
-8 10 -8 -62.61 207.23
-10 8 8 291.59 225.19
-10 -8 8 574.3 279.81
-8 -10 9 224.88 258.57
-10 8 -9 -103.24 238.89
-8 10 -9 587.56 305.53
-10 -8 -9 45.13 225.24
-8 -10 -9 187.77 225.91
-8 10 9 203.16 228.47
-10 8 9 58.08 209.68
-10 -8 9 30.98 216.79
-10 8 -10 -10.11 240.22
-8 10 -10 -335.59 274.3
-10 -8 -10 501.91 271.03
-8 -10 -10 292.12 244.3
-8 10 10 488.18 227.1
-10 8 10 337.9 222.88
-10 -8 10 304.35 230.85
-8 -10 10 657.34 264.25
-8 10 -11 -501.03 266.65
-10 8 -11 -51.05 220.36
-10 -8 -11 -154.45 219.41
-8 -10 -11 -26.8 210.6
-8 10 11 -228.61 217.09
-10 8 11 -58.59 195.88
-10 -8 11 61.03 197.37
-8 -10 11 116 203.23
-10 -8 12 -41.79 165.79
-8 10 -12 -61.08 198.16
-10 -8 -12 205.93 196.54
-8 -10 -12 -8.57 197.36
-8 10 12 -81.71 170.49
-10 8 12 -163.82 178.78
-8 -10 12 77.81 171.77
10 8 -12 -326.05 202.14
-8 10 -13 -12.82 138.93
-10 8 13 -105.87 143.85
-10 -8 -13 91.79 146.63
-8 -10 -13 -9.88 159.39
-8 10 13 275.92 160.62
-10 -8 13 76.52 140.02
-8 -10 13 46.37 141.29
10 8 -13 53.74 136.14
-8 10 14 192.68 110.61
-8 -10 -14 8.17 104.42
-10 -8 -14 1.59 109.31
-10 -9 0 -4.88 190.35
-9 -10 0 -169.04 204.43
-10 9 0 -171.68 230.06
10 9 0 149.05 344.82
-9 10 0 273.86 253.05
-10 -9 0 108.33 204.23
-10 9 0 576.82 295.11
-10 -9 0 -215.41 214.45
9 10 0 -8.01 328.36
-10 9 0 -101.91 330.73
-9 10 0 -9.75 324.4
-9 -10 -1 1373.44 270.75
-9 10 -1 1614.69 323.77
-10 -9 -1 1632.94 272.93
-9 -10 -1 2115.53 300.55
9 10 -1 2065.12 501.33
-10 -9 1 1602.31 301.94
-10 9 -1 988.15 280.97
-9 10 -1 2070.46 342.11
-9 10 1 1724.99 313.17
-10 9 -1 1825.88 346.87
-10 -9 -1 1557.47 297.66
-10 9 1 1060.78 297.14
10 9 -1 1981.24 492.29
-10 9 -1 2013.04 427.56
-10 -9 1 2173.42 303.27
-9 -10 1 2256.76 315.12
-9 10 -1 1451.45 397.29
-10 9 1 2338.71 481.89
-9 10 1 2621.91 524.22
9 10 1 1506.44 463.48
10 9 1 2316.61 495.95
-10 9 -2 3171.12 393.43
-9 10 2 3789.57 383.08
-9 10 -2 3253.71 389.2
-9 10 -2 3183.13 398.64
-10 -9 -2 4270.38 405.32
-10 -9 -2 4180.88 368.26
-9 -10 -2 4033.16 393.43
-10 9 2 4958.25 667.31
-10 -9 2 4060.55 418.38
10 9 -2 3927.78 627.72
-10 9 -2 3328.34 402.64
-10 9 -2 3924.05 587.69
10 9 2 3957.65 625.58
-9 10 -2 3619.21 544.44
-10 -9 2 4068.94 392.71
9 10 -2 3722.61 643.88
-9 -10 2 3981.15 386
-10 -9 -2 5345.83 725.04
-9 -10 2 3646.9 414.84
-10 9 -3 2920.99 401.23
-9 -10 -3 3491.26 610.34
-10 -9 -3 3638.33 609.87
9 -10 -3 2229.69 586.24
-9 10 -3 2770.9 367.59
-9 10 -3 2340.39 370.45
-10 9 -3 2664.54 388.9
10 -9 -3 2349.14 620.36
-10 -9 -3 3881.05 535.54
-10 -9 -3 3834.49 402.34
-10 -9 3 3741.6 453.77
-9 -10 -3 3348.44 391.2
9 10 -3 3112.2 625.29
10 9 -3 2852.98 586.56
-10 9 -3 3790.43 570.44
-9 10 -3 2928.28 527.18
-10 -9 3 3117.29 369.45
-9 -10 3 2985.83 362.67
-9 -10 3 3696.24 452.31
-10 -9 4 775.81 269.47
-9 -10 4 736.05 261.37
10 -9 4 736.17 628.99
-9 -10 4 803.84 344.55
-10 -9 4 1031.9 318.81
10 9 -4 -323.04 435.11
-10 9 -4 1325.05 349.45
-9 -10 -4 478.77 380.17
-9 10 -4 285.41 288.72
-10 -9 -4 558.84 384.67
-10 -9 -4 1062.03 289.94
10 -9 -4 254.04 491.05
-10 -9 -4 832.52 414.53
-10 9 -4 1092.51 428.54
9 10 -4 940.29 478.89
-10 9 -4 405.4 294.99
-9 -10 -4 984.14 298.96
9 10 4 485.38 234.52
-9 10 -4 707.36 375.1
9 -10 -4 -126.84 407.66
-9 10 -4 -183.94 324.65
-10 -9 5 493.82 256.46
-9 -10 5 701.08 283.83
-9 -10 5 694.12 327.12
-10 -9 5 615.56 298.23
9 10 -5 901.76 462.41
10 9 -5 258.72 449.81
-10 9 -5 1410.15 386.22
-9 10 -5 1168.3 363.09
-10 -9 -5 388.55 422.33
9 -10 -5 495.59 458.8
-9 -10 -5 875 428.51
-10 -9 -5 1785.65 504.6
10 -9 -5 249.76 500.68
-9 -10 -5 678.78 258.03
-10 9 -5 152.74 297.79
-9 10 -5 -201.39 323.03
-10 -9 -5 252.75 240.36
9 10 5 585.25 268.72
-10 9 -5 1203.08 434.03
-9 10 -5 1520.92 605.68
10 -9 5 471.28 669.4
-9 -10 6 -409.17 337.04
-10 -9 6 -493.67 339.76
10 9 -6 -218.44 437.92
-10 -9 -6 456.16 440.63
9 -10 -6 437.18 770.46
-10 9 -6 -149.11 313.77
-9 10 -6 674.37 343.91
10 -9 6 35.59 651.11
9 -10 6 -208.86 665.93
-9 -10 -6 -254.95 406.25
-10 -9 -6 101.77 327.47
9 10 -6 -175.3 421.76
10 -9 -6 -445.92 497.2
-10 9 -6 -582.18 349.84
-9 10 -6 -68.86 335.81
-9 10 -6 -640.69 371.66
-10 -9 -6 27.99 239.41
-9 -10 -6 -229.75 255.86
9 10 6 -386.5 310.23
-10 9 -6 -218.4 335.1
-9 10 6 0.4 227.01
-10 -9 6 -228.23 247.77
-9 -10 6 -41.85 236.39
-9 10 -7 -166.97 208.56
-10 9 -7 562.86 327.56
-9 10 -7 75.72 299.85
-10 9 -7 -176.68 335.47
-9 10 -7 -399.61 360.91
-10 -9 -7 80.31 225.03
-9 -10 -7 55.35 238.32
-9 10 7 53.91 223.07
-10 9 7 -637.42 250.19
-10 -9 7 -28.41 230.97
-9 -10 7 -316.91 290.25
-9 -10 7 177.34 249.07
-10 -9 7 -60.48 267.32
-9 10 -8 888.13 328.74
-10 9 -8 250.12 272.95
-9 10 -8 -135.92 307.1
-9 -10 -8 466.21 245.25
-10 -9 -8 557.7 261.61
-10 -9 8 512.61 273.12
-9 10 8 367.39 226.18
-10 9 8 298.26 219.45
-9 -10 8 540.16 248.41
-10 9 -9 -126.22 255.11
-9 10 -9 -545.53 308.15
-10 -9 -9 0.67 224.71
-9 -10 -9 344.39 241.35
-9 10 9 234.73 224.58
-10 9 9 177.32 212.9
-10 -9 9 420 237.68
-9 -10 9 -141.4 235.71
-9 10 -10 -61.59 278.44
-10 9 -10 14.94 247.2
-10 -9 -10 272.1 242.16
-9 -10 -10 10.23 213.64
-9 10 10 344.34 214.68
-10 9 10 395.19 221.65
-10 -9 10 188.72 225.15
-9 -10 10 89.89 227.83
-9 -10 11 141.87 195.45
-10 9 -11 177.03 235.41
-9 -10 -11 29.31 220.83
-10 -9 -11 213.42 226.28
-9 10 11 303.01 204.02
-10 9 11 61.16 177.47
-9 10 -11 -296.11 224.56
-10 -9 11 167.5 196.19
9 10 -12 -72.8 143.39
-10 9 -12 310.08 182.44
-9 10 -12 82.46 183.57
-10 -9 -12 -289.12 189.23
-9 -10 -12 -4.21 187.26
-9 10 12 53.95 166.5
-10 9 12 187.16 156.21
-10 -9 12 59.97 156.87
-9 -10 12 -47.38 158.85
10 9 -12 -154.93 155.7
-10 9 13 -21.36 127.09
-10 -9 -13 4.77 163.27
-9 10 13 321.99 148.08
-10 -9 13 -7.16 123.17
-9 -10 13 5.58 126.17
10 9 -13 19.08 98.47
-9 -10 -13 15.36 145.18
-10 -10 0 1075.28 258.44
-10 10 0 1236.91 317.09
-10 -10 0 505.28 250.39
-10 10 0 1336.28 339.89
10 10 0 628.23 371.59
-10 10 0 1263.33 438.95
-10 -10 1 1798.74 306.39
-10 -10 -1 1382.96 279.79
-10 10 -1 922.56 307.79
10 10 -1 1004.29 421.46
-10 -10 1 1157.11 281.39
-10 -10 -1 1578.63 309.71
-10 10 1 836.93 311.99
-10 -10 -1 1487.97 299.27
-10 10 -1 1509.27 459.14
10 10 1 1438.23 467.03
-10 10 1 2055.44 496.34
-10 10 -1 1694.45 351.12
-10 -10 2 238.07 198.51
-10 -10 -2 334.85 199
-10 -10 2 327.61 244.67
-10 10 -2 310.08 294.07
-10 10 -2 335.81 364.92
-10 10 -2 -323.15 312.83
-10 10 2 131.95 227.12
10 10 -2 285.45 407.72
-10 -10 -2 352.64 237.09
-10 -10 -2 960.25 455.04
-10 -10 3 986.29 264.13
-10 -10 3 1126.13 346.87
-10 -10 -3 644.73 379.75
-10 10 -3 337.09 274.48
-10 10 -3 233.13 287.53
-10 -10 -3 425.5 253.51
10 10 -3 1480.6 493.64
-10 10 -3 470.31 350.31
-10 -10 4 157.22 242.1
-10 -10 4 356.23 313.82
-10 -10 -4 -294.35 333.05
10 10 -4 -98.24 380.61
-10 10 -4 103.49 287.51
-10 10 -4 58.7 312.27
10 -10 -4 -464.71 511.57
-10 -10 -4 217.6 232.1
-10 -10 -4 468.5 380.48
-10 10 -4 -77.56 457.93
-10 -10 5 -156.72 244.65
-10 -10 5 32.14 265.43
-10 10 -5 864.57 354.4
-10 -10 -5 -83.82 345.49
10 -10 -5 -416.83 449.73
-10 -10 -5 395.45 420.62
-10 10 -5 -149.98 371
-10 -10 -5 299.13 260.41
-10 10 -5 7.6 315.43
10 10 -5 -570.89 522.94
-10 -10 6 -433.88 311.55
-10 10 -6 201.38 299.79
10 10 -6 283.01 361.86
10 -10 -6 -125.64 385.67
-10 10 -6 -526.36 348.54
-10 -10 -6 272.86 339.75
-10 -10 -6 -280.22 247.02
-10 10 -6 -22.47 366.7
-10 -10 6 58.71 234.21
-10 10 -7 -181.3 300.74
-10 10 -7 842.55 346.57
-10 -10 -7 228.95 242.15
-10 10 7 400.23 234.53
-10 -10 7 372.2 247.41
-10 -10 7 71.34 263.65
-10 10 -8 -270.09 307.28
-10 -10 -8 44.46 217.73
-10 10 8 59.93 197.43
-10 -10 8 291.05 220.54
-10 10 -9 60.72 272.72
-10 -10 -9 51.56 227.88
-10 -10 9 161.2 219.95
-10 10 -10 -271.13 241.8
-10 -10 -10 -4.26 238.67
-10 10 10 330.89 199.45
-10 -10 10 160.97 208.2
-10 -10 -11 -3.71 197.42
-10 10 -11 78.81 195.24
-10 10 11 124.04 182.29
-10 -10 11 26.38 174.39
-10 10 -12 157.19 167.19
-10 10 12 -102.07 142.5
-10 -10 -12 -10.22 171.36
-10 -10 12 -41.08 143.91
10 10 -12 150.04 163.83
-10 -10 -13 -1.32 117.85
-10 10 13 174.3 128.44
-10 -10 13 165.83 118.11
-11 0 0 5.12 184.59
11 0 0 -155.51 266.55
-11 0 0 -71.64 189.28
-11 0 -1 11198.68 679.24
11 0 1 10582.51 703.16
11 0 -1 11266.81 811.4
-11 0 1 10303.5 592.97
-11 0 -1 11160.11 676.54
-11 0 1 10526.42 614.87
-11 0 -2 8848.01 640.29
11 0 2 10249.23 670.79
-11 0 2 8163.05 509.68
-11 0 -2 9425.68 665.02
11 0 -2 8903.05 771.14
-11 0 -3 19265.9 964.43
-11 0 -3 20510.24 1020.84
11 0 -3 20262.34 1170.51
-11 0 -4 4808.16 552.33
0 -11 4 5656.85 624.96
11 0 -4 5252.37 703.8
-11 0 -4 5714.41 611.61
0 11 -5 3020.37 363.23
-11 0 -5 2744.64 468.98
0 -11 5 2480.5 518.4
0 11 5 2978.32 356
-11 0 -5 2511.94 496.09
11 0 5 3737.37 875.79
11 0 -5 3362.96 621.72
-11 0 6 -164.37 251.76
11 0 6 -70.67 655.52
0 -11 6 817.42 493.6
-11 0 -6 -216.15 219.04
-11 0 -6 255.38 321.43
-11 0 -6 69.77 316.82
0 11 -6 396.1 242.79
0 11 6 131.33 215.6
11 0 -6 307.01 479.67
-11 0 6 249.51 204.3
0 -11 7 1919.73 589.04
-11 0 -7 1666.43 442.06
11 0 7 1386.22 784.5
0 11 -7 2071.77 362.26
-11 0 -7 1674.83 483.3
-11 0 -7 1542.71 313.15
0 11 7 1866.46 346.29
11 0 -7 1863.71 592.79
-11 0 7 1640.72 299.22
-11 0 7 1902.59 303.82
11 0 8 992.7 737.72
0 -11 8 741.28 539.09
-11 0 -8 1468.5 458.16
0 11 -8 1365.99 345.67
-11 0 -8 1373.25 463.62
-11 0 -8 1124.88 304.91
11 0 -8 2170.56 638.05
-11 0 8 1524.28 304.42
0 11 8 950.52 309.19
0 11 -9 680.14 290.43
-11 0 -9 483.17 259.85
0 -11 -9 897.29 271.37
0 11 9 611.6 284.14
-11 0 9 652.37 247.65
0 11 -10 1780.16 358.87
-11 0 -10 1616.13 298.77
0 -11 -10 1827.23 325.7
0 11 10 1949.14 344.68
-11 0 10 1446.19 293.34
0 11 -11 405.65 233.25
0 11 11 960.13 270.56
0 11 -11 475.19 298.94
-11 0 -11 600.02 245.09
0 -11 -11 837.91 246.03
-11 0 11 885.23 259.76
0 11 12 824.92 248.93
0 11 -12 610.32 296.36
-11 0 -12 816.93 246.3
0 -11 -12 6.36 224.48
11 0 -12 358.6 214.76
0 -11 -13 25.98 180.25
0 11 -13 -109.04 207.84
-11 0 -13 148.93 156.78
0 11 13 296.04 178.46
11 0 -13 -0.8 176.26
0 11 -14 341.94 159.13
11 0 -14 14.67 159.28
0 -11 -14 -2.23 123.69
0 11 14 400.75 150.18
-11 -1 0 492.83 248.94
11 -1 0 426.07 282.38
-11 1 0 244.88 179.28
11 1 0 570.14 285.3
-11 -1 0 267.8 180.93
-11 1 0 389.65 223.28
11 -1 -1 31.04 280.98
-11 -1 1 41.35 216.35
11 -1 1 288.82 254.09
11 1 -1 463.01 315.83
-11 -1 -1 -101.54 229.36
-11 1 -1 103.77 205.59
-11 -1 -1 -33.38 208.86
-11 1 -1 41.32 223.61
-11 -1 1 136.39 181.43
-11 1 1 51.93 193.23
11 1 1 319.57 258.88
-11 1 1 39.39 160.65
11 1 -2 291.17 324.49
-11 -1 -2 367.64 233.32
11 1 2 151.21 252.54
-11 -1 2 355.54 226.45
-11 1 -2 478.19 253.2
-11 -1 -2 203.85 218.67
-11 1 -2 220.63 261.32
-11 1 2 268.3 198.33
11 -1 -2 592.8 364.5
11 1 -3 744.54 399.44
11 1 3 844.24 298.4
-11 1 -3 700.21 273.58
-11 -1 -3 666.79 291.89
-11 -1 -3 1386.36 354.64
-11 1 -3 916.48 342.04
11 -1 -3 835.42 415.09
-11 -1 -4 574.87 323.98
-11 -1 -4 414.77 291.55
-1 -11 4 313.14 360.18
-11 1 -4 748.22 309.51
-11 1 -4 216.89 262
1 -11 4 503.45 385.68
11 -1 -4 383.01 405.73
11 1 -4 552.35 397.63
-1 -11 5 390.14 403.39
1 -11 5 833.47 437.14
11 -1 5 791.27 678.97
-11 -1 -5 262.28 303.25
-11 1 -5 220.08 278.96
-1 11 -5 223.56 239.22
-11 1 -5 195.93 299.08
1 11 -5 260.5 241.93
11 1 5 -603.35 621.98
-11 -1 -5 -40.54 298.81
11 -1 -5 330.88 469.56
1 11 5 198.38 211.14
-1 11 5 196.74 222.56
11 1 -5 480.51 421.76
-11 -1 6 -144.02 248.25
-11 -1 -6 -134.94 273.63
11 -1 6 96.36 711.98
-1 -11 6 207.29 422.57
11 1 6 -230.45 665.13
-11 1 -6 -31.28 315.21
11 1 -6 -156.48 392.63
-11 -1 -6 -134.93 346.78
-11 1 6 -81.34 190.18
-1 11 -6 166.52 309.61
-11 -1 -6 272.51 226.56
1 11 -6 198.47 252.32
-11 1 -6 -131.98 318.89
-1 11 6 -22.67 224.76
11 -1 -6 124.84 407.43
-11 -1 6 312.32 215.28
1 -11 6 33.39 413.99
1 11 6 -8.07 234.08
1 11 -7 644.44 293.07
11 1 7 135.79 673.11
11 -1 7 831.57 802.6
1 -11 7 1094.63 586.98
-1 -11 7 425.84 481.01
11 -1 -7 946.47 550.56
-11 -1 -7 43.07 297.67
-11 1 -7 346.98 301.88
-11 -1 -7 455.7 386.29
-1 11 -7 661.46 272.93
-11 1 -7 318.41 238.03
-11 1 -7 533.64 374.55
-11 -1 -7 661.59 285.23
1 11 7 533.83 275.79
-1 11 7 708.62 276.71
-11 1 7 570.49 229.8
11 1 -7 253.38 452.92
-11 -1 7 529.01 236.1
-11 1 7 94.02 241.59
-11 -1 7 90.85 231.01
-11 -1 -8 255.89 251.89
11 -1 -8 694.67 571.72
-1 -11 8 81.97 460.17
11 1 8 -402.21 766.91
1 -11 8 99.45 505.78
-11 -1 -8 187.3 364.45
-11 -1 -8 25.46 321.89
1 11 -8 184.94 270.59
-11 1 -8 122.61 369.22
11 -1 8 341.76 671
-11 1 -8 -124.82 229.41
-11 1 -8 332.09 409.77
-1 -11 -8 341.07 235.35
1 11 8 465.21 280.67
-1 11 8 -11.17 247.05
-11 1 8 -75.16 209.76
-11 -1 8 52.59 217.89
11 1 -8 4.91 456.29
-1 11 -8 -117.96 265.43
1 11 -9 -138.67 251.48
-11 -1 -9 127.04 229.59
-11 1 -9 -285.19 242.5
-1 -11 -9 219.92 242.28
1 11 9 100.88 245.29
-1 11 9 284.62 256.6
-11 1 9 279.06 229.12
-11 -1 9 336.6 258.35
-1 11 -9 -132.23 247.17
1 -11 -10 -149.48 215.98
-1 11 -10 -98.73 247.92
1 11 -10 -230.12 252.2
-11 1 -10 -114.09 227.47
-11 -1 -10 -96.85 207.48
-1 -11 -10 205.54 222.63
1 11 10 -33.15 210.66
-1 11 10 -59.95 222.68
-11 1 10 -73.8 197.47
-11 -1 10 72.64 205.08
-1 11 11 -61.23 266.15
1 11 -11 -415.59 271.41
-1 11 -11 -257.56 300.25
-1 11 -11 -222.21 249.93
-11 1 -11 -284.06 217.49
-11 -1 -11 -133.29 207.33
1 -11 -11 6.01 192.41
1 11 11 24.39 209.07
-1 11 11 50.85 216.94
-11 -1 11 128.46 194.63
-1 -11 -11 89.8 202.92
1 11 -12 -620.19 294.75
-1 11 -12 -0.6 253.56
-11 -1 -12 325.45 204.11
-1 -11 -12 -21.11 194.56
1 -11 -12 -3.99 183.78
1 11 12 151.15 205.32
-1 11 12 44.82 200.6
11 -1 -12 -11.49 219.98
-1 11 -13 226.39 203.65
-1 -11 -13 8.06 163.91
1 11 -13 62.86 204.52
1 -11 -13 1 153.23
1 11 13 107.92 165.61
-1 11 13 112.45 170.34
11 -1 -13 0.31 184.02
-11 -1 -13 -190.43 167.54
11 1 -13 212.13 186.38
-1 11 -14 278.59 160.05
-1 -11 -14 6.43 122.76
1 11 -14 152.9 161.99
1 11 14 4.67 119.96
-1 11 14 49.44 136.85
-11 1 14 -7.68 134.24
11 -1 -14 29.41 147.95
11 1 -14 6.74 162.15
-11 2 0 277.41 184.51
11 -2 0 207.96 257.09
-11 -2 0 -113.18 258.44
11 2 0 138.72 275.87
-11 -2 0 -13.62 166.59
-11 2 0 182.64 228.7
-11 -2 -1 135.99 253.26
11 -2 1 194.45 232.76
-11 2 -1 364.66 202.24
11 2 -1 200.21 299.9
-11 -2 -1 94.81 187.36
-11 2 -1 -167.26 254.46
-11 -2 1 139.43 160.72
-11 2 1 171.74 216.17
11 2 1 108.95 251.61
-11 -2 1 284.98 266.4
11 -2 -1 116.93 306.57
11 2 -2 7371.19 726.1
-11 2 -2 8054.56 593.48
11 2 2 7629.5 639.31
-11 2 2 7137.28 547.83
-11 -2 -2 7640.76 605.11
-11 2 -2 8571.83 670.15
11 -2 -2 7528.31 719.95
-11 -2 -2 7671.8 652.82
-11 -2 -3 7419.9 656.37
-11 2 -3 7976.64 631.24
-11 -2 -3 7912.47 668.95
11 2 3 7841.42 639.27
-11 2 -3 7881.24 675.33
-11 2 3 7523.3 568.82
-2 11 -3 8498.3 606.69
11 -2 -3 7458.82 763.04
11 2 -3 7919.81 777.35
-11 -2 -4 5166.3 579.5
-11 2 -4 4848.48 551.9
-2 -11 4 4651.74 597.63
11 2 -4 5030.34 699.84
-2 -11 -4 5188.4 544.7
-11 -2 -4 5212.36 592.26
-11 2 -4 4833.25 565.53
11 -2 -4 4191.14 683.88
11 2 -5 -188.45 425.3
-11 -2 5 887.91 275.15
11 2 5 1086.05 644.66
2 -11 5 697.82 417.35
-2 -11 5 619.01 408.45
-11 2 -5 402.08 310.14
-11 -2 -5 815.62 356.03
-2 11 -5 893.1 269.81
2 11 -5 1239.47 300.94
-11 2 -5 623.44 332.61
11 -2 5 383.79 678.86
11 -2 -5 399.02 471.55
2 11 5 754.8 243.36
-2 11 5 588.61 234.7
-11 -2 -5 427.46 327.3
-11 -2 6 -279.94 239.62
-11 2 -6 214.37 332.35
11 2 6 -179.49 636.14
11 -2 6 -383.09 688.29
2 -11 6 263.56 462.66
-2 -11 6 643.98 470.58
-2 11 -6 154.27 226.36
-11 -2 -6 -10.65 276.81
-11 -2 -6 64.01 365.64
-11 -2 -6 40.58 219.48
2 11 -6 249.47 270.81
-11 2 -6 -12.32 282.75
11 -2 -6 345.94 472.15
2 11 6 286.99 237.89
-2 11 6 108.23 225.71
-11 2 -6 446.23 287.96
-11 -2 6 -90.88 216.54
-11 2 6 -106.3 192.01
11 2 -6 -402.87 493.16
-2 -11 6 369.88 283.03
11 2 -7 430.79 434.1
-11 -2 7 -146.74 246.64
2 11 -7 384.56 284.29
2 11 7 8.67 220.12
11 2 7 -49.89 610.53
-11 2 -7 -59.53 350.87
11 -2 7 -455.75 808.06
-11 -2 -7 -61.16 298.11
-2 -11 7 807.48 503.38
-11 -2 -7 283.52 405.36
-2 11 -7 263.43 247.18
2 -11 7 2.87 522.94
-11 2 -7 -222.89 325.6
11 -2 -7 371.61 549.1
-2 11 7 124.53 220.01
-11 2 7 -254.2 221.95
-11 -2 7 67.66 212.22
-11 -2 -7 119.17 246.28
-2 -11 7 -88.61 272.77
-11 -2 8 8.62 260.49
11 2 -8 835.61 484.27
2 -11 8 744.86 549.12
-2 -11 8 543.92 497.51
-2 11 -8 406.61 264.22
11 -2 8 493.52 754.8
-11 -2 -8 816.74 389.94
-11 -2 -8 1103.46 481.43
2 11 -8 718.03 314.54
-11 2 -8 570.3 352.34
-11 -2 -8 618.61 283.65
-11 2 -8 732.72 379.42
-2 -11 -8 583.78 255.7
11 -2 -8 861.58 549.89
2 11 8 432.71 270.04
-2 11 8 421.86 256.09
-11 2 8 450.9 228.74
-11 -2 8 879.19 264.15
-2 -11 8 830.23 388.94
11 2 8 1053.5 705.49
-2 11 -9 45.83 240.63
-11 -2 -9 468.07 255.37
-2 -11 -9 665.44 245.29
2 11 9 573.66 279.19
-2 11 9 866.05 297.08
-11 2 9 386.41 207.25
-11 -2 9 355.26 232.99
2 11 -9 238.56 256.48
-2 11 10 1118.69 334.52
2 11 -10 735.76 276.64
-2 11 -10 172.67 310.2
-11 -2 -10 659.86 255.26
-2 -11 -10 819.38 280.46
2 11 10 781.02 275.21
-2 11 10 686.3 271.86
-11 2 10 268.69 204.44
-11 -2 10 689.38 253.67
-2 11 -10 490.17 261.75
-2 11 -11 1117.21 263.79
2 11 -11 551.69 254.54
-2 11 -11 1132.45 339.92
-11 -2 -11 799.38 243.36
-2 -11 -11 1216.07 290.85
2 11 11 1116.71 285.27
-2 11 11 759.41 266.65
-11 -2 11 982.21 260.32
2 -11 -12 5.09 197.98
2 11 12 269.41 211.03
-2 11 -12 169.09 245.54
-11 -2 -12 55.39 185.52
-2 -11 -12 1.68 235.05
-2 11 12 249.45 207.99
-11 -2 12 302.08 206.37
11 -2 -12 -1.07 197.01
2 11 13 11.1 155.32
-2 11 13 -24.39 166.81
2 11 -13 -115.85 224.15
-2 -11 -13 -0.66 153.99
-11 -2 -13 -87.68 156.89
-2 11 -13 -71.4 186.34
11 -2 -13 -3.19 173.34
11 2 -13 -94.05 190.07
-2 11 -14 256.3 147.64
-11 -2 -14 170.32 127.1
-2 -11 -14 -2.52 118.53
-2 11 14 -32.08 126.51
11 -2 -14 -1.57 131.08
11 2 -14 108.95 143.09
2 11 -14 -58.78 153.63
11 3 0 4045.98 537.68
-11 3 0 3778.56 450.59
-11 -3 0 4032.81 375.2
-11 -3 0 4501.34 552.43
11 -3 0 3921.96 502.25
-11 3 -1 3008.81 351.39
11 3 1 3260.5 467.95
11 3 -1 2910.03 504.93
11 -3 -1 3569.92 530.95
-11 3 1 3695.04 444.64
-11 3 -1 3962 469.98
-11 -3 -1 3080.17 378.14
-11 -3 -1 3570.38 499.25
11 3 -2 5048.37 634.77
-11 3 -2 4790.88 464.96
11 3 2 4873.85 546.22
-11 -3 -2 4630.92 488.83
3 11 -2 4995.42 562.01
-11 3 -2 5115.02 545.64
-11 3 2 4807.73 491.39
-3 11 -2 5546.92 537.07
11 -3 -2 4606.41 604.81
-11 -3 -2 5010.53 561.25
-11 -3 -3 1196.3 350.68
11 3 -3 679.89 387.4
-11 3 -3 986.19 288.02
-11 -3 -3 1254.76 347.28
11 3 3 1179.7 356.85
-11 3 -3 783.48 345.33
11 -3 -3 899.15 467.37
-11 3 3 785 294.52
3 11 -3 793.59 327.25
-3 11 -3 1246.06 319.69
11 -3 4 580.31 654.93
11 3 -4 -69.5 390.26
-3 -11 -4 148.18 295.52
-11 -3 -4 63.3 275.19
3 11 -4 185.17 250.5
-11 3 -4 78.38 243.06
-11 -3 -4 129.76 263.61
11 -3 -4 -3.47 433.55
-11 3 -4 57.56 258.44
-3 11 -4 -46.37 232.33
-11 -3 5 86.6 220.54
11 3 -5 376.96 402.42
-3 11 5 74.94 317.77
11 -3 5 -303.53 666.19
3 -11 5 -644.96 467.64
-11 -3 -5 252.51 301.27
-3 -11 5 -131.47 404.28
-11 -3 -5 4.84 290.03
-11 3 -5 445.03 325.53
-11 -3 -5 241.7 230.51
-3 11 -5 481.31 244.88
11 -3 -5 122.61 479.79
3 11 -5 411.6 264.73
3 11 5 443.58 231.32
-3 11 5 361.87 229.48
-11 3 -5 229.89 279.62
-3 -11 6 758.14 303.34
-11 -3 6 629.04 266.28
11 3 -6 1365.18 510.84
-11 -3 -6 758.85 346.25
-11 3 -6 997.15 295.51
-3 11 -6 946.53 326.03
3 -11 6 566.1 483.92
11 -3 6 1249.69 815.46
-3 -11 6 371.55 410.3
-3 11 -6 845.99 279.42
-11 -3 -6 435.79 357.49
11 3 6 714.81 661.77
-11 3 -6 935.67 362.4
-11 -3 -6 609.15 270.42
3 11 -6 991.95 324.82
11 -3 -6 275.12 537.85
-11 3 -6 451.24 337.42
3 11 6 714.06 273.57
-3 11 6 881.81 293.17
-11 -3 6 677.77 244.7
-3 11 6 626.33 367.77
-11 -3 7 276.8 238.51
-11 -3 -7 64.06 310.09
11 -3 7 292.9 779.59
11 3 -7 -78.34 436.74
-3 11 -7 979.78 356.57
-11 3 -7 367.85 295.08
-3 -11 7 196.16 503.03
11 3 7 330.17 670.97
3 -11 7 427.72 493.5
-3 11 -7 -889.11 435.81
-3 11 7 -366.32 369.13
-11 -3 -7 6.49 448.9
-3 11 -7 -71.38 234.44
3 11 -7 257.43 279.68
-11 3 -7 -93.89 330.69
-11 -3 -7 366.95 250.91
11 -3 -7 170.12 484.81
-11 3 -7 235.7 320.46
-3 -11 -7 453.49 253.33
3 11 7 522.3 277.67
-3 11 7 234.53 269.32
-11 3 7 55.98 200.19
-11 -3 7 706.05 293.35
-3 -11 7 54.43 280.52
11 3 -8 320.48 457.29
11 -3 8 78.52 744.23
11 3 8 140.62 730.46
3 -11 8 220.61 530.68
-3 11 -8 -586 274.04
-3 -11 8 366.26 465.4
-11 -3 -8 -104.32 247.28
-3 11 8 87.55 325.92
-11 -3 -8 662.26 410.07
-11 -3 -8 -141.41 318.14
-3 11 -8 -421.49 439.21
3 11 -8 -48.91 269.92
-11 3 -8 -37.73 331.63
11 -3 -8 217.18 516.72
-11 3 -8 85.89 353.93
-3 -11 -8 567.15 262.04
3 11 8 81.74 233.48
-3 11 8 -38.9 255.94
-11 3 8 258.84 233.45
-11 -3 8 103.77 235.81
-3 -11 8 -313.52 313.66
-11 -3 8 -203.42 270.06
-11 3 -8 259.94 297.65
-3 11 -9 -148.64 218.45
-3 11 9 -310.05 308.79
-3 -11 -9 109.41 219.22
-11 -3 -9 -35.25 217.48
3 11 -9 -209.33 275.42
-3 11 -9 -6.46 332.32
3 11 9 231.23 248.69
-3 11 9 226.82 246.24
-11 3 9 -46.68 201.5
-11 -3 9 162.62 218.48
-3 -11 9 143.01 264.96
-3 11 -10 23.6 222.93
-11 -3 -10 117.95 226.2
-3 -11 -10 63.81 203.86
3 11 10 -6.66 211.65
-3 11 10 329.76 250.72
-11 -3 10 -102.99 202.52
-3 -11 10 121.59 251.76
3 11 -10 -42.83 223.34
-3 11 -10 -154.59 335.38
-3 -11 -11 186.95 225.79
-3 11 -11 203.55 293.9
3 11 -11 110.19 202.72
-11 -3 -11 213.46 202.24
3 11 11 182.8 208.23
-3 11 11 108.02 215.63
-11 -3 11 83.37 200.3
-3 -11 11 85.56 209.73
11 -3 -11 -112.16 229.13
-3 11 -12 234.45 254.15
-11 -3 -12 316.55 191.19
-3 -11 -12 1.01 211.87
3 11 12 311.62 196.67
-3 11 12 646.47 230.49
-11 -3 12 379.29 210.67
11 -3 -12 25.43 202.01
-11 -3 -13 231.86 171.02
-3 11 -13 710.13 214.39
3 11 -13 61.02 215.45
-3 -11 -13 16.6 189.97
3 11 13 150.74 152.23
-3 11 13 760.24 216.7
-11 3 13 413.48 198.12
11 -3 -13 -3.38 179.5
11 3 -13 495.44 204.9
3 11 -14 175.98 160.05
-11 -3 -14 131.05 126.05
-3 11 14 137.9 142.05
11 -3 -14 -1.43 141.64
-11 3 14 37.3 130.36
11 3 -14 38.61 135.75
-3 -11 -14 5.52 127.95
-11 4 0 -66.48 219.7
11 4 0 -46.69 278.92
11 -4 0 -39.08 288.81
-11 -4 -1 2348.52 431.04
11 4 1 2284.63 424.16
-11 4 -1 2436.53 409.39
11 4 -1 2170.8 461.58
-11 -4 -1 2039.2 316.24
11 -4 -1 1937.72 434.27
-11 4 1 2408.21 400.18
4 11 -1 2209.05 443.65
-4 11 -1 2941.71 454.93
-11 4 -2 1729.7 315.59
-11 -4 -2 1772.15 411.33
-11 -4 -2 1738.38 336.81
4 11 -2 1440.52 366.25
11 4 -2 2062.18 464.99
11 -4 -2 1562.98 458.62
-11 4 -2 1944.8 393.09
11 4 2 1816.25 385.32
-11 4 2 1206.79 328.24
-4 11 -2 1818.78 381.47
11 4 -3 2260.2 507.4
-11 -4 -3 2157.98 442.86
-11 -4 -3 1800.53 370.58
-11 4 -3 2436.96 400.91
11 -4 -3 2611.99 590.65
-11 4 -3 2378.84 416.1
-4 11 -3 1658.99 365.18
-11 4 3 2235.96 398.27
11 4 3 2206.78 431.61
4 11 -3 2250.57 408.08
-4 -11 -4 1434.64 420.99
11 4 -4 1807.5 512.34
-11 -4 -4 1665.39 411.67
4 11 -4 1756.45 397.35
-11 -4 -4 1425.06 379.14
-11 4 -4 1430.74 369.32
11 -4 4 2215.29 746.86
-11 4 -4 1838.3 417.32
11 -4 -4 1540.33 547.41
-4 11 -4 1935.32 376.39
11 -4 5 -47.78 645.8
-4 -11 5 350.66 259.68
-11 -4 5 273.54 241.18
-4 11 -5 -158.35 357.67
-4 -11 -5 166.05 294.01
-4 11 -5 -224 316.77
4 -11 5 93.27 449.16
-11 -4 -5 209.56 307.25
-4 11 5 153.66 334.03
-11 -4 -5 -15.12 341.09
-11 4 -5 83.7 276.44
11 -4 -5 70.53 523.3
-11 -4 -5 204.58 237.74
11 4 -5 -388.72 432.62
4 11 -5 343.7 265.54
-11 4 -5 506.88 331.86
-11 4 -5 93.38 298.09
-4 11 -5 367.41 236.67
4 11 5 362.73 240.65
-4 11 5 271.19 226.22
-4 11 -5 -150.94 260.35
-11 -4 5 468.95 227.35
-4 -11 6 411.66 299.66
-11 -4 6 482.6 253.31
11 4 -6 -360.12 417.59
-4 11 -6 535.05 317.66
4 -11 6 366.11 510.43
-11 -4 -6 -287.43 412.98
11 4 6 429.6 653.95
-11 -4 -6 225.43 329.27
-11 4 -6 -170.64 268.68
-4 11 -6 -277.33 359.05
11 -4 -6 240.43 512.48
-11 -4 -6 91.69 229.77
4 11 -6 335.15 258.55
-11 4 -6 -80.97 331.88
-4 -11 -6 -32.37 221.64
-11 4 -6 -375.83 329.93
4 11 6 87.09 237.11
-4 11 -6 -50.57 219.2
-4 11 6 353.43 248.44
-4 11 6 28.32 318.74
11 -4 6 -187.55 674.01
-11 -4 6 129.45 228.55
-11 -4 7 -165.6 267.01
11 -4 7 223.02 747.55
-11 -4 -7 -189.73 379.02
-4 11 -7 375.55 336.33
11 4 -7 -274.62 410.4
-4 11 -7 -441.81 393.08
4 11 -7 220.86 280.64
-11 -4 -7 -209.59 326.35
4 -11 7 -955.76 623.28
-4 11 7 166.85 322.77
-4 11 -7 13.64 225.72
11 -4 -7 5.68 560.43
-11 -4 -7 -53.65 238.8
11 4 7 158.25 655.86
-11 4 -7 -333.39 322.53
-4 -11 -7 331.02 259.49
-11 4 -7 -196.5 334.76
4 11 7 171.38 243.15
-4 11 7 168.26 249.47
-11 -4 7 -271.51 234.54
-4 -11 7 353.16 295.36
-11 4 -7 -43.99 272.49
-11 4 -8 653.46 291.84
-4 11 -8 292.22 377.91
-11 -4 -8 260.04 368.25
-4 11 -8 1127.83 380.81
-4 11 8 203.66 322.39
11 4 -8 -59.94 437.79
11 4 8 374.53 632.92
4 -11 8 -1222.85 671.51
-4 -11 8 424.69 289.09
-11 -4 -8 275.26 387.39
-4 11 -8 298.96 251.69
11 -4 -8 792.28 588.16
-11 -4 -8 441 267.57
-4 -11 -8 462.2 257.79
11 -4 8 -823.04 752.73
-11 4 -8 326.28 309.63
-11 4 -8 689.35 394.22
4 11 -8 191.8 249.53
4 11 8 893.36 299.24
-4 11 8 462.07 287.54
-11 -4 8 455.4 251.78
-11 -4 8 -249.04 276.32
-11 4 -9 376.26 249.32
-4 11 -9 870.02 369.36
-4 11 -9 404.62 243.02
-4 -11 -9 729.84 271.53
-11 -4 -9 452.01 254.52
4 11 9 420.61 244.11
-4 11 9 193.15 269.01
-11 -4 9 556.4 243.5
-4 -11 9 465.01 290.07
4 11 -9 163.95 232.83
4 11 -10 263.81 225.3
-4 11 -10 670.5 345.22
-4 11 -10 141.45 213.28
-11 -4 -10 150.02 216.48
-4 -11 -10 466.74 247.39
4 11 10 102.81 206.33
-4 11 10 441.45 230.32
-11 -4 10 477.57 243.21
-4 -11 10 186.69 235.67
4 11 -11 -145.63 216.65
-4 11 -11 355.6 293.2
-4 -11 11 3.51 219.17
-11 -4 -11 93.45 204.15
-4 -11 -11 5.88 212.51
4 11 11 303.75 221.49
-4 11 11 159.11 206.13
-11 -4 11 255.6 211.54
11 -4 -11 -196.14 205.18
-4 11 -12 439.45 254.18
-11 -4 -12 95.16 180.53
-4 -11 -12 -2.2 181.22
4 11 12 48.98 181.49
-4 11 12 128.12 197.68
-11 -4 12 90.81 184.82
-4 -11 12 74.04 203.79
11 -4 -12 -0.16 198.49
-4 11 -13 50.13 191.05
4 11 -13 -346.33 226.59
-11 -4 -13 -84.03 156.21
-4 -11 -13 -9.58 155.97
-4 11 13 -36.63 164.07
-11 4 13 -4.15 154.64
11 -4 -13 -0.25 145.79
11 4 -13 -81.07 171.5
-4 -11 -14 -9.92 114.07
11 -4 -14 11.74 113.79
4 11 -14 -63 150.21
-11 -4 -14 170.58 129.55
-4 11 14 164.38 135.66
-11 4 14 43.83 124.95
11 4 -14 92.58 134.84
-11 5 0 5913.33 575.63
11 5 0 5711.61 620.86
-5 11 0 7215.43 658.55
11 5 -1 6333.77 692.41
11 5 1 6395.95 651.09
5 11 -1 6308.21 662.92
-5 11 -1 6794.56 637.71
-11 5 1 6176.53 587.08
11 -5 -1 6385.19 698.65
-11 -5 -1 6687.43 700.56
-11 5 -1 6898.51 633.61
-11 -5 -1 5815.37 489.73
5 11 -2 1543.8 375.54
11 5 2 2206.92 443.97
-11 -5 -2 2172.8 453.92
-5 11 -2 2564.44 420.38
-11 -5 -2 1492.33 343.39
11 -5 -2 2328.1 539.09
11 5 -2 1775.66 446.85
-11 5 -2 2189.96 419.09
-11 5 2 1976.55 387.69
-11 -5 -3 546.71 342.03
11 -5 3 -421.15 583.44
11 5 -3 326.87 375.21
-11 -5 -3 -135.01 274.8
11 5 3 -26.92 308.84
11 -5 -3 206.62 407.08
-11 5 -3 51.48 220.82
5 11 -3 260.02 305.83
-11 5 -3 73.62 270.72
-5 11 -3 512.97 300.21
-11 5 3 359.54 305.84
-5 -11 4 1261.76 292.22
-11 5 -4 2036.23 383.69
-5 -11 -4 1010.41 426.47
5 11 -4 1372.78 394.38
11 -5 -4 1372.34 631.71
-11 -5 -4 1434.14 399.69
-5 11 -4 721.9 275.16
11 5 -4 1545.53 508.03
-5 11 -4 1315.28 355.62
-11 -5 -4 1265.28 389.54
-11 -5 -4 1699.85 285.42
-11 5 -4 1304.71 330.8
11 -5 4 918.06 629.43
5 11 -4 1640.34 317.82
-11 5 -4 1511.1 415.62
5 11 4 1314.05 304.94
-5 11 -4 701.11 294.08
-11 -5 4 2196.05 357.49
-11 5 -4 1365.28 333.53
5 11 -5 4289.37 421.72
-5 11 -5 4318.82 520.04
-11 5 -5 4044.82 579.99
11 5 -5 3340.29 645.19
-11 -5 -5 3744.66 594.22
-11 5 -5 4744.03 476.83
-5 11 5 3988.26 463.02
5 11 -5 3952.49 543.6
-5 -11 -5 3277.57 513.7
-5 11 -5 3617.03 415.95
-11 5 -5 3461.09 406.72
11 -5 5 3877.51 899.05
-5 11 5 3376.94 383.28
-11 -5 -5 3537.5 550.88
-5 -11 -5 3834.51 393.61
11 -5 -5 3438.4 798.13
-5 11 -5 3764.36 377.81
11 5 5 4502.97 825.84
-5 11 -5 4972.7 514.22
5 11 5 5189.76 461.22
-11 5 -5 3961.38 569.01
-11 -5 -5 3624.32 395.64
-11 -5 5 4297.1 409.34
-5 -11 5 4015.84 439.79
-11 -5 5 4338.32 456.57
-5 -11 6 2579.36 408.65
5 -11 6 1134.83 599.82
-11 -5 6 2524.04 373.79
11 -5 6 1782.11 857.56
-5 11 -6 2747.44 419.19
11 5 6 2405.25 777.84
11 -5 -6 3179.21 833
-5 -11 -6 2075.64 422.1
-11 -5 -6 1931.62 456.72
11 5 -6 2361.49 602.95
-11 -5 -6 2298.77 355.64
-5 11 -6 2567.38 432.35
-11 5 -6 2154.45 378.14
-11 -5 -6 2237.13 554.68
-5 11 -6 2624.74 342.53
-5 -11 -6 2724.14 358.4
-11 5 -6 2713.66 536.72
-5 11 6 2724.96 380.31
-5 11 6 1837.39 390.96
-11 5 -6 2071.44 473.86
5 11 6 2018.36 360.03
-11 -5 6 2315.71 342.79
5 11 -6 2881.94 408.61
-11 -5 7 1166.85 308.22
-5 11 -7 2427.55 457.53
-11 5 -7 1270.34 354.59
11 -5 7 1820.42 974.61
5 -11 7 1417.65 609.43
-11 -5 -7 1905.42 488.53
11 5 -7 1866.91 574.55
-5 11 7 1682.38 382.51
-5 11 -7 1212.16 290.78
11 -5 -7 1508.73 704.67
-11 -5 -7 1537.68 490.88
5 11 -7 1797.29 366.1
-11 -5 -7 1186.18 302.62
11 5 7 1308.09 703.21
-5 -11 -7 1835.19 337.39
-5 11 -7 2054.89 457.96
-11 5 -7 1132.45 392.62
-11 5 -7 1448.84 462.19
5 11 7 1612.34 325.51
-5 11 7 1302.39 322.48
-11 -5 7 1213.39 293.23
-5 -11 7 2293.72 401.2
-11 -5 8 652.29 272.74
-5 11 -8 907.05 345.63
-5 11 -8 868.23 282.4
-11 5 -8 286.33 299.3
-5 11 -8 787.78 387.99
5 11 8 418.95 262.49
5 11 -8 538.67 267.45
-11 -5 -8 373.96 253.03
-5 -11 -8 1279.91 295.42
-5 11 8 814.87 291.17
-5 -11 8 975.39 336.22
-11 -5 8 270.34 240.04
-5 11 -9 -115.03 200.8
-11 5 -9 283.34 259.09
5 11 -9 -7.08 222.89
-5 11 -9 191.59 321.71
-5 -11 9 286.95 264.54
-11 -5 -9 179.09 215.71
-5 -11 -9 371.25 260.32
5 11 9 166.68 214.86
-5 11 9 370.78 260.99
-11 -5 9 122.96 210.3
5 11 -10 -160.33 215.32
11 -5 -10 -246.29 215.17
-5 11 -10 4.7 299.62
-11 -5 -10 -20.16 213.85
-5 -11 -10 257.44 235.19
5 11 10 138.55 211.52
-5 11 10 270.68 242.8
-11 -5 10 7.89 211.97
-5 -11 10 -187.53 228.39
-5 11 -10 -961.57 259.84
5 11 -11 -311.3 201.52
-11 -5 -11 -5.2 204.24
-5 -11 -11 342.22 230.49
-5 11 -11 -34.66 264.95
5 11 11 443.3 205.2
-5 11 11 37.26 217.55
11 -5 -11 5.37 192.55
-11 -5 11 25.98 192.64
-5 -11 11 -81.78 229.12
-11 -5 -12 422.61 203.32
5 11 12 342.49 184.74
-5 11 -12 341.16 242.21
-5 -11 -12 -9.17 186.41
-5 11 12 670.28 234.51
-11 5 12 284.75 201.47
-11 -5 12 280 196.71
-5 -11 12 226.11 204.98
11 -5 -12 -4.22 159.76
-5 11 -13 -128.69 181.72
-11 -5 -13 249.05 161.02
-5 -11 -13 19.16 172.18
-11 5 13 -86.99 154.73
11 -5 -13 0.77 168.28
-11 -5 13 8.61 148
11 5 -13 -185.76 171.4
5 11 -14 261.26 149.67
-11 -5 -14 185.7 125.49
-5 11 14 171.12 129.44
-11 5 14 283.97 128.07
-5 -11 -14 -1.04 108.49
11 5 -14 -18.13 121.89
-6 11 0 416.89 342.85
6 11 0 -68.02 343.38
11 6 0 -233.04 331.99
-11 6 0 -134.04 292.15
11 6 -1 -40.46 331.96
-11 6 1 121.51 278.9
6 11 -1 290.43 302.39
11 6 1 278.21 307.33
-11 6 -1 232.63 282.75
-6 11 -1 389.98 307.31
-11 -6 -1 433.52 369.52
-11 -6 -2 913.03 396.78
11 -6 2 366.15 467.58
11 6 2 394.92 358.15
-11 6 -2 583.29 341.89
-11 -6 -2 120.28 238.4
11 -6 -2 464.2 472.06
6 11 -2 708.62 361.21
11 6 -2 250.29 358.15
-6 11 -2 121.66 273.17
-11 6 2 291.24 313.38
-11 6 -3 217.55 288.4
-6 -11 3 463.9 236.2
11 6 3 294.97 328.96
-11 -6 3 124.45 217.61
-11 -6 -3 689.31 356.22
11 -6 3 648.51 583.07
-6 11 -3 581.59 275.92
6 11 -3 847.48 389.08
11 -6 -3 211.81 474.95
-11 -6 -3 539.1 240.82
-11 -6 -3 286.19 269.74
11 6 -3 -39.13 352.98
6 11 3 499.72 257.3
-11 6 -3 155.98 287.04
-6 11 -3 352.09 288.98
-11 6 3 1025.43 387.29
-11 -6 4 -33.9 205.58
-6 -11 4 42.81 220.45
6 11 -4 -207.93 343.83
-11 -6 -4 -103.57 318.02
-6 11 4 153.35 262.32
-11 -6 4 297.13 238.36
-11 6 -4 501.63 312.36
-6 -11 -4 427.56 369.18
-11 6 -4 32.26 251.01
-6 11 -4 -299.77 312.3
11 -6 4 -589.12 624.82
-11 6 -4 -324.45 278.77
-6 11 -4 154.98 284.96
6 11 4 -229.56 227.18
-11 -6 -4 205 217.19
11 -6 -4 -64.6 545.24
-6 11 -4 158.57 196.96
11 6 -4 162.41 376.72
-11 -6 -4 -340.29 289.07
6 11 -4 -54.38 216.26
-11 6 -4 -106.56 299.33
-6 11 -4 -356.19 326.37
-11 6 4 300.23 291.7
-6 -11 5 -438.71 259.79
-11 -6 5 184.35 249.05
-6 11 5 203.7 281.12
-11 6 -5 452 330.21
11 6 5 -36.56 526.24
-6 11 -5 -19.97 300.66
-6 -11 -5 -154.86 366.81
-11 -6 -5 -418.91 358.93
-11 -6 -5 -127.91 358.04
6 11 -5 -193.5 346.79
-11 6 -5 -284.89 312.41
-6 11 -5 -266.81 316.45
11 6 -5 201.73 398.32
-6 11 -5 24.19 213.94
-11 -6 -5 -287.77 237.33
11 -6 -5 113.28 531.65
-6 -11 -5 6.82 234.49
6 11 -5 15.41 229.46
-11 6 -5 420.72 322.38
6 11 5 132.63 246.16
-11 6 -5 -355.19 357.88
-6 11 5 -75.44 239.21
-6 11 -5 -147.54 329.96
-11 -6 5 200.45 234.3
11 -6 5 254.33 676.39
-6 -11 6 613.68 290.74
-11 -6 6 328.59 254.06
-11 -6 -6 401.19 386.19
11 -6 6 -729.94 816.08
-6 11 6 508.5 292.23
-11 6 -6 1526.85 372.06
-6 11 -6 1063.91 355.49
-11 6 -6 309.07 293.03
11 -6 -6 1200.06 655.17
11 6 6 1413.2 698.09
-6 11 -6 664.4 367.88
-6 -11 -6 332.62 329.89
-11 -6 -6 521.13 339.82
-6 11 -6 551.72 246.52
-11 -6 -6 607.9 265.73
6 11 -6 860.99 296.48
-6 -11 -6 533.1 263.59
11 6 -6 650.08 487.74
-11 6 -6 612.86 386.3
-11 6 -6 1141.37 393.98
6 11 6 459.43 297.12
-6 11 6 601.98 287.54
-11 -6 6 1108.49 294.38
6 -11 7 169.03 615.67
-6 11 -7 794.75 355.82
-11 -6 -7 19.73 323.88
-11 6 -7 193.54 277.32
11 -6 7 50.56 823.76
11 6 -7 160.41 421.11
-11 -6 -7 -159.71 414.84
-11 -6 7 -239.83 298.55
6 11 -7 429.96 279.78
-11 -6 -7 84.24 238.83
-6 -11 -7 -32.32 228.36
-6 11 -7 -172.28 232.65
11 -6 -7 -513.84 615.27
-6 11 -7 -199.23 334.25
-11 6 -7 -449.8 330.23
6 11 7 -290.32 254.71
-11 6 -7 -484.77 309.55
-6 11 7 276.89 260.51
-11 -6 7 170.39 238.65
-6 -11 7 -61.61 257
-6 11 -8 387.7 318.01
6 11 8 38.12 231.12
-11 6 -8 255.71 271.01
-6 11 -8 -115.81 212.88
6 11 -8 -305.79 250.47
-11 -6 -8 56.75 226.99
-6 -11 -8 -51.52 221.43
-6 11 -8 -126.69 326.17
-6 11 8 207.71 251.23
-11 -6 8 -118.06 216.51
-6 -11 8 286.96 272.46
-11 -6 8 -447.89 295.32
-11 6 -9 195.41 228.9
-6 11 -9 -309.89 223.04
-6 11 -9 452.86 339.55
6 11 -9 -8.4 207.58
-11 -6 -9 51.94 223.38
-6 -11 -9 16.99 209.45
6 11 9 271.64 236.32
-6 11 9 165.48 242.13
-11 -6 9 204.15 225.28
-6 -11 9 163.05 238.8
-11 6 -10 318.84 244.87
-6 11 -10 188.12 300.37
6 11 -10 56.39 188.12
-11 -6 -10 -187.71 228.69
-6 -11 -10 -18.94 225.41
-11 -6 10 -128.96 222.67
6 11 10 263.54 244.97
-6 11 10 128.34 215.16
11 -6 -10 -59.14 208.42
-6 -11 10 49.82 236.59
-6 -11 -11 -3.71 224.76
-6 11 -11 181.62 261.5
-11 -6 -11 -90.62 210.63
6 11 11 -328.88 218.7
-6 11 11 54.93 210.5
-11 6 11 -131.69 201.47
11 -6 -11 -4.02 180.45
-11 -6 11 91.58 205.53
-6 -11 11 11.16 207.66
-6 11 -12 -266.22 228.76
-6 -11 -12 -0.49 173.76
-11 -6 -12 69.08 181.99
-6 11 12 122.7 182.05
-11 6 12 -7.34 170.89
11 -6 -12 0.26 161.47
-11 -6 12 -145.78 165.11
-6 -11 12 52.76 192.96
-6 11 -13 -22.3 155.25
-11 -6 -13 34.05 147.37
-6 -11 -13 12.6 146.62
-6 11 13 24.21 149.5
-11 6 13 -72.14 144.79
-6 -11 13 181.96 164.96
-11 -6 13 44.42 146.03
11 6 -13 -85.54 147.24
-11 -6 -14 134.57 119.53
-6 11 14 76.92 118.48
-11 6 14 -48.22 99.88
11 6 -14 215.18 119.62
11 7 0 10048.42 858.45
7 11 0 11236.55 908.36
-11 7 0 11690.16 837.56
-7 11 0 12069.5 884.35
-7 -11 0 10636.23 553.35
11 7 -1 4565.7 656.39
-7 11 -1 4481.72 423.32
11 7 1 4200.11 621.72
7 11 -1 4705.46 628.33
11 -7 1 3766.39 610.6
-11 7 -1 5388.98 621.67
-11 7 -1 4743.76 448.02
-11 -7 -1 4844.29 401.84
-11 7 1 4469.99 559.83
-7 11 -1 4932.54 610.76
-7 -11 1 5110.63 406.66
-11 -7 1 4889.69 411.74
11 7 -2 994.15 405.58
-7 -11 2 1417.47 268.74
-11 -7 -2 1673.68 467.83
-11 7 -2 1578.76 329.08
-11 7 -2 1478.79 327.82
-11 -7 2 1313.93 289.69
11 -7 2 511.33 483.99
-11 -7 -2 1300 303.75
-7 11 -2 1985.71 328.35
-7 11 2 1155.75 312.87
7 11 -2 1146.77 419.95
7 11 2 914.38 263.12
-11 7 -2 1727.86 423.31
-7 11 -2 1369.57 410.26
-11 7 2 1373.2 422.27
11 7 2 1482.65 432.8
11 -7 -2 1684.11 572.61
-11 -7 3 429.1 215.38
-7 -11 3 671.29 247.44
7 11 -3 822.12 411.31
-11 -7 3 38.19 225.24
-11 7 -3 764.13 314.54
-11 -7 -3 418.83 340.17
-11 7 3 822.45 329.29
-7 11 -3 -76.52 275.83
11 -7 3 34.12 514.05
-11 7 -3 121.93 274.71
-7 11 3 628.92 301.58
-11 -7 -3 533.76 294.24
-7 11 -3 766.07 326.97
11 -7 -3 258.64 484.29
-7 11 -3 770.66 357.01
-11 -7 -3 428.33 241.48
-7 -11 -3 478.98 234.71
7 11 -3 540.98 237.55
7 11 3 324.95 231.13
-11 7 -3 728.55 385.98
11 7 3 180.97 345.11
11 7 -3 938.81 433.89
-11 7 3 1540.68 459.79
-7 -11 -3 587.6 405.68
-7 -11 4 1524.07 298.25
7 11 -4 1529.62 297.11
-11 -7 4 1776.3 347.42
-7 11 -4 2392.39 400.94
-11 7 -4 2284.73 410.02
-7 -11 -4 1483.46 457.81
-7 11 -4 1127.04 314.26
-11 -7 -4 1271.44 422.47
-7 11 4 1261.77 332.75
-11 7 -4 1152.84 338.87
11 -7 -4 869.42 595.38
-11 -7 -4 972.69 391.94
-11 -7 -4 1678.61 315.85
-7 -11 -4 1506.28 295.54
11 -7 4 2449.23 807.36
-11 7 4 1384.33 355.87
7 11 4 2114.55 348.48
-11 7 -4 1209.55 390.2
11 7 -4 1301.81 475.9
-7 11 -4 913.89 385.46
-11 -7 4 1680.91 315.19
7 11 -4 1545.48 462.93
-7 -11 5 2456.9 368.57
-7 11 -5 2640.65 330.78
-7 11 -5 3694.08 468.56
-11 7 -5 3534.95 529.58
-11 7 -5 3522.33 445.36
-7 11 -5 2789.81 404.9
-7 -11 -5 2470.06 540.85
11 -7 5 3169.16 918.41
-11 -7 -5 2390.9 522.99
-7 11 5 2640.93 376.98
-11 7 -5 2112.69 390.94
-7 -11 -5 2844.78 377.1
-11 -7 -5 2930.91 564.43
7 11 -5 2541.83 357.73
-11 -7 -5 2575.01 354.85
7 11 5 3017.99 424.52
-7 11 5 2429.7 367.8
11 7 -5 2103.83 578.61
11 -7 -5 2339.49 765.26
-11 7 -5 2878.76 522.79
7 11 -5 2675.73 539.38
-7 11 -5 3284.64 551.07
-11 -7 5 2798.89 372.09
-11 -7 5 2918.77 422.57
-11 -7 6 4328.53 482.91
-11 7 -6 4364.96 508.37
-7 11 -6 4629.99 482.96
-11 -7 -6 3466.42 617.16
11 -7 6 3700.17 1025.71
-7 -11 -6 3712.05 609.93
-7 -11 -6 4113.72 433.74
-11 -7 -6 3294.14 575.05
-7 11 -6 4750.64 539.91
-11 7 -6 4617.71 661.74
-11 -7 -6 4438.06 441.15
-11 7 -6 3069.12 427.78
11 -7 -6 3212.54 839.06
-7 11 -6 3548.86 389.03
7 11 6 4501.81 498.72
-7 11 6 4740.92 473.29
11 7 -6 4911.21 770.15
-11 7 -6 4709.11 650.15
-7 11 -6 3743.8 609.81
-11 -7 6 4166.59 451.46
-7 -11 6 4461.37 495.75
7 11 -6 4837.57 444.07
-11 7 -7 3240.98 426.09
-7 11 -7 3641.94 477
-11 -7 -7 2529.9 520.18
-7 -11 -7 3192.16 396.12
11 -7 7 3823.24 1045.56
-7 11 -7 3977.03 526.28
-11 -7 -7 2868.03 593.44
-11 -7 -7 3967.67 432.97
11 -7 -7 2652.9 743.06
-7 11 -7 3397.54 390.7
7 11 7 3879.99 440.66
11 7 -7 3494.57 702.05
-7 11 7 4072.08 444.89
-11 7 -7 3465.04 575.17
-11 -7 7 3501.02 431.34
-7 -11 7 3331.81 444.98
-11 -7 7 3455.64 441.41
7 11 -7 3692.14 403.9
-7 11 -8 3144.69 430.47
-7 11 -8 2135.11 308.63
-11 7 -8 2021.13 362.12
-11 -7 -8 2719.64 383.92
7 11 -8 2074.98 319.07
-7 -11 -8 2394.52 361.91
-7 11 8 2746.2 396.4
-11 7 8 2399.05 351.53
-7 11 -8 2714.37 443.59
7 11 8 2070.63 358.3
-11 -7 8 2596.44 373.16
-7 -11 8 2314.42 384.79
-11 -7 8 2011.06 361
-7 11 -9 660.15 230.7
-7 11 -9 1438.65 372.19
-11 -7 -9 914.41 280.14
-7 -11 -9 1078.76 278.75
7 11 9 728.97 274.99
-7 11 9 1259.73 306.77
-11 7 9 903.04 255.6
-11 7 -9 954.65 295.95
-11 -7 9 1100.64 300.47
-7 -11 9 1204.9 321.74
-11 7 -10 191.05 220.06
-7 11 -10 514.63 304.74
-11 -7 -10 327.5 256.24
-7 -11 -10 537.34 254.28
7 11 10 306.02 226.79
-7 11 10 448.61 246.22
-11 -7 10 507.01 233.67
-7 -11 10 228.67 237.59
-7 -11 -11 1.9 234.5
-11 7 -11 567.77 240.72
-7 11 -11 10.4 232.32
-11 -7 -11 248.92 211.17
-7 11 11 130.43 207.03
-11 7 11 413.87 212.61
-11 -7 11 156.69 197.62
-7 -11 11 107 223.66
-11 -7 -12 -35.3 175.69
-7 -11 -12 -2.66 206.82
-7 11 12 387.35 197.19
-11 7 12 164.14 171.56
-11 -7 12 230.86 182.79
-7 -11 12 103.68 177.25
-7 11 -12 154.01 192.07
-7 11 -13 555.83 165.97
-11 -7 -13 709.29 189.01
-7 -11 -13 -0.34 168.28
-7 11 13 590.66 182.63
-11 7 13 506.96 161.19
-7 -11 13 603.93 171.8
-11 -7 13 254.7 164.7
11 7 -13 299.29 149.32
-11 -8 0 103.11 178.63
-8 -11 0 -6.06 183.18
-8 11 0 13.69 259.6
-11 8 0 -426.09 322.41
-11 -8 0 -44.4 223.16
-11 -8 0 -280.04 227.45
8 11 0 -320.24 364.34
-11 8 0 -405.46 377.73
-8 11 0 791.11 400.62
11 8 0 -95.81 338.91
-11 -8 1 21.69 193.32
-8 -11 1 -148.26 191.47
-11 -8 -1 136.28 176.57
-8 -11 -1 -172.85 192.73
-11 8 -1 -95.8 240.04
-8 11 1 362.52 410.02
-11 -8 1 -163.59 215.59
-8 11 -1 -32.12 248.14
-8 11 1 -29.07 256.74
-11 8 -1 213.78 275.67
-8 11 -1 -12.81 268.2
-11 -8 -1 -62.77 222.96
11 8 1 -93.64 317.56
11 8 -1 349.99 390.47
-11 8 1 98.34 299.93
-11 8 -1 -359.36 329.95
-11 8 1 -307.36 336.94
-8 11 -1 145.59 340.77
8 11 -1 248.98 347.51
8 11 -2 -314.14 400.07
-11 -8 2 134.03 208.6
-8 -11 2 5.23 193.57
-11 -8 -2 -237.44 186.55
-11 -8 -2 216.83 325.12
-11 -8 2 170.72 239.96
-11 8 -2 209.74 275.86
11 -8 2 79.64 507.91
-8 11 -2 543.28 299.73
11 8 -2 -110.44 366.71
-8 11 2 -187.37 254.82
-11 -8 -2 128.06 220.81
-11 8 2 187.86 277.23
-11 8 -2 325.2 279.34
-8 11 -2 -136.7 287.83
-8 -11 -2 467.51 245.48
11 8 2 -243.55 383.87
-11 8 -2 583.32 344.41
-8 11 -2 -488.36 356.99
-11 8 2 -8.03 299.29
-11 -8 3 175.94 212.75
-8 -11 3 215.13 212.57
8 11 -3 121.87 360.08
-8 -11 3 379.85 248.11
11 8 -3 167.14 411.63
-11 -8 -3 -86.04 201.88
-8 -11 -3 544.48 419.5
-11 -8 3 259.26 255.6
-11 -8 -3 -21.97 275.58
-11 -8 -3 521.76 377.52
-11 8 -3 616.97 300.27
-8 11 -3 -205.45 302.62
-8 -11 -3 -101.67 239.76
11 -8 3 565.89 592.73
-8 11 3 168.42 258.2
-11 8 3 596.65 301.19
-11 8 -3 131.72 277.55
11 -8 -3 499.17 529.92
-8 11 -3 90.31 332.45
8 11 -3 96.35 214.81
8 11 3 -138.04 260.67
-11 8 -3 194 326.29
-11 -8 -3 292.62 250.21
-11 -8 4 28.45 220.11
-8 -11 4 120.23 228.34
-8 -11 4 276.43 222.93
-11 -8 4 251.74 280.42
-11 8 -4 350.32 315.98
-8 -11 -4 385.68 466.97
-8 11 -4 -238 312.01
-11 -8 -4 -74.64 365.7
11 -8 4 210.28 621.79
11 -8 -4 1112.15 646.91
-8 11 4 -96.28 267.29
-8 11 -4 -37.5 290.25
-11 -8 -4 349.18 393.75
11 8 -4 -500.75 445.22
-11 -8 -4 247.21 233.42
-8 -11 -4 240.71 249.09
8 11 -4 43.37 212.91
8 11 4 -376.45 249.81
-11 8 -4 272.42 354.26
-8 11 -4 39.51 311.6
8 11 -4 35.14 377.03
-11 8 -4 -341.4 310.78
-11 -8 5 1272.74 308.29
-11 -8 -5 1500.67 458.08
-8 -11 5 940.76 296.7
-8 -11 5 429.92 231.39
-11 -8 5 1037.3 324.26
-11 8 -5 1529.94 360.99
-8 11 -5 743.48 329.95
11 -8 -5 1421.48 684.65
-8 -11 -5 737.08 365.96
-11 -8 -5 1075.11 411.77
-8 11 -5 1533.33 380.05
-11 -8 -5 1134.88 299.33
-8 -11 -5 1025.24 300.83
-11 8 -5 435.48 309.34
8 11 -5 964.69 300.42
11 -8 5 1548.13 767.16
8 11 5 960.74 310.92
8 11 -5 554.52 414.39
-11 8 -5 1462.61 472.52
-8 11 5 648.3 258.07
-8 11 -5 421.19 375.58
11 8 -5 669.87 452.16
-8 -11 6 -44.02 241.41
-11 -8 6 -283 294.89
-11 8 -6 222.82 323.93
-8 11 -6 333.42 330.21
-8 -11 -6 41.52 321.91
-11 -8 -6 366.96 320.35
-11 8 -6 -410.21 322.75
11 -8 -6 237.31 618.38
-8 11 -6 521.67 375.1
-11 -8 -6 281.19 346.83
11 -8 6 -986.71 773.06
-8 11 -6 305.87 213.28
-11 -8 -6 -296.5 268.24
-8 -11 -6 135.3 230.21
8 11 -6 194.93 234.92
8 11 6 -135.08 260.75
8 11 -6 307.6 363.81
-11 8 -6 543.58 384.97
-8 11 6 -81.57 252.75
-8 11 -6 196.52 367.9
11 8 -6 -99.91 383.86
-11 -8 6 245.49 241.74
-8 -11 6 -128.74 219.24
-11 -8 7 7.25 245.68
-8 11 -7 8.59 292.64
-8 11 -7 -148.56 215.58
-11 8 -7 -131.62 296.21
-8 11 -7 534.93 335.75
-11 -8 -7 -484.36 255.11
-8 -11 -7 0.65 236.29
8 11 7 270.86 260.76
-8 11 7 -106.53 238.84
-11 8 7 20.81 211.35
-11 -8 7 245.74 244.89
-8 -11 7 28.65 257.34
-11 8 -8 653.45 299.29
-8 11 -8 985.91 333.3
-8 11 -8 1054.23 364.11
-8 11 -8 258.61 194.39
-11 -8 -8 379.77 259.66
-8 -11 -8 474.27 258.7
8 11 8 712.52 282.96
-8 11 8 821.96 287.81
-11 8 8 496.61 231.99
-11 -8 8 466.3 255.13
-11 -8 8 599.87 274.74
-8 -11 8 669.26 291.62
-11 8 -9 43.19 241.9
-8 11 -9 -393.78 296.63
-11 -8 -9 165.29 231.24
-8 -11 -9 32.41 228.22
-8 11 9 282.81 225.45
-11 8 9 257.9 209.16
-11 -8 9 198.4 224.63
-8 -11 9 -76.93 224.97
-11 8 -10 37.72 240.02
-8 11 -10 -319.82 277.48
-8 -11 -10 41.08 212.38
-11 -8 -10 -13.62 215.74
-8 11 10 -55.04 197.04
-11 8 10 -59.07 186.4
-11 -8 10 -235.46 211.89
-8 -11 10 9.68 211.44
-11 -8 -11 101.94 201.61
-8 11 -11 -232.79 249.07
-8 -11 -11 -21.95 192.4
-8 11 11 21.38 181.44
-11 8 11 108.1 179.43
-11 -8 11 24.6 176.62
-8 -11 11 176.86 201.22
-11 8 -11 184.78 209.99
-8 11 -12 120.67 184.18
-11 -8 -12 -10.75 167.63
-8 -11 -12 9.1 191.49
-8 11 12 221.36 176.14
-11 8 12 219.95 166.43
-11 -8 12 79.03 161.95
-8 -11 12 -187.23 179.15
11 8 -12 -237.22 185.29
-11 -8 -13 135.98 139.81
-8 -11 -13 -13.91 123.23
-8 11 13 73.52 134.1
-11 8 13 105.21 128.24
-8 -11 13 123.87 129.6
-11 -8 13 -49.83 126.86
11 8 -13 43.97 118.09
-11 9 0 9144.92 533.54
-9 11 0 9914.06 599.93
11 9 0 10196.91 924.9
9 11 0 9853.54 910.2
-11 9 0 9578.34 604.4
-11 9 0 10923.12 888.37
-9 11 0 11653.3 924.01
-11 -9 0 10717.84 568.86
-9 11 0 10032.8 583.58
-9 -11 0 10119.27 576.7
-9 -11 0 9283.71 572.19
-11 -9 0 9527.72 566.66
-9 11 1 11100.52 920.35
-11 9 -1 9446.66 571.84
-11 9 1 7912.51 513.62
-9 11 -1 10262.75 622.35
-9 11 1 9464.84 569.76
11 9 -1 9200.16 898.59
9 11 -1 10315.19 950.67
11 9 1 9772.75 924.68
9 11 1 10750.97 977
-11 9 1 8228.42 580.41
-9 11 -1 8450.17 561.31
-11 9 -1 9954.26 855.88
-11 -9 -1 9579.66 560
-9 11 -1 10016.14 874.1
-11 9 1 10650.17 887.12
-11 9 -1 10627.99 640.05
-11 -9 1 8897.61 547.22
-9 -11 1 10206.7 576.18
-11 -9 -1 9551.07 536.21
-9 -11 -1 9558.14 568.93
-9 -11 -1 8626.37 542.47
-9 -11 1 9100.06 601.11
-11 -9 1 9990.81 589.21
-9 -11 -1 8626.56 557.58
-11 -9 -1 10508.28 595.53
-11 9 -2 2048.83 368.78
-11 -9 -2 1725.89 290.61
-9 -11 -2 2096.81 316.74
-11 -9 -2 1787.83 513.36
-9 -11 2 1564.25 337.88
-11 -9 2 1972.74 333.03
-11 9 -2 1565.53 337.96
-9 11 -2 1561.92 350.86
-11 9 2 1846.57 369.84
-9 11 2 1974.62 352.48
9 11 -2 1967.26 520.9
-11 -9 -2 2581.41 347.8
-9 11 -2 1211.71 344.18
11 9 -2 2149.96 527.67
-9 -11 -2 1995.13 319.7
11 9 2 2097.18 523.74
-11 9 -2 2348.3 513.37
-11 -9 2 2134.79 332.85
-9 -11 2 2542.04 348.5
-9 11 -2 2474.5 519.58
-11 9 2 3193.2 573.14
-11 -9 3 256.38 231.49
9 11 -3 -333.41 376.56
-9 -11 3 154.23 213.6
-9 -11 3 275.27 278.62
-11 -9 -3 -184.13 202.44
-11 -9 3 556.65 271.42
-9 -11 -3 137.33 392.62
-11 -9 -3 458.92 380.64
-11 9 -3 183.3 294.19
-9 11 -3 -573.88 340.22
-11 9 3 653.58 337.13
-9 11 3 121.23 257.75
-11 -9 -3 42.55 229.71
11 9 -3 271.81 376.95
-9 -11 -3 327.5 251.71
-11 9 -3 248.43 294.64
-9 11 -3 -275.87 334.41
9 11 -3 83.63 208.98
-11 9 -3 -414.11 360.89
-9 11 -3 639.2 439.76
-11 -9 4 -352.54 224.94
-9 -11 4 30.69 229.61
-9 -11 4 -92.76 260.35
-11 -9 4 139.17 275.7
-11 9 -4 339.56 312.93
-9 -11 -4 346.38 342.25
-9 11 -4 42 294.43
-11 -9 -4 388.26 369.31
11 9 -4 -60.72 437.11
11 -9 4 1595.95 769.74
11 -9 -4 619.51 581.93
-11 9 -4 -60.77 305.77
-9 11 -4 -289.47 330.81
-11 -9 -4 550.36 361.38
-11 -9 -4 243.35 240.23
-9 -11 -4 157.06 238.65
-11 9 -4 642.58 378.23
9 -11 -4 -612.26 432.96
9 11 -4 -59.36 404.23
-9 11 -4 -858.28 421.42
-11 -9 5 230.02 245.9
-9 -11 5 44.76 234.23
-9 -11 5 -159.89 270.87
-11 -9 5 64.3 257.01
11 9 -5 41.87 449.32
-11 9 -5 919.87 354.22
-9 11 -5 376.01 319.49
9 -11 -5 549.8 466.36
11 -9 -5 453.86 545.45
11 -9 5 747.88 693.67
-11 -9 -5 -87.6 359.59
-9 11 -5 -516.74 356.05
-11 -9 -5 699.94 283.87
-9 -11 -5 646.68 269.09
-9 -11 -5 468.46 418.2
-11 9 -5 191.9 315.38
9 11 5 -151.61 263.21
-11 -9 -5 487.58 378.53
9 11 -5 -180.63 468.47
-11 9 -5 178.54 395.71
-9 11 -5 310.51 375.65
-9 -11 6 712.91 273.9
-11 -9 6 483.2 262
-11 9 -6 216.16 305.07
-11 9 -6 942.8 350.44
-9 11 -6 1081.54 353.69
-9 11 -6 152.01 303.35
-11 -9 -6 574.07 379.34
-11 -9 -6 834.32 293.34
-9 -11 -6 412.15 264.93
9 11 6 463.87 286.38
-9 11 6 1121.21 307.67
-11 -9 6 959.97 283.14
-9 -11 6 774.92 286.91
-11 9 -7 1516.13 357.78
-9 11 -7 288.67 312.77
-11 9 -7 -125.69 288.48
-9 11 -7 -362.99 336.98
-9 11 -7 376.02 210.04
-11 -9 -7 724.49 261.67
-9 -11 -7 492.38 249.29
9 11 7 147.59 231.91
-9 11 7 870.17 264.71
-11 9 7 367.53 223.11
-9 -11 7 99.92 271.44
-11 -9 7 528.43 265.6
-9 -11 7 -43.87 235.59
-11 -9 7 408.4 269.16
-9 11 -8 758.91 323.59
-11 9 -8 -74.52 256.82
-9 11 -8 -199.27 303.87
-9 -11 -8 298.15 247.02
-11 -9 -8 -137.82 223.1
-9 11 8 266.67 221.24
-11 9 8 246.95 225.64
-11 -9 8 417.87 243.53
-9 -11 8 264.37 222.44
-11 -9 -9 258.92 231.53
-11 9 -9 118.71 263.04
-9 11 -9 -233.24 284.51
-9 -11 -9 83.74 214.9
-9 11 9 27.62 206.12
-11 9 9 295.03 219.18
-11 -9 9 -98.62 209.05
-9 -11 9 379.23 256.68
-9 11 -10 -259.36 276.68
-11 9 -10 1.36 235.76
-11 -9 -10 125.63 206.8
-9 -11 -10 4.19 217.5
-9 11 10 172.53 202.77
-11 9 10 -24.47 178.22
-11 -9 10 173.92 203.05
-9 -11 10 -330.86 212.94
-11 9 -11 293.34 207.55
-9 -11 -11 1.89 187.03
-11 -9 -11 621.14 230.02
-9 11 -11 -84.88 201.2
-9 11 11 15.4 169.65
-11 9 11 -21.29 163.63
-11 -9 11 -70.38 166.27
-9 -11 11 340.34 205.38
-9 11 -12 249.73 185.62
-11 -9 -12 240.9 178.01
-9 -11 -12 1.34 169.84
-9 11 12 111.36 142.88
-11 9 12 153.49 140.97
-11 -9 12 171.71 151.57
-9 -11 12 12.56 153.09
11 9 -12 -85.56 135.01
-11 9 13 134.58 107.13
-11 -9 -13 0.94 126.01
-9 -11 -13 4.29 127.32
-9 11 13 275.63 128.19
-9 -11 13 281.04 118.9
-11 -9 13 183.64 122.81
-11 -10 0 29.53 190.77
-10 -11 0 0.38 194.75
-11 10 0 -708 341.7
-10 -11 0 -43.27 235.15
-11 -10 0 -14.11 235.38
-10 11 0 607.83 323.28
10 11 0 -70.71 343.38
-10 11 0 259.6 275.67
11 10 0 87.33 390.91
-11 10 0 276.93 347.46
-10 11 0 298.12 413.32
-10 11 1 757.46 301.13
-11 -10 1 381.07 234.9
-10 -11 1 533.79 238.06
-11 -10 -1 483.8 229.06
-10 -11 -1 562.45 247.04
-10 -11 -1 103.35 214.82
-10 -11 1 746.23 295.87
-11 -10 1 806.26 284.37
-11 10 -1 -58.23 297.71
-11 10 1 -355.5 313.55
-10 -11 -1 333.93 240.43
-11 -10 -1 663.49 265.31
-11 -10 -1 122.11 228.69
-10 11 1 -238.85 299.05
-11 10 1 88.59 327.92
-10 11 -1 -17.46 309.12
11 10 -1 551.81 430.21
-11 10 -1 642.31 356.58
10 11 -1 538.14 411.69
-11 10 -1 298.26 347.88
-10 11 -1 390.16 385.09
-11 10 1 795.61 464.91
-10 11 1 1608.41 526.55
11 10 1 806.51 445.39
-10 11 -1 658.65 327.8
10 11 1 604.2 429.38
-11 -10 2 1574.5 292.38
-10 -11 2 1687.72 309.28
-11 10 2 1502.19 371.89
-11 -10 -2 1197.83 254.53
-10 -11 -2 1783.75 298
-11 -10 -2 1189.12 499.17
-10 -11 2 1798.15 360.69
-11 -10 2 1222.84 296.38
-11 10 -2 1506.61 342.23
-10 11 -2 1037.83 316.7
-10 11 2 1536.74 344.4
10 11 -2 1572.97 486.27
-10 -11 -2 1960.25 329.36
-10 11 -2 1721.11 376.57
-11 -10 -2 1496.13 308.68
-11 10 -2 1476.93 440.07
-10 11 -2 1845.97 482.67
-11 10 -2 1660.26 387.15
-11 10 2 1294.08 303.16
11 10 -2 2153.64 540.49
-10 -11 -2 1787.14 519.73
-10 -11 -2 2256.1 363.27
-11 -10 3 620.43 245.09
-10 -11 3 598.8 263.84
10 11 -3 282.66 439.34
-11 -10 -3 286.76 217.75
-10 -11 3 834.93 326.15
-10 -11 -3 411.18 224.99
-11 -10 3 1261.01 323.58
-10 11 -3 658.9 334.07
-10 -11 -3 1421.92 498.71
-11 -10 -3 816.94 404.33
-10 11 -3 72.82 285.22
-10 11 3 372.15 264.06
-10 -11 -3 528.86 257.36
-11 -10 -3 602.14 261.72
-11 10 -3 640.71 346.86
11 10 -3 833.85 478.07
-11 10 -3 533.95 399.74
-10 11 -3 801.78 423.72
-11 -10 4 245.44 230.79
-10 -11 4 273.76 271.99
-11 -10 4 433.19 303.11
-10 11 -4 30.71 314.93
-10 -11 4 208.89 238.53
-11 10 -4 622.67 343.79
-10 11 -4 598.57 320.82
-10 -11 -4 810.62 454.41
-11 -10 -4 622.48 391.92
-11 10 -4 369.16 331.33
-11 -10 -4 263.96 244.46
-10 -11 -4 439.42 266.89
11 10 -4 -41.84 405.34
-11 10 -4 -218.04 387.09
-10 11 -4 -564.7 409.14
10 11 -4 116.37 424.94
-11 -10 5 397.51 242.12
-10 -11 5 144 232.28
11 10 -5 1505.8 559.12
-10 -11 5 470.36 297.96
-11 -10 5 137.93 253.47
-11 10 -5 1600.52 374.35
-10 11 -5 1083.42 347.34
10 -11 -5 170.7 343.91
-11 10 -5 84.45 299.61
-10 11 -5 7.93 317.35
-11 -10 -5 525.91 261.51
-10 -11 -5 342.35 250.78
11 -10 -5 -60.49 500.27
10 11 -5 852.65 408.62
-10 -11 6 -92.07 231.97
-11 -10 6 -146.05 294.99
-11 10 -6 528.94 313.16
-10 11 -6 182.35 304.44
-10 11 -6 -245.65 333.2
-11 10 -6 -144.14 305.81
-11 -10 -6 289.6 241.72
-10 -11 -6 102.09 209.17
-11 -10 6 -34.66 221.93
-10 -11 6 78.35 226.03
-11 -10 -7 234.78 224.26
-11 10 -7 619.58 316.3
-10 11 -7 529.92 309.4
-11 10 -7 -40.27 300.84
-10 -11 -7 114.84 208.84
-10 11 7 250.17 213.39
-10 -11 7 -244.61 276.46
-11 -10 7 -24.89 216.19
-10 -11 7 -180.58 237.28
-10 11 -7 -117.29 312.41
-11 -10 7 -215.3 268.41
-11 10 -8 97.38 284.53
-10 -11 -8 371.26 261.38
-10 11 -8 -84.39 303.5
-11 -10 -8 885.89 281
-11 10 8 -48.49 180.23
-11 -10 8 26.14 216.45
-10 -11 8 235.82 225.84
-11 10 -9 -149.86 257.44
-10 11 -9 -299.1 289.62
-10 -11 -9 331.92 226.83
-11 -10 -9 224.78 224.47
-10 11 9 219.61 202.54
-11 10 9 197.02 190.49
-11 -10 9 81.81 205.51
-10 -11 9 187.65 214.88
-10 11 -10 50.79 229.29
-11 -10 -10 454.93 230.09
-10 -11 -10 1.5 210.28
-10 11 10 37.24 171.89
-11 10 10 248.52 176.07
-11 -10 10 -128.65 192.86
-11 10 -10 686.37 256.46
-10 -11 10 309 211.58
-11 -10 -11 201.78 189.9
-10 11 -11 558.87 217.4
-11 10 -11 277.61 200.24
-10 11 11 153.43 166.52
-11 10 11 252.24 171.53
-10 -11 -11 4.72 207.59
-11 -10 11 294.4 174.76
-10 -11 11 -11.06 158.74
-10 11 -12 246.96 160.54
-11 -10 -12 -1.09 147.35
-10 -11 -12 2.24 158.77
-11 10 -12 -529.46 172.52
-10 11 12 74.72 134.37
-11 10 12 5.22 134.74
-11 -10 12 67.29 127.12
-10 -11 12 -51.96 130.5
11 10 -12 85.27 114.19
-11 -10 -13 -11.08 100.63
-11 11 0 5196.55 470.09
11 11 0 6238.48 813.16
-11 11 0 6498.34 794.88
-11 -11 0 5956.64 469.56
-11 11 0 5729.41 533.38
-11 -11 0 5281.7 475.7
-11 11 1 2988.35 455.66
-11 -11 1 2539.32 361.46
11 11 1 3139.62 658.84
-11 11 -1 2945.34 405.76
-11 -11 -1 2630.76 348.34
-11 11 1 2260.41 369.36
-11 11 -1 4016.81 472.85
-11 11 1 4493.26 686.81
-11 -11 -1 2863.95 352.85
11 11 -1 3355.97 680.02
-11 11 -1 3644.54 627.09
-11 -11 1 3601.46 391.99
-11 -11 -1 3227.16 389.02
-11 -11 2 1895.76 326.93
-11 -11 -2 1436.35 288.24
-11 -11 -2 2541.64 565.18
-11 -11 2 1668.49 347.16
-11 11 -2 975.43 315.5
-11 11 2 1524.25 329.93
-11 -11 -2 1784.39 326.51
11 11 -2 1460.95 522.39
-11 11 -2 1059.79 371.52
-11 -11 -2 992.9 269.58
-11 11 -2 1367.68 463.63
-11 -11 3 321.07 209.79
11 11 -3 382.77 384.06
-11 -11 -3 507.82 218.43
-11 11 -3 399.56 327.15
-11 -11 3 551.25 301.87
-11 -11 -3 445.19 407.86
-11 11 -3 560.42 318.68
-11 -11 -3 242.93 226.51
-11 11 -3 -300.51 369.8
-11 -11 4 168.59 214.71
-11 -11 4 339.19 261.4
-11 -11 -4 -51.89 189.66
-11 11 -4 600.46 324.64
-11 11 -4 99.15 301.72
-11 -11 -4 213.01 220.84
-11 -11 5 2.57 220.32
-11 -11 5 -430.29 309.19
-11 11 -5 262.67 298.01
-11 -11 -5 -80.62 216.17
-11 11 -5 -221.08 294.09
-11 -11 -6 29.1 213.51
-11 -11 6 165.17 227.83
-11 11 -6 348.12 296.68
-11 11 -6 643.74 299.31
-11 -11 6 117.38 212
-11 11 -7 131.22 284.68
-11 -11 -7 450.59 233.2
-11 11 -7 -87.51 305.99
-11 -11 7 90.75 221.13
-11 -11 7 -180.16 274.71
-11 11 -8 -138.57 276.39
-11 -11 -8 247.41 213.24
-11 11 8 379.77 207.39
-11 -11 8 43.62 205.35
-11 -11 -9 214.94 216.12
-11 11 -9 200.99 252.68
-11 11 9 -112.34 187.81
-11 -11 9 179.34 203.63
-11 -11 10 73.57 172.53
-11 11 -10 297.71 231.56
-11 -11 -10 4.64 195.65
-11 11 10 93.26 163.94
-11 11 -11 339.09 192.83
-11 -11 -11 -1.82 174.97
-11 -11 11 311.21 168.15
-11 11 11 333.43 163.21
11 11 -11 -84.54 131.1
-11 -11 -12 7.56 125.29
-11 11 12 67.1 113.63
-11 -11 12 122.53 112.53
-12 0 0 1947.39 334.21
12 0 0 2757.92 471.54
-12 0 0 2200.37 354.42
-12 0 -1 13368.5 772.59
12 0 -1 14299.02 956.36
12 0 1 13542.67 841.77
-12 0 -1 13904.88 798.02
-12 0 1 13078.03 694.96
-12 0 1 13455.81 733.54
-12 0 -2 11069.95 739.2
-12 0 -2 12780.33 814.52
12 0 -2 11357.31 913.42
12 0 -3 572.61 383.3
-12 0 -3 926.77 306.98
-12 0 -3 821.86 305.78
-12 0 -4 1000.93 361.55
-12 0 -4 581.15 307.79
0 12 -4 1212.46 277.94
0 12 4 736.74 241.1
12 0 -4 1197.38 506.13
-12 0 -5 3110.22 508.32
-12 0 -5 3628.05 399.89
-12 0 -5 3000.02 539.71
12 0 5 3808.27 1004.53
0 12 5 3324.4 384.96
0 12 -5 3550.65 403.85
12 0 -5 3870.75 693.84
-12 0 5 3456.66 385.5
-12 0 6 1155.93 273.25
12 0 6 1324.42 866.47
-12 0 -6 821.94 276.14
-12 0 -6 1246.42 408.44
0 12 -6 1645.66 326.42
-12 0 -6 1071.79 459.93
0 12 6 1476.97 317.44
12 0 -6 1805.16 559.11
-12 0 6 1098.76 272.84
12 0 7 1814.09 821.39
0 -12 7 2060.99 591.85
0 12 -7 2755.86 398.43
-12 0 -7 2845.54 562.92
-12 0 -7 2565.47 383.34
-12 0 -7 3143.29 613
0 12 7 2596.98 398.19
12 0 -7 2647.74 658.81
-12 0 7 2480.35 336.63
-12 0 7 2119.71 329.98
0 12 -8 -87.28 266.13
-12 0 -8 -16.89 254.78
0 12 8 -70.46 221.97
-12 0 8 62.15 203.72
-12 0 -9 399.99 253.78
0 12 -9 -44.09 255.58
0 12 9 534.52 268.32
-12 0 9 602.23 242.7
0 12 10 640.19 266.06
0 12 -10 578.62 264.05
-12 0 -10 725.13 247.36
-12 0 10 657.07 244.21
0 12 11 287.33 219.42
0 12 -11 -393.49 302.06
0 12 11 603.5 302.43
0 12 -11 -198.82 235.8
-12 0 11 -158.71 194.4
-12 0 -11 13.08 194.3
0 12 12 401.11 211.09
0 12 -12 903.89 293.04
12 0 -12 7.31 201.86
-12 0 -12 824.92 236.47
0 12 -13 508.9 213.35
0 12 13 451.69 186.04
12 0 -13 0.28 178.3
0 12 -14 510.27 153.57
0 12 14 130.96 111.94
-12 0 14 302.01 141.93
12 0 -14 4.3 144.1
-12 1 0 77.77 182.63
12 -1 0 -43.3 309.22
-12 -1 0 -339.75 255.62
12 1 0 90.26 278.45
-12 -1 0 -312.75 225.09
-12 1 0 291.56 251.79
12 -1 -1 1534.27 436.43
-12 -1 1 995.98 291.36
-12 -1 -1 967.56 302.1
-12 1 -1 1197.46 279.09
12 -1 1 835.49 342.82
-12 -1 -1 1302.94 330.04
-12 1 -1 1132.38 313.75
-12 1 1 1266.15 299.89
12 1 1 1373.73 382.29
12 1 -1 1193.39 399.69
12 -1 -2 231.04 351.72
-12 1 -2 -23.61 207.96
12 1 -2 -109.9 340.84
12 1 2 432.55 299.71
-12 -1 -2 79.17 253.29
-12 1 -2 454.68 291.27
-12 -1 -2 122.56 249.06
-12 1 2 250.81 226.13
12 1 -3 71.64 383.37
-12 -1 -3 -186.18 300.6
-12 1 -3 149.08 246.06
-12 -1 -3 183.56 278.27
-12 1 -3 329.2 287.95
12 -1 -3 463.43 427.23
12 1 -4 583.39 427.79
-12 -1 -4 656.42 343.13
-12 -1 4 657.77 245.49
-12 -1 -4 841.46 350.98
-1 12 -4 764.4 247.96
1 12 -4 729.65 258.44
-12 1 -4 518.16 313.36
1 12 4 814.65 256.13
12 -1 -4 1114.7 456.38
-1 12 4 592.42 230.52
-12 1 -4 984.96 335.27
12 1 -5 428.95 418.22
-12 1 5 145.04 197.58
-12 -1 -5 31.7 277.13
-12 -1 5 157.39 208.18
12 1 5 1116.66 763.79
12 -1 5 14.47 706.11
-12 1 -5 10.57 292.07
-12 1 -5 -317.89 282.68
-12 -1 -5 -76.03 225.22
-12 -1 -5 171.53 306.94
-1 12 -5 95.35 235.48
1 12 -5 177.72 244.34
-12 1 -5 17.29 300.14
1 12 5 146.95 239.81
-1 12 5 189.91 233.93
12 -1 -5 674.69 502.98
-12 1 6 232.51 204.06
-12 -1 6 377.29 250.54
12 -1 6 760.68 791.04
-1 12 6 535.73 252.3
12 1 6 991.41 753.32
-12 -1 -6 354.11 239.61
-1 12 -6 633.73 263.19
-12 -1 -6 1211.06 466.18
-12 1 -6 1051 422.93
1 12 -6 737.41 307.42
-12 1 -6 268.53 349.66
1 12 6 944.65 308.24
12 -1 -6 253.72 479.22
-12 -1 6 220.76 228.12
-12 -1 -6 660.28 333.79
12 1 -6 166.76 480.11
12 1 7 -500.7 780.01
12 -1 7 1309.71 859.35
-1 -12 7 443.56 468.07
-1 12 -7 208.81 247.19
1 12 -7 274.16 290.85
-12 -1 -7 846.39 423.57
-12 -1 -7 -371.56 346.71
-12 1 -7 480.75 356.15
-12 -1 -7 310.97 255.64
1 12 7 671.15 332.95
-1 12 7 422.44 274.9
12 -1 -7 644.63 524.31
-12 1 -7 -130.11 330.29
-12 1 7 607.61 249.13
-12 -1 7 -42.87 208.15
-12 1 7 -236.23 267.76
12 1 -7 -54.81 497.47
-12 -1 7 -131.94 231.32
-1 12 -8 217.28 257.9
1 12 -8 22.9 246.9
-12 -1 -8 130.39 248
1 12 8 165 262.07
-1 12 8 27.49 224.5
-12 1 8 188.37 221.93
-12 -1 8 81.65 222.23
-1 12 -9 78.04 234.97
1 12 -9 379.06 263.47
-12 1 -9 453.6 255.84
-12 -1 -9 503.52 263.75
1 12 9 501.22 258.98
-1 12 9 413.7 266.91
-12 1 9 406.35 209.43
-12 -1 9 297.35 222.01
-1 12 10 669.62 329.97
-1 12 -10 213.04 311.18
-1 12 -10 332.69 239.2
-12 -1 -10 245.92 226.55
-1 -12 -10 909.66 253.8
1 12 -10 485.65 269.42
1 12 10 753.93 278.76
-1 12 10 405.56 246.85
-12 1 10 570.16 222.68
-12 -1 10 340.97 213.94
-1 12 11 536.2 278.78
-1 12 -11 0.46 298.3
-1 12 -11 -11.78 214.85
1 12 -11 -104.55 231.19
-12 -1 -11 594.44 237.31
-1 -12 -11 3.16 221.73
1 12 11 243.23 236.26
-1 12 11 456.37 232.58
-12 -1 11 372.95 220.95
1 12 -12 -153.82 267.16
-12 -1 -12 -9.41 168.66
-1 -12 -12 -3.39 181.78
-1 12 -12 -359.54 255.34
1 12 12 294.16 205.35
-1 12 12 149.09 194
12 -1 -12 0.68 212.2
12 1 -12 -320.65 229.22
1 12 12 79.95 236.5
-1 12 -13 23.82 181.66
1 12 -13 -81.65 209.19
12 -1 -13 -7.6 157.24
-12 -1 -13 137.98 142.47
1 12 13 -60.69 149.2
-1 12 13 -22.71 150.84
12 1 -13 -31.71 165.12
1 12 -14 302.6 148.08
-1 12 14 29.08 114.36
-12 1 14 20.09 114.3
12 -1 -14 7.28 125.97
-12 -1 14 -19.44 123.41
12 1 -14 1.75 119.94
12 -2 0 18723.84 1029.9
12 2 0 17501.72 1022.94
-12 -2 0 17928.99 803.17
-12 2 0 18559.22 921.89
-12 -2 0 18468.45 977.76
12 2 -1 12608.68 922.03
-12 2 -1 12000.44 699.68
-12 2 -1 12450.05 800.41
12 2 1 11018.52 790.75
-12 -2 -1 11048.39 695.48
-12 2 1 11533.66 718.36
-12 -2 1 11419.35 787.64
12 -2 -1 11896.65 884.19
-12 -2 -1 11111.51 778.19
12 2 -2 4888.06 654.11
-12 2 -2 5625.11 532.19
12 2 2 6145.1 617.86
-12 2 -2 5420.17 577.31
-12 2 2 5075.91 490.02
-12 -2 -2 5396.52 538.04
-12 -2 2 6044.66 594.73
12 -2 -2 5485.82 685.29
-12 -2 -2 5535.97 582.41
-12 2 -3 1756 380.19
12 2 -3 1084.76 428.29
-12 -2 -3 1497.53 387.26
-12 -2 -3 1852.01 388.76
-12 2 -3 2137.37 429.16
12 -2 -3 1610.46 466.75
-12 -2 4 338.07 239.25
12 2 -4 432.06 445.85
-12 -2 -4 -12.8 313.33
-2 12 4 95.18 324.56
-12 2 -4 305.66 289.66
-12 -2 -4 -104.98 209.78
-12 -2 -4 167.21 293.1
-2 12 -4 191.02 226.94
2 12 -4 192.76 224.51
-12 2 -4 -103.41 283.33
2 12 4 332.5 249.62
-2 12 4 52.7 193.89
12 -2 -4 301.75 435.94
-2 -12 5 1295.9 361
-12 2 5 1186.82 250.84
-2 12 -5 2051.13 334.2
-12 -2 5 1627.95 320.37
12 2 -5 1261.67 493.16
-12 2 -5 1356.93 371.17
12 2 5 2056.48 822.5
-2 12 -5 1083.82 304.28
12 -2 -5 1274.04 560.23
12 -2 5 1229.16 790.65
-12 -2 -5 1340.47 301.35
-12 -2 -5 1987.54 476.31
2 12 -5 1862.56 335.03
-12 2 -5 1424.29 434.74
2 12 5 1788.71 333.35
-2 12 5 1496.35 311.52
-12 -2 5 1486.36 296.67
-12 2 -5 1240.87 338.19
-2 12 5 1114.94 401.67
-12 -2 -5 1071.3 371.84
-12 2 -6 3238.08 405.56
12 2 -6 1980.67 558.56
2 12 -6 2953.06 397.18
-2 12 -6 2610.22 414.09
-12 -2 -6 2836.1 525.84
12 2 6 1941.51 881.09
-12 -2 -6 2726.2 382.24
12 -2 6 3213.94 1053.91
-2 -12 6 3078.98 630.6
-12 2 -6 2760.59 539.9
-12 -2 -6 2426.84 554.65
-12 2 -6 3218.87 576.58
-2 12 6 3257.07 411.92
12 -2 -6 2771.95 720.28
-12 -2 6 2804.46 359.89
2 12 6 2693.57 367.43
-2 12 -6 2766.38 372.78
-12 2 6 2799.56 338.97
-12 -2 6 2981.36 384.44
-2 -12 6 2761.38 458.87
-12 -2 7 1301.63 303.4
12 -2 7 1927.75 956.33
12 2 -7 1353.08 546.57
12 2 7 1581.97 826.4
-2 -12 7 1757.5 576.09
-12 2 -7 2216.78 388.32
-12 -2 -7 1389.27 448.72
-12 2 -7 1829.03 486.37
-2 12 -7 1501.44 326.82
-12 -2 -7 1860.76 510.36
-12 -2 -7 1454.16 316.24
-12 2 -7 1592.49 439.53
2 12 -7 1856.37 373.42
2 12 7 1640.91 343.44
12 -2 -7 2236.33 697.62
-2 12 7 1736.04 356.26
-12 2 7 1279.23 278.45
-12 -2 7 1411.72 301.33
-2 12 8 619.07 359.31
2 12 8 1058.59 294.4
2 12 -8 1215.83 338.52
-12 -2 -8 1392.3 328.96
-2 12 -8 850.56 277.59
-2 12 8 1238.28 323.94
-12 2 8 724.86 252.28
-12 -2 8 818.95 265.6
-12 -2 8 526.62 230.99
-2 12 -9 -458.8 365.34
-2 12 -9 588.95 267.86
2 12 -9 226.58 235.95
-12 -2 -9 751.05 281.73
-2 -12 -9 109.97 225.91
2 12 9 288.12 256.87
-2 12 9 562.45 268.95
-12 2 9 199.97 198.62
-12 -2 9 489.4 240.47
-2 12 9 855.8 344.87
-2 12 -10 -32.93 294.67
-2 12 10 197.58 291.04
-2 12 -10 -161.11 235.03
2 12 -10 124.61 236.88
-12 -2 -10 -186.09 216.5
-2 -12 -10 113.2 222.08
2 12 10 94.43 224.64
-2 12 10 378.06 271.82
-12 -2 10 76.87 195.52
-2 12 -11 -33.89 226
-2 12 -11 403.88 285.04
2 12 -11 -164.39 225.11
-12 -2 -11 162.64 191.02
-2 -12 -11 17.43 224.5
2 12 11 457.36 225.8
-2 12 11 626.65 259.02
-12 -2 11 236.5 202.59
-2 -12 -12 -1.35 201.85
-2 12 -12 479.55 245.87
2 12 -12 111.27 249.05
-12 -2 -12 356.11 185
2 12 12 443.39 208.18
-2 12 12 530.79 227.22
-12 -2 12 218.26 177.5
12 -2 -12 25.37 189.8
-2 12 -13 487.05 204.21
2 12 -13 278.85 199.5
-12 -2 -13 516.3 183.34
-2 -12 -13 1.66 160.18
2 12 13 362.82 159.93
-2 12 13 537.08 195.38
-12 2 13 460.33 189.64
12 -2 -13 11.54 183.52
12 2 -13 603.22 197.78
2 12 -14 441.83 150.37
-2 12 14 394.53 136.89
-12 2 14 189.85 126.83
12 -2 -14 5.67 150.9
12 2 -14 2.98 157.76
-12 3 0 32.91 223.63
-12 -3 0 -42.58 289.26
12 -3 0 476.15 356.76
12 3 0 70.28 296.17
-12 -3 -1 -73.22 265.96
12 3 1 -534.4 367.24
12 3 -1 -163.45 335.46
-12 -3 -1 -164.42 226.83
-12 3 -1 57.95 252.94
-12 3 1 -17.54 238.79
-12 -3 1 149.3 278.27
12 -3 -1 213.72 371.53
-12 3 -2 576.63 273.62
-12 -3 -2 110.5 277.92
12 3 -2 273.74 387.11
-12 -3 -2 227.45 232.55
-12 3 -2 -24.21 284.94
12 3 2 94.26 300.18
-12 3 2 -294.03 266.82
12 -3 -2 -194.55 391.31
-12 -3 -3 1278.13 394.66
12 3 -3 1054.63 427.33
-12 3 -3 1654.53 372.29
-12 -3 -3 954.49 349.16
3 12 -3 1261.28 269.4
-3 12 3 1212.65 353.92
-12 3 -3 1117.35 365.12
3 12 3 1318.12 277.07
12 3 3 1117.9 346.3
12 -3 -3 1262.04 498.19
-12 3 3 1213.17 345.27
-3 12 -3 1754.78 395.64
12 3 -4 5504.85 737.79
-12 -3 -4 6078.45 661.5
-12 3 -4 6017.85 644.14
-3 -12 4 4764.5 475.67
-12 3 4 5013.06 472.62
-3 12 4 5061.03 424.23
-3 12 -4 5270.55 459.95
-3 12 4 4466.65 495.21
12 -3 4 4793.21 979.2
-12 3 -4 5390.77 456.83
-3 12 -4 5321.36 504.09
-12 -3 -4 5453.58 457.9
-3 12 -4 5711.89 431.07
3 12 -4 5322.02 450.67
-12 3 -4 6195.99 669.59
12 -3 -4 4507.05 723.79
-12 -3 -4 5327.88 606.71
-12 -3 4 5892.86 498.65
3 12 4 6491.2 500.67
-3 -12 5 2268.91 399.85
-3 12 5 1339.77 403.83
-12 -3 -5 1902.22 446.38
-12 -3 5 2247.25 349.55
12 3 -5 2749.92 612.44
-3 12 -5 1538.09 412.45
12 -3 5 1925.27 890.79
3 12 5 2371.7 363.53
-12 3 -5 2061.26 451.62
-12 -3 -5 1527.01 453.94
-12 -3 -5 2057.88 337.38
12 3 5 2316.77 763.31
-3 12 -5 2258.55 328.75
3 12 -5 2245.65 358.45
-12 3 -5 2805.1 517.46
12 -3 -5 3034.02 717.05
-3 12 5 1925.09 335.24
-3 12 -5 2086.95 404.73
-12 3 -5 2082.53 373.29
-12 -3 5 1775.12 314.97
-3 -12 6 242.52 293.43
-12 -3 6 -82.1 236.31
12 3 -6 -106.8 434.12
-3 12 -6 41.8 313.32
12 3 6 -252.17 674.49
12 -3 6 -842.8 808.1
3 12 -6 238.33 271.98
-12 -3 -6 279.02 366.08
-12 -3 -6 183.02 330.14
-12 3 -6 -15.79 307.32
-3 12 -6 -579.72 444.46
-12 3 -6 648.41 324.7
-3 12 6 -49.46 349.54
-12 -3 -6 114.76 240.96
-3 12 -6 263.54 248.74
-12 3 -6 14.31 288.38
12 -3 -6 773.73 616.81
3 12 6 407.59 238.27
-3 12 6 8.12 232.09
-12 -3 6 705.44 262.36
-12 -3 7 -138.85 252.93
-3 12 7 103.21 326.75
12 3 -7 -24.9 463.75
-3 12 -7 660.42 369.14
12 3 7 131.03 658.84
12 -3 7 165.19 903.29
-3 -12 7 -1037.42 563
-12 3 -7 520.35 318.17
-12 -3 -7 -174.97 312.9
-3 12 -7 -504.33 419.29
-3 12 -7 14.12 242.12
-12 -3 -7 63.75 393.13
-12 -3 -7 184.95 246.38
3 12 -7 -7.99 258.8
-12 3 -7 -172.55 347.91
-12 3 -7 -593.94 391.35
12 -3 -7 -486.4 496.71
3 12 7 -2.69 229.06
-3 12 7 -55.63 245.05
-12 -3 7 188.53 230.7
-3 -12 7 11.79 285.89
-12 -3 -8 39.44 230.56
-3 12 8 21.81 283.44
-3 12 -8 -267.41 382.37
-3 -12 8 -175.2 267.71
-3 12 -8 -132 254.74
3 12 -8 42.54 252.98
-3 -12 -8 -25.13 214.93
3 12 8 167.77 238.6
-3 12 8 123.15 234.38
-12 3 8 193.32 216.52
-12 -3 8 138.86 222.69
-12 -3 8 -296.76 269.45
-3 12 9 144.48 260.71
-3 12 -9 339.66 327.46
-3 12 -9 543.41 269.37
3 12 -9 -89.12 241.02
-12 -3 -9 536.17 253.27
-3 -12 -9 359.9 230.28
3 12 9 192.98 234.48
-3 12 9 285.89 255.55
-12 -3 9 144.09 203.96
-3 -12 9 474.64 281.56
-3 12 -10 773.79 246.25
3 12 -10 881.37 283.56
-12 -3 -10 892.36 270.11
-3 -12 -10 1184.7 285.4
-3 12 -10 473.94 334.43
3 12 10 1016.6 283.24
-3 12 10 1655.57 343.84
-12 -3 10 1141.36 276.69
-3 -12 10 1314.41 331.95
-12 -3 -11 778.44 244.87
3 12 -11 667.11 235.01
-3 12 -11 1056.64 314.52
-3 -12 -11 1.08 278.04
3 12 11 672.88 246.38
-3 12 11 1052.8 280.42
-12 -3 11 959.25 253.22
12 -3 -11 15.37 213.77
-3 12 -12 483.48 254.47
-12 -3 -12 359.41 187.4
-3 -12 -12 2.09 203.32
3 12 12 590.27 206.57
-3 12 12 804.03 242.02
-12 -3 12 274.99 172.73
12 -3 -12 12.54 187.8
3 12 -13 223.55 194.52
3 12 13 -82.65 138.53
-3 12 -13 311.38 193.72
-12 -3 -13 237.2 152.65
-3 -12 -13 -3.17 137.58
-3 12 13 285.12 168.62
-12 3 13 72.1 146.8
12 -3 -13 8.43 153.18
12 3 -13 -147.68 176.12
3 12 13 344.28 179.53
-3 12 14 43.13 119.19
-12 3 14 78.59 110.55
12 3 -14 -0.64 121.07
-12 4 0 10230.55 749.59
12 4 0 8712.64 785.06
-12 -4 0 9469.15 817.7
12 4 -1 6196.3 697.22
12 4 1 5478.59 627.78
-12 4 -1 6359.4 628.39
-12 -4 -1 5254.04 477.6
-12 4 1 5669.7 578.74
12 -4 -1 5931.31 703.95
-12 -4 -1 5707.73 647.59
-12 -4 -2 2104.71 450.48
-12 4 2 2964.05 459.27
-12 -4 -2 2550.68 401.76
12 4 -2 2615.5 531.73
-12 4 -2 2846.18 472.23
12 -4 -2 2659 562.01
-4 12 -2 2910.18 474.82
12 4 2 1955.26 441.39
-12 4 3 834.49 319.59
12 4 3 437.16 346.83
-12 -4 3 678.98 242.02
-12 -4 -3 598.34 315.99
-4 12 -3 943.64 291.05
-4 12 3 628 312.78
-12 4 -3 1294.1 342.02
-12 4 -3 1058.8 325.8
12 4 -3 916.47 459.39
-12 -4 -3 672.42 248.7
-12 -4 -3 801.87 314.23
4 12 -3 964.25 354.9
4 12 -3 643.22 264.48
4 12 3 682.23 239.91
-12 4 -3 841.61 367.26
12 -4 -3 861.36 519.36
-12 4 3 792.14 321.3
-4 12 -3 1209.58 368.01
-4 -12 4 411.68 250.09
12 4 -4 136.4 380
-12 4 -4 945.32 340.79
-12 -4 4 834.71 294.88
-4 -12 -4 310 349.39
-4 12 -4 464.29 309.34
12 -4 4 245.95 625.3
-12 4 4 -183.85 298.68
-12 -4 -4 321.56 306.18
-12 4 -4 612.73 308.73
-12 -4 -4 319.91 213.51
-4 12 4 673.14 347.59
-12 -4 -4 287.32 321.31
-4 12 -4 749.01 259.68
4 12 -4 462.23 267.39
12 -4 -4 -179.52 480.19
-12 4 -4 58.82 330.74
-4 12 -4 -66.84 309.06
4 12 4 140.71 234.18
-4 12 4 262.26 225.41
-12 4 -4 220.07 298.58
4 12 -4 586.44 320.49
-4 12 -4 702.14 332.78
-12 -4 4 337.55 228.42
-4 -12 5 514.65 275.08
-12 4 -5 277.94 308.5
-12 -4 5 337.46 247.6
-4 12 -5 -40.33 322.52
12 -4 5 181.87 714.7
12 4 -5 -266.27 437.89
-12 -4 -5 -531.15 373.36
-4 12 -5 -353.05 355.9
-4 12 -5 126.6 219.95
-4 12 5 -17.13 311.89
-12 -4 -5 328.31 355.61
-12 -4 -5 202.68 226.12
-12 4 -5 -419.85 327.86
12 4 5 213.95 613.26
4 12 -5 -50.19 272.34
12 -4 -5 214.29 569.9
-12 4 -5 -425.9 339.44
4 12 5 12.72 229.19
-4 12 5 65.67 224.76
-12 -4 5 -181.84 227.81
-4 -12 6 175.91 291.96
-12 -4 6 387.98 251.62
-12 -4 -6 476.88 341.72
-4 12 6 725.17 346.96
-4 12 -6 632.97 332.3
12 -4 6 221.61 862.72
12 4 -6 526.96 483.9
-12 4 -6 457.45 302.4
-12 -4 -6 709.08 424.28
-12 -4 -6 414.55 260
-4 12 -6 621.99 257.86
4 12 -6 621.73 306.48
-12 4 -6 702.02 350.96
-4 12 -6 25.26 385.06
12 4 6 12.58 657.76
12 -4 -6 1345.31 710.27
-12 4 -6 -56.77 314.58
4 12 6 399.7 253.16
-4 12 6 561.71 282.68
-12 -4 6 534.56 248.41
-12 -4 7 1615.25 323.66
-12 4 -7 2076.85 368.36
-12 -4 -7 2283.95 514.61
-4 12 -7 2009.79 409.14
12 4 7 1392.67 715.58
12 -4 7 1292.72 968.92
12 4 -7 1543.48 550.43
-4 12 7 1483.24 402.21
-4 12 -7 1594.47 434.87
-12 -4 -7 1473.37 495.99
-4 12 -7 1725.31 323.34
-12 -4 -7 1992.89 365.57
4 12 -7 2083.77 377.89
-4 -12 -7 2226 349.49
-12 4 -7 2039.42 493.93
12 -4 -7 1403 646.1
-12 4 -7 766.09 413.56
4 12 7 1895.76 339.19
-4 12 7 2115.88 376.29
-12 -4 7 1682.6 316.01
-4 -12 7 1839.58 393.42
-4 12 -8 1387.8 363.68
-12 4 -8 1407.41 344.08
-4 12 -8 788.53 387.35
4 12 -8 1071.67 299.36
-12 -4 -8 1042.31 306.36
-4 -12 -8 1078.49 303.87
-4 12 8 993.47 335.08
4 12 8 876.45 277.5
-4 12 8 1043.88 314.1
-4 12 -8 1073.6 296.4
-12 -4 8 1098.73 285.81
-4 -12 8 1134.68 338.75
-12 -4 8 504.07 251.51
-12 4 -9 251.55 263.98
-4 12 -9 -320.92 226.27
-4 -12 -9 145.82 236.67
-4 12 -9 290.93 327.76
4 12 -9 51.06 231.24
-12 -4 -9 149.88 230.58
4 12 9 -147.76 225.23
-4 12 9 -113.71 234.7
-12 -4 9 191.45 213.99
-4 -12 9 160.72 253.9
-4 12 -10 -426.53 221.78
4 12 -10 -90.93 215.5
-12 -4 -10 86.41 207.29
-4 12 -10 119.31 296.08
4 12 10 213.77 219.9
-4 12 10 128.59 223.34
-12 -4 10 -97.92 202.52
-4 -12 10 -69.83 245.81
-4 12 -11 516.45 278.82
4 12 -11 64.72 189.52
-12 -4 -11 -40.3 187.65
-4 -12 -11 0.54 210.93
4 12 11 355.08 212.89
-4 12 11 699.55 268.4
-12 -4 11 365.13 188.58
-4 -12 11 272.68 239.77
12 -4 -11 3.21 182.74
-4 12 -12 590.16 241.42
-12 -4 -12 296.14 182.57
-4 -12 -12 1.19 187.93
4 12 12 169.38 167.4
-4 12 12 429.31 216.07
-12 4 12 388.33 195.78
-12 -4 12 65.07 168.43
12 -4 -12 3.9 171.35
4 12 -13 410.09 208.29
4 12 13 666.6 208.59
-4 12 -13 470.79 180.93
-12 -4 -13 483.87 180.37
-4 -12 -13 2.35 171.64
-4 12 13 440.01 182.71
-12 4 13 131.87 147.48
12 -4 -13 5.65 165.87
12 4 -13 395.12 186.16
-4 12 14 385.4 137.1
-12 4 14 133.62 108.7
12 4 -14 16.28 128.02
12 5 0 -19.48 326.58
-12 5 0 641.1 355.13
-12 -5 0 297.42 354.67
-12 -5 -1 395.08 339.31
-12 -5 1 161.56 200.09
-5 12 -1 46.1 263.11
-5 12 1 111.89 259.99
-12 5 -1 65.2 358.55
12 5 1 440.26 371.93
5 12 1 95.11 219.3
-12 -5 -1 206.74 217.87
-12 5 -1 -21.39 290.33
-12 5 1 27.44 266.8
-5 12 -1 182.14 331.43
12 5 -1 266.35 357.72
-5 -12 2 1396.29 271.89
-12 -5 -2 1449.66 439.25
12 5 2 1538.95 409.12
-12 -5 2 1707.44 300.73
-5 12 -2 1566.74 324.29
-12 5 -2 1913.86 358.62
-5 12 2 1739.65 359.56
-12 5 2 1683.77 367.63
-12 -5 -2 2161.12 320
5 12 -2 692.53 332.03
-12 -5 -2 1460.3 346
12 5 -2 1653.69 473.71
5 12 2 2053.29 336.5
12 -5 -2 1198.9 492.38
-12 5 -2 1601.42 409.63
-12 5 2 1328.66 362.72
-5 12 -2 1668.92 418.26
12 -5 3 2772.8 745.09
-12 5 -3 5315.3 473.93
-5 12 -3 3906.15 431.12
-5 12 3 4511.59 486.85
-12 5 -3 5346.8 643.55
12 5 3 4175.33 583.88
5 12 -3 4030.56 597.09
-12 5 3 4675.32 459.16
-12 5 -3 3975.44 441.53
-5 12 -3 4933.78 471.45
5 12 3 5956.37 503.66
-12 -5 -3 4037.79 541.51
5 12 -3 4191.64 404.98
-12 -5 -3 4801.64 418.61
-5 12 -3 4125.3 538.61
-12 5 3 5236.1 611.12
-5 12 -3 4185.23 376.35
12 5 -3 4039.22 658.98
12 -5 -3 3712.42 735.04
-12 -5 3 3597.79 395.09
-5 -12 3 4519.63 418.95
-12 -5 3 4522.16 427.05
-12 -5 -3 4655.51 624.81
-12 -5 -4 7207.39 748.25
12 5 -4 7240.13 833.48
5 12 -4 8141.49 547.52
-12 5 -4 8194.43 731.85
-12 5 -4 8650.41 598.56
-5 12 -4 6498.54 510.23
-5 12 4 7776.28 595.22
-5 12 -4 8176.14 495.15
5 12 -4 6717.46 686.56
-12 -5 -4 7722.56 531.08
-12 5 4 7013.64 553.57
-5 12 -4 8319.16 623.06
-12 -5 -4 7143.06 720.99
-12 5 -4 7939.31 797.75
-5 12 -4 7872.54 689.23
12 -5 4 7317.74 1067.83
5 12 4 7759.04 565.98
-5 12 4 8212.45 524.44
-12 5 -4 7512.89 546.58
-12 -5 4 8542.27 553.49
-5 -12 4 7415.16 556.61
12 -5 -4 7490.79 985.04
-12 -5 4 9239 588.45
-5 -12 -4 8117.83 815.54
5 12 -5 2841.53 389.83
12 5 5 2736.8 806.12
-5 12 -5 2144.59 382.12
-5 -12 -5 1912.88 430.84
-12 -5 -5 3101.03 534.06
-5 12 5 1631.98 385.94
-12 -5 -5 3163.89 387.76
12 5 -5 2447.6 595.46
-5 12 -5 2512.42 355
-12 -5 -5 1755.78 455.77
12 -5 5 1906.95 856.25
12 -5 -5 2356.53 811.24
-12 5 -5 3258.31 540.56
5 12 5 3411.38 424.39
-5 12 5 3362.47 399.02
-12 5 -5 2738.86 527.42
-5 -12 5 3128.56 427.01
-5 12 -5 2802.36 443.57
-12 -5 5 2825.14 386.19
-12 -5 5 2422.31 360.61
-12 5 -5 2680.33 417.65
-5 -12 6 509.09 302.75
-12 5 -6 724.21 322.67
12 5 -6 350.33 484.23
-12 -5 6 227.13 235.66
12 5 6 -135.48 598.16
12 -5 6 -215.83 866.05
-5 12 6 658.07 338.78
-5 12 -6 403.7 322.87
-12 -5 -6 710.41 382.28
-5 12 -6 481.28 342.56
-12 -5 -6 91.66 333.18
-5 12 -6 444.15 257.52
-12 -5 -6 -6.19 244.58
-5 -12 -6 422 265.93
5 12 -6 391.98 272.15
12 -5 -6 -314.65 611.22
-12 5 -6 479.31 382.42
-12 5 -6 -338.3 368.94
5 12 6 318.88 256.62
-5 12 6 716.08 276.95
-12 -5 6 245.33 231.16
-12 -5 7 -122.24 258.08
-5 12 -7 699.03 345.25
-5 12 7 -2.57 290.76
-12 -5 -7 -673.07 440.69
-12 -5 -7 660.22 380.28
-12 5 -7 101.11 291.18
12 5 -7 -662.85 469.89
-5 12 -7 -150.02 227.77
-12 -5 -7 154.08 248.67
-5 12 -7 265.98 375.41
5 12 -7 -84.98 253.5
12 -5 7 -897.87 912.13
-5 -12 -7 -123.05 234.49
12 -5 -7 207.12 547.16
-12 5 -7 -539.02 407.15
-12 5 -7 263.19 355.87
5 12 7 -24.43 226.4
-5 12 7 76.11 251
-12 -5 7 -277.4 235.31
-5 -12 7 -55.72 272.79
-12 5 -8 441.88 283.89
-5 12 -8 465.09 316.66
-5 12 8 -73.22 264.18
5 12 8 102 221.95
-5 12 -8 -47.83 211.01
5 12 -8 162.28 223.72
-5 -12 -8 435.79 233.8
-5 12 -8 334.82 351.29
-12 -5 -8 155.6 247.32
-5 12 8 367.38 268.39
-12 -5 8 118.1 200.73
-5 -12 8 -24.29 253.02
-12 -5 8 -396.51 268
5 12 -9 939.66 262.08
-12 5 -9 1527.44 328.69
-5 12 -9 1054.77 263.75
-5 12 -9 878.88 359.27
-12 -5 -9 797.47 276.68
-5 -12 -9 1260.31 292.01
5 12 9 962.45 278.58
-5 12 9 969.57 294.7
-12 -5 9 1158.38 283.13
-5 -12 9 1296.22 316.73
5 12 -10 1792.46 295.72
-5 12 -10 1175.27 271.46
-12 -5 -10 1881.62 321.34
-5 -12 -10 1513.71 300.08
5 12 10 1803.06 299.86
-5 12 10 1572.14 318.24
-12 -5 10 1469.11 305.23
-5 12 -10 2100.79 392.05
-5 -12 10 1487.53 335.33
-5 12 -11 1406.85 323.82
5 12 -11 559.79 195.68
-12 -5 -11 998.58 252.51
-5 -12 -11 15.21 264.56
5 12 11 703.93 221.91
-5 12 11 1359.89 275.69
-12 5 11 523.15 212.76
12 -5 -11 7.49 225.61
-12 -5 11 995.97 244.29
-5 -12 11 1293.05 293.99
-12 -5 -12 318.35 182.51
-5 -12 -12 2.33 185.98
5 12 12 609.45 185.4
-5 12 -12 390.91 213.54
-5 12 12 610.68 217.83
-12 5 12 108.7 171.12
12 -5 -12 14.73 198.07
-12 -5 12 454.57 203.01
-5 -12 12 530.84 206.95
5 12 13 174.11 183.62
-5 12 -13 -199.11 167.61
-12 -5 -13 72.57 129.26
-5 -12 -13 -4.8 132.99
5 12 -13 -358.42 211.63
-5 12 13 65.77 142.52
12 -5 -13 -5.81 113.37
-12 5 13 28.66 135.5
12 5 -13 -19.48 142.08
-6 -12 0 1774.62 285.61
-12 -6 0 1937.58 312.53
-6 12 0 1933.6 358.81
12 6 0 2133.15 504.81
-12 6 0 1668.24 353.41
-12 6 0 964.75 344.3
-12 -6 0 1903.23 291
-6 -12 1 1656.52 284.89
12 6 -1 1730.18 450.64
-12 -6 -1 1234.55 417.46
-6 12 -1 1673.91 335.52
-6 12 1 1429 321.68
-12 6 1 1397.21 340.27
-12 6 -1 1033.91 319.46
-12 -6 -1 1546.07 285.12
-12 -6 1 1370.63 288.69
-12 6 1 1212.56 374.95
6 12 1 1015.71 267
6 12 -1 1404.92 418.94
-12 6 -1 1647.23 412.66
12 6 1 1545.72 435.72
-6 12 -1 2229.65 477.34
-12 -6 2 346.99 208.55
-6 -12 2 377.14 213.12
-12 6 -2 1032.27 317.67
-12 -6 -2 279.07 319.7
-12 -6 2 435.63 236.5
12 -6 2 18.05 437.62
-6 12 -2 507.58 290.67
-6 12 2 697.43 321
-12 6 2 830.36 327.19
-12 6 -2 1394.41 356.62
-6 12 -2 931.2 312.6
-12 -6 -2 540.41 243.98
12 6 2 473.88 337.78
6 12 2 133.18 229.28
12 -6 -2 301.79 461.52
6 12 -2 172.15 361.42
-12 6 -2 598.32 336.49
-12 6 2 770.4 353.25
-6 12 -2 691.78 362.53
12 6 -2 701.06 358.92
-12 -6 3 -242.99 232.45
-12 6 -3 194.17 301.01
-6 -12 3 107.94 231.33
12 -6 3 -104.35 513.34
-6 12 3 340.45 314.77
6 12 -3 -416.87 389.7
-12 -6 3 -175.7 244.59
-12 6 -3 392.64 328.08
-12 -6 -3 -272.35 386.88
-6 12 -3 406.12 287.24
12 6 3 184 342.75
-6 12 -3 276.34 315.35
-12 -6 -3 172.08 223.29
-12 -6 -3 84.36 250.06
12 -6 -3 -162.44 489.91
6 12 -3 -76.43 232.74
6 12 3 -166.88 220.54
-12 6 -3 -164.11 358.07
12 6 -3 -276.65 401.55
-6 12 -3 -99.49 304.91
-12 6 3 781.34 385.11
-6 -12 -3 958.64 424.87
-12 6 3 371.15 319.17
-12 -6 4 306.54 233.7
-6 -12 4 155.35 229.07
-12 -6 4 358.42 272.61
-12 6 -4 551.16 335.64
-6 -12 -4 170.97 349.4
-6 12 -4 -260.83 327.1
12 -6 4 -20.09 609.46
-12 -6 -4 -188.84 346.46
-12 6 4 178.82 309.95
-6 12 4 223.66 302.62
-6 12 -4 478.37 313.05
-12 -6 -4 301.15 240.72
-12 -6 -4 -220.87 360.93
-6 -12 -4 267.64 234.49
-6 12 -4 34.14 194.34
12 -6 -4 1417.74 691.3
6 12 -4 165.33 261.74
12 6 -4 328.16 421.04
6 12 4 57.97 230.01
6 12 -4 88.86 378.63
-12 6 -4 230.02 339.66
-6 12 4 183.29 223.29
-6 12 -4 252.24 325.94
-12 6 -4 25.93 291.8
-6 -12 5 -209.03 251.71
-6 12 5 380.56 326.59
-12 -6 5 173.53 252.83
-12 6 -5 819.68 354.91
12 6 5 352.61 588.33
-12 6 -5 183.91 337.1
-6 -12 -5 310.1 352.41
12 -6 5 -192.69 699.22
-12 -6 -5 -318.97 344.95
-6 12 -5 450.54 338.52
-12 -6 -5 -167.64 355.22
-12 -6 -5 266.45 266.77
-6 12 -5 127.51 217.78
12 -6 -5 -27.56 588.07
-6 12 -5 -500.73 353.49
6 12 -5 -142.48 258.75
12 6 -5 -258.81 402.15
6 12 5 20.67 248.02
-12 6 -5 -323.7 333.68
-6 12 5 323.78 264.26
-6 -12 -5 -28.76 230.04
-6 12 -5 -427.59 353.28
-12 -6 5 46.23 237.55
-6 -12 6 208.77 254.65
-12 -6 6 -54.1 247.76
-6 12 6 315.42 298.45
-6 12 -6 660.13 385.55
-12 6 -6 167.3 298.05
-12 -6 -6 -331.78 382.23
-12 -6 -6 -196.32 366.38
-6 12 -6 -23.65 228.25
-12 -6 -6 -222.52 269.55
12 -6 -6 797.62 732.73
12 6 -6 491.25 440.17
-6 -12 -6 189.83 250.84
6 12 -6 101.76 255.38
12 -6 6 -50.38 821.43
6 12 6 -166.61 272.13
-6 12 -6 -45.91 349.77
-12 6 -6 -163.16 330.17
-12 6 -6 -20.48 341.99
-12 -6 6 41.53 225.24
-12 -6 7 96.23 252.32
-12 6 -7 246.99 287.22
-6 12 -7 255.6 360.27
-6 12 -7 262.11 223.89
-12 -6 -7 3.58 257.12
6 12 -7 351.16 253.63
-6 -12 -7 -164.97 234.34
-6 12 7 263.98 259.58
6 12 7 -179.68 243.04
-6 12 7 439.85 265.26
-12 -6 7 260.51 242.84
-6 -12 7 121.18 251.61
-6 12 -8 648.8 378.73
-6 12 -8 629.57 312.48
-12 6 -8 182.27 263.7
-6 12 -8 127.5 202.03
6 12 -8 86.26 209.93
-12 -6 -8 232.81 234.01
-6 -12 -8 309.1 242.53
6 12 8 95.02 221.52
-6 12 8 91.54 238.33
-12 -6 8 18.27 208.7
-6 -12 8 37.04 255.88
-12 -6 8 -428.06 273.08
-12 6 -9 495.14 280.41
-6 12 -9 -193.09 226.28
-12 -6 -9 113.98 217.27
-6 -12 -9 50.11 205.2
-6 12 -9 78.06 331.95
6 12 9 -4.08 210.49
-6 12 9 71.27 232.35
6 12 -9 -262.24 240.06
-12 -6 9 -15.03 204.48
-6 -12 9 311.46 264.47
-12 6 -10 190.88 254.78
6 12 -10 -154.48 198.64
-12 -6 -10 31.28 215.4
-6 -12 -10 -132.34 212.98
-6 12 10 -117.3 215.62
-12 6 10 98.69 190.83
6 12 10 347.88 250.16
-12 -6 10 88.04 201.52
-6 12 -10 -63.5 278
-6 -12 10 70.44 231.82
-6 12 -11 402.17 259.17
-6 -12 -11 12.64 231.2
-12 -6 -11 276.25 206.82
6 12 11 180.27 173.73
-6 12 11 139.8 202.46
-12 6 11 223.82 192.91
-12 -6 11 125.55 183.15
-6 -12 11 477.62 227.58
-12 -6 -12 336.66 181
-6 -12 -12 -10.85 170.15
-6 12 -12 -40.75 195.11
-6 12 12 346.5 199.98
-12 6 12 80.69 161.71
-12 -6 12 50.72 152.43
-6 -12 12 294.42 197.77
6 12 -13 -122.57 173.72
-6 12 -13 -143.22 152.74
-12 -6 -13 240.24 145
-6 -12 -13 -1.05 140.28
-6 12 13 126.88 140.14
-12 6 13 -92.81 133.25
12 6 -13 -62.19 129.77
-12 -7 0 -163.97 191.87
-7 -12 0 -44.56 206.39
-12 -7 0 132.01 228.4
-7 12 0 -140.98 286.24
-12 7 0 -439.62 332.92
12 7 0 110.38 350.87
-12 7 0 -456.74 373.62
-7 12 0 77.75 380.17
-12 7 -1 54.41 331.68
-12 -7 1 682.22 212.03
-12 -7 -1 833.22 228.88
-7 -12 1 864.49 251.44
-7 -12 -1 518.4 220.43
-12 -7 -1 1358.9 468.64
12 7 -1 596.2 411.76
12 7 1 818.82 418.99
7 12 -1 630.43 402.69
-12 7 -1 890.91 307.33
12 -7 1 192.11 368.78
-12 -7 1 650.08 250.61
-7 12 -1 558.62 290.5
-7 12 1 282.69 285.08
-7 12 -1 45.45 262.38
-12 7 1 976.84 334.8
-12 -7 -1 955.29 261.49
-12 7 -1 535.06 346.58
-12 7 1 475.8 310.14
-7 12 -1 1243.34 429.5
12 -7 2 2769.93 626.42
12 7 2 3726.9 598.68
12 7 -2 3503.36 599.57
-12 7 -2 3311.54 411.72
-7 12 -2 3777.49 439.18
-12 -7 -2 3492.65 588.9
-12 7 2 3471.1 450.97
-7 12 2 3203.48 410.67
7 12 -2 3204.34 590.52
-12 7 -2 3717.33 450.42
-12 7 -2 3829.96 600.02
-12 -7 -2 3830.46 392.98
-7 12 -2 2337.77 365.08
-12 7 2 4028.31 593.14
7 12 2 3095.77 385.4
-12 -7 2 3395.27 373.07
-7 -12 2 3492.06 380.51
-7 12 -2 3663.78 570.35
-12 -7 2 4066.49 408.63
-12 -7 3 1563.53 315.8
-7 -12 3 1912.78 315.04
-12 -7 3 1833.21 322.33
-12 7 -3 1904.86 384.37
-12 -7 -3 1624.13 487.86
-7 12 -3 880.31 313.26
12 -7 3 1164.7 611.66
-12 7 3 2033.05 377.91
-7 12 3 1163.26 330.6
-7 12 -3 3218.11 442.37
-12 7 -3 1617.43 368.84
-12 -7 -3 1618.8 307.32
-7 -12 -3 1668.96 304.07
12 -7 -3 1549.96 615.68
7 12 -3 1633.4 318.58
12 7 3 2152.64 526.04
7 12 3 1562.07 328.41
-12 7 -3 2131.48 507.24
7 12 -3 1744.17 477.2
-7 12 -3 1655.68 449.78
-7 -12 -3 1903.82 526.43
12 7 -3 1471.23 504.7
-12 -7 4 1331.64 307.67
-7 -12 4 1406.64 313.79
-7 -12 -4 1173.12 312.39
-12 -7 4 1606.08 340.36
-12 7 -4 1930.64 388.23
-7 -12 -4 1548.29 477.62
-7 12 -4 871.22 316.42
12 -7 4 697.81 629.82
-7 12 4 1341.2 344.73
-12 7 -4 1303.49 374.33
-12 -7 -4 1260.4 297.72
-7 12 -4 1901.29 401.72
7 12 -4 992.54 420.47
12 -7 -4 1723.04 747.63
-7 12 -4 1468.74 284.83
-12 -7 -4 1125.65 403.02
7 12 -4 1606.44 329.05
-12 7 4 1636.14 364.91
7 12 4 1260.2 318.78
-12 7 -4 2122.57 487.82
12 7 -4 1551 547.43
-7 12 -4 2123.66 470.17
-12 -7 -4 1061.7 355.81
-12 -7 -5 5086.43 686.58
12 7 -5 5430.51 790.33
-12 7 -5 6071.15 733.74
-12 7 -5 6909.27 552.97
-7 12 -5 5294.91 504.51
-12 -7 -5 6268.43 513.96
-7 12 5 6443.77 530.01
7 12 -5 5226.62 694.5
12 -7 5 3843.71 937.88
-7 12 -5 5793.61 551.66
-12 -7 -5 5559.93 690.71
-7 -12 -5 5691.03 476.47
-7 12 -5 5004.2 642.75
-12 7 -5 4747.33 511.33
-7 12 -5 5501.9 451.87
7 12 -5 5953.1 491.07
12 -7 -5 6305.68 1046.61
7 12 5 5925.6 522.32
-7 12 5 5851.02 500.07
-12 -7 5 5124.27 485.89
-7 -12 5 6181.35 533.01
-12 -7 5 6362.67 524.31
-7 -12 -5 5511.84 715.6
-7 -12 6 2758.16 402.65
-7 12 -6 2762.65 355.87
-12 -7 6 2629.46 396.13
-7 12 -6 3188.15 439.34
-12 -7 -6 2137.93 505.34
-12 7 -6 2425.27 414.97
-12 -7 -6 2768.58 391.4
-7 12 -6 2874.53 481.9
7 12 -6 3033.5 397.7
12 -7 -6 2509.44 754.48
-7 -12 -6 2407.06 364.6
-12 -7 -6 2075.22 526.32
-7 12 6 2837.9 390.82
12 -7 6 3407.58 960.32
7 12 6 2772.31 406.38
-7 12 6 2871.21 399.56
-12 7 -6 2434.19 513.95
12 7 -6 3391.19 675
-12 -7 6 2539.09 369.76
-12 -7 7 382.93 247.05
-7 12 -7 1695.17 380.26
-7 12 -7 900.67 363.67
-7 12 -7 375.84 223.41
-12 -7 -7 512.26 249.86
7 12 -7 658.79 256.33
-7 -12 -7 358.33 243.21
-12 7 -7 678.39 317.4
7 12 7 409.87 268.78
-7 12 7 889.19 295.26
-12 -7 7 539.8 256.97
-7 -12 7 356.98 266.52
-7 12 -8 2346.31 379.65
-7 12 -8 995.29 257.37
-12 7 -8 1210.92 328.74
7 12 -8 1260.12 289.22
-12 -7 -8 1213.97 304.21
-7 -12 -8 1114.96 282.22
-7 12 -8 1840.23 409.03
7 12 8 1622.43 323.05
-7 12 8 1304.31 313.68
-12 7 8 937.29 281.17
-12 -7 8 1358.4 305.13
-7 -12 8 1116.53 327.41
-12 -7 8 687.42 268.49
-7 12 -9 991.2 244.11
-12 7 -9 1431.37 307.85
-7 12 -9 1472.35 396.82
7 12 -9 1471.08 265.88
-12 -7 -9 660.09 258.67
-7 -12 -9 887.36 272.59
7 12 9 1320.33 285.95
-7 12 9 1653.69 331.23
-12 7 9 959.68 244.67
-12 -7 9 1039.98 279.04
-7 -12 9 1278.36 340.18
-7 12 -10 1323.09 324.88
-12 -7 -10 1013.54 275.99
-7 -12 -10 21.72 260.26
7 12 10 1143.95 265.77
-12 7 -10 1288.25 289.76
-7 12 10 1527.81 307.5
-12 7 10 978.23 246.47
-12 -7 10 1223.33 270.93
-7 -12 10 898.73 274.71
-7 12 -11 1122.78 282.53
-12 -7 -11 1431.6 275.71
-7 12 11 1946.28 298.63
-12 7 11 1089.95 240.1
-12 -7 11 1361.39 250.52
-7 -12 11 1367.67 283.14
-7 12 -12 20.97 187.15
-12 -7 -12 496.5 186.77
-7 -12 -12 13.77 158.58
-7 12 12 244.37 178.43
-12 7 12 286.95 164.35
-12 -7 12 270.66 164.21
7 12 -13 -244.2 164.23
-12 -7 -13 47.19 125.25
-7 -12 -13 1.45 122.84
-7 12 -13 177.45 135.23
-7 12 13 99.49 128.63
-12 7 13 -34.05 115.67
12 7 -13 50.01 123.99
-12 -8 0 126.87 187.35
-8 -12 0 367.1 219.77
-12 8 0 -81.65 238.6
-12 -8 0 126.82 225.86
-8 12 0 191.37 265.68
-12 8 0 -287.12 344.52
-12 8 0 -79.06 348.72
-8 12 0 495.69 406.86
-8 12 0 124.64 285.23
8 12 0 -471.91 435.89
12 8 0 -92.73 334.7
-8 12 -1 136.23 261.57
-12 -8 1 262.81 218.25
8 12 -1 222.93 369.67
-12 -8 -1 510.2 221.63
-8 -12 1 202.22 212.49
-8 -12 -1 -99.17 216.41
-12 -8 -1 366.03 226.35
-12 -8 -1 229.05 357.74
-12 8 -1 138.96 263.65
-12 -8 1 257.1 252.88
-8 12 -1 328.46 293.37
-8 12 1 247.64 285.69
-12 -8 -1 506.62 260.3
-8 -12 -1 145.94 242.22
-12 8 1 -333.84 310.94
-12 8 -1 -187.09 299.72
12 8 -1 -193.67 387.6
12 8 1 -116.84 353.02
-12 8 -1 244.43 327.46
-12 8 1 73.86 297.6
-8 12 -1 1010.1 409.85
-12 -8 2 39.5 212.27
-8 -12 2 165.16 205.78
-12 -8 -2 -5.73 198.48
-8 12 -2 -356.71 322.29
-12 -8 -2 56.72 362.17
-12 -8 2 33.78 225.09
8 12 -2 152.4 350.43
-12 8 -2 214.36 286.55
-8 12 -2 88.68 274.66
-8 12 2 -132.71 283.86
12 8 -2 -71.95 366.08
-8 -12 -2 134.02 227.72
-12 -8 -2 77.94 212.38
-12 8 2 461.32 312.47
12 8 2 -93.14 409.63
-12 8 -2 -131.17 360.98
-8 12 -2 294.02 373.81
-12 8 2 797.78 406.52
-12 8 -2 400.22 341.17
-12 -8 3 1.64 212.27
-8 -12 3 243.33 219.26
-12 -8 -3 294.93 205.44
-8 -12 -3 599.64 460.11
-12 -8 3 396.34 267.19
-12 8 -3 794.84 349.71
12 8 -3 618.81 409.6
-12 -8 -3 327.52 375.61
-8 12 -3 -206.7 324.08
-8 12 3 76.5 286.77
-12 8 -3 469.39 327.65
-8 12 -3 -113.1 351.76
-12 -8 -3 285.09 240.01
-8 -12 -3 -90.16 229.54
12 -8 3 395.63 524.91
8 12 -3 302.94 244.91
8 12 3 -47.83 281.81
-12 8 3 519.38 349.5
8 12 -3 248.01 399.51
-12 8 -3 327.59 366.27
-8 12 -3 270.12 348.8
-12 -8 4 340.56 240.24
-8 -12 4 720.31 284.46
12 8 -4 537.47 450.96
-12 -8 4 1038.01 329.18
-12 -8 -4 773.46 239.86
-12 8 -4 1193.27 369.99
-8 -12 -4 518.09 431.5
-8 12 -4 105.29 312.41
-12 -8 -4 209.97 354.34
12 -8 4 1035.51 682.63
-8 12 4 238.41 289.54
-12 8 4 807.73 333.79
-12 8 -4 527.93 340.24
8 12 -4 1247.33 478.41
-8 12 -4 -331.61 330.57
-12 -8 -4 848.62 282.23
-8 -12 -4 808.09 282.98
8 12 -4 597.14 260.27
12 -8 -4 1628.93 743.56
8 12 4 741.24 265.16
-12 8 -4 1060.61 427.18
-8 12 -4 352.05 390.05
-8 -12 5 1698.9 341.7
-12 -8 5 1465.2 330.02
-12 8 -5 1816.17 406.65
-8 12 -5 1395.69 359.61
-8 -12 -5 1100.5 417.41
12 -8 5 1933.13 781.57
8 12 -5 1114.15 456.69
-12 -8 -5 1101.31 418.41
-8 12 5 977.19 315.38
12 -8 -5 874.13 607.78
-12 8 -5 1466.48 382.45
-8 -12 -5 1361.32 321.62
-8 12 -5 1394.81 372.01
-12 -8 -5 791.73 378.99
-12 -8 -5 1575.5 334.85
-8 12 -5 1197.45 262.22
8 12 5 1125.14 309.9
8 12 -5 1140.94 300.23
-12 8 -5 1423.54 493.41
-8 12 -5 947.64 443.59
12 8 -5 1271.55 501.23
-12 -8 5 1411.06 313.65
-8 -12 6 88.95 237.32
-12 -8 6 50.68 252.58
-12 8 -6 838.14 340.46
-8 12 -6 708.18 322.28
-12 8 -6 92.32 293.41
-8 12 -6 1029.11 351.52
-8 12 -6 193.19 202.25
-12 -8 -6 412.18 275.17
-8 -12 -6 340.15 235
8 12 -6 541.53 248.19
8 12 6 -46.86 235
-8 12 6 -30.26 233.03
-12 -8 6 -37.66 219.9
-12 -8 7 72.78 229.49
-8 12 -7 355.44 296.52
-8 12 -7 179.38 202.32
-8 12 -7 519.44 329.79
-12 -8 -7 411.06 244.95
-8 -12 -7 -130.57 226.1
8 12 -7 129.08 214.28
8 12 7 -97.02 214.61
-8 12 7 178 228.76
-12 8 -7 108.21 285.75
-12 -8 7 57.45 213.68
-8 -12 7 270.27 250.39
-8 12 -8 923.81 341.83
-8 12 -8 -314.29 297.06
-8 12 -8 -29.73 197.25
-12 -8 -8 140.06 222.9
-8 -12 -8 132.48 224.25
8 12 8 -7.35 219.52
-8 12 8 162.01 218.54
-12 8 8 46.26 190.48
-12 8 -8 245.57 267.94
-12 -8 8 -185.29 256.87
-12 -8 8 84.67 209.07
-8 -12 8 -60.56 235.88
-12 8 -9 429.5 270.49
-8 12 -9 -539.81 321.62
-12 -8 -9 118.84 229.8
-8 -12 -9 338.32 238.09
8 12 9 36.11 203.91
-8 12 9 162.04 222.12
-12 8 9 112.4 181.13
-12 -8 9 236.13 213.53
-8 -12 9 201.37 237.94
-12 8 -10 418.16 244.73
-8 12 -10 35.1 261.58
-12 -8 -10 757.89 256.88
-8 -12 -10 5.87 212.14
-8 12 10 536.33 234.83
-12 8 10 336.07 201.24
-12 -8 10 403.77 209.67
-8 -12 10 681.54 254.54
-8 12 -11 -479.35 228.35
-12 8 -11 72.84 200.45
-12 -8 -11 142.14 184.1
-8 -12 -11 6.23 208.99
-8 12 11 32.28 171.39
-12 8 11 -16.42 162.15
-12 -8 11 7.2 166.35
-8 -12 11 123.35 193.91
-8 12 -12 -125.8 166.74
-8 -12 -12 -0.48 141.76
-12 -8 -12 -113.08 160.54
-8 12 12 105.99 146.35
-12 8 12 -31.18 131.89
-12 -8 12 4.97 135.33
-8 -12 12 -10.21 153.93
12 8 -12 -227.71 162.8
-12 -8 -13 0.17 122.74
-8 12 13 194.73 123.12
-12 -9 0 196.13 211.18
-9 -12 0 116.44 198.54
-12 9 0 -51.56 274.39
-9 -12 0 -306.2 272.25
-12 -9 0 -172.56 234.63
-9 12 0 286.17 281.52
-12 9 0 -495.49 370.87
9 12 0 -548.93 424.64
12 9 0 -247.67 408.04
-12 9 0 434 354.42
-9 12 0 375.38 396.72
-9 12 0 719.08 351.14
-12 -9 1 958.57 257.75
-9 -12 1 1241.56 285.99
-12 -9 -1 1323.62 274.64
-9 -12 -1 1302.59 273.42
-9 -12 1 960.21 286.49
12 9 1 1626.61 471.8
-12 9 -1 1174.68 329.4
-12 -9 1 1286.03 295.34
-9 12 -1 1421.9 355.3
-9 -12 -1 1185.51 308.36
-9 12 1 1444.99 354.2
-12 -9 -1 1050.7 296.64
-9 12 -1 1189.25 341.96
-9 -12 -1 764.38 250.13
-12 -9 -1 1129.41 274.53
-12 9 -1 1029.48 359.67
-12 9 1 1444.99 359.32
9 12 -1 1674.05 491.35
-12 9 -1 1093.9 418.34
-12 9 1 1967.43 488.02
-9 12 -1 2427.46 550.26
-12 -9 -1 1548.04 494.73
12 9 -1 1148.23 465.02
9 12 -2 5196.63 723.59
-9 12 -2 4493.26 463.71
12 9 -2 5525.28 748.31
-12 9 -2 4760.04 479.18
-9 12 -2 3975.36 448.42
-9 12 2 4855.32 473.21
-12 9 2 5529.4 507.96
-12 9 -2 5296.65 530.48
12 9 2 4939.84 713.14
-9 -12 -2 4876.72 446.34
-12 -9 -2 5318.44 455.73
-12 9 -2 5597.11 706.93
-9 12 -2 5671.61 741.57
-12 9 2 5655.72 740.67
-12 -9 2 5189.87 452.78
-9 -12 2 4831.82 449.62
-12 -9 -2 5397.22 421.01
-9 -12 -2 4944.04 445.92
-9 -12 2 5486.01 487.51
-12 -9 2 4820.51 468.1
-9 -12 -2 4511.05 448.01
-12 -9 -2 5394.23 737.31
9 12 -3 5778.66 455.13
12 9 -3 5303.37 794.05
-12 9 -3 6891.09 547.83
-9 12 -3 5624.72 520.14
-9 12 3 6044.54 513.61
9 12 -3 6551.83 841.79
-12 9 -3 5785.22 546.93
-9 12 -3 4852.91 485.14
-12 9 -3 6856.91 777.41
-12 -9 -3 6592.89 508.9
-9 -12 -3 5974.19 481.28
-9 12 -3 6705.84 777.97
-12 9 3 6211.57 528.57
-12 -9 3 5247.75 469.89
-9 -12 3 6160.06 499.09
-12 -9 -3 5705.09 443.96
-9 -12 3 5570.07 503.33
-12 -9 3 7365.63 548.56
-9 -12 -3 6102.69 807.37
-12 -9 -3 6779.61 803.78
-9 12 -4 2869.05 426.21
12 9 -4 5096.96 772.2
-12 9 -4 5852.93 528.13
-9 12 -4 4050.41 467.8
-9 12 4 3653.15 420.65
-12 -9 -4 3817.71 621.75
9 12 -4 3954.78 684.33
-12 9 -4 4103.47 489.26
9 12 -4 3933.06 417.84
-12 9 -4 5932.94 751.2
-12 -9 -4 4475.08 455.66
-9 -12 -4 4049.98 422.5
-12 -9 4 4380.3 445.06
-9 -12 4 3961.07 438.07
-12 -9 -4 4854.7 414.06
-9 12 -4 3197.01 611.78
-9 -12 4 3969.5 439.67
-12 -9 4 4605.17 474.59
-9 -12 -4 4706.08 696.93
-9 -12 5 705.57 259.34
-9 -12 5 337.47 213.11
-12 -9 5 941.83 290.34
-12 -9 -5 821.99 240.57
-12 9 -5 1182.74 350.24
-9 12 -5 1139.66 351.77
-12 9 -5 627.91 341.22
-9 12 -5 93.91 290.94
-12 -9 -5 544.3 275.95
-9 -12 -5 671.04 279.12
9 12 5 398.34 250.56
-12 -9 5 710.84 274.78
-12 -9 6 -301.65 258.21
-12 9 -6 479.15 325.79
-9 12 -6 567.43 332.63
-12 9 -6 230.4 300.11
-9 12 -6 -297.85 348.02
-12 -9 -6 258.94 232.59
-9 -12 -6 338.39 241.52
9 12 6 -484.86 300.54
-9 12 6 93.81 217.32
-12 -9 6 96.58 213.22
-9 -12 6 -99.09 208.58
-9 -12 6 63.17 227.48
-9 12 -7 649.92 298.98
-12 9 -7 338.65 288.43
-9 12 -7 194.86 309.64
-12 -9 -7 287.23 228.35
-9 -12 -7 306.79 249.67
9 12 7 101.6 247.78
-9 12 7 358.36 234.9
-12 -9 7 143.7 208.38
-9 -12 7 327.63 250
-12 -9 7 96.6 225.6
-9 12 -7 -230.62 219.07
-9 12 -8 785.02 318.33
-12 9 -8 239.35 278.69
-9 12 -8 -356 326.21
-12 -9 -8 162.02 210.25
-9 -12 -8 236.74 244.1
9 12 8 -212.18 248.26
-9 12 8 32.87 196.31
-12 9 8 -39.54 185.28
-12 -9 8 149.52 211.44
-9 -12 8 56.32 221.02
-12 -9 -9 1792.96 324.28
-12 9 -9 1288.06 310.16
-9 12 -9 832.54 310.43
-9 -12 -9 372.03 322.92
-9 12 9 1799.96 296.65
-12 9 9 1281.62 252.6
-12 -9 9 1725.7 304.61
-9 -12 9 1537.35 306.41
-12 9 -10 1366.62 292.19
-9 12 -10 1205.15 302.48
-12 -9 -10 1260.6 269.67
-9 12 10 1444.59 269.16
-12 9 10 1004.2 236.62
-12 -9 10 1368.93 263.22
-9 -12 10 1322.98 281.78
-9 12 -11 7.5 210.83
-12 9 -11 221.17 193.41
-12 -9 -11 302.56 187.4
-9 -12 -11 14.78 188.91
-9 12 11 317.44 179.92
-12 9 11 -32.44 147.3
-12 -9 11 270.97 181.59
-9 -12 11 258.4 170.73
-9 12 -12 192.12 167.67
-12 -9 -12 -1.04 155.09
-9 -12 -12 12.11 153.39
-9 12 12 254.9 147.29
-12 9 12 238.38 136.18
-12 -9 12 174.4 146.45
-9 -12 12 381.86 148.61
12 9 -12 181.67 131.81
-12 -10 0 1996.22 318.44
-10 -12 0 1782.02 316.36
-10 12 0 1813.71 539.73
-10 -12 0 1829.75 367.72
10 12 0 1341.69 518.82
-12 -10 0 1499.87 312.02
-10 12 0 1692.45 363.16
-10 12 0 2261.2 420.03
-12 10 0 1570.3 336.79
-12 10 0 831.03 350.32
-12 10 0 2320.82 539.15
12 10 0 1540.26 516.77
-10 12 -1 -132.32 322.95
-12 -10 1 518.89 229.92
-10 -12 1 764.32 260.43
-12 -10 -1 962.37 263.8
-10 -12 -1 610.15 244.14
-10 12 -1 914.33 361.06
-10 -12 1 -27.74 257.64
-12 -10 1 667.4 266.78
12 10 1 1318.96 521.02
-12 10 -1 459.88 287.69
-12 10 1 365.19 271.07
-10 -12 -1 835.15 281.68
-10 12 1 982.14 337.9
-12 -10 -1 1088.22 288.58
-12 10 1 294.44 321.89
12 10 -1 -572.35 496.32
-12 10 -1 236.07 332.45
10 12 -1 401.82 456.47
-12 10 -1 777.11 438.8
-12 -10 -1 753.63 262.3
-10 12 -1 742.42 454.3
-12 10 1 1308.27 497.02
-12 -10 -1 890.08 440.89
12 10 -2 291.91 380.85
-12 -10 2 -148.65 215.07
-10 -12 2 -3.81 221.23
10 12 -2 240.73 444.19
-12 -10 -2 212.96 206.08
-10 -12 -2 188.92 214.68
-10 -12 -2 962.44 472.26
-10 -12 2 551.17 290.15
-12 -10 2 -77.45 235.24
-12 -10 -2 595 439.6
-12 10 -2 417.86 311.29
-10 12 -2 -186.9 332.82
-10 12 2 166.06 287.87
-10 -12 -2 70.28 221.49
-12 -10 -2 308.94 255.26
-10 12 -2 260.86 327.16
-12 -10 -2 97.33 228.95
-10 -12 -2 -44.21 223.02
-12 10 -2 436.72 333.87
10 12 -2 -231.14 241.8
-12 10 -2 176.79 361.89
-10 12 -2 150.4 392.29
-12 10 2 443.58 352.52
-12 -10 3 -312.52 225.47
-10 -12 3 136.3 223.14
-12 10 3 749.58 363
-10 -12 3 63.77 266.07
-12 -10 -3 -8.75 187.83
-10 -12 -3 -25.49 206.56
-12 -10 3 159.38 242.87
-10 -12 -3 238.23 399.11
-12 10 -3 262.86 301.33
-12 -10 -3 -50.9 342.14
-10 12 -3 -299.54 306.9
-10 12 3 291.84 286.06
-10 12 -3 -13.23 296.81
-12 -10 -3 3.32 223.8
-10 -12 -3 193.67 227.88
10 12 -3 582.74 419.19
12 10 -3 -360.97 427.79
-12 10 -3 -354.7 376.09
-10 12 -3 893.37 437.04
-12 10 -3 546.5 341.54
-12 -10 4 148.75 217.44
-10 -12 4 67.45 226.95
-10 -12 4 173.39 235.71
-12 -10 4 128.37 231.86
-12 -10 -4 61.11 178.99
-10 -12 -4 66.64 228.31
-12 10 -4 779.57 322.29
-10 12 -4 359.1 294.33
-12 10 -4 394.8 322.41
-10 12 -4 -485.78 321.11
-12 -10 -4 317.9 245.49
-10 -12 5 -210.89 230.32
-10 -12 5 -14.37 252.12
-12 -10 5 99.55 225.52
-12 -10 -5 -104.53 182.8
-12 -10 -5 102.54 223.64
-12 10 -5 186.03 272.68
-10 12 -5 496.54 310.23
-12 10 -5 490.27 330.85
-10 12 -5 21.62 303.82
-10 -12 -5 214.46 228.96
-12 -10 5 -35.34 214.16
-12 -10 6 191.59 231.4
-12 -10 -6 513.06 241.88
-12 -10 -6 529.54 200.04
-12 10 -6 983.38 333.96
-10 12 -6 417.23 296.22
-12 10 -6 377.5 312.68
-10 12 -6 -195.09 290.29
-10 -12 -6 385.87 245.3
-12 -10 6 458.11 245.69
-10 -12 6 120.09 202.23
-10 -12 6 384.63 237.22
-12 10 -7 869.1 322.45
-10 12 -7 1297.42 337.14
-10 12 -7 1167.48 341.17
-12 -10 -7 1057.17 284.26
-10 -12 -7 1146.98 283.26
-10 12 7 717.2 230.2
-12 -10 7 1102.9 276.95
-10 -12 7 725.37 273.39
-12 -10 7 611.56 256.65
-12 10 -8 889.51 312.48
-10 12 -8 917.2 324.93
-12 -10 -8 1558.61 306.49
-10 -12 -8 1142.19 281.9
-10 12 8 709.37 238.45
-12 -10 8 1099.14 277.48
-10 -12 8 1160.62 287.93
-10 12 -9 16.41 264.42
-12 10 -9 583.65 273.94
-12 -10 -9 444.79 228.43
-10 -12 -9 3.95 209.64
-10 12 9 688.98 227.65
-12 10 9 393.52 189.35
-12 -10 9 339.3 209.71
-10 -12 9 371.41 218.26
-12 10 -10 740.4 244.34
-10 12 -10 -51.9 230.14
-12 -10 -10 383.88 213.79
-10 -12 -10 1.16 179.73
-10 12 10 151.31 178.38
-12 10 10 46.06 156.6
-12 -10 10 166.34 175.64
-10 -12 10 63.88 168.14
-12 10 -11 -448.75 201.88
-10 12 -11 235.11 206.39
-12 -10 -11 50.58 163.39
-10 -12 -11 -3.05 156.11
-10 12 11 -17.7 140.34
-12 10 11 187.36 152.18
-12 -10 11 49.87 143.28
-10 -12 11 67.48 142.76
-10 -12 -12 -1.28 133.84
-10 12 -12 323.44 151.6
-12 -10 -12 6.18 121.86
-10 12 12 -3.65 103.9
-12 -10 12 9.71 105.67
-10 -12 12 -140.66 124.1
-12 -11 0 186.87 207.83
-11 -12 0 -4.52 208.93
-11 -12 0 -95.21 233.83
-12 -11 0 138.56 229
-12 11 0 -537.06 307.88
-11 12 0 -325.94 304.52
11 12 0 432.24 437.34
-12 11 0 -4.35 344.66
-11 12 0 -390.22 355.48
-12 11 0 162.65 381.99
12 11 0 -412.74 402.41
-11 12 0 490.9 450.27
12 11 -1 1948.85 551.69
-12 -11 1 1149.07 272.35
-11 -12 1 1026.29 273.74
-12 -11 -1 1164.22 267.87
-11 -12 -1 1330.93 295.18
-12 -11 -1 1531.62 513.86
-11 -12 1 717.06 281.62
-12 -11 1 807.42 277.04
-12 11 -1 1096.74 324.65
12 11 1 2121.22 583.92
-11 12 -1 489.09 303.66
-12 11 1 778.91 292.8
-11 -12 -1 1086.38 284.15
-11 12 1 546.91 302.68
-12 -11 -1 1319.05 297.19
-12 11 -1 40.96 342.13
-11 12 1 1579.69 374.18
-11 12 -1 1589.37 399.83
-12 11 1 980.63 345.97
11 12 -1 1057.07 480.42
-12 11 -1 1159.46 482.61
-11 12 -1 1301.51 447.97
-12 11 1 2204.49 558.46
-12 -11 2 2197.87 338.3
-12 -11 -2 2067.69 312.04
-12 -11 -2 1987.36 325.96
-11 12 -2 2331.46 417.01
-12 11 -2 2390.58 386.14
-11 12 -2 1872.83 369.67
-12 11 2 1778.16 338.18
-11 12 2 2864.63 384.01
-12 -11 -2 2049.77 350.21
-11 -12 -2 1932.61 323.53
-12 11 -2 2419.56 446.65
-11 -12 2 3020.47 379.83
-11 -12 -2 2467.5 339.62
-12 11 2 2733.56 415.01
-11 -12 2 3147.1 440.66
-12 -11 2 2809.7 399.22
-11 -12 -2 2404.75 360.78
-12 -11 3 1483.91 308.13
-11 -12 3 1512.68 307.28
-11 -12 3 2044.76 379.8
-12 -11 -3 1588.55 279.87
-11 -12 -3 1416.53 286.31
-12 -11 3 2093.22 358.09
-12 11 -3 1799.78 405.14
-12 11 -3 1671.42 377.78
-11 12 -3 1976.13 368.53
-11 12 3 1709.14 335.29
-11 -12 -3 1585.85 302.12
-11 -12 -3 1747.95 331.73
-12 -11 -3 1540.61 308.21
-11 12 -3 1750.45 396.17
-12 -11 -3 2072.05 353.65
-12 -11 4 1101.88 271.63
-11 -12 4 1232.44 309.46
-11 -12 4 775.86 285.54
-11 12 -4 833.25 328.95
-12 -11 4 1133.19 318.11
-12 -11 -4 1102.32 244.01
-11 -12 -4 1023.77 250.78
-12 11 -4 1616.64 353.93
-11 12 -4 1492.79 364.99
-11 -12 -4 882.55 267.21
-12 -11 -4 1066.66 287.71
-12 11 -4 1322.35 368.36
-12 -11 5 655.41 250.94
-11 -12 5 723.74 262.03
-11 -12 5 83.93 244.77
-12 -11 5 443.55 252.61
-12 -11 -5 629.13 214.86
-11 -12 -5 638.05 235.46
-12 11 -5 804.95 311.23
-11 12 -5 1540.96 345.99
-12 11 -5 660.68 334.67
-11 12 -5 453.52 304.1
-12 -11 -5 994.69 270.18
-11 -12 -5 584.48 244.33
-12 -11 6 24.52 206.12
-12 11 -6 205.24 283.57
-12 -11 -6 27.21 164.16
-12 11 -6 556.04 317.41
-11 12 -6 487.96 289.17
-12 -11 -6 -41.26 210.03
-11 -12 -6 248.59 219.24
-11 12 -6 233.98 289.43
-12 -11 6 502.87 248.1
-11 -12 6 263.83 225.91
-11 -12 6 -90.14 242.28
-12 11 -7 569.54 298.83
-12 -11 -7 -300.94 194.08
-11 12 -7 546.72 302.62
-11 12 -7 -5.23 282.8
-12 -11 -7 216.67 222.4
-11 -12 -7 90.07 203.95
-12 -11 7 70.21 199.52
-11 -12 7 178.55 208.66
-12 -11 7 -113 260.17
-12 11 -8 699.03 300.64
-12 -11 -8 371.25 183.24
-11 12 -8 491.69 311.36
-12 -11 -8 653.07 245.56
-11 -12 -8 13.73 238.01
-12 -11 8 487.21 225.8
-11 -12 8 649.83 237.95
-12 11 -9 917.99 280.07
-12 -11 -9 518.25 159.34
-11 12 -9 808.7 286.24
-12 -11 -9 5.48 234.48
-11 -12 -9 -9.58 242.76
-11 12 9 850.53 212.2
-12 -11 9 849.55 228.29
-11 -12 9 909.79 239.6
-11 -12 -10 169.99 133.11
-11 12 -10 692.05 243.37
-12 -11 -10 6.26 214.11
-11 -12 -10 4.17 197.08
-12 11 -10 799.97 239.37
-11 12 10 600.52 182.46
-12 11 10 280.28 152.45
-12 -11 10 614.72 190.83
-11 -12 10 399.2 178.5
-12 11 -11 40.14 176.61
-12 -11 -11 7.16 161.57
-11 -12 -11 17.62 154.33
-11 12 -11 480.55 198.45
-11 12 11 118.34 128.9
-12 -11 11 182.45 141.35
-11 -12 11 219.51 142.58
12 11 -11 43.59 106.89
-12 -11 -12 17.73 114.47
-12 -11 12 18.44 94.48
-11 -12 12 136.29 113.53
-12 12 0 2634.07 382.76
-12 12 0 2578.14 403.43
-12 -12 0 3202.88 374.74
-12 -12 0 3277.79 392.41
-12 -12 1 1768.4 307.13
-12 -12 -1 1961.77 303.01
-12 -12 1 1365.66 294.56
-12 12 -1 1896.44 346.95
-12 12 1 1547.03 314.74
-12 -12 -1 1490.04 305.62
-12 12 -1 1003.43 326.02
-12 12 1 2038.05 396.17
-12 -12 2 134.68 196.35
-12 -12 -2 106.74 178.5
-12 -12 2 636.26 275.58
-12 12 -2 15.64 271.32
-12 12 2 -288.78 290.99
-12 -12 -2 295 220.04
-12 12 -2 572.21 334.7
-12 -12 3 -175.95 207.16
-12 -12 3 47.6 219.48
-12 -12 -3 69.56 174.51
-12 12 -3 597.81 298.75
-12 -12 -3 -106.55 198.73
-12 -12 -3 77.9 198.64
-12 12 -3 481.84 317.57
-12 -12 4 301.64 216.79
-12 -12 4 357.1 241.88
-12 -12 -4 302.5 198.37
-12 12 -4 777.22 303.61
-12 -12 -4 789.82 257.93
-12 12 -4 500.91 313.68
-12 -12 -4 148.6 202.37
-12 -12 5 550.07 247.96
-12 -12 -5 777.23 223.23
-12 12 -5 970.45 332.68
-12 12 -5 638.28 347.1
-12 -12 -5 547.63 229.9
-12 -12 5 866.7 262.18
-12 -12 -6 497.91 207.22
-12 12 -6 1516.12 332.33
-12 12 -6 1365.05 345.57
-12 -12 -6 678.22 242.33
-12 -12 6 796.41 270.29
-12 -12 6 690.78 244.36
-12 -12 -7 1090.84 225.96
-12 12 -7 1371.86 341.6
-12 -12 -7 1583.74 286.9
-12 -12 7 1412.82 287.3
-12 -12 -8 1374.94 222.67
-12 12 -8 1980.72 353.39
-12 -12 8 1155.54 250.6
-12 -12 -9 252.99 136.48
-12 -12 -9 -1.73 201.31
-12 -12 -10 0.65 160.21
-12 -12 10 -144.61 142.56
-12 -12 -11 -5.82 122.44
-12 12 -11 -27.57 161.42
-12 -12 11 -1.44 110.29
13 0 0 -11.73 313.53
-13 0 0 60.24 223.53
-13 0 -1 605.05 257.52
13 0 -1 577.5 376.77
-13 0 1 781.26 315.71
-13 0 -1 607.44 281.65
13 0 1 978.41 363.43
13 0 -2 6920.8 776.43
-13 0 -2 7509.16 643.43
0 13 2 6056.97 538.74
-13 0 2 6851.23 542.63
0 13 -2 7552.7 491.87
-13 0 -2 8114.69 698.11
0 13 2 7245.26 484.16
0 13 -3 3995.68 399.18
-13 0 -3 4217.12 534.28
13 0 -3 3438.66 623.35
-13 0 -3 3870.75 429.26
0 13 -3 3839.06 405.85
0 13 3 3670.79 464.96
-13 0 -3 3354.88 511.55
0 13 3 4112.13 398.43
-13 0 3 4334.08 403.88
13 0 -4 1426.87 524.51
-13 0 4 1446.56 285.73
0 13 -4 1601.4 361.44
-13 0 -4 1210.1 292.01
-13 0 -4 1640.37 407.01
0 13 -4 1757.89 311.06
-13 0 -4 1101.69 395.92
-13 0 -4 1137.49 349.5
0 13 4 1408.12 299.02
13 0 -5 369.27 473.74
-13 0 5 238.35 221.1
-13 0 -5 235.1 317.64
-13 0 -5 -397.38 326.45
-13 0 -5 458.34 269.63
13 0 5 -789.89 819.51
0 13 -5 295.18 263.08
-13 0 -5 -100.71 305.05
0 13 5 371.9 249.48
-13 0 6 -425.64 266.06
-13 0 -6 431.98 385.63
13 0 6 47.97 834.98
-13 0 -6 72.41 232.96
0 13 -6 316.55 275.07
-13 0 -6 103.92 342
0 13 6 407.34 274.88
13 0 -6 -132.47 482.87
13 0 7 369.99 899.55
-13 0 -7 184.12 241.93
0 13 -7 406.77 265.55
-13 0 -7 428.12 401.98
0 13 7 181.74 251.59
-13 0 7 249.6 217.08
-13 0 -7 63.76 313.06
-13 0 7 -150.55 230.34
13 0 -7 129.92 423.82
-13 0 -8 763.34 261.99
0 13 -8 642.09 267.14
0 13 8 1008.87 295.45
-13 0 8 238.84 211.67
0 13 -9 1375.35 323.14
-13 0 -9 1551.63 304.62
0 13 9 1942.74 357.25
-13 0 9 1011.49 243.58
0 13 -10 1324.75 352.29
0 13 10 1524.71 352.34
0 13 -10 1275.12 303.01
-13 0 -10 1419.53 285.34
0 13 10 1610.9 310.41
-13 0 10 1148.47 258.58
0 13 -11 229.75 261.81
0 13 11 592.69 273.08
0 13 -11 -10.61 208.33
-13 0 -11 406.05 228.07
0 13 11 206.86 212.62
0 13 -12 -80.39 223.88
0 13 12 -120.43 180.86
13 0 -12 -9.6 211.11
0 13 -13 327.03 187.51
0 13 13 -23.2 136.43
13 0 -13 -2.11 147.88
-13 -1 0 837.61 295.44
13 -1 0 1448.89 403.23
13 1 0 811.14 394.27
-13 -1 0 1424.43 314.37
-13 1 0 1209.6 325.2
13 1 1 723.33 324.14
-13 1 -1 1543.27 315.38
13 -1 -1 1188.71 449.79
-13 -1 -1 979.75 313.42
-1 13 1 1575.29 328.46
-13 -1 1 1468.01 359.82
-13 1 1 1985.63 383.58
13 1 -1 1259.55 425.27
-13 -1 -1 1369.3 333.28
-13 1 -1 1624.51 370.11
-13 1 1 1384.46 302.2
13 -1 -2 945.65 479.11
-13 -1 2 636.62 241.6
13 1 -2 1334.84 470.65
-13 -1 -2 572.27 295.21
-13 1 2 1011.77 354.55
-13 1 -2 624.14 320.98
-13 1 -2 1087.64 329.71
-1 13 2 492.54 302.17
1 13 2 821.98 340.24
-13 1 -2 1327.89 341.56
-1 13 -2 759.13 249.37
-13 -1 -2 778.91 336.91
1 13 -2 927.16 263.53
1 13 2 671.84 228.2
-1 13 2 453.09 198.6
13 -1 -3 156.45 432.55
-13 1 3 199.54 215.26
-13 -1 3 542.07 252.07
13 1 -3 -20.81 413.54
-1 13 -3 -45.15 255.79
-13 -1 -3 162.06 317.98
-1 13 3 181.83 299.88
-13 1 3 -328.85 330.05
-13 -1 -3 -26.19 211.67
-13 1 -3 -151.65 298.74
-13 1 -3 59.1 266.5
-1 13 -3 350.11 237.73
-13 -1 -3 27.71 277.84
1 13 -3 10.6 214.6
-13 -1 -3 12.55 270.98
-13 1 -3 506.56 329.89
1 13 3 -107.8 226
-1 13 3 314.54 231.74
-13 -1 -4 100.52 215.3
-13 1 -4 -169.33 297.13
-13 1 4 98.83 186.19
-13 -1 4 124.74 226.29
13 1 -4 -388.52 453.16
-1 13 -4 130.65 261.7
-13 -1 -4 86.03 267.84
-1 13 4 -104.13 316.29
-13 1 -4 107.45 272.58
-1 13 -4 71.29 214.95
-13 -1 -4 -99.22 273.87
1 13 -4 452.71 266.58
-13 1 -4 -557.56 343.53
1 13 4 32.2 216.18
-1 13 4 -82.85 213.43
13 -1 -4 -231.71 443.85
-13 1 5 -67.46 211.41
-13 -1 5 -114.09 236.71
13 1 -5 -303.98 488.62
-13 -1 -5 -75.68 294.54
13 1 5 -338.51 757.67
13 -1 5 86.64 800.86
-1 13 -5 -933.86 340.36
-1 13 5 -225.02 360.12
-13 1 -5 -96.43 309.6
-13 -1 -5 132.52 239.61
-13 1 -5 -383.78 333.35
-1 13 -5 -38.56 218.07
1 13 -5 80.37 245.28
-13 -1 -5 -581.28 377.21
-13 1 -5 -494.59 412.76
1 13 5 65.79 229.39
-1 13 5 443.05 272.58
13 -1 -5 26.99 477.87
-13 1 6 248.18 211.73
-13 -1 6 55.72 225.1
13 1 -6 769.16 491.55
-13 1 -6 126.84 311.36
13 1 6 237.46 777.8
13 -1 6 653.27 858.99
-13 -1 -6 260.44 310.13
-13 1 -6 75.02 318.63
-13 -1 -6 363.52 267.31
-1 13 -6 391.51 274.21
1 13 -6 693.1 311.35
-13 -1 -6 555.37 400.24
-13 1 -6 138.9 373.95
1 13 6 331.15 275.27
-1 13 6 399.42 280.58
13 -1 -6 550.52 499.1
-13 -1 6 410.89 236.97
13 1 -7 291.29 426.28
13 1 7 357.77 867.81
13 -1 7 818.58 958.13
-13 1 -7 -8.84 284.75
-13 -1 -7 4.59 226.83
-1 13 -7 46.96 257.19
1 13 -7 159.83 256.68
-13 -1 -7 -102.3 370.88
-13 1 -7 -877.29 393.39
-13 -1 -7 -157.15 336.71
1 13 7 -58.97 237.62
-1 13 7 82.49 258.67
-13 -1 7 -195.94 221.06
13 -1 -7 -89.86 447.26
-13 1 7 -780.48 265.28
-13 -1 7 -212.17 223.8
-1 13 8 581.53 356.75
-13 -1 -8 -294.06 245.74
-1 13 -8 61.37 244.67
1 13 -8 -273.62 265.4
1 13 8 -8.13 246.33
-1 13 8 248.36 246.61
-13 1 8 -57.2 226.64
-13 -1 8 73.02 200.56
-1 13 9 132.63 316
-1 13 -9 -222.31 251.27
1 13 -9 -133.44 249.13
-13 -1 -9 -143.13 212.39
-1 13 -9 -167.5 322.29
1 13 9 -40.62 210.55
-1 13 9 -72.44 230.68
-13 1 9 -190.27 209.48
-13 -1 9 90.34 191.08
-1 13 10 594.08 299.31
-1 13 -10 -487.21 313.17
-1 13 -10 -49.32 224.66
1 13 -10 -348.53 251.08
-13 -1 -10 344.34 208.72
1 13 10 -93.33 207.04
-1 13 10 -67.13 232.57
-13 1 10 -275.28 190.91
-13 -1 10 905.12 236.93
-1 13 -11 -167.54 218.33
1 13 -11 -208.01 268.24
-1 13 11 268.99 232.02
1 13 11 703.04 297.83
-1 13 -11 92.41 256.88
1 13 -11 -741.41 244.94
-13 -1 -11 -27.46 172.98
1 13 11 216.78 214.65
-1 13 11 -137.36 214.32
-13 -1 11 -87.4 173.94
-1 13 -12 -40.16 225.86
1 13 -12 -131.16 225.37
-13 -1 -12 366.72 174.77
1 13 12 368.98 201.02
1 13 12 373.1 197.69
-1 13 12 230.83 202.19
13 -1 -12 -3.31 177.17
13 1 -12 -20.08 195.94
-1 13 -13 182.96 176.67
1 13 -13 -75.07 183.79
1 13 13 72.98 134.14
-1 13 13 -132.98 142.03
-13 1 13 158.19 141.5
13 -1 -13 12.51 141.65
13 1 -13 0.72 140.73
-13 -2 0 -10.3 261.33
-13 2 0 373.1 307.66
-2 13 0 93.87 254.16
13 -2 0 221.86 366.64
-13 2 0 265.21 267.54
13 2 0 542.46 369.4
-13 2 1 801.8 325.35
-2 13 1 508.64 292.77
-13 -2 -1 500.57 296.18
13 2 1 388.15 313.22
13 -2 -1 411.08 399.34
-13 -2 1 401.48 278.52
-13 -2 1 417.95 216.6
-13 2 -1 655.55 328.18
-2 13 -1 576.83 265.5
-13 -2 1 30.85 330.09
13 2 -1 386.7 357.9
-13 -2 -1 733.7 270.45
2 13 1 586.59 248.2
-13 2 -1 854.48 334.7
-13 2 1 723.58 289.5
13 2 -2 541.18 413.73
13 -2 -2 454.47 443.1
-13 -2 2 526.61 233.74
-13 2 2 656.2 327.38
-13 -2 -2 322.26 276.42
-2 13 -2 762.95 279.98
-13 2 -2 503.16 303.51
-2 13 2 660.24 317.76
-13 -2 -2 804.32 259.99
-13 2 -2 403.76 233.97
-2 13 -2 555.35 226.5
-13 -2 -2 753.55 306.9
2 13 -2 346.12 224.14
2 13 2 659.65 241.64
-13 2 -2 401.31 306.69
13 2 2 917.32 365.18
-2 13 2 409.85 219.22
-2 -13 3 1664.75 335.27
-2 13 3 1340.83 373.06
-13 -2 3 2048.52 328.97
13 2 -3 1688.16 536.92
-2 13 -3 1509.09 332.93
-13 -2 -3 1207.91 368.74
-13 2 -3 1564.77 343.71
-13 2 -3 1423.57 377.4
-2 13 -3 934.83 312.12
-13 -2 -3 1304.4 285.8
-13 -2 -3 1081.4 345.27
-2 13 -3 1585.94 285.05
-13 2 3 1343.83 352.69
2 13 -3 1367.6 297.37
-13 2 -3 1278.01 371.59
2 13 3 1302.89 300.28
-2 13 3 1431.34 283.47
13 -2 -3 967.19 477.16
-2 -13 4 1534.55 354.52
-13 2 4 1091.62 247.98
-13 -2 4 1633.12 326
-2 13 4 1634.19 400.89
13 2 -4 1737.94 563.84
-2 13 -4 1555.04 350.35
-13 -2 -4 1511.39 435.45
-13 2 -4 1025.61 350.27
-13 2 -4 1522.44 395.96
-2 13 -4 1248.26 360.98
-13 -2 -4 1325.46 301.17
13 -2 4 1438.76 773.39
-13 -2 -4 1162.63 373.21
-2 13 -4 1999.16 330.13
2 13 -4 1999.44 338.84
-13 2 -4 1694.14 456.57
2 13 4 1745.58 328.11
-2 13 4 1715.61 316.77
13 -2 -4 1064.21 550.67
-2 -13 5 461.43 333.89
-13 2 5 52.68 212.69
-13 -2 5 640.62 273.97
-13 -2 -5 363.24 331.27
-2 13 -5 -198.18 314.13
13 2 -5 345.89 417.65
-13 -2 -5 188.29 250.39
13 2 5 43.83 734.1
-13 2 -5 -5.97 312.37
-2 13 5 371.53 352.37
-2 13 -5 -597.94 410.65
-13 2 -5 195.24 306.73
13 -2 5 -190.21 798.72
-2 13 -5 535.26 264.92
-13 -2 -5 590.29 367.24
2 13 -5 377.67 246.81
-13 2 -5 619.02 398.31
2 13 5 632.79 270.8
-2 13 5 428.12 265.01
13 -2 -5 152.59 483.26
-13 -2 5 659.17 242.5
-13 -2 6 -174.25 245.72
13 2 -6 134.67 438.87
-2 13 -6 -208.14 300.19
13 2 6 -492.06 805.7
13 -2 6 -421.34 888.55
-13 2 -6 -449.47 323.97
-13 -2 -6 -175.22 290.15
-2 13 6 -308.68 393.66
-2 13 -6 -1062.94 432.16
-13 2 -6 198.78 339.71
-13 -2 -6 408.65 284.3
-2 13 -6 260.76 273.19
-13 -2 -6 524.66 352.01
2 13 -6 168.29 295.11
-13 2 -6 -383.06 435.57
2 13 6 23.47 238.1
-2 13 6 353.37 249.11
13 -2 -6 -124.58 552.12
-13 -2 6 140.61 214.62
-13 2 6 -132.09 228.84
-13 2 -7 -274.84 324.38
13 2 7 -413.42 710.71
-2 13 7 -73.58 348.74
-13 -2 -7 -52.77 239.24
-2 13 -7 301.63 248.79
-13 2 -7 21.35 327.22
2 13 -7 320 267.51
2 13 7 303.02 244.72
-2 13 7 242.94 245.26
-13 -2 7 141.38 240.61
-13 -2 7 390.3 228.04
-2 13 -8 -96.76 368.83
-2 13 -8 -547.29 263.83
-2 13 8 195.03 307.24
-13 -2 -8 -251.03 230.5
2 13 -8 -188.61 261.91
2 13 8 -137.99 227.93
-2 13 8 231.54 228.79
-13 2 8 -42.59 175.5
-13 -2 8 243.1 214.38
-13 -2 8 -453.97 261.87
-2 13 -9 -120.19 351.59
-2 13 9 279.76 277.24
-2 13 -9 380.77 250.09
2 13 -9 -108.7 255.69
-13 -2 -9 -26.15 214.03
2 13 9 241.24 240.7
-2 13 9 402.85 269.66
-13 2 9 304.4 202
-13 -2 9 171.13 188.07
-2 13 -10 -39.77 289.23
-2 13 -10 -154.09 235.11
2 13 -10 304.62 241.93
-13 -2 -10 34.36 205.92
-2 13 10 78.63 237.83
2 13 10 61.1 220.64
-2 13 10 112.96 211.37
-13 -2 10 128.12 183.94
-2 13 -11 -375.94 212.9
2 13 -11 -275.63 226.32
-13 -2 -11 414.9 208.17
-2 13 -11 -14.71 246.4
2 13 11 0.94 189.52
-2 13 11 331.09 221.55
-13 -2 11 69.55 171.3
13 -2 -11 -0.17 194.81
2 13 -12 -141.94 250.71
2 13 12 331.21 213.86
-2 13 -12 489.64 219.85
-13 -2 -12 154.61 162.96
2 13 12 37.99 159.69
-2 13 12 180.78 174.84
13 -2 -12 1.13 152.94
-13 -2 -13 52.74 114.51
-2 13 -13 336.39 176.16
2 13 -13 166.78 186.14
2 13 13 132.7 129.78
-2 13 13 -6.46 139.8
-13 2 13 171.23 140.06
13 -2 -13 3.42 123.42
13 2 -13 -2.51 146.88
-3 13 0 3670.1 409.02
-13 3 0 4072.2 447.89
-13 3 0 3946.27 519.22
3 13 0 3293.03 369.19
-3 -13 0 3439.3 367.77
-13 -3 0 4003.84 389.33
13 3 0 3126.58 533.2
-13 -3 0 3772.6 546.56
-3 -13 1 1082.36 288.7
13 -3 -1 613.39 387.62
-13 -3 1 1556.32 426.36
-13 3 -1 691.27 318.72
-13 -3 -1 374.44 306.27
-3 13 -1 531.73 296.63
-3 13 1 691 301.05
-13 3 1 862.83 341.39
3 13 1 631.78 319.7
-13 -3 -1 661.51 232.83
13 3 1 428.82 337.38
-13 -3 1 936.11 247.44
3 13 1 714.19 246.56
13 3 -1 371.28 376.04
-13 3 -1 497.54 303.75
-13 3 1 294.47 266.08
-3 13 2 91.73 282.39
-3 -13 2 136.05 217.56
-13 -3 2 1002.01 396.93
-13 -3 2 368.27 227.89
-13 -3 -2 391.44 319.44
-13 3 -2 306.68 310.42
13 3 -2 802.11 416.72
-3 13 -2 320.82 298.07
-13 -3 -2 728.97 251.57
-13 -3 -2 312 286.61
-3 13 -2 395.96 230.86
-13 3 2 801.03 324.05
3 13 2 418.07 242.77
-13 3 -2 371.75 311.95
-3 13 2 402.21 198.53
-13 3 2 304.53 262.35
13 3 2 539.34 371.51
13 -3 -2 276.76 401.65
-3 13 3 199.82 315.85
-3 -13 3 -92.64 258.11
-13 -3 3 270.96 243.37
-3 13 -3 130.77 272.49
-13 -3 -3 -105.31 315.75
-13 3 3 50.07 310.79
13 3 -3 -186.86 395.8
-13 3 -3 7.95 235.57
-13 -3 -3 268.86 223.56
-13 3 -3 -312.3 342.45
-13 -3 -3 380.84 291.57
-3 13 -3 132.45 210.76
3 13 -3 -90.59 242.48
-3 13 -3 -221.38 329.39
-13 3 -3 91.16 311.43
3 13 3 -808.62 272.63
-3 13 3 -115.69 218.33
13 -3 -3 -476.77 497.21
-3 -13 4 -111.79 281.22
-13 -3 4 739.67 277.56
13 -3 4 -163.87 732
-3 13 -4 534.84 298.05
-13 -3 -4 104.63 289.48
13 3 -4 701.29 551.97
-3 13 4 -227.04 328.51
-3 13 -4 -218 367.02
-13 3 -4 188.18 285
-13 -3 -4 598.18 258.31
-13 -3 -4 68.4 293.12
-3 13 -4 68.03 211.57
3 13 -4 -104.08 255.72
-13 3 -4 -333.99 343.15
-13 3 -4 -27.68 331.04
3 13 4 25.99 234.96
-3 13 4 304.76 249.65
13 -3 -4 861.7 629.73
-3 -13 5 -198.45 287.33
-3 13 5 -22.61 320.54
-13 -3 5 216.93 263.89
13 3 5 -65.11 708.29
-3 13 -5 -404.06 337.24
13 -3 5 -327.56 787.31
13 3 -5 55.97 435.77
-13 -3 -5 486.13 320.01
-13 3 -5 -567.81 361.77
-13 -3 -5 119.79 243.79
-13 3 -5 -43.25 341.6
-3 13 -5 -715.04 400.11
-13 -3 -5 183.53 342.95
-3 13 -5 204.7 253.32
3 13 -5 252.3 260.45
-13 3 -5 -560.35 370.08
3 13 5 -66.88 251.74
-3 13 5 391.33 257.45
13 -3 -5 638.76 595.07
-13 -3 5 388.11 238.19
-13 -3 6 1475.11 343.76
-3 13 -6 -816.53 415.61
-13 3 -6 -386.11 350.18
-3 13 -6 71.2 308.6
13 3 -6 403.06 438.48
13 -3 6 794.82 960.3
-13 -3 -6 70.67 320.82
-3 13 6 -248.45 339.44
-13 -3 -6 274.45 254.54
-3 13 -6 391.69 264.21
-13 3 -6 -115.71 313.87
-13 -3 -6 260.93 342.81
13 3 6 -912.83 790.18
3 13 -6 289.79 268.47
-13 3 -6 -63.79 330.3
3 13 6 295.65 269.31
-3 13 6 37.81 228.95
13 -3 -6 -536.73 546.85
-13 -3 6 -10.49 219.53
-3 -13 6 -40.86 286.04
-13 -3 7 -88.86 237.62
-3 13 -7 660.68 327.53
-3 13 7 -8.62 342.5
-3 13 -7 -7.53 372.39
-13 -3 -7 161.01 251.83
-3 13 -7 -81.8 242.1
3 13 -7 349.19 281.72
-13 3 -7 -698.03 346.52
3 13 7 66.68 236.72
-3 13 7 59.13 243.91
-13 -3 7 335.21 226.84
-3 -13 7 47.27 273.2
-3 13 8 249.59 296.08
-13 3 -8 173.33 255.33
-3 13 -8 -121.93 333
-3 13 -8 -80.09 231.49
-13 -3 -8 -34.27 217.9
3 13 -8 -188.58 260.52
3 13 8 -22.94 229.02
-3 13 8 82.98 225.96
-13 -3 8 -69.73 200.17
-13 -3 8 -595.4 252.45
-3 -13 8 135.38 250.06
-13 -3 -9 -331.42 231.16
-3 13 -9 46.45 308.99
-3 13 -9 -46.51 221.72
3 13 -9 -298.63 263.77
-3 13 9 266.7 268.05
3 13 9 -79.23 233.18
-3 13 9 -64.46 230.79
-13 -3 9 -66.99 194.12
-3 13 10 185.89 238.31
-3 13 -10 60.84 211.51
3 13 -10 273.19 240.75
-13 -3 -10 106.26 207.77
-3 -13 -10 4.37 228.37
-3 13 -10 197.39 305.62
3 13 10 226.15 224.4
-3 13 10 491.87 256.69
-13 -3 10 199.08 203.6
-3 13 -11 387.1 274.46
3 13 -11 -9.91 194.09
-13 -3 -11 310.56 205.39
-3 -13 -11 24.1 199.39
3 13 11 -257.87 205.73
-3 13 11 -35.31 193.19
-13 -3 11 0.35 169.7
13 -3 -11 -4.07 200.21
3 13 -12 -82.92 241.5
3 13 12 42.1 209.07
-3 13 -12 322.29 213.11
-13 -3 -12 137.19 164.5
3 13 12 -160.23 160.33
-3 13 12 84.36 168.59
-13 3 12 -68.84 156.01
-13 -3 12 -311.25 164.89
13 -3 -12 2.86 152.4
-3 13 -13 -32.64 165.6
3 13 -13 -251.69 185.99
-13 -3 -13 -87.97 114.83
3 13 13 89.17 117.43
-3 13 13 38.45 132.24
-13 3 13 196.63 142.53
13 -3 -13 14.08 126.63
13 3 -13 -6.65 142.99
-4 -13 0 134.85 199.6
13 4 0 -367.72 369.64
-13 -4 0 -42.24 311.44
-13 -4 0 -0.36 211.85
-13 4 0 29.85 297.99
-4 13 0 -102.17 294.28
-13 4 0 364.4 314.87
-4 -13 1 494.71 235.06
-13 4 1 1076.96 372.11
-13 -4 1 946.69 416.59
-13 -4 -1 690.86 359.23
-13 -4 1 792.38 259.95
-4 13 -1 185.98 271.15
-13 -4 -1 494.24 243.78
-13 4 -1 417.52 303.7
4 13 1 301.44 320.24
13 4 1 910.69 379.09
-4 13 -1 650.7 231.42
4 13 1 311.54 247.32
-13 4 -1 927.56 351.77
-13 4 1 412.27 308.13
13 4 -1 680.92 395.12
-4 13 1 966.58 320.88
-4 -13 2 155.68 221.92
13 4 2 83.22 315.75
-13 4 2 681.66 334.15
-4 13 2 231.96 303.14
-13 -4 2 400.07 237.28
-13 -4 -2 42.02 291.81
-4 13 -2 3.55 267.72
-13 4 -2 139.43 300.5
-13 -4 -2 -141.89 217.44
-13 -4 -2 285.43 258.56
-4 13 -2 -94.9 203.05
13 4 -2 207.28 387.54
4 13 2 147.95 206.41
-13 4 -2 228.63 340.14
-13 4 2 220.76 308.59
13 -4 -2 567.02 461.14
-4 -13 3 369.43 243.35
-4 13 -3 619.7 320.19
-13 -4 3 348.2 243.79
-13 -4 -3 190.77 312.66
-4 13 -3 239.65 291.46
-13 4 3 270.9 329.4
-4 13 3 393.34 327
13 4 3 835.75 388.64
-13 -4 -3 397.88 235.64
13 4 -3 549.75 447.83
-13 -4 -3 791.37 337.76
-13 4 -3 172.12 337.43
-4 13 -3 523.7 248.82
4 13 -3 362.98 235.58
4 13 3 439.7 256.88
-13 4 -3 209.66 313.52
-4 13 3 59.41 218.07
13 -4 -3 1014.1 539.99
-4 -13 4 157.96 272.96
-13 -4 4 1175.74 308.52
13 -4 4 475.45 646.97
-4 13 -4 1114.82 338.11
-13 -4 -4 183.96 327.52
-13 4 4 -173.48 349.61
-4 13 4 548.84 262.24
-13 4 -4 29.99 327.19
-4 13 -4 627.22 334.41
13 4 -4 1324.35 521.47
-13 -4 -4 423.84 254.34
-4 13 4 681.15 348.98
-13 -4 -4 274.43 313.18
-4 13 -4 985.26 270.29
4 13 -4 605.32 274.34
-13 4 -4 774.3 378.07
4 13 4 309.5 229.45
13 -4 -4 55.11 514.17
-13 -4 4 808.96 266.57
-4 -13 5 146.03 293.9
-13 -4 5 169.69 258.36
13 4 5 -218.58 621.55
-13 -4 -5 49 310.2
-4 13 -5 -624.16 355.91
13 -4 5 -72.02 809.63
-13 4 -5 618.86 349.54
-4 13 5 160.46 319.71
-4 13 -5 -248.38 365
-13 -4 -5 330.2 279.31
-13 -4 -5 123.34 297.97
-4 13 -5 348.04 255.54
-13 4 -5 -323.85 324.12
4 13 -5 142.39 272.82
13 4 -5 -4.06 409.33
-13 4 -5 103.94 346.07
4 13 5 -43.24 247.17
-4 13 5 203.36 272.17
13 -4 -5 247.93 542.81
-13 -4 5 -22.82 229.78
-4 -13 6 257.45 313.01
-13 -4 6 -111.28 257.48
13 4 -6 272.3 496.15
-13 -4 -6 -93.5 296.64
-4 13 -6 -697.45 406.34
-4 13 -6 -129.98 311.06
13 -4 6 -573.99 824.89
13 4 6 62.19 627.09
-4 13 6 -234.73 339.21
-13 4 -6 179.66 317.08
-13 -4 -6 55.35 234.25
-4 13 -6 -168.86 248.97
-13 -4 -6 -523.33 376.83
4 13 -6 593.66 310.52
-13 4 -6 -278.36 309.47
-13 4 -6 -530.21 434.16
4 13 6 176.46 248.13
13 -4 -6 -1090.9 599.82
-4 13 6 -144.84 235.6
-13 -4 6 31.01 220.87
-13 -4 7 -133.17 246.46
-4 13 -7 790.3 366.93
-4 13 7 -219.45 298.9
-4 13 -7 -265.5 362.49
-13 -4 -7 105.84 231.62
-4 13 -7 -61.46 219.87
4 13 -7 140.65 259.93
-13 4 -7 393.22 298.8
4 13 7 397.11 258.13
-4 13 7 1013.81 303.69
-13 -4 7 -68.71 209.77
-4 -13 7 154.81 298.79
-4 13 -8 237.42 306.17
-13 4 -8 -534.33 305
-4 13 8 226.69 275.1
-4 13 -8 -88.69 330.85
-4 13 -8 -110.51 229.21
-13 -4 -8 -28.21 224.65
4 13 -8 -4.24 234.3
-4 -13 -8 167.53 228.33
4 13 8 -328.47 253.92
-4 13 8 -6.9 236.94
-13 -4 8 111.98 213.47
-4 -13 8 -124 278.29
-13 -4 8 -199.53 249.37
-4 13 9 312.66 242.04
-4 13 -9 -3.77 324.37
-4 13 -9 66.96 218.46
4 13 -9 -305.3 252.75
-13 -4 -9 104.31 213.48
-4 -13 -9 377.18 247.22
4 13 9 -175.63 226.33
-4 13 9 270.32 259.09
-13 -4 9 56.26 199.79
-4 -13 9 273.42 289.64
-4 13 -10 587.89 314.77
4 13 -10 -154.22 208.54
-13 -4 -10 393.12 219.93
-4 -13 -10 29.61 231.91
4 13 10 82.87 199.11
-4 13 10 262.05 226.93
-13 -4 10 119.63 196.43
-4 -13 10 133.88 245.25
13 -4 -10 -10.6 222.19
-4 13 -11 150.82 248.34
4 13 -11 -330.08 225.89
-13 -4 -11 -6.33 169.03
-4 -13 -11 -1.74 185.8
4 13 11 -109.29 180.27
-4 13 11 100.06 191.33
-13 -4 11 42.48 180.31
13 -4 -11 -12.56 166.06
-4 13 -12 304.71 222.01
4 13 -12 -369.32 251.75
-13 -4 -12 52.53 146.77
-4 -13 -12 5.82 151.87
4 13 12 117.34 141.97
-4 13 12 -7.31 174.13
-13 4 12 -90.72 153.91
-13 -4 12 -3.22 148.95
13 -4 -12 -6.99 144.79
-4 13 -13 -226.28 161.35
4 13 -13 -117.83 174.01
-13 -4 -13 -24.78 114.39
4 13 13 -30.36 130.98
-4 13 13 185.15 142.64
-13 4 13 149.35 133.58
13 4 -13 -80.28 139.12
-5 -13 0 938.26 258.95
-13 -5 0 1070.8 429.28
-13 5 0 1104.82 349.21
-13 -5 0 944.05 278.78
13 5 0 1223.54 427.11
-5 13 0 1011.29 334.48
-13 5 0 825.29 367.5
13 5 -1 510.59 358.69
-5 -13 1 732.33 254.24
-13 -5 -1 684.03 394.86
-13 -5 1 714.77 240.08
-5 13 1 -264.56 326.7
-5 13 -1 266.69 266.86
-13 -5 -1 272.36 214.22
-13 5 -1 558.27 325.21
5 13 1 -73.76 260.09
13 5 1 700.86 396.35
-13 5 -1 297.25 314.58
-13 5 1 135.21 296.57
-13 -5 1 354.46 400.18
-13 5 1 874.15 340.92
-5 -13 2 -24.44 208.72
-13 5 -2 415.86 294.98
-13 -5 2 -26.85 206.37
-13 -5 -2 300.09 360.36
13 5 2 305.83 325.55
-5 13 -2 -17.99 272.62
-5 13 -2 458.02 310.58
-13 5 2 353.44 316.15
-13 -5 -2 -123.81 212.16
-13 5 -2 -213.71 345.92
-5 13 -2 126.32 217.27
-5 13 2 484.08 330.87
5 13 2 -742.48 265.71
-13 5 -2 -485.25 331.76
13 5 -2 -34.98 397.07
13 -5 -2 -733.8 526.59
-13 5 2 -188.05 301.28
-13 -5 3 754.58 241.25
-5 13 3 119.66 291.16
-5 -13 3 -27.12 226.65
-13 5 -3 1084.99 370.59
-13 -5 3 53.43 224.95
13 -5 3 381.25 528
-13 -5 -3 -290.45 394.34
-5 13 -3 156.27 278.61
-13 5 3 115.48 299.84
-13 -5 -3 149.2 230.25
-5 13 -3 388.82 326.94
-13 5 -3 -534.44 349.72
-13 -5 -3 138.62 274.46
-5 13 -3 142.91 217.94
5 13 -3 185.62 241.9
5 13 3 339.91 238.36
13 5 -3 135.31 357
-5 13 3 89.75 217.34
-13 5 -3 18.49 315.35
13 -5 -3 -136.51 490.53
-13 5 3 837.84 390.11
-5 13 -3 760.22 395.78
-5 -13 -3 945.03 468.19
13 5 3 133.62 339.82
-5 -13 4 608.33 273.97
13 -5 -4 1207.08 691.37
-13 -5 4 617.43 262.45
-5 -13 -4 1016.76 455.66
-5 13 -4 278.61 315.87
13 -5 4 277.86 602.24
-13 5 -4 1029.42 370.4
-13 -5 -4 409.94 331.72
-5 13 -4 1086.17 363.54
-13 -5 -4 484.77 264.85
-13 -5 -4 548.33 359.99
-5 13 -4 466.33 258.69
-5 13 4 709.58 346.2
13 5 -4 341.09 412.63
-13 5 4 403.1 339.26
5 13 -4 891.87 290.94
5 13 4 773.93 289.54
-13 5 -4 358.9 353.41
-5 13 4 603.96 258.31
-5 13 -4 878.64 390.8
-13 -5 4 1023.6 290.29
-5 -13 5 962.83 314.19
-13 -5 5 647.96 278.94
13 5 -5 1232.81 523.16
13 5 5 875.82 687.8
-5 13 -5 265.61 305.56
13 -5 5 772.14 714.54
-5 13 5 570.3 346.92
-13 -5 -5 219.52 371.63
-13 5 -5 1406.2 394.97
-13 -5 -5 729.27 268.51
-13 -5 -5 561.27 350.8
-5 13 -5 744.71 266.76
-5 13 -5 1243.89 396.27
5 13 -5 509.07 272.97
5 13 5 493.4 271.37
13 -5 -5 978.59 658.11
-13 5 -5 491.84 370.54
-5 13 5 1068.25 308.67
-13 -5 5 715.48 276.64
-5 -13 6 858.87 317.09
-13 -5 6 642.43 279.36
-5 13 -6 856.94 348.37
13 5 6 633.34 674.97
13 -5 6 1075.38 840.9
-13 -5 -6 522.33 346.9
-5 13 -6 948.29 379.9
-5 13 6 744.03 337.27
13 5 -6 754.16 473.49
-13 -5 -6 778.96 312.17
-5 13 -6 651.19 259.53
-13 -5 -6 1092.62 410.51
5 13 -6 1096.25 324.19
-13 5 -6 1100.09 349.48
13 -5 -6 857.09 668.89
5 13 6 569.6 254.95
-13 5 -6 787.56 374.46
-5 13 6 807.01 287.53
-13 -5 6 970.07 288.11
-13 -5 7 1598.2 324.62
-13 5 -7 1614.76 366.81
-5 13 -7 2525.32 411.86
-5 13 7 886.72 314.02
-13 -5 -7 2418 370.67
-5 13 -7 2383.03 443.1
-5 13 -7 1433.29 293.2
-5 -13 -7 1375.5 309.02
5 13 -7 1867.91 342.72
5 13 7 1220.8 295.14
-5 13 7 1676.16 347.12
-13 -5 7 1466.38 305.87
-5 -13 7 2187.71 405.24
-5 13 -8 1563.69 349.23
-5 13 -8 895.09 369.1
-13 5 -8 821.04 311.52
-5 13 -8 1032.72 282.14
-13 -5 -8 809.5 265.94
-5 13 8 98.86 256.64
5 13 -8 798.97 272.3
-5 -13 -8 706.85 258.65
5 13 8 611.94 249.23
-5 13 8 1090.03 310.91
-13 -5 8 866.71 266.47
-5 -13 8 933.85 317.91
-13 -5 8 434.5 225.05
-13 5 -9 -296.52 266.27
-5 13 -9 -15.89 318.26
-5 13 -9 125.26 195.53
5 13 -9 72.28 216.67
-13 -5 -9 441.35 237.94
-5 -13 -9 149.9 219.72
5 13 9 -206.47 227.01
-5 13 9 -22.63 218.06
-13 -5 9 418.69 231.71
-5 -13 9 160.23 244.89
5 13 -10 -202.52 210.5
-5 13 -10 109.85 272.57
-5 13 -10 -243.15 202.51
-13 -5 -10 260.03 212.27
-5 -13 -10 -3.1 211.3
5 13 10 -116.11 203.44
-5 13 10 273.11 237.24
-13 -5 10 130.43 189.01
13 -5 -10 -37.47 271.79
-5 -13 10 182.81 232.57
-5 13 -11 101.72 233.3
5 13 -11 -155.81 175.28
-13 -5 -11 187.55 193.91
-5 -13 -11 1.86 185.29
5 13 11 7.24 163.13
-5 13 11 179.29 197.96
-13 5 11 -126.72 176.66
13 -5 -11 -0.54 162.72
-13 -5 11 -105.9 167.12
-5 -13 11 -0.55 199.67
-13 -5 -12 15.16 139.39
-5 13 -12 -27.05 197.34
-5 -13 -12 0.58 151.72
5 13 12 -161.41 144.6
-5 13 12 71.02 159.09
-13 5 12 49.93 141.97
-13 -5 12 8.59 137.11
-5 13 -13 -292.26 160.17
5 13 13 181.48 140.97
5 13 -13 -184.36 170.45
-13 -5 -13 194.83 124.71
-5 13 13 98.13 127.13
-13 5 13 166.31 121.08
13 5 -13 16.82 131.63
-6 -13 0 -481.35 220.97
-13 -6 0 -53.34 372.94
-13 -6 0 304.3 232.5
-6 13 0 -86.93 271.01
-13 6 0 -456.58 336.55
13 6 0 185.47 355.64
-13 6 0 -538.29 342.51
13 6 1 -446.61 371.32
-13 6 1 3.69 305.05
-13 -6 1 -147.83 191.91
-6 -13 1 107.8 218.02
-6 -13 -1 24.67 205.6
-13 6 -1 616.16 319.04
-13 -6 -1 202.53 368.6
13 6 -1 401.22 377.63
-13 -6 1 -16.82 205.42
-13 6 -1 -209.41 328.17
-6 13 -1 40.72 271.1
-13 -6 -1 330.49 253.05
-6 13 1 -94.02 307.12
-13 -6 -1 -426.24 244.22
-13 6 -1 230.88 324.67
-13 6 1 -328.34 348.6
-13 -6 2 785.17 264.09
13 6 -2 261.33 385.03
-6 -13 2 540.2 235.84
-13 6 -2 592.53 312.85
-13 -6 2 425.26 248.59
-13 -6 -2 865.36 429.26
-13 6 2 1217.99 359.1
13 -6 2 288.62 395.71
-6 13 2 318.45 296.38
-6 13 -2 525.27 298.79
-6 13 -2 689.55 301.78
-13 -6 -2 489 252.59
-13 6 -2 -170.54 334.91
6 13 2 127.15 232.48
13 6 2 57.65 356.29
-13 6 -2 428.42 345.74
-13 6 2 510.19 350.9
-6 13 -2 1281.75 461.44
-13 -6 3 -111.8 233.03
-6 -13 3 109.24 230.29
13 6 3 -102.62 359.64
6 13 -3 90.28 375.15
-13 6 3 106.8 299.59
-13 6 -3 234.39 316.05
-13 -6 3 303.05 215.74
13 -6 3 -89.04 460.81
-6 13 -3 -30.23 268.26
-6 13 3 -166.6 295.13
-6 13 -3 438.66 346.06
-13 -6 -3 71.33 219.39
-6 13 -3 537.62 251.44
-13 -6 -3 -44.59 350.41
6 13 -3 89.32 247.81
-13 6 -3 444.47 316.35
6 13 3 -552.63 270.96
13 -6 -3 -13.85 561.14
-13 6 -3 -415.96 371.27
13 6 -3 472.02 451.12
-6 13 -3 422.45 364.25
-13 6 3 335.16 340.72
-6 -13 -3 869.98 500.58
-6 -13 4 -113.95 236.56
-13 -6 4 49.63 231.04
-13 6 -4 444.77 359.2
-13 6 -4 700.85 356.43
-6 -13 -4 648.3 404.87
-6 13 -4 -607.4 345.45
13 -6 4 244.64 586.24
-13 -6 -4 -413.17 381.79
6 13 -4 341.88 357.53
-13 6 4 -187.59 334.07
-6 13 4 202.51 327.51
-6 13 -4 46.59 322.4
-13 -6 -4 112.54 223.23
-13 -6 -4 -23.4 287.74
-6 13 -4 73.29 221.79
6 13 -4 153.89 240.83
6 13 4 -38.61 237.9
13 -6 -4 -182.67 577.61
-6 13 4 58.81 233.71
-13 6 -4 294.93 336.23
13 6 -4 -67.05 415.41
-6 13 -4 -56.13 337.43
-13 -6 4 101.59 220.08
-6 -13 5 -56.26 263.25
-13 -6 5 304 272.6
13 -6 5 118.2 644.68
-6 13 -5 -354.46 330.68
-13 6 -5 -41.43 327.53
13 6 5 85.2 556.06
-13 -6 -5 -107.44 310.18
-6 13 5 366.28 322.04
-6 13 -5 657.22 354.93
-13 -6 -5 209.28 265.48
-13 -6 -5 631.37 365.85
-6 13 -5 197.76 225.75
6 13 -5 -56.45 239
-13 6 -5 1074.6 368.14
13 -6 -5 49.59 613.11
6 13 5 347.05 235.55
13 6 -5 -183.17 437.15
-6 13 5 87.22 255.58
-13 -6 5 150.18 226.32
-6 -13 6 -99.4 250.22
-13 -6 6 -271.51 262.73
-13 6 -6 646.21 335.49
-6 13 -6 238.82 287.88
-6 13 6 51.61 286.57
-6 13 -6 142.95 325.69
-13 -6 -6 295.88 260.67
-6 13 -6 239.86 209
-6 -13 -6 -157.82 221.2
6 13 -6 401.54 253.93
6 13 6 451.91 264.2
-6 13 6 210.87 250.48
-13 -6 6 177.57 222.44
-13 -6 7 -30.46 222.53
-6 13 -7 875.91 324.09
-6 13 7 129.9 243.85
-6 13 -7 164.59 318.93
-6 13 -7 130.69 209.93
-13 -6 -7 178.52 241.42
-6 -13 -7 -124.13 212.53
6 13 -7 68.26 221.28
-13 6 -7 729.66 306.53
6 13 7 308.94 227.19
-6 13 7 198.05 236.55
-13 -6 7 -157.95 202.74
-6 -13 7 237.7 256.69
-6 13 -8 350.68 271.55
-6 13 -8 345.46 334.82
-6 13 -8 119.36 205.14
-13 -6 -8 586.13 268.83
6 13 -8 411.24 224.11
-6 -13 -8 -56.2 202.58
-13 6 -8 168.06 253.93
6 13 8 347.18 225.78
-6 13 8 657.4 293.09
-13 -6 8 137.41 215.49
-6 -13 8 398.74 257.14
-13 -6 8 -22.88 211.07
-6 13 -9 212.89 297.61
-6 13 -9 -105.56 207.25
6 13 -9 -109.85 211.65
-13 -6 -9 156.21 219.67
-6 -13 -9 -105.68 214
-13 6 -9 540.92 267.78
6 13 9 54.63 191.54
-6 13 9 150.29 209.94
-13 6 9 76.5 183.76
-13 -6 9 101.19 188.37
-6 -13 9 -132.91 256.57
6 13 -10 -365.66 197.35
-13 6 -10 -150.38 225.62
-6 13 -10 213.5 279.16
-13 -6 -10 346.91 210.17
-6 -13 -10 -20.88 220.93
6 13 10 -371.71 204.27
-6 13 10 310.22 231.82
-13 6 10 -137.38 174.9
-13 -6 10 -59.52 176.69
-6 -13 10 137.96 226.24
-6 13 -11 -306.36 247.87
-13 -6 -11 497.51 196.48
-6 -13 -11 11.68 176.07
6 13 11 -110.49 170.99
-6 13 11 179.09 196.01
-13 6 11 -19.21 161.47
-13 -6 11 -27.52 166.81
-6 -13 11 198.64 207.1
-6 13 -12 -210.89 192.91
-13 -6 -12 58.1 136.25
-6 -13 -12 6.17 150.56
-6 13 12 52.8 155.52
-13 6 12 110.16 146.4
-13 -6 12 84.73 132.83
-6 -13 12 -33 146.87
6 13 -13 -114.16 156.06
-13 -6 -13 25.81 99.06
-6 13 13 -36.73 120.41
13 6 -13 0.79 115.98
-13 -7 0 3467.39 606.36
-7 13 0 3959.01 456.76
-13 7 0 3407.52 449.96
-13 7 0 4373.04 612.8
13 7 0 4600.66 663.93
-13 -7 0 3638.86 376.68
-7 -13 0 4208 410.41
-13 -7 0 3820.55 399.16
-13 -7 1 1725.88 294.39
-7 -13 1 1968.18 319.97
-7 -13 -1 1778.79 305.38
-13 -7 -1 2399.13 552.05
-13 7 1 1244.72 365.63
-13 7 -1 1963.37 361.66
13 -7 1 785.68 390.56
-13 -7 1 1069.34 282.33
-7 13 -1 1410.33 349.03
-13 -7 -1 1784.96 334.07
-7 13 1 1189.84 340.94
13 7 1 1256 458.36
-13 7 -1 1313.76 370.08
-7 13 -1 1259.57 318.71
-13 -7 -1 1398.08 287.09
13 7 -1 1984.12 515.53
-13 7 -1 1140.16 405.77
-13 7 1 1837.17 453.48
-13 -7 2 946.23 274.05
-7 -13 2 742.98 261.23
7 13 -2 513.35 379.68
-13 7 -2 1295.24 346.81
-13 -7 2 572.63 245.84
-13 -7 -2 375.42 392.93
13 7 -2 460.29 419.61
13 -7 2 444.15 413.09
-7 13 -2 1015.41 345.03
13 7 2 1011.54 428.17
-13 7 -2 -269.03 360.44
-7 13 2 401.78 297.02
-13 7 2 435.06 344.91
-7 13 -2 317.12 303.38
-13 -7 -2 430.94 239.53
-13 7 -2 466.65 392.65
-13 7 2 1169.98 441.43
-7 13 -2 843.52 437.26
-13 -7 3 348.71 241.57
-7 -13 3 442.59 251.11
13 7 -3 464.44 438.37
-7 -13 -3 661.34 432.51
-13 -7 3 507.72 259.99
-13 7 -3 568.92 361.86
-13 -7 -3 1138.8 449.17
-7 13 -3 -304.44 339.5
13 -7 3 1160.92 614.39
7 13 -3 374.47 370.37
-7 13 3 221.33 315.87
-13 7 3 703.48 353.86
-13 7 -3 1250.11 389.9
-7 13 -3 -462.87 348.08
-13 -7 -3 297.67 248.2
7 13 -3 519.38 258.03
7 13 3 282.97 228.72
-13 7 -3 990.93 412.48
-7 13 -3 920.86 413.17
-13 -7 4 1859.79 343.92
-7 -13 4 1958.09 356.69
-13 -7 4 2154.74 371.57
-13 7 -4 2601.23 415.27
-7 -13 -4 1941.85 522.91
-7 13 -4 998.43 329.3
13 -7 4 699.15 591.64
-13 -7 -4 2104.75 487.1
-7 13 4 1419.57 361.18
-13 7 4 1869.31 406.88
-7 13 -4 2213.99 435.11
-13 -7 -4 1812.3 342.23
-7 -13 -4 1894.99 327.89
-7 13 -4 1763.86 303.65
7 13 -4 1626.3 501.28
7 13 -4 2252.78 353.69
-13 7 -4 2305.11 446.29
13 -7 -4 1624.95 678.58
7 13 4 1544.98 312.03
-13 7 -4 2356.67 531.93
-7 13 -4 1421.33 509.49
13 7 -4 2663.48 632.2
-7 13 -5 4982.41 429.97
-13 -7 -5 5040.21 695.68
-13 7 -5 5239.63 531.25
7 13 -5 4067.03 425.87
-7 13 -5 4469.76 475.18
-7 13 5 3832.21 459.29
13 -7 5 1913.8 649.07
-13 7 -5 4487.36 524.38
-7 13 -5 4321.69 507.57
-13 7 -5 4100.83 648.04
-13 -7 -5 3951.4 425.13
-7 -13 -5 4381.66 438.6
-13 -7 -5 4188.65 629.85
13 -7 -5 3190.1 818.45
7 13 5 3905.49 437.35
-7 13 5 4674.19 462.12
-13 -7 5 3997.66 447.67
-7 -13 5 4549.23 478.19
13 7 -5 4708.8 764.57
-13 -7 5 4560.5 460.88
-13 -7 -6 4534.47 451.47
-7 13 -6 4607.65 482.69
-7 13 6 4207.57 439.85
-13 7 -6 4586.41 496.88
-7 13 -6 4614.18 532.19
7 13 -6 4844.75 443.01
-7 -13 -6 4600.93 458.45
-7 13 -6 4070.61 405.43
7 13 6 4302.04 451.21
-7 13 6 4529.66 475.34
-13 -7 6 4436.08 450.58
-7 -13 6 4053.17 464.76
-13 -7 6 4224.78 451.06
-13 7 -7 1239.3 337.05
-13 -7 7 1389.83 311.22
-7 13 -7 1850.82 371.97
-7 13 -7 1532.25 395.42
-7 13 -7 1231.48 277.44
-13 -7 -7 1300.28 301.93
-7 -13 -7 1504.87 314.94
7 13 -7 1451.39 306.72
7 13 7 1329.21 296.52
-7 13 7 1885.15 353.1
-13 -7 7 1285.52 299.51
-7 -13 7 1559.35 350.64
-7 13 -8 1031.11 331.45
-7 13 -8 816.91 357.3
-7 13 -8 112.08 181.81
-13 -7 -8 745.08 272.9
7 13 -8 83.5 201.36
-7 -13 -8 319.24 223.83
7 13 8 474.74 249.05
-13 7 -8 614.64 290.58
-7 13 8 684.87 270.87
-13 7 8 229.78 186.72
-13 -7 8 306.53 217.48
-13 -7 8 111.07 209.28
-7 -13 8 542.76 269.11
-13 7 -9 477.31 277.81
-7 13 -9 436.57 316.4
-7 13 -9 -130.02 194.56
7 13 -9 490.28 208.23
-13 -7 -9 303.13 234.33
-7 -13 -9 -157.72 215.68
7 13 9 21.99 196.72
-7 13 9 107.08 213.42
-13 7 9 100.51 186.22
-13 -7 9 -67.71 192.07
-7 -13 9 1.19 231.43
-13 7 -10 -490.92 240.09
-7 13 -10 -68.88 260.84
-13 -7 -10 247.7 219.43
-7 -13 -10 3.46 203.99
7 13 10 110.75 171.11
-7 13 10 547.99 224.05
-13 7 10 -44.53 165.45
-13 -7 10 288.54 193.46
-7 -13 10 231.75 204.07
-7 13 -11 -332.04 231.27
-13 -7 -11 182.85 182.95
-7 -13 -11 -14.07 159.74
-7 13 11 167.32 186.53
-13 7 11 -78.88 150.96
-13 -7 11 -6.53 151.32
-7 -13 11 91.54 189.76
-7 13 -12 -157.93 174.15
-13 -7 -12 138.08 145.62
-7 -13 -12 -3.54 130.75
-7 13 12 -47.45 142.82
-13 7 12 157.85 137.2
-13 -7 12 120.75 140.31
-7 -13 12 482.44 158.84
13 7 -12 -52.55 162.52
7 13 -13 67.59 133.27
-13 -8 0 27.66 202.74
-8 -13 0 1163.16 289.09
13 8 0 -162.56 372.47
-13 8 0 558.66 297.08
-13 -8 0 29.99 214.52
-8 13 0 18.21 290.07
-13 8 0 -170.31 357.04
-13 8 0 294.43 376.43
-13 -8 0 154.46 378.51
-13 -8 1 -232.8 234.94
-13 -8 -1 7.59 192.57
-8 -13 1 83.16 203.67
-8 -13 -1 231.55 219.24
-13 -8 -1 -399.82 417.68
-13 8 -1 565.51 311.1
-13 -8 1 -259.4 222.5
-8 13 -1 110.52 295.92
-8 13 1 165.52 285.09
-13 -8 -1 254.18 245.02
-13 8 1 135.12 322.44
-13 8 -1 -568.49 376.15
-8 13 -1 -114.52 290.61
-13 -8 -1 -373 239.69
13 8 -1 162.25 364.24
13 8 1 299.14 397.21
-13 8 -1 -23.17 358.67
-13 8 1 101.77 393.37
-8 13 -1 321.54 408.03
-13 -8 2 151.01 223.57
-8 -13 2 272.34 222.06
-13 -8 -2 -147.6 196.84
-8 -13 -2 -28.49 209.35
-13 8 -2 1150.05 381.94
-13 -8 2 186.96 222.38
-13 -8 -2 224.23 392.63
13 8 2 121.08 383.87
-8 13 -2 431.57 295.26
-8 13 2 -276.38 333.67
-13 8 -2 -660.88 383.66
-8 13 -2 -167.49 336.8
13 8 -2 -18.53 398.39
-13 -8 -2 41.51 219.17
-13 8 2 -32.74 303.62
8 13 -2 -1012.39 282.49
-13 8 -2 -654.43 440.5
8 13 -2 -348.28 449.42
-8 13 -2 100.7 395.92
-13 8 2 56.19 335.35
-13 -8 3 369.86 254.78
-8 -13 3 177.54 221.4
-8 -13 -3 283.92 234.84
-13 8 -3 898.44 363.61
-13 -8 3 625.95 291.99
-8 -13 -3 394.51 385.22
-13 8 -3 367.31 321.13
-13 -8 -3 -201.78 332.15
-8 13 -3 -681.16 354.57
13 8 -3 607.11 465.47
-8 13 3 -0.22 303.58
-13 8 3 729.89 356.95
-8 13 -3 -267.63 325.56
-13 -8 -3 478.49 241.43
8 13 -3 25.69 240.18
8 13 -3 -29.32 395.31
-13 8 -3 971.27 447.01
-8 13 -3 93.19 356.53
-13 -8 4 669.46 263.39
-8 -13 4 775.03 267.58
-13 -8 4 1051.02 303.93
-13 8 -4 1298.64 355.44
13 8 -4 229.85 438.39
-8 -13 -4 1061.13 472.22
-8 13 -4 585.57 305.5
13 -8 4 928.01 579.83
-13 -8 -4 960.12 375.48
-8 13 4 762.27 320.01
-13 8 4 1117.07 374.73
8 13 -4 741.24 400.87
-13 8 -4 1432.48 389.8
-8 13 -4 -155.58 313.14
-13 -8 -4 709.19 270.53
8 13 -4 1157.3 303.48
8 13 4 182.07 261.8
-13 8 -4 1049.17 430.82
-8 13 -4 1290.41 462.96
-8 -13 -4 931.98 288.77
-8 -13 5 -40.76 227.82
-13 -8 5 13.28 219.92
-13 8 -5 472.21 317.11
-8 13 -5 -11.13 282.01
-8 13 5 -74.42 270.7
-8 13 -5 -574.45 370.2
-13 -8 -5 98.54 235.09
-8 -13 -5 141.01 223.99
-8 13 -5 -612.77 226.96
8 13 -5 241.2 251.47
8 13 5 -143.08 253.04
-13 8 -5 980.52 357.26
-13 -8 5 220.97 236.24
-13 -8 6 -55.83 227.51
-8 13 -6 446.51 305.7
-8 13 -6 -514.05 350.79
-13 -8 -6 411.74 251.49
-8 -13 -6 507.17 264.49
-8 13 -6 4.6 197.71
8 13 -6 335.11 241.99
8 13 6 -102.3 226.88
-8 13 6 122.52 221.86
-13 -8 6 49.34 213.97
-13 8 -6 -36.76 301.65
-8 -13 6 75.5 236.04
-8 13 -7 705.07 310.7
-13 8 -7 143.85 295.17
-8 13 -7 0.5 304.83
-8 13 -7 154.98 185.57
-13 -8 -7 527.81 253.58
-8 -13 -7 232.99 236.08
8 13 -7 250.47 227.56
8 13 7 -47.89 214.64
-8 13 7 40.52 213.14
-13 -8 7 236.98 228.65
-8 -13 7 -15.42 228.87
-13 -8 7 168.34 219.9
-8 13 -8 841.81 303.06
-13 8 -8 477.46 275.58
-8 13 -8 -248.53 305.77
-8 13 -8 77.6 178.04
-13 -8 -8 88.09 210.41
-8 -13 -8 398.92 221.57
8 13 -8 -84.97 204.39
8 13 8 -150.3 212.55
-8 13 8 326.11 210.96
-13 -8 8 -922.23 266.29
-13 -8 8 353.28 225.29
-8 -13 8 58.13 219.65
-13 8 -9 504.12 261.22
-8 13 -9 -386.88 327.23
-13 -8 -9 -3.7 205.44
-8 -13 -9 -22.28 216.76
8 13 9 -224.55 203.34
-8 13 9 103.78 204.39
-13 8 9 96.43 173.42
-13 -8 9 601.13 232.39
-8 -13 9 171.28 212.96
-8 13 -10 -265.08 255.09
-13 8 -10 -286.37 230.67
-13 -8 -10 242.98 202.49
-8 -13 -10 1.48 212.26
-8 13 10 255.51 187.7
-13 8 10 65.55 162.58
-13 -8 10 367.34 181.41
-8 -13 10 340.51 203.59
-13 8 -11 55.63 166.96
-8 13 -11 -154.33 199.48
-13 -8 -11 -0.42 156.74
-8 -13 -11 -3.15 149.41
-8 13 11 123.29 159.01
-13 8 11 150.72 140.75
-13 -8 11 1.27 144.14
-8 -13 11 -72.61 161.33
-8 13 -12 161.13 166.85
-13 -8 -12 6.61 129.62
-8 -13 -12 -6.24 112.69
-8 13 12 110.62 134.43
-13 8 12 -66.89 109.64
-13 -8 12 30.13 120.78
-8 -13 12 39.29 120.91
13 8 -12 -149.05 143.47
-13 -9 0 546.29 231.91
-9 -13 0 440.53 238.26
-13 9 0 861.51 300.83
-13 -9 0 537.9 255.1
-9 13 0 606.23 315.97
-13 9 0 575.08 335.79
-9 13 0 1096.16 377.66
13 9 0 215.21 370.03
-13 9 0 579.96 423.91
-13 -9 0 601.67 433.96
-13 -9 1 557.34 223.33
-13 -9 -1 816.66 250.72
-9 -13 1 709.52 243.88
13 9 -1 1519.79 505.52
-9 -13 -1 915.09 271.74
-13 -9 -1 425.15 373.05
-13 9 -1 1442.6 334.38
-13 -9 1 511.78 239.73
-9 13 -1 1299.68 351.73
-9 13 1 640.74 324.48
-13 -9 -1 849.03 278.5
-13 9 1 972.31 377.53
-9 13 -1 928.01 335.88
13 9 1 946.56 423.49
9 13 -1 1118.64 486.13
-13 9 -1 164.74 335.93
-13 9 -1 978.59 416.24
-13 9 1 1040.83 483.03
-9 13 -1 1210.24 497.15
-13 -9 2 54.62 216.9
-9 -13 2 195.23 227.16
-13 -9 -2 -52.49 198.27
-9 -13 -2 230.66 224.34
-13 -9 2 -317.44 260.8
13 9 2 -604.35 456.37
-13 9 -2 797.3 327.51
-13 -9 -2 84.1 360.03
-9 13 -2 -481.55 341.92
-9 13 2 23.31 286.72
-13 -9 -2 468.83 283.54
-13 9 2 405.1 320.36
-13 9 -2 -199.57 355.89
-9 13 -2 -459.98 327.66
-13 -9 -2 -163.25 246.09
9 13 -2 160.53 414.78
-9 -13 -2 -272.8 271.13
9 13 -2 -172.91 239.77
13 9 -2 228.87 396.1
-13 9 -2 -400.94 424.3
-9 13 -2 439.89 392.65
-13 9 2 477.46 404.59
-9 -13 -2 497.8 483.63
-13 -9 3 195.21 234.9
-9 -13 3 -71.62 208.65
-13 -9 -3 -46.63 194.28
-9 -13 -3 -173.89 210.4
-13 -9 3 795.42 278.58
-9 -13 -3 -147.75 337.84
-13 9 -3 625.1 315.87
-13 -9 -3 38.83 345.74
-9 13 -3 -333.65 331.3
-9 13 3 141.88 298.41
-13 9 3 -137.87 310.28
-13 9 -3 910.51 373.94
-9 13 -3 -31.24 310.82
-9 -13 -3 25.5 217.98
-13 -9 -3 -18.22 218.36
13 9 -3 -37.17 392.55
9 13 -3 -660.18 361.28
9 13 -3 14.56 224.21
-13 9 -3 381.32 389.26
-9 13 -3 170.64 366.72
-13 -9 4 129.61 210.45
-9 -13 4 163.38 222.38
-13 -9 4 208.1 230.61
-13 -9 -4 201.81 200.67
-13 9 -4 234.3 300.08
-9 13 -4 -245.13 297.91
-9 13 4 9.77 259.12
-13 9 4 215.88 305
-13 9 -4 670.87 344.81
-13 -9 -4 -51.6 214.48
-9 -13 -4 356 233.81
9 13 -4 214.25 220.97
-9 13 -4 -410.96 317.41
-9 -13 5 216.09 229.15
-13 -9 5 -111.46 221.72
-13 9 -5 679.45 326.58
-9 13 -5 -3.24 270.76
-9 13 5 -23.74 248.13
-13 9 -5 262.83 316.13
-9 13 -5 -99.06 296.77
-13 -9 -5 -80.13 218.55
-9 -13 -5 225.67 249.49
9 13 -5 35.1 211.08
-13 -9 5 -42.54 212.61
-13 9 -6 458.97 328.75
-13 -9 6 -115.57 265.14
-9 13 -6 690.37 311.81
-9 13 -6 -361.73 313.24
-13 -9 -6 19.28 217.93
9 13 6 -512.58 273.75
-13 -9 6 -25.47 209.45
-9 -13 -6 -110.1 199.16
-9 -13 6 -80.6 216.6
-9 13 -7 922.11 316.11
-13 9 -7 856.06 329.7
-9 13 -7 -112.3 311.08
-9 13 -7 478.6 184.47
-13 -9 -7 373.43 239.77
-9 -13 -7 533.85 247.21
9 13 7 57.28 231.77
-9 13 7 1562.82 279.32
-13 -9 7 287.94 213.92
-9 -13 7 521.81 256.61
-13 -9 7 250.92 219.31
-9 13 -8 1094.95 312.14
-13 9 -8 723.71 302.25
-9 13 -8 -288.12 288.55
-13 -9 -8 376.28 242.92
-9 -13 -8 410.42 215.81
-9 13 8 36.8 192.45
-13 -9 8 424.05 213.06
-9 -13 8 278.99 215.82
-9 13 -9 -226.05 275.27
-13 -9 -9 369.04 218.42
-9 -13 -9 4.07 216.92
-9 13 9 349.9 210.21
-13 -9 9 182.57 189.55
-9 -13 9 148.11 199.2
-13 9 -10 -528.29 233.29
-9 13 -10 -73.98 238.83
-13 -9 -10 296.88 189.2
-9 -13 -10 2.45 183.5
-9 13 10 71.22 157.97
-13 9 10 41.13 146.31
-13 -9 10 17.2 171.92
-9 -13 10 237.69 186.32
-9 -13 -11 29.57 168.45
-13 9 -11 -185.18 168.98
-9 13 -11 214.49 209.75
-13 -9 -11 116.74 153.37
-9 13 11 -95.07 144.12
-13 9 11 179.08 143.56
-13 -9 11 25.06 140
-9 -13 11 183.25 143.35
-9 13 -12 234.43 149.9
-13 -9 -12 1.02 121.5
-9 -13 -12 0.38 105.71
-9 13 12 -27.82 101.93
-13 -9 12 -59.65 107.93
-9 -13 12 143.33 110.97
13 9 -12 65.61 96.81
-13 -10 0 -108.99 190.67
-10 -13 0 61.85 204.15
-13 10 0 20.79 258.08
13 10 0 -790.11 442.58
-13 -10 0 -66.49 217.79
-10 13 0 51.47 283.89
-13 10 0 -538.16 353.78
-10 13 0 -1133.94 380.93
-13 10 0 33.81 335.86
-13 -10 1 203.21 212.23
-10 -13 1 25.24 203.29
-13 -10 -1 183.37 202.6
-10 -13 -1 36.27 213.21
-10 13 -1 387.55 314.61
-13 -10 1 201.82 234.9
-13 10 -1 42.04 258.48
-10 -13 -1 -48.66 228.93
-10 13 -1 -594.96 354.63
-13 -10 -1 -133.29 232.79
-10 13 1 396.18 300.11
-13 10 1 13.71 308.98
-13 10 -1 -317 362.99
-13 10 1 725.65 453.45
-10 13 -2 346.11 305.74
-13 -10 2 -32.12 212.99
-10 -13 2 84.2 204.72
-13 -10 -2 49.14 189.54
-10 -13 -2 96.26 201.71
-13 -10 2 286.33 243.6
-13 10 -2 587.92 291.07
-10 13 -2 -650.91 334.48
-10 -13 -2 165.7 225.5
-10 13 2 124.65 266.06
-13 -10 -2 277.84 230.1
-13 10 2 793.67 344.9
-10 -13 -2 -47.93 236.34
-13 -10 -2 -119.17 235.71
10 13 -2 137.93 208.87
-10 13 -3 278.25 285.13
-13 -10 3 444.42 240.16
-10 -13 3 364.23 250.27
-10 -13 3 432.74 245.43
-13 -10 -3 391.38 202.3
-13 10 3 522.99 309.43
-10 -13 -3 513.03 231.64
-13 -10 3 1063.05 289.23
-13 10 -3 729.8 300.77
-10 -13 -3 434.29 227.13
-10 13 -3 -8.07 293.34
-10 13 3 368.22 289.2
-10 -13 -3 569.64 251.51
-13 -10 -3 759.73 265.76
-13 10 -3 978.88 381.97
-13 -10 -3 575.97 252.13
10 13 -3 639.26 240.09
-13 -10 4 381.76 238.22
-10 -13 4 734.24 254.68
-10 -13 4 218.88 212.07
-13 -10 4 263.87 237.79
-13 -10 -4 265.16 200.13
-10 -13 -4 403.48 218.72
-13 10 -4 811.19 291.16
-10 13 -4 626.26 326.22
-10 13 4 671.73 280.83
-10 -13 -4 473.74 245.61
-10 13 -4 154.52 283.14
-10 -13 -4 111.65 222.73
-13 -10 -4 313.82 222.35
-13 10 -4 854.14 361.92
-10 -13 5 -172.18 196.06
-10 -13 5 -259.22 232.51
-13 -10 5 -115.46 215.42
-13 -10 -5 153.05 181.18
-13 10 -5 400.6 276.57
-10 13 -5 394.83 292.87
-13 10 -5 68.73 292.45
-10 13 -5 -112.58 266.29
-13 -10 -5 230.6 211.54
-10 -13 -5 225.88 225.64
-13 -10 5 95.35 208.46
-13 -10 6 -256.67 240.89
-13 -10 -6 -23.11 153.6
-13 10 -6 823.83 305.37
-13 -10 -6 79.29 197.26
-10 13 -6 292.16 293.65
-10 -13 -6 -54.09 190.42
-10 -13 6 -430.51 233.66
-13 -10 6 -177.21 226.54
-13 10 -6 394.6 300.85
-10 -13 6 0.46 210.64
-10 13 -6 -218.51 306.55
-13 -10 -7 51.61 203.59
-10 13 -7 248.18 270.57
-10 13 -7 -103.93 289.94
-13 10 -7 170.49 280.98
-10 -13 -7 42.52 206.67
-13 -10 7 229.76 212.33
-10 -13 7 89.35 209.41
-13 -10 7 -135.88 222.66
-13 10 -8 727.71 294.48
-10 13 -8 -202.14 303.89
-13 -10 -8 140.76 209.7
-10 -13 -8 -4.02 180.71
-10 13 8 130.3 174.45
-13 -10 8 279.97 200.48
-10 -13 8 -35.84 194.68
-10 13 -9 142.69 248.61
-13 -10 -9 -58.36 183.02
-10 -13 -9 5.44 178.33
-10 13 9 155.06 185.39
-13 -10 9 88.84 176.87
-10 -13 9 -96.67 184.98
-10 13 -10 39.75 205.39
-13 -10 -10 -14.1 168.2
-10 -13 -10 8.89 162.3
-13 10 -10 -312.08 238.76
-10 13 10 3.58 143.15
-13 -10 10 2.46 151.84
-10 -13 10 175.72 164.3
-10 -13 -11 14.55 104.64
-13 10 -11 -53.13 158.33
-10 13 -11 105.99 177.68
-13 -10 -11 30.21 152.31
-10 -13 -11 -3.4 132.89
-10 13 11 -23.18 120.84
-13 -10 11 -35.23 124.46
-10 -13 11 268.28 136.65
-13 -10 -12 3.45 105.96
-13 -10 12 20.21 93.53
-13 -11 0 435.13 222.73
-11 -13 0 544.36 230.18
-11 -13 0 504.75 243.62
-13 11 0 499.76 262.03
-13 -11 0 636.11 250.19
-11 13 0 13.23 312.52
-11 13 0 -32.75 325.86
-13 11 0 509.85 330.89
-13 -11 1 494.27 232.58
-11 -13 1 429.59 237.04
-13 -11 -1 608.77 228.15
-11 -13 -1 348.93 198.59
-13 11 -1 -226.5 325.53
-11 -13 1 1053.85 311.82
-13 -11 1 -6.43 217.47
-13 11 -1 441.14 280.03
-13 11 1 462.73 283.07
-11 -13 -1 567.75 278.17
-13 11 1 136.48 302.13
-11 13 -1 -335.78 301.36
-13 -11 -1 405.3 242.87
-11 13 1 -215.02 277.11
-11 13 -1 407.83 285.1
11 13 -1 130.72 204.62
-13 -11 2 414.12 216.98
-11 -13 2 257.32 215.1
-13 -11 -2 411.05 215.88
-11 -13 -2 545.14 229.03
-11 -13 2 294.68 255.05
-13 -11 2 602.66 256.33
-13 11 -2 564.63 300.02
-11 13 -2 98.69 265.03
-11 -13 -2 494.52 246.02
-11 13 2 114.05 255.17
-13 -11 -2 466.12 230.07
-13 11 2 662.33 335.82
-11 13 -2 802.09 324.01
-13 11 -2 72.95 312.47
-13 -11 3 94.3 214.3
-11 -13 3 223.44 210.72
-11 -13 3 376.39 237.18
-13 -11 -3 -82.19 169.89
-11 -13 -3 -97.6 186.92
-13 -11 3 246.03 234.18
-13 11 -3 484.97 286.78
-11 13 -3 454.36 289.89
-11 13 3 373.7 274.52
-11 -13 -3 14.55 207.58
-13 -11 -3 250.79 229.59
-13 -11 -3 52.64 199.26
-11 13 -3 319.93 287.47
-11 -13 -3 -208.98 230.14
-13 11 -3 622.86 319.15
-13 -11 4 170.93 206.13
-11 -13 4 -40.7 204.73
-11 -13 4 -118.79 237.12
-13 -11 4 306.76 234.49
-13 -11 -4 -130.16 182.35
-11 -13 -4 236.91 194.44
-11 13 -4 240.24 290.12
-13 11 -4 236.46 260.87
-11 13 -4 440.84 295.6
-11 -13 -4 440.05 223.05
-13 -11 -4 266.09 219.24
-13 11 -4 573.9 318.76
-11 -13 -4 -69.31 190.21
-13 -11 -4 198.08 209.59
-11 -13 5 263.86 226.27
-11 -13 5 165.12 217.03
-13 -11 5 90.02 213.28
-13 -11 -5 217.83 190.54
-11 -13 -5 353.66 201.11
-13 11 -5 786.4 296.07
-11 13 -5 771.98 326.1
-13 11 -5 632.14 322.97
-11 13 -5 208.14 295.9
-11 -13 -5 238.33 230.66
-13 -11 -5 47.12 210.8
-13 -11 5 290.41 223.41
-13 -11 6 -81.92 221.49
-13 -11 -6 59.51 162.64
-11 -13 -6 10.93 173.82
-13 11 -6 504.6 301.01
-13 11 -6 318.33 288.96
-11 13 -6 419.67 275.71
-11 13 -6 90.59 267.75
-13 -11 -6 80.99 208.57
-11 -13 -6 66 191.57
-11 -13 6 -54.16 206.44
-13 -11 6 -28.56 199.47
-11 -13 6 298.1 222.24
-13 -11 -7 -270.68 172.47
-11 -13 -7 -25.45 160.08
-11 13 -7 466.49 271
-13 11 -7 338.2 304.36
-11 13 -7 118.49 276.9
-13 -11 -7 90.77 204.2
-11 -13 -7 130.15 202.67
-13 -11 7 -267.43 219.49
-13 -11 7 -39.24 189.12
-11 -13 7 286.1 213.53
-11 -13 -8 -31.03 153.96
-11 13 -8 63.12 253.3
-13 -11 -8 12.71 205.71
-11 -13 -8 -6.29 180.59
-13 11 -8 161.24 262.08
-13 -11 8 -3.84 181.74
-11 -13 8 -58.24 184.04
-13 -11 -9 2.83 196.91
-11 -13 -9 -93.71 140.03
-13 11 -9 144.28 227.18
-11 -13 -9 2.1 163.27
-13 -11 9 14.04 162.87
-11 -13 9 -114.63 170.35
-11 13 -9 182.46 242.73
-11 -13 -10 -27.86 120.53
-13 11 -10 -101.11 205.96
-11 13 -10 103.91 192.84
-13 -11 -10 13.25 147.55
-11 -13 -10 4.9 147.74
-13 -11 10 49.87 138.79
-11 -13 10 9.93 136.27
-13 11 -11 -166.08 147.31
-11 13 -11 -43.11 151.32
-11 -13 -11 -12.53 121.13
-13 -11 -11 11.75 124.02
-13 -11 11 44.41 114.51
-11 -13 11 0.09 107.04
-13 -12 0 -84.84 191.34
-12 -13 0 -118.84 197.39
-12 -13 0 -182.7 229.08
-13 -12 0 -149.41 204.82
-13 12 0 40.59 227.36
-12 13 0 -260.18 272.62
-13 12 0 -179.37 307.35
-12 13 0 -426.07 333
-13 -12 1 140.04 205.01
-12 -13 1 14.91 188.96
-13 -12 -1 -15.39 177.39
-12 -13 -1 84.42 190.75
-13 12 1 123.94 274.75
-12 -13 1 430.75 264.78
-13 -12 1 164.48 203.61
-13 12 -1 30.79 254.57
-12 -13 -1 174.01 219.68
-13 12 1 1.3 238.08
-12 13 -1 -108.85 256.27
-13 -12 -1 -204.8 233.34
-12 13 1 -201.52 274.85
-12 13 1 -4.54 277.98
-12 13 -1 -475.46 307.36
-13 12 -1 -190.88 334.06
-13 -12 2 465.65 214.34
-12 -13 2 308.42 211.72
-13 -12 -2 480.64 207.9
-12 -13 -2 535.17 227.74
-12 -13 2 667.94 260.82
-13 -12 2 710.46 272.7
-13 12 2 762.86 298.47
-13 12 -2 1268.36 319.99
-12 13 -2 386.16 282.6
-12 13 2 -1.93 253.33
-12 -13 -2 249.89 217.01
-13 -12 -2 608.59 244.14
-13 12 -2 -61.12 294.56
-12 13 -2 244.68 302.51
-13 -12 3 766.93 260.38
-12 -13 3 947.29 265.45
-12 -13 3 382.93 243.48
-13 -12 -3 875.56 225.56
-13 -12 3 931.63 275.75
-12 -13 -3 548.82 215.28
-13 12 -3 1630.18 363.94
-12 13 -3 1038.69 342.5
-12 -13 -3 472.24 223.7
-13 -12 -3 793.05 258.09
-13 12 -3 242.26 292.07
-12 13 -3 807.32 341.17
-13 -12 -3 283.57 212.22
-13 -12 4 700.44 246.77
-12 -13 4 694.09 246.8
-12 -13 4 612.31 229.6
-13 -12 4 385.27 214.05
-13 12 -4 727.72 333.74
-13 -12 -4 601.36 199.91
-12 -13 -4 361.42 197.18
-13 12 -4 921.15 306.05
-12 13 -4 962.03 336.74
-12 -13 -4 687.77 232.3
-13 -12 -4 665.81 243.36
-12 13 -4 1065.9 334.08
-12 -13 -4 254.87 210.25
-13 -12 -4 308.61 211.72
-12 -13 5 3.43 191.92
-13 -12 5 -189.82 225.02
-13 -12 -5 170.97 162.62
-12 -13 -5 182.13 179.17
-13 12 -5 550.48 278.14
-12 13 -5 293.81 284.35
-12 -13 -5 215.96 196.67
-13 -12 -5 434.95 217.85
-13 12 -5 776.49 320.29
-12 13 -5 574.19 302.74
-12 -13 -5 -68.39 188.58
-13 -12 -5 49.88 191.19
-13 -12 5 325.06 220.16
-12 -13 5 15.94 199.39
-13 -12 -6 -143.03 161.75
-12 -13 -6 -106.91 160.9
-13 12 -6 598.78 299.97
-12 13 -6 562.57 292.97
-13 12 -6 407.7 304.41
-12 -13 -6 166.71 210.93
-12 13 -6 399.18 308
-12 -13 -6 123.51 182.75
-13 -12 -6 -89.51 190.46
-12 -13 6 -244.96 214.33
-13 -12 6 -186.15 202.32
-12 -13 6 -89.45 205.29
-13 -12 6 -237.85 237.11
-12 13 -7 -3.99 279.66
-13 -12 -7 48.28 138.47
-12 -13 -7 25.7 146.97
-13 12 -7 283.33 287.04
-12 -13 -7 -5.44 183.83
-13 -12 -7 -0.7 183.27
-13 -12 7 2.07 178.24
-12 -13 7 -173.82 204.09
-13 -12 -8 71.91 128.69
-12 -13 -8 -29.8 137.3
-13 12 -8 505.31 269.71
-12 13 -8 568.19 283.97
-12 -13 -8 -0.31 177.22
-13 -12 -8 1.43 174.95
-13 -12 8 176.78 185.54
-12 -13 8 -99.85 175.27
-12 -13 -9 47.28 122.8
-12 -13 -9 249.08 155.7
-12 13 -9 180.4 229.47
-13 -12 -9 -1.79 151.96
-13 12 -9 -7.44 219.71
-12 -13 -9 3.32 158.5
-13 -12 9 49.47 145.55
-12 -13 9 218 156.71
-12 -13 -10 158.33 118.63
-13 -12 -10 447.27 151.22
-13 12 -10 -216.55 185.37
-12 13 -10 24.46 182.98
-12 -13 -10 1.87 129.35
-13 -12 -10 7.9 130.39
-13 -12 10 41.61 128.27
-12 -13 10 114.63 132.58
-13 -12 11 141.75 104.15
-12 -13 11 17.48 93.72
-13 -13 0 124.99 189.55
-13 -13 0 -362.03 234.24
-13 13 0 4.46 242.81
-13 13 0 52.27 286.74
-13 -13 1 222.47 206.67
-13 -13 -1 149.62 195.24
-13 -13 1 300.92 223.77
-13 -13 -1 134.83 197.78
-13 13 -1 274.6 284.77
-13 13 1 215.35 245.57
-13 13 1 400.09 292.73
-13 13 -1 -214.78 289.14
-13 -13 2 52.74 195.08
-13 -13 -2 186.22 190.36
-13 -13 2 246.29 216.87
-13 13 -2 360.85 269.92
-13 13 2 -43.73 237.38
-13 -13 -2 -140.96 195.05
-13 13 -2 -342.3 353.98
-13 -13 3 -37.22 194.34
-13 -13 3 -8.24 224.45
-13 -13 -3 102.93 170.62
-13 13 -3 248.05 285.74
-13 -13 -3 121.03 205.96
-13 -13 4 -14.55 188.7
-13 -13 4 -258.49 230.59
-13 -13 -4 206.83 178.91
-13 13 -4 43.33 255.78
-13 -13 -4 148.6 205.87
-13 13 -4 470.36 294.42
-13 -13 5 -35.4 203.23
-13 -13 -5 29.15 153.77
-13 13 -5 625.83 292.99
-13 -13 -5 376.73 197.67
-13 13 -5 936.26 343.03
-13 -13 -5 5.46 185.02
-13 -13 5 297.23 201.29
-13 -13 -6 274.27 167.55
-13 13 -6 1033.38 287.74
-13 -13 -6 196.13 194.58
-13 13 -6 617.75 300.8
-13 -13 -6 -1.83 203.02
-13 -13 6 -244.38 202.02
-13 -13 6 15.85 191.44
-13 -13 -7 369.86 178.35
-13 -13 -7 246.17 173.1
-13 -13 -7 3.7 186.99
-13 13 -7 734.51 291.91
-13 -13 7 296.52 190.29
-13 -13 -8 47.87 112.65
-13 -13 -8 389.49 168.54
-13 13 -8 526.78 253.75
-13 -13 -8 0.96 156.89
-13 -13 8 -7.06 146.81
-13 -13 -9 109.35 128.86
-13 13 -9 -247.76 214.87
-13 -13 -9 -4.09 140.87
-13 -13 9 3.48 134.02
-13 13 -10 52.41 165.02
-13 -13 -10 4.43 114.27
-13 -13 10 8.04 102.23
14 0 0 38095.28 1608.79
0 14 0 36725.67 1118.2
-14 0 0 41815.83 1165.67
0 14 0 40768.23 1073.3
-14 0 0 39487.57 1059.94
14 0 -1 12915.35 1028.11
0 14 -1 12572.17 663.24
0 14 1 11528.11 669.51
-14 0 1 13555.1 717.7
-14 0 -1 12560.79 682.48
-14 0 -1 12884.39 857.98
0 14 1 13030.87 635.84
-14 0 1 11827.59 608.35
-14 0 -1 11898.05 612.86
-14 0 -2 4273.29 543.96
-14 0 -2 4284.05 452.53
0 14 2 3767.05 453.37
14 0 -2 3835.34 630.06
0 14 -2 3121.35 411
-14 0 2 3402.87 452.57
-14 0 -2 3148.78 357.88
0 14 -2 3658.47 392.94
0 14 2 3793.84 389.1
-14 0 -2 3119.55 485.85
-14 0 2 3140.88 345.43
-14 0 3 282.37 244.59
14 0 -3 -582.29 509.94
0 14 -3 -217.11 285.55
0 14 3 -17.75 307.98
-14 0 -3 40.65 212.2
0 14 -3 -16.99 241.58
-14 0 -3 -10.28 267.31
-14 0 -3 232.8 298.42
0 14 3 -32.93 226.76
-14 0 -3 521.79 309.41
-14 0 4 885.64 257.69
14 0 -4 829.59 520.33
0 14 -4 926.35 313.8
-14 0 -4 958 361.78
-14 0 -4 562.8 319.87
0 14 4 623.08 363.42
-14 0 -4 499.24 251.52
0 14 -4 1060.86 300.74
-14 0 -4 1017.19 381.82
0 14 4 879 273.69
14 0 -5 2586.44 656.07
14 0 5 3852.71 1162.3
-14 0 -5 3758.6 438.8
0 14 5 3183.96 488.45
-14 0 -5 3343.2 382.34
-14 0 -5 3521.7 558.91
0 14 -5 4549.12 467.93
-14 0 -5 3445.57 571.27
0 14 5 4437.91 463.48
-14 0 5 3804.67 413.57
-14 0 -6 7219.89 795.96
0 14 6 6185.7 616.59
14 0 6 6856.44 1302.08
-14 0 -6 7234.62 531.04
0 14 -6 9146.28 615.52
-14 0 -6 7579.04 828.37
0 14 6 8633.63 607.36
-14 0 6 7618.35 534.43
14 0 -6 7107.37 961.59
0 14 7 2033.51 431.85
-14 0 -7 2475.54 363
0 14 -7 2511.95 391.18
0 14 7 2821.73 409.91
-14 0 7 1703.79 294.77
-14 0 -8 1557.09 294.03
0 14 -8 1886.16 341.38
0 14 8 1674.81 341.97
-14 0 8 1260.03 268.99
0 14 9 635 332.95
0 14 -9 104.19 284.91
-14 0 -9 468.54 222.01
0 14 -9 23.1 230.83
0 14 9 267.81 240.7
-14 0 9 106 186.86
0 14 10 148.13 248.9
0 14 -10 -303.45 281.51
0 14 -10 -182.31 210.6
0 14 10 -114.58 216.7
-14 0 10 -109.51 187.83
0 14 11 202.66 211.35
0 14 -11 -91.44 241.18
0 14 -11 -205.13 211.36
0 14 11 273.85 201.63
0 14 -12 -71.36 198.7
0 14 12 125.82 153.12
14 0 -12 1.88 168.52
0 14 -13 1019.42 197.83
0 14 13 879.86 168.07
-14 0 13 383.71 139.24
14 0 -13 4.66 177.63
-14 1 0 967.17 363.71
-14 1 0 152.58 243.64
-14 -1 0 347.86 235.22
-14 -1 0 602.74 338.67
-1 14 0 -263.18 287.56
1 14 0 287.81 298.75
1 14 0 -237.25 227.76
-1 14 0 122.7 206.8
-14 1 0 339.56 301.18
14 1 0 222.7 385.47
14 -1 -1 147.41 398.43
-1 -14 1 63.69 232.58
-14 1 1 -161.66 226.87
-14 -1 1 162.21 214.04
-14 -1 1 -466.94 395.51
-14 1 -1 376.92 243.25
-1 14 1 200.66 294.64
-14 -1 -1 333.82 257.58
-14 -1 -1 -154.39 297.64
-1 14 -1 10.87 285.32
-14 -1 -1 -2.97 311.33
-14 1 -1 445.54 339.24
1 14 1 -44.53 308.88
14 1 -1 151.25 392.44
1 14 -1 389.65 280.74
-1 14 -1 -175.93 229.03
1 14 1 -25.02 200.11
-1 14 1 -196.13 217.52
-14 -1 -1 212.17 262.28
-14 1 -1 -190.31 292.69
-14 1 1 153.78 343.08
-14 -1 -2 139.93 307.79
-14 1 2 497.3 234.01
-14 -1 2 -224.82 226.23
14 -1 -2 -21.32 442.39
-1 14 2 -21.04 288.88
-1 14 -2 187.53 282.56
-14 -1 -2 -577.92 314.53
1 14 -2 181.75 266.77
-14 1 2 -746.06 358.94
1 14 2 -142.31 313.39
-14 1 -2 331.91 318.43
14 1 -2 104.67 390.02
-14 -1 -2 -6.12 215.49
-1 14 -2 -47.72 241.66
1 14 -2 -209.82 249.42
-14 -1 -2 -431.46 306.77
1 14 2 306.68 226.93
-1 14 2 -115.11 227.88
-14 1 -2 -121.84 327.31
-14 1 3 208.26 205.73
-14 -1 3 754.04 274.62
14 -1 -3 -43.96 468.14
-14 -1 -3 451.37 372.52
-14 1 -3 -209 259.74
-1 14 -3 17.84 269.2
14 1 -3 179.52 435.62
1 14 -3 202.22 259.7
1 14 3 -67.11 316.62
-14 -1 -3 244.61 295.52
-1 14 3 102.66 311.83
-1 14 -3 -489.32 380.37
-14 1 -3 56.35 321.34
-1 14 -3 207.5 245.59
1 14 -3 196.35 240.21
-14 -1 -3 1.17 265.91
-14 1 -3 -164.18 357.33
1 14 3 -169.1 224.14
-1 14 3 -93.11 224.41
-14 -1 -3 188.73 276.68
14 -1 -4 -57.38 485.58
-14 1 4 419.8 231.36
-14 -1 4 49.09 210.5
14 1 -4 -325.4 435.29
-1 14 -4 474.14 286.46
-14 1 -4 466.11 319.91
-1 14 4 -23.76 318.54
1 14 4 -178.22 348.73
-14 -1 -4 190.29 302.9
-14 1 -4 205.22 316.82
-14 -1 -4 282.52 239.43
-1 14 -4 -499.52 406.29
-1 14 -4 247.07 251.77
1 14 -4 316.34 257.66
-14 -1 -4 142.8 298.05
-14 1 -4 433.16 341.82
1 14 4 -35.87 222.03
-1 14 4 251.9 243.17
-14 -1 -4 134.88 294.67
-14 1 5 215.2 211.97
14 -1 -5 96.26 509.71
14 -1 5 -1073.7 879.34
-14 -1 5 272.62 236.04
14 1 -5 45.18 473.54
-1 14 -5 -163.52 298.57
14 1 5 1141.94 960.29
-14 1 -5 508.95 318.9
-1 14 5 282.58 336.33
-14 -1 -5 479.98 311.2
-14 -1 -5 168.06 247.41
-14 1 -5 373.43 344.37
-1 14 -5 498.59 261.05
1 14 -5 696.58 297.49
-14 -1 -5 625.29 337.97
-14 1 -5 -123.47 328.72
1 14 5 384.43 281.46
-1 14 5 461.68 279.86
14 -1 -6 123.46 441.03
-14 -1 6 174.83 230.71
14 1 -6 -39.59 504.39
14 -1 6 408.72 858.67
-1 14 6 -44.13 334.1
-14 -1 -6 -79.66 319.9
-14 1 -6 761.16 389.06
-14 -1 -6 457.8 255.03
14 1 6 -1.08 840.72
-1 14 -6 482.74 274.33
1 14 -6 688.25 309.77
-14 -1 -6 231.77 341.15
-14 1 -6 263.84 346.52
-14 1 -6 481.81 307.9
1 14 6 299.98 265.17
-1 14 6 561.16 281.71
-14 1 6 303.11 207.57
-1 14 -7 -543.14 414.38
-14 -1 -7 126.39 232.57
-1 14 7 -63.06 299.93
-1 14 -7 -333.1 248.44
1 14 -7 -14.97 244.41
1 14 7 -39.52 241.15
-1 14 7 535.05 319.87
-14 -1 7 113.89 193.48
-14 1 7 -451.61 222.43
-14 -1 7 -182.66 227.4
-14 -1 -8 29.29 207.8
-1 14 8 153.11 296.87
-1 14 -8 21.87 304.77
-1 14 -8 31.25 235.21
1 14 -8 100.6 253.59
1 14 8 104.6 237.07
-1 14 8 -29.94 236.34
-14 1 8 61.68 201.92
-14 -1 8 63.86 212.68
-1 14 -9 289.49 303.58
-14 -1 -9 441.46 219.3
-1 14 -9 205.87 236.23
1 14 -9 88.43 235.82
-1 14 9 315.78 298.8
1 14 9 380.62 248.32
-1 14 9 416.93 257.29
-14 1 9 115.73 184.64
-14 -1 9 291.41 195.83
1 14 -10 586.73 298.77
-1 14 10 256.28 252.18
1 14 10 980.37 326.93
-1 14 -10 91.26 265.88
-14 -1 -10 543.34 209.93
-1 14 -10 286.74 207.35
1 14 -10 351.7 229.06
1 14 10 802.04 265.17
-1 14 10 573.88 257.14
-14 -1 10 133.94 166.21
-1 14 -11 7 187.77
1 14 -11 263.32 254.13
-1 14 11 -6.86 211.13
1 14 11 360.14 231.84
-1 14 -11 369.99 260.79
-14 -1 -11 258.66 171.57
1 14 -11 -59.66 195.3
1 14 11 445.72 212.55
-1 14 11 367.82 206.8
-1 14 -12 232.66 213.13
1 14 -12 83.55 208.08
1 14 12 12.79 198.37
1 14 12 -213.69 169.24
-1 14 12 -130.58 161.37
14 -1 -12 1.27 163.53
14 1 -12 -2.49 181.7
-1 14 -13 240.13 161.76
1 14 -13 150.08 154.22
1 14 13 62.9 115.08
-1 14 13 -43.11 122
-14 1 13 268.12 129.97
14 -1 -13 6 121.69
14 1 -13 3.17 126.56
-14 2 0 3535.93 496.44
2 14 0 3176.15 432.09
-14 -2 0 3035.23 495.05
-14 -2 0 2593.67 424.9
-14 2 0 3523.35 458
-2 14 0 2602.97 400.53
2 14 0 2873.75 350.23
-2 14 0 2952.05 332.04
-2 -14 0 2843.87 393.59
-14 -2 0 3051.67 355.36
14 2 0 2716.39 544.94
-14 -2 -1 10571.32 821.64
14 -2 -1 9488.49 920.71
14 2 -1 9904.46 918.83
14 2 1 10456.93 880.83
-2 14 -1 9873.23 622.14
2 14 -1 8947.25 603.11
-2 14 1 9995.04 632.28
2 14 1 9291.05 645.82
-14 -2 -1 10164.67 626.19
-14 2 -1 10825.08 651.71
-14 2 1 10554.58 642.63
-2 14 -1 10056.38 561.31
-14 2 -1 10254.52 807.48
-14 2 1 9988.32 741.63
2 14 1 10343.86 621.15
-2 14 1 9016.16 535.62
-2 -14 1 9584.78 617.47
-14 -2 1 10519.85 591.1
-14 -2 -1 10078.71 576.03
-14 -2 -2 5020.52 605.62
14 2 -2 5411.09 743.88
-2 14 -2 4749.31 474.11
2 14 -2 4597.44 448.65
-2 14 2 4976.7 505.9
2 14 2 4485.06 499.39
-14 -2 -2 5459.17 597.84
-14 2 2 5674.33 535.17
-14 -2 -2 5801.34 510.95
-14 2 -2 5716.55 517.91
-14 2 -2 5483.45 642.28
-14 -2 -2 5215.74 446.97
-2 14 -2 5273.35 448.28
2 14 -2 4980.2 452.08
2 14 2 5552.51 480.72
-2 14 2 5168.04 432.04
-2 -14 2 5236.91 504.31
-14 -2 2 5019.39 445.02
14 -2 -2 5205.92 774.56
-2 -14 3 1585.62 348.05
14 -2 -3 1406.24 563.42
-14 -2 3 1509.97 309.96
-2 14 -3 858.27 324.26
-14 -2 -3 901.01 362.79
-14 2 3 781.84 332.4
-14 -2 -3 1219.45 355.93
-14 2 -3 1295.37 384.39
14 2 -3 1046.56 512.1
2 14 3 677.81 364.88
-2 14 -3 840.38 343.74
-14 -2 -3 1148.94 281.4
-2 14 -3 1152.48 276.69
-2 14 3 903.34 351.23
2 14 -3 885.03 291.61
-14 -2 -3 865.31 360.96
-14 2 -3 1250.96 403.43
2 14 3 984.6 285.73
-2 14 3 996.26 267
14 -2 -4 -173.33 567.94
-2 -14 4 107.2 267.49
-14 2 4 -337.05 243.29
-14 -2 4 251.71 242.72
14 -2 4 -57.21 768.98
-2 14 -4 89.38 301.45
14 2 -4 145.27 401.48
-14 -2 -4 86.41 321.55
-14 2 -4 -366.14 326.19
-2 14 4 -22.5 340.32
-14 2 -4 -213.76 310.16
-2 14 -4 -189.12 365.62
-14 -2 -4 95.4 227.89
-2 14 -4 183.56 254.77
2 14 -4 -2.45 251.88
-14 -2 -4 23.06 309.16
-14 2 -4 -594.05 399.16
2 14 4 79.38 220.49
-2 14 4 86.12 223.07
-14 2 5 2298.61 313.62
-14 2 -5 2138.8 402.94
14 -2 5 2597.12 978.88
-2 14 -5 1613.96 367.45
14 2 5 3138.02 1010.81
14 2 -5 2132.78 624.44
-14 -2 -5 2545.5 540.64
-2 14 5 1971.26 424.08
-14 -2 -5 2648.09 374.02
-2 14 -5 2860.33 464.79
-2 14 -5 2994.75 393.83
2 14 -5 2697.39 392.44
-14 2 -5 2851.41 530.01
-14 -2 -5 2539.7 494.38
-14 2 -5 2721.83 552.51
2 14 5 2313.83 392.51
-2 14 5 2476.9 370.51
-14 -2 5 2506.03 377.42
14 -2 -5 2542.32 692.79
-2 14 -6 2928.7 411.96
-14 2 -6 2298.63 402.71
-2 14 6 2625.71 464.7
-14 -2 -6 3075.01 399.74
-2 14 -6 2873.5 468.72
-2 14 -6 3311.5 410.5
2 14 -6 3077.66 415.19
-14 2 -6 2738.59 542.12
2 14 6 2931.88 405.59
-2 14 6 3245.4 413.37
-14 -2 6 2922.78 364.14
-14 -2 6 2701.51 369.76
-14 2 6 2380.4 327.67
-2 14 7 3587.86 483.1
-14 2 -7 4309.3 447.52
-2 14 -7 4710.16 544.83
-14 -2 -7 4893.38 462.88
-2 14 -7 4250.1 437.92
2 14 -7 5120.85 501.03
2 14 7 4780.89 477.93
-2 14 7 5073.58 499.84
-14 -2 7 4481.02 430.95
-14 -2 7 4440.12 447.03
2 14 -8 2895.99 403.78
-2 14 8 2097.56 393.96
-14 -2 -8 2898.94 374.88
-2 14 -8 3083.43 475.71
-2 14 -8 2639.92 373.9
2 14 8 2533.51 387.86
-2 14 8 2652.02 394.3
-14 -2 8 2336.22 328.99
-2 14 -9 789.81 355.13
-14 -2 -9 710.56 245.9
-2 14 -9 689.03 251.42
-2 14 9 1564.57 334.07
2 14 -9 433.8 237.64
2 14 9 687.41 271.95
-2 14 9 874.62 280.89
-14 -2 9 564.85 223.51
-2 14 10 94.25 218.97
-2 14 -10 71.44 263.84
-2 14 -10 47.31 200.45
-14 -2 -10 -30.66 185.64
2 14 -10 -122.5 215.64
2 14 10 23.41 197.16
-2 14 10 17.75 222.12
-14 -2 10 147.94 181.77
2 14 11 630.3 259.47
-2 14 -11 308.5 255.39
2 14 -11 391.92 253.87
2 14 -11 -34.36 185.82
-14 -2 -11 400.41 195.2
2 14 11 230.52 183.39
-2 14 11 540.46 224.44
-14 -2 11 111.07 159.29
14 -2 -11 -7.04 181.99
2 14 12 739.94 208.19
-2 14 -12 1085.97 250.36
2 14 -12 1471.6 267.74
-14 -2 -12 471.82 207.73
2 14 12 810.1 199.97
-2 14 12 1062.32 224.48
-14 2 12 597.77 193.88
14 -2 -12 4.83 194.94
14 2 -12 6.69 207.32
-2 14 -13 203.93 152.15
2 14 -13 615.96 172.43
2 14 13 230.75 114.71
-2 14 13 222.22 129.64
-14 2 13 89.67 112.64
14 -2 -13 28.11 135.46
14 2 -13 2.87 141.28
14 3 0 -208.82 423.58
-3 -14 0 213.83 229.18
-14 -3 0 -232.43 305.7
-14 -3 0 91.94 224.55
-3 14 0 -241.01 310.65
3 14 0 -198.11 273.21
-3 14 0 -384.75 225.53
-14 3 0 172.3 291.98
-14 3 0 273.54 325.91
-3 -14 1 845.02 297.75
-14 -3 1 975.55 388.48
-14 3 1 1095.92 388.78
-14 -3 1 361.53 233.26
-14 -3 -1 509.53 303.62
-14 3 -1 672.13 367.86
-14 -3 -1 1159.98 280.28
-3 14 -1 829.32 341.44
-3 14 1 824.48 330.8
3 14 -1 370.58 281.28
14 3 1 452.4 346.28
3 14 1 562.26 327.32
-3 14 -1 608.26 243.99
3 14 1 848.72 248.1
-3 14 1 655.85 229.02
-14 3 -1 564.24 333.25
-14 3 1 783.88 312.7
14 3 -1 320.88 402.43
-3 -14 2 436.29 282.18
14 -3 -2 389.05 431.61
-14 -3 2 314.45 224.72
-3 14 2 438.39 317.2
-14 3 2 634.07 334.16
-14 3 -2 396.29 328.56
-14 -3 -2 436.93 300.5
-3 14 -2 359.35 301.97
-14 -3 -2 168.57 293.52
3 14 2 836.58 416.18
-14 -3 -2 355.54 242.25
-3 14 -2 514.96 252.18
14 3 -2 386.63 392.09
3 14 -2 393.53 246.93
3 14 2 858.46 280.81
-3 14 2 554.46 233.83
-14 3 -2 682.74 349.65
14 -3 -3 1448.49 567.7
-3 -14 3 1864.27 376.88
-3 14 -3 1509.8 346.07
-14 -3 -3 1029.75 392.36
-14 3 3 1692.77 380.52
-3 14 3 1531.13 375.85
-14 3 -3 1448.21 365.7
-3 14 -3 1693.32 398.03
-14 -3 -3 1754.16 323.8
14 3 -3 1609.79 596.77
-3 14 -3 1906.01 325.2
-14 -3 -3 1334.77 350.85
3 14 -3 1826.77 337.88
3 14 3 1889.91 354.21
-14 3 -3 1640.42 479.01
-3 14 3 1484.71 296.35
-14 -3 3 2245.82 357.95
-3 -14 4 1181.38 356.77
-14 -3 4 1151.5 295.04
14 -3 4 906.13 685.01
-3 14 -4 1412.78 359.28
-14 -3 -4 1289.57 425.29
-3 14 4 842.93 365.54
14 3 -4 1215.26 543.85
-14 3 -4 445.24 327.65
-3 14 -4 1274.74 384.81
-14 -3 -4 1142.05 291.83
-3 14 -4 937.23 288.95
-14 -3 -4 1473.97 397.86
3 14 -4 1337.22 305.94
3 14 4 978.01 298.24
-14 3 -4 1122.16 430.48
-3 14 4 1153.69 308.66
14 -3 -4 1159.06 651.23
-3 -14 5 2376.49 421.5
-14 -3 5 2215.52 354.92
-3 14 -5 725.29 325.42
14 3 5 2692.5 935.74
14 -3 5 1848.86 892.79
-14 3 -5 1274.74 366.51
-3 14 5 2253.23 451.54
-3 14 -5 1897.36 423.33
-14 -3 -5 2045.78 367.4
-14 3 -5 1652.86 436.97
-3 14 -5 1911.72 342.19
-14 -3 -5 2102.68 481.41
3 14 -5 2126.65 383.52
-14 -3 -5 1951.72 492.34
-3 14 5 2743.26 396.05
14 3 -5 1062.42 505.15
-14 3 -5 1588.64 474.24
3 14 5 2314.83 372.06
14 -3 -5 1791.94 663.46
-14 -3 5 1448.22 311.06
-3 14 6 699.72 368.58
-14 -3 6 27.2 224.69
-3 14 -6 261.64 321.52
-14 3 -6 -92.87 288.65
-3 14 -6 -8.85 324.51
-14 -3 -6 659.68 274.74
-3 14 -6 562.1 271.64
3 14 -6 961.29 304.49
3 14 6 314.59 261.45
-3 14 6 820.31 300.35
-14 -3 6 247.75 238.79
-3 -14 6 315.92 308.19
-3 14 -7 843.45 334.14
-3 14 7 -48.74 296.74
-14 3 -7 278.93 304.96
-3 14 -7 509.63 350.89
-14 -3 -7 307.46 260.44
-3 14 -7 12.84 225.98
3 14 -7 294.71 255.56
3 14 7 309.75 256.79
-3 14 7 345.63 259.67
-14 -3 7 176.65 219.38
-3 -14 7 586.44 307.12
-14 -3 7 306.11 220.42
-3 14 8 148.49 279.41
-14 -3 -8 397.5 235.51
-3 14 -8 169.52 216.33
3 14 -8 321.78 249.85
3 14 8 242.15 231.56
-3 14 8 591.79 289.5
-14 -3 8 141.17 196.7
-3 14 -8 483.36 334.46
-14 -3 8 -134.6 229.66
-3 14 9 852.28 280.7
-3 14 -9 1060.31 267.9
-14 -3 -9 854.87 250.4
3 14 -9 835.11 267.64
-3 14 -9 1139.42 355.58
3 14 9 607.32 248.34
-3 14 9 1847.89 336.08
-14 -3 9 870.67 245.63
-3 14 10 765.22 241.94
-3 14 -10 990.08 332.84
-3 14 -10 758.46 223.5
-14 -3 -10 1142.38 246.97
3 14 -10 1215.83 275.67
3 14 10 642.73 239.53
-3 14 10 1073.67 290.17
-14 -3 10 682.85 227.83
3 14 11 950.93 287.36
-3 14 -11 352.38 244.66
3 14 -11 161.71 235.84
3 14 -11 306.71 176.81
-14 -3 -11 818.37 219
3 14 11 747.26 218.28
-3 14 11 1188.89 263.54
-14 -3 11 466.07 192.88
14 -3 -11 6.58 171.74
-3 14 -12 646.56 210.2
3 14 -12 246.78 208.34
-14 -3 -12 124.53 136.82
3 14 12 268.25 195.19
3 14 12 284.99 157.76
-3 14 12 61.81 154.84
-14 3 12 315.22 154.42
14 -3 -12 -4.51 135.6
14 3 -12 -29.08 170.7
-3 14 -13 -56.68 135.83
3 14 -13 -36.51 148.09
-3 14 13 252.64 133.51
14 3 -13 0.65 123
14 4 0 7399 826.92
-4 14 0 5477.74 511.43
4 14 0 5974.93 500.72
-14 4 0 7013.83 568.63
-14 4 0 7470.78 721.33
-4 14 0 5767.01 439.29
-4 -14 0 6356.37 497.67
-14 -4 0 6521.57 490.97
-14 -4 0 6958.44 751.32
-4 14 -1 3317.66 422.86
-14 -4 -1 4060.63 603.76
-14 4 1 4013.66 478.12
-14 4 -1 4530.82 497.64
-4 14 1 2893.56 425.49
4 14 1 2768.31 440.22
-14 4 -1 3552.94 566.12
-14 -4 -1 3541.66 377.06
-4 14 -1 3834.38 383.4
14 4 1 4181.35 627
4 14 1 3168.3 390.82
-14 4 1 3255.88 511.89
-4 -14 1 4043.42 427.07
-14 -4 1 3262.49 376.38
-14 -4 -1 3841.43 408.77
-14 -4 1 4354.75 646.89
14 4 -1 3485.37 647.44
-4 -14 2 2141.45 356.82
-14 -4 2 1937.43 320.24
-4 14 2 2083.74 406.36
-14 -4 -2 2488.65 514.89
-4 14 -2 1986.96 380.17
-4 14 -2 3210.97 438.33
14 4 2 1463.56 462.78
4 14 2 1935.92 433.58
-14 -4 -2 2013.61 330.22
-4 14 -2 2070.52 322.66
4 14 -2 2094.51 320.58
4 14 2 1967.65 349.75
-14 4 -2 1862.71 382.49
-4 14 2 2112.13 299.69
-14 4 -2 2316.71 496.87
14 4 -2 1886.71 563.66
-14 4 2 2712.33 426.57
-4 -14 3 241.33 260.83
-14 -4 3 939.9 290.01
14 -4 3 336.08 480.3
-4 14 -3 616.09 315.51
-14 -4 -3 228.99 361.07
-14 4 3 65.23 314.31
-4 14 3 871.37 347.38
-14 4 -3 58.19 307.11
-4 14 -3 1018.89 357.54
-14 -4 -3 306.17 240.33
-4 14 -3 601.64 271.54
-14 -4 -3 485.64 310.54
4 14 -3 59.59 232.19
14 4 -3 54.13 383.47
4 14 3 377.44 254.29
-4 14 3 395.57 233.03
-14 4 -3 898.99 391.47
14 -4 -3 671.78 582.76
-4 -14 4 102.02 273
-14 -4 4 272.38 250.29
-4 14 4 227.09 328.69
14 -4 4 357.3 630.43
-4 14 -4 -736.41 337.82
-14 -4 -4 -394.56 415.17
-14 4 -4 -621.35 353.8
-4 14 -4 629.78 362.31
-14 -4 -4 71.77 231.75
14 4 -4 864.21 518.75
-4 14 -4 484.11 262.6
-14 -4 -4 434.77 317.53
4 14 -4 281.98 277.89
4 14 4 110.59 222.25
-14 4 -4 -225.66 346.43
-4 14 4 -264.69 242.14
14 -4 -4 780.02 652.44
-14 -4 4 -256.61 250.11
-4 -14 5 1144.15 369.68
-14 -4 5 1299.39 320.14
-4 14 -5 808.27 328.65
14 4 5 1254.63 646.89
14 -4 5 -55.58 615.28
-14 -4 -5 697.48 365.55
-4 14 5 981.69 375.5
-4 14 -5 1093.38 380.93
-14 4 -5 703.95 328.72
14 4 -5 973.11 486.1
-14 -4 -5 686.32 279.08
-4 14 -5 1068.43 282.53
-14 -4 -5 1089.07 377
4 14 -5 1044.88 312.63
4 14 5 1022.45 297.7
-14 4 -5 1106.9 432.9
-4 14 5 1307.93 343.77
14 -4 -5 505.49 524.85
-14 -4 5 888.7 272.28
-4 14 -6 2388.55 398.72
-14 -4 -6 2786.49 388.95
-4 14 -6 2609.37 451.61
-4 14 -6 2414.1 351.83
4 14 -6 3375.7 415.35
4 14 6 2544.36 392.95
-4 14 6 2411.87 403.61
-14 -4 6 3010.26 383.73
-4 -14 6 3311.99 489.29
-14 -4 6 2848.42 385.84
-4 14 6 2764.79 449.42
-14 4 -6 1992.02 376.55
-14 -4 7 1547.8 312.77
-4 14 -7 1481.31 350.56
-4 14 7 958.9 316
-14 4 -7 617.9 290.59
-4 14 -7 1320.73 400.45
-14 -4 -7 1166.9 292.84
-4 14 -7 1068.02 295.57
4 14 -7 1220.53 310.6
4 14 7 862.31 293.72
-4 14 7 1213.02 304.68
-14 -4 7 1202.14 286.79
-4 -14 7 1065.32 344.42
-4 14 -8 1311.28 325.54
-4 14 8 531.12 292.01
-4 14 -8 819.52 352.94
-14 4 -8 438.56 268.02
-14 -4 -8 1119.06 284.3
-4 14 -8 707.61 263.16
4 14 -8 713.17 266.71
4 14 8 713.86 267.5
-4 14 8 1071.24 305.37
-14 -4 8 723.61 248.53
-14 -4 8 455.44 216.26
-4 -14 8 628.4 290.79
-4 14 9 113.67 229.42
-4 14 -9 114.01 195.53
-14 -4 -9 621.31 246.41
4 14 -9 -2.22 219.53
-4 14 -9 164.63 290.67
4 14 9 160.14 199.5
-4 14 9 334.44 264.87
-14 -4 9 229.56 206.26
-4 -14 9 72.32 218.29
-4 14 -10 -14.86 253.76
-4 14 -10 -311.83 206.72
-14 -4 -10 92.1 195.56
4 14 -10 118.81 186.59
4 14 10 -156.41 207.77
-4 14 10 -111.35 211.06
-14 -4 10 79.53 172.56
14 -4 -10 4.34 211.11
-4 14 -11 215.04 241.38
4 14 -11 -282.54 189.42
-14 -4 -11 201.72 172.17
4 14 11 260.97 169.64
-4 14 11 336.31 186.99
-14 4 11 144.63 164.15
-14 -4 11 218.05 160.97
14 -4 -11 2.49 156.17
4 14 12 20.08 176.1
-4 14 -12 -187.34 196
4 14 -12 147.61 194.96
-14 -4 -12 349.25 142.96
4 14 12 122.1 131.99
-4 14 12 286.1 174.8
-14 4 12 96.61 138.64
14 -4 -12 2.89 124.86
14 4 -12 -178.06 167.18
-4 14 -13 387.21 141.67
4 14 -13 754.73 169.12
-4 14 13 451.75 134.09
14 5 0 151.13 407.61
-5 -14 0 86.42 227.58
-14 -5 0 -226.8 410.14
-14 -5 0 -36.22 208.71
-5 14 0 -113.54 308.35
-14 5 0 188.14 335.03
5 14 0 -41.04 258.4
-14 5 0 -403.02 352.35
-5 -14 1 238.44 211.54
-5 -14 -1 80.16 209.22
-14 -5 1 651.31 420
14 5 -1 114.36 388.05
-14 -5 -1 654.1 419.88
-14 -5 1 1.98 220.32
-5 14 -1 -49.1 278.8
-14 -5 -1 42.51 229.47
-5 14 1 -263.43 324.19
-14 5 1 565.91 348
-14 5 -1 66.22 311.89
5 14 1 392.67 345.04
-14 -5 -1 -371.82 256.56
-5 14 -1 316.3 239.03
-14 5 -1 -61.55 301.81
-14 5 1 -254.7 318.37
14 5 1 452.05 373.46
-14 5 2 4063.54 468.04
-14 -5 -2 3346.25 576.29
-14 5 -2 4350.36 464.69
-5 14 -2 3686.16 447.9
-14 -5 2 4523.56 697.26
-5 14 2 3904.86 491.31
-5 14 -2 4015.64 469.17
-14 5 -2 3544.07 455.61
-14 5 -2 4478.15 649.92
-14 -5 -2 3559.48 397.65
-5 14 -2 4313.18 408.54
5 14 -2 3317.78 374.25
5 14 2 3382.69 420.48
14 5 2 3979.75 629.56
-5 -14 2 4560.19 447.9
-14 5 2 3710.78 564.65
-14 -5 2 3890.92 424.73
14 5 -2 3626.37 656.75
-14 -5 -3 4145.23 651.56
-5 14 -3 4259.27 497.3
-5 -14 -3 3999.41 656.92
-5 14 3 4123.2 495.62
14 -5 3 2397.39 609.92
-14 5 3 4118.27 478.17
-5 14 -3 4781.4 492.87
-14 5 -3 3231.3 445.75
-14 5 -3 5265.42 711.47
-14 -5 -3 3512.51 391.06
-5 14 -3 4769.24 431.7
5 14 -3 3603.5 410.27
5 14 3 3615.51 446.66
-5 14 3 4094.34 414.03
14 5 -3 3766.89 705.46
-14 -5 3 4374.56 427.78
-5 -14 3 4612.31 479.49
14 -5 -3 5098.83 916.26
-14 -5 3 5119.3 489.26
-14 -5 -4 6093.05 742.18
-14 5 -4 4331.32 493.42
14 5 -4 5289.78 823.62
-5 14 -4 5185.87 506.36
-5 14 4 6021.7 590.37
14 -5 4 3425.96 761.4
-5 14 -4 6230.4 589.71
-14 -5 -4 5347.93 470.52
-5 14 -4 6256.82 491.09
5 14 -4 5713.32 507.51
-14 5 -4 6097.25 738.82
5 14 4 5523.26 508.34
-5 14 4 5978.08 508.87
-14 -5 4 7305.23 536.18
-5 -14 4 5624.22 539.94
14 -5 -4 5116.03 885.57
-14 -5 -4 5679.1 655.51
-14 -5 4 6512.76 518.8
-5 -14 5 1697.17 374.42
-5 14 -5 1928.75 382.47
14 5 5 1425.3 662.35
-14 5 -5 1162.39 344.29
-5 14 -5 2337.44 446.2
-5 14 -5 2393.57 355.84
-14 -5 -5 2298.92 350.93
-5 14 5 1502.87 384.15
-14 -5 -5 2290.31 490.71
5 14 -5 2038.21 356.51
5 14 5 2139.27 370.05
-5 14 5 2289.33 370.32
14 -5 -5 1807.99 680.79
-14 -5 5 2876.15 393.96
-14 -5 5 2751.79 374.24
-14 -5 6 1511.02 322.41
-14 5 -6 664.68 310.3
-5 14 -6 1399.01 337.19
-5 14 -6 1654.33 392.55
-14 -5 -6 1556.96 312.39
-5 14 -6 1257.42 291.45
-5 14 6 1450.67 363.67
5 14 -6 1558.6 325.76
5 14 6 1115.45 318.36
-5 14 6 1229.93 313.77
-14 -5 6 1115.54 273.54
-5 -14 6 1705.44 382.87
-14 -5 7 319.33 225.71
-5 14 -7 642.85 298.01
-5 14 7 168.07 255.6
-5 14 -7 149.37 311.82
-14 -5 -7 287.11 226.74
-5 14 -7 116.49 205.65
5 14 -7 341.52 250.19
-14 5 -7 19.03 283.64
5 14 7 20.38 216.44
-5 14 7 264.55 237.34
-14 -5 7 134.26 209.11
-5 -14 7 343.14 292.68
-5 14 -8 856.17 286.57
-5 14 8 426.15 264.64
-14 5 -8 500.41 274.54
-5 14 -8 564.07 338.23
-14 -5 -8 998.61 280.4
-5 14 -8 636.62 244.35
5 14 -8 822.71 268.32
5 14 8 644.12 258.89
-5 14 8 845.51 284.45
-14 -5 8 752.31 245.25
-14 -5 8 362.66 218.9
-5 -14 8 917.18 315.23
-5 14 -9 1976.65 389.1
-5 14 -9 1166.78 265.35
-14 -5 -9 1755.4 299.89
5 14 -9 1168.67 268.49
-14 5 -9 883.11 277.75
5 14 9 1722.61 310.09
-5 14 9 1527.46 310.64
-14 5 9 693.58 220.62
-14 -5 9 1392.5 272.37
-5 -14 9 1331.61 316.13
-5 14 -10 1737.69 351.33
-5 14 -10 1271.09 247.48
-14 -5 -10 1461.92 264.2
5 14 -10 1879.89 282.79
5 14 10 1628.39 276.7
-5 14 10 1723.41 307.82
-14 5 10 1158.78 239.39
-14 -5 10 1309.87 255.34
-5 -14 10 1374.5 284.47
-5 14 -11 1739.7 290.89
-14 -5 -11 1203.66 221.66
5 14 11 1518.5 233.85
-5 14 11 1449.35 275.65
-14 5 11 788.45 199.55
-14 -5 11 977.46 221.49
5 14 -12 -171.61 189.52
5 14 12 134.78 188.28
-5 14 -12 -20.72 165.67
-14 -5 -12 193.7 132.54
5 14 12 96.9 108.83
-5 14 12 52.71 145.9
-14 5 12 67.15 131.21
-14 -5 12 26.08 128.71
14 5 -12 -230.83 167.19
14 5 -13 6.96 100.62
-6 -14 0 903.71 267.63
-14 6 0 999.67 370.38
-14 -6 0 1289.69 503.86
-14 -6 0 789.44 265.01
-6 14 0 557.92 322.13
14 6 0 1501.82 529.55
-14 6 0 196.39 335.81
-6 -14 1 2206.63 332.47
-6 -14 -1 2315.84 340.68
-14 -6 1 1839.27 524.82
14 6 1 2440.19 546.8
-14 -6 -1 2461.25 577.03
-14 -6 1 2388.07 352.56
14 6 -1 2264.11 568.18
-6 14 -1 2342.58 393.56
-14 6 1 2124.8 413.47
-6 14 1 2030.25 385.81
6 14 1 2226.86 382.66
-14 6 -1 2047.27 409.59
-14 6 -1 2205.09 485.35
-14 6 1 2718.59 530.61
-14 -6 -1 2388.26 358.67
-14 -6 2 619.54 236.28
-6 -14 2 650.52 266.29
14 6 2 135.02 362.76
14 6 -2 153.47 423.69
-14 6 -2 1392.77 369.98
-14 -6 2 555.99 253.97
-14 -6 -2 774.32 392.14
14 -6 2 96.44 370.7
-6 14 -2 761.26 340.36
-6 14 2 613.68 331.85
-14 6 2 1050.49 357.63
-14 6 -2 612.6 336.15
-6 14 -2 127.02 310.45
-14 -6 -2 383.45 249.64
6 14 -2 328.01 223.77
6 14 2 -190.9 289.91
-14 6 -2 1051.66 404.54
-14 6 2 364.19 342.52
-14 -6 2 -282.12 374.56
-6 -14 3 351.11 258.99
-14 6 -3 1255.62 349.27
-6 -14 -3 44.46 383.06
-14 -6 3 807.07 288.01
14 -6 3 -256.5 439.65
-6 14 -3 873.77 343.5
-14 -6 -3 -73.19 350.93
-6 14 3 -177.2 343.82
-14 6 3 396.44 330.04
-14 6 -3 -266.68 356.98
-6 14 -3 1150.82 357.45
-14 -6 -3 322.54 251.64
-6 14 -3 264.76 244.99
6 14 -3 249.8 247.62
6 14 3 -17.95 249.87
-14 6 -3 518.39 394.36
14 6 -3 35.17 423.32
-14 -6 3 425.32 254.62
-6 -14 4 262.13 269.38
-14 -6 4 415.36 265.73
-6 14 -4 -246.14 337.16
14 -6 4 -447.34 465.09
-14 -6 -4 -147.57 375.02
-14 6 4 -499.65 337.23
-6 14 4 456.35 341.66
-14 6 -4 -849.37 396.56
-6 14 -4 635.67 334.6
-14 -6 -4 235.27 233.88
-6 14 -4 172.71 238.13
6 14 -4 131.68 236.43
6 14 4 -97.66 262.35
-6 14 4 130.48 233.84
-14 6 -4 421.6 390.25
14 -6 -4 -420.39 644.3
14 6 -4 366.68 406.25
-14 -6 4 77.43 228.85
-6 -14 5 419.03 270.63
-14 -6 5 466.95 264.74
-6 14 -5 53.73 296.53
-14 6 -5 11.39 311.59
-6 14 5 1103.94 414.07
-6 14 -5 643.91 364.88
-14 -6 -5 526.61 259.69
-6 14 -5 411.59 234.34
6 14 -5 473.04 263.35
6 14 5 520 258.39
-6 14 5 196.98 247.21
-14 -6 5 303.38 219.08
-14 -6 6 122.87 217.37
-6 14 -6 535.78 304.7
-6 14 6 519.12 288.26
-14 6 -6 -166.17 304.99
-6 14 -6 613.24 341.35
-14 -6 -6 736.54 265.41
-6 14 -6 269 211.43
6 14 -6 596.71 264.84
-6 14 6 710.72 286.71
-14 -6 6 355.96 244.43
-6 -14 6 681.64 299.57
-14 -6 7 319.29 227.95
-6 14 -7 1454.37 368.17
-6 14 7 296.28 247.93
-14 6 -7 -120.37 267.61
-6 14 -7 169.58 298.6
-14 -6 -7 788.48 286.47
-6 14 -7 712.73 245.13
6 14 -7 901.17 283.45
6 14 7 629.61 245.9
-6 14 7 867.22 303.41
-14 -6 7 756.57 265.52
-6 -14 7 674.03 307.42
-6 14 -8 331.87 274.4
-6 14 8 84.66 218.83
-14 6 -8 111.49 258.71
-6 14 -8 394.43 320.54
-14 -6 -8 168.08 221
-6 14 -8 381.98 210.56
-6 -14 -8 701.12 252.86
6 14 -8 103.82 201.71
6 14 8 200.65 210.55
-6 14 8 407.82 245.95
-14 -6 8 78.53 195.55
-14 -6 8 -458.89 253.77
-6 -14 8 396.99 276.16
-14 6 -9 -430.72 257.97
-6 14 -9 201.12 299.71
-6 14 -9 -130.78 197.44
-14 -6 -9 313.62 219.49
6 14 -9 23.38 181.73
-6 -14 -9 -5.22 235.34
6 14 9 93.58 178.82
-6 14 9 279.94 221.09
-14 6 9 211.67 178.75
-14 -6 9 271.77 197.16
-6 -14 9 -48.96 225.99
-6 14 -10 144.91 246.94
-14 -6 -10 234.81 185.84
6 14 -10 419.29 178.92
-6 -14 -10 25.71 218.18
6 14 10 232.59 171.53
-6 14 10 299.38 215.15
-14 6 10 474.83 182.9
-14 -6 10 226.09 174.37
-6 -14 10 727.44 250.61
-6 14 -11 -209.57 205.51
-14 -6 -11 481.3 172.76
-6 -14 -11 -0.7 158.68
6 14 11 -27.31 147.19
-6 14 11 7.91 160.45
-14 6 11 224.47 161.97
-14 -6 11 5.04 140.43
-6 -14 11 116.27 162.55
6 14 12 156.21 176.73
-6 14 -12 65.08 160.86
6 14 -12 210.86 178.46
-14 -6 -12 44.83 118.73
-6 14 12 112.63 133.38
-14 6 12 3.94 108.65
-14 -6 12 16.56 114.99
14 6 -12 -27.9 136.48
-7 -14 0 -99.38 208.48
-14 -7 0 25.99 367.3
-14 -7 0 95.31 220.29
-7 14 0 -102.2 302.92
-14 7 0 42.75 322.44
-14 7 0 -555.88 395.86
14 7 0 -181.43 444.71
-14 -7 1 1060.65 262.62
-7 -14 -1 949.75 275.32
-14 -7 1 1408 522.77
-14 7 -1 1366.19 314.35
-14 -7 -1 1270.98 455.24
-14 -7 1 1249.8 291.19
-7 14 -1 1379.97 368.54
-14 -7 -1 1159.28 299.28
-7 14 1 992.95 368.03
-14 7 1 1522.79 392.58
-14 7 -1 1101.97 365.22
7 14 1 1294.11 353.26
14 7 1 1432.26 485.79
14 7 -1 1705.82 563.21
-14 7 -1 1184.3 451.21
-7 -14 1 2531.23 398.16
-14 7 1 2599.25 537.69
-14 -7 2 1755.81 336.48
-7 -14 2 1362.96 296.67
-7 -14 -2 1242 293.63
-14 7 -2 1828.54 367.65
-14 -7 2 1458.18 315.2
-14 -7 -2 1633.44 513.05
14 -7 2 265.7 356.45
-7 14 -2 1810.7 384.42
-7 14 2 1243.05 362.84
-14 -7 -2 1844.72 338.49
14 7 -2 1742.01 535.91
-14 7 2 2087.69 428.91
-7 14 -2 990.55 330.79
-14 -7 -2 1304.4 291.01
-14 7 -2 1038.31 355.34
14 7 2 1623.47 509.89
7 14 -2 730.08 250.87
-14 7 -2 1302.95 469.31
-14 7 2 1512.25 469.35
-14 7 -3 6371.68 520.09
-7 14 -3 4767.65 490.08
-7 14 3 5048.87 530.02
-7 -14 -3 3795.49 635.21
14 7 -3 4802.96 721.76
14 -7 3 2486.32 585.51
-14 7 3 4347.64 490.38
-14 7 -3 4037.75 488.24
-7 14 -3 4144.1 476.85
-14 7 -3 5603.79 758.55
-14 -7 -3 5050.08 454.97
-7 14 -3 6558.12 795.08
7 14 -3 5076.45 464.63
7 14 3 4550.63 475.76
-14 -7 3 5931.66 504.72
-7 -14 3 5444.65 501.5
-14 -7 3 5677.39 494.6
-14 -7 -3 5607.36 724.23
-14 7 -4 7941.95 570.39
-7 14 -4 6759.33 556.22
-7 14 4 6097.29 553.76
-14 7 4 6608.85 550.17
-14 7 -4 5622.59 542.95
-7 14 -4 5224.09 508.03
-14 -7 -4 5870.41 500
-7 14 -4 8074.29 512.92
7 14 -4 7005.6 525.64
7 14 4 6031.53 524.62
-14 -7 4 7368.47 553.67
-7 -14 4 6838.42 552.12
-14 -7 4 7560.01 555.52
-7 14 -5 4391.45 478.51
-7 14 5 3587.58 444.92
-14 7 -5 4249.75 489.32
-7 14 -5 4814.38 534.08
-14 -7 -5 4234.18 430.13
-7 14 -5 4236.97 407.84
7 14 -5 4316.14 428.91
7 14 5 4181.12 448.9
-7 14 5 4295.59 446.18
-14 -7 5 4199.84 434.83
-7 -14 5 4676.56 489.07
-14 -7 5 4511.01 449.16
-14 -7 6 1014.83 278.93
-7 14 -6 1553.7 343
-7 14 6 698.99 288.4
-14 7 -6 1065.86 324.85
-7 14 -6 1605.5 383.75
-14 -7 -6 1061.29 287.51
-7 -14 -6 1029.89 281.96
-7 14 -6 869.55 255.26
7 14 -6 1178.44 283.1
7 14 6 764.86 265.43
-7 14 6 861.28 286.61
-7 -14 6 1067.69 301.43
-14 -7 7 -117.42 223.09
-7 14 -7 561.38 293.69
-7 14 7 -95.62 217.22
-7 14 -7 362.54 314.5
-14 -7 -7 -35.69 219.26
-7 -14 -7 223.06 213.35
-7 14 -7 254.27 207.02
7 14 -7 -42.56 201.86
7 14 7 -316.58 229.42
-7 14 7 156.95 213.39
-14 7 -7 596.9 305.74
-14 -7 7 168.5 211.95
-7 -14 7 191.38 255.89
-7 14 -8 513.53 278.61
-14 7 -8 -517.99 302.57
-7 14 -8 340.55 295.2
-7 14 -8 -99.96 198.09
-14 -7 -8 219.16 225.32
-7 -14 -8 -3.13 180.47
7 14 -8 69.7 204.98
7 14 8 68.14 187.52
-7 14 8 162.14 207.35
-14 -7 8 68.08 191.07
-14 -7 8 -253.15 222.4
-7 -14 8 146.33 261.83
7 14 -9 2525.41 307.48
-14 7 -9 1309.31 280.41
-14 -7 -9 2098.1 311.86
-7 14 -9 2056.64 364.74
-7 14 9 2069.57 328
7 14 9 1891.27 284.13
-14 -7 9 1765.49 286.22
-7 -14 9 1682.07 311.23
-14 7 -10 2135.71 277.9
-14 -7 -10 2341.22 302.98
-7 14 -10 2388.5 346.02
-7 14 10 2413.55 313.25
7 14 10 1537.15 243.96
-14 7 10 1437.77 220.02
-14 -7 10 2002.57 286.12
-7 -14 10 2382.67 318.05
-7 14 -11 612.91 212.57
-14 -7 -11 834.3 197.91
-7 14 11 1042.48 214.87
-14 7 11 414.81 193.95
-14 -7 11 897.29 196.52
-7 -14 11 790.14 204.16
-7 14 -12 688.76 172.44
7 14 12 577.57 194.74
-14 -7 -12 497.17 152.81
7 14 -12 569.31 176.3
-7 14 12 543.36 157.42
-14 -7 12 398.27 141.2
14 7 -12 298.28 145.07
-14 -8 0 -134.59 193.78
-8 -14 0 57.38 214.14
-14 -8 0 147.61 411.46
-14 -8 0 38.41 225.09
-8 14 0 174.67 312.42
14 8 0 137.84 351.19
-14 8 0 -38.14 316.98
-14 8 0 47.59 325.21
-14 -8 1 270.04 232.83
-14 -8 -1 407.11 207.14
-8 -14 1 233.19 222.26
14 8 1 -80.62 350.17
-8 -14 -1 504.49 248.95
-14 8 -1 1115.58 316.7
-14 -8 -1 996.37 433.33
-14 -8 1 373.51 254.78
-8 14 -1 890.79 333.95
-14 -8 -1 222.91 239.52
-8 14 1 159.21 303.86
-14 8 -1 109.77 331.24
-14 8 1 645.99 335.99
-8 14 -1 510.6 328.43
-14 8 -1 -127.9 366.19
14 8 -1 -79.82 388.14
-14 8 1 1352.84 442.33
-14 -8 1 828.28 483.59
-14 8 2 202.16 320.43
-14 -8 2 11.9 217.3
-8 -14 2 98.17 211.67
-8 -14 -2 5.41 201.92
-14 8 -2 369.6 279.92
-14 -8 2 -113.73 221.17
-14 -8 -2 232.11 325.9
-8 14 -2 -509.9 343.04
-8 14 2 41.59 295.55
-14 -8 -2 221.41 239.02
-14 8 -2 -559.71 358.5
-8 14 -2 117.99 290.53
-14 -8 -2 -148.33 226.97
14 8 -2 -182.08 379.24
8 14 -2 -193.81 238.63
-14 8 -2 1179.59 464.34
-14 8 2 410.81 388.72
-8 -14 -2 1062.1 472.36
14 8 2 -523.44 410.25
-14 -8 3 -535.71 239.9
-8 -14 3 131.39 230.96
-14 -8 3 367.39 238.94
-14 8 -3 267.63 286.41
-14 8 3 -24.59 288.98
-8 14 -3 -747.92 343.19
-8 14 3 -5.57 294.77
-14 8 -3 -97.2 351.68
-8 14 -3 -177.26 327.24
-14 -8 -3 -73.71 215.11
8 14 -3 133.95 214.25
-8 -14 4 893.25 274.79
-14 -8 4 1288.38 295.46
-14 8 4 713.46 323.3
-14 8 -4 1480.1 353.63
-8 14 -4 720.47 323.76
-8 14 4 908.91 318.03
-14 8 -4 345.74 324.67
-8 14 -4 463.02 287.31
-14 -8 -4 1128.02 292.16
8 14 -4 885.9 269.39
-14 -8 4 625.7 240.39
-8 -14 5 261.75 227.41
-14 -8 5 142.16 211.18
-8 14 -5 226.23 291.7
-8 14 5 68.3 253.85
-14 8 -5 887.99 341.02
-8 14 -5 -55.47 310.13
-14 -8 -5 357.53 252.31
-8 -14 -5 741.96 240.39
8 14 -5 424.11 240.4
8 14 5 -134.82 223.5
-14 -8 5 198.96 214.37
-14 -8 6 -82.43 241.37
-8 14 -6 717.1 307.3
-8 14 6 133.68 239.94
-14 8 -6 635.42 318.95
-8 14 -6 -642.14 344.8
-14 -8 -6 197.76 223.02
-8 -14 -6 240.33 206.87
-8 14 -6 -143.65 186.97
8 14 -6 88.35 204.15
8 14 6 -249.75 224.36
-8 14 6 286.29 238.25
-14 -8 6 157.46 212.96
-8 -14 6 281.09 241.4
-8 14 -7 399.59 280.45
-8 14 -7 -426.49 327.44
-14 -8 -7 -6.22 204.44
-8 -14 -7 11.91 206.39
-8 14 -7 -152.9 198.1
-14 8 -7 706.59 312.09
8 14 -7 40.73 197.22
8 14 7 -84.47 210.08
-8 14 7 -7.06 190.18
-14 -8 7 239.75 220.07
-8 -14 7 65.34 224.17
-14 -8 7 -72.67 210.11
-8 14 -8 625.84 291.01
-14 8 -8 -600.87 295.21
-8 14 -8 -242.49 298.98
-8 14 -8 -219.45 199.14
-14 -8 -8 413.94 227.55
-8 -14 -8 -18.55 199.63
8 14 -8 39.22 177.86
8 14 8 -538.16 241.64
-8 14 8 7.12 186.56
-14 -8 8 151.35 183.63
-8 -14 8 -79.71 216.43
-14 8 -9 -228.73 258.99
-8 14 -9 279.08 260.65
-14 -8 -9 244.96 194.76
-8 -14 -9 5.77 200.24
8 14 9 -129.44 180.25
-8 14 9 338.19 210.26
-14 -8 9 396.1 198.81
-8 -14 9 177.78 202.66
-14 8 -10 -369.76 207.1
-8 14 -10 144.84 231.26
-14 -8 -10 39.48 157.27
-8 -14 -10 21.28 165.46
-8 14 10 314.19 187.12
-14 -8 10 4.72 147.8
-8 -14 10 90.48 173.96
-14 -8 -11 -141.36 142.09
-8 -14 -11 -1.16 126.58
-8 14 11 60.33 141.31
-14 -8 11 20.53 128.42
-8 -14 11 -76.62 142.8
-8 14 -12 263.14 145.5
8 14 12 121.59 150.35
-14 -8 -12 6.2 103.53
-14 -8 12 -76.62 97.43
14 8 -12 -101.14 111.66
-14 -9 0 -108.23 221.23
-9 -14 0 -125.42 199.24
-14 9 0 458.36 295.36
-14 -9 0 15 221.14
-9 14 0 64.07 298.9
-14 9 0 -58.53 311.94
-14 -9 1 684.24 247.35
-14 -9 -1 541.29 216.82
-9 -14 1 834.07 253.16
-9 -14 -1 615.7 234.71
-14 9 -1 1411.39 337.86
-14 -9 1 626.24 255.51
-9 14 -1 324.91 297.69
-14 -9 -1 390.67 241.28
-9 14 1 524.94 326.28
-14 9 1 946.51 345.12
-14 9 -1 1001.34 360.51
-9 14 -1 1216.95 340.15
-14 9 -2 6725.73 510.19
-9 14 -2 6100.09 546.36
-9 14 2 6623.96 569.75
-14 9 2 6079.77 526.56
-14 9 -2 5922.07 554.41
-9 14 -2 5858.17 518.92
-14 -9 -2 5618.86 476.26
9 14 -2 6234.64 479.36
-14 -9 2 6700.56 504.1
-9 -14 2 6181.27 501.09
-14 -9 -2 6980.74 469.66
-9 -14 -2 6394.94 506.56
-14 -9 2 6667 515.56
-14 -9 -2 5646.55 489.17
-14 9 -3 5555.12 490.88
-9 14 -3 4718.01 489.63
-9 14 3 4862.66 496.94
-14 9 3 5579.35 527.63
-9 14 -3 4334.55 466.49
-14 9 -3 4102.69 482.99
-9 -14 -3 3977.38 408.18
-14 -9 -3 4664.6 438.15
9 14 -3 4851.08 439.41
-14 -9 3 4810.61 442.73
-9 -14 3 4419.46 437.16
-14 -9 -3 5140.7 406.43
-9 -14 -3 4810.65 447.94
-14 -9 3 5358.49 489.69
-14 -9 -3 5251.75 475.91
-14 9 -4 4482.58 457.51
-9 14 -4 3664.91 448.45
-9 14 4 4354.98 447.1
-9 14 -4 3646.74 440.97
-14 9 -4 3267.02 468.94
-9 -14 -4 3688.57 398.61
-14 -9 -4 4123.71 418.33
9 14 -4 4039.77 405.02
-14 -9 4 4238.92 439.68
-9 -14 4 4128.91 441.79
-9 -14 -4 4282.26 418.72
-14 -9 4 4253.13 442.33
-9 -14 5 1767.52 326.42
-14 -9 5 1920.99 327.49
-9 14 -5 2099.09 381.89
-9 14 5 1485.04 314.07
-14 9 -5 2013.82 400.65
-9 14 -5 1023.61 330.22
-9 -14 -5 1475.88 284.19
-14 -9 -5 1355.28 301.61
9 14 -5 1949.75 314.52
-14 -9 5 1566.12 309.9
-14 -9 6 -37.59 220.28
-9 14 -6 822.24 314.02
-14 9 -6 875.5 318.92
-9 14 -6 -84.37 293.21
-14 -9 -6 197.12 215.87
-9 -14 -6 463.47 231.08
9 14 -6 594.44 228.42
-14 -9 6 388.49 223.19
-9 -14 6 63.4 214.49
-9 14 -7 506.68 281.89
-14 9 -7 437.91 284.25
-9 14 -7 -346.86 306.52
-9 14 -7 -119.01 192.98
-14 -9 -7 335.93 218.78
-9 -14 -7 240.3 202.55
-9 14 7 130.63 186.87
-14 -9 7 326.46 215.53
-9 -14 7 264.33 226.72
-14 -9 7 -59.84 192.73
-9 14 -8 1268.28 332.94
-14 9 -8 935.2 300.98
-14 -9 -8 1316.25 277.62
-9 14 8 1245.31 253.21
-14 -9 8 1536.73 272.81
-9 -14 8 1388.91 283.35
-9 14 -9 832.51 284.58
-14 9 -9 514.35 234.07
-14 -9 -9 1005.45 235.32
-9 -14 -9 12.12 193.19
-9 14 9 1140.51 236.48
-14 -9 9 955.01 219.54
-9 -14 9 883.95 232.52
-9 14 -10 875.35 240.67
-14 9 -10 409.17 193.12
-14 -9 -10 386.11 174.8
-9 -14 -10 0.73 190.14
-9 14 10 495.08 177.06
-14 -9 10 406.38 181.51
-9 -14 10 382.82 180.48
-9 -14 -11 953.72 153.49
-9 14 -11 1142.49 213.96
-14 -9 -11 608.87 168.78
-9 14 11 759.89 161.43
-14 -9 11 706.12 164.57
-9 -14 11 849.73 169.39
-14 -10 0 651.57 216
-10 -14 0 866.36 260.49
-14 10 0 1064.08 299.22
-14 -10 0 661.87 259.31
-10 14 0 367.6 284.43
-14 10 0 599.78 317.57
-14 -10 1 296.08 201.68
-14 -10 -1 108.61 191.47
-10 -14 1 669.92 255.22
-10 -14 -1 316.46 221.42
-14 10 -1 749.59 280.47
-14 -10 1 42.81 222.22
-10 14 -1 -98.38 303.6
-14 -10 -1 323.17 233.53
-10 14 1 684.18 326.34
-14 10 1 646.65 328.48
-10 14 -1 951.79 329.54
-14 10 -1 76.4 313.62
10 14 -1 -224.59 228.24
-14 -10 2 785.02 259.67
-10 -14 2 342.64 217
-14 -10 -2 340.56 192.11
-10 -14 -2 173.42 211.4
-14 -10 2 942.24 277.53
-14 10 -2 1404.27 314.08
-10 14 -2 200.16 283.8
-10 14 2 680.54 309.61
-14 -10 -2 353.04 231.49
-14 10 2 659.19 306.82
-14 10 -2 -40.43 321.18
-10 14 -2 840.12 320.09
10 14 -2 136.33 206.53
-14 -10 3 -26.84 199.39
-10 -14 3 23.51 207.52
-14 -10 -3 -89.94 166.49
-10 -14 -3 -131.46 193.92
-14 -10 3 58.64 216.56
-14 10 -3 92.25 264.28
-10 14 -3 -101.14 275.7
-10 14 3 126.83 247.42
-14 -10 -3 422.33 240.15
-14 10 3 331.07 271.32
-14 10 -3 -352.07 332.21
-10 14 -3 433.13 285.16
-10 -14 -3 -3.7 207.67
-14 -10 -3 -86.27 206.54
10 14 -3 453.19 234.72
-10 -14 4 -160.79 213.08
-14 -10 4 124.16 199.04
-14 -10 -4 32.4 165.58
-10 -14 -4 213.87 210.28
-14 10 -4 526.55 290.9
-10 14 -4 380.47 293.61
-10 14 4 55.92 246.2
-14 -10 -4 200.92 216.5
-14 10 -4 -408.57 336.72
-10 14 -4 -62.53 278.12
-14 -10 -4 -298.79 223.08
10 14 -4 -191.57 194.66
-14 -10 4 24.57 194.28
-10 -14 5 255.62 210.07
-14 -10 5 107 194.19
-10 -14 -5 166.81 185.61
-14 10 -5 435.93 303.52
-10 14 -5 1037.5 324.26
-14 10 -5 660.99 305.56
-10 14 -5 335.07 282.49
-10 -14 -5 19.21 190.58
-14 -10 -5 86.28 201.77
-14 -10 5 382.35 221.6
-14 -10 6 550.16 221.64
-10 -14 -6 405.38 212.71
-10 14 -6 1012.49 311.92
-10 14 -6 569.13 320.39
-10 -14 -6 721.75 232.86
-14 -10 -6 602.06 239.06
-14 10 -6 1103.68 356.16
-14 -10 6 385.11 230.28
-10 -14 6 802 272.08
-10 14 -7 721.9 280.52
-14 10 -7 661.65 285.47
-10 14 -7 43.68 274.36
-14 -10 -7 220.01 191.59
-10 -14 -7 3.46 194.7
-14 -10 7 394.91 203.6
-10 -14 7 394.65 213.48
-14 -10 7 -24.06 200.02
-14 10 -8 -453.27 284.54
-10 14 -8 403.28 268.32
-14 -10 -8 109.01 189.56
-10 -14 -8 8.2 183
-14 -10 8 306 195.76
-10 -14 8 275.14 203.88
-10 -14 -9 -229.62 157.2
-14 10 -9 -169.26 239.24
-10 14 -9 27.47 238.05
-14 -10 -9 88.33 172.14
-10 -14 -9 5.6 172.02
-10 14 9 -40.33 138.47
-14 -10 9 422.64 174.82
-10 -14 9 109.33 160.53
-10 -14 -10 132.22 133.55
-14 10 -10 182.94 187.78
-10 14 -10 385.75 219.91
-10 -14 -10 -13.36 154.84
-14 -10 -10 78.1 150.08
-10 14 10 192.25 133.91
-14 -10 10 -9.91 134.97
-10 -14 10 154.55 138.03
-10 14 -11 103.54 173.21
-14 -10 -11 -5.42 120.67
-14 -10 11 13.37 102.44
-10 -14 11 -72.75 107.76
-14 -11 0 -174.9 192.93
-11 14 0 -105.15 272.28
-11 -14 0 96.93 204.41
-14 11 0 -112.39 232.05
-14 -11 0 -550.8 236.61
-11 14 0 -247.8 305.59
-14 11 0 -117.72 308.7
-14 -11 1 1445.67 278.2
-11 -14 1 1869.78 313.47
-14 -11 -1 1821.55 291.66
-14 11 -1 2521.48 365.96
-14 -11 1 1369.85 297.78
-11 14 -1 1243.13 332.08
-14 -11 -1 2113.67 326.53
-11 14 1 771.43 319.64
-14 11 -1 1698.49 379.17
-11 14 -1 1486.62 345.94
-14 11 1 2253.54 384.94
11 14 -1 1706.98 293.39
-11 -14 -1 2120.1 325.09
-14 -11 2 1400.86 286.38
-11 -14 2 1261.46 283.38
-14 -11 -2 1219.56 259.79
-11 -14 -2 952.08 248.62
-14 -11 2 1530.9 303.13
-14 11 -2 1463.71 318.28
-11 14 -2 1151.75 347.79
-11 14 2 618.46 274.55
-14 -11 -2 1143.77 273.55
-14 11 2 1611.63 332.34
-14 11 -2 617.26 319.01
-11 14 -2 1810.06 366.24
11 14 -2 1023.44 254.42
-14 -11 3 1967.13 317.25
-11 -14 3 1873.55 330.74
-14 11 -3 2802.97 389.8
-11 14 -3 2567.68 409.78
-11 14 3 2001.73 339.13
-14 -11 -3 1888.18 313.06
-11 14 -3 2725.81 404.58
-14 11 3 1647.69 337.99
-14 11 -3 1602.81 380.93
-14 -11 -3 2307.87 302.37
-11 -14 -3 2311.72 330.46
-14 -11 3 2445.61 345.27
-11 -14 4 1551.22 303.5
-14 -11 4 1853.07 308.81
-14 -11 -4 1238.82 243.43
-14 11 -4 1118.36 349.48
-11 -14 -4 1345.28 268.62
-14 11 -4 1953.01 346.31
-11 14 -4 1914.47 384.79
-11 14 4 1283.96 288
-11 -14 -4 1472.68 274.76
-14 -11 -4 1826.6 310.74
-11 14 -4 1980.69 379.35
-11 -14 -4 1136.68 262.38
-14 -11 -4 1222 271.64
-14 -11 4 1382.96 286.65
-11 -14 5 1042.9 276.64
-14 -11 5 1101.91 256.01
-14 -11 -5 1303.23 236.81
-11 -14 -5 1159.88 268.46
-14 11 -5 2321.37 354.97
-11 14 -5 2417.97 377.65
-11 -14 -5 1305.17 268.14
-14 -11 -5 1466.45 293.31
-11 14 -5 1308.16 347.15
-11 -14 -5 1085.84 262.86
-14 -11 -5 1019.55 260.06
-14 11 -5 444.25 317.66
-14 -11 5 1676.92 301.46
-11 -14 -6 13.07 165.3
-11 14 -6 282.54 263.19
-11 -14 -6 300.14 199.85
-11 14 -6 101.39 258.54
-11 -14 -6 -14.33 179.45
-14 -11 -6 117.93 186.78
-14 11 -6 88.06 273.52
-14 -11 6 907.03 218.28
-11 -14 6 11.25 189.01
-14 -11 6 78.54 184.71
-11 -14 -7 -7.78 153.91
-11 14 -7 539.38 271.1
-11 -14 -7 480.28 199.12
-14 11 -7 -434.94 297.42
-11 14 -7 206.12 264.55
-11 -14 -7 -2.89 178.98
-14 -11 -7 327.95 207.1
-14 -11 7 -78.61 177.15
-14 -11 7 -167.64 187.77
-11 -14 7 170.31 195.99
-11 -14 -8 305.31 166.9
-14 11 -8 56.93 243.06
-11 -14 -8 3.46 188.39
-14 -11 -8 7.06 199.2
-14 -11 8 342.24 178.41
-11 -14 8 290.31 180.12
-11 -14 -9 437.62 161.48
-14 11 -9 814.67 240.63
-11 14 -9 1122.43 272.43
-11 -14 -9 2.91 195.65
-14 -11 -9 25.05 186.69
-14 -11 9 439.03 179.18
-11 -14 9 757.13 191.07
-11 -14 -10 333.66 123.96
-14 -11 -10 733.16 173.35
-11 -14 -10 13.77 145.52
-14 11 -10 479.47 191.47
-11 14 -10 1165.74 241.1
-14 -11 -10 2.16 179.44
-14 -11 10 427.77 147.35
-11 -14 10 640.62 154.43
-14 -11 -11 29.42 106.02
-14 -11 11 146.68 99.09
-14 -12 0 662.71 234.23
-12 -14 0 592.62 225.41
-12 -14 0 836.68 297.62
-14 -12 0 94.73 202.52
-14 12 0 1209.19 299.85
-12 14 0 225.04 261.33
-14 12 0 576.12 304.66
-12 14 0 63.27 264.66
12 14 0 350.88 193.26
-14 -12 1 1245.53 269.09
-12 -14 1 1551.15 298.82
-14 -12 -1 1223.63 254.07
-12 -14 -1 1494.48 287.67
-14 12 -1 1566.45 371.11
-12 -14 1 1475.23 297.54
-14 -12 1 1514.77 303.01
-12 -14 -1 887.81 261.63
-14 12 -1 1572.02 328.24
-14 12 1 1646.09 324.43
-14 -12 -1 1409.49 290.75
-12 14 -1 1363.8 341.59
-12 14 1 705.96 293.99
-14 12 1 1863.26 374.48
-12 14 -1 1097.61 329.86
-14 -12 2 820.45 246.49
-12 -14 2 746.57 244.99
-14 -12 -2 564.4 217.49
-12 -14 -2 502.93 218.21
-12 -14 2 845.29 258.07
-14 -12 2 1169.68 276.02
-14 12 -2 832.54 283.07
-12 14 -2 658.87 304.53
-12 -14 -2 824.46 261.95
-12 14 2 107.52 239.97
-14 -12 -2 752.04 242.78
-14 12 2 1119.7 311.34
-14 12 -2 18.91 283.56
-12 14 -2 -94.01 306.58
-14 -12 3 62.7 187.4
-12 -14 3 223.74 217.29
-12 -14 3 -11.7 187.51
-14 12 -3 -162.21 323.6
-14 -12 -3 259.91 171.57
-14 -12 3 502.98 227.78
-12 -14 -3 322.05 220.84
-14 12 -3 268.24 257.09
-12 14 -3 572.78 286.41
-12 -14 -3 58.66 183.06
-12 14 3 -194.04 224.42
-14 -12 -3 259.45 211.36
-12 14 -3 854.23 320.83
-12 -14 4 -208.41 210.62
-12 -14 4 -228.02 214.71
-14 -12 4 244.76 200.63
-14 -12 -4 301.83 177.98
-12 -14 -4 -70.21 178.2
-14 12 -4 470.27 262.01
-12 14 -4 840.23 298.43
-12 -14 -4 -45.51 192.96
-14 -12 -4 -59.61 195
-14 12 -4 -515.95 345.37
-12 14 -4 711.91 311.12
-14 -12 4 293.97 212.86
-14 -12 5 -174.9 216.08
-14 -12 -5 523.24 191.04
-12 -14 -5 317.51 184.25
-14 12 -5 1245.48 300.79
-12 14 -5 446.02 284.29
-12 -14 -5 470.79 206.1
-14 -12 -5 649.74 233.8
-14 12 -5 240.08 302.43
-12 14 -5 755.79 302.36
-12 -14 -5 -30.4 203.64
-14 -12 -5 456.1 214.15
-14 -12 5 455.86 223.86
-12 -14 5 370.73 192.67
-12 -14 5 505.46 236.02
-14 -12 -6 368.49 178.31
-12 -14 -6 541.83 192.39
-12 14 -6 1359.25 305.26
-12 -14 -6 682.65 223.78
-14 -12 -6 994.41 241.74
-12 14 -6 1157.51 333.83
-14 12 -6 18.92 283.87
-12 -14 -6 -1.44 199.8
-14 -12 -6 5.23 211.19
-14 -12 6 845.1 242
-12 -14 6 655.23 222.5
-14 -12 6 455.02 203.05
-12 -14 -7 1215.1 228.34
-12 -14 -7 1450.1 237.55
-14 -12 -7 1692.75 259.3
-14 12 -7 1481.04 313.12
-12 14 -7 2219.43 367.89
-12 -14 -7 19.19 236.88
-14 -12 -7 25.59 260.38
-14 -12 7 1425.5 263.14
-12 -14 7 1427.02 257.8
-12 -14 -8 475.63 169.25
-14 -12 -8 794.2 195.86
-14 12 -8 67.93 223.6
-12 14 -8 815.97 273.77
-12 -14 -8 5.14 189.34
-14 -12 -8 -15.55 177.57
-14 -12 8 439.88 180.08
-12 -14 8 633.6 189.94
-12 -14 -9 115.63 123.71
-14 -12 -9 265.33 153.01
-14 12 -9 29.44 204.1
-12 14 -9 467.35 216.49
-12 -14 -9 8.04 140.5
-14 -12 -9 2.91 152.35
-14 -12 9 168.7 141.21
-12 -14 9 302.46 148.83
-14 -12 -10 109.71 110.01
-14 12 -10 -184.5 158.46
-12 14 -10 -347.22 177.43
-14 -12 -10 10.02 112.51
-14 -12 10 9.24 107.22
-12 -14 10 4.69 105.18
-14 -13 0 57.01 180.76
-13 -14 0 -29.39 181.93
-13 -14 0 165.98 212.94
-14 -13 0 315.21 211.85
-14 13 0 201.55 255.65
-13 14 0 -16.25 230.32
-14 13 0 117.15 289.17
-13 14 0 195.73 274.62
-14 -13 1 304.72 196.96
-13 -14 1 273.14 208.83
-14 13 1 809.65 309.41
-14 -13 -1 437.21 200.93
-13 -14 -1 58.99 176.59
-13 -14 1 193.31 203.09
-14 -13 1 48.32 196.25
-13 -14 -1 68.7 205.73
-14 -13 -1 228.38 201.97
-14 13 -1 582.44 265.16
-14 13 1 416.78 248.08
-13 14 -1 521.14 278.72
-13 14 1 102.5 247.66
-14 13 -1 402.98 287.67
-13 14 -1 -76.96 277.73
-14 -13 2 1130.34 258.82
-13 -14 2 1186.76 276.45
-14 -13 -2 984.51 228.68
-13 -14 -2 1026.45 245.46
-13 -14 2 1196.47 273.01
-14 -13 2 1207.26 272.64
-14 13 -2 1701.73 323.68
-13 14 -2 1638.02 337.35
-13 -14 -2 1201.28 276.29
-14 -13 -2 1012.7 256.49
-13 14 2 1221.46 284.63
-14 13 -2 715.24 300.65
-13 14 -2 975.72 329.11
-14 -13 3 1021.1 243.95
-13 -14 3 1448 283.49
-13 -14 3 906.37 241.1
-14 -13 3 596.88 221.24
-14 -13 -3 906.44 228.27
-13 -14 -3 1010.85 236.19
-14 13 -3 1178.53 304.51
-13 -14 -3 905.55 235.74
-14 -13 -3 1085.66 254.14
-14 13 -3 864.07 308.5
-13 14 -3 355.86 282.57
-13 -14 4 633.83 228.15
-13 -14 4 271.66 194.86
-14 -13 4 146.63 194.96
-14 -13 -4 632.22 202.58
-13 -14 -4 736.94 204.29
-14 13 -4 1448.17 322.02
-13 14 -4 962.17 292.81
-13 -14 -4 621.63 210
-14 -13 -4 578.5 218.32
-13 14 -4 272.35 285.34
-14 13 -4 289.89 273.48
-14 -13 4 656.11 227.39
-14 -13 -5 190.57 153.05
-13 -14 -5 108.34 155.64
-14 13 -5 696.07 276.86
-13 14 -5 639.75 272.48
-13 -14 -5 -267.14 180.59
-14 -13 -5 -0.32 173.9
-14 13 -5 -515.88 297.33
-13 14 -5 -32.05 270.57
-14 -13 5 173.44 183.64
-13 -14 5 21.46 176.16
-13 -14 5 78.5 179.5
-14 -13 5 122.89 172.19
-14 -13 -6 2.13 133.04
-13 -14 -6 1.23 132.33
-13 -14 -6 217.66 169.87
-14 -13 -6 78.86 154.99
-14 13 -6 -55.65 254.74
-13 14 -6 -277.12 265.23
-14 -13 -6 -2.1 182.09
-14 -13 6 -211.48 173.76
-14 -13 6 19.92 166.46
-13 -14 6 -3.93 163.98
-13 -14 -7 -45.69 129.26
-13 -14 -7 190.06 155.83
-14 -13 -7 187.8 164.17
-14 13 -7 -420.66 281.78
-13 14 -7 -591.67 292.12
-14 -13 -7 1.9 151.71
-14 -13 7 144.06 182.35
-13 -14 7 17.59 153.27
-13 -14 -8 48.28 111.81
-13 -14 -8 98.52 130.25
-14 -13 -8 233.07 135.18
-14 13 -8 -192.73 225.1
-13 14 -8 -83.58 224.4
-14 -13 -8 -2.23 138.93
-14 -13 8 19.19 129.77
-13 -14 8 85.92 137.53
-14 -13 -9 191.35 119.22
-14 13 -9 -25.16 185.58
-13 14 -9 169.15 182.07
-14 -13 9 569.27 141.06
-13 -14 9 341.61 139.24
-14 14 0 7254.78 504.23
-14 14 0 6652.9 494.96
-14 -14 0 6302.46 445.6
-14 -14 0 6204.11 443.73
-14 -14 1 1101.34 244.46
-14 -14 -1 972.76 233.95
-14 -14 1 1097.96 254.6
-14 -14 -1 1070.04 242.6
-14 14 -1 2044.48 344.74
-14 14 1 2037.55 307.69
-14 14 -1 1313.88 325.2
-14 -14 2 625.81 218.44
-14 -14 -2 400.64 183.72
-14 -14 2 393.74 198.7
-14 14 -2 907.15 278.95
-14 -14 -2 207.95 176.45
-14 14 -2 221.33 256.33
-14 -14 3 272.61 198.92
-14 -14 3 -360.52 212.03
-14 -14 -3 -18.91 152.59
-14 14 -3 207.16 245.93
-14 -14 -3 -70.65 167.82
-14 14 -3 -296.5 265.86
-14 -14 4 247.94 178.28
-14 -14 -4 178.4 160.05
-14 14 -4 649.45 262.04
-14 -14 -4 -31.69 161.95
-14 14 -4 -379.45 282.92
-14 -14 4 157.39 175.9
-14 -14 -5 362.02 165.68
-14 -14 -5 531.91 198.66
-14 14 -5 158.61 239.43
-14 -14 5 11.82 155.08
-14 -14 5 420.88 192.09
-14 14 -6 1346.97 298.77
-14 -14 -6 1554.97 221.2
-14 -14 -6 1139.86 195.33
-14 -14 6 929.69 231.56
-14 -14 -7 762.29 152.21
-14 14 -7 1021.85 268.76
-14 -14 -7 1224.37 184.73
-14 -14 7 681.75 198
-14 14 -8 819.07 233.66
14 14 8 788.03 184.39
-14 -14 8 432.05 150.69
-14 14 -9 257.06 160.18
-14 -14 9 155.25 106.48
0 15 0 131.18 307.16
-15 0 0 -56.13 324.09
-15 0 0 66.28 209.78
-15 0 1 1093.08 278.74
-15 0 -1 1304.31 300.76
-15 0 -1 1625.77 400.89
0 15 1 1398.57 364.31
15 0 -1 1398.02 482.59
0 15 -1 889.45 291.24
0 15 -1 968.69 338.2
-15 0 1 1576.36 389.59
0 15 1 1229.07 266.84
0 15 -2 2834.4 400.59
-15 0 -2 3573.12 457.54
0 15 2 3176.27 440.54
15 0 -2 2967.52 646.99
0 15 -2 3465.95 415.77
0 15 2 3408.05 389.36
-15 0 -2 2785.96 501.64
-15 0 2 3857.31 400.45
-15 0 -2 3158.9 386.6
-15 0 3 761.46 287.36
0 15 -3 820.6 315.36
-15 0 -3 396.03 328.42
0 15 3 472.33 344.25
-15 0 -3 250.97 301.95
-15 0 -3 -26 238.98
0 15 -3 567.15 280.21
15 0 -3 49.66 469.7
-15 0 -3 -92.68 303.72
0 15 3 520.84 263.68
-15 0 4 104.2 205.37
15 0 -4 -342.76 456.12
0 15 -4 249.94 280.72
-15 0 -4 278.6 329.83
0 15 4 326.64 326.73
-15 0 -4 -184.33 293.75
-15 0 -4 -51.32 213.13
0 15 -4 -848.05 393.64
0 15 -4 160.64 240.47
-15 0 -4 -671.97 354.94
0 15 4 -113.09 224.82
-15 0 5 126.17 208.16
-15 0 -5 93.14 282.38
0 15 5 -6.52 324.89
-15 0 -5 79.72 218.38
0 15 -5 -481.48 344.93
0 15 -5 302.02 274.24
0 15 5 205.78 245.84
-15 0 6 249.01 217.13
0 15 6 58.31 301.41
-15 0 -6 160.85 205.63
0 15 -6 -157.32 310.72
0 15 -6 393.07 273.18
0 15 6 377.29 242.68
0 15 7 -144.3 294.52
-15 0 -7 148.76 218.12
0 15 -7 266.38 306.21
0 15 -7 161.7 233.48
0 15 7 46.39 214.18
-15 0 7 112.36 186.44
0 15 8 963.11 340.77
0 15 -8 897.68 327.86
0 15 -8 802.2 269.86
0 15 8 881.9 296.26
0 15 9 1451.44 331.79
0 15 -9 1349.57 348.25
0 15 -9 918.35 277.64
0 15 9 1195.32 294.83
-15 0 9 1012.42 226.7
0 15 10 436.55 248.12
0 15 -10 409.52 268.3
0 15 -10 377.16 203.92
0 15 10 322.89 216.26
0 15 11 139.96 193.7
0 15 -11 288.35 231.06
0 15 -11 -213.6 177.44
0 15 11 66.64 166.84
0 15 -12 144.29 179.9
0 15 12 -63.73 140.22
15 0 -12 -12.69 142.12
15 1 0 2175.43 546.94
-1 -15 0 1855.84 346.12
-15 -1 0 2713.7 426.43
-1 15 0 2684.71 422.43
1 15 0 2339.83 412.03
-15 1 0 2785.94 437.16
-1 15 0 2066.64 301.38
-15 1 0 2694.94 348.02
-15 -1 0 2905.65 367.43
-1 -15 1 -251.42 252.67
-15 1 1 -19.1 208.85
-15 -1 1 171.6 228.88
-15 1 -1 -142.87 218.86
-15 -1 -1 306.18 241.49
-1 15 -1 231.17 287.65
1 15 -1 132.71 285.66
-15 -1 -1 145.72 329.12
-15 1 -1 185.81 315.7
-15 1 1 32.54 316.29
1 15 1 27.1 303.23
-1 15 1 230.23 299.29
-1 15 -1 95.66 232.5
1 15 -1 -300.22 292.57
1 15 1 -75.13 234.3
-1 15 1 265.29 210.37
15 1 -1 -21.99 408.62
-15 1 -1 74.95 288.29
1 15 2 194.64 303.36
-15 1 2 343.17 228.52
15 -1 -2 160.03 477.82
-15 -1 -2 232.23 340.86
-15 -1 2 161.45 245.17
-15 1 -2 14.82 222.76
-1 15 -2 -43.66 322.1
-15 -1 -2 375.87 252.92
1 15 -2 91.13 293.67
-15 1 2 -483.01 400.94
-15 -1 -2 38.39 281.02
-15 1 -2 294.29 348.78
-1 15 2 -277.31 319.98
15 1 -2 -464.91 448.16
-1 15 -2 30.52 234.84
1 15 -2 373.03 246.02
1 15 2 99.92 211.04
-1 15 2 33.1 208.54
-15 -1 -2 23.91 310.7
-15 1 -2 176.55 291.1
-15 1 3 69.66 208.83
-15 -1 3 97.2 233.85
15 -1 -3 323.52 501.57
-1 15 -3 80.48 278.05
1 15 -3 285 277.88
-15 -1 -3 481.26 347.35
-15 -1 -3 387.9 299.82
-15 1 -3 391.88 351.89
-1 15 3 19.11 307.63
1 15 3 389.59 327.98
15 1 -3 586.62 446.75
-15 -1 -3 -85.81 238.32
-1 15 -3 -572.96 356.32
-1 15 -3 541.55 274.9
1 15 -3 153.01 250.12
-15 -1 -3 101.31 301.71
1 15 3 86.1 213.48
-1 15 3 -15.42 247.28
-15 1 -3 -101.56 330.08
-15 1 4 -19.91 203.68
-15 -1 4 399.53 235.56
15 -1 -4 622.43 487.6
15 -1 4 -465.64 681.23
-1 15 -4 459.57 298.39
15 1 -4 -185.46 493.47
-15 -1 -4 45.89 311.15
-15 1 -4 762.65 349.83
-1 15 4 -171.44 326.67
-15 -1 -4 70.98 300.81
1 15 4 118.62 326.68
-15 -1 -4 339.13 252.25
-1 15 -4 -158.53 343.76
-1 15 -4 171.87 254.66
1 15 -4 233.92 266.65
-15 -1 -4 -175.6 362.17
-15 1 -4 -315.57 384.74
1 15 4 -49.36 228.68
-1 15 4 18.02 224.77
-15 1 5 -44.59 227.52
-15 -1 5 526.73 242.71
-1 15 -5 83.47 312.55
-15 1 -5 17.3 303.01
-1 15 5 82.76 310.01
1 15 5 491.58 341.39
-15 -1 -5 217.36 231.67
-1 15 -5 -286.7 357.14
-1 15 -5 483.9 287.32
1 15 -5 203.05 266.5
1 15 5 298.26 252.45
-1 15 5 562.47 265.08
-15 -1 6 -234.04 228.89
-15 1 -6 126.38 262.47
-1 15 6 105.63 300.56
1 15 6 -103.29 311.99
-1 15 -6 -603.89 345.86
-15 -1 -6 -25.79 223.1
-1 15 -6 186.38 229.68
1 15 -6 185.47 265.73
1 15 6 -250.09 238.51
-1 15 6 -77.29 236.61
-15 1 6 -10.82 184.31
-1 15 7 441.76 319.98
1 15 7 360.24 336.76
-1 15 -7 137.87 288.72
-15 -1 -7 516.16 230.73
-1 15 -7 148.35 223.6
1 15 -7 583.22 271.64
1 15 7 148.86 218.12
-1 15 7 491.59 277.16
-15 -1 7 149.41 188.28
-1 15 8 45.96 281.09
1 15 8 850.05 363.73
-1 15 -8 195.35 309.24
-15 -1 -8 67.84 203.52
-1 15 -8 28.37 237.31
1 15 -8 -4.15 220.16
1 15 8 205.65 242.45
-1 15 8 215.71 232.95
-15 -1 8 66.32 183.91
-1 15 9 279.63 265.58
1 15 9 488.12 294.18
-1 15 -9 188.08 281.69
1 15 -9 90.74 272.79
-15 -1 -9 477.42 215.67
-1 15 -9 96.2 222.54
1 15 -9 -256.34 266.75
1 15 9 59.91 220.01
-1 15 9 328.49 227.59
-15 -1 9 180.23 186.35
-1 15 10 -221.48 225.43
1 15 10 405.65 260.92
-1 15 -10 15.43 241.26
1 15 -10 -341.6 266.74
-15 -1 -10 28.86 162.16
-1 15 -10 -104.95 187.81
1 15 -10 -144.26 209.96
1 15 10 103.9 195.79
-1 15 10 -88.94 203.34
-15 -1 10 -43.07 156.68
-1 15 11 -154.45 179.47
1 15 11 -100.27 192.33
-1 15 -11 -78.76 206.66
1 15 -11 92.23 216.33
1 15 -11 -257.35 182.46
1 15 11 -140.03 176.93
-1 15 11 56.13 182.47
15 -1 -11 -11.91 177.96
-1 15 -12 320.72 182.08
1 15 -12 226.43 182.52
1 15 12 43.92 130.32
1 15 12 306.71 147.14
-1 15 12 22.64 141.72
-15 1 12 204.64 136.85
15 -1 -12 4.42 119.84
15 1 -12 -1.69 140.65
-2 -15 0 125.37 258.72
15 2 0 -274.31 424.23
-15 -2 0 80.43 224.05
-2 15 0 -276.39 305.82
2 15 0 123.01 289.98
-15 2 0 162.31 322.36
-2 15 0 -118.16 228.38
-2 15 0 -149.33 224.64
-2 -15 1 1064.11 310.52
-15 -2 1 1008.32 262.91
-15 -2 -1 1034.82 279.49
-2 15 -1 662.49 323.73
-15 -2 -1 519.67 358.29
2 15 -1 1029.08 329.96
-15 2 1 897.73 354.8
-2 15 1 1125.54 350.3
-15 2 -1 939.54 362
2 15 1 1118.19 363.44
-2 15 -1 1092.46 270.35
2 15 1 889.71 251.47
-2 15 1 911.3 248.32
-15 2 -1 1760.19 428.18
15 2 -1 959.2 452.36
-2 -15 2 1010.16 320.32
-2 15 2 1127.11 344.94
-15 -2 2 845.23 275.73
15 -2 -2 1268.01 519.65
-2 15 -2 1060.62 340.87
-15 -2 -2 1433.44 319.53
2 15 -2 854.76 324.95
-15 2 2 730.65 348.05
-15 -2 -2 692.26 333.14
-15 2 -2 1064.02 375.92
2 15 2 957.74 367.46
-15 -2 -2 843.2 272.49
-2 15 -2 1058.05 295.1
2 15 -2 1001.2 290.64
15 2 -2 1420.73 477.26
2 15 2 1467.23 317.02
-2 15 2 1327.68 293.04
-15 2 -2 1093.34 404.83
-2 -15 3 226.88 287.25
-15 -2 3 714.61 278.03
15 -2 -3 101.24 469.73
-2 15 -3 469.22 321.84
-15 -2 -3 401.08 307.86
-15 -2 -3 148.35 297.03
-15 2 -3 800 359.91
2 15 3 367.41 341.79
-2 15 -3 633.23 339.73
15 2 -3 820.43 453.67
-2 15 -3 375.87 258.57
2 15 -3 153.74 267.24
-15 -2 -3 518.77 292.09
-2 15 3 454.22 341.73
2 15 3 519.98 251.02
-15 -2 -3 8.18 217.31
-2 15 3 467.8 225.73
-15 2 -3 575.37 372.42
-15 -2 4 59.31 216.44
15 -2 -4 422.39 524.83
-15 2 -4 271.51 301.44
15 -2 4 485.26 608.65
-2 15 -4 192.76 293.07
-15 -2 -4 505.11 333.31
-2 15 4 -48.92 314.04
2 15 4 -41.12 327.36
15 2 -4 459.57 459.36
-15 -2 -4 161.41 242.75
-2 15 -4 -253.38 334.64
-2 15 -4 324.79 259.29
2 15 -4 277.92 264.81
-15 -2 -4 -153.66 336.92
2 15 4 142.58 222.74
-15 2 -4 244.51 341.96
-2 15 4 -114.88 225.74
-15 2 5 -21.54 193.09
-15 -2 5 -158.72 219.85
-2 15 -5 -58.1 297.76
-15 2 -5 47.52 297.97
-2 15 5 5.92 305.86
2 15 5 355.5 351.98
-2 15 -5 20 303.32
-15 -2 -5 -71.88 213.92
-2 15 -5 76.95 241.6
2 15 -5 114.43 252.31
2 15 5 94.92 242.2
-2 15 5 16.72 229.73
-15 -2 6 18.65 215.07
-15 2 -6 458.55 293.94
-2 15 -6 443.03 303.8
-2 15 6 352.53 311.15
-2 15 -6 41.06 308.92
-15 -2 -6 252.12 226.49
-2 15 -6 248.64 251.86
2 15 -6 440.48 276.51
2 15 6 -188.91 224.73
-2 15 6 -132.76 242.69
-15 2 6 -193.6 207
-2 15 7 -187.74 284.96
-2 15 -7 217.44 305.33
-15 -2 -7 86.21 197.08
-2 15 -7 45.25 220.81
2 15 -7 181.41 235.99
2 15 7 -19.17 222.48
-2 15 7 160.61 241.68
-15 -2 7 323.3 218
-15 -2 7 12.98 206.49
-2 15 8 566.29 298.83
2 15 8 704.81 344.26
-2 15 -8 83.23 299.55
-15 -2 -8 272.94 206.67
-2 15 -8 188.35 227.21
2 15 -8 173.65 233.43
2 15 8 -98.96 214.67
-2 15 8 472.47 255.26
-15 -2 8 263.63 204.4
-2 15 9 270.48 253.39
2 15 9 606.42 334.63
-2 15 -9 -254.77 283.7
-15 -2 -9 115.4 195.38
-2 15 -9 89.72 204.63
2 15 -9 -227.32 237.24
2 15 9 -20.58 215.09
-2 15 9 36.15 211.67
-15 -2 9 185.35 179.61
-2 15 10 -151.07 208.6
2 15 10 440.45 269.41
-2 15 -10 -44.9 242.6
2 15 -10 -109.28 275.83
-15 -2 -10 -13.09 160.33
-2 15 -10 -522.1 217.66
2 15 -10 -97.52 202.46
2 15 10 -69.84 197.72
-2 15 10 -115.07 194.09
-15 -2 10 69.06 155.95
2 15 11 36.62 187.31
-2 15 -11 223.17 214.12
2 15 -11 -55.28 221.15
-15 -2 -11 -21.82 135.64
2 15 -11 -376.94 180.83
2 15 11 -67.17 162.25
-2 15 11 -107.54 184.78
15 -2 -11 -2.15 166.06
2 15 12 146.73 143.78
-2 15 -12 111.65 172.92
2 15 -12 -79.18 170.87
2 15 12 96.74 125.07
-2 15 12 55.69 135.63
-15 2 12 -26.76 115.84
15 -2 -12 -2.13 118.04
15 2 -12 0.11 146.88
-3 -15 0 -7.51 249.38
-15 -3 0 162.9 230.86
15 3 0 284.33 447.98
-3 15 0 184.89 306.66
-15 3 0 620.42 363.16
3 15 0 528.61 324.56
-3 15 0 61.56 219.2
-15 3 0 -500.04 374.45
-3 -15 1 1118.24 318.14
-15 3 -1 1514.16 380.68
-3 -15 -1 1244.47 319.62
-15 -3 1 847.29 267.64
-15 -3 -1 512.22 323.52
-15 -3 -1 1021.65 282.02
-3 15 -1 1012.09 329.61
-3 15 1 1049.74 357.65
3 15 -1 885.91 329.68
-15 3 1 1011.04 366.71
3 15 1 1156.33 366.04
-3 15 -1 1131.35 303.56
-3 15 1 837.61 239.3
3 15 1 455.95 217.01
15 3 1 1359.6 471.85
-3 15 1 1018.89 264.58
-15 3 -1 1300.73 414.24
15 3 -1 603.03 424.63
-3 -15 2 282.3 302.79
-15 -3 2 87.86 225.91
-3 15 -2 205.45 314.53
-15 -3 -2 -182.62 362
-15 -3 -2 505.63 262.53
-15 3 2 -89.08 325.61
-3 15 2 350.42 303.25
-15 3 -2 572.14 347.65
3 15 2 141.13 343.32
-15 -3 -2 -81.65 253.51
-3 15 -2 118.9 239.98
3 15 -2 -49 232.59
3 15 2 -308.77 258.77
-3 15 2 256.44 237.53
-15 3 -2 -179.79 329.69
15 3 -2 311.44 489.02
-3 -15 3 335.85 279.85
15 -3 -3 853.61 589.85
-15 -3 3 733.64 274.7
-3 15 3 334.82 326.06
-3 15 -3 406.31 309.79
-15 -3 -3 517.12 339.67
-15 3 3 71.74 338.97
3 15 3 295.57 359.85
-3 15 -3 862.4 357.84
-15 -3 -3 563.6 244.24
-15 3 -3 516.58 326.8
-3 15 -3 404.63 273.24
3 15 -3 563.01 283.22
15 3 -3 45.3 396.4
3 15 3 381.7 250.49
-3 15 3 331.06 249.41
-15 3 -3 535.35 355.88
-3 -15 4 -106.54 270.22
15 -3 -4 70.86 486.16
-15 -3 4 261.57 239.37
15 -3 4 1208.2 630.41
-3 15 -4 285.68 291.73
-3 15 4 -289.21 327.43
-15 -3 -4 -284 362.2
-15 3 -4 -52.59 318.88
3 15 4 -84.97 346.65
-15 -3 -4 -44.14 211.09
15 3 -4 308.22 436
-3 15 -4 278.25 241.96
3 15 -4 8.25 248.55
-15 -3 -4 -309.06 339.03
3 15 4 -13.73 215.48
-3 15 4 -130.85 246.22
-15 3 -4 237.51 327.41
-3 15 -4 275.44 307.74
-3 -15 5 -170.83 268.65
-15 -3 5 -138.65 218.77
-3 15 -5 -374.52 348.77
-3 15 5 -53.15 312.61
-15 3 -5 84.64 291.35
-3 15 -5 -100.47 312.03
-15 -3 -5 175.41 232.25
-3 15 -5 129.91 228.8
3 15 -5 105.77 256.9
3 15 5 274.61 236.02
-3 15 5 46.67 246.57
-15 -3 6 -199.6 244.82
-15 3 -6 -291.91 285.88
-3 15 6 -49.79 286.29
-3 15 -6 200.85 272.85
-3 15 -6 110.37 305.84
-15 -3 -6 223.03 225.76
-3 15 -6 18.57 219.22
3 15 -6 178.15 244.25
3 15 6 254.39 219.19
-3 15 6 104.87 244.55
-15 -3 6 90.19 205.01
-3 -15 6 -219.08 299.1
-3 15 -7 1093.72 331.46
-3 15 7 -48 263.08
-3 15 -7 -189.44 321.45
-15 -3 -7 465.67 243.18
-3 15 -7 -68.86 206.03
3 15 -7 550.59 268.08
-15 3 -7 -70.87 277.11
3 15 7 -28.03 228.44
-3 15 7 338.73 281.1
-15 -3 7 7.21 197.71
-15 -3 7 72.07 195.93
-3 15 8 -177.13 271.35
-3 15 -8 -109.95 291.89
-15 -3 -8 59.16 200.13
-3 15 -8 -49.23 208.17
3 15 -8 -84.91 226.56
3 15 8 -117.12 231.68
-3 15 8 -43.29 233.25
-15 -3 8 277.07 198.35
-3 15 9 20.08 236.64
3 15 9 581.58 328
-3 15 -9 282.19 292.38
-15 -3 -9 83.77 193.14
-3 15 -9 129.16 198.85
3 15 -9 -236.64 238.1
3 15 9 47.85 206.76
-3 15 9 -115.82 211.89
-15 -3 9 -2.85 179.41
-3 15 10 93.99 199.85
3 15 10 796.38 299.82
-3 15 -10 372.37 276.07
3 15 -10 388.84 265.45
-15 -3 -10 357.98 184.41
-3 15 -10 189.77 177.71
3 15 -10 318.85 193.14
3 15 10 618.2 217.03
-3 15 10 308.7 210.69
-15 -3 10 65.41 158.69
15 -3 -10 -12.69 175.84
3 15 11 497.78 223.65
-3 15 -11 453.43 222.26
3 15 -11 86.88 219.55
-15 -3 -11 116.63 142.61
3 15 -11 -145.96 158.33
3 15 11 276.15 170.03
-3 15 11 30.25 165.99
-15 3 11 33.86 135.17
15 -3 -11 2.22 154.78
3 15 12 -181.66 146.26
-3 15 -12 -132.67 167.39
3 15 -12 153.12 181.42
3 15 12 39.26 111.41
-3 15 12 12.83 133.39
-15 3 12 22.33 108.78
15 3 -12 -14.27 161.88
-4 -15 0 -256.78 257.18
-15 -4 0 151.35 332.29
-15 -4 0 -41.69 216.11
-4 15 0 -299.78 322.27
-15 4 0 369.61 327.83
4 15 0 -138.47 294.72
15 4 0 -536.68 413.11
-4 15 0 2.11 224.22
-15 4 0 -594.16 346.8
-4 -15 1 -26.37 235.22
-4 -15 -1 -41.5 232.61
15 4 -1 -329.32 398.8
-15 -4 1 389.25 242.92
-15 -4 -1 588.11 366.37
-15 -4 -1 521.85 257.53
-4 15 -1 36.89 288.15
-4 15 1 -430.64 341.38
4 15 -1 471.25 268.12
-15 4 1 498.85 342.83
-15 4 -1 307.34 323.77
4 15 1 427.87 323.16
-4 15 -1 370.65 252.37
-4 15 1 -154.66 247.62
-15 4 -1 269.23 346.47
15 4 1 -63.36 372.72
-4 -15 2 292.63 268.88
-15 4 -2 180.84 328.23
-15 -4 2 207.02 245.27
-15 -4 -2 430.74 344.19
-4 15 -2 705.89 325.73
-15 -4 -2 509.89 265.49
-4 15 2 782.45 365.06
-15 4 2 513.81 363.87
-15 -4 -2 135.7 216.82
-4 15 -2 785.76 289.17
4 15 -2 -70.85 263.39
4 15 2 284.15 224.72
-4 15 2 504.05 246.31
-15 4 -2 431.4 384.19
15 4 -2 449.33 442.01
4 15 2 422 339
-4 -15 3 861.3 313.37
-15 -4 3 552.73 252.88
15 -4 3 366.49 407.63
-4 15 -3 810.69 346.33
-15 4 -3 172.82 313.35
-15 -4 -3 268.52 314.22
-15 4 3 774.21 351.31
-4 15 3 413.05 325.73
4 15 3 172.21 363.07
-4 15 -3 997.73 346.17
-15 -4 -3 644.17 262.41
-4 15 -3 1025.64 286.84
4 15 -3 387.23 271.31
4 15 3 505.16 279.22
-4 15 3 488.8 253.64
-15 4 -3 167.07 358.5
15 4 -3 862.07 511.48
-4 -15 4 1149.7 335.89
-15 -4 4 1229.65 304.84
-4 15 -4 750.88 310.25
-15 4 -4 911.04 348.68
-4 15 4 1046.7 382.64
-4 15 -4 1129.78 366.24
-15 -4 -4 1065.34 288.45
-4 15 -4 1039.05 292.48
4 15 -4 829.22 302.11
4 15 4 829.38 294.93
-4 15 4 386.76 229.98
-4 -15 5 414.04 298.93
-15 -4 5 311.33 228.91
-4 15 -5 -221.7 298.59
-4 15 5 768.86 352.74
-15 4 -5 -166.93 311.7
-4 15 -5 658.45 337.3
-15 -4 -5 280.05 232.9
-4 15 -5 160.74 233.82
4 15 -5 351.65 264.1
4 15 5 172.42 239.48
-4 15 5 183.75 221.36
-15 -4 5 212.74 206.1
-15 -4 6 -193.98 231.03
-4 15 -6 476.1 282.45
-4 15 6 161.47 272.53
-15 4 -6 -23.76 294.45
-4 15 -6 381.14 307.01
-15 -4 -6 184.87 219.64
-4 15 -6 11.19 203.12
4 15 -6 198.16 237.99
4 15 6 493.62 253.1
-4 15 6 339.2 235.71
-15 -4 6 210.3 202.19
-4 -15 6 -156.44 300.37
-4 15 7 -225.82 276.57
-4 15 -7 777.17 311.06
-15 4 -7 164.74 284
-4 15 -7 240.56 311.33
-15 -4 -7 103.14 216.58
-4 15 -7 -180.61 230.78
4 15 -7 192.45 243.87
4 15 7 308.08 229.81
-4 15 7 185.34 234.95
-15 -4 7 19.96 208.39
-4 -15 7 433.45 281.79
-15 -4 7 -95.93 200.3
-4 15 -8 288.38 261.58
-4 15 8 -284.28 263.34
-4 15 -8 572.11 319.06
-15 -4 -8 92.75 204.19
-4 15 -8 146.23 201.02
4 15 -8 9.57 219.08
-15 4 -8 197.66 245.94
4 15 8 427.5 233.46
-4 15 8 33.02 220.1
-15 -4 8 177.02 198
-4 -15 8 -241.91 231.67
-4 15 9 176.48 218.2
-4 15 -9 -248.58 270.23
-15 -4 -9 2.84 187.64
-4 15 -9 22.28 191.03
4 15 -9 -134.92 223.72
4 15 9 194.97 209.2
-4 15 9 -4.28 210.8
-15 -4 9 154.16 177.34
4 15 10 210.51 263.32
-4 15 -10 652.82 260.02
-15 -4 -10 242.72 176.59
-4 15 -10 -408.77 192.1
4 15 -10 -112.15 181.49
4 15 10 201.18 188.1
-4 15 10 -44.69 185.56
-15 4 10 81 154.77
-15 -4 10 -32.93 159.61
4 15 11 35.53 196.39
-4 15 -11 138.27 201.81
4 15 -11 -149.18 210.93
-15 -4 -11 50.14 142.37
4 15 11 -33.88 149.4
-4 15 11 77.93 161.83
-15 4 11 -6.77 206.15
-15 -4 11 361.78 146.59
4 15 12 -57.22 143.41
-4 15 -12 -291.87 163.54
-15 -4 -12 78.62 103.69
4 15 -12 36.3 169.08
4 15 12 63.87 102.81
-4 15 12 49.77 125.11
15 4 -12 -2.12 144.44
-5 -15 0 2223.5 349.51
-5 15 0 2088.33 399.95
-15 5 0 3311.66 483.94
5 15 0 2168.56 360.48
15 5 0 2698.66 565.53
-15 5 0 2310.64 497.75
-15 -5 0 2635.89 370.38
-5 -15 1 -44.63 215.86
-5 -15 -1 -138.92 224.67
15 5 1 -241.8 403.23
-15 -5 1 214.95 371.7
-15 -5 1 20.36 227.6
-15 -5 -1 -234.52 333.56
-15 -5 -1 193.59 228.85
-5 15 -1 12.87 299.91
15 5 -1 116.72 397.9
-5 15 1 -146.9 340.3
-15 5 1 432.6 362.33
-15 5 -1 94.61 327.31
5 15 1 124.98 303.26
-5 15 -1 141.99 239.25
-15 5 -1 -176.1 361.53
-15 5 1 216.79 360.02
-5 -15 2 478.62 262.16
15 5 -2 189.26 422.16
-15 -5 2 509.47 245.96
-15 -5 -2 -31.69 355.14
-5 15 -2 297.7 306.21
-15 -5 -2 630.32 268.38
-5 15 2 12.76 330.45
-15 5 2 454.53 331.69
5 15 2 222.79 346.24
-15 5 -2 143.33 321.97
15 -5 2 -856.35 371.08
-5 15 -2 695.42 263.71
5 15 -2 -47.04 232.01
-15 5 -2 686.88 406.76
-15 -5 -2 -22.03 228.8
-5 -15 3 1876.25 369.5
-15 -5 3 1825.86 342.91
15 -5 3 72.99 364.97
-5 15 -3 2028.31 394.12
-15 -5 -3 1122.23 414.28
-5 15 3 1710.6 386.67
-15 5 3 972.4 350.73
5 15 3 1602.99 420.32
-5 15 -3 2376.46 409.65
-15 -5 -3 1210.87 302.55
-15 5 -3 971.06 363.29
-5 15 -3 1694.42 320.71
5 15 -3 1495.12 309.63
5 15 3 1304.42 295.55
-5 15 3 1678.92 320.36
-15 5 -3 1716.08 515.14
15 5 -3 768.13 482.42
-5 -15 4 537.61 282.34
-15 -5 4 1096.81 290.91
-5 15 -4 259.17 313.73
-5 15 4 1226.09 371.34
-15 5 -4 365.72 313.95
-5 15 -4 1212.36 384.09
-15 -5 -4 866.62 269.46
-5 15 -4 1002.41 278.44
5 15 -4 653.36 267.37
5 15 4 692.55 276.89
-5 15 4 636.08 274.03
-15 -5 4 1126.13 295.85
-5 -15 5 625.86 302.6
-15 -5 5 762.32 256.04
-5 15 -5 477.94 301.06
-5 15 5 586.7 325.05
-15 5 -5 282.08 288.35
-5 15 -5 995.27 349.96
-15 -5 -5 713.07 263.49
-5 15 -5 693.45 247.56
5 15 -5 1261.01 304.32
5 15 5 623.84 267.94
-5 15 5 683.86 274.68
-15 -5 5 864.19 268.02
-15 -5 6 660.78 248.58
-5 15 -6 892.03 312.23
-5 15 6 814.84 311.21
-15 5 -6 77.96 282.46
-5 15 -6 745.13 346.08
-15 -5 -6 506.44 249.39
-5 15 -6 253.91 217.46
5 15 -6 818.2 274.9
5 15 6 466.12 241.46
-5 15 6 527.79 269.03
-15 -5 6 515 225.43
-5 -15 6 521.84 286.66
-5 15 -7 592.72 295.86
-5 15 7 256.44 249.89
-15 5 -7 -114.05 273.64
-5 15 -7 117.83 299.08
-15 -5 -7 -95.81 208.68
-5 15 -7 68.8 209.26
5 15 -7 487.17 253.22
5 15 7 408.54 233.83
-5 15 7 15.7 222.63
-15 -5 7 143.39 191.51
-5 -15 7 73.46 255.7
-15 -5 7 -122.18 220.04
-5 15 -8 520.45 274.46
-5 15 8 34.42 228.61
-15 5 -8 -45.02 243.06
-5 15 -8 -21.08 291.56
-15 -5 -8 93.34 219.55
-5 15 -8 92.84 200.43
5 15 -8 70.41 202.1
5 15 8 -74.65 200.05
-5 15 8 65.25 224.67
-15 -5 8 79.68 190.41
-5 -15 8 130.69 237.8
-15 5 -9 389.44 232.04
-5 15 -9 -24.7 273.51
-15 -5 -9 72.29 183.92
-5 15 -9 38.57 179.71
5 15 -9 105.05 211.87
5 15 9 201.72 204.02
-5 15 9 16.33 201.37
-15 -5 9 96.1 166.17
-5 -15 9 232.7 210.62
-5 15 -10 256.04 227.67
-15 -5 -10 -148.27 173.53
5 15 -10 -207.99 173.16
5 15 10 -69.56 165.35
-5 15 10 -94.83 183.88
-15 -5 10 -43.63 162.68
5 15 11 309.46 217.91
-5 15 -11 -53.77 187.63
-15 -5 -11 0.88 121.87
5 15 -11 -251.7 222.69
5 15 11 -86.05 153.09
-5 15 11 -6.41 157.54
-15 5 11 -39.76 128.52
-15 -5 11 -34.17 127.43
5 15 12 70.39 138.14
-5 15 -12 32.55 143.34
-15 -5 -12 160.95 103.73
5 15 -12 -33.35 160.9
-5 15 12 -5.88 117.1
15 5 -12 -14.91 136.48
-6 -15 0 183.58 226.28
-15 -6 0 422.43 427.26
-15 -6 0 50.2 232.39
-6 15 0 6.22 303.38
-15 6 0 539.98 352.67
-15 6 0 -35.05 333.33
15 6 0 -325.48 392.28
-6 -15 1 -64.23 214.42
-6 -15 -1 -91.05 237
-15 -6 1 118.98 389.57
-15 -6 1 313.4 245.3
-15 6 -1 -53.7 325.09
15 -6 1 -220.5 307.48
-15 -6 -1 -307.26 401.69
-15 -6 -1 243.85 236.17
-6 15 -1 178.7 302.37
-6 15 1 -148.96 305.4
-15 6 1 364.26 362.07
6 15 1 242.22 328.98
15 6 1 -369.21 329.52
15 6 -1 358.85 411.2
-15 6 -1 -405.08 433.23
-15 6 1 231.68 342.64
-6 -15 2 184.94 231.05
-6 -15 -2 394.29 243.09
-15 -6 2 60.32 231.29
15 -6 2 84.11 309.49
-15 -6 -2 34.45 332.15
-6 15 -2 604.49 332.75
15 6 -2 598.46 430.49
-15 -6 -2 523.1 260.69
-6 15 2 -202.63 330.57
-15 6 2 206.28 310.11
-15 6 -2 381.24 337.66
-15 -6 -2 -71.33 232.83
-6 15 -2 17.86 300.1
6 15 -2 101.64 232.36
-15 6 -2 718 384.81
6 15 2 414.99 310.89
-6 -15 3 333.51 237.22
-15 -6 3 802.02 272.13
-6 15 -3 -133.85 328.41
-6 15 3 106.49 306.21
-15 6 3 -70.98 318.72
-15 6 -3 -264.99 335.02
-6 15 -3 -238.3 299.66
-15 -6 -3 12.86 210.26
-6 15 -3 482.77 227.64
6 15 -3 325.9 248.88
6 15 3 -6.26 249.93
-15 -6 3 496.51 247.45
-6 -15 4 441.79 279.3
-15 -6 4 535.8 241.05
-6 15 -4 280.78 288.02
-6 15 4 -371.53 331.85
-15 6 -4 56.58 322.49
-6 15 -4 750.33 319.9
-15 -6 -4 8.84 211.49
-6 15 -4 401.42 236.86
6 15 -4 611.65 264.74
6 15 4 254 230.67
-6 15 4 303.72 237.89
-15 -6 4 454.29 236.54
-6 -15 5 263.62 247.82
-15 -6 5 -43.27 213.13
-6 15 -5 -298.9 303.15
-6 15 5 -373.34 293.32
-15 6 -5 70.65 312.24
-6 15 -5 517.04 290.35
-15 -6 -5 25.65 213.73
-6 15 -5 78.87 209.13
6 15 -5 323.09 243.27
6 15 5 -33.26 236.52
-6 15 5 369.6 258.62
-15 -6 5 -167.3 216.55
-15 -6 6 -280.49 241.47
-6 15 -6 76.67 261.26
-6 15 6 100.4 247.08
-15 6 -6 87.51 296.08
-6 15 -6 513.56 328.33
-15 -6 -6 356.78 233.11
-6 15 -6 -125.37 220.31
6 15 -6 157.5 238.27
6 15 6 -71.97 212.29
-6 15 6 21.6 224.06
-15 -6 6 532.57 226.27
-6 -15 6 201.91 245.24
-6 15 -7 1055.88 327.56
-6 15 7 -59.76 234.39
-15 6 -7 -151.94 264.57
-6 15 -7 370.9 315.42
-15 -6 -7 491.46 236.57
-6 15 -7 179.34 216.19
6 15 -7 358.12 232.89
6 15 7 11.16 203.76
-6 15 7 281.24 224.7
-15 -6 7 321.93 204.7
-6 -15 7 29.87 240.29
-15 -6 7 78.12 192.15
-6 15 -8 266.13 249.19
-6 15 8 384.3 219.4
-15 6 -8 -29.92 247.5
-6 15 -8 -2.32 289.19
-15 -6 -8 -116.67 194.97
-6 15 -8 -59.67 183.89
6 15 -8 -173.4 209.59
6 15 8 -222.18 198.89
-6 15 8 3.16 210.1
-15 -6 8 3.19 178.82
-6 -15 8 -27.93 246.4
-15 6 -9 4.53 217.41
-6 15 -9 -325.59 278.94
-15 -6 -9 24.94 174.52
-6 15 -9 -351.21 199.4
6 15 -9 232.85 186.15
6 15 9 740.49 207.74
-6 15 9 57.33 193.92
-15 -6 9 272.14 174.11
-6 -15 9 611.81 235.36
-6 15 -10 120.43 210.91
-15 -6 -10 -94.98 151.43
6 15 -10 -157.21 169.54
6 15 10 -279.37 166.02
-6 15 10 193.78 177.4
-15 -6 10 150.32 153.55
-6 -15 10 363.29 184.86
6 15 11 276.98 204.19
-6 15 -11 -209.25 182.79
-15 -6 -11 1.05 122.17
6 15 -11 -287.48 215.19
-6 15 11 69.64 145.38
-15 -6 11 -4.58 117.97
6 15 12 -12.69 125.8
-6 15 -12 145.82 131.99
6 15 -12 42.22 136.22
-6 15 12 -6.25 103.24
15 6 -12 -1.91 132.06
-7 -15 0 381.01 236.11
-15 -7 0 300.13 236.31
-7 15 0 294.63 316.84
-15 7 0 754.65 355.9
-7 -15 1 194.49 223.13
-7 -15 -1 380.27 233
-15 -7 1 186.93 218.3
-15 -7 -1 308.91 243.1
-7 15 -1 407.51 322.24
-7 15 1 178.33 312.35
-15 7 1 255.9 323.84
7 15 1 141.74 272.83
-15 7 -1 252.29 314.58
-15 -7 2 43.32 204.83
-7 -15 2 -182.41 213.31
-7 -15 -2 92.35 230.79
-15 7 -2 566.32 280.28
-15 -7 2 24.6 216.76
-7 15 -2 324.53 323.01
-15 -7 -2 319.58 229.48
-7 15 2 -110.85 300.73
-15 7 2 263.77 306.95
-15 7 -2 162.72 303.38
7 15 2 -112.99 298.31
-7 15 -2 96.08 281.75
7 15 -2 -54.88 231.72
-7 -15 3 -304.91 255.11
-7 -15 -3 -323.29 242.43
-15 7 3 -409.02 302.3
-15 -7 3 477.01 249.62
-7 15 -3 -759.32 339.32
-7 15 3 -75.43 303.8
-15 -7 -3 -19.33 219.98
-15 7 -3 -201.81 328.67
-7 15 -3 -272.93 297.27
-15 -7 -3 -274.63 222.02
7 15 -3 16.01 208.29
-15 -7 3 -25.12 211.02
-7 15 4 3226.08 452.95
-7 15 -4 3001.4 417.73
-15 7 -4 2459.78 417.26
-15 -7 -4 3387.5 394.67
-7 15 -4 2395.78 392.55
-7 15 -4 3342.65 371.29
7 15 -4 3894.57 408.46
7 15 4 2553.14 372.1
-15 -7 4 2979.22 376.01
-7 -15 4 3016.58 408.83
-15 -7 4 3145.86 399.43
-7 15 -5 5228.06 498.61
-7 15 5 3970.16 456.52
-15 7 -5 3705.77 469.05
-7 15 -5 3511.01 436.6
-15 -7 -5 3405.99 405.71
-7 15 -5 4688.02 410.96
7 15 -5 3938.97 422.03
7 15 5 3766.78 417.08
-7 15 5 4530.67 444.47
-15 -7 5 4282.77 413.43
-7 -15 5 4385.63 468.29
-15 -7 5 4124.87 434.45
-15 -7 6 666.01 242.77
-7 15 -6 1109.71 317.17
-7 15 6 652.41 273.52
-15 7 -6 534.21 303.27
-7 15 -6 862.67 320.16
-15 -7 -6 775.11 270.9
-7 15 -6 1054.06 265.81
7 15 -6 1032.17 273.92
7 15 6 517.66 239.57
-7 15 6 795.85 262.47
-15 -7 6 873.7 260.85
-7 -15 6 1115.82 308.32
-7 15 -7 684.04 285.69
-7 15 7 84.14 201.54
-15 7 -7 -65.28 266.73
-7 15 -7 -389.26 326.31
-15 -7 -7 -2.8 195.33
-7 15 -7 204.67 191.9
7 15 -7 325.85 227.56
7 15 7 145.61 194.14
-7 15 7 289.94 221.08
-15 -7 7 236.36 219.68
-7 -15 7 205.59 231.37
-15 -7 7 52.75 194.39
-7 15 -8 505.23 276.07
-15 7 -8 -158.94 250.16
-7 15 -8 -306.49 285.71
-15 -7 -8 205.05 189.27
-7 15 -8 -512.55 209.56
7 15 -8 5.6 185.23
7 15 8 -377.99 208.38
-7 15 8 342.06 217
-15 -7 8 -30.25 171.07
-7 -15 8 75.55 229.91
-15 7 -9 73.15 213.75
-7 15 -9 -300.2 280.62
-15 -7 -9 -56.76 171.82
7 15 -9 190.51 174.94
7 15 9 -74.78 164.34
-7 15 9 79.03 183.97
-15 -7 9 158.64 162.39
-7 -15 9 436.4 216.87
-7 15 -10 -205.29 206.92
-15 -7 -10 -1.46 147.23
-7 15 10 -170.61 172.14
-15 -7 10 3.95 131.63
-7 -15 10 -6.12 175.62
7 15 11 101.48 186.71
-7 15 -11 100.13 165.63
-15 -7 -11 41.5 124.43
-7 15 11 -49.64 127.89
-15 -7 11 114.33 124.58
-15 -8 0 -180.66 192.04
-8 -15 0 -7.66 199.4
-15 -8 0 124.27 216.73
-8 15 0 76.31 297.86
-15 8 0 184.31 302.59
-15 -8 1 147.35 209.2
-8 -15 1 -26.4 199.34
-8 -15 -1 229.8 218.7
-15 8 -1 299.05 268.12
-15 -8 1 -88.89 227.31
-15 -8 -1 273.84 227.56
-8 15 -1 138.18 289.62
-8 15 1 100.65 288.42
-15 8 1 392.81 342.36
-15 8 -1 23.01 308.55
-15 -8 2 1027.1 277.18
-8 -15 2 1040.55 278
-8 -15 -2 1410.82 296.28
-15 8 -2 1352.48 314.77
-15 -8 2 1489.32 312.72
-8 15 -2 352.74 290.97
-15 -8 -2 1181.18 281.4
-8 15 2 849.87 345.02
-15 8 2 1266 359.35
-15 8 -2 628.56 334.74
8 15 2 846.28 301.59
-8 15 -2 1199.61 331.7
8 15 -2 1281.47 288.6
-8 -15 3 809.34 265.44
-8 -15 -3 895.55 262.51
-15 -8 3 962.52 272.22
-15 8 -3 1767.13 348.31
-8 15 -3 227.21 276.4
-8 15 3 744.05 315.83
-15 -8 -3 1307.41 300.88
-15 8 3 709.42 310.1
-8 15 -3 560.94 283.12
-15 8 -3 669.1 346.81
-15 -8 -3 1124.76 279.84
8 15 -3 1018.09 263.09
-15 -8 3 949.74 255.92
-8 -15 4 989.53 278.15
-15 -8 4 720.55 245.18
-8 -15 -4 555.85 237.96
-8 15 -4 139.82 272.8
-8 15 4 247.17 266.07
-15 8 -4 56.59 325.02
-8 15 -4 224.98 277.78
-15 -8 -4 224.8 217.66
8 15 -4 912.22 263.18
-15 -8 4 341.82 214.9
-8 -15 5 213.67 230.12
-15 -8 5 1.3 199.74
-8 15 -5 93.54 274.87
-8 15 5 -266.25 266.6
-15 8 -5 -436.73 340.99
-8 15 -5 -564.93 320.48
-15 -8 -5 -82.31 209.14
8 15 -5 127.08 218.89
-15 -8 5 -19.96 190.19
-15 -8 6 -219.33 220.32
-8 15 -6 254.39 266.88
-8 15 6 135.87 212.98
-15 8 -6 -14.67 298.21
-8 15 -6 -400.83 316.89
-15 -8 -6 -220.92 213.41
-8 15 -6 -47.6 185.18
8 15 -6 357.63 209.79
-8 15 6 -110.12 198.67
-15 -8 6 43.69 190.32
-8 -15 6 67.51 215.74
-8 15 -7 947.56 291.1
-15 8 -7 -195.56 302.78
-8 15 -7 -220.18 307.27
-15 -8 -7 -38.86 195.98
-8 15 -7 -86.11 170.72
8 15 -7 124.33 192.66
-8 15 7 -176.84 201.3
-15 -8 7 101.73 196.85
-8 -15 7 160.6 223.4
-15 -8 7 -32.67 199.38
-8 15 -8 721.74 254.35
-15 8 -8 151.94 226.85
-8 15 -8 14.75 268.92
-15 -8 -8 355.25 203.18
8 15 -8 133.29 179.55
-8 15 8 498.68 214.08
-15 -8 8 134.62 176.75
-8 -15 8 150.07 204.46
-8 15 -9 -161.84 247.27
-15 8 -9 6.77 200.12
-15 -8 -9 41.81 162.38
-8 15 9 190.76 176.96
-15 -8 9 2.08 148.94
-8 -15 9 37.37 174.46
-15 8 -10 234.01 175.31
-8 15 -10 -113.39 198.72
-15 -8 -10 73.86 148.97
-8 15 10 43.71 145.14
-15 -8 10 119.47 136.02
-8 -15 10 23.94 153.3
-8 -15 -11 156.7 116.92
8 15 11 426.14 190.19
-8 15 -11 474.56 177.14
-15 -8 -11 174.85 128.75
-8 15 11 178.5 123.25
-15 -8 11 126.84 108.6
-15 -9 0 -17.69 191.93
-9 -15 0 -0.66 199.96
-15 -9 0 -130.17 219.82
-9 15 0 538.82 318.5
-15 9 0 485.62 312.63
-15 -9 1 216.91 204.95
-15 -9 -1 105.01 181.28
-9 -15 1 -62.61 189.17
-15 9 1 226.8 304.87
-9 -15 -1 85.92 198.73
-15 9 -1 640.37 270.05
-15 -9 1 -215.75 224.61
-15 -9 -1 62.65 204.81
-9 15 -1 -502.93 345.6
-9 15 1 77.42 302.21
-15 9 -1 170.87 304.12
-9 15 -1 386.21 286.1
9 15 -1 -456.03 245.47
-15 -9 2 -68.96 196.46
-9 -15 2 199.42 210.46
-9 -15 -2 97.1 194.96
-15 -9 2 555.96 242.28
-15 9 -2 548.07 268.99
-9 15 -2 -382.11 319.31
-15 -9 -2 -121.46 212.12
-9 15 2 -70.51 262.71
-15 9 2 229.95 291.04
-15 9 -2 -437.85 332.77
-9 15 -2 314.85 294.82
9 15 -2 -20.33 209.81
-9 -15 3 158.33 207.39
-9 -15 -3 167.26 192.06
-15 -9 3 337.89 233.56
-15 9 -3 452.93 258.79
-9 15 -3 -201.72 306.48
-9 15 3 448.3 292.57
-15 -9 -3 217.51 209.54
-15 9 3 -268.3 286.14
-15 9 -3 19.05 297.07
-9 15 -3 -251.73 276.52
9 15 3 379.44 281.36
-15 -9 -3 104.68 204.7
9 15 -3 105.07 216.49
-15 -9 3 199.68 191.55
-9 -15 4 32.43 199.35
-15 -9 4 -6.19 191.11
-9 -15 -4 51.21 187.83
-9 15 -4 -39.96 265.39
-9 15 4 236.41 245.99
-15 -9 -4 280.5 228.77
-15 9 -4 -367.69 329.34
-9 15 -4 -376.48 287.15
-15 -9 -4 114.14 195.02
9 15 -4 -180.6 200.62
-15 -9 4 -87.11 193.63
-9 -15 5 177.88 221.35
-15 -9 5 -94.6 198.68
-9 -15 -5 293.21 202.61
-9 15 -5 404.07 285.74
-9 15 5 201.24 248.25
-15 9 -5 19.56 296.19
-9 15 -5 163.99 284.03
-15 -9 -5 265.94 195.11
9 15 -5 606.8 238.63
-15 -9 5 -60.63 188.37
-15 -9 6 476.22 221.11
-9 15 -6 830.49 309.89
-15 9 -6 -25.8 285.08
-9 15 -6 148.74 270.27
-9 -15 -6 2.85 205.3
-15 -9 -6 616.24 221.3
9 15 -6 695.53 215.5
-15 -9 6 586.2 226.69
-9 -15 6 748.9 254.92
-9 15 -7 365.12 271.86
-15 9 -7 -295.98 301.77
-9 15 -7 15.19 264.44
-9 -15 -7 2.8 167.16
-15 -9 -7 -169.93 204.68
-15 -9 7 249.02 190.89
-9 -15 7 28.36 202.09
-15 -9 7 -639 216.95
-9 15 -8 -43.2 245.16
-15 9 -8 -431.52 256.76
-9 -15 -8 4.85 174.09
-15 -9 -8 -11.44 173.93
-9 15 8 -70.05 155.93
-15 -9 8 374.92 182.4
-9 -15 8 54.27 187.05
-9 -15 -9 4.12 144.44
-15 9 -9 336.08 214.67
-9 15 -9 -169.84 226.85
-9 -15 -9 -3.33 145.26
-15 -9 -9 330.19 171.62
-9 15 9 -100.08 143.13
-15 -9 9 117.82 143.58
-9 -15 9 238.59 171.63
-9 -15 -10 69.78 135.09
-15 9 -10 333.09 169.5
-9 15 -10 63.07 184.84
-15 -9 -10 104.13 139.87
-9 15 10 -10.48 124.19
-15 -9 10 189.52 135.89
-9 -15 10 145.7 151.05
-15 -9 -11 232.58 126.54
9 15 11 247.44 161.76
-15 -9 -11 -2.48 109.05
-15 -9 11 -1.54 90.29
-9 15 -11 141.67 148.69
-15 -10 0 -222.16 190.73
-10 -15 0 -138.88 201.76
-15 -10 0 -70.01 204.39
-10 15 0 -827.17 357.18
-15 10 0 194.12 311.36
-15 -10 1 888.49 247.36
-15 -10 -1 617.7 221.31
-10 -15 1 898.89 258.08
-10 -15 -1 501.97 227.59
-15 10 -1 1301.39 301.84
-15 -10 1 560.75 243.28
-15 -10 -1 489.79 234.97
-10 15 -1 402.82 289.62
-10 15 1 947.82 324.23
-15 10 1 897.72 320.19
-15 10 -1 427.43 309.3
-10 15 -1 -250.89 287.36
10 15 -1 594.86 226.39
-15 -10 2 41.08 183.09
-10 -15 2 -40.11 210.18
-15 -10 -2 127.59 185.69
-10 -15 -2 -183.07 194.41
-15 -10 2 339.81 224.17
-15 10 -2 263.38 269.02
-10 15 -2 -212.88 305.61
-15 -10 -2 114.87 210.29
-10 15 2 266.66 267.06
-15 10 2 -7.83 273.6
-15 10 -2 -224.25 325.52
-10 15 -2 311.35 310.48
10 15 -2 -112.75 207.5
-15 -10 3 -59.38 192.49
-10 -15 3 124.62 203.14
-10 -15 -3 112.76 190.72
-15 -10 3 363.91 229.58
-15 10 -3 544.94 265.34
-10 15 -3 -167.01 290.26
-10 15 3 208.8 268.27
-15 -10 -3 388.7 228.18
-15 10 3 -34.11 263.8
-15 10 -3 -143.51 306.5
-10 15 -3 298.9 296.23
10 15 3 -148.09 252.92
10 15 -3 18.59 187.58
-10 -15 4 -13.49 204.93
-15 -10 4 277.26 200.84
-10 -15 -4 80.34 180.35
-10 15 -4 111.89 269.56
-10 15 4 264.96 238.22
-15 -10 -4 89.63 202.72
-15 10 -4 -304.87 349.94
-10 15 -4 247.05 264.45
-15 -10 -4 -35.45 194.55
10 15 -4 115.41 220.11
-15 -10 4 266.79 205.33
-10 -15 5 224.51 197.09
-15 -10 5 -142.61 218.69
-10 -15 -5 336.92 197.98
-10 15 -5 707.62 305.77
-10 15 5 361.62 240.9
-15 -10 -5 265.45 216.19
-15 10 -5 -260.87 330.91
-10 15 -5 583.33 284.8
-10 -15 -5 -0.17 187.59
-15 -10 -5 81.67 200.11
10 15 -5 235 204.3
-15 -10 5 218.25 209.39
-15 -10 6 -109.08 190.36
-10 -15 -6 42.35 176.39
-10 15 -6 403.89 258.16
-15 10 -6 -45.99 283.94
-10 15 -6 465.34 291.07
-10 -15 -6 0.64 185.69
-15 -10 -6 172.73 192.36
-15 -10 6 -35.27 179.64
-10 -15 6 103.33 199.29
-10 -15 -7 116.1 168.72
-10 15 -7 717.93 270.71
-15 10 -7 -312.76 278.53
-10 15 -7 58.63 246.62
-10 -15 -7 -1.6 181.67
-15 -10 -7 -246.19 188.66
-15 -10 7 50.35 166.85
-10 -15 7 69.65 186.01
-15 -10 7 -283.07 193.65
-10 -15 -8 -1.18 148.13
-15 10 -8 2.26 235.43
-10 15 -8 271.7 248.51
-10 -15 -8 -4.45 173.68
-15 -10 -8 31.78 166.31
-15 -10 8 -1.49 150.57
-10 -15 8 -114.76 183.42
-10 -15 -9 278.59 151.57
-15 10 -9 367.76 205.92
-10 15 -9 223.08 205.07
-10 -15 -9 10.61 142.03
-15 -10 -9 247.17 163.14
-15 -10 9 286.26 154.55
-10 -15 9 163.83 150.68
-10 -15 -10 -4.87 112.15
-15 -10 -10 206.02 136.08
-15 10 -10 -68.09 142.99
-10 15 -10 547.58 191.94
10 15 10 307.8 195.58
-15 -10 -10 -6.5 126.4
-15 -10 10 25.16 113.05
-10 -15 10 -122.49 120.41
-15 -11 0 -97.69 186.27
-11 -15 0 178.15 200.24
-15 11 0 217.16 244.16
-15 -11 0 -209.48 240.69
-11 15 0 -154.54 324.55
-15 11 0 318.69 305.49
11 15 0 -155.05 213.43
-15 -11 1 96.88 185.73
-15 -11 -1 -82.92 176.96
-11 -15 1 55.04 192.05
-11 -15 -1 371.1 212.22
-15 -11 1 580.57 239.79
-15 11 -1 277.19 228.04
-15 -11 -1 269.27 220.74
-11 15 -1 -80.06 295.32
-11 15 1 -158.92 313.67
-15 11 1 445.85 279.87
-15 11 -1 282.02 304.49
-11 15 -1 -344.77 291.73
11 15 -1 83.01 196.36
-15 -11 2 142.56 192.31
-11 -15 2 266.58 217.25
-15 -11 -2 441.64 197.39
-11 -15 -2 149.02 191.81
-15 -11 2 344.82 229.86
-15 11 -2 292.15 302.99
-15 11 -2 338.67 246.38
-11 15 -2 -169.84 291.22
-15 -11 -2 251.72 200.84
-11 15 2 -34.97 273.21
-15 11 2 160.09 260.67
-11 15 -2 -636.9 283.56
11 15 -2 303.2 215.57
-15 -11 3 16.42 178.01
-11 -15 3 114.22 204.69
-15 -11 -3 -42.87 169.83
-15 -11 3 -36.07 198.45
-11 -15 -3 172.56 186.86
-15 11 -3 636.76 284.86
-11 15 -3 230.22 285.63
-11 15 3 -718.33 294
-15 -11 -3 32.89 195.46
-15 11 3 -33.39 240.98
-15 11 -3 -201.19 299.71
-11 15 -3 619.23 312.55
11 15 -3 205.76 195.54
-11 -15 4 -32.25 191.53
-15 -11 4 35.56 181.54
-15 -11 -4 35.8 153.85
-11 -15 -4 -83.22 179.75
-15 11 -4 704.17 279.82
-11 15 -4 448.82 300.45
-11 15 4 -612.38 266.4
-15 -11 -4 274.92 214.46
-15 11 -4 -145.52 306.21
-11 15 -4 565.44 298.56
-15 -11 4 196.78 191.25
-15 -11 5 -59.43 185.64
-11 -15 -5 175.43 175.82
-11 15 -5 876.11 299.27
-15 -11 -5 257.52 203.54
-15 11 -5 -444.87 306.13
-11 15 -5 710.69 290.16
-15 -11 -5 15.26 183.88
-15 -11 5 330.15 202.27
-11 -15 5 174.59 201.4
-11 -15 -6 190.5 167.62
-11 15 -6 660.34 266.71
-15 -11 -6 149.09 184.29
-15 11 -6 -727.91 318.56
-11 15 -6 418.32 279.49
-11 -15 -6 -5.47 162.17
-15 -11 -6 -22.38 176.84
-15 -11 6 -132.68 177.12
-11 -15 6 -131.64 185.06
-15 -11 6 10.73 161.33
-11 -15 -7 -6.05 158.2
-15 -11 -7 172.45 168.63
-15 11 -7 -472.16 277.55
-11 15 -7 -2.29 247.92
-11 -15 -7 -0.8 154.79
-15 -11 -7 -148.16 170.82
-15 -11 7 -24.32 157.54
-11 -15 7 -81.76 171.58
-11 -15 -8 -207.63 144.1
-15 -11 -8 -9.02 150.62
-15 11 -8 -463.95 239.64
-11 15 -8 193.87 240.4
-11 -15 -8 -4.54 147.07
-15 -11 -8 -6.76 158.98
-15 -11 8 -9.53 135.83
-11 -15 8 -114.16 165.07
-11 -15 -9 -6.54 112.35
-15 -11 -9 2.71 126.64
-15 11 -9 -127.41 181.4
-11 15 -9 -69.25 188.62
-11 -15 -9 40.3 128.64
-15 -11 -9 -6.07 154.13
-15 -11 9 26.74 128.96
-11 -15 9 205.02 139.61
-15 -11 -10 -44.79 107.13
-11 15 -10 -269.1 157.33
11 15 10 111.89 153.52
-15 -11 10 -13.41 96.28
-11 -15 10 2.17 97.5
-15 -12 0 -56.78 164.29
-12 -15 0 -30.77 182.99
-15 -12 0 -317.85 191.91
-15 12 0 22.7 221.51
-12 15 0 -328.36 284.52
-15 12 0 508.96 299.66
12 15 0 -173.67 188.55
-15 -12 1 252.4 200.92
-15 -12 -1 -22.51 166.15
-12 -15 1 112.31 193.45
-12 -15 -1 147.58 198.26
-15 -12 1 516.86 235.37
-15 12 -1 51.23 222.36
-15 -12 -1 -248.54 209.73
-12 15 -1 89.92 261.9
-12 15 1 -33.7 271.91
-12 15 -1 199 261.71
-15 12 1 678.07 312.66
-15 12 -1 438.55 292.24
12 15 -1 189.64 184.51
-15 -12 2 61.81 170.42
-12 -15 2 -32.21 190.61
-15 -12 -2 218.82 176.19
-12 -15 -2 -79.72 182.76
-15 -12 2 109.84 197.81
-15 12 -2 479.35 248.09
-12 15 -2 25.97 266.81
-15 -12 -2 33.9 187.15
-12 15 2 -186.6 248.88
-15 12 -2 211.82 296.63
-12 15 -2 -810.28 331.38
-15 12 2 227.6 253.11
-15 -12 3 -47.16 171.8
-12 -15 3 307.08 219.32
-15 -12 -3 5.57 158.85
-15 -12 3 320.95 208.14
-12 -15 -3 165.71 182.34
-15 12 -3 422.2 268.86
-12 15 -3 741.66 301.44
-12 15 3 -280.68 240.03
-15 -12 -3 391.48 209.83
-12 15 -3 -635.11 321.57
-15 12 -3 -354.64 290.1
-12 -15 4 443.69 225.38
-15 -12 4 14.66 177.91
-15 -12 -4 60.63 145.06
-12 -15 -4 111.8 170.02
-15 12 -4 615.16 274.02
-15 -12 -4 194.68 182.5
-15 12 -4 -104.94 293.99
-12 15 -4 218.49 261.24
-15 -12 4 -44.21 177.36
-15 -12 5 75.01 167.67
-12 -15 -5 40.02 163.13
-12 15 -5 253.82 255.12
-15 -12 -5 217.27 184.31
-15 12 -5 -194.41 290.2
-12 15 -5 166.12 268.5
-15 -12 5 187.7 176.76
-12 -15 5 9.79 177.8
-12 -15 -6 60.04 145.55
-12 15 -6 941.8 276.87
-15 12 -6 -129.44 256.82
-15 -12 -6 363.18 182.01
-12 15 -6 1047.81 304.06
-15 -12 6 363.39 186.27
-12 -15 6 -8.44 176.63
-15 -12 6 -49.92 155.43
-12 -15 -7 -7.3 132.51
-15 -12 -7 389.19 176.72
-15 12 -7 517.26 260.51
-15 -12 -7 1.63 156
-15 -12 7 -2.53 141.19
-12 -15 7 0.44 153.82
-12 -15 -8 43.96 117.56
-15 12 -8 -48.95 209.85
-15 -12 -8 -45.2 133.8
-12 15 -8 -51.78 222.97
-15 -12 8 92.47 135.68
-12 -15 8 1.11 131.81
-15 -12 -9 106.86 117.59
-15 12 -9 84.91 168.75
-12 15 -9 -74.22 179.06
12 15 9 371.64 178.8
-15 -12 9 90.49 117.33
-12 -15 9 130.45 124.23
-15 -13 0 464.17 192.62
-13 -15 0 567.54 219.44
-15 -13 0 1093.01 250.39
-15 13 0 656.97 246.91
-13 15 0 489.26 276.29
-15 13 0 918.05 316.3
-13 15 0 1177.99 286.74
-15 -13 1 34.28 168.9
-13 -15 1 314.25 207.86
-15 -13 -1 121.41 161.4
-13 -15 -1 -10.42 171.38
-15 -13 1 137.45 184.36
-15 -13 -1 -113.58 175.95
-15 13 -1 162.71 217.37
-13 15 -1 669.22 295.93
-13 15 1 290.68 252.69
-15 13 1 8.51 249.34
-15 13 -1 53.18 271.82
-13 15 -1 49.75 235.99
13 15 1 -181.81 175.63
-15 -13 2 314.71 190.2
-13 -15 2 216.96 197.72
-15 -13 -2 -5.42 152.23
-13 -15 -2 128.31 173.73
-15 -13 2 279.6 208.84
-15 13 -2 652 256.7
-13 15 -2 632.87 282.01
-15 -13 -2 243.53 191.25
-13 15 2 95.8 204.61
-15 13 -2 -245.58 263.47
-13 15 -2 54.08 250.77
-13 -15 3 183.65 196.48
-15 -13 -3 238.29 165.47
-15 -13 3 61.31 171.12
-13 -15 -3 429.67 183.85
-15 13 -3 517.23 243.96
-13 15 -3 902.47 295.23
-15 -13 -3 -114.48 187.08
-15 13 -3 -96.15 276.46
-13 15 -3 -300 272.55
-15 -13 3 111.39 178.48
-15 -13 4 -238.29 213.16
-15 -13 -4 172.18 160.22
-13 -15 -4 -154.7 155.07
-15 13 -4 786.76 258.41
-13 15 -4 455.71 254.82
-15 -13 -4 240.41 198.62
-13 15 -4 -741.43 296.61
-15 13 -4 -39.5 248.19
-15 -13 4 199.08 167.71
-13 -15 4 105.07 169.07
-15 -13 -5 -30.91 126.98
-13 -15 -5 98.26 147.89
-13 15 -5 565.46 254.04
-15 -13 -5 77.81 150.69
-15 13 -5 -434.36 269.88
-13 15 -5 -397.3 273.37
-15 -13 5 272.91 165.35
-13 -15 5 11.66 164.88
-15 -13 5 -24.24 153.56
-13 -15 -6 41.48 125.36
-15 -13 -6 383.72 164.94
-15 13 -6 178.39 235.59
13 15 6 550.01 200.04
-15 -13 6 283.55 165.65
-13 -15 6 305.37 182.84
-13 -15 -7 109.28 127.44
-15 -13 -7 88.68 139.03
-15 13 -7 -96.51 231.58
-13 15 -7 18.38 212.45
13 15 7 447.38 186.38
-15 -13 7 229.63 142.01
-13 -15 7 185.68 141.59
-15 -13 -8 153.51 116.53
-15 13 -8 390.39 207
-13 15 -8 254.1 192.42
13 15 8 564.66 171.63
-15 -13 8 103.66 120.51
-13 -15 8 110.41 123.51
-13 15 -9 91.64 150.09
-15 -13 9 56.52 96.59
-13 -15 9 55.65 98.99
-15 -14 0 62.16 166.26
-14 -15 0 17.98 159.75
-14 -15 0 52.27 162.64
-15 -14 0 324.7 185.86
-15 14 0 346.15 222.85
-14 15 0 531.13 248.62
-15 14 0 409.37 247.56
-14 15 0 345.84 231.14
-15 -14 1 -64.43 157.47
-14 -15 1 -6.94 173.15
-15 -14 -1 -88.06 154.88
-14 -15 -1 51.84 151.22
-15 -14 1 -121.64 150.78
-14 -15 -1 401.07 193.57
-15 -14 -1 458.9 192.25
-15 14 -1 891.57 252.97
-14 15 -1 653.22 272.48
-14 15 1 419.21 220.74
-15 14 1 363.68 238.72
-15 14 -1 363.48 249.3
-14 15 -1 245.99 253.54
-15 -14 2 27.65 159.41
-14 -15 2 270.1 182.85
-15 -14 -2 38.87 145.63
-14 -15 -2 70.18 154.65
-15 -14 2 263.21 174.75
-14 -15 -2 342.28 188.73
-15 14 -2 663.15 234.87
-15 -14 -2 280.99 167.83
-14 15 -2 146.55 224.94
-14 15 -2 396.19 256.87
-15 14 -2 293.99 266.7
-14 -15 3 227.75 175.95
-15 -14 3 -53.54 158.27
-15 -14 -3 6.4 132.38
-14 -15 -3 0.14 142.93
-14 15 -3 525.86 248.65
-15 -14 -3 -124.27 156.33
-15 14 -3 372.33 256.59
-14 15 -3 57.02 233.64
-15 -14 3 50.92 160.26
-15 -14 -4 80.06 133.91
-14 -15 -4 10.91 139.11
-14 15 -4 672 255.6
-15 -14 -4 36.17 155.59
-15 14 -4 -207.24 238.85
-14 15 -4 -97.33 222.94
-15 -14 4 83.52 167.25
-14 -15 4 7.86 165.93
-15 -14 4 0.28 148.86
-15 -14 -5 351.71 169
-14 -15 -5 59.56 127.19
-15 -14 -5 -339.94 164.11
-15 14 -5 -263.88 233.5
-14 15 -5 -169.2 236.87
-15 -14 5 9.77 148.01
-14 -15 5 15.47 159.63
-14 -15 -6 -132.37 121.26
-15 -14 -6 -119.78 133.89
-15 14 -6 -82.98 213.76
-14 15 -6 -25.8 213.85
-15 -14 6 -48.38 133.47
-14 -15 6 24.66 133.59
-15 -14 -7 -43.23 112.34
-15 14 -7 37.38 196.48
-14 15 -7 -40.34 192.93
-15 -14 7 55.48 122.57
-14 -15 7 -12.94 120.18
-15 14 -8 -36.97 160.22
-14 15 -8 24.79 161.56
-15 -14 8 409.05 115.29
-14 -15 8 28.02 98.83
-15 -15 0 82.6 145.52
-15 -15 0 4.16 154.51
-15 15 0 274.09 209.7
-15 15 0 437.46 209.13
-15 -15 1 67.15 155.62
-15 -15 -1 156.18 160.83
-15 -15 1 564.89 221.86
-15 -15 -1 89.56 146.08
-15 15 -1 396.44 218.72
-15 15 -1 466.3 216.89
-15 -15 2 -10.44 145.38
-15 -15 2 213.08 149.47
-15 -15 -2 -36.89 135.93
-15 -15 -2 338.98 167.09
-15 15 -2 401.28 226.96
-15 15 -2 322.75 232.42
-15 -15 -3 158.6 142.77
-15 15 -3 668.9 229.98
-15 -15 -3 335.52 149.45
-15 15 -3 562.56 230.15
-15 -15 3 294.41 158.89
-15 -15 -4 31.19 119.71
-15 15 -4 431.77 213.21
-15 -15 4 30.96 139.67
-15 -15 -5 224.48 128.9
-15 15 -5 -85.88 190.74
-15 -15 5 5.94 132.64
-15 15 -6 0.12 185.07
-15 -15 6 93.52 135.11
-15 15 -7 1495.99 226.1
-15 -15 7 1030.21 155.99
-16 0 0 -214.4 272.48
-16 0 0 134.35 340.36
0 16 0 321.75 306.59
0 16 0 -249.25 284.59
0 -16 -1 2356.91 340.52
0 16 -1 3168.61 437.77
0 16 1 3180.19 460.35
-16 0 -1 3282.59 452.01
0 16 -1 3041.77 392.46
0 16 1 2821.61 355.06
-16 0 1 3228.13 377.69
-16 0 -1 3704.91 400.16
-16 0 2 2026.16 329.29
-16 0 -2 1521.79 314.77
0 16 -2 1561.14 368.41
-16 0 -2 1601.24 404.74
0 16 2 1343.81 374.06
16 0 -2 2127.15 621.32
0 16 -2 1676.66 339.46
0 16 2 1114.42 277.17
-16 0 3 313.12 215.87
0 16 -3 264.28 272.73
-16 0 -3 606.92 255.01
-16 0 -3 564.44 331.4
0 16 3 88.63 290.93
0 16 3 357.19 246.66
-16 0 4 -102.7 203.79
0 16 -4 261.85 255.17
-16 0 -4 380.05 294.11
0 16 4 222.13 305.13
0 16 -4 85.68 288.63
0 16 -4 300.82 254.02
0 16 4 433.14 259.19
-16 0 5 1966.9 318.97
-16 0 -5 1298.88 325.46
0 16 5 1097.7 364.52
-16 0 -5 1087.99 253.82
0 16 -5 1219.41 331.24
0 16 -5 2016.14 360.82
0 16 5 1374.49 302.79
0 16 6 749.63 330.75
0 16 -6 1222.86 337.47
0 16 -6 1208.35 306.85
0 16 6 951.02 283.66
-16 0 6 843.21 250.67
0 16 7 4428.59 491.29
0 16 -7 5339.73 532.52
0 16 -7 4740.3 459.65
0 16 7 5022.96 485.93
0 16 8 3294.98 430.34
0 16 -8 4730.63 486.57
0 16 -8 4175.6 418.31
0 16 8 4260.4 444.73
0 16 9 1421.87 317.23
0 16 -9 1734.5 340.62
0 16 -9 2159.09 324.75
0 16 9 2126.42 317.74
0 16 10 45.88 196.93
0 16 -10 -234.4 235.8
0 16 -10 95.45 180.2
0 16 10 35.72 181.67
0 16 11 -43.55 158.83
0 16 -11 176.22 194.1
0 16 11 80.45 154.96
16 0 -11 -4.13 163.87
0 16 -12 739.21 173.09
0 16 12 439.46 137.79
-1 -16 0 -126.23 218.12
-16 1 0 -335.18 256.8
-16 -1 0 -75.03 232.27
-1 16 0 -174.76 299.13
-16 1 0 -28.27 334.54
1 16 0 -37.16 287.6
-1 16 0 -145.69 256.26
-1 -16 -1 546.71 256.92
-16 1 1 444.44 244.84
-16 -1 1 408.8 246.2
-16 1 -1 563.99 234.97
-16 -1 -1 531.92 251.81
-1 16 -1 254.34 304.67
1 16 -1 287.24 292.42
-16 -1 -1 262.54 313.14
-1 16 1 290.56 318.88
-16 1 -1 536.1 349.1
1 16 1 358.98 328.04
-16 1 1 158.26 330.09
-1 16 -1 424.61 246.6
1 16 -1 -69.75 260.94
1 16 1 286.78 225.8
-1 16 1 229.52 202.85
-16 1 2 392.82 230.53
-16 -1 2 507.8 248.26
-16 1 -2 21.48 208.15
-16 -1 -2 573.03 252.55
-1 16 -2 -236.69 290.75
1 16 -2 -51.47 277.37
-16 -1 -2 -284.39 314.57
-16 1 -2 201.7 316.02
-1 16 2 -115.92 290.24
1 16 2 -334.31 328.74
-1 16 -2 198.96 254.3
1 16 -2 45.15 250.71
1 16 2 -94.37 218.42
-1 16 2 -18.7 207.94
16 1 -2 -614.73 497.7
-16 1 -2 244.5 298.36
-16 1 3 261.53 202.43
-16 -1 3 244.1 207.38
-1 16 -3 144.39 263.19
1 16 -3 -42.1 243.95
-16 1 -3 136.41 216.71
-16 -1 -3 466.67 236.29
-16 -1 -3 -43.22 311.85
-16 1 -3 380.29 305.48
-1 16 3 161.11 299.28
1 16 3 -50.87 304.47
-1 16 -3 224.82 235.96
1 16 -3 33.37 247.27
1 16 3 -118.17 200.5
-1 16 3 348.32 246.6
-16 1 4 623.88 230.4
-16 -1 4 477.84 230.84
-16 -1 -4 664.27 312.26
-1 16 -4 964.28 294.31
-16 1 -4 511.3 302.06
-1 16 4 348.88 323.94
1 16 4 80.06 299.92
-16 -1 -4 76.61 218.42
-1 16 -4 554.31 299.74
1 16 -4 45.52 274.88
-1 16 -4 480.13 259.84
1 16 -4 424.74 268.64
1 16 4 714.88 270.72
-1 16 4 289.81 218.5
-16 1 5 63.7 187.66
-16 -1 5 338.51 215.75
-1 16 -5 -8.3 275.47
-16 1 -5 700.53 301.27
-1 16 5 -72.86 282.54
1 16 5 452.39 324.53
-16 -1 -5 317.11 214.09
-1 16 -5 676.17 314.35
1 16 -5 147.13 268.07
-1 16 -5 492.12 261.95
1 16 -5 192.18 245.9
1 16 5 156.45 237.37
-1 16 5 293.73 240.06
-16 -1 6 88.12 200.65
-16 1 -6 694.81 289.48
-1 16 6 287.45 306.42
1 16 6 137.9 294.5
-16 -1 -6 235.54 201.65
-1 16 -6 -132.58 283.57
1 16 -6 -707 302.5
-1 16 -6 349.09 259.33
1 16 -6 334.46 246.98
1 16 6 -230.39 243.75
-1 16 6 29.78 226.32
-16 1 6 -175.12 194.51
-1 16 7 160.36 284.93
1 16 7 559.04 323.63
-16 -1 -7 176.28 204.88
-1 16 -7 105.07 287.69
1 16 -7 153.05 271.14
-1 16 -7 37.43 230.37
1 16 -7 165.81 228.59
1 16 7 -85.52 224.05
-1 16 7 380.77 243.47
-16 -1 7 -170.33 196.37
-1 16 8 -211.92 261.58
1 16 8 488.08 302.93
-1 16 -8 121.83 267.77
-16 -1 -8 137.89 199.56
1 16 -8 379.22 282.2
-1 16 -8 -96.28 224.1
1 16 -8 -324.67 232.68
1 16 8 -93.21 210.6
-1 16 8 -145.04 241.84
-1 16 9 412.8 255.03
1 16 9 317.85 259.75
-1 16 -9 -350.55 262.69
-16 -1 -9 -29.43 159.25
1 16 -9 28.41 262.57
-1 16 -9 88.41 204.8
1 16 -9 171.78 200.08
1 16 9 -93.99 200.58
-1 16 9 165.36 213.58
-1 16 10 413.06 196.25
1 16 10 138.72 208.51
-1 16 -10 238.26 225.42
1 16 -10 200.72 233.49
-1 16 -10 218.72 186.21
1 16 -10 -218.25 182
1 16 10 -7.04 174.59
-1 16 10 -22.37 174.05
1 16 11 76.13 169.7
-1 16 11 -88.81 152.46
-1 16 -11 386.61 201.45
1 16 -11 230.93 191.97
1 16 11 257.42 164.91
-1 16 11 73.68 147.22
-16 1 11 41.69 127.14
16 -1 -11 2.47 129.67
-1 16 -12 139.57 148.74
1 16 -12 296.31 156.43
1 16 12 54.31 105.6
-1 16 12 124.05 122.44
16 1 -12 -1.33 116.82
2 16 0 2711.54 426.71
-2 16 0 3032.96 433.38
-16 2 0 3210.78 455.53
-2 16 0 2400.48 353.12
-2 -16 0 3264.93 418.22
-16 -2 0 3067.09 379.31
16 2 -1 -503.73 489.35
-2 -16 1 170.3 253.81
-2 -16 -1 -174.16 261.7
-16 -2 1 139.55 226.74
-16 -2 -1 216.15 225.5
-2 16 -1 -15.86 292.37
2 16 -1 34.75 273.88
-2 16 1 326.02 309.13
-16 2 1 145.33 331.71
2 16 1 36.54 293.3
-2 16 -1 -95.49 231.33
2 16 -1 49 245.32
-2 16 1 71.74 227.42
-2 16 1 -404.16 252.65
-16 2 -1 370.08 334.8
-2 -16 2 588.02 281.09
-16 -2 2 846.59 264.79
-16 2 -2 528.54 341.15
-16 -2 -2 592.05 269.15
-2 16 -2 188.53 281.86
2 16 -2 464.38 278.17
-16 -2 -2 -307.02 352.84
-2 16 2 -13.52 281.04
2 16 2 638.35 337.08
-16 2 2 191.7 327.59
-2 16 -2 279.01 254.61
2 16 -2 269.17 256.8
2 16 2 206.5 208.63
-2 16 2 389.06 234.16
-16 2 -2 279.96 362.59
16 2 -2 911.74 471.28
-2 -16 3 -55.52 239.69
-16 -2 3 268.3 236.41
-2 16 -3 282.96 305.93
-16 -2 -3 361.91 256.61
-16 -2 -3 116.96 301.58
-2 16 3 110.45 288.9
-16 2 -3 266.65 312.77
2 16 3 513.79 312.58
-2 16 -3 576.23 271.13
2 16 -3 400.83 264.63
2 16 3 237.26 229.48
-2 16 3 281.84 222.51
-16 -2 4 161.22 212.53
-2 16 -4 -56.56 259.03
-16 2 -4 293 318.75
-2 16 4 502.8 311.56
2 16 4 346.77 315.06
-16 -2 -4 23.47 197.66
-2 16 -4 179.32 268.66
-2 16 -4 155.59 223.21
2 16 -4 9.95 229.34
2 16 4 403.41 232.67
-2 16 4 -191.82 235.04
-16 -2 5 1078.27 276.72
-2 16 -5 1063.96 299.68
-16 2 -5 1135.76 321.26
-2 16 5 742.33 321.5
2 16 5 1143.12 386.41
-16 -2 -5 785.6 257.46
-2 16 -5 1407.27 357.2
-2 16 -5 1391.83 309.97
2 16 -5 1274.25 309.23
2 16 5 1218.32 310.04
-2 16 5 1079.68 290.66
-2 16 -6 4426.22 424.54
-2 16 6 3435.44 462.71
2 16 6 3582.3 498.47
-16 2 -6 4400.66 447.33
-2 16 -6 4875.52 517.19
-16 -2 -6 3874.22 384.58
-2 16 -6 4418.53 457.89
2 16 -6 4392.04 454.81
2 16 6 4122.39 435.46
-2 16 6 4404.58 466.39
-16 -2 6 4087.27 408.8
-2 16 7 1634.62 362.07
2 16 7 1992.18 401.68
-2 16 -7 2881.25 437.93
-16 -2 -7 2108.33 318.76
-2 16 -7 2564.86 358.38
2 16 -7 2319.34 349.34
2 16 7 2221.13 360.76
-2 16 7 2452.01 366.59
-16 -2 7 2106.9 310.05
-2 16 -8 2986.41 419.47
-2 16 8 1908.89 351.07
2 16 8 2261.6 410.53
-16 -2 -8 2073.75 300.6
2 16 -8 2658.92 391.95
-2 16 -8 2106.14 330.72
2 16 -8 2275.96 345.74
-2 16 8 2924.31 374.04
2 16 8 2229.64 339.65
-2 16 9 1178.04 271.84
2 16 9 1138.16 306.03
-2 16 -9 1437.22 311.95
-16 -2 -9 912.09 230.32
2 16 -9 1509.03 331.34
-2 16 -9 1664.6 287.3
2 16 -9 1420.75 280.74
2 16 9 1414.29 271.19
-2 16 9 1179.71 284.09
-16 -2 9 1288.72 239.35
-2 16 10 113.9 184.39
2 16 10 442.46 228.56
-2 16 -10 178.92 220.2
-16 -2 -10 54.87 141.33
2 16 -10 89.26 224.79
-2 16 -10 18.77 165.07
2 16 -10 136.55 173.38
2 16 10 232.02 187.98
-2 16 10 21.34 176.63
2 16 11 -63.71 175.13
-2 16 -11 -33.8 168.12
2 16 -11 -88.98 186.95
2 16 11 88.55 141.97
-2 16 11 -191.9 170.2
-16 2 11 17.46 113.36
16 -2 -11 -16.57 118.45
-2 16 -12 -131.84 151.92
2 16 -12 212.95 144.98
2 16 12 -30.67 101.16
-2 16 12 60.79 116.32
16 2 -12 -3.06 121.59
-3 -16 0 155.69 245.65
-16 -3 0 45.57 219.04
-3 16 0 -120.45 317.58
-16 3 0 -93.11 307.02
3 16 0 46.72 312
-3 16 0 -65.92 221.73
-3 -16 1 26.98 260.22
-3 -16 -1 -223.1 256
16 3 -1 208.17 386.61
-16 -3 1 196.1 208.63
-16 -3 -1 528.97 254.27
-3 16 -1 -17.89 290.21
-3 16 1 -0.69 305.38
3 16 -1 -186.73 260.12
-16 3 1 -175.55 323.59
-16 3 -1 690.01 342.85
3 16 1 -52.64 304.33
-3 16 -1 131.88 226.45
-3 16 1 -111.71 241.5
3 16 -1 -128.52 256.55
-3 16 1 -481.4 260.86
-16 3 -1 710.19 395.56
-3 -16 2 122.57 254.56
-16 -3 2 300.93 241.12
-3 16 -2 -101.35 290.46
-16 -3 -2 195.39 233.29
-16 3 2 -166.42 330.12
-3 16 2 -59.93 310.88
-16 3 -2 576.87 352.6
3 16 2 -104.48 307.38
-3 16 -2 268.93 238.33
3 16 -2 -53.93 249.12
-3 16 2 -255.45 247.61
3 16 2 -331.47 256.08
-3 16 2 81.69 208.55
-16 3 -2 617.63 339.28
-3 -16 3 596.47 267.8
-3 16 3 531.18 322.02
-16 -3 3 997.93 274.19
-3 16 -3 634.23 319.23
-16 -3 -3 610.13 261.67
-16 3 -3 968.59 337.97
3 16 3 502.31 324.27
-16 -3 -3 492.43 231.36
-3 16 -3 459.81 303.88
-3 16 -3 564.06 260.14
3 16 -3 623.7 261.42
3 16 3 515.76 247.51
-3 16 3 1187.03 292.79
-3 -16 4 1239.04 341.02
-16 -3 4 1430.86 305.17
-3 16 -4 714.25 294.47
-3 16 4 1456.57 364.26
-16 3 -4 1998.43 367.84
3 16 4 1069.05 378.61
-3 16 -4 1999.41 383.52
-16 -3 -4 1616.74 305.58
-3 16 -4 1872.94 335.22
3 16 -4 1819.52 335.76
3 16 4 2042.83 350.34
-3 16 4 1464.13 301.19
-3 -16 5 345.31 282.07
-16 -3 5 212.28 201.35
-3 16 -5 308.51 270.67
-3 16 5 489.66 303.76
3 16 5 642.57 338.15
-16 3 -5 790.94 316.13
-3 16 -5 505.45 299.32
-16 -3 -5 527.37 233.87
-3 16 -5 913.43 278.32
3 16 -5 789.7 281.46
3 16 5 920.56 287.99
-3 16 5 344.68 257.26
-16 -3 6 874.06 258.19
-3 16 -6 928.64 313.24
-16 3 -6 769.52 304.35
3 16 6 1032.42 364.98
-3 16 6 474.71 308.84
-3 16 -6 723.22 321.84
-16 -3 -6 1272.65 277.43
-3 16 -6 1012.03 272.29
3 16 -6 911.99 286.53
3 16 6 792.61 262.78
-3 16 6 691.12 278.9
-3 16 7 -46.87 268
-16 3 -7 665.98 266.49
3 16 7 415.78 325.17
-3 16 -7 211.93 279.31
-16 -3 -7 467.54 226.41
-3 16 -7 39.34 223.54
3 16 -7 42.04 210.85
3 16 7 64.21 218.72
-3 16 7 -22.87 228.78
-16 -3 7 297 209.58
-16 -3 7 15.82 196.06
-3 16 8 337.41 252.49
3 16 8 568.39 313.77
-3 16 -8 -120.37 270.22
-16 -3 -8 140.49 190.92
-3 16 -8 -27.18 212.33
3 16 -8 85.56 211.75
3 16 8 523.82 241.31
-3 16 8 -85.16 214.86
-16 -3 8 -20.85 170.93
-3 16 9 501.98 218.06
3 16 9 876.63 308.16
-3 16 -9 541.42 266.71
-16 -3 -9 609.54 198.54
3 16 -9 695.66 274.17
-3 16 -9 667.16 230.07
3 16 -9 661.9 234.88
3 16 9 833.17 241.76
-3 16 9 792.23 236.79
-16 -3 9 770.68 205.27
-3 16 10 705.55 200
3 16 10 628.03 257.78
-3 16 -10 1051.78 254.62
-16 -3 -10 708.27 187.46
3 16 -10 1048.75 278.83
-3 16 -10 779.68 202.1
3 16 -10 941.38 211.48
3 16 10 1152.93 231.4
-3 16 10 889.4 237.58
-16 -3 10 913.07 195.37
16 -3 -10 -6.53 143.93
3 16 11 559.89 191.29
-3 16 -11 1027.69 215.82
-16 -3 -11 177.59 119.29
3 16 -11 593.78 208.72
3 16 11 712.29 171.2
-3 16 11 387.71 164.74
-3 16 -12 109.8 130.91
3 16 -12 130.08 143.39
-3 16 12 156.36 113.26
16 3 -12 -4.83 113
-4 -16 0 217.63 251.18
-16 -4 0 -68.68 231.98
-16 4 0 75.34 325.4
-4 16 0 -119.83 284.54
4 16 0 -59.75 290.3
-4 16 0 128.11 229.59
16 4 0 890.68 460.3
-4 -16 1 688.94 293.22
-4 -16 -1 519.17 242.97
-16 -4 1 322.82 239.78
-16 -4 -1 219.24 232.94
-4 16 -1 133.5 301.4
-4 16 1 263.87 297.09
4 16 -1 52.8 252.4
-16 4 1 183.49 306.01
-16 4 -1 1039.84 360.09
4 16 1 456.95 299.33
-4 16 -1 594.12 249.46
-4 16 1 430.5 231.55
4 16 -1 -115.32 274.82
-16 4 -1 -859.32 434.48
-4 -16 2 282.56 256.12
-4 -16 -2 149.63 225.09
-16 -4 2 497.17 241.73
-4 16 -2 -66.38 275.29
-16 -4 -2 97.59 239.13
-4 16 2 -245.91 335.07
-16 4 2 58.58 316.28
-16 4 -2 347.64 327.93
4 16 2 139.27 303.26
-4 16 -2 312.04 234.87
4 16 -2 265.37 242.28
-4 16 2 1077.84 361.07
-4 -16 3 -161.81 282.56
-16 4 -3 214.85 300.69
-16 -4 3 162.03 236.27
-4 16 -3 194.4 293.94
-16 -4 -3 306.18 242.84
-4 16 3 142.11 305.44
4 16 3 -262.45 320.25
-16 -4 -3 85.04 219.24
-4 16 -3 105.88 262.18
-4 16 -3 313.3 244.2
4 16 -3 511.43 259.09
4 16 3 -270.58 250.19
-4 16 3 99.71 205.18
-4 -16 4 63.52 254.94
-16 -4 4 62.4 200.83
-16 4 -4 540.29 310.86
-4 16 -4 -632.81 336.1
-4 16 4 264.17 285.47
4 16 4 252.14 316.77
-4 16 -4 759.11 323.2
-16 -4 -4 -31.44 217.34
-4 16 -4 1330.09 356.5
4 16 -4 340.91 251.14
4 16 4 -266.06 229.89
-4 16 4 -182.61 227.1
-4 -16 5 306.09 280.39
-16 -4 5 66.82 203.33
-4 16 -5 25.08 292.82
-4 16 5 107.07 275.71
-16 4 -5 443.86 294.63
4 16 5 630.34 373.49
-4 16 -5 291.61 277.26
-16 -4 -5 163.66 213.33
-4 16 -5 384.88 238.3
4 16 -5 581.32 260.88
4 16 5 157.31 219.2
-4 16 5 382.42 230.95
-16 -4 6 531.49 222.78
-4 16 -6 1158.63 331.28
-4 16 6 631.13 302.79
-16 4 -6 809.21 311.38
4 16 6 708.79 374.98
-4 16 -6 814.58 318.22
-16 -4 -6 813.36 260.1
-4 16 -6 821.98 263.5
4 16 -6 1072.09 289.81
4 16 6 763.49 263.6
-4 16 6 733.75 276.93
-16 -4 6 911.06 237.57
-4 -16 6 787.58 299.97
-4 16 -7 2962.86 361.74
-4 16 7 2598.27 374.05
-16 4 -7 2236.15 364.64
4 16 7 2736.92 453.67
-16 -4 -7 2232.52 326.76
-4 16 -7 2433.35 410.89
4 16 -7 2601.43 356.7
-4 16 -7 1851.4 316.5
4 16 7 2558.11 362.13
-4 16 7 2795.94 385.11
-16 -4 7 1945.03 304.13
-16 -4 7 2227.08 329.31
-4 -16 7 1962.4 347.95
-4 16 8 1338.13 294.24
-16 4 -8 1905 304.5
4 16 8 2027.15 417.25
-4 16 -8 1856.78 365.27
-16 -4 -8 1264.32 267.62
-4 16 -8 1723.2 286.05
4 16 -8 1880.54 310.9
4 16 8 1443.58 283.81
-4 16 8 1839.79 331.58
-16 -4 8 1452.21 262.07
-4 16 9 453.88 215.58
4 16 9 1142.04 316.43
-4 16 -9 523.39 260.75
-16 -4 -9 552.09 199.54
-4 16 -9 439.83 200.87
4 16 -9 1013.21 229.72
4 16 9 425.22 201.23
-4 16 9 543.95 235.86
-16 -4 9 536.09 192.66
4 16 10 279.17 219.3
-4 16 -10 68.96 199.85
-16 -4 -10 54.14 133.61
4 16 -10 -100.54 208.83
4 16 -10 -43.14 147.82
4 16 10 89.29 153.96
-4 16 10 -118.17 168.99
-16 -4 10 146.68 152.3
4 16 11 182.59 169.25
-4 16 -11 -4.13 168.49
-16 -4 -11 -15.57 108.92
4 16 -11 -9.44 183.97
4 16 11 -83.94 135.73
-4 16 11 -79.58 148.75
4 16 -12 289.72 142.35
16 4 -12 -1.18 111.36
-5 -16 0 -36.35 217.56
5 16 0 56.48 262.96
-16 -5 0 -54.84 213.82
-5 16 0 -231.28 293.82
-16 5 0 435.11 319.01
-5 -16 1 1014.51 296.81
-5 -16 -1 584 245.42
-16 -5 1 550.79 254.37
-16 -5 -1 821.92 272.91
-5 16 -1 766.44 324.47
-5 16 1 550.24 307.56
-16 5 1 840.58 344.89
-16 5 -1 1032.27 357.38
5 16 1 846.17 306.26
-5 16 -1 1052.03 270.36
5 16 -1 267.41 218.75
-5 -16 2 252.59 246.62
-5 -16 -2 -61.37 216.4
-16 -5 2 359.31 230.77
-5 16 -2 207.2 286.25
-16 -5 -2 508.5 243.55
-5 16 2 427.79 303.53
-16 5 2 90.11 300.46
-16 5 -2 233.78 296.74
5 16 2 215.7 289.23
-5 16 -2 298.43 224.82
5 16 -2 27.86 214.08
-5 -16 3 1283.12 316.3
-5 16 -3 1121.9 321.64
-16 -5 -3 1462.42 306.81
-5 16 3 1164.17 362.9
-16 5 -3 1815.01 392.13
5 16 3 977.38 350.93
-16 -5 -3 1030.66 248.81
-5 16 -3 1030.38 308.75
-5 16 -3 1243.99 279.89
5 16 -3 1434.91 305.72
5 16 3 927.12 264.32
-5 16 3 1341.91 296.64
-16 -5 3 2081.12 348.59
-5 -16 4 2249.12 398.34
-5 16 -4 1590.92 349.98
-5 16 4 1976.83 398.06
-5 16 -4 2998.95 410.32
-16 5 -4 2287.9 401.79
5 16 4 2348.21 451.03
-16 -5 -4 2008.85 329.62
-5 16 -4 2276.35 344.6
5 16 -4 2327.04 360.02
5 16 4 2216.11 350.36
-5 16 4 2410.17 351.42
-16 -5 4 2792.86 382.37
-5 16 -5 3550.41 426.09
-5 16 5 3404.23 456.92
5 16 5 3456.48 541.12
-16 5 -5 3365.97 440.39
-5 16 -5 3386.25 439.04
-16 -5 -5 3577.49 396.58
-5 16 -5 3910.92 410.4
5 16 -5 4056.04 416.97
5 16 5 3755.36 420.08
-5 16 5 4326.51 452.1
-16 -5 5 3545.36 378.46
-5 -16 5 3845.53 465.42
-16 -5 5 3790.47 412.7
-16 -5 6 1252.04 269.94
-5 16 -6 2074.05 362.7
-5 16 6 1241.04 323.25
-16 5 -6 1444.87 332.71
5 16 6 1837.32 427.66
-5 16 -6 1654.93 359.46
-16 -5 -6 1225.7 288.93
-5 16 -6 1544.49 299.08
5 16 -6 1560.3 309.06
5 16 6 1507.12 305.06
-5 16 6 1788.39 340.22
-16 -5 6 1402.96 269.9
-5 -16 6 1782.73 368.83
-5 16 -7 842.91 273.43
-5 16 7 -172.7 262.88
-16 5 -7 205.14 256.58
-5 16 -7 -4.37 260.74
-16 -5 -7 -183.39 207.58
-5 16 -7 127.21 197.12
5 16 -7 170.73 217.11
5 16 7 -116.5 201.41
-5 16 7 328.15 232.72
-16 -5 7 -111.14 184.54
-5 -16 7 244.17 253.1
-16 -5 7 -111.08 199.82
-16 5 -8 451.12 239.34
-5 16 -8 499.89 241.83
-5 16 8 185.31 229.57
5 16 8 214.15 302.79
-5 16 -8 -124.2 254.11
-16 -5 -8 113.44 184.82
-5 16 -8 -6.33 182.81
5 16 -8 326.29 210.12
5 16 8 270.52 196.7
-5 16 8 187 205.48
-16 -5 8 166.97 168.27
-5 -16 8 536.98 249.52
5 16 9 1687.77 341.59
-5 16 -9 1413.96 296.33
-16 -5 -9 918.87 221.1
-5 16 -9 807.6 206.27
5 16 -9 1754.25 259.04
5 16 9 1275.86 238.28
-5 16 9 1252.66 265.43
-16 -5 9 1154.83 225.82
5 16 10 1182.38 269.35
-5 16 -10 1428.83 255.92
-16 -5 -10 1080.9 197.92
5 16 -10 1572.84 281.64
5 16 -10 1505.08 212.21
5 16 10 842.69 201
-5 16 10 1321.59 243.58
-16 -5 10 1030.12 196.38
5 16 11 417.32 182.55
-5 16 -11 330.51 163.13
-16 -5 -11 295.11 129.42
5 16 -11 447.59 196.09
-5 16 11 158.56 139.91
-6 -16 0 886.71 283.61
-16 -6 0 839.57 261.26
-6 16 0 1056.95 342.46
-16 6 0 1539.55 375.11
-6 -16 1 -35.97 212.77
-6 -16 -1 276.38 228.46
-16 -6 1 148.6 211.54
-16 -6 -1 -70.9 218.37
-6 16 -1 37.57 277.34
-6 16 1 47.74 290.7
-16 6 1 23.39 290.41
-16 6 -1 483.64 356.62
6 16 1 -383.09 266.12
6 16 -1 -266.8 234.34
-6 -16 2 429.72 239.83
-6 -16 -2 -188.41 222.04
-16 -6 2 532.25 253.96
-6 16 -2 588.89 314.28
-16 -6 -2 83.94 209.39
-6 16 2 -340.67 339.44
-16 6 2 82.26 301.53
-16 6 -2 33.5 287.97
6 16 2 427.47 286.48
6 16 -2 80.88 202.36
-6 -16 3 249.8 244.85
-16 -6 3 692.66 251.28
-6 -16 -3 360.05 225.06
-6 16 -3 -350.59 308.11
-16 -6 -3 360.73 230.36
-6 16 3 24.34 287.54
-16 6 3 68.37 291.52
-16 6 -3 100.68 295.02
6 16 3 577.2 319.37
-16 -6 -3 254.13 202.44
-6 16 -3 45.51 285.84
-6 16 -3 684.54 248.14
6 16 -3 353.87 235.29
-6 -16 4 -94.11 234.72
-16 -6 4 350.24 235.61
-6 16 -4 -390.96 328.5
-6 16 4 11.11 293.79
-16 6 -4 -5.15 287.44
6 16 4 308.9 347.42
-6 16 -4 -552.78 295.18
-16 -6 -4 2.27 202.83
-6 16 -4 -4.86 207.51
6 16 -4 -89.91 219.87
6 16 4 -931.68 277.96
-16 -6 4 -86.25 195.27
-6 -16 5 -203.13 241.91
-16 -6 5 25.92 205.26
-6 16 -5 -61.33 267.5
-6 16 5 -334.03 296.96
-16 6 -5 -20.96 285.83
6 16 5 658.62 366.65
-6 16 -5 -326.65 309.98
-16 -6 -5 44.74 206.94
-6 16 -5 5.98 195.83
6 16 -5 98.83 205.21
6 16 5 -596.38 245.99
-6 16 5 75.2 216.29
-16 -6 5 115.27 194.44
-16 -6 6 284.79 202.54
-6 16 -6 814.88 311.2
-6 16 6 285.54 241.6
-16 6 -6 670.57 319.16
-6 16 -6 -1.82 299.37
-16 -6 -6 786.21 254.12
-6 16 -6 691.5 242.04
6 16 -6 861.28 265.57
6 16 6 520.51 229.69
-6 16 6 789.65 262.31
-16 -6 6 506.9 208.31
-6 -16 6 969.88 307.94
-16 6 -7 465.38 280.92
-6 16 -7 608.31 269.23
-6 16 7 -215.63 229.62
-6 16 -7 -367.03 293.85
-16 -6 -7 348.5 208.85
-6 16 -7 498.41 215.3
6 16 -7 528.23 226.37
6 16 7 282.46 187.65
-6 16 7 547.44 239.57
-16 -6 7 480.61 195.41
-6 -16 7 439.59 266.3
-16 -6 7 100.05 192.24
-6 16 -8 670.14 238.91
-6 16 8 -135.84 217.16
-16 6 -8 188.18 223.13
6 16 8 750.41 334.62
-6 16 -8 -42.24 256.41
-16 -6 -8 143.01 179.38
-6 16 -8 276.9 179.41
6 16 8 272.89 196.89
-6 16 8 286.88 207.4
-16 -6 8 318.21 175.18
-6 -16 8 297.89 226.04
-16 6 -9 381.04 202.34
6 16 9 161 261.05
-6 16 -9 38.86 221.78
-16 -6 -9 -155.23 171.37
6 16 -9 162.41 163.49
6 16 9 -203.17 190.11
-6 16 9 -246.45 196.15
-16 -6 9 6.34 142.69
-6 -16 9 -29.42 181.61
6 16 10 253.03 228.2
-6 16 -10 111.64 187.23
-16 -6 -10 0.89 125.17
6 16 -10 -228.47 221.75
6 16 -10 -378.9 148.95
-6 16 10 -173.18 160.92
-16 -6 10 121.19 131.78
6 16 11 136.06 161.15
-6 16 -11 -45.82 143.48
-16 -6 -11 101.7 109.03
6 16 -11 -62.1 165.18
-6 16 11 -226.4 125.4
-7 -16 0 -80.3 202.65
-16 -7 0 -147.65 222.23
-7 16 0 249.1 299.72
-16 7 0 -21.61 304.47
-7 -16 1 201 210.34
-7 -16 -1 85.47 210.34
-16 -7 1 -49.13 225.08
-16 -7 -1 513.17 251.57
-7 16 -1 425.81 302.1
-7 16 1 283.83 314.54
-16 7 1 325.34 312.46
-16 7 -1 599.64 324.59
7 16 1 61.34 229.71
7 16 -1 -242.4 231.16
-7 -16 2 1005.18 281.31
-7 -16 -2 586.18 246.65
-16 -7 2 809.99 272.63
-7 16 -2 635.01 335.7
-16 -7 -2 482.28 233.47
-7 16 2 838.3 340.69
-16 7 2 995.64 331.58
-16 7 -2 768.66 343.09
7 16 2 633.47 295.97
-7 16 -2 1199.35 305.62
7 16 -2 730.93 259.83
-7 -16 3 1800.96 344.24
-7 -16 -3 1540.19 304.95
-16 -7 3 1983.01 333.08
-7 16 -3 1555.35 355.45
-16 -7 -3 1575.28 308.42
-7 16 3 2061.69 395.35
-16 7 3 2041.49 383.29
-16 7 -3 2132.27 409.29
7 16 3 1644.22 358.47
-7 16 -3 1586.2 339.12
7 16 -3 1494.21 299.46
-16 -7 3 1978.74 300.72
-7 16 -4 2980.44 416.92
-7 16 4 2811.79 422.59
-16 7 -4 3207.82 451.82
7 16 4 2917.32 465.29
-16 -7 -4 2566.95 331.31
-7 16 -4 2433.9 375.5
-7 16 -4 2903.61 343.38
7 16 -4 2920.03 363.04
-16 -7 4 2691.2 346.84
-7 -16 4 3179.46 409.48
-7 -16 -4 2607.53 369.81
-16 -7 4 3189.23 382.31
-16 -7 -4 3092.23 384.38
-7 16 -5 4208.42 463.61
-7 16 5 3231.7 432.64
-16 7 -5 2794.56 422.89
-16 -7 -5 3288.49 385.68
-7 16 -5 3085.93 397.43
-7 16 -5 3792.48 382.63
7 16 -5 4740.61 432.97
-16 -7 5 3897.02 382.66
-7 -16 5 3832.08 444.37
-16 -7 5 3611.11 396.11
-16 -7 6 1811.68 297.94
-7 16 -6 3213.57 406.25
-7 16 6 1684.4 314.72
-16 7 -6 2326.73 392.22
-7 16 -6 1572.54 324.3
-16 -7 -6 2022.91 308.59
-7 16 -6 2330.62 307.94
7 16 -6 2739.06 344.89
-7 16 6 1851.32 304.35
-16 -7 6 1997.33 293.47
-7 -16 6 2145.84 379.81
-7 16 -7 580.14 257.8
-7 16 7 -210.56 215.32
-16 7 -7 70.95 261.2
-7 16 -7 71.15 264.17
-16 -7 -7 334.11 206.14
-7 16 -7 261.94 175.73
7 16 -7 265.5 199.38
-7 16 7 315.88 199.2
-16 -7 7 244.01 183.83
-7 -16 7 405.97 246.6
-16 -7 7 -142.77 201.75
-16 7 -8 431.91 235.89
-7 16 -8 269.59 247.73
-16 -7 -8 295.69 184.22
-7 16 -8 513.62 198.53
7 16 -8 435.91 186.53
-7 16 8 642.67 210.95
-16 -7 8 435.28 182.47
-7 -16 8 459.88 234.08
-16 7 -9 927.27 229.98
7 16 9 1412.67 313.61
-7 16 -9 880.71 243.91
-16 -7 -9 633.62 192.5
7 16 -9 922.95 188.61
-7 16 9 955.63 208.88
-16 -7 9 558.44 181.91
-7 -16 9 777.06 207.15
7 16 10 735.14 232.15
-7 16 -10 1133.4 228.68
-16 -7 -10 922.73 184.67
-7 16 10 998.22 191.42
-16 -7 10 687.81 163.64
7 16 11 1223.24 199.29
-7 16 -11 1505.39 200.74
-16 -7 -11 1358.36 177.51
7 16 -11 1526.75 202.49
-7 -16 -11 1198.02 168.19
-16 -7 -11 1277.26 173.95
-8 -16 0 1824.71 317.03
-8 16 0 2736.03 469.32
-16 -8 0 1879.5 320.01
-16 8 0 2237.46 391.12
-8 -16 1 572.31 245.57
-8 -16 -1 331.36 216.2
-16 -8 1 -28.94 205.43
-16 -8 -1 -24.42 218.85
-8 16 -1 451.77 292.87
-8 16 1 363.31 305.11
-16 8 1 533.4 304.83
-16 8 -1 281.29 330.59
8 16 -1 132.87 201.07
-8 -16 2 -31.57 199.88
-8 -16 -2 121.35 204.16
-16 -8 2 303.88 220.28
-8 16 -2 -603.63 343.75
-16 -8 -2 248.76 224.78
-8 16 2 -48.99 274.59
-16 8 2 560.89 312.84
-16 8 -2 134.13 308.61
8 16 2 -135.41 235.06
-8 16 -2 108.14 258.03
8 16 -2 -74.26 200.8
-16 -8 2 -91.61 191.09
-8 -16 3 381.71 237.6
-8 -16 -3 63.29 199.89
-16 -8 3 339.45 221.71
-8 16 -3 113.37 275.09
-16 -8 -3 381.05 239.72
-8 16 3 426.65 297.57
-16 8 3 -12.43 279.91
-16 8 -3 -137.52 319.66
8 16 3 159.36 262.43
-8 16 -3 -70.96 255.64
8 16 -3 279.74 225.23
-16 -8 3 310.37 210.23
-8 -16 4 -111.26 223.5
-16 -8 4 -3.77 198.2
-8 -16 -4 46.93 193.24
-8 16 -4 269.39 273.15
-8 16 4 28.12 272.73
-16 -8 -4 250.03 222.83
-16 8 -4 137.36 304.77
8 16 4 -116.12 282.35
-8 16 -4 -73.83 259.98
-16 -8 -4 -130.65 211.58
8 16 -4 78.31 219.36
-16 -8 4 -199.63 206.98
-8 -16 5 280.61 235.41
-16 -8 5 -85.97 199.65
-8 -16 -5 107.8 198.83
-8 16 -5 720.15 300.67
-8 16 5 129.63 232.68
-16 -8 -5 377.45 228.19
-16 8 -5 -334.78 301.42
8 16 5 157.69 293.13
-8 16 -5 -39.95 255.09
-16 -8 -5 71.33 193.3
8 16 -5 447.59 227.51
-16 -8 5 126.69 184.26
-16 -8 6 -50.57 203.26
-8 16 -6 699.06 303.59
-8 16 6 236.71 219.96
-16 8 -6 -71.1 274.33
-8 16 -6 -118.8 272.14
-16 -8 -6 145.76 194.4
-8 16 -6 -209.06 192.64
8 16 -6 61.68 190.36
-16 -8 6 -253.81 185.49
-8 -16 6 -84.47 218.24
-8 16 -7 418.17 245.25
-16 8 -7 111.28 243.49
-8 16 -7 6.21 256.29
-16 -8 -7 45.3 181.14
-8 16 -7 -269.17 182.58
8 16 -7 356.96 196.59
-8 16 7 140.11 163.81
-16 -8 7 -99.61 171.51
-8 -16 7 -96.43 198.81
-16 -8 7 -20.59 183.86
-16 8 -8 188.57 218.07
-8 16 -8 8.26 236.69
-16 -8 -8 52.78 167.72
8 16 -8 156.51 173.1
-8 16 8 -51.32 158.47
-16 -8 8 10.07 140.21
-8 -16 8 28.75 175.31
-8 -16 -9 -7.96 147.93
-16 8 -9 398.28 193.16
8 16 9 200.84 241.36
-8 16 -9 296.31 217.26
-16 -8 -9 -12.87 139.24
-8 16 9 43.45 144.94
-16 -8 9 244.16 135.94
-8 -16 9 193.49 166.7
-8 -16 -10 48.08 123.09
8 16 10 68.44 183.59
-8 16 -10 41.74 160.74
-16 -8 -10 -60.98 121.88
-8 16 10 -84.95 110.71
-16 -8 10 -2.93 105.5
-8 -16 10 116.08 118.4
-16 -8 -11 47.1 98.28
-9 -16 0 138.1 205.74
-16 -9 0 -165.74 227.1
-9 16 0 81.93 288.35
-16 9 0 186.43 285.51
-16 9 1 1979.92 381.75
-16 -9 1 1459.15 268.32
-9 -16 1 1433.25 298.3
-9 -16 -1 1617.24 306.9
-16 -9 1 1417.28 292.78
-16 -9 -1 1574.69 301.16
-9 16 -1 895.32 322.8
-9 16 1 2189.85 406.64
-16 9 -1 1744.47 393.83
9 16 -1 1373.94 275.06
-9 -16 2 807.94 259.34
-9 -16 -2 896.93 248.12
-16 -9 2 899.46 261.85
-9 16 -2 532.13 285.83
-16 -9 -2 615.7 247.24
-9 16 2 1005.86 337.19
-16 9 2 770.19 302.26
-16 9 -2 905.94 329.96
-9 16 -2 1483.37 330.82
9 16 -2 879.52 255.44
-16 -9 2 870.04 250.69
-9 -16 3 1679.28 306.9
-9 -16 -3 1527.37 292.76
-16 -9 3 1933.14 315.3
-9 16 -3 1472.32 345.58
-16 -9 -3 1582.29 293.36
-9 16 3 2086.67 363.48
-16 9 3 1524.6 324.31
-16 9 -3 1732.58 398.04
9 16 3 1218.51 318.83
-9 16 -3 1513.48 348.01
9 16 -3 1721.86 291.16
-16 -9 3 1273.34 266.62
-9 -16 4 1032.92 268.7
-16 -9 4 1522.48 288.58
-9 -16 -4 1212.66 272.8
-9 16 -4 1194.21 337.97
-9 16 4 1376.6 319.02
-16 -9 -4 1232.87 280.45
-16 9 -4 350.13 308.61
9 16 4 1385.04 343.12
-9 16 -4 1179.93 303.69
9 16 -4 1581.44 282.96
-16 -9 4 1149.57 254.18
-9 -16 5 1517.53 293.6
-16 -9 5 1392.92 278.6
-9 -16 -5 1423.6 272.3
-9 16 -5 2024.94 364.16
-9 16 5 1279.23 286.16
-16 -9 -5 1739.34 306.55
-16 9 -5 815.93 316.66
-9 16 -5 1115.51 312.88
9 16 5 1341.89 355.22
-16 -9 -5 1323.83 274.26
9 16 -5 1802.78 280.93
-16 -9 5 1454.75 261.46
-16 -9 6 808.2 223.07
-9 -16 -6 546.62 205.1
-9 16 -6 824.06 277.98
-9 16 6 731 247.08
-16 -9 -6 503.48 220.25
-16 9 -6 649.57 299.37
-9 16 -6 362.42 257.6
-16 -9 -6 383.72 196.35
9 16 -6 990.26 238.46
-16 -9 6 707.95 209.32
-9 -16 6 782.41 252.09
-9 -16 -7 -61.67 160.66
-9 16 -7 562.86 245.33
-16 -9 -7 109.33 174.72
-16 9 -7 -87.46 238.01
-9 16 -7 -186.36 238.34
-16 -9 -7 -80.57 167.6
-16 -9 7 290.72 184.5
-9 -16 7 -178.53 192.51
-16 -9 7 -646.93 197.85
-9 -16 -8 11.55 144.28
-16 9 -8 -39.92 211.04
-9 16 -8 -93.83 215.03
9 16 8 548.92 283.85
-16 -9 -8 88.41 149.06
-16 -9 8 69.87 146.08
-9 -16 8 161.72 173.92
-9 -16 -9 1072.15 195.29
-16 -9 -9 1268.08 221.26
-16 9 -9 1147.21 215.42
-9 16 -9 1302.03 245.99
9 16 9 1254.44 262.62
-16 -9 -9 839.78 190.17
-16 -9 9 812.09 175.24
-9 -16 9 1208.69 201.93
-9 -16 -10 586.86 147.65
-16 -9 -10 720.32 159.02
9 16 10 556.42 190.44
-9 16 -10 1034.79 196.92
-16 -9 -10 659.96 152.18
9 16 -10 628.75 167.22
-16 -9 10 637.26 139.8
-16 -10 0 152.73 191.06
-10 -16 0 215.75 198.99
-16 -10 0 -23.84 199.78
-10 16 0 -321.05 298.35
-16 10 0 192.62 297.75
10 16 0 -235.66 220.56
-16 -10 1 631.28 211.03
-16 -10 -1 578.16 206.02
-10 -16 1 612.28 240.09
-10 -16 -1 397.14 218.27
-16 10 -1 939.86 330.76
-16 10 -1 1595.5 294.25
-16 -10 1 880.95 270.98
-16 -10 -1 430.72 233.25
-10 16 -1 4.08 282.87
-10 16 1 34.12 325.11
-16 10 1 611.89 288.45
10 16 -1 293.71 198.81
-16 -10 2 445.52 203.2
-10 -16 2 286.7 209.74
-10 -16 -2 358.23 210.23
-16 -10 2 531.13 240.87
-10 16 -2 226.55 267.22
-16 -10 -2 305.81 213.15
-10 16 2 693.89 281.94
-16 10 2 830.09 308.94
-16 10 -2 652.46 317.21
-10 16 -2 628.96 285.97
10 16 -2 552.87 229.47
-10 -16 3 407.22 219.15
-16 -10 3 660.56 234.35
-10 -16 -3 549.6 219.56
-10 16 -3 784.63 299.82
-16 -10 -3 470.44 223.87
-10 16 3 964 315.31
-16 10 -3 315.46 294.28
-10 16 -3 955.63 323.51
10 16 -3 606.92 220.78
-16 -10 3 341.58 194.59
-10 -16 4 23.13 189.3
-16 -10 4 -131.85 191.15
-10 -16 -4 25.17 181.51
-10 16 -4 130.03 272.06
-10 16 4 244.36 239.53
-16 -10 -4 -112.67 189.02
-16 10 -4 -387.19 298.01
-10 16 -4 361.76 269.98
10 16 4 45.92 238.05
10 16 -4 210.2 193.32
-16 -10 4 -227.78 186.32
-16 -10 5 -171.67 200.98
-10 -16 -5 72 169.02
-10 16 -5 888.74 292.95
-10 16 5 281.44 212.01
-16 -10 -5 138.77 183.26
-16 10 -5 -413.32 288.03
-10 16 -5 216.01 256.55
10 16 5 344.61 263.61
10 16 -5 468.99 189.39
-16 -10 5 -138.5 170.29
-10 -16 5 193.99 205.63
-10 -16 -6 20 157.07
-10 16 -6 361.33 258.91
-16 -10 -6 107.45 180.64
-16 10 -6 234.11 261.37
-10 16 -6 515.27 263.82
10 16 6 142.94 253.74
-16 -10 -6 4.52 178.9
-16 -10 6 86.6 160.15
-10 -16 6 54.25 178.51
-16 -10 6 -11.13 165.68
-10 -16 -7 212.14 161.34
-10 16 -7 1130.68 278.04
-16 -10 -7 719.55 216.66
-16 10 -7 194.23 231.02
-10 16 -7 827.72 266.1
10 16 7 987.11 300.39
-16 -10 -7 221.88 168.6
-16 -10 7 405.61 175.98
-10 -16 7 814.09 219.67
-10 -16 -8 228.91 165.15
-16 -10 -8 335.79 173.46
-16 10 -8 370.67 209.71
-10 16 -8 942.5 247.69
10 16 8 839.56 252.56
-16 -10 -8 478.08 168.21
-16 -10 8 843.84 183.63
-10 -16 8 569.64 175.62
-10 -16 -9 407.52 134.4
-16 -10 -9 413.22 155.5
-16 10 -9 397.44 179.97
-10 16 -9 713.19 213.91
10 16 9 400.85 189.57
-16 -10 -9 369.39 146.74
-16 -10 9 321.05 140.47
-10 -16 9 615.52 154.81
-16 -10 -10 102.69 108.07
10 16 10 202.11 140.36
-10 16 -10 287.59 151.5
-16 -11 0 18.06 173.45
-11 -16 0 -80.79 197.25
-16 -11 0 -31.49 191.1
-11 16 0 -397.71 304.7
-16 11 0 481.81 303.16
11 16 0 -45.82 187.85
-16 -11 1 151.34 167.01
-16 -11 -1 81.87 177.3
-11 -16 1 -103.94 186.63
-11 -16 -1 31.58 184.12
-16 -11 1 421.84 219.09
-16 11 -1 308.8 220.57
-16 11 -1 185.73 283.68
-16 -11 -1 -154.38 191.47
-11 16 -1 -94.95 271.81
-11 16 1 -159.88 265.55
-16 11 1 173.32 261.77
11 16 -1 274.82 209.54
-16 -11 2 600.24 208.39
-11 -16 2 589.53 229.33
-16 -11 -2 745.21 203.27
-11 -16 -2 666.33 223.84
-16 -11 2 827.32 251.34
-16 11 -2 1366.3 282.04
-11 16 -2 886.1 311.52
-16 -11 -2 500.84 222.9
-11 16 2 87.29 270.52
-16 11 2 608.7 276.9
-16 11 -2 861.59 326.85
-11 16 -2 -114.86 277.43
11 16 -2 527.49 211.91
-11 -16 3 1007.89 256.69
-16 -11 3 1280 264.83
-11 -16 -3 1073.28 238.77
-11 16 -3 1018.13 312.35
-16 -11 -3 1157.76 267.51
-11 16 3 273.47 225.28
-16 11 -3 987.77 337.66
-11 16 -3 283.8 268.72
11 16 -3 1258.6 249.31
-16 -11 3 956.78 220.68
-11 -16 4 1238.81 264.25
-16 -11 4 1187.21 246.97
-11 -16 -4 1062.61 235.52
-11 16 -4 1918.88 346.65
-11 16 4 682.84 234.38
-16 -11 -4 1001.78 242.39
-16 11 -4 886.92 310.34
-11 16 -4 2180.45 355.27
-16 -11 4 936.59 217.44
-16 -11 5 -14.22 154.48
-11 -16 -5 215.43 177.53
-11 16 -5 147.29 242.05
-16 -11 -5 257.94 189.23
-16 11 -5 -185.25 260.34
-11 16 -5 293.85 259.86
11 16 5 762.17 254.13
-16 -11 5 224.93 176.57
-11 -16 5 239.07 190.56
-11 -16 -6 -54.68 150.15
-11 16 -6 880.1 261.47
-16 -11 -6 412.81 200.26
-16 11 -6 119.94 237.84
-11 16 -6 310.82 251.81
11 16 6 52.17 218.59
-16 -11 6 -2.19 145.05
-11 -16 6 236.13 177.16
-16 -11 6 -358.27 179.18
-11 -16 -7 100.43 143.3
-16 -11 -7 184.73 158.76
-16 11 -7 63.31 211.35
-11 16 -7 115.33 220.33
11 16 7 458.41 227.67
-16 -11 7 -76.53 143.55
-11 -16 7 -237.28 162.84
-11 -16 -8 99.21 128.98
-16 -11 -8 192.78 158.06
-16 11 -8 239.2 195.27
-11 16 -8 238.33 201.91
11 16 8 307.89 193.03
-16 -11 8 105.33 131.66
-11 -16 8 49.16 133.27
-11 -16 -9 115.32 102.35
-16 -11 -9 374.62 138.26
-16 11 -9 312.43 158.39
-11 16 -9 407.97 185.72
11 16 9 222.88 167.96
-16 -11 9 129.07 113.3
-11 -16 9 203.93 110.96
-12 16 0 2458.64 372.25
-16 12 0 3154.37 380.65
12 16 0 2679.41 307.02
-16 -12 0 2869.05 310.04
-12 -16 0 2914.31 337.34
-16 -12 0 3107.13 345.97
-16 -12 1 962.97 227.55
-16 -12 -1 570.16 189.03
-12 -16 1 888.73 233.78
-12 -16 -1 678.48 216.54
-16 -12 1 1111.33 259.82
-16 12 -1 1158.9 254.16
-16 -12 -1 1180.88 249.15
-12 16 -1 739.33 294.45
-12 16 1 817.19 274.22
-16 12 1 1331.38 327.68
-16 12 -1 1222.56 307.95
-12 16 -1 709.8 262.05
12 16 -1 724.61 211.56
12 16 1 403.13 188.94
-12 -16 2 416.15 206.86
-16 -12 -2 462.74 188.91
-12 -16 -2 484.74 196.08
-16 -12 2 533.44 206.97
-16 12 -2 981.82 255.07
-16 -12 -2 482.03 207.94
-12 16 -2 1107.23 309.72
-12 16 2 438.68 242.14
-16 12 2 409.03 246.85
-16 12 -2 703.27 285.09
-12 16 -2 119.92 236.6
-16 -12 2 794.12 211.89
-12 -16 3 201.5 199.23
-16 -12 -3 493.65 175.41
-16 -12 3 180.75 183.44
-12 -16 -3 328.67 174
-12 16 -3 847.18 304.38
-16 -12 -3 161.42 178.53
-12 16 3 128.67 212.51
-16 12 -3 362.19 275.51
-12 16 -3 -93.17 242.5
-16 -12 3 534.9 204.67
-16 -12 4 -60.42 165.46
-12 -16 -4 -22.25 149.35
-12 16 -4 234.73 253.32
-16 -12 -4 85.23 176.1
-16 12 -4 87.68 240.87
-12 16 -4 -443.12 281.97
-16 -12 4 -188.49 170.64
-12 -16 4 180.44 173.56
-12 -16 -5 222.83 163.23
-16 12 -5 202.19 242.03
-12 16 -5 463.24 241.6
-16 -12 -5 9.4 154.97
-12 16 -5 -339.09 263.57
-16 -12 5 26.92 153.4
-12 -16 5 214.05 175.27
-16 -12 5 -46.33 146.93
-12 -16 -6 680.96 187.09
-16 -12 -6 975.61 202.04
-16 12 -6 1236.02 291.87
-12 16 -6 592.14 238.79
12 16 6 814.52 214.11
-16 -12 6 515.12 158.32
-16 -12 6 921.35 198.65
-12 -16 6 1134.66 220.56
-12 -16 -7 715.85 168.3
-16 -12 -7 1069.1 199.33
-16 12 -7 1353.82 274.91
-12 16 -7 941.92 244.96
12 16 7 975.15 207.91
-16 -12 7 715.58 170.55
-12 -16 7 1125.5 194.49
-12 -16 -8 549.87 137.96
-16 -12 -8 777.37 159.26
-16 12 -8 806.24 206.88
-12 16 -8 929.61 221.24
12 16 8 570.26 168.98
-16 -12 8 608.52 150.86
-12 -16 8 680.22 151.73
-16 -13 0 264.13 165.43
-13 -16 0 145.87 171.93
-16 -13 0 314.74 188.22
-13 16 0 238.9 232.7
-16 13 0 500.27 240.76
-16 -13 1 33 155.98
-16 -13 -1 -87.96 157.87
-13 -16 1 54.46 169.29
-13 -16 -1 -31.93 161.56
-16 -13 1 210.6 185.81
-16 13 -1 599.13 238.04
-16 -13 -1 498.15 197.79
-16 13 -1 1092.37 297.04
-13 16 -1 757.05 276.47
-13 16 1 89.82 224.62
-16 13 1 -26.12 217.4
-13 16 -1 372.05 232.92
13 16 1 55.94 153.81
-13 -16 2 -33.25 168.48
-16 -13 -2 1.36 136.57
-13 -16 -2 131.13 161.66
-16 -13 2 75.82 158.49
-16 13 -2 856.77 235.2
-16 -13 -2 108.37 176.39
-13 16 -2 1054.66 302.17
-13 16 2 203.9 198.48
-16 13 -2 -40.29 233.87
-13 16 -2 -28.69 226.94
13 16 2 -157.84 172.7
-16 -13 2 350.55 174.1
-13 -16 3 361.53 180.46
-16 -13 -3 329.64 152.39
-16 -13 3 194.31 161.84
-13 -16 -3 472.85 178.03
-13 16 -3 276.55 230.6
-16 -13 -3 214.6 164.18
-16 13 -3 610.23 275.29
-13 16 -3 17.38 237.65
-16 -13 3 554.43 188.41
-16 -13 4 288.18 157.02
-13 -16 -4 147.94 148.51
-13 16 -4 653.94 253.85
-16 -13 -4 11.82 156.05
-16 13 -4 220.58 234.15
-13 16 -4 -22.97 238.24
-16 -13 4 297.46 158.28
-13 -16 4 88.54 158.33
-13 -16 -5 195.13 151.69
-16 -13 -5 26.25 132.88
-16 13 -5 436.73 237.99
-13 16 -5 -11.63 214.92
-16 -13 5 0.26 134.07
-13 -16 5 0.72 150.5
-16 -13 5 -52.01 158.77
-13 -16 -6 -68.34 125.92
-16 -13 -6 155.78 132.03
-16 13 -6 -230.38 214.56
-13 16 -6 37.34 196.66
-16 -13 6 -49.94 127.69
-13 -16 6 145.74 146.33
-13 -16 -7 171.11 115.63
-16 -13 -7 -2.25 113.74
-16 13 -7 70.02 183.08
-13 16 -7 146.79 190.06
-16 -13 7 121.27 122.61
-13 -16 7 13.99 115.35
-16 13 -8 409.85 172.08
-13 16 -8 78.76 146.07
-16 -13 8 42.84 91.52
-13 -16 8 184.31 115.77
-16 -14 0 186.34 159.13
-14 -16 0 314.01 174.61
-16 -14 0 273.35 170.99
-14 16 0 694.52 239.65
-16 14 0 672.59 224.9
-16 -14 1 1016.66 218.26
-14 -16 1 1198.05 239.49
-16 -14 -1 1317.57 214.59
-16 -14 1 1450.08 225.46
-16 -14 -1 1508.3 232.93
-16 14 -1 1983.71 280.79
-14 16 1 2073.95 282.39
-14 16 -1 1627.9 298.92
-14 16 -1 1985.28 284.68
-16 14 -1 1987.66 306.15
-14 -16 -1 1516.98 242.32
-14 -16 2 746.7 224.56
-16 -14 -2 637.28 179.71
-14 -16 -2 396.49 174.89
-16 -14 2 524.32 166.9
-16 -14 -2 1118.97 198.83
-14 16 -2 1111.93 265.53
-16 14 -2 1483.68 284.99
-14 16 -2 1080.46 254.56
-16 -14 2 522.06 188.13
-16 -14 3 -212.02 156.91
-16 -14 -3 237.78 136.54
-14 -16 -3 169.92 149.73
-16 -14 -3 468.5 159.65
-14 16 -3 477.02 239.65
-16 14 -3 793.8 241.59
-14 16 -3 237.07 217.46
-16 -14 3 181.58 151.38
-14 -16 3 264.15 169.15
-14 -16 -4 -64.25 134.37
-14 16 -4 590.82 224.25
-16 -14 -4 47.46 131.32
-16 14 -4 454.56 223.11
-14 16 -4 86.81 195.82
-16 -14 4 28.47 130.31
-14 -16 4 -133.66 144.49
-16 -14 4 -105.37 137.07
-14 -16 -5 188.61 128.31
-16 -14 -5 268.42 139.58
-16 14 -5 225.46 217.82
-14 16 -5 70.53 187.84
-16 -14 5 115.32 128.07
-14 -16 5 131.02 142.2
-14 -16 -6 310.39 120.86
-16 -14 -6 224.38 115.01
-16 14 -6 626.73 207.04
-14 16 -6 215.98 181.87
-16 -14 6 218.93 131.76
-14 -16 6 385.19 146.29
-16 14 -7 2023.45 234.97
-14 16 -7 2050.07 231.71
-16 -14 7 1298.75 168.46
-14 -16 7 1361.35 175.89
-16 -15 0 -4.21 119.62
-15 -16 0 2.49 129.33
-16 -15 0 -40.04 121.69
-15 -16 1 -43.82 131.59
-16 -15 -1 126.82 140.48
-15 -16 -1 21.77 123.42
-16 -15 1 -101.92 135.91
-16 -15 -1 347.21 149.23
-15 16 -1 332.06 209.09
-16 15 -1 444.7 203.97
-16 -15 1 316.08 140.44
-16 -15 2 -316.54 135.78
-16 -15 -2 41.72 120.97
-15 -16 -2 17.95 125.98
-16 -15 -2 8.74 116.23
-15 16 -2 619.45 219.68
-15 16 -2 789.33 215.53
-16 15 -2 252.29 197.79
-16 -15 2 41.81 131.75
-15 -16 2 -24.36 134.2
-16 -15 -3 44.6 110.35
-15 -16 -3 37.04 124.17
-16 -15 -3 -14.92 110.33
-16 15 -3 423.42 189.26
-15 16 -3 359.99 198.09
-16 -15 3 2.57 119.89
-15 -16 3 -12.71 127.27
-15 -16 -4 74.29 115.47
-16 15 -4 279.67 189.8
-15 16 -4 5.65 171.91
-16 -15 4 36.17 114.65
-15 -16 4 -3.6 119.43
-16 15 -5 158.66 165.18
-15 16 -5 102.42 159.65
-16 -15 5 19.85 116.71
-15 -16 5 14.09 113.08
-16 15 -6 -20.45 148.2
-15 16 -6 166.25 146.21
-16 -15 6 35.62 92.35
-15 -16 6 103.69 96.94
-16 -16 0 881.86 170.15
-16 -16 -1 141.11 123.05
-16 -16 1 119.09 129.63
-16 -16 -2 162.54 119.28
-16 16 -2 385.96 149.76
-16 16 -3 543.58 163.82
-16 -16 3 224.51 128.17
-16 -16 4 14.45 95.22
-17 0 0 -22.13 203.01
0 17 0 -389.19 302.97
0 17 0 -451.11 244.75
-17 0 1 1804.64 336.68
-17 0 -1 1838.19 307.28
0 17 -1 942.97 315.55
-17 0 -1 1169.87 340.28
0 17 1 1659.49 368.69
0 17 -1 1739.99 328.37
-17 0 2 2022.62 312.44
0 -17 -2 689.45 227.07
-17 0 -2 1644.5 300.12
0 17 -2 1007.7 309.61
-17 0 -2 1739.12 359.97
0 17 2 1130.75 350.59
0 17 -2 1600.44 323.42
0 17 2 1016.31 272.88
-17 0 3 1041.86 273.77
-17 0 -3 701.97 228.75
0 17 -3 1741.36 345.02
-17 0 -3 1069.76 320.66
0 17 3 733.81 318.54
0 17 -3 1150.95 289.25
0 17 3 506.32 230.81
-17 0 4 95.31 204.31
0 17 -4 -577.71 276.19
-17 0 -4 -57.29 194.34
-17 0 -4 -425.03 271.06
0 17 4 -137.45 276.82
0 17 -4 -293.09 269.66
0 17 -4 319.71 254.9
0 17 4 271.96 218.04
-17 0 5 -189.65 199.87
-17 0 -5 41.36 202.9
-17 0 -5 324.69 278.54
0 17 5 52.64 287.58
0 17 -5 80.23 252.31
0 17 -5 -38.02 230.95
0 17 5 186.92 223.1
0 17 6 -252.98 278.92
0 17 -6 37.23 266.38
0 17 -6 197.48 231.98
0 17 6 129.64 215.8
-17 0 6 -531.12 215.14
0 17 7 28.46 248.24
0 17 -7 8.53 249.14
0 17 -7 82.96 210.01
0 17 7 213.49 217.26
0 17 8 -116.68 247.54
0 17 -8 -213.49 243.39
0 17 -8 -202.82 217
0 17 8 5.65 188.29
0 17 9 -84.23 214.96
0 17 -9 -213.41 230.86
0 17 -9 109.77 184.56
0 17 9 174.45 186.52
0 17 10 43.66 163.02
0 17 -10 232.55 190.66
0 17 -10 -302.27 174.86
0 17 10 15.51 155.08
0 17 -11 221.37 163.4
0 17 11 -159.71 130.27
17 0 -11 2.95 128.83
-1 -17 0 1200.19 269.29
-17 1 0 1036.18 272.26
-17 -1 0 1167.41 308.43
-1 17 0 911.78 317.26
1 17 0 671.1 320.37
-17 1 0 948 342.12
-1 17 0 1011.5 281.71
1 17 0 812.78 257.87
-17 1 -1 -197.53 290.73
-1 -17 -1 -113.33 223.77
-17 1 1 -14.49 215.8
-17 -1 1 -66.73 203.44
-17 1 -1 -68.18 210.1
-17 -1 -1 -120.01 204.52
-1 17 -1 -27.69 281.28
1 17 -1 -148.4 271.87
-1 17 1 -38.93 273.68
1 17 1 471.55 292.75
-1 17 -1 89.22 210.98
1 17 -1 -47.84 237.45
-1 17 1 53.48 212.42
-17 1 2 95.67 206.28
-1 -17 -2 89.88 226.39
-17 -1 2 226.8 215.58
-17 1 -2 42.32 205.96
-17 -1 -2 195.05 204.88
-1 17 -2 -39.94 252.02
1 17 -2 -278.93 276.47
-17 -1 -2 -170.57 295.34
-17 1 -2 72.62 268.97
-1 17 2 4.69 267.93
1 17 2 -172.36 284.94
-1 17 -2 86 219.22
1 17 -2 278.82 229.43
1 17 2 -71.85 199.68
-1 17 2 -50.22 201.35
-17 1 3 -143.79 202.66
-17 -1 3 91.39 198.3
-17 1 -3 -92.45 197.85
-1 17 -3 12.88 250.74
1 17 -3 378.76 234.84
-17 -1 -3 407.34 233.34
-17 -1 -3 -265.54 297.03
1 17 3 258.47 302.23
-17 1 -3 223.05 291.06
-1 17 3 -97.52 281.11
-1 17 -3 117.92 230.54
1 17 -3 264.64 245.98
1 17 3 -138.01 191.64
-1 17 3 145.26 209.78
-17 1 4 -15.34 186.28
-17 -1 4 -90.93 200.94
-1 17 -4 -224.47 288.43
-17 1 -4 -251.6 208.38
-17 -1 -4 432.95 227.13
-17 -1 -4 -57.1 258.26
-17 1 -4 174.37 276.93
-1 17 4 78.11 271.87
1 17 4 -23.33 275.78
-1 17 -4 221.19 288.54
-1 17 -4 2.11 208.83
1 17 -4 87.52 226.94
1 17 4 174.46 221.55
-1 17 4 32.13 205.28
-17 -1 5 30.73 199.92
-1 17 -5 -94.61 243.82
-17 1 -5 542.2 221.44
-17 1 -5 314.93 270.39
-1 17 5 -94.87 274.97
1 17 5 307.59 314.75
-1 17 -5 -129.67 247.73
1 17 -5 188.21 243.04
-1 17 -5 295.23 235.1
1 17 -5 355.61 243.77
1 17 5 14.72 209.68
-1 17 5 502.32 244.27
-17 1 5 131.54 179.07
-17 1 -6 794.02 224.2
-1 17 6 338.37 289.84
1 17 6 986.57 329.26
-17 -1 -6 420.22 199.72
-1 17 -6 835.89 301.65
1 17 -6 955.11 309.28
-1 17 -6 628.88 269.87
1 17 -6 805.08 261.84
1 17 6 628.49 262.87
-1 17 6 730.75 265.32
-17 1 6 341.5 175.96
-17 -1 6 592.77 216.32
-1 17 7 -267.43 275.81
1 17 7 289.56 276.68
-17 -1 -7 -19.92 168.33
-1 17 -7 101.99 252.42
1 17 -7 -118.09 252.36
-1 17 -7 513.34 282.19
1 17 -7 -7.34 213.66
1 17 7 -2.59 208.65
-1 17 7 141.78 202.16
-1 17 8 -183.41 239.8
1 17 8 145.5 239.02
-1 17 -8 -49.49 231.89
1 17 -8 330.44 259.94
-1 17 -8 -23.66 207.06
1 17 -8 -62.03 211.68
1 17 8 134.99 208.48
-1 17 8 -24.11 204.42
-1 17 9 -140.05 208.01
1 17 9 80.45 211.55
-1 17 -9 152.11 218.68
1 17 -9 195.19 218.99
-1 17 -9 176.3 181.12
1 17 -9 274.97 199.15
1 17 9 -61.57 183.29
-1 17 9 296.33 199.58
-1 17 10 -87.44 168.16
1 17 10 -63.08 188.75
-1 17 -10 196.69 200.41
1 17 -10 244.25 209.66
-1 17 -10 -430.77 180.09
1 17 -10 -187.21 164.27
1 17 10 -122.8 161.59
-1 17 10 0.43 155.46
1 17 11 -99.08 138.18
-1 17 -11 -50.89 149.51
1 17 -11 199.77 159.47
-1 17 11 -41.38 125.5
17 1 -11 2.81 128.33
-2 -17 0 108.86 224.35
-17 -2 0 235.81 222.22
-2 17 0 101.11 272.12
2 17 0 57.41 275.12
-17 2 0 -282.24 315.86
-2 17 0 -147.99 228.7
2 17 0 -403.78 281.91
-2 -17 1 367.07 221.72
-2 -17 -1 752.35 288.86
-17 -2 1 309.48 217.22
-17 -2 -1 428.84 226.41
-2 17 -1 403.93 294.22
2 17 -1 47.15 267.36
-2 17 1 193.85 269.46
-17 2 1 391.07 318.68
-17 2 -1 669.3 316.71
2 17 1 237.5 271.3
-2 17 -1 285.52 232.71
2 17 -1 263.16 245.3
-2 17 1 207.92 212.89
-2 -17 2 1059.22 299.03
-2 -17 -2 1381.64 324.48
-17 -2 2 1541.98 303.2
-17 -2 -2 1191.52 283.23
-2 17 -2 1717.98 364.67
2 17 -2 1497.56 312.17
-2 17 2 1293.56 350.29
-17 2 -2 927.91 333.73
2 17 2 1287.53 352.79
-2 17 -2 1311.3 295.3
2 17 -2 1342.8 308.52
-2 17 2 962.18 265.5
2 17 2 871.31 259.05
-2 17 2 1045.34 261.32
-17 -2 3 1230.7 289.17
-2 17 -3 1850.67 354.36
-17 -2 -3 1282.59 279.91
-2 17 3 1404.15 366.16
-17 2 -3 1809.11 352.88
2 17 3 1421.9 362.63
-2 17 -3 2098.23 347.42
2 17 -3 1435.69 317.64
2 17 3 1314.79 292.62
-2 17 3 1441.13 290.26
-17 -2 4 468.15 232.99
-2 17 -4 -72.69 296.08
-17 -2 -4 415.11 238.24
-2 17 4 299.87 264.89
-17 2 -4 785.84 295.31
2 17 4 379.02 307.46
-2 17 -4 816.72 303.73
-2 17 -4 937.65 281.02
2 17 -4 565.23 273.22
2 17 4 550.36 246.04
-2 17 4 855.59 254.66
-17 -2 5 -95.93 204.77
-2 17 5 160.35 285.24
-2 17 -5 -352.6 267.08
-17 2 -5 208.18 261.01
2 17 5 211.35 289.39
-17 -2 -5 -285.52 196.84
-2 17 -5 92.18 240.9
2 17 -5 46.32 255.72
-2 17 -5 237.28 236.21
2 17 -5 258.97 234.27
2 17 5 35.97 217.39
-2 17 5 133.7 214.4
-17 -2 6 -118.11 190.24
-17 2 -6 500.98 276.62
-2 17 6 193.63 252.55
2 17 6 -11.82 274.14
-17 -2 -6 -377.96 212.31
-2 17 -6 -173.82 263.5
2 17 -6 -106.8 256.29
-2 17 -6 205.05 233.48
2 17 -6 144.41 222.56
2 17 6 281.34 218.82
-2 17 6 -204.75 212.03
2 17 7 221.87 275.49
-17 -2 -7 48.92 175.31
-2 17 -7 15.43 246.74
2 17 -7 114.27 233.91
-2 17 -7 21.82 210.07
2 17 -7 268.88 222.93
2 17 7 -224.15 222.05
-2 17 7 -232.09 225.59
-2 17 7 -204.31 270.05
-17 -2 7 -263.26 212.84
-2 17 8 78.96 213.52
2 17 8 -58.3 239.27
-17 -2 -8 -51.82 172.79
-2 17 -8 177.79 239.95
2 17 -8 520.09 272.82
-2 17 -8 -129.1 191.18
2 17 -8 103.93 206.87
2 17 8 249.83 209.56
-2 17 8 -171.43 216.49
-2 17 9 195.9 205.73
2 17 9 42.55 211.87
-17 -2 -9 -52.16 143.32
-2 17 -9 -2.48 201.58
2 17 -9 411.75 237.93
-2 17 -9 -222.23 185.7
2 17 -9 17.37 170.84
2 17 9 240.53 195.51
-2 17 9 -141.2 197.51
-2 17 10 162.38 160.32
2 17 10 -135.26 182.93
-2 17 -10 516.52 198.21
2 17 -10 -159.31 196.99
-2 17 -10 -260.75 166.16
2 17 -10 -91.81 153.36
2 17 10 -37.49 150.43
-2 17 10 160.97 159.17
17 -2 -10 -0.09 137.53
-17 -2 -11 111.59 101.26
2 17 11 -61.56 128.32
-2 17 -11 -186.97 156.24
2 17 -11 444.62 171.85
2 17 11 -63.66 119.32
-2 17 11 78.54 121.03
17 2 -11 -16.12 160.57
-3 -17 0 -293.47 251.66
-17 -3 0 -18.92 202.45
-3 17 0 15.53 282.2
3 17 0 -285.7 259.45
-17 3 0 220.98 316.48
-3 17 0 50.46 203.77
-3 -17 1 92.94 231.75
-3 -17 -1 418.28 247.83
-17 -3 1 320.71 226.97
-17 -3 -1 299.67 221.88
-3 17 -1 106.5 270.28
-3 17 1 88.31 268.24
3 17 -1 140.42 231.94
-17 3 1 308.15 308.15
-17 3 -1 579.26 319.03
3 17 1 -39.41 267.16
-3 17 -1 310.42 228.52
-3 17 1 349.14 218.74
3 17 -1 157.12 227.95
-3 -17 2 57.59 236.53
-3 -17 -2 -81.02 240.33
-17 -3 2 402.3 238.16
-17 -3 -2 195.34 207.74
-3 17 -2 -265.4 274.04
-3 17 2 12.99 278.29
-17 3 -2 376.69 299.15
3 17 2 230.73 308.37
-3 17 -2 274.48 230.2
3 17 -2 -111.81 229.41
-3 17 2 -147.45 214.37
-3 17 2 -166.2 217.62
-3 -17 3 270.76 231.29
-17 -3 3 269.65 214.13
-3 17 -3 292.1 270.76
-17 -3 -3 264.55 226.37
-3 17 3 -130.52 276.96
-17 3 -3 459.07 325.39
3 17 3 397.93 302.12
-3 17 -3 183.45 220.15
3 17 -3 188.94 240.53
-3 17 3 -130.76 205.67
3 17 3 5.44 199.92
-3 17 3 89.22 194.82
-3 -17 4 280.94 253.09
-17 -3 4 88.43 215.3
-3 17 -4 -445.16 292.77
-17 -3 -4 162.31 225.4
-3 17 4 186.91 273.96
-17 3 -4 97.66 273.47
3 17 4 -92.95 296.2
-3 17 -4 330.1 266.18
-3 17 -4 145.08 233.15
3 17 -4 175.34 231.81
3 17 4 -95.73 224.27
-3 17 4 89.32 206.78
-17 -3 5 -19.73 192.55
-3 17 -5 -214.15 259.48
-3 17 5 -211.95 307.35
-17 3 -5 279.57 269
3 17 5 123.68 295.33
-17 -3 -5 -130.8 198.51
-3 17 -5 199.39 264.62
3 17 -5 235.38 246.42
-3 17 -5 29.78 209.65
3 17 -5 104.33 219.08
3 17 5 37.82 220.9
-3 17 5 262.85 229.72
-17 -3 6 179.1 233.21
-3 17 -6 245.61 255.45
-3 17 6 -109.67 261.68
-17 3 -6 -161.15 243.66
3 17 6 27.46 300.23
-3 17 -6 127.38 264.12
-17 -3 -6 -24.18 193.51
3 17 -6 -227.74 257.31
-3 17 -6 22.75 214.86
3 17 -6 292.16 242.94
3 17 6 40.49 206
-3 17 6 -201.89 238.01
-3 17 7 220.13 238.87
-17 3 -7 958.65 284.06
3 17 7 620.44 319.15
-3 17 -7 891.66 292.81
-17 -3 -7 392.65 206.48
3 17 -7 622.7 283.95
-3 17 -7 525.73 229.31
3 17 -7 310.27 235.9
3 17 7 360.9 223.84
-3 17 7 417.98 237.79
-17 -3 7 -21.94 212.28
-3 17 8 254.05 239.6
3 17 8 565.11 280.86
-3 17 -8 718.7 262.78
-17 -3 -8 245.78 179.5
3 17 -8 447.74 266.62
-3 17 -8 471.14 202.87
3 17 -8 433.59 213.45
3 17 8 146.49 187.33
-3 17 8 222.78 215.17
-3 17 9 64.48 186.63
3 17 9 -264.91 232.6
-3 17 -9 148.61 205.48
-17 -3 -9 -61.5 144.96
3 17 -9 80.09 214.57
-3 17 -9 -105.17 176.2
3 17 -9 80.61 170.55
3 17 9 -14.35 164.49
-3 17 9 91.9 173.89
3 17 10 73.44 181.31
-3 17 -10 -88.17 172.75
3 17 -10 113 192.03
3 17 -10 -110.27 147.93
3 17 10 70.64 149.52
-3 17 10 155.01 148.74
-17 -3 -11 216.39 109.15
3 17 11 -85.92 132.93
-3 17 -11 -132.04 151.79
3 17 -11 20.86 152.8
3 17 11 -196.08 128.58
17 3 -11 -3.22 147.39
-4 -17 0 251.24 226.85
-17 -4 0 132.77 199.11
-4 17 0 -212.92 278.94
4 17 0 117.83 245.89
-17 4 0 168.57 291.03
-4 17 0 37.86 199.83
-4 -17 1 52.49 222.72
-4 -17 -1 -15.05 223.65
-17 -4 1 30.84 207.01
-17 -4 -1 -106.16 197.15
-4 17 -1 269.47 286.8
-4 17 1 -81.98 286.95
4 17 -1 -408.35 256.76
-17 4 1 -85.16 292.21
-17 4 -1 -46.5 289.98
4 17 1 56.47 248.61
-4 17 -1 -1.12 201.18
-4 17 1 -107.21 196.39
4 17 -1 -125.63 220.96
-4 -17 2 834.72 274.6
-4 -17 -2 378.89 233.47
-17 -4 2 978.61 268.18
-17 -4 -2 694.92 250.85
-4 17 -2 909.64 334.56
-4 17 2 460.82 284.58
-17 4 2 523.26 308.03
-17 4 -2 665.55 332.69
4 17 2 588.72 297.42
-4 17 -2 856.55 255.09
4 17 -2 770 259.88
-4 -17 3 485.47 295.91
-17 -4 3 1070.52 267.52
-4 -17 -3 297.28 224.57
-4 17 -3 712.59 288.68
-17 -4 -3 804.52 259.37
-4 17 3 551.67 310.08
-17 4 -3 449.17 303.82
4 17 3 553.45 312.66
-4 17 -3 808.46 258.65
4 17 -3 619.28 258.31
-4 17 3 562.52 247.59
-4 -17 4 875.05 300.34
-17 -4 4 843.85 268.16
-4 17 -4 4.9 292.98
-17 -4 -4 630.14 256.41
-4 17 4 393.96 305.8
-17 4 -4 1032.06 332.32
4 17 4 868.09 345.23
-4 17 -4 1123.1 295.52
-4 17 -4 513.6 238.87
4 17 -4 515.37 257.23
4 17 4 283.52 214.03
-4 17 4 542.48 241.26
-17 -4 5 161.09 205.12
-4 17 -5 -241.72 271.36
-4 17 5 -266.92 299.28
-17 4 -5 196.7 270.86
4 17 5 223.6 300.58
-4 17 -5 448.1 272.14
-17 -4 -5 -82.97 210.77
-4 17 -5 326.65 224.25
4 17 -5 446.6 249.21
4 17 5 -382.79 227.66
-4 17 5 -31.12 212.84
-4 -17 5 -18.99 228.95
-17 -4 6 -61.27 184.38
-4 17 -6 185.31 249.78
-4 17 6 -373.8 298.03
-17 4 -6 103.54 262.32
4 17 6 -46.46 294.08
-4 17 -6 35.78 240.28
-17 -4 -6 -128.5 185.73
-4 17 -6 27.96 200.41
4 17 -6 246.35 220.13
4 17 6 53.68 203.76
-4 17 6 -128.81 212.63
-4 -17 6 -267.69 210.57
-4 17 -7 175.36 230.63
-4 17 7 -187.78 248.51
-17 4 -7 286.36 218.9
4 17 7 332.27 290
-4 17 -7 -280.04 252.65
-17 -4 -7 -322.8 203.27
-4 17 -7 -187.79 209.29
4 17 -7 -52.68 200.89
4 17 7 -184.87 194.74
-4 17 7 96.16 211.1
-17 -4 7 -653.11 214.64
-4 17 8 -41.03 200.17
4 17 8 -147.55 253.64
-4 17 -8 31.06 223.72
-17 -4 -8 -137.74 182.33
4 17 -8 504.96 252.17
-4 17 -8 514.27 217.51
4 17 -8 -90.47 185.31
4 17 8 -332.56 215
-4 17 8 -303.31 227.85
-17 -4 8 -21.64 150.95
-4 17 9 -12.61 174.39
4 17 9 68.61 223.16
-4 17 -9 136.16 199.28
-17 -4 -9 49.58 136.51
4 17 -9 196.03 228.83
-4 17 -9 -33.65 166.16
4 17 -9 43.32 157.47
4 17 9 -173.08 175.78
-4 17 9 10.59 174.4
-17 -4 9 96.82 131.49
4 17 10 33.35 177.52
-4 17 -10 -119.33 172.77
4 17 -10 387.58 200.6
4 17 -10 -193.7 139.33
4 17 10 -162.39 151.08
-4 17 10 317.47 163.9
-17 -4 -11 31.67 95.63
4 17 11 -23.03 128.62
-4 17 -11 -14.8 136.76
4 17 -11 160.08 151.51
-4 17 11 145.24 118.6
17 4 -11 -10.91 133.74
-5 -17 0 1512.6 330.88
-17 -5 0 1448.31 298.86
-5 17 0 1567.68 369.43
5 17 0 1704.61 318.28
-17 5 0 1714.6 368.72
-5 -17 1 850.44 272.23
-5 -17 -1 1131.45 295.01
-17 -5 1 538.47 239.05
-17 -5 -1 520.86 226.5
-5 17 -1 842.45 316.3
-5 17 1 854.39 332.12
-17 5 1 1040.96 351.88
-17 5 -1 978.95 355.75
5 17 1 537.11 293.49
-5 17 -1 909.06 249.02
5 17 -1 583.61 234.91
-5 -17 2 170.29 249.54
-5 -17 -2 -170.98 230.38
-17 -5 2 638.84 243.48
-17 -5 -2 71.44 200.21
-5 17 -2 733.6 322.05
-5 17 2 -64.74 282.44
-17 5 2 77.75 299.84
-17 5 -2 583.58 314.23
5 17 2 98.46 274.64
-5 17 -2 76.23 195.85
5 17 -2 354.36 234.72
-5 -17 3 132.75 245.81
-17 -5 3 -48.96 192.45
-5 -17 -3 23.89 209.7
-5 17 -3 -619.45 323.9
-17 -5 -3 -130.34 191.52
-5 17 3 -134.66 303.04
-17 5 -3 371.63 291.12
5 17 3 -196.38 297.96
-5 17 -3 -229.6 259.78
-5 17 -3 315.67 210.9
5 17 -3 -42.4 202.68
-5 -17 4 92.44 232.32
-17 -5 4 151.83 204.08
-5 17 -4 -486.57 301.37
-17 -5 -4 -3.49 200.61
-5 17 4 -143.56 287.9
-17 5 -4 167.6 283.53
5 17 4 -143.28 295.36
-5 17 -4 -635.58 291.34
-5 17 -4 162.42 205.4
5 17 -4 281.65 224.46
-5 17 4 101.73 201.1
-5 -17 5 260.43 245.28
-17 -5 5 -47.75 214.22
-5 17 -5 38.74 250.25
-17 -5 -5 359.29 225.08
-5 17 5 -170.64 284.34
-17 5 -5 168.58 280.6
5 17 5 389.37 318.56
-5 17 -5 -444.42 300.35
-17 -5 -5 256.9 205.78
-5 17 -5 -36.98 195.35
5 17 -5 70.03 211.41
5 17 5 -27.03 223.58
-5 17 5 -124.65 199.7
-17 -5 6 54.84 182.72
-5 17 -6 877.4 285.71
-5 17 6 -101.75 261.85
-17 5 -6 602.95 279.85
5 17 6 625.1 327.36
-5 17 -6 -438.43 295.98
-17 -5 -6 -80.56 194.43
-5 17 -6 91.58 192.38
5 17 -6 400.21 233.5
5 17 6 -11.16 203.82
-5 17 6 552.71 223.77
-5 -17 6 38.12 213.06
-5 17 -7 40.97 220.84
-5 17 7 -12.39 224.86
-17 5 -7 183.7 224.98
5 17 7 229.86 287.54
-5 17 -7 -356.18 266.59
-17 -5 -7 2.37 193.41
-5 17 -7 63.75 185.03
5 17 -7 42.71 197.04
5 17 7 -275.13 201.85
-5 17 7 -153.37 199.24
-17 -5 7 -78.67 152.1
-5 -17 7 -153.58 217.87
-17 -5 7 -589.88 207.53
-5 17 8 160.92 193.96
-17 5 -8 -205.21 200.52
5 17 8 305.16 267.95
-5 17 -8 174.02 227.45
-17 -5 -8 33.39 160.46
5 17 -8 -119.2 228.12
-5 17 -8 -34.24 166.02
5 17 -8 -39.74 171.43
5 17 8 -775.24 219.03
-5 17 8 -239.93 196.28
-17 -5 8 121.4 141.57
5 17 9 170.39 228.84
-5 17 -9 -18.18 183.34
-17 -5 -9 -129.12 142.53
5 17 -9 -0.64 198.59
-5 17 -9 -63.59 149.9
5 17 -9 81.83 144.27
5 17 9 -9.95 158.79
-5 17 9 -295.09 178.27
-17 -5 9 14.8 118.09
5 17 10 -101.35 174.72
-5 17 -10 72.91 155.11
5 17 -10 8.99 166.38
5 17 -10 -239.77 138.1
-5 17 10 228.57 148.24
-5 -17 -11 -49.61 98.44
-17 -5 -11 -89.35 89.08
-5 17 -11 -2.77 123.27
5 17 -11 42.52 127.56
17 5 -11 -8.21 131.74
-6 -17 0 189.08 226.86
-17 -6 0 -5.27 202.94
-6 17 0 86.95 265.49
-17 6 0 315.26 288.98
-6 -17 1 54.74 208.57
-6 -17 -1 20.95 205.33
-17 -6 1 81.41 206.92
-17 -6 -1 165.05 215.21
-6 17 -1 523.18 298.57
-6 17 1 222.8 299.78
-17 6 1 523.59 303.15
-17 6 -1 659.86 325.12
6 17 1 -22.16 260.59
6 17 -1 287.98 203.73
-6 -17 2 -126.89 224.65
-6 -17 -2 125.92 218.63
-17 -6 2 379.34 229.16
-17 -6 -2 103.16 220.2
-6 17 -2 128.89 268.21
-6 17 2 -122.34 284.66
-17 6 2 -34.75 274
-17 6 -2 307.2 297.03
6 17 2 235.4 261.1
6 17 -2 -39.56 205.56
-6 -17 3 141.64 242.14
-17 -6 3 271.36 212.68
-6 -17 -3 104.88 214
-6 17 -3 68.66 270.76
-17 -6 -3 -28.72 192.86
-6 17 3 -402.02 310.36
-17 6 -3 370.78 305.02
6 17 3 348.39 284.87
-6 17 -3 82.32 251.27
-6 17 -3 188.77 216.93
6 17 -3 -4.79 205.16
-6 -17 4 189.54 247.65
-17 -6 4 462.23 234.38
-6 -17 -4 443.32 236.07
-6 17 -4 -78.18 287.4
-17 -6 -4 266.27 228.83
-6 17 4 -98.88 272.19
-17 6 -4 263.64 294.71
6 17 4 578.5 324.07
-6 17 -4 -146.23 254.51
-6 17 -4 -43.08 200.74
6 17 -4 116.49 208.91
-6 -17 5 291.07 252.18
-17 -6 5 -67.71 193.67
-6 17 -5 237.07 269.23
-17 -6 -5 245.04 212.59
-6 17 5 -329.36 280.56
-17 6 -5 216.52 279.06
6 17 5 -211.69 293.61
-17 -6 -5 -259.35 206.31
-6 17 -5 -411.4 263.21
-6 17 -5 -222.37 202.25
6 17 -5 95.61 216.42
-6 17 5 308.96 211.05
-17 -6 6 -27.32 182.28
-6 17 -6 606.72 280.82
-6 17 6 -272.33 261.63
-17 6 -6 273.11 268.52
6 17 6 38.66 287.22
-6 17 -6 -571.18 303.29
-17 -6 -6 -29.13 185.38
-6 17 -6 195.67 194.2
6 17 -6 486.56 232.92
-6 17 6 95.12 179.25
-17 -6 6 302.33 174.02
-6 -17 6 -109.3 227.84
-6 17 -7 302.39 248.6
-6 17 7 57.94 198.03
-17 6 -7 166.85 258.77
6 17 7 249.53 285.75
-6 17 -7 -261.77 257.28
-17 -6 -7 20.08 175.85
-6 17 -7 157.84 175.56
6 17 -7 32.63 181.71
-6 17 7 147.38 184.72
-17 -6 7 -9.99 157.38
-6 -17 7 -19.96 214.63
-17 -6 7 -30.77 173.21
-6 17 8 32.27 174.17
-17 6 -8 273.5 200.58
-6 17 -8 -56.89 211.87
-17 -6 -8 7.8 153.47
-6 17 -8 -159.86 172.5
6 17 -8 -72.68 172.05
-6 17 8 -253.94 185.28
-17 -6 8 50.86 129.12
-6 -17 8 -129.75 180.57
6 17 9 300.64 226.06
-6 17 -9 179.83 196.22
-17 -6 -9 69.76 127.39
6 17 -9 -356.84 203.92
6 17 -9 46.51 135.95
-6 17 9 102.72 151.24
-17 -6 9 53.28 120.87
-6 -17 -10 7.97 122.09
-17 -6 -10 309.48 149.03
6 17 10 189.64 173.16
-6 17 -10 -17.97 151.76
6 17 -10 -22.65 164.92
-6 17 10 20.15 118.59
-17 -6 10 -206.65 100.26
-7 -17 0 -51.82 200.37
-17 -7 0 -335.88 225.34
-7 17 0 104 277.86
-17 7 0 160.72 302.66
-7 -17 1 636.49 247.59
-7 -17 -1 363.68 212.47
-17 -7 1 65.51 207.78
-17 -7 -1 200.59 205.01
-7 17 -1 546.08 300.47
-7 17 1 537.12 316.18
-17 7 1 827.07 316.21
-17 7 -1 734.52 318.17
7 17 -1 223.6 206.77
-7 -17 2 584.21 247.84
-7 -17 -2 595.23 250.14
-17 -7 2 753.2 256.44
-7 17 -2 -417.57 321.87
-17 -7 -2 633.64 242.81
-7 17 2 604.45 321.94
-17 7 2 375.07 300.84
-17 7 -2 1241.26 376.49
7 17 2 136.15 253.32
7 17 -2 258.88 219.93
-7 -17 3 209.58 224.17
-17 -7 3 459.34 227.13
-7 -17 -3 325.24 219.53
-7 17 -3 2.81 274.25
-17 -7 -3 679.85 249.86
-7 17 3 582.91 296.57
-17 7 -3 439.93 320.22
7 17 3 310.51 254.67
-7 17 -3 190.89 255.89
-7 -17 4 -52.45 210.26
-17 -7 4 -169.22 204.45
-7 -17 -4 -258.79 216.16
-7 17 -4 -28.03 266.81
-17 -7 -4 -33.69 192.39
-7 17 4 -135.57 265.18
-17 7 -4 316.05 298.8
7 17 4 554.73 313.14
-7 17 -4 -217.52 262.36
7 17 -4 -15.21 192.49
-17 -7 5 -94.73 188.12
-7 -17 -5 -125.92 192.56
-7 17 -5 360.36 283.8
-7 17 5 48.92 248.75
-17 -7 -5 92.63 214.7
-17 7 -5 82.89 299.92
7 17 5 105.3 282.4
-17 -7 -5 -173.88 200.03
-7 17 -5 -384.55 259.37
-7 17 -5 -18.64 178.73
7 17 -5 10.1 190.84
-17 -7 5 -60.53 161.89
-7 -17 5 220.66 240.89
-17 -7 6 65.55 170.23
-7 -17 -6 0.95 183.49
-7 17 -6 507.34 270.97
-7 17 6 -239.69 225.23
-17 -7 -6 85.91 185.29
-17 7 -6 410.21 278.66
7 17 6 -75.35 272.91
-7 17 -6 -404.52 253.26
-17 -7 -6 -93.77 177.85
-7 17 -6 -60.37 169.15
7 17 -6 -25.8 184.01
-17 -7 6 -334.88 171.23
-7 -17 6 -238.93 219.49
-7 -17 -7 -73.02 175.15
-7 17 -7 163.06 210.53
-7 17 7 99.58 187.89
-17 -7 -7 -66.93 174.83
-17 7 -7 244.71 234.18
7 17 7 215.65 266.17
-7 17 -7 -291.78 251.19
-17 -7 -7 -172.04 174.94
-7 17 -7 9.98 157.57
7 17 -7 -68.3 177
-7 17 7 217.36 164.92
-17 -7 7 11.02 139.94
-7 -17 7 -96.46 208.63
-17 -7 7 -196 192.71
-7 -17 -8 17.31 154.23
-17 -7 -8 -63.97 156.53
-17 7 -8 372.38 203.74
7 17 8 161.73 235.02
-7 17 -8 116.81 208.67
-17 -7 -8 -183.95 147.96
7 17 -8 9.96 150.14
-7 17 8 109.75 143.28
-17 -7 8 -199.34 141.08
-7 -17 8 -193.22 184.98
-7 -17 -9 68.17 140.32
-17 -7 -9 219.99 152.84
-17 7 -9 290.5 151.13
7 17 9 340.94 210.58
-7 17 -9 431.13 191.47
-17 -7 -9 42.33 130.05
7 17 -9 222.6 191.58
7 17 -9 264.71 129.05
-7 17 9 375.28 151.54
-17 -7 9 257.16 124.85
-7 -17 -10 163.85 132.99
-17 -7 -10 78.48 113.59
7 17 10 -64.96 159.07
-7 17 -10 195.64 153.2
7 17 -10 -29.49 144.42
-8 -17 0 153.86 221.7
-17 -8 0 162.14 211.97
-8 17 0 575.94 313.06
-17 8 0 254.14 275.63
8 17 0 -387.93 220.93
-8 -17 1 545.81 249.88
-8 -17 -1 278.48 220.15
-17 -8 1 463.63 234.75
-17 -8 -1 508.48 238.44
-8 17 -1 147.16 302.56
-8 17 1 307.5 321.56
-17 8 1 399.7 286.36
-17 8 -1 1004.67 333.4
8 17 -1 395.35 205.74
-8 -17 2 19.1 196.2
-8 -17 -2 19.4 189.79
-17 -8 2 502.52 243.74
-8 17 -2 -421.53 312.32
-17 -8 -2 411.67 223.84
-8 17 2 590.38 319.44
-17 8 2 669.91 309.62
-17 8 -2 994.79 327.55
8 17 2 186.86 236.39
8 17 -2 199.83 205.11
-8 -17 3 599.53 237.56
-17 -8 3 649.42 233.57
-8 -17 -3 236.36 203.29
-8 17 -3 338.66 280.01
-17 -8 -3 569.4 233.28
-8 17 3 928.18 313.15
-17 8 -3 727.88 319.99
8 17 3 556.05 258.04
-8 17 -3 603.95 267.84
8 17 -3 642.33 235.07
-17 -8 3 497.28 184.42
-8 -17 4 383.23 227.54
-17 -8 4 112.18 190.24
-8 -17 -4 29.97 181.73
-8 17 -4 274.27 283.57
-17 -8 -4 281.36 200.79
-8 17 4 436.24 270.71
-17 8 -4 70.96 291.45
8 17 4 21.47 243.04
-8 17 -4 346.61 255.93
8 17 -4 -163.64 199.49
-17 -8 4 250.57 178.57
-17 -8 5 -247.46 190.12
-8 -17 -5 71.76 179.45
-8 17 -5 152.05 267.73
-8 17 5 384.23 233.93
-17 -8 -5 349.13 212.22
-17 8 -5 -180.24 272.44
8 17 5 135.66 259.16
-8 17 -5 81.89 248.17
8 17 -5 42.19 185.6
-17 -8 5 172.95 166.74
-8 -17 5 -25.1 204.98
-17 -8 6 42.41 162.77
-8 -17 -6 -43.2 165.48
-8 17 -6 205.88 264.06
-8 17 6 95.17 186.56
-17 -8 -6 35.96 169.15
-17 8 -6 386.16 268.4
8 17 6 449.34 287.92
-8 17 -6 -33.64 219.95
-17 -8 -6 -8.03 172.99
8 17 -6 203.82 180.09
-17 -8 6 331.21 169.84
-8 -17 6 20.17 207.07
-8 -17 -7 35.05 172.82
-8 17 -7 739.33 237.98
-17 -8 -7 430.39 201.63
-17 8 -7 184.36 218.63
8 17 7 413.4 269.33
-8 17 -7 154.82 214.7
-17 -8 -7 -146.11 173.15
8 17 -7 282.86 166.49
-17 -8 7 0.53 132.89
-17 -8 7 100.76 164
-8 -17 7 239.23 186.27
-8 -17 -8 -164.05 158.82
-17 -8 -8 91.15 152.4
-17 8 -8 6.49 187.52
8 17 8 286.24 225.69
-8 17 -8 -13.52 198.85
-17 -8 -8 -75.16 155.49
8 17 -8 53.73 131.31
-17 -8 8 14.79 122.38
-8 -17 8 -2.16 171.52
-8 -17 -9 -0.45 124.08
-17 -8 -9 -50.65 124.72
-17 8 -9 167.21 140.86
8 17 9 120.91 177.48
-8 17 -9 -14.91 169.64
8 17 -9 144.15 175.94
-17 -8 9 44.9 113.97
-8 -17 9 -78.59 124.48
-8 -17 -10 -9.24 95.41
-17 -8 -10 147.27 113.04
8 17 10 189.17 147.6
-8 17 -10 143.83 144.48
-9 17 0 1889.68 370.34
-17 9 0 2748.18 399.05
9 17 0 2129.75 309.08
-9 -17 0 2512.32 346.07
-17 -9 0 2246.57 332.71
-9 -17 1 672.94 239.01
-9 -17 -1 684.14 244.08
-17 -9 1 1271.13 279.24
-17 -9 -1 555.1 229.55
-9 17 -1 319.89 283.08
-9 17 1 782.1 318.66
-17 9 1 691.74 288.09
-17 9 -1 880.03 321.52
9 17 -1 334.28 211.38
-9 -17 2 -2.3 193.39
-9 -17 -2 101.84 193.28
-17 -9 2 313.78 216.3
-17 -9 -2 5.42 188.59
-9 17 -2 -361.77 284.59
-9 17 2 815.63 333.89
-17 9 2 -115.86 250.25
-17 9 -2 450.89 296.43
9 17 -2 43.97 184.5
-17 -9 2 267.72 174.58
-9 -17 3 382.93 221.28
-17 -9 3 351.92 207.91
-9 -17 -3 127.7 195.57
-9 17 -3 226.64 275.95
-17 -9 -3 100.6 192.15
-9 17 3 523.47 282.27
-17 9 -3 875.25 320.13
9 17 3 371.06 226.07
-9 17 -3 545.63 261.26
9 17 -3 319.25 206.01
-17 -9 3 407.43 185.02
-9 -17 4 177.08 201.5
-17 -9 4 551.7 221.76
-9 -17 -4 324.76 190.96
-9 17 -4 788.24 291.2
-17 -9 -4 687.43 233.62
-9 17 4 571 255.34
-17 9 -4 623.19 300.42
9 17 4 554.21 237.43
-9 17 -4 571.28 276.07
9 17 -4 556.28 216.65
-17 -9 4 332.15 174.63
-17 -9 5 343.57 198.81
-9 -17 -5 459.98 198.93
-9 17 -5 910.75 278.76
-9 17 5 1013.76 250.72
-17 -9 -5 864.58 238.2
-17 9 -5 976.99 302.84
9 17 5 707.49 265.53
-9 17 -5 849.2 275.81
9 17 -5 612.7 220.87
-17 -9 5 610.75 182.19
-9 -17 5 552.99 229.09
-9 -17 -6 503.22 192.54
-9 17 -6 871.32 262.07
-9 17 6 561.93 203.73
-17 -9 -6 627.78 220.88
-17 9 -6 614.62 264.82
9 17 6 763.69 266.13
-9 17 -6 627.77 237.42
9 17 -6 729.14 195.73
-17 -9 6 562.46 193.19
-9 -17 6 410.07 207.85
-17 -9 6 260.78 177.76
-9 -17 -7 98.26 154.23
-17 -9 -7 310.6 180.77
-17 9 -7 245.81 224.15
9 17 7 427.69 243
-9 17 -7 282.49 220.35
-17 -9 7 133.82 141.69
-9 -17 7 -45.41 160.63
-9 -17 -8 -44.63 130.43
-17 -9 -8 -47.07 144.68
-17 9 -8 519.68 200.4
9 17 8 -88.39 195.3
-9 17 -8 113.32 188.34
-17 -9 8 90.07 127.94
-9 -17 8 -125.76 152.56
-9 -17 -9 -62.84 123.24
-17 -9 -9 -55.63 118.65
-17 9 -9 82.4 136.05
9 17 9 -29.19 158.62
-9 17 -9 313.71 173.71
9 17 -9 13.51 136.68
-17 -9 9 20.12 93.26
-9 -17 9 52.07 117.69
-10 -17 0 28.89 184.37
-17 -10 0 169.78 199.66
-17 10 0 -54.92 253.21
10 17 0 -24.37 181.46
-10 -17 1 91.49 184.2
-10 -17 -1 203.72 191.31
-17 -10 1 275.54 211.29
-17 -10 -1 -159.26 203.65
-10 17 -1 -639.22 293.52
-10 17 1 -602.07 321.7
-17 10 1 50.66 248.71
-17 10 -1 313.18 290.24
10 17 -1 139.35 191.3
10 17 1 -273.58 211.92
-17 -10 1 140.9 164.88
-10 -17 2 211.7 190.36
-10 -17 -2 170.16 190.22
-17 -10 2 164.31 187.96
-17 -10 -2 335.4 211.03
-10 17 -2 190.75 262.72
-10 17 2 -419.14 291.82
-17 10 2 -150.49 245.36
-17 10 -2 334.97 295.58
10 17 -2 234.51 194.71
-17 -10 2 445.13 184.43
-10 -17 3 154.63 189.25
-17 -10 3 423.94 204.78
-10 -17 -3 109.53 170.36
-10 17 -3 263.83 267.72
-17 -10 -3 211.31 192.58
-10 17 3 -210.8 258.41
-17 10 -3 302.26 289.68
-10 17 -3 79.58 230.15
10 17 -3 632.56 211.88
-17 -10 3 177.27 170.88
-10 -17 4 14.39 183.73
-17 -10 4 90.25 165.15
-10 -17 -4 100.03 164.32
-10 17 -4 783.03 283.19
-17 -10 -4 177.74 178.29
-10 17 4 -264.14 226.11
-17 10 -4 476.3 277.4
10 17 4 389.07 221.09
-10 17 -4 655.3 268.69
10 17 -4 1355.52 245.58
-17 -10 4 99.4 152.4
-10 -17 -5 87.04 160.72
-10 17 -5 207.65 231.24
-10 17 5 -282.31 203.6
-17 -10 -5 128.74 168.24
-17 10 -5 82.57 249.46
10 17 5 412.3 232.81
-10 17 -5 107.95 217.77
10 17 -5 85.31 155.34
-10 -17 5 37.15 170.92
-10 -17 -6 -54.43 156.68
-10 17 -6 205.91 222.69
-17 -10 -6 87.29 161.77
-17 10 -6 -123.86 236.92
10 17 6 21.98 208.14
-10 17 -6 49.66 218.45
-17 -10 6 111.14 134.47
-10 -17 6 -185.8 182.29
-17 -10 6 -114.84 166.1
-10 -17 -7 -19.14 136.26
-17 -10 -7 107.79 154.13
-17 10 -7 340.45 216.66
10 17 7 304.65 194.36
-10 17 -7 30.68 194.7
-17 -10 7 20.18 120.21
-10 -17 7 2.18 152.26
-10 -17 -8 -13.88 118.63
-17 -10 -8 69.83 130.59
-17 10 -8 213.51 179.56
10 17 8 176.53 171.89
-10 17 -8 -65.56 181.07
-17 -10 8 -75.86 107.55
-10 -17 8 -8.35 125.41
-17 -10 -9 152.13 113.31
10 17 9 89.07 133.58
-10 17 -9 79 145.75
-17 -11 0 184.01 179.66
-11 -17 0 273.27 192.52
-17 -11 0 464.33 221.58
-11 17 0 -110.24 266.19
-17 11 0 413.58 263.93
11 17 0 18.47 169.01
-11 -17 1 290.59 199.34
-11 -17 -1 278.63 181.97
-17 -11 1 469.68 209.47
-17 -11 -1 -49.4 190.36
-11 17 -1 283.69 259.99
-11 17 1 -212.15 267.46
-17 11 1 420.79 267.58
-17 11 -1 777.79 291.55
11 17 -1 427 192.94
11 17 1 162.95 182.68
-17 -11 1 234.78 172.29
-11 -17 2 21.09 184.16
-11 -17 -2 99.79 166.45
-17 -11 2 50.88 176.32
-17 -11 -2 -117.88 183.36
-11 17 -2 162.08 247.7
-11 17 2 -180.56 241.64
-17 11 -2 160.96 266.74
-11 17 -2 62.75 230.76
11 17 -2 41.9 193.55
-17 -11 2 127.38 161.62
-11 -17 3 -43.01 172.05
-17 -11 3 124.34 162.13
-11 -17 -3 105.6 167.9
-11 17 -3 613.88 284.69
-17 -11 -3 -13.14 168.8
-11 17 3 -337.12 245.17
-17 11 -3 579.75 284.46
-11 17 -3 -369.26 265.72
11 17 -3 -192.39 165.44
-17 -11 3 83.7 149.89
-17 -11 4 -79.34 167.29
-11 -17 -4 194.98 161.11
-11 17 -4 538.58 256.7
-17 -11 -4 298.12 178.34
-11 17 4 -206.59 196.31
-17 11 -4 308.1 254.89
-11 17 -4 -565.29 253.67
-17 -11 4 97.89 148.18
-11 -17 4 303.26 186.51
-17 -11 5 188.2 157.56
-11 -17 -5 160.14 168.31
-11 17 -5 599.1 236.7
-17 -11 -5 284.61 168.08
-17 11 -5 -15.85 229.6
11 17 5 -30.71 170.35
-17 -11 5 228.65 157.53
-11 -17 5 206.08 164.03
-11 -17 -6 108.71 152.22
-11 17 -6 804.29 226.55
-17 -11 -6 -36.11 142.04
-17 11 -6 528.83 247.02
11 17 6 182.81 177.43
-11 17 -6 -222.09 212.56
-17 -11 6 44.68 133.01
-17 -11 6 -151.69 150.33
-11 -17 6 91.26 157.76
-11 -17 -7 240.49 147.02
-17 -11 -7 369.01 148.25
-17 11 -7 478.9 208.82
11 17 7 268.07 172.77
-11 17 -7 13.66 189.81
-17 -11 7 141.12 124.97
-11 -17 7 343.21 149.72
-11 -17 -8 -173.9 109.04
-17 -11 -8 97.99 112.38
11 17 8 45.25 132.22
-11 17 -8 -127.99 162.01
-17 -11 8 18.96 87.56
-11 -17 8 133.2 110.48
-17 -12 0 -110.52 147.39
-12 -17 0 -42.27 170.6
-17 -12 0 308.9 203.59
-12 17 0 61.7 224.35
-17 12 0 240.89 250.76
12 17 0 352.09 181.38
-17 -12 -1 172 148.38
-12 -17 1 186.84 185.46
-12 -17 -1 170.27 167.76
-17 -12 1 271.72 173.65
-17 -12 -1 518.88 211.71
-12 17 -1 962.75 291.89
-12 17 1 466.58 249.07
-17 12 1 306.04 216.72
-17 12 -1 555.6 268.87
12 17 -1 74.5 157.18
12 17 1 179.81 164.16
-17 -12 1 134.33 155.86
-12 -17 2 185.17 173.25
-12 -17 -2 182.88 173.31
-17 -12 2 107.84 164.97
-17 -12 -2 257.53 185.91
-12 17 -2 422.25 251.33
-12 17 2 -117.2 215.35
-17 12 -2 505.62 255.41
-12 17 -2 175.74 212.13
12 17 2 -55.37 153.18
-17 -12 2 120.36 159.86
-12 -17 3 36.06 159.71
-17 -12 3 253.75 171.07
-12 -17 -3 37.35 164
-17 -12 -3 -33.6 157.94
-12 17 3 73.61 191.65
-17 12 -3 505.11 258.88
-12 17 -3 -148.1 216.19
-17 -12 3 157.42 154.72
-17 -12 4 -180.79 160
-12 -17 -4 143.38 148.59
-12 17 -4 236.82 227.21
-17 -12 -4 33.58 147.95
-17 12 -4 88.06 216.63
-12 17 -4 -316.16 238.37
-17 -12 4 11.46 130.84
-12 -17 4 -75.41 155.35
-12 -17 -5 125.15 142.96
-12 17 -5 547.98 220.08
-17 -12 -5 37.57 135.53
-17 12 -5 132.82 214.97
-17 -12 5 147.89 135.38
-12 -17 5 204.83 159.26
-17 -12 5 -8.99 132.39
-12 -17 -6 38.27 122.32
-17 -12 -6 88.34 129.63
-17 12 -6 166.97 195.34
-12 17 -6 -351.74 200.62
-17 -12 6 91.44 118.03
-12 -17 6 43.02 135.56
-12 -17 -7 32.95 109.76
-17 -12 -7 51.47 117.31
-17 12 -7 156.94 177.31
-12 17 -7 -1.11 167.38
-17 -12 7 0.24 99.27
-12 -17 7 4.96 111.21
-13 -17 0 498.45 180.71
-17 -13 0 730.04 191.83
-13 17 0 1135.28 267.92
-17 13 0 457.18 229.31
-17 -13 0 451.47 162.22
-17 -13 -1 9.55 135.15
-13 -17 1 -9.23 151.66
-13 -17 -1 -0.44 145.4
-17 -13 1 139.65 152.9
-17 -13 -1 204.02 159.57
-13 17 -1 541.88 252.21
-13 17 1 325.27 208.47
-17 13 1 -281.99 212.33
-17 13 -1 163.86 210.34
-17 -13 1 -25.55 136.53
-13 -17 2 -10.01 160.11
-13 -17 -2 -31.35 146.07
-17 -13 2 -227.06 153.79
-17 -13 -2 235.68 163.22
-13 17 -2 501.63 242.56
-13 17 2 267.52 196.37
-17 13 -2 258.47 220.71
-13 17 -2 259.16 191.69
13 17 2 132.74 141.81
-17 -13 2 118.05 144.4
-17 -13 3 -239.09 149.38
-13 -17 -3 18.54 132.77
-17 -13 -3 -15.99 137.6
-13 17 -3 43.33 201.52
-17 13 -3 99.94 220.59
-13 17 -3 -39.17 188.7
13 17 3 -47.68 128.55
-17 -13 3 -11.71 126.89
-13 -17 3 13.33 144.68
-13 -17 -4 24.28 126.68
-13 17 -4 351.5 201.64
-17 -13 -4 -199.98 139.22
-17 13 -4 121.46 205.3
-13 17 -4 -160.73 199.63
13 17 4 -100.63 134.68
-17 -13 4 2.41 120.56
-13 -17 4 51.4 151.9
-17 -13 4 -115.83 140.13
-13 -17 -5 117.56 125.35
-17 -13 -5 59.37 124.73
-17 13 -5 346.78 232.5
-13 17 -5 -221.16 199.11
-17 -13 5 31.35 116.84
-13 -17 5 32.31 137.83
-13 -17 -6 5.83 103.97
-17 -13 -6 169.66 117.05
-17 13 -6 241.69 184.55
-13 17 -6 398.67 192.33
-17 -13 6 155.2 111.8
-13 -17 6 9.75 115.81
-17 13 -7 19.47 148.2
-13 -17 7 7.85 99.73
-14 -17 0 164.64 147.99
-17 -14 0 42.74 127.21
-14 17 0 -32.75 176
-17 14 0 -39.7 175.28
-17 -14 0 105.93 125.68
-17 -14 -1 27.52 177.73
-14 -17 1 45.83 141.76
-14 -17 -1 99.44 141.63
-17 -14 1 166.5 133.61
-17 -14 -1 170.04 136.71
-14 17 -1 263.17 197.56
-14 17 1 263.37 170.59
-17 14 -1 392.69 189.98
-17 -14 1 258.22 138.9
-17 -14 2 -1.07 131.55
-14 -17 -2 19.75 130.2
-17 -14 -2 219.46 129.54
-14 17 -2 690.62 211.77
-17 14 -2 267.93 202.81
-17 -14 2 199.93 133.23
-14 -17 2 112.02 143.46
-14 -17 -3 59.3 117.09
-17 -14 -3 256.46 134.99
-14 17 -3 628.28 207.44
-17 14 -3 563.73 200.84
-14 17 -3 529.04 183.88
-17 -14 3 46.44 118.52
-14 -17 3 -11.06 132.17
-17 -14 3 -165.86 119.06
-14 -17 -4 -135.49 118.57
-17 -14 -4 159.52 122.33
-17 14 -4 348.62 181.78
-14 17 -4 82.46 163.48
-17 -14 4 -179.57 122.06
-17 -14 4 -65.07 110.42
-14 -17 4 -33.32 125.91
-14 -17 -5 119.54 103.7
-17 14 -5 159.88 173.22
-14 17 -5 -8.78 140.9
-17 -14 5 0.31 98.27
-14 -17 5 -9.6 106.06
-17 14 -6 -0.09 144.13
-14 -17 6 -141.57 99.43
-15 -17 0 280.71 137.78
-17 -15 0 113.79 104.2
-17 -15 0 357.22 135.96
-15 -17 -1 83.76 119.52
-17 15 -1 244.84 150.91
-17 -15 1 56.33 107.2
-17 -15 -1 38.53 106.56
-15 -17 1 -15.94 114.38
-15 -17 -2 20.89 114.95
-17 15 -2 159.33 149.04
-17 -15 2 14.28 100.02
-15 -17 2 82.13 123.75
-15 -17 -3 69.93 102.1
-17 -15 3 -21.33 94.54
-15 -17 3 -11.35 111.49
-17 15 -4 90.68 133.85
-15 -17 4 -4.16 101.93
-16 -17 1 -7.31 89.75
0 18 0 8301.48 604.09
0 18 0 8751.17 570.37
-18 0 0 9927.54 564.75
-18 0 -1 1698.97 288.33
0 18 -1 1686.58 345.61
0 18 1 1412.19 339.26
0 18 -1 1841.21 333.08
0 18 1 1456.75 300.46
-18 0 1 2327.19 325.54
-18 0 2 50.45 195.1
-18 0 -2 156.78 213.03
0 18 -2 -9.57 243.29
-18 0 -2 -157.66 266.93
0 18 2 -126.74 270.98
0 18 -2 132.73 213.34
-18 0 3 -146.4 185.26
0 -18 -3 -231.37 183.14
-18 0 -3 87.87 196.08
0 18 -3 81.43 220.85
-18 0 -3 -5.63 249.02
0 18 3 39.6 261.85
0 18 -3 343.76 252.44
0 18 3 -141.73 221.86
-18 0 4 48.11 188.99
0 18 -4 -520.88 263.3
-18 0 -4 194.2 193.13
-18 0 -4 -62.28 267.88
0 18 4 115.76 272.73
0 18 -4 355.62 246.31
0 18 4 87.7 192.56
-18 0 -5 205.5 178.15
0 18 5 368.28 267.02
0 18 -5 208.43 225.14
0 18 -5 327.95 232.59
0 18 5 211.2 210.11
-18 0 5 172.86 170.18
0 18 6 1586.4 339.8
0 18 -6 2035.25 340.19
0 18 -6 2168.64 332.14
0 18 6 2243.82 338.88
-18 0 6 1282.55 232.36
-18 0 -6 2031.06 291.4
-18 0 -7 1705.74 262.96
0 18 7 987.44 290.03
0 18 -7 1873.88 305.05
0 18 -7 1649.86 279.91
0 18 7 1926.88 301.48
-18 0 -8 1242.3 210.11
0 18 8 728.92 248.15
0 18 -8 1166.44 270.05
0 18 -8 1339.66 252.23
0 18 8 1454.54 262.81
0 18 9 81.3 181.16
0 18 -9 345.58 207.71
0 18 -9 221.33 165.07
0 18 9 130.82 160.48
0 18 10 174.8 144.78
0 18 -10 291.64 167.34
0 18 -10 -284.75 143.76
0 18 10 -208.03 140.94
18 0 -10 -16.36 138.22
-18 -1 0 -160.95 197.55
-1 18 0 -196.35 284.05
1 18 0 80.12 260.18
-1 18 0 62.65 211.78
1 18 0 8.83 226.27
-1 -18 -1 230.64 187.23
-18 1 1 463.05 228.77
-18 -1 1 404.08 230.14
-18 -1 -1 327.34 209.86
-1 18 -1 187.34 260.56
1 18 -1 412.11 263.08
-1 18 1 -0.23 270.55
-18 1 -1 124.18 271.19
1 18 1 274.27 271.57
-1 18 -1 177.86 221.16
1 18 -1 320.33 239.79
-1 18 1 309.21 229.51
1 18 1 86.8 212.78
-18 1 2 218.71 190.06
-1 -18 -2 92.19 176.25
-18 -1 2 144.65 193.31
-18 -1 -2 -73.81 187.66
-1 18 -2 70.06 242.9
1 18 -2 -91.06 231.33
-1 18 2 -385.87 290.56
-18 1 -2 -123.23 281.16
1 18 2 19.91 264.78
-1 18 -2 228.2 225.81
1 18 -2 25.73 221.03
-1 18 2 -159.25 211.67
-18 1 3 100.85 188.01
-18 -1 3 -5.74 177.56
-1 -18 -3 -189.98 198.34
-18 -1 -3 109.44 190.12
-1 18 -3 118.45 258.56
1 18 -3 155.6 244.66
-18 1 -3 -37.15 251.74
-1 18 3 -185.17 278.28
1 18 3 17.83 267.52
-1 18 -3 251.77 235.85
1 18 -3 115.79 214.88
1 18 3 -44.82 209.23
-1 18 3 -66.56 204.6
-18 1 4 -199.14 194.56
-18 -1 4 -41.62 196.02
-1 18 -4 -641.78 298.6
-18 -1 -4 93.8 175.08
-18 1 -4 -75.03 268.42
-1 18 4 -185.41 277.55
1 18 4 122.39 269.72
-1 18 -4 401.32 243.35
1 18 -4 70.86 218.43
1 18 4 -237.02 213.73
-1 18 4 -361.68 213.79
-18 -1 5 137.93 180.04
-18 -1 -5 220.11 194.24
-18 1 -5 -47.79 246.53
-1 18 5 -164.56 271.61
1 18 5 368.38 276.97
-1 18 -5 183.94 222.19
1 18 -5 -52.18 231.4
-1 18 -5 327.57 241.75
1 18 -5 669.52 276.19
1 18 5 271.9 205.35
-1 18 5 153.72 197.12
-18 1 5 -178.44 193.62
-18 -1 -6 6.3 165.69
-1 18 6 151.03 255
1 18 6 22.27 254.12
-1 18 -6 112 231.32
1 18 -6 -38.53 219.58
-1 18 -6 108.39 207.82
1 18 -6 252.23 216.16
1 18 6 160.61 196.94
-1 18 6 365.49 228.07
-18 -1 6 -243.07 180.03
-18 -1 -7 160.94 170.49
-1 18 7 -424.32 253.55
1 18 7 72.55 242.85
-1 18 -7 -47.2 220.15
1 18 -7 -134.52 242.78
-1 18 -7 19.03 198.18
1 18 -7 -22.98 194.83
1 18 7 130.88 202.12
-1 18 7 -16.86 186.96
-18 -1 -8 129.06 164.42
-1 18 8 -6.82 207.77
1 18 8 -148.37 216.09
-1 18 -8 54.82 200.59
1 18 -8 178.91 222.11
-1 18 -8 48.98 171.41
1 18 -8 36.02 177.67
1 18 8 137.72 180.5
-1 18 8 175.04 184.95
-18 -1 -9 218.58 145.03
-1 18 9 -156.32 182.3
1 18 9 -61.03 182
-1 18 -9 284.34 187.07
1 18 -9 170.04 183.82
-1 18 -9 21.62 145.34
1 18 -9 156.8 151.39
1 18 9 6.51 149.15
-1 18 9 117.38 157.61
-1 18 10 -111.65 132.65
-1 18 -10 -53.53 152.67
1 18 -10 -34.88 149.04
-1 18 -10 -363.3 150.35
1 18 -10 -159.99 136.64
1 18 10 -101 133.52
-1 18 10 62.44 128.37
-2 -18 0 405.04 229.91
-18 -2 0 855.38 254.46
-2 18 0 980.31 308.77
2 18 0 865.66 279.22
-18 2 0 481.34 304.24
-2 18 0 572.64 242.58
2 18 0 868.13 272.42
-2 -18 1 1272.94 263.25
-2 -18 -1 1055.37 265.95
-18 -2 1 1794.72 297.79
-18 -2 -1 1409.21 287.7
-2 18 -1 1675.9 358.45
2 18 -1 1393.96 306.81
-2 18 1 1321.94 338.95
2 18 1 1619.99 344.77
-18 2 -1 1300.31 339.37
-2 18 -1 1375.75 286.97
2 18 -1 1256.86 307.04
-2 18 1 1297.56 268.52
2 18 1 888.19 274.68
-2 -18 -2 430.44 228.82
-18 -2 2 725.28 245.39
-18 -2 -2 307.46 207.29
-2 18 -2 554.87 307.26
2 18 -2 764.08 267.97
-2 18 2 626.34 296.48
-18 2 -2 483.11 298.57
2 18 2 623.64 312.73
-2 18 -2 779.75 267.24
2 18 -2 506.03 233.3
-2 18 2 291.39 210.23
-18 -2 3 -171.63 195.73
-2 -18 -3 284.69 209.61
-18 -2 -3 239.95 219.16
-2 18 -3 -12.15 236.04
-2 18 3 -307.47 274.07
-18 2 -3 568.82 291.84
2 18 3 -10.82 284.06
-2 18 -3 88.97 218.42
2 18 -3 245.17 225.48
-2 18 3 -445.26 205.08
-2 18 3 -43.74 195.13
-18 -2 4 187.6 185.88
-2 -18 -4 90.82 193.09
-2 18 -4 -352.11 270.27
-18 -2 -4 341.64 220.77
-2 18 4 9.78 265.03
-18 2 -4 173.94 290.05
2 18 4 145.61 279.67
-2 18 -4 501.53 244.03
2 18 -4 414.03 233.25
-2 18 4 -134.66 191.51
2 18 4 185.79 197.39
-2 18 4 147.41 204.26
-18 -2 5 667.34 207.28
-2 18 -5 452.34 256.24
-18 -2 -5 628.14 225.73
-2 18 5 422.58 280
-18 2 -5 771.43 285.11
2 18 5 369.8 283.33
-2 18 -5 683.61 255.8
2 18 -5 749.42 261.81
-2 18 -5 845.81 263.14
2 18 -5 717.18 262.04
2 18 5 423.94 221.77
-2 18 5 791.86 260.67
-18 -2 -6 1135.76 262.81
-18 2 -6 1079.45 266.09
-2 18 6 478.57 259.89
2 18 6 1112.63 324.72
-2 18 -6 871.06 267.71
2 18 -6 1419.5 293.33
-2 18 -6 1246.63 267.41
2 18 -6 1507.39 298.04
2 18 6 1278.79 283.02
-2 18 6 1127.58 280.88
-18 -2 6 845.3 216.94
-2 18 7 1484.88 297.87
2 18 7 1817.97 332.15
-2 18 -7 1984.84 321.89
2 18 -7 2174.12 318.44
-2 18 -7 2609.78 326.12
2 18 -7 3056.06 346.65
-2 18 7 2653.8 334.94
2 18 7 2027.81 294.44
-18 -2 -7 2408.11 311.05
-18 -2 -8 1151.7 224.3
-2 18 8 643.55 244.66
2 18 8 1007.21 272.97
-2 18 -8 1164.23 256.8
2 18 -8 1228.46 271.52
-2 18 -8 887.32 221.21
2 18 -8 880.33 221.84
2 18 8 891.72 227.95
-2 18 8 729.18 230.33
-18 -2 -9 339.34 154.24
-2 18 9 42.06 170.88
2 18 9 91.48 187.86
-2 18 -9 376.06 191.88
2 18 -9 279.46 194.47
-2 18 -9 -71.84 150.55
2 18 -9 64.45 147.63
2 18 9 -98.9 151.65
-2 18 9 66.23 161.01
-18 -2 -10 -157.24 105.21
2 18 10 -62.17 147.88
-2 18 -10 -201.61 164.09
2 18 -10 23.52 157.78
2 18 -10 -210.39 137.39
2 18 10 -270.59 147.01
-2 18 10 -152.73 140.57
-3 -18 0 292.13 223.12
-18 -3 0 73.37 211.36
-3 18 0 -161.24 270.64
3 18 0 -217.58 268.05
-18 3 0 -145.2 286.56
-3 18 0 -63.16 204.61
3 18 0 -56.54 227.51
-3 -18 1 693.43 263.23
-3 -18 -1 405.2 238.18
-18 -3 1 874.95 266.59
-18 -3 -1 479.6 217.21
-3 18 -1 963.97 304.22
3 18 -1 838.38 261.38
-3 18 1 359.02 265.56
3 18 1 178.68 253.51
-18 3 -1 590.5 303.38
-3 18 -1 705.54 244.3
-3 18 1 710.25 226.32
3 18 -1 444.16 258.51
-3 -18 2 337.6 220.51
-3 -18 -2 462.01 241.83
-18 -3 2 807.29 254.59
-18 -3 -2 633.66 232.24
-3 18 -2 559.12 281.4
-3 18 2 623.53 298.2
-18 3 -2 568.65 312.53
3 18 2 723.71 302.74
-3 18 -2 818.58 248.62
3 18 -2 582.66 257.51
-3 18 2 362.27 212.06
-3 -18 3 384.95 235.77
-18 -3 3 593.85 226.46
-3 -18 -3 91.74 209.17
-3 18 -3 -598.95 299.47
-18 -3 -3 281.33 209.59
-3 18 3 -268.82 294.46
-18 3 -3 197.08 273.76
3 18 3 236.9 291.55
-3 18 -3 203.07 219.88
3 18 -3 192.17 221.03
-3 18 3 -61.6 184.7
-3 18 3 82.72 195.99
-18 -3 4 299.08 208.37
-3 -18 -4 -53.54 206.78
-3 18 -4 -145.44 298.29
-18 -3 -4 187.81 208.06
-3 18 4 -498.42 288.09
-18 3 -4 121.97 258.44
3 18 4 66.34 271.36
-3 18 -4 260.47 215.79
3 18 -4 -19.17 210.19
3 18 4 -451.23 249.42
-3 18 4 -92.66 205.06
-18 -3 5 -85.76 188.95
-3 18 -5 152.89 226.85
-18 -3 -5 152.08 202.18
-3 18 5 70.25 254.01
-18 3 -5 371.3 263.15
3 18 5 -61.79 288.09
-3 18 -5 126.32 210.31
-3 18 -5 392.53 226.25
3 18 -5 397.87 239.36
3 18 5 -712.31 247.33
-3 18 5 431.71 222.53
-3 18 -6 648.03 253.89
-18 -3 -6 577.43 224.74
-3 18 6 161.87 236.47
-18 3 -6 778.22 255.74
3 18 6 344.1 284.21
-3 18 -6 217.83 231.55
3 18 -6 166.68 232.38
-3 18 -6 147.05 187.8
3 18 -6 481.59 226.2
3 18 6 -179.94 218.65
-3 18 6 363.82 225.39
-18 -3 6 217.04 183.47
-18 -3 -7 279.16 191.09
-3 18 7 187.55 216.88
3 18 7 209.7 250.51
-3 18 -7 -53.43 229.7
3 18 -7 71.32 218.11
-3 18 -7 -40.87 184.96
3 18 -7 236.45 197.82
3 18 7 -142.62 201.77
-3 18 7 103.15 181.93
-18 -3 -8 183.59 169.35
-3 18 8 168.42 200.23
3 18 8 -61.03 216.63
-3 18 -8 303.34 210.39
3 18 -8 310.34 221.61
-3 18 -8 104.83 167.23
3 18 -8 44.1 168.09
3 18 8 -109.31 180.84
-3 18 8 -61.87 164.98
-18 -3 -9 510.06 164.96
-3 18 9 417.28 186.83
3 18 9 334.2 203.23
-3 18 -9 637.25 198.59
3 18 -9 873.78 232.26
-3 18 -9 205.05 140.24
3 18 -9 393.65 160.52
3 18 9 377.91 161.26
-3 18 9 713.85 196.57
-18 -3 -10 361.06 119.96
3 18 10 95.89 145.32
-3 18 -10 2.29 144.21
3 18 -10 351.91 172.7
3 18 -10 -13.22 115.22
-3 18 10 61.36 124.15
-4 -18 0 -64.88 220.16
-18 -4 0 331.29 211.7
-4 18 0 243.97 269.44
4 18 0 -206.65 229.1
-18 4 0 24.61 277.04
-4 18 0 732.57 265.1
4 18 0 -8.63 210.92
-4 -18 1 217.47 222.67
-4 -18 -1 198.38 215.38
-18 -4 1 635.53 242.76
-18 -4 -1 141.95 192.05
-4 18 -1 367.97 276.41
-4 18 1 211.21 262.71
-18 4 1 404.46 295.2
4 18 1 107.96 251.15
-18 4 -1 579.44 316.51
-4 18 -1 229.65 207.54
-4 18 1 354.48 208.26
4 18 -1 461.83 256.3
-4 -18 2 -84.31 221.86
-4 -18 -2 256.07 211.03
-18 -4 2 278.3 217.31
-18 -4 -2 22.14 194.65
-4 18 -2 306.31 269.74
-4 18 2 -28.39 261.53
-18 4 -2 574.87 295.79
4 18 2 286.39 291.62
-4 18 -2 1171.6 270.06
4 18 -2 220.13 214.91
-4 -18 3 367.63 238.37
-18 -4 3 -1.41 185.02
-4 -18 -3 10.29 212.66
-4 18 -3 -437.53 300.47
-18 -4 -3 6.31 184.37
-4 18 3 -527 301.44
-18 4 -3 551.45 307.51
4 18 3 -89.41 288.24
-4 18 -3 310.35 203.35
4 18 -3 197.55 211.55
-4 18 3 -198.59 207.49
-4 -18 4 600.14 252.77
-18 -4 4 353.34 217.4
-4 -18 -4 206.09 211.15
-4 18 -4 220.42 246.16
-18 -4 -4 635.99 236.73
-4 18 4 10.1 270.91
-18 4 -4 1006.6 308.48
4 18 4 376.18 307.53
-4 18 -4 251.43 220.37
-4 18 -4 610.52 235.8
4 18 -4 842.61 266.29
-4 18 4 424.82 209.2
-18 -4 5 1222.17 254.78
-4 -18 -5 936.33 256.23
-4 18 -5 1577.24 315.16
-18 -4 -5 1099.68 268.96
-4 18 5 830.25 291.67
-18 4 -5 933.14 287.8
4 18 5 1218.83 344.15
-4 18 -5 592.91 235.62
-4 18 -5 833.36 244.42
4 18 -5 1038.03 264.68
4 18 5 520.62 220.17
-4 18 5 1288.19 273.84
-4 18 -6 1316.11 274.02
-18 -4 -6 907.19 248.56
-4 18 6 1069.66 293.3
-18 4 -6 974.71 263.24
4 18 6 780.37 305.95
-4 18 -6 648.79 247.33
4 18 -6 1552.99 297.71
-4 18 -6 1092.82 242.81
4 18 -6 1365.94 259.8
4 18 6 683.22 226.38
-4 18 6 1031.44 269.36
-18 -4 6 833.95 214.03
-18 -4 -7 272.45 191.31
-4 18 7 661.14 237.06
-18 4 -7 332.75 214.94
4 18 7 300.53 268.02
-4 18 -7 276.56 206.59
4 18 -7 272.89 235.46
-4 18 -7 238.61 182.8
4 18 -7 643.12 211.65
4 18 7 -228.57 207.94
-4 18 7 700.53 240.76
-18 -4 -8 170.81 164.01
-4 18 8 177.56 186.6
4 18 8 182.96 221.22
-4 18 -8 -19.42 183.56
4 18 -8 33.06 204.7
-4 18 -8 88.12 148.8
4 18 -8 179.69 167
4 18 8 -35.11 167.85
-4 18 8 94.44 177.54
-18 -4 -9 -32.45 124.36
-4 18 9 199.03 155.72
4 18 9 197.07 196.62
-4 18 -9 277.42 174.22
4 18 -9 -34.32 188.14
-4 18 -9 60.87 129.34
4 18 -9 125.61 135.51
-4 18 9 273.92 153.09
-4 -18 -10 12.34 112.38
-18 -4 -10 28.13 99.18
4 18 10 -88.39 144.81
-4 18 -10 -116.09 140.98
4 18 -10 270.68 155.87
-4 18 10 -43.71 109.75
-5 -18 0 104.58 213.31
-18 -5 0 -321.9 229.67
-5 18 0 166.23 279.24
5 18 0 27.76 218.37
-18 5 0 92.51 282.58
5 18 0 -701.24 240.99
-5 -18 1 562.72 276.61
-5 -18 -1 100.09 210.76
-18 -5 1 421.55 233.29
-18 -5 -1 172.33 201.34
-5 18 -1 439.42 276.74
-5 18 1 243.51 277.85
-18 5 1 599.48 303.42
5 18 1 492.03 258.42
-18 5 -1 375.84 295
-5 18 -1 789.83 228.69
5 18 -1 331.72 223.61
-5 -18 2 987.33 274.35
-5 -18 -2 1331.44 303.24
-18 -5 2 1910.56 313.61
-18 -5 -2 1146.71 267.76
-5 18 -2 1962.5 358.6
-5 18 2 865.81 329.79
-18 5 -2 1412.69 363.62
5 18 2 1007.2 293.66
-5 18 -2 1445.83 276.85
5 18 -2 1251.53 275.77
-5 -18 3 1194.05 298.14
-18 -5 3 1570.66 291.2
-5 -18 -3 1322.49 278.16
-5 18 -3 1005.53 296.65
-18 -5 -3 1285.04 272.14
-5 18 3 1175.55 330
-18 5 -3 1475.97 352.45
5 18 3 989.51 304.92
-5 18 -3 1444.64 270.86
5 18 -3 1205.93 275.07
-5 -18 4 1090.45 290.29
-18 -5 4 621.28 226.14
-5 -18 -4 695.61 238.63
-5 18 -4 1006.1 315.43
-18 -5 -4 653.23 241.36
-5 18 4 678.35 286.2
-18 5 -4 985.34 314.34
5 18 4 1198.83 338.39
-5 18 -4 432.42 245.31
-5 18 -4 1040 244.33
5 18 -4 973.5 260.51
-5 18 4 576.44 215.58
-18 -5 5 736.78 219.25
-5 -18 -5 675.72 234.73
-5 18 -5 1038.27 297.9
-18 -5 -5 807 241.31
-5 18 5 708.03 281.41
-18 5 -5 1312.31 323.61
5 18 5 937.09 329.62
-5 18 -5 605.65 233.2
-5 18 -5 814.89 223.95
5 18 -5 1089.34 247.89
-5 18 5 938.67 229.38
-5 -18 5 938.94 270.34
-5 -18 -6 330.57 207.13
-5 18 -6 801.59 264.91
-18 -5 -6 295.04 198.07
-5 18 6 359.61 232.81
-18 5 -6 481.45 234.67
5 18 6 378.82 297.27
-5 18 -6 -247.37 212.42
5 18 -6 442 257.49
-5 18 -6 317.29 200.13
5 18 -6 420.66 206.08
-5 18 6 298.85 186.41
-5 -18 6 336.77 193.17
-18 -5 6 211.93 172.4
-5 18 -7 553.51 216.4
-18 -5 -7 98.09 169.22
-5 18 7 57.71 200.36
-18 5 -7 514.67 212.91
5 18 7 66.38 242.93
-5 18 -7 -231.65 209.3
5 18 -7 -84.88 211.45
-5 18 -7 -84.11 159.81
5 18 -7 -4.81 166.98
-5 18 7 117.4 172.21
-5 -18 -8 257.35 167.84
-5 18 8 367.94 182.79
-18 -5 -8 519.04 185.86
5 18 8 314.94 220.02
-5 18 -8 608.4 218.87
5 18 -8 423.68 216.65
-5 18 -8 215.16 149.08
5 18 -8 328.17 166.06
-5 18 8 401.6 180.44
-5 -18 -9 295.46 148.68
-18 -5 -9 422.75 153.73
5 18 9 334.71 191.08
-5 18 -9 398.83 182.2
5 18 -9 690.74 204.41
5 18 -9 161.64 126.82
-5 18 9 435.74 157.64
-5 -18 -10 261.88 116.11
-18 -5 -10 240.04 112.81
5 18 10 -104.95 142.84
-5 18 -10 272.67 142.64
-6 -18 0 -201.58 222.21
-18 -6 0 -535.1 227.06
-6 18 0 52.38 271.48
-18 6 0 100.87 264.77
6 18 0 -155.96 214.39
-6 -18 1 -206.53 223.79
-6 -18 -1 65.1 213.44
-18 -6 1 343.84 216.95
-18 -6 -1 -17.29 192.53
-6 18 -1 406.29 284.79
-6 18 1 -80.84 263.91
-18 6 1 -270.88 293.65
6 18 1 -72.55 225.32
-18 6 -1 371.78 290.09
6 18 -1 -45.03 199.13
-6 -18 2 13.26 225.33
-6 -18 -2 -76.9 203.7
-18 -6 2 560.77 233.97
-18 -6 -2 -146.3 209.13
-6 18 -2 -458.8 309.37
-6 18 2 477.77 288.53
-18 6 -2 464.16 301.29
6 18 2 -94.97 241.54
6 18 -2 -1.64 193.71
-6 -18 3 428.63 257.66
-18 -6 3 236.87 193.45
-6 -18 -3 72.13 204.07
-6 18 -3 -284.05 290.91
-18 -6 -3 -10.76 192.74
-6 18 3 -228.04 271.06
-18 6 -3 412.02 294.7
6 18 3 -75.91 233.21
-6 18 -3 -6.9 188.57
6 18 -3 428.88 226.5
-6 -18 4 337.41 235.74
-18 -6 4 -178.27 186.91
-6 -18 -4 241.31 202.57
-6 18 -4 -274.48 249.57
-18 -6 -4 414.49 211.32
-6 18 4 228.02 256.58
-18 6 -4 390.21 289.22
6 18 4 457.83 296.36
-6 18 -4 43.44 221.86
-6 18 -4 216.96 191.81
6 18 -4 167.67 193.7
-18 -6 5 -31.45 179.95
-6 -18 -5 281.46 202.61
-6 18 -5 747.83 289.52
-18 -6 -5 381.13 209.09
-6 18 5 308.36 244.59
-18 6 -5 56.62 243.95
6 18 5 421.92 288.5
-6 18 -5 353.39 215.74
-6 18 -5 552.01 201.96
6 18 -5 458.59 209.81
-6 -18 5 374.73 242.29
-6 -18 -6 144.72 183.55
-6 18 -6 819.96 245.7
-18 -6 -6 582.17 199.54
-6 18 6 27.64 206.28
-18 6 -6 454.85 236.98
6 18 6 429.09 282
-6 18 -6 -84.94 215.23
6 18 -6 255.57 215.86
-6 18 -6 391.12 186.08
6 18 -6 280.09 194
-6 18 6 281.63 175.66
-6 -18 6 280.75 213.06
-18 -6 6 192 161.55
-6 -18 -7 119.75 170.24
-6 18 7 17.22 173.63
-18 -6 -7 154.63 173.52
-18 6 -7 242.23 203.89
6 18 7 159.15 241.73
-6 18 -7 259.66 198.03
6 18 -7 142.19 213.73
-6 18 -7 395.68 153.11
6 18 -7 -113.13 161.88
-6 18 7 -25.3 152.48
-6 -18 7 374.26 190.49
-6 -18 -8 -124.48 159.34
-6 18 8 255.08 168.89
-18 -6 -8 -85.17 147.67
-18 6 -8 92.49 159.82
6 18 8 102.65 201.36
-6 18 -8 260.56 178.73
6 18 -8 -102.02 204.73
-6 18 -8 -209.46 144.02
6 18 -8 42.15 132.56
-6 18 8 -71.74 134.07
-6 -18 -9 2.2 122.09
-18 -6 -9 -34.71 115.95
6 18 9 150.84 172.37
-6 18 -9 154.61 153.9
6 18 -9 -98.33 162.12
6 18 -9 86.07 108.01
-6 18 9 14.09 108.77
-18 -6 -10 71.85 91.57
-7 -18 0 -50.56 200.52
-18 -7 0 -151.73 213.2
-7 18 0 112.52 271.97
-18 7 0 192.91 271.05
7 18 0 -83.02 198.01
-7 -18 1 48.31 208.2
-7 -18 -1 108.6 209.83
-18 -7 1 366.38 208.51
-18 -7 -1 44.65 190.24
-7 18 -1 -293.98 294.12
-7 18 1 463.71 289.89
-18 7 1 101.81 260.12
-18 7 -1 704.9 310.66
7 18 -1 154.62 202.19
-7 -18 2 298.15 231.73
-7 -18 -2 318.34 222.44
-18 -7 2 627.18 233.58
-18 -7 -2 506.93 224.8
-7 18 -2 115.01 261.13
-7 18 2 553.85 311.75
7 18 2 180.45 213.76
-18 7 -2 760.23 309
7 18 -2 495.65 213.52
-7 -18 3 2200.83 340.25
-7 18 -3 1865.48 347.3
-7 18 3 2329.97 375.94
-18 7 -3 3019.81 403.21
7 18 3 2403.86 350.61
7 18 -3 2701.9 329.44
-7 -18 -3 2184.89 327.26
-18 -7 3 2334.6 321.76
-18 -7 -3 2239.75 315.95
-7 18 -4 3710.21 409.96
-7 18 4 3365.17 412.04
7 18 4 2688.06 363.81
-18 7 -4 3783.06 418.11
-7 18 -4 2391.97 322.3
7 18 -4 3083.42 337.72
-7 -18 4 2486.2 360.23
-7 -18 -4 2732.09 334.49
-18 -7 4 3049.36 347.13
-18 -7 -4 3274.01 362.14
-18 -7 5 335.06 188.71
-7 -18 -5 677.36 221.17
-7 18 -5 828.9 269.57
-18 -7 -5 660.24 224.31
-7 18 5 453.4 236.92
-18 7 -5 713.04 287.51
7 18 5 758.97 269.8
-7 18 -5 367.82 221.85
7 18 -5 623.44 197.96
-7 -18 5 808.02 285.54
-7 -18 -6 61.78 168.52
-7 18 -6 232.8 219.92
-18 -7 -6 158.4 184.97
-7 18 6 15.59 189.14
-18 7 -6 382.36 224.09
7 18 6 337.39 257.49
-7 18 -6 -103.92 208.79
-7 18 -6 4.7 148.94
7 18 -6 301.96 182.4
-7 -18 6 -138.23 208.19
-18 -7 6 -110.46 165.53
-7 18 -7 463.59 193.88
-7 18 7 255.36 169.11
-18 -7 -7 258.42 172.13
-18 7 -7 279.59 210.75
7 18 7 -48.32 220.35
-7 18 -7 76.85 187.42
7 18 -7 209.92 185.78
-7 18 -7 3.3 126.01
7 18 -7 -57.82 156.45
-7 -18 7 120.18 169.27
-7 -18 -8 -75.33 135.42
-18 -7 -8 79.85 144.35
-18 7 -8 9.01 150
7 18 8 -72.82 186.9
-7 18 -8 39.49 168.02
7 18 -8 -89.32 179.62
7 18 -8 -79.92 120.11
-7 -18 -9 33.64 122.45
-18 -7 -9 282.78 129.67
7 18 9 290.98 162.44
-7 18 -9 318.07 160.17
7 18 -9 485.78 156.79
-8 -18 0 255.69 213.74
-18 -8 0 -73.43 199.83
-18 8 0 70.92 266
8 18 0 11.38 180.48
-8 -18 1 -127.18 209.58
-8 -18 -1 -187.63 214.64
-18 -8 1 330 217.11
-18 -8 -1 -161.07 195.64
-8 18 -1 -515.2 296.36
-8 18 1 617.89 296.24
-18 8 1 363.4 270.83
-18 8 -1 61.61 253.12
8 18 -1 86.02 184.53
8 18 1 -170.73 205.59
-8 -18 2 134.95 209.91
-8 -18 -2 -39.33 184.15
-18 -8 2 162.65 193.98
-18 -8 -2 12.17 184.66
-8 18 -2 -627.2 307.27
-8 18 2 422.22 280.36
-18 8 -2 353.18 288.91
8 18 -2 32.7 184.36
-8 -18 3 146.61 197.12
-18 -8 3 97.79 178.72
-8 -18 -3 -9.84 179.81
-8 18 -3 156.95 254.73
-18 -8 -3 80.27 178.99
-8 18 3 243.87 256.21
-18 8 -3 254.82 290.89
8 18 3 186.85 213.5
8 18 -3 87.23 180.73
-8 -18 4 -35.91 196.15
-18 -8 4 118.6 174.83
-8 -18 -4 -1.44 174.21
-8 18 -4 194.54 252.47
-18 -8 -4 75.91 172.5
-8 18 4 386.2 250.89
-18 8 -4 314.12 271.77
8 18 4 251.37 227.17
-8 18 -4 225.16 217.89
8 18 -4 160.97 184.83
-18 -8 5 -208.82 187.72
-8 -18 -5 48.16 169.63
-8 18 -5 747.44 260.18
-18 -8 -5 38.25 168.08
-8 18 5 -138.79 203.72
-18 8 -5 201.02 245.28
8 18 5 305.31 236.72
-8 18 -5 -32.33 196.35
8 18 -5 414.43 186.32
-8 -18 5 100.67 202.42
-8 -18 -6 -214.28 165.15
-8 18 -6 236.98 207.74
-8 18 6 166.14 188.81
-18 -8 -6 206.1 172.53
-18 8 -6 406.91 243.3
8 18 6 -183.91 215.53
-8 18 -6 130.22 195.96
8 18 -6 24.08 151.68
-18 -8 6 102.49 126.47
-8 -18 6 -0.34 175.59
-18 -8 6 -137.66 164.8
-8 -18 -7 51.26 145.2
-8 18 -7 337.51 182.06
-18 -8 -7 138.35 151.52
-18 8 -7 -175.17 189.7
8 18 7 -61.45 196.92
-8 18 -7 -36.77 184.11
8 18 -7 -429.74 155.36
-18 -8 7 83.92 117.33
-8 -18 7 169.73 168.63
-8 -18 -8 -162.42 130.15
-18 -8 -8 -25.37 123.13
-18 8 -8 -43.53 149.59
8 18 8 466.03 187.51
-8 18 -8 24.02 158.94
8 18 -8 -84.66 153.91
-8 -18 8 85 125.88
-8 -18 -9 5.68 97.03
-18 -8 -9 130.82 112.62
8 18 9 113.7 141.26
-8 18 -9 31.24 131.75
-9 -18 0 -165.02 192.31
-18 -9 0 274.9 209.64
-18 9 0 194.76 264.17
9 18 0 96.2 181.2
-9 -18 1 125.18 187.62
-9 -18 -1 192.53 187.73
-18 -9 1 439.02 214.21
-18 -9 -1 -94.24 190.16
-9 18 -1 -30.69 266.5
-9 18 1 -455.67 305.29
-18 9 1 -9.25 251.9
-18 9 -1 350.46 265.77
9 18 -1 185.89 189.24
9 18 1 118.58 184.34
-9 -18 2 1000.25 263.2
-9 -18 -2 1009.18 241.98
-18 -9 2 1015.22 254.27
-18 -9 -2 803.2 243.27
-9 18 -2 808.12 288.58
-9 18 2 735.5 301.4
-18 9 -2 1221.57 322.5
9 18 -2 1026.87 232.94
-9 -18 3 1218.9 263.29
-18 -9 3 951.85 235.21
-9 -18 -3 1067.46 237.25
-9 18 -3 1281.15 296
-18 -9 -3 1122.91 250.6
-9 18 3 1677.54 317.94
-18 9 -3 1441.95 316.22
9 18 -3 1758.96 274.56
-9 -18 4 969.07 245.56
-18 -9 4 683.03 210.36
-9 -18 -4 1194.9 232.08
-9 18 -4 1439.1 303.92
-18 -9 -4 970.19 231.38
-9 18 4 1157.43 264.07
-18 9 -4 1453.29 321.3
9 18 4 1009.69 234.14
-9 18 -4 1452.68 263.82
9 18 -4 1094 225.06
-18 -9 5 569.44 184.91
-9 -18 -5 485.72 194.34
-9 18 -5 1266.34 268.51
-18 -9 -5 622.34 210.43
-9 18 5 431.96 196.01
-18 9 -5 1104.37 281.63
9 18 5 771.16 222.68
-9 18 -5 654.86 228.8
9 18 -5 1150.51 216.37
-18 -9 5 472.61 160.53
-9 -18 5 638 208.15
-9 -18 -6 2.36 142.69
-9 18 -6 384.51 220.76
-18 -9 -6 78.75 147.2
-18 9 -6 342.09 222.84
9 18 6 65.72 190.76
-9 18 -6 127.4 188.95
9 18 -6 -137.75 143.81
-18 -9 6 -88.07 118.32
-9 -18 6 -106.15 173.19
-18 -9 6 -265.19 169.95
-9 -18 -7 -1.44 132.99
-18 -9 -7 134.68 131.77
-18 9 -7 35.2 176.78
9 18 7 149.86 180.7
-9 18 -7 -331.34 178.06
-18 -9 7 -31.23 110.31
-9 -18 7 52.33 141.95
-9 -18 -8 246.14 136.37
-18 -9 -8 314.19 131.61
-18 9 -8 361.66 152.77
9 18 8 151.79 157.61
-9 18 -8 316.41 169.62
-9 -18 8 380.17 136.18
-10 -18 0 217.97 195.92
-10 18 0 -335.29 294.84
-18 10 0 -22.25 230.88
10 18 0 119.58 179.72
-10 -18 1 115.9 176.49
-10 -18 -1 38.55 167.56
-18 -10 1 484.74 209.43
-18 -10 -1 -87.45 172.37
-10 18 -1 -7.44 242.53
-10 18 1 -420.36 285.91
-18 10 1 303.55 251.89
-18 10 -1 423.58 258.63
10 18 -1 -35.42 187.58
10 18 1 5.75 170.23
-10 -18 2 411.93 206.85
-10 -18 -2 85.49 168.43
-18 -10 2 406.25 197.98
-18 -10 -2 186.92 172.66
-10 18 -2 581.93 259.16
-10 18 2 39.84 229.5
-18 10 -2 593.45 271.81
10 18 -2 254.29 174.8
10 18 2 71.37 169.23
-10 -18 3 287.37 193.33
-18 -10 3 65.07 157.5
-10 -18 -3 283.13 177.05
-10 18 -3 588.98 257.43
-18 -10 -3 -47.57 168.18
-10 18 3 -343.66 241.22
-18 10 -3 433.01 259.69
-10 18 -3 155.1 203.21
10 18 -3 164.99 175.37
-18 -10 4 -107.86 164.45
-10 -18 -4 14.46 150.48
-10 18 -4 286.08 230.27
-18 -10 -4 -99.2 161.64
-10 18 4 -403.46 224.3
-18 10 -4 331.73 239.46
-10 18 -4 -438.47 233.24
10 18 -4 117.58 156.19
-18 -10 4 -10.21 124.98
-10 -18 4 61.59 164.27
-10 -18 -5 303.22 155.64
-10 18 -5 279.58 215.22
-18 -10 -5 273.56 167.41
-10 18 5 -89.61 158.23
-18 10 -5 580.32 241.85
10 18 5 349.56 183.72
-10 18 -5 -450.1 218.11
-18 -10 5 152.92 127.76
-10 -18 5 173.8 174.48
-18 -10 5 75.92 144.35
-10 -18 -6 173.01 144.77
-10 18 -6 472.88 203.62
-18 -10 -6 -18.26 136.94
-18 10 -6 161.58 198.7
10 18 6 0.86 164.22
-10 18 -6 -173.56 187.03
-18 -10 6 32.39 111.79
-18 -10 6 -112.68 145.71
-10 -18 6 -56.12 140.84
-10 -18 -7 6.5 115.45
-18 -10 -7 -47.66 121.9
-18 10 -7 172.13 167.57
10 18 7 133.56 144.53
-10 18 -7 -81.38 166.21
-18 -10 7 -7.84 89.52
-10 -18 7 1.48 124.72
-10 -18 -8 14.94 95.01
-18 -10 -8 -7.62 101.4
-10 18 -8 270.49 142.48
-11 -18 0 7.56 170.56
-18 -11 0 367.22 195.89
-11 18 0 -202.27 231.92
-18 11 0 249.42 241.19
11 18 0 -53.77 154.08
-11 -18 1 172.73 173.51
-11 -18 -1 61.05 161.18
-18 -11 1 352.1 185
-18 -11 -1 305.71 179.62
-11 18 -1 292.78 242.56
-11 18 1 25.12 212.85
-18 11 1 155.05 218.87
-18 11 -1 339.4 233.44
11 18 -1 478.1 179.64
11 18 1 292.08 173.99
-11 -18 2 282.22 180.47
-11 -18 -2 360.88 173.8
-18 -11 2 225.71 171.08
-18 -11 -2 -24.93 158.65
-11 18 -2 206.52 232.6
-11 18 2 131.49 208.04
-18 11 -2 333.92 237.87
11 18 -2 291.98 173.62
11 18 2 149.1 146.61
-11 -18 3 467.67 194.63
-18 -11 3 564.31 178.87
-11 -18 -3 506.85 194.14
-18 -11 -3 661.88 184.7
-11 18 3 308.36 206.42
-18 11 -3 664.71 251
11 18 -3 659.82 173.1
11 18 3 282.67 150.4
-18 -11 3 260.13 146.47
-18 -11 4 376.68 163.5
-11 -18 -4 467.12 165.07
-11 18 -4 377.63 211.83
-18 -11 -4 419.98 166.21
-11 18 4 274.9 173.34
-18 11 -4 865.59 242.16
-11 18 -4 344.14 192.44
-18 -11 4 260.23 144.67
-11 -18 4 430.81 175.88
-11 -18 -5 22.87 131.01
-11 18 -5 366.24 197.1
-18 -11 -5 225.72 151.18
-18 11 -5 363.69 209.76
-18 -11 5 62.73 113.47
-11 -18 5 199.53 157.71
-18 -11 5 37.24 123.41
-11 -18 -6 26.09 124.26
-18 -11 -6 -45.49 117.81
-18 11 -6 -143.34 184.21
-11 18 -6 -77.89 162.29
-18 -11 6 -2.27 97.82
-11 -18 6 189.1 132.58
-11 -18 -7 94.96 103.9
-18 -11 -7 -67.64 109.44
-18 11 -7 -9.23 151.93
-11 18 -7 181.56 145.28
-11 -18 7 192.6 117.51
-12 -18 0 253.54 175.22
-18 -12 0 163.31 148.46
-12 18 0 725.7 253.84
-18 12 0 550.6 229.41
12 18 0 281.53 149.84
-12 -18 1 381.45 179.95
-12 -18 -1 464.34 180.92
-18 -12 1 650.19 183.65
-18 -12 -1 675.6 187.57
-12 18 -1 1073.53 272.42
-12 18 1 415 218.49
-18 12 -1 879.63 239.77
12 18 -1 603.51 159.32
12 18 1 489.04 163.4
-12 -18 2 436.12 183.51
-12 -18 -2 364.59 178.26
-18 -12 2 396.03 161.98
-18 -12 -2 586.1 177.95
-12 18 -2 1315.85 286.91
-12 18 2 884.12 234.64
-18 12 -2 861.14 234.39
12 18 2 751.68 176.13
-18 -12 2 447.85 151.78
-18 -12 3 -64.44 145.81
-12 -18 -3 82.02 140.08
-18 -12 -3 157.1 152.1
-12 18 -3 156.63 194.87
-12 18 3 72.57 214.92
-18 12 -3 348.06 204.82
12 18 3 89.32 137.36
-18 -12 3 67.88 182.33
-12 -18 3 22.73 146.73
-12 -18 -4 -98.91 132.44
-12 18 -4 379.6 209.48
-18 -12 -4 -9.76 129.97
-18 12 -4 440.65 203.54
-12 18 -4 4.86 166.37
12 18 4 -245.04 144.23
-18 -12 4 20.59 114.36
-12 -18 4 -140.16 148.14
-18 -12 4 -169.23 134.27
-12 -18 -5 248.08 135.24
-12 18 -5 584.71 191.79
-18 -12 -5 214.99 129.14
-18 12 -5 349.9 195.19
-12 18 -5 26.18 157.54
12 18 5 89.75 118.01
-18 -12 5 91.51 107.41
-18 -12 5 -140.6 126.42
-12 -18 5 282.83 142.16
-12 -18 -6 118.79 111.55
-18 -12 -6 87.89 110.03
-18 12 -6 402.24 176.27
-12 18 -6 277.48 144.02
12 18 6 0.57 109.82
-12 -18 6 463.12 130.76
-13 -18 0 23.83 131.77
-18 -13 0 223.12 137.91
-13 -18 1 -3.93 132.95
-13 -18 -1 134.82 141.23
-18 -13 1 -55.82 131.12
-18 -13 -1 287.65 144.38
-13 18 -1 434.85 202.18
-13 18 1 561.95 202.75
-18 13 -1 329.53 193.36
-13 -18 2 18.19 144.26
-18 -13 2 16.54 133.88
-13 -18 -2 20.74 131.97
-18 -13 -2 360.69 146.04
-13 18 -2 359.23 201.18
-18 13 -2 312.12 198.86
13 18 2 99.86 111.86
-18 -13 2 95.99 113.01
-18 -13 3 81.57 117.56
-13 -18 -3 10.58 119.06
-18 -13 -3 298.86 141.4
-13 18 -3 567.42 197.49
-18 13 -3 460.82 185.61
13 18 3 18.71 105.32
-18 -13 3 153.26 107.98
-13 -18 3 94.78 140.72
-13 -18 -4 -53.37 115.02
-13 18 -4 557.15 179.79
-18 -13 -4 171.24 121.36
-18 13 -4 438.72 182.83
13 18 4 284.72 109.31
-18 -13 4 93.87 97.36
-13 -18 4 9.69 119.06
-18 -13 4 -129.35 119.53
-13 -18 -5 95.8 108.68
-18 -13 -5 180.27 113.77
-18 13 -5 -24.94 151.2
-13 -18 5 -2.87 106.68
-18 -14 0 1043.91 157.24
-14 18 0 1642.55 217.39
-14 -18 0 1432.63 202.13
-14 -18 -1 310.51 136.53
-18 -14 1 143.67 106.99
-18 -14 -1 263.74 119.49
-14 -18 1 302.04 143.16
-18 -14 2 -94.47 105.38
-14 -18 -2 227.97 118.32
-18 -14 -2 169.91 111.22
-14 18 -2 618.6 190.23
-18 14 -2 578.16 175.01
-14 -18 2 73.05 118.61
-14 -18 -3 74.59 105.13
-18 14 -3 185.67 155.79
-14 -18 3 -1.76 110.39
-18 14 -4 166.77 143.82
-14 -18 4 16.66 96.22
-15 -18 0 36.23 95.06
-15 -18 1 20.64 93.6
-19 0 0 104.39 200.9
0 19 0 31.77 258.04
0 19 0 125.89 201.87
-19 0 1 369.92 210.97
-19 0 -1 162.43 170.67
0 19 -1 420.55 263.39
0 19 1 536.89 277.14
0 19 -1 569.54 236.38
0 19 1 414.91 222.25
0 19 -2 2633.28 355.35
0 19 2 1869.35 360.65
0 19 -2 2595.87 351.56
0 19 2 2883.51 350.77
-19 0 2 2667.05 313.18
-19 0 -2 2337.8 299.76
-19 0 3 1811.4 283.96
-19 0 -3 1844.77 272.01
0 19 -3 1965.58 322.91
0 19 3 1947.81 356.06
0 19 -3 1873.64 318.67
0 19 3 1552.57 277.77
-19 0 4 896.33 212.62
0 -19 -4 621.16 176.29
-19 0 -4 1177.42 223.44
0 19 4 779.33 299.79
0 -19 -5 18.36 148.67
-19 0 -5 212.62 172.72
0 19 5 241.79 245.99
0 19 -5 57.53 210.15
0 19 5 -76.74 201.74
-19 0 5 -240.65 170.68
0 -19 -6 20.96 144.64
-19 0 -6 97.64 151.95
0 19 6 -227.18 236.35
0 19 -6 230.01 204.89
0 19 -6 -3.39 192.3
0 19 6 -358.9 212.02
0 19 7 -84.66 221.72
0 19 -7 23.79 181.83
0 19 -7 -113.11 172.32
0 19 7 43.4 168.75
0 -19 -8 -84.29 126.92
0 19 8 119.45 175.49
0 19 -8 77.03 177.03
0 19 -8 155.4 157.04
0 19 8 -310.23 181.03
0 -19 -9 134.11 114.4
0 19 9 227.45 168.26
0 19 -9 0.88 150.57
0 19 -9 -3.69 125.95
0 19 9 -120.5 141.28
-19 -1 0 718.21 242.66
-1 19 0 476.37 274.84
1 19 0 85.02 245.05
-1 19 0 305.54 220.05
1 19 0 210.7 216.4
-19 -1 1 -6.92 197.23
-19 -1 -1 -104.61 187.03
-1 19 -1 142.41 251.88
1 19 -1 68.7 221.07
-1 19 1 -348.61 274.35
1 19 1 51.55 262.23
-1 19 -1 213.1 207.65
1 19 -1 249.25 237.61
-1 19 1 -81.41 189.29
1 19 1 26.07 211.39
-19 -1 2 299.88 195.78
-1 -19 -2 157.25 158.87
-19 -1 -2 196.43 197.45
-1 19 -2 151.54 262.12
1 19 -2 394.37 243.96
-1 19 2 197.37 264.89
1 19 2 -44.97 262.66
-1 19 -2 206.4 221.26
1 19 -2 221.75 227.45
-1 19 2 129.22 190.64
1 19 2 -274.18 227.82
-19 -1 3 -54.3 180.36
-1 -19 -3 39.98 161.84
-19 -1 -3 83.19 170.69
-1 19 -3 -476.38 266.32
1 19 -3 -39.96 209.91
-1 19 3 44.52 250.41
1 19 3 -126.76 279.7
-1 19 -3 479.46 236.57
1 19 -3 103.35 211.78
-1 19 3 31.81 179.46
-19 -1 4 -230 189.93
-1 -19 -4 -179.71 165.93
-1 19 -4 -20.04 215.3
-19 -1 -4 362.56 193.94
-1 19 4 -167.43 247.96
1 19 4 17.83 267.54
-1 19 -4 -12.44 207.53
1 19 -4 81.68 213.84
-1 19 4 48.55 166.69
-1 19 4 -442.41 229.51
-1 -19 -5 243.67 176.15
-19 -1 -5 382.51 199.85
-1 19 5 10.24 238.81
1 19 5 -283.88 253.94
-1 19 -5 181.96 196.28
1 19 -5 412.16 232.96
-1 19 5 43.52 154.29
1 19 5 -160.62 204.08
-1 19 5 -47.59 203.26
-19 -1 5 1.96 158.7
1 -19 -6 46.99 134.57
-1 -19 -6 -118.33 149.99
-19 -1 -6 213.86 156.74
-1 19 6 -469.07 253.23
1 19 6 -29.88 229.33
-1 19 -6 33.87 188.74
1 19 -6 -44.64 189.75
-1 19 -6 -121.6 188.82
1 19 -6 -53.13 181.82
-1 19 6 -27.82 143.53
1 19 6 -48.92 188.64
-1 19 6 -104.92 186.99
1 -19 -7 127.5 133.46
-1 -19 -7 175.82 151.62
-19 -1 -7 521.14 174.07
-1 19 7 603.19 224.5
1 19 7 93.71 210.19
-1 19 -7 299.16 199.52
1 19 -7 787.39 228.47
-1 19 -7 195.91 178.19
1 19 -7 160.39 180.84
1 19 7 -96.36 182.4
-1 19 7 55.79 169.38
1 -19 -8 205.18 134.67
-1 -19 -8 244.19 154.62
-19 -1 -8 455.18 204.14
-1 19 8 202.96 195.28
1 19 8 39.02 179.57
-1 19 -8 340.39 195.06
1 19 -8 303.28 181.89
-1 19 -8 114.75 150.06
1 19 -8 365 166.92
1 19 8 -63.45 158.78
-1 19 8 51.1 151.75
-1 -19 -9 46.4 115.33
-1 19 9 65.65 138.88
1 19 9 -10.73 148.75
-1 19 -9 292.57 157.04
1 19 -9 130.59 150.82
-1 19 -9 -86.02 127.32
1 19 -9 -187.35 131.41
1 19 9 -332.37 158.07
-1 19 9 -63.89 133.72
-2 -19 0 127.29 169.21
-19 -2 0 211.44 210.06
-2 19 0 -270.16 257.25
2 19 0 -113.56 266.66
-2 19 0 136.03 189.88
2 19 0 159.17 209.32
-2 -19 -1 219.77 181.17
-19 -2 1 798.4 225.29
-19 -2 -1 705.88 232.3
-2 19 -1 570.07 275.31
2 19 -1 118.24 237.01
-2 19 1 543.7 274.63
2 19 1 156.74 247.04
-2 19 -1 777.13 239.55
-2 19 1 575.55 214.36
2 19 -1 582.95 251.52
2 19 1 522.2 234.43
-2 -19 -2 792.54 231.81
-19 -2 2 967.24 239.17
-19 -2 -2 904.27 248.15
-2 19 -2 1221.3 317.82
2 19 -2 1178.28 264.86
-2 19 2 725.71 286.72
-19 2 -2 1005.84 306.56
2 19 2 937.05 305.92
-2 19 -2 1197.55 273.26
2 19 -2 1180.03 288.98
-2 19 2 812.27 226.59
2 19 2 666.86 261.29
-2 -19 -3 1498.56 272.28
-19 -2 -3 2050.69 288.49
-2 19 -3 1738.27 312.63
-2 19 3 2129.31 354.83
-19 2 -3 1673.22 326.22
2 19 3 2158.6 370.17
-2 19 -3 2220.53 321.33
-2 19 3 1913.75 277.96
-19 -2 3 2137.8 294.08
-19 -2 4 1082.54 242.91
-2 -19 -4 846.63 231.42
-2 19 -4 1276.61 289.17
-19 -2 -4 1435.91 268.95
-2 19 4 1144.91 294.83
-19 2 -4 1235.06 300.12
2 19 4 1099.54 311.61
-2 19 -4 1689.94 293.9
2 19 -4 1344.7 281.63
-2 19 4 1491.5 256.2
-2 19 4 1080.4 249.74
-19 -2 5 1006.29 227.13
-2 -19 -5 831.87 220.91
-2 19 -5 669.56 229.96
-19 -2 -5 678.3 212.24
-2 19 5 738.78 269.43
-19 2 -5 619.13 248.38
2 19 5 776.55 290.55
-2 19 -5 925.5 243.31
2 19 -5 1213.75 271.25
-2 19 5 459.53 215.66
-2 -19 -6 -97.76 170.29
-19 -2 -6 -3.58 151.69
-2 19 6 313.05 225.49
2 19 6 -383.98 268.22
-2 19 -6 -182.94 203.62
2 19 -6 220.95 207.28
-2 19 -6 72.44 180.01
2 19 -6 83.85 179.54
2 19 6 -657.97 213.15
-2 19 6 -144.31 187.1
-19 -2 6 -205.46 176.19
-2 -19 -7 -79.87 155.14
-19 -2 -7 51.41 143.13
-2 19 7 188.48 216.61
2 19 7 -27.8 207.09
-2 19 -7 142.58 174.17
2 19 -7 460.06 221.46
-2 19 -7 2.05 169.1
2 19 -7 131.21 167.73
2 19 7 -143.34 194.33
-2 19 7 -193.51 195.01
-2 -19 -8 88.79 132.75
-19 -2 -8 -64.83 128.53
-2 19 8 358.19 199.96
2 19 8 28.75 182.39
-2 19 -8 412.61 181.59
2 19 -8 119.07 173.31
-2 19 -8 230.03 158.56
2 19 -8 246.46 159.77
2 19 8 -155.03 163.45
-2 19 8 -21.75 148.17
-2 -19 -9 204.39 135.65
-19 -2 -9 99.39 99.16
-2 19 9 149.28 142.32
2 19 9 -98.26 160.17
-2 19 -9 261.04 155.59
2 19 -9 330.11 156.23
-2 19 -9 -193.66 136.88
2 19 -9 86.96 116.38
-2 19 9 -89.85 135.86
-3 -19 0 719.32 248.73
-19 -3 0 876.43 250.15
-3 19 0 530.55 282.64
3 19 0 546.04 240.44
-3 19 0 780.06 232.38
3 19 0 942.25 269.32
-3 -19 1 172.45 178.27
-3 -19 -1 281.51 208.7
-19 -3 1 469.61 215.18
-19 -3 -1 238.58 198.68
-3 19 -1 465.22 281.95
3 19 -1 444.96 242.85
-3 19 1 291.12 255.04
3 19 1 353.34 251.59
-19 3 -1 320.2 286.54
-3 19 -1 442.56 227.03
-3 19 1 424.81 201.75
3 19 -1 365.54 224.02
3 19 1 90.79 221.15
-3 -19 2 28.89 172.4
-3 -19 -2 26.2 196.52
-19 -3 2 392.12 216.62
-19 -3 -2 85.86 182.47
-3 19 -2 249.99 261.84
-3 19 2 171.06 249.23
3 19 2 -89.13 257.46
-19 3 -2 -37.93 257.86
-3 19 -2 429.91 223.86
3 19 -2 69.83 214.16
-3 19 2 142.48 176.14
3 19 2 -455.3 242.25
-19 -3 3 24.51 174.27
-3 -19 -3 28.87 188.68
-19 -3 -3 -78.93 186.83
-3 19 -3 -480.45 296.49
-3 19 3 -252.03 282.1
-19 3 -3 -263.8 267.79
3 19 3 -16.71 251.89
-3 19 -3 129.03 192.84
3 19 -3 -47.57 207.5
-19 -3 4 250.81 189.7
-3 -19 -4 123.87 185.95
-3 19 -4 310.42 237.68
-19 -3 -4 625.56 215.28
-3 19 4 129.91 236.66
-19 3 -4 523.92 260.51
3 19 4 155.84 250.68
-3 19 -4 343.86 209.09
3 19 -4 803.7 240.24
-3 19 4 8.56 182.88
-19 -3 5 318.47 164.83
-3 -19 -5 203.66 185.25
-3 19 -5 815.9 247.09
-19 -3 -5 560.48 202.53
-3 19 5 323.93 246.43
-19 3 -5 332.6 233.39
3 19 5 37.94 252.55
-3 19 -5 359.49 192.55
-3 19 -5 360.09 204.25
3 19 -5 242.02 200.64
-3 19 5 267.06 184.72
-3 -19 -6 422.43 198.38
-19 -3 -6 359.49 190.64
-3 19 6 531.89 228.39
-19 3 -6 292.87 205.51
3 19 6 326.46 242.2
-3 19 -6 448.21 197.48
-3 19 -6 347.58 192.82
3 19 -6 753.83 215.98
-3 19 6 350.89 188.19
-19 -3 6 207.72 156.01
-3 -19 -7 279.29 172.3
-19 -3 -7 305.8 167.93
-3 19 7 366.52 213.58
3 19 7 5.25 219.61
-3 19 -7 247.03 173.06
3 19 -7 199.53 189.28
-3 19 -7 423.47 179.11
3 19 -7 168.12 170.36
-3 19 7 376.31 191.38
-3 -19 -8 385.91 163.25
-19 -3 -8 429.19 154.7
-3 19 8 486.76 181.99
3 19 8 102.25 190.7
-3 19 -8 289.19 175.23
3 19 -8 306.34 183.17
-3 19 -8 219.45 146.05
3 19 -8 347.41 155.14
-3 19 8 295.88 153.62
-3 -19 -9 351.63 138.91
-19 -3 -9 327.51 119.28
3 19 9 99.89 156.45
-3 19 -9 93.25 138.5
3 19 -9 478.32 160.25
3 19 -9 392.89 126.98
-3 19 9 75.26 121.08
-4 -19 0 26.86 189.24
-19 -4 0 114.58 185.27
-4 19 0 54.76 247.28
4 19 0 -285.53 219
-19 4 0 -340.22 292.52
-4 19 0 146.73 192.2
4 19 0 -158.79 219.71
-4 -19 1 390.29 226.38
-4 -19 -1 120.52 209.71
-19 -4 1 420.89 223.63
-19 -4 -1 518.15 224.43
-4 19 -1 171.18 243.09
-4 19 1 47.27 244.16
4 19 1 154.88 224.11
-19 4 -1 -89.27 283.17
-4 19 -1 371.02 210.72
4 19 -1 195.18 209.16
4 19 1 153.31 202.65
-4 -19 2 615.65 228.87
-4 -19 -2 518.49 240.32
-19 -4 2 633.75 232.63
-19 -4 -2 652.54 236.31
-4 19 -2 671.89 286.98
-4 19 2 702.67 281.55
4 19 2 687.97 271.7
-19 4 -2 1124.06 327.46
-4 19 -2 709.31 224.8
4 19 -2 609.23 244.16
-4 -19 3 503.34 217.31
-19 -4 3 777.38 237.3
-4 -19 -3 914.4 259.02
-19 -4 -3 448.04 211.49
-4 19 -3 280.67 260.19
-4 19 3 779.54 290.42
-19 4 -3 846.59 284.21
4 19 3 604.5 285.03
-4 19 -3 1047.29 243.28
4 19 -3 877.44 249.77
-19 -4 4 488.19 210.61
-4 -19 -4 373.84 207.21
-4 19 -4 850.79 261.22
-19 -4 -4 602.95 222.01
-4 19 4 665.43 270.08
-19 4 -4 716.37 273
4 19 4 648.4 289.51
-4 19 -4 1011.76 239.37
4 19 -4 1042.25 255.16
-19 -4 5 328.14 174.7
-4 -19 -5 107.36 181.4
-4 19 -5 427.09 240.08
-19 -4 -5 540.63 207.21
-4 19 5 164.69 228.17
-19 4 -5 566.43 246.84
4 19 5 243.7 248.89
-4 19 -5 107.17 192.67
-4 19 -5 281.36 173.91
4 19 -5 475.34 216.79
-4 19 5 236.93 181.37
-4 -19 -6 183.62 173.15
-4 19 -6 163.67 183.7
-19 -4 -6 40.15 156.94
-4 19 6 61.09 197.15
-19 4 -6 93.81 204.78
4 19 6 104.08 228.11
-4 19 -6 -182.07 177.88
-4 19 -6 -8.87 170.15
4 19 -6 365.07 194.25
-4 19 6 -4.17 159.33
-19 -4 6 -40.21 156.47
-4 -19 -7 193.87 169.11
-19 -4 -7 -60.39 143.17
-4 19 7 40.5 178.05
4 19 7 3.19 207.19
-4 19 -7 130.16 171.79
4 19 -7 -65.25 179.73
-4 19 -7 17.01 140.8
4 19 -7 -46.66 157.92
-4 19 7 -108.73 155.07
-4 -19 -8 35.69 134.18
-19 -4 -8 60.97 123.33
-4 19 8 34.24 151.12
4 19 8 -154.34 191.56
-4 19 -8 165.49 167.55
4 19 -8 267.7 171.71
-4 19 -8 145.84 133.95
4 19 -8 144.47 141.17
-4 19 8 -18.68 139.27
-4 -19 -9 153.16 125.16
-19 -4 -9 92.71 101.69
4 19 9 -122.81 154.04
-4 19 -9 120.11 137.51
4 19 -9 56.11 102.83
-4 19 9 -168.24 122.64
-5 -19 0 1545.99 303.69
-19 -5 0 1939.85 291.6
-5 19 0 2014.32 363.18
-19 5 0 1555.8 335.17
5 19 0 1263.7 282.15
-5 -19 1 725.27 244.29
-5 -19 -1 607.93 253.64
-19 -5 1 1069.72 261.95
-19 -5 -1 787.74 238.34
-5 19 -1 1332.65 312.51
-5 19 1 672.92 296.18
5 19 1 828.35 255.36
-19 5 -1 863.78 303.3
5 19 -1 936.92 259.21
5 19 1 760.79 229.94
-5 -19 2 200.67 199.65
-5 -19 -2 227.55 224.19
-19 -5 2 520.44 223.87
-19 -5 -2 182.43 195.1
-5 19 -2 162.36 268.09
-5 19 2 404.52 259.74
5 19 2 -69.87 224.38
-19 5 -2 328.4 265.86
-5 19 -2 313.71 198.61
5 19 -2 571.25 229.46
-5 -19 3 107.76 190.17
-19 -5 3 27.69 177.36
-5 -19 -3 -25.01 187.45
-19 -5 -3 0.89 175.61
-5 19 -3 -374.51 275.76
-5 19 3 252.09 247.29
-19 5 -3 -135.15 261.08
5 19 3 -19.85 236.68
-5 19 -3 175.15 180.05
5 19 -3 49.51 186.51
-19 -5 4 -137.62 186.98
-5 -19 -4 0.95 184.37
-5 19 -4 -20.21 239.36
-19 -5 -4 88.59 176.44
-5 19 4 19.18 232.39
-19 5 -4 558.55 270.41
5 19 4 -318.85 256.25
-5 19 -4 153.48 178.2
5 19 -4 398.36 207.81
-5 -19 4 245.85 202.37
-19 -5 5 -23.88 157.6
-5 -19 -5 398.99 199.59
-5 19 -5 627.28 242.9
-19 -5 -5 234.98 191.71
-5 19 5 24.53 208.95
-19 5 -5 459.76 236.42
5 19 5 326.05 256.31
-5 19 -5 576.04 208.7
-5 19 -5 283.11 172.31
5 19 -5 286.87 186.09
-5 19 5 -57.4 167.51
-5 -19 -6 294.56 184.38
-5 19 -6 908.13 222.36
-19 -5 -6 472.58 194.12
-5 19 6 555.78 219.11
-19 5 -6 619.89 209.05
5 19 6 445.39 235.57
-5 19 -6 425.72 193.89
-5 19 -6 926.02 195.54
5 19 -6 589.25 195.43
-5 19 6 493.75 176.71
-19 -5 6 259.77 147.67
-5 -19 -7 592.95 184.62
-19 -5 -7 662.57 182.61
-5 19 7 745.92 202.34
-19 5 -7 687.64 193.09
5 19 7 586.24 230.37
-5 19 -7 580.24 196.14
-5 19 -7 892.9 181.61
5 19 -7 887.19 184.64
-5 19 7 544.48 170.41
-5 -19 -8 492.29 157.95
-19 -5 -8 475.69 154.29
-5 19 8 336.34 148.27
5 19 8 228.16 182.87
-5 19 -8 376.69 160.22
5 19 -8 566.21 170.03
-5 19 -8 449.36 139.2
5 19 -8 572.74 147.34
-5 19 8 210.99 120.1
-5 -19 -9 124.93 118.53
-19 -5 -9 125.78 100.28
5 19 9 -9.52 142.65
-5 19 -9 266.28 128.55
-6 -19 0 70.55 202.27
-19 -6 0 252.27 203.43
-6 19 0 159.21 263.08
-19 6 0 -299.96 272.43
6 19 0 -57.78 184.04
-6 -19 1 254.83 213.29
-6 -19 -1 217.71 215.06
-19 -6 1 258.38 192.52
-19 -6 -1 155.22 196.97
-6 19 -1 -424.92 277.89
-6 19 1 240.83 265.32
6 19 1 -5.05 185.94
-19 6 -1 275.07 265.83
6 19 -1 -1.02 182.43
6 19 1 16.91 188.71
-6 -19 2 272.18 239.76
-6 -19 -2 296.37 222.98
-19 -6 2 138.61 190.38
-19 -6 -2 91.12 183.17
-6 19 -2 -62.53 252.57
-6 19 2 345.47 268.9
6 19 2 169.09 219.17
-19 6 -2 810.68 298.16
6 19 -2 282.38 204.55
-6 -19 3 13.5 204.13
-19 -6 3 -58.97 179.45
-6 -19 -3 12.45 199.22
-19 -6 -3 -62.71 176.69
-6 19 -3 -87.21 271.11
-6 19 3 -134.72 243.74
-19 6 -3 384.75 276.39
6 19 3 171.28 216.76
6 19 -3 252.97 188.93
-19 -6 4 -116.65 175.74
-6 -19 -4 -73.61 179.89
-6 19 -4 31.96 232.04
-19 -6 -4 134.37 174.59
-6 19 4 210.01 227.45
-19 6 -4 116.98 251.85
6 19 4 50.35 214.16
-6 19 -4 -50.72 152.89
6 19 -4 48.95 163.01
-6 -19 4 413.16 222.48
-19 -6 5 -34.99 157.77
-6 -19 -5 223.03 184.05
-6 19 -5 367.62 238.11
-19 -6 -5 14.9 161.67
-6 19 5 153.03 219.12
-19 6 -5 47.66 219.18
6 19 5 174.35 227.55
-6 19 -5 183.37 182.26
-6 19 -5 262.85 162.37
6 19 -5 279.54 174.35
-6 -19 5 246.55 188.92
-6 -19 -6 98 159.85
-6 19 -6 253.4 205.18
-19 -6 -6 279.14 170.87
-6 19 6 187.12 187.04
-19 6 -6 305.14 204.37
6 19 6 226.46 215.84
-6 19 -6 -87.78 166
-6 19 -6 85.78 137.87
6 19 -6 38.27 152.62
-19 -6 6 7.02 146.72
-6 -19 -7 240.59 150.04
-19 -6 -7 219.97 153.55
-6 19 7 0.44 154.89
-19 6 -7 5.95 157.69
6 19 7 -116.65 193.49
-6 19 -7 -135.05 163.77
-6 19 -7 -301.71 145.9
6 19 -7 70.21 133.48
-6 -19 -8 2.03 116.19
-19 -6 -8 101.36 125.38
6 19 8 248.88 177.26
-6 19 -8 314.47 156.98
6 19 -8 212.77 118.73
6 19 9 -51.59 128.97
-7 -19 0 341 205.49
-19 -7 0 727.67 232.84
-7 19 0 155.83 248.95
-19 7 0 338.43 269.85
7 19 0 499.86 215.82
-7 -19 1 726.38 246.99
-7 -19 -1 369.15 211.94
-19 -7 1 463.08 215.24
-19 -7 -1 640.54 223.24
-7 19 -1 -147.16 266.98
-7 19 1 761.21 285.05
-19 7 -1 706.36 279.07
7 19 -1 511.79 205.09
7 19 1 162.35 178.21
-7 -19 -2 35.92 182.53
-19 -7 2 370.5 195.68
-19 -7 -2 300.97 203.69
-7 19 -2 148.49 239.54
-7 19 2 559.6 267.43
7 19 2 382.62 205.64
-19 7 -2 73.9 264.97
7 19 -2 247.95 190.04
7 19 2 -234.78 197.36
-7 -19 3 260.8 209.58
-19 -7 3 209.37 185.79
-7 -19 -3 -122.97 183.21
-19 -7 -3 5.14 169.37
-7 19 -3 -276.77 251.62
-7 19 3 67.18 226.48
7 19 3 74.41 198.59
-19 7 -3 327.85 251.39
7 19 -3 207.61 187.43
-19 -7 4 -126.72 172.02
-7 -19 -4 78.88 183.43
-7 19 -4 291.89 236.33
-7 19 4 42.3 219.74
-19 7 -4 423.57 249.06
7 19 4 -59.21 209.33
7 19 -4 372.42 183.22
-7 -19 4 -104.51 191.72
-19 -7 5 149 145.25
-7 -19 -5 242.1 171.65
-7 19 -5 963.64 259.91
-19 -7 -5 185.25 169.06
-7 19 5 395.5 208.33
-19 7 -5 405.28 223.73
7 19 5 146.47 195.22
-7 19 -5 269.6 192.06
7 19 -5 350.16 169.82
-7 -19 5 188.34 177.85
-7 -19 -6 599.89 187.33
-7 19 -6 822.82 214.87
-19 -7 -6 245.91 161.43
-7 19 6 377.62 178.42
-19 7 -6 885.1 217.21
7 19 6 502.82 222.06
-7 19 -6 450.2 183.24
7 19 -6 510.07 173.72
-7 -19 6 235.88 160.46
-19 -7 6 349.55 151.67
-7 -19 -7 392.51 152.49
-19 -7 -7 344.74 154.37
-7 19 7 410.63 159.57
-19 7 -7 428.84 182.91
7 19 7 302.16 182.23
-7 19 -7 143.27 164.5
7 19 -7 212.9 134.17
-7 -19 -8 442.01 132.38
-19 -7 -8 85.75 112.38
7 19 8 34 153.69
-7 19 -8 438.59 150.42
-8 -19 0 -32.2 179.79
-19 -8 0 250.9 196.92
-8 19 0 -424.77 269.99
-19 8 0 -49.95 239.87
8 19 0 -58.46 170.27
-8 -19 1 251.9 200.17
-8 -19 -1 313.19 204.01
-19 -8 1 304.32 187.49
-19 -8 -1 220.19 180.16
-8 19 -1 -31.24 245.52
-8 19 1 -323.93 284.05
-19 8 -1 663.24 270.28
8 19 -1 177.51 167.96
8 19 1 123.03 166.41
-8 -19 2 969.91 250.71
-8 -19 -2 890.88 235.82
-19 -8 2 600.64 216.62
-19 -8 -2 513.48 191.52
-8 19 -2 593.74 266.44
-8 19 2 1098.69 289.38
-19 8 -2 1164.37 307.84
8 19 -2 343.32 184.43
8 19 2 324.67 184.25
-8 -19 3 292.57 200.59
-19 -8 3 101.09 171.96
-8 -19 -3 171.57 180.96
-19 -8 -3 214.81 179.59
-8 19 -3 156.27 227.52
-8 19 3 350.66 239.97
8 19 3 146.18 184.01
-19 8 -3 256.18 249.02
8 19 -3 72.95 155.98
-19 -8 4 -468.48 179.55
-8 -19 -4 29.46 153.99
-8 19 -4 446.82 236.34
-19 -8 -4 7.66 151.73
-8 19 4 142.18 202.86
-19 8 -4 28.87 217.22
8 19 4 30.09 181.99
8 19 -4 -33.43 155.7
-8 -19 4 -31.51 170.77
-19 -8 5 -154.84 143.47
-8 -19 -5 -23.24 150.34
-8 19 -5 347.75 207.73
-19 -8 -5 61.45 155.09
-8 19 5 171.42 189.75
-19 8 -5 170.24 212.77
8 19 5 -24.42 175.08
-8 19 -5 368.57 184.84
8 19 -5 109.45 148.92
-8 -19 5 217.48 180.44
-8 -19 -6 82.12 131.91
-8 19 -6 215.28 185.25
-19 -8 -6 26.14 138.52
-8 19 6 -102.75 158.12
-19 8 -6 198.78 189.13
8 19 6 150.54 179.56
-8 19 -6 -210.98 167.34
8 19 -6 1.49 131.13
-19 -8 6 -123.87 144.65
-8 -19 6 -2.04 153.8
-8 -19 -7 27.32 127.21
-19 -8 -7 49.9 120.71
-19 8 -7 183.17 152.83
8 19 7 -209.4 159.85
-8 19 -7 88.33 152.6
-8 -19 -8 297.62 121.39
-19 -8 -8 193.5 111.45
-9 19 0 2172.66 331.58
-19 9 0 2256.11 327.27
9 19 0 2435.56 277.67
-9 -19 0 2213.19 293.08
-19 -9 0 2454.89 305.9
-9 -19 1 1173.25 243.57
-9 -19 -1 949.2 230.71
-19 -9 1 985.42 235.74
-19 -9 -1 1059.38 233.31
-9 19 -1 740.38 263.88
-9 19 1 494.32 237.82
-19 9 -1 1162.39 276.86
9 19 -1 1066.12 213.85
9 19 1 738.3 197.96
-9 -19 2 173.77 188.79
-9 -19 -2 287.04 181.65
-19 -9 2 -81.73 171.16
-19 -9 -2 -128.81 169.08
-9 19 -2 158.05 223.86
-9 19 2 -454.31 272.05
-19 9 -2 584.82 260.49
9 19 -2 84.98 159.84
9 19 2 15.88 161.19
-9 -19 3 -161.81 173.56
-19 -9 3 50.22 149.02
-9 -19 -3 81.83 155.67
-19 -9 -3 1.45 155.34
-9 19 -3 85.4 208.89
-9 19 3 -440.07 253.25
-19 9 -3 259.45 233.85
9 19 -3 265.63 163.78
9 19 3 -219.7 176.44
-19 -9 4 447.65 167.72
-9 -19 -4 517.08 187
-9 19 -4 914.59 240.5
-19 -9 -4 527.64 176.36
-9 19 4 117.32 182.2
9 19 4 208.35 162.86
-19 9 -4 861.72 249.07
9 19 -4 585.52 165.11
-9 -19 4 510.32 202.2
-9 -19 -5 674.41 193.49
-9 19 -5 1246.25 234.22
-19 -9 -5 428.65 172.4
-9 19 5 392.33 178.15
9 19 5 948.36 188.61
-19 9 -5 998.86 235.57
-9 19 -5 477.73 178.85
9 19 -5 868.4 168.62
-9 -19 5 801.75 196.25
-19 -9 5 543.04 165.94
-9 -19 -6 716.8 177.83
-19 -9 -6 746.62 170.15
-19 9 -6 949.44 202.04
9 19 6 560.03 168.63
-9 19 -6 857.55 189.58
-9 -19 6 870.78 178.64
-9 -19 -7 614.6 147.85
-19 -9 -7 393.09 128.61
-19 9 -7 631.42 170.79
9 19 7 456.1 147.56
-10 -19 0 -208.64 174.02
-19 -10 0 220.65 168.26
-10 19 0 -43.47 231.32
-19 10 0 9.65 202.53
10 19 0 -252.99 164.32
-10 -19 1 129.41 159.02
-10 -19 -1 13 153.16
-19 -10 1 210.57 169.47
-19 -10 -1 414.84 189.89
-10 19 -1 314.12 224.54
-10 19 1 -270.48 250.03
-19 10 -1 129.02 208.76
10 19 -1 -13.65 144.64
10 19 1 20.68 146.81
-10 -19 2 167.69 169.7
-10 -19 -2 -6.59 157.12
-19 -10 2 200.26 153.93
-19 -10 -2 275 161.99
-10 19 -2 279.07 219.62
-10 19 2 -145.73 217.35
-19 10 -2 -70.54 207.25
10 19 -2 253.76 155.96
10 19 2 160.8 150.8
-10 -19 3 230.79 164.31
-19 -10 3 102.32 145.56
-10 -19 -3 223.82 157.22
-19 -10 -3 58.18 141.44
-10 19 -3 479.93 222.98
-10 19 3 -105.17 192.76
-19 10 -3 323.22 228.72
10 19 -3 322.82 152.77
10 19 3 21.31 140.27
-19 -10 4 256.01 153.57
-10 -19 -4 322.24 167.98
-10 19 -4 410.33 207.03
-19 -10 -4 286.03 154.96
-10 19 4 200.38 167.73
-19 10 -4 335.96 216.3
10 19 -4 778.45 165.6
10 19 4 222.05 133.19
-10 -19 4 417.69 176.25
-10 -19 -5 40.89 137.23
-10 19 -5 411.24 180.08
-19 -10 -5 69.05 129.4
-19 10 -5 523.16 215.37
-10 19 -5 7.68 145.58
-10 -19 5 225.65 153.78
-19 -10 5 12.81 116.54
-10 -19 -6 46.34 134.82
-19 -10 -6 88.65 118.9
-19 10 -6 109.01 156.6
-10 -19 6 -109.92 122.75
-19 -10 -7 -124.39 106.26
-11 -19 0 26.77 144.76
-19 -11 0 221.73 154.69
-11 19 0 259.4 205.43
11 19 0 151.11 141.66
-11 -19 1 133.46 154.95
-11 -19 -1 264.41 158.05
-19 -11 1 273.53 151.62
-19 -11 -1 535.47 175.32
-11 19 -1 651.37 237.22
-11 19 1 184.95 195.81
-19 11 -1 358.18 209.01
11 19 -1 337.76 152.3
11 19 1 395.98 156
-11 -19 2 45.84 142.86
-11 -19 -2 47.45 141.65
-19 -11 2 -42.53 132.07
-19 -11 -2 118.72 145.38
-11 19 -2 508.1 225.3
-11 19 2 74.69 187.92
-19 11 -2 62.7 195.9
11 19 -2 243.03 130.16
11 19 2 74.75 130.94
-19 -11 3 -85.45 134.78
-11 -19 -3 2.9 128.64
-19 -11 -3 257.34 149.22
-11 19 -3 191.05 185.97
-11 19 3 236.59 171.79
-19 11 -3 144.63 185.54
11 19 3 157.39 130.97
-11 -19 3 25.81 140.12
-11 -19 -4 257.11 145.88
-11 19 -4 636.43 200.17
-19 -11 -4 157.1 128.59
-19 11 -4 825.81 212.95
11 19 4 243.03 139.23
-11 -19 4 291.74 148.25
-19 -11 4 48.23 114.07
-11 -19 -5 511.55 151.92
-11 19 -5 982.95 197.52
-19 -11 -5 403.9 130.95
-19 11 -5 769.88 193.6
11 19 5 411.22 125.76
-11 -19 5 718.74 153.86
-11 -19 -6 334.82 112.71
-19 -11 -6 393.78 120.49
-19 11 -6 619.72 171.76
-12 -19 0 144.9 148.74
-19 -12 0 67.31 125.65
-12 19 0 570.3 204.57
12 19 0 284.61 124.85
-12 -19 1 20.58 131.74
-12 -19 -1 95.84 133.56
-19 -12 1 -19.93 122.61
-19 -12 -1 67.59 138.18
-12 19 1 460.35 189.32
-19 12 -1 48.38 172.68
12 19 1 -14.04 109.34
-19 -12 2 160.02 121.37
-12 -19 -2 329.21 139.99
-19 -12 -2 315.65 142.12
-12 19 -2 421.53 189.49
-12 19 2 554.57 180.38
-19 12 -2 508.22 187.83
12 19 2 290.42 123.52
-12 -19 2 821.49 172.73
-19 -12 3 304.85 124.08
-12 -19 -3 450.85 145.97
-19 -12 -3 740.56 157.74
-12 19 -3 657.65 202.29
-19 12 -3 820.34 193.3
12 19 3 245.51 113.49
-12 -19 3 483.65 145.75
-12 -19 -4 79.62 111.51
-12 19 -4 602.12 176.89
-19 -12 -4 435.46 137.61
-19 12 -4 579.66 180.88
12 19 4 187.34 110.19
-12 -19 4 385.55 133.07
-19 -12 4 -69.4 109.11
-12 -19 -5 110.89 101.31
-19 -12 -5 373.68 120
-19 12 -5 288.89 152.97
-12 -19 5 91.23 111.06
-13 -19 0 35 112.83
-19 -13 0 0.35 108.32
-13 19 0 70.57 147.49
-13 -19 1 57.46 114.23
-13 -19 -1 36.57 111.95
-19 -13 1 -106.31 117.74
-19 -13 -1 -21.16 108.42
-19 -13 2 -202.53 106.76
-13 -19 -2 8.13 107.29
-19 -13 -2 -78.89 99.94
-13 19 -2 193.88 162.05
-19 13 -2 145.81 151.21
-13 -19 2 -1.23 110.35
-13 -19 -3 82.29 110.47
-19 -13 -3 -32.81 98.31
-19 13 -3 17.57 132.26
-13 -19 3 24.8 104.09
-19 -13 3 -186.53 101.81
-14 -19 0 62 100.32
-14 -19 1 12.9 91.72
-20 0 0 901.08 226.27
0 20 0 760.84 275.98
0 20 0 965.4 250.87
0 20 -1 2322.59 334.32
0 20 1 2417.67 359.15
0 20 -1 2333.32 317.79
0 20 1 1948.99 294.03
-20 0 1 1916.53 262.66
-20 0 -1 2333.59 274.43
-20 0 2 1212.2 226.51
-20 0 -2 1421.16 232.59
0 20 -2 1137.82 275.55
0 20 2 1149.66 308.09
0 20 -2 1054.8 258.96
0 20 2 838.49 223.43
-20 0 3 -118.45 157.28
0 20 -3 -146.27 211.04
0 20 3 4.23 249.89
0 20 -3 336.53 216.01
0 20 3 6.34 172.7
0 20 4 42.86 224.38
0 20 -4 179.48 195.68
0 20 4 -76.67 160.42
-20 0 4 -111.46 142.76
0 20 5 451.54 235.5
0 20 -5 239.21 185
0 20 5 114.79 147.82
0 20 6 -113.12 190.18
0 20 -6 36.76 167.49
0 20 6 -27.92 131.58
0 -20 -7 165.6 117.2
0 20 7 279.09 187.09
0 20 -7 406.61 171.49
0 20 8 11.82 141.4
0 20 -8 9.49 120.65
-20 -1 0 270.42 183.15
-1 20 0 -14.94 239.17
1 20 0 53.86 233.27
-1 20 0 -87.96 180.51
1 20 0 303.49 212.86
-20 -1 1 -36.33 155.02
-20 -1 -1 387.56 203.59
-1 20 -1 51.78 227.4
1 20 -1 174.45 226.13
-1 20 1 -32.02 248.8
1 20 1 -153.03 245.51
-1 20 -1 106.86 191.97
1 20 -1 130.85 198.47
-1 20 1 129.4 177.78
1 20 1 113.93 190.93
-20 -1 2 201.44 174.51
-20 -1 -2 520.58 202.53
-1 20 -2 376.19 236.3
1 20 -2 730.41 234.31
-1 20 2 76.71 241.96
1 20 2 11.27 248.01
-1 20 -2 384.69 206.6
1 20 -2 292.63 210.74
-1 20 2 198.07 177.78
1 20 2 -19.49 186.42
-20 -1 3 -260.41 178.25
-20 -1 -3 260.33 172.39
-1 20 -3 -517.88 241.5
-1 20 3 -164.83 233.54
1 20 3 -54.9 240.72
-1 20 -3 128.93 186.6
1 20 -3 261.25 216.16
-1 20 3 8.08 153.07
1 20 3 -123.9 181.88
-1 -20 -4 156.12 139.09
-20 -1 -4 -98.49 160.93
-1 20 -4 -104.8 182.73
-1 20 4 -174.61 239.19
1 20 4 -231.38 241.1
-1 20 -4 -31.11 174.77
1 20 -4 177.44 200.86
-1 20 4 80.16 151.26
1 20 4 -206.72 183.55
-20 -1 4 13.71 144.32
-1 -20 -5 125.79 127.72
-20 -1 -5 -31.42 140.56
-1 20 5 153.75 215.14
1 20 5 -224.41 232.88
-1 20 -5 70.83 174.32
1 20 -5 226.36 189.19
-1 20 5 77.28 142.92
1 20 5 -61.23 165.61
-20 -1 5 -88.61 143.51
-1 -20 -6 -172.78 133.86
-20 -1 -6 -100.29 128.09
-1 20 6 33.42 190.24
1 20 6 -39.71 200.54
-1 20 -6 68.98 166.56
1 20 -6 86.68 160.29
1 20 6 -130.2 147.4
-1 -20 -7 -206.7 118.65
-1 20 7 158.19 179.02
1 20 7 84.24 172.37
-1 20 -7 35.6 141.37
-1 20 -7 190.95 151.95
1 20 -7 -241.74 167.47
1 20 7 69.32 116.25
-1 20 8 97.98 148.03
1 20 8 230.74 158.59
-1 20 -8 28.27 121.1
1 20 -8 -263.46 135.91
-2 20 0 2210.89 343.16
2 20 0 1871.03 301.39
-2 20 0 2054.56 288.02
2 20 0 2187.05 317.62
-20 -2 0 2151.48 286.47
-20 -2 1 760.19 216.32
-20 -2 -1 1031.92 224.58
-2 20 -1 804.1 275.54
2 20 -1 625.22 224.08
-2 20 1 612.87 262.06
2 20 1 757.28 268.25
-2 20 -1 799.61 220.65
-2 20 1 618.65 206.59
2 20 -1 819.79 248.79
2 20 1 673.25 245.17
-20 -2 2 247.35 167.94
-2 -20 -2 337.88 156.88
-20 -2 -2 337.91 185.63
-2 20 -2 -37.08 250
-2 20 2 30.34 235.6
2 20 2 285.2 261.19
-2 20 -2 296.45 198.85
2 20 -2 379.22 226.01
-2 20 2 347.04 177.12
2 20 2 317.11 218.65
-20 -2 3 -165.33 166.02
-2 -20 -3 170.8 149.56
-20 -2 -3 40.47 163.65
-2 20 -3 -514.66 236.82
-2 20 3 16.98 223.45
2 20 3 32.32 232.32
-2 20 -3 119.23 187.05
2 20 -3 188.67 204.07
-2 20 3 392.14 188.24
2 20 3 -161.54 194.14
-20 -2 4 173.01 162.12
-2 -20 -4 85.89 153.37
-20 -2 -4 210.86 155.91
-2 20 -4 -93.1 203.5
-2 20 4 34.5 214.7
2 20 4 -191.87 235.64
-2 20 -4 116.16 175.09
2 20 -4 295.56 205.77
2 20 4 -200.77 197.29
-2 -20 -5 -50.72 140.26
-20 -2 -5 105.75 151.45
-2 20 5 -49.49 210.33
2 20 5 -74.27 223.21
-2 20 -5 74.58 166.93
2 20 -5 91.15 167.18
2 20 5 -236.08 186.12
-20 -2 5 -148.2 152.66
-2 -20 -6 175.14 138.88
-20 -2 -6 108.45 143.37
-2 20 6 267.04 206.96
2 20 6 395.18 219.6
-2 20 -6 73.27 152.54
2 20 -6 150.17 161.28
2 20 6 -93.71 162.12
-2 -20 -7 73.45 130.36
-20 -2 -7 178.14 128.81
-2 20 7 36.69 165.23
2 20 7 -57.23 188.08
-2 20 -7 372.13 156.58
-2 20 -7 61.97 133.97
2 20 -7 -47.11 144.45
2 20 7 -27.84 127.64
-2 -20 -8 212.94 113.44
-2 20 8 -27.11 136.73
2 20 8 -34.51 148.01
-2 20 -8 -161.24 130.16
2 20 -8 108.19 117.23
-3 -20 0 -17.07 153.27
-20 -3 0 149.96 168.03
-3 20 0 -98.65 238.89
3 20 0 -151.62 198.83
-3 20 0 234.46 183.03
3 20 0 156.25 208.99
-3 -20 -1 432.77 171.09
-20 -3 1 190.61 178.71
-20 -3 -1 318.2 184.38
-3 20 -1 273.13 255.01
3 20 -1 133.24 193.11
-3 20 1 202.53 243.02
3 20 1 434.05 263.15
-3 20 -1 422.5 187.69
-3 20 1 196.81 169.56
3 20 -1 431.99 223.64
3 20 1 223.8 202.6
-3 -20 -2 -87.89 155.81
-20 -3 2 104.25 163.57
-20 -3 -2 -60.33 170.11
-3 20 -2 -405.81 262.44
-3 20 2 45.22 239.49
3 20 2 99.57 224.7
-3 20 -2 221.2 193.38
3 20 -2 -64.45 193.65
3 20 2 74.11 190.78
-20 -3 3 165.28 166.14
-3 -20 -3 75.16 156.57
-20 -3 -3 92.23 165.51
-3 20 -3 -316.24 236.75
-3 20 3 -61.87 223.95
3 20 3 418.36 247.23
-3 20 -3 73.23 173.66
3 20 -3 595.83 223.6
3 20 3 41.76 191.78
-20 -3 4 -145.63 164.96
-3 -20 -4 135.43 167.38
-20 -3 -4 -40.93 164.93
-3 20 -4 358.6 223.65
-3 20 4 -17.94 211.94
3 20 4 57.19 223.1
-3 20 -4 -44.29 162.81
3 20 -4 290.27 189.5
3 20 4 -354.8 212.05
-3 -20 -5 -60.25 160.62
-20 -3 -5 -110.97 150.21
-3 20 5 13.27 191.65
3 20 5 -279.51 234.78
-3 20 -5 -139.41 169.16
3 20 -5 17.54 163.89
-20 -3 5 -99.26 137.2
-3 -20 -6 -36.71 139.02
-20 -3 -6 -21.08 126.13
-3 20 6 151.4 188.33
3 20 6 -134.98 212.91
-3 20 -6 -381.6 174.94
3 20 -6 1.79 147.62
-3 -20 -7 173.8 134.06
-20 -3 -7 33.92 118.4
-3 20 7 35.11 152.37
3 20 7 -4.26 178.2
-3 20 -7 50.95 134.28
-3 20 -7 98.4 130.26
3 20 -7 -203.35 136.31
3 20 7 -197.87 142.06
-3 -20 -8 -140.34 111.55
-3 20 8 88.22 127.57
3 20 8 95.89 156.12
-3 20 -8 -122.33 118.44
3 20 -8 87.68 108.73
-4 -20 0 307.18 191.33
-20 -4 0 430.01 202.49
-4 20 0 632.72 262.95
4 20 0 422.84 195.12
4 20 0 445.34 223.59
-4 -20 1 -0.32 154.84
-4 -20 -1 360.2 193.01
-20 -4 1 262.7 184.96
-20 -4 -1 476.07 213.13
-4 20 -1 197.79 234.03
-4 20 1 201.83 250.5
4 20 1 80.82 205.84
-4 20 -1 541.87 194.25
4 20 -1 441.79 216.17
4 20 1 371.07 218.66
-4 -20 2 -141.97 162.29
-4 -20 -2 -12.13 175.11
-20 -4 2 -0.98 164.39
-20 -4 -2 15.15 176.74
-4 20 -2 -555.07 277.16
-4 20 2 185.58 226.44
4 20 2 117.12 218.41
-20 4 -2 -275.68 262.74
-4 20 -2 130.8 165.17
4 20 -2 -33.28 176.05
4 20 2 -37.45 200.46
-20 -4 3 -67.06 164.47
-4 -20 -3 52.78 158.06
-20 -4 -3 3.47 165.87
-4 20 -3 -157.09 228.72
-4 20 3 71.15 218.75
-20 4 -3 -57.22 220.09
4 20 3 -12.45 225.36
-4 20 -3 45.69 158.16
4 20 -3 53.98 185.38
4 20 3 -213.75 198.28
-20 -4 4 -215.45 175.87
-4 -20 -4 -167.25 165.07
-4 20 -4 -3.89 206.01
-20 -4 -4 -68.29 169.03
-4 20 4 35.44 200.55
-20 4 -4 76.27 212.43
4 20 4 32.15 231.63
-4 20 -4 -27.11 155.15
4 20 -4 126.34 172.33
4 20 4 -527.03 204.58
-4 -20 -5 49.71 153.25
-4 20 -5 88.93 189.95
-20 -4 -5 39.89 154.28
-4 20 5 -116.06 192.07
-20 4 -5 -199.21 204.79
4 20 5 20.77 219.99
-4 20 -5 -56.98 149.15
4 20 -5 153.66 164.88
-20 -4 5 -78.67 148.47
-4 -20 -6 12.17 138.78
-20 -4 -6 59.26 136.45
-4 20 6 117.29 185.01
4 20 6 -148.28 201.62
-4 20 -6 128.64 141.05
4 20 -6 45.97 142.67
-4 -20 -7 164.26 134.27
-20 -4 -7 89.15 119.81
-4 20 7 60.39 152.79
4 20 7 -231.79 188.34
-4 20 -7 21.2 130.57
-4 20 -7 -58.57 119.8
4 20 -7 57.18 122.82
-4 -20 -8 -0.86 104.14
-20 -4 -8 12.22 88.7
4 20 8 47.12 139.6
4 20 -8 -39.91 98.23
-5 -20 0 70.67 182.04
-20 -5 0 128.35 178.47
-5 20 0 100.16 226.3
5 20 0 -152.9 184.73
-5 -20 1 250.23 180.55
-5 -20 -1 148.62 216.75
-20 -5 1 112.27 164.89
-20 -5 -1 475.88 202.97
-5 20 -1 -155.51 258.16
-5 20 1 359.63 232.62
5 20 1 220.4 191.19
5 20 -1 397.28 205.62
5 20 1 7.18 183.39
-5 -20 2 217.48 194.99
-5 -20 -2 206.26 186.71
-20 -5 2 215.17 175.99
-20 -5 -2 282.71 186.68
-5 20 -2 39.11 233.9
-5 20 2 548.56 243.36
5 20 2 -75.09 195.5
-20 5 -2 247.54 239.72
5 20 -2 292.53 187.28
5 20 2 11.16 181.92
-5 -20 3 440.76 183.82
-20 -5 3 232.6 167.45
-5 -20 -3 9.08 171.17
-20 -5 -3 251.98 187.82
-5 20 -3 280.97 231
-5 20 3 373.09 228.91
5 20 3 345.04 212.57
-20 5 -3 105.25 231.4
-5 20 -3 309.81 171.18
5 20 -3 630.14 195.79
5 20 3 110.99 188.98
-20 -5 4 133.25 146.86
-5 -20 -4 32.57 159.5
-5 20 -4 792.5 232.63
-20 -5 -4 424.33 186.83
-5 20 4 507.87 234.13
-20 5 -4 352.45 224.28
5 20 4 241.85 213.37
-5 20 -4 373.6 161.07
5 20 -4 785.84 200.42
-5 -20 -5 102.49 146.9
-5 20 -5 342.27 198.64
-20 -5 -5 103.18 149.27
-5 20 5 165.7 194
-20 5 -5 75.42 187.47
5 20 5 26.91 202.11
-5 20 -5 342.74 156.85
5 20 -5 28.8 148.22
-20 -5 5 -87.1 143.24
-5 -20 -6 -2.14 135.28
-5 20 -6 402.09 163.01
-20 -5 -6 135.03 144.31
-5 20 6 -32.29 166.33
-20 5 -6 -393.68 184.62
5 20 6 61.16 183.51
-5 20 -6 -195.24 132.61
5 20 -6 77.96 135.64
-5 -20 -7 234.1 139.38
-20 -5 -7 51.32 116.38
-5 20 7 26.09 134.6
5 20 7 -19.43 169.64
-5 20 -7 3.14 100.43
5 20 -7 -133.24 122.94
-5 -20 -8 68.78 109.25
5 20 8 4.18 135.58
-6 -20 0 43.86 181.48
-20 -6 0 276.85 191.46
6 20 0 -91.35 164.9
-6 -20 1 548.8 210.99
-6 -20 -1 80.77 173.36
-20 -6 1 530.22 201.36
-20 -6 -1 319.92 182.43
-6 20 -1 44.15 229.2
-6 20 1 583.63 240.24
-20 6 -1 -108.93 244.5
6 20 -1 70.62 159.72
6 20 1 234.68 187.2
-6 -20 2 260.45 188.91
-6 -20 -2 -77.18 187.37
-20 -6 2 299.24 171.35
-20 -6 -2 116.03 166.82
-6 20 -2 -186.82 227.05
-6 20 2 315.26 225.6
6 20 2 239.57 197.64
-20 6 -2 487.64 250.02
6 20 -2 487.45 197.04
6 20 2 -123.33 181.59
-6 -20 3 -60.57 160.06
-20 -6 3 -57.8 154.8
-6 -20 -3 -84.83 168.04
-20 -6 -3 64.77 160.12
-6 20 -3 143.64 207.92
-6 20 3 102.5 208.97
6 20 3 -80 187.05
-20 6 -3 37.66 231.35
6 20 -3 116.73 165.6
6 20 3 49.05 171.81
-20 -6 4 -273.57 179.02
-6 -20 -4 197.31 172.38
-6 20 -4 426.66 217.25
-20 -6 -4 -125.19 151.6
-6 20 4 -181.33 197.54
6 20 4 100.07 179.39
-20 6 -4 -63.75 213.79
6 20 -4 176.09 159.16
-6 -20 4 -65.41 158.13
-6 -20 -5 371.53 168.67
-6 20 -5 363.44 196.83
-20 -6 -5 78.14 141.46
-6 20 5 109.63 174.58
-20 6 -5 79.75 181.6
6 20 5 -179.48 192.78
6 20 -5 168.98 145.86
-20 -6 5 -206.21 143.85
-6 -20 -6 263.92 146.63
-6 20 -6 295.99 158.43
-20 -6 -6 -39.34 130.08
-6 20 6 -187.81 167.38
-20 6 -6 -135.38 176.07
6 20 6 -0.72 178.94
6 20 -6 -28.2 124.94
-6 -20 -7 140.07 126.39
-20 -6 -7 -33.5 112.05
6 20 7 -121.82 156.63
6 20 -7 -34.26 105.97
-7 -20 0 77.69 186.61
-20 -7 0 103.78 168.03
-7 20 0 -491.66 248.71
7 20 0 37.56 154.56
-7 -20 1 274.02 186.69
-7 -20 -1 69.13 176.18
-20 -7 1 235.94 171.6
-20 -7 -1 444.81 199.75
-7 20 -1 -37.59 215.29
-7 20 1 -51.2 252
7 20 -1 488.17 188.26
7 20 1 428.8 187.68
-7 -20 2 994.5 231.09
-7 -20 -2 745.37 215.3
-20 -7 2 1079.16 213.41
-7 20 -2 801.94 243.19
-7 20 2 1029.75 267.41
-20 7 -2 925.07 268.7
7 20 -2 1133.81 220.48
7 20 2 1009.17 221.88
-20 -7 -2 1423.22 283.35
-7 -20 3 544.83 207.94
-20 -7 3 530.64 172.92
-7 -20 -3 689.3 196.68
-20 -7 -3 505.82 193.29
-7 20 -3 824 234.4
-7 20 3 596.3 226
7 20 3 601.8 185.5
-20 7 -3 716.73 251.6
7 20 -3 1060.85 200.39
7 20 3 453.42 180.12
-20 -7 4 101.43 136.53
-7 -20 -4 229.98 158.75
-7 20 -4 724.44 228.16
-20 -7 -4 272.58 157.61
-7 20 4 237.49 184.14
7 20 4 73.55 163.67
-20 7 -4 125.4 215.46
7 20 -4 589.21 173.68
7 20 4 156.28 149.62
-7 -20 4 354.54 169.29
-7 -20 -5 293.88 152.37
-7 20 -5 575.76 203.55
-20 -7 -5 292.57 145.69
-7 20 5 243.24 167.1
7 20 5 376.9 175.31
-20 7 -5 252.55 186.25
7 20 -5 450.93 156.87
-7 -20 5 161.03 141.06
-20 -7 5 169.78 135.69
-7 -20 -6 8.58 120.02
-20 -7 -6 -36.98 118.36
-7 20 6 -352.8 158.98
-20 7 -6 -336.93 162.19
7 20 6 -211.01 166.71
7 20 -6 -189.63 124
-7 -20 -7 73.25 116.71
-20 -7 -7 75.15 108.79
7 20 7 -148.65 138.81
7 20 7 -150.39 124.96
-8 -20 0 229.47 174.98
-20 -8 0 188.44 161.56
-8 20 0 160.41 207.74
8 20 0 395.83 179.29
-8 -20 1 196.72 181.07
-8 -20 -1 239.88 188.17
-20 -8 1 27.58 151.04
-20 -8 -1 97.08 152.18
-8 20 -1 -94.3 212.6
-8 20 1 -375.37 242.05
-20 8 -1 -228.58 227.37
8 20 -1 -6.63 149.97
8 20 1 64.76 153.16
-8 -20 2 208.27 174
-8 -20 -2 99.24 165.51
-20 -8 2 -92.28 144.72
-20 -8 -2 341.5 173.99
-8 20 -2 244.58 207.39
-8 20 2 -474.39 245.04
-20 8 -2 53.42 214.91
8 20 -2 -7.57 143.39
8 20 2 145.49 153.62
-20 -8 3 75.6 145.06
-8 -20 -3 237.53 159.62
-20 -8 -3 265.81 152.47
-8 20 -3 252.24 193.98
-8 20 3 -334.19 227.47
-20 8 -3 11.93 201.63
8 20 -3 385.79 159.45
8 20 3 127.4 157.34
-8 -20 3 366.28 184.44
-20 -8 4 -101.14 134.82
-8 -20 -4 111.45 139.96
-8 20 -4 355.74 187.9
-20 -8 -4 -90.97 141.41
-8 20 4 -202.16 203.98
8 20 4 -17.04 136.36
-20 8 -4 -200.42 205.28
8 20 -4 -70.8 127.53
8 20 4 -295.93 163.26
-8 -20 4 196.34 149.24
-8 -20 -5 106.52 134.38
-8 20 -5 274.49 167.37
-20 -8 -5 -68.69 123.71
-8 20 5 -177.15 158.59
8 20 5 -87.92 149.63
-20 8 -5 -83.25 165.74
8 20 -5 -84.54 118.43
8 20 5 -56.26 140.67
-8 -20 5 -103.86 129.53
-20 -8 5 -120.5 134.24
-8 -20 -6 76.45 112.2
-20 -8 -6 -5.42 112.5
8 20 6 -110.38 126.8
-20 8 -6 -280.81 151.65
8 20 6 -183.67 135.58
-20 -8 -7 -57.27 96.05
-9 -20 0 -131.55 163.26
-20 -9 0 32.05 140.3
-9 20 0 -180.28 201.35
9 20 0 60.92 142.66
-9 -20 1 16.05 154.6
-9 -20 -1 111.77 154.26
-20 -9 1 32.08 141.73
-20 -9 -1 90.24 153.86
-9 20 -1 -63.82 195.14
-9 20 1 -139.03 203.25
9 20 -1 82.22 139.37
9 20 1 -120.4 141.73
-9 -20 2 145.01 164.15
-9 -20 -2 53.14 143.9
-20 -9 2 135.98 144.38
-20 -9 -2 287.55 160.01
-9 20 -2 -70.58 189.19
-9 20 2 -196.59 214.33
-20 9 -2 37.33 191.06
9 20 -2 328.62 149.57
9 20 2 334.49 156.78
-20 -9 3 286.75 148.04
-9 -20 -3 423.53 163.78
-20 -9 -3 688.65 172.41
-9 20 -3 644 220.29
-9 20 3 -35.32 173.64
-20 9 -3 548.75 214.51
9 20 -3 534.37 154.75
9 20 3 406.24 158.53
-9 -20 3 341.03 155.66
-20 -9 4 516.07 144.19
-9 -20 -4 451.37 161.34
-9 20 -4 806.28 201.24
-20 -9 -4 406.13 146.94
-9 20 4 238.43 159.41
-20 9 -4 797.15 211.49
9 20 -4 754.07 148.88
9 20 4 426.43 149.61
-9 -20 4 269.01 152.35
-9 -20 -5 27.65 121.99
-9 20 -5 398.21 160.85
-20 -9 -5 99.48 113.1
-20 9 -5 -32.03 162.1
9 20 5 -24.22 119.63
-20 -9 5 -141.81 120.52
-9 -20 5 218.4 129.65
-9 -20 -6 34.41 100.32
-20 -9 -6 -104.86 104.14
9 20 6 -270.9 116.42
-10 -20 0 76.36 145.85
-20 -10 0 36.72 126.07
-10 20 0 106.15 186.07
10 20 0 -12.16 128.8
-10 -20 1 103.81 144.17
-10 -20 -1 -59.4 134.27
-20 -10 1 -15.82 126.4
-20 -10 -1 12.7 122.26
-10 20 -1 199.96 189.7
-10 20 1 -39.84 179.78
10 20 -1 24.27 122.85
10 20 1 -58.98 126.11
-10 -20 2 1.49 145.39
-10 -20 -2 44.56 129.17
-20 -10 2 -218.06 141.93
-20 -10 -2 84.61 132.5
-10 20 2 -177.93 177.5
-20 10 -2 -245.36 185.55
10 20 -2 222.89 135.43
10 20 2 -60.51 133.36
-20 -10 3 -294.68 138.2
-10 -20 -3 78.53 125.99
-20 -10 -3 251.77 134.74
-10 20 -3 54.26 157.42
-10 20 3 60.68 154.31
-20 10 -3 -206.98 189.5
10 20 -3 40.84 111.14
10 20 3 -138.36 134.13
-10 -20 3 -25.19 140.78
-10 -20 -4 -57.75 118.43
-20 -10 -4 408.27 137.1
-10 20 -4 195.85 155.82
-20 10 -4 9.74 158.36
10 20 4 37.83 113.98
-10 -20 4 61.49 122.22
-20 -10 4 -118.4 117.25
-10 -20 -5 87.16 105.63
-20 -10 -5 237.13 114.3
-20 10 -5 -39.05 148.85
10 20 5 -46.36 101.26
-11 -20 0 158.65 132.83
-20 -11 0 43.15 118.1
-11 20 0 189.04 167.51
11 20 0 67.69 113.33
-11 -20 1 47.05 124.28
-11 -20 -1 38.18 128.24
-20 -11 1 -105.8 116.79
-20 -11 -1 74.1 116.03
-11 20 -1 408.71 185.37
-11 20 1 204.44 166.96
11 20 -1 143.38 111.24
11 20 1 -24.24 108.37
-20 -11 2 -54.46 113.84
-11 -20 -2 79.85 120.31
-20 -11 -2 352.75 132.09
-11 20 -2 465.59 186.66
-11 20 2 264.63 150.3
11 20 2 70.52 109.6
-11 -20 2 266.41 133.41
-20 -11 3 25.4 98.85
-11 -20 -3 140.35 122.7
-20 -11 -3 317.88 127.85
-11 20 -3 204.01 160.43
-20 11 -3 14.59 159.86
11 20 3 38.48 100.57
-11 -20 3 166.32 132.63
-11 -20 -4 68.83 105.9
-20 -11 -4 266.93 112.83
-11 20 -4 374.71 147.65
-20 11 -4 -262.89 154.49
-20 -11 4 -190.24 104.37
-12 -20 0 3.34 107.98
-20 -12 0 -88.62 104.35
-12 20 0 225.26 139.04
-12 -20 -1 76.44 109.84
-20 -12 1 16.89 95.13
-20 -12 -1 70.25 100.45
-12 20 -1 125.53 138.52
-12 -20 1 3.3 106.43
-20 -12 2 31.37 88.68
-12 -20 -2 46.95 104.26
-20 -12 -2 18.63 93.78
-12 -20 2 15.11 103.92
0 21 0 162.81 211.69
0 21 0 45.99 165.82
0 21 -1 1786.25 272
0 21 1 1769.52 304.78
0 21 -1 1861.22 273.74
0 21 1 1482.32 243.68
0 21 -2 798.44 222.19
0 21 2 1683.26 292.26
0 21 -2 1554.86 260.96
0 21 2 1315.74 233.41
0 21 3 1633.15 290.62
0 21 -3 1705.79 257.4
0 21 3 1589.14 224.8
0 21 4 1065.99 249.09
0 21 -4 1154.51 224.5
0 21 4 881.87 180.01
0 21 5 208.09 195.16
0 21 -5 351.92 170.91
0 21 5 309.38 132.27
0 21 6 122.7 166.15
0 21 -6 -47.9 135.17
0 21 7 193.69 145.58
0 21 -7 10.91 112.65
-21 -1 0 252.13 143.39
-1 21 0 511.14 239.8
1 21 0 356.98 221.47
-1 21 0 437.56 179.05
1 21 0 270.05 177.96
-21 -1 1 -63.27 143.97
-21 -1 -1 538.07 169.25
-1 21 -1 330.75 223.84
1 21 -1 146.34 195.48
-1 21 1 41.99 209.73
1 21 1 -44.83 209.61
-1 21 -1 105.9 164.27
1 21 -1 111.56 185.16
-1 21 1 -33.07 162.48
1 21 1 -4.25 169.14
-21 -1 2 -208.96 155.97
-21 -1 -2 189.31 146.09
-1 21 -2 -504.02 218.29
1 21 -2 -240.09 190.71
-1 21 2 95.19 217.33
1 21 2 64.42 218.05
-1 21 -2 203.87 186.64
1 21 -2 307.12 197.14
-1 21 2 82.38 158.52
1 21 2 442.06 190.27
-21 -1 3 84.65 124.13
-21 -1 -3 180.87 137.87
-1 21 -3 56.15 166.59
-1 21 3 271.69 220.99
1 21 3 -109.78 206.38
-1 21 -3 -20.1 162.77
1 21 -3 238.3 183.15
-1 21 3 221.07 151.1
1 21 3 -34.97 152.24
-1 21 4 194.68 205.44
1 21 4 -115.32 205.13
-1 21 -4 59.47 155.43
1 21 -4 125.71 164.13
-1 21 4 177.78 134.05
1 21 4 23.28 139.32
-21 -1 4 -136.32 139.54
-1 21 5 22.12 174.8
1 21 5 38.72 188.85
-1 21 -5 -99.9 150.36
1 21 -5 276.31 161.7
1 21 5 227.04 137.5
-1 21 6 446.59 184.37
1 21 6 227.37 181.51
-1 21 -6 229.22 143.89
1 21 -6 242.21 150.31
1 21 6 127.1 109.01
-1 21 7 121.22 147.35
1 21 7 -42.73 140.82
-1 21 -7 165.25 121.32
1 21 -7 135.09 117.74
-21 -2 0 90.68 145.73
-2 21 0 7.53 203.18
2 21 0 47.1 186
-2 21 0 59.89 162.45
2 21 0 110.79 186.3
-21 -2 1 7.63 141.16
-21 -2 -1 276.6 169.07
-2 21 -1 284.36 211.24
2 21 -1 211.33 193.82
-2 21 1 153.02 212.33
2 21 1 319.74 200.38
-2 21 -1 382.34 173.51
-2 21 1 389.39 169.82
2 21 -1 413.74 202.38
2 21 1 257.82 196.83
-21 -2 2 1338.94 210.73
-2 21 -2 1082.8 244.61
-2 21 2 1517.73 278.74
2 21 2 1261.73 263.73
-2 21 -2 1655.34 234.7
2 21 -2 1667.65 262.15
-2 21 2 1446.67 205.48
2 21 2 1329.2 245.44
-21 -2 -2 1735.57 234.57
-21 -2 3 1518.27 206.34
-2 21 -3 1800.27 259.86
-2 21 3 1560.52 271.89
2 21 3 1933.64 292.91
-2 21 -3 1758.49 239.8
2 21 -3 2091.28 273.42
2 21 3 1765.38 249.72
-21 -2 -3 2144.78 257.73
-2 -21 -4 660.33 143.46
-21 -2 -4 1192.82 193.33
-2 21 -4 1486.12 214.68
-2 21 4 1426.56 266.41
2 21 4 1166.58 257.92
2 21 -4 1916 254.94
-2 21 -4 1378.03 221.54
2 21 4 1247.76 212.23
-21 -2 4 831.74 175.76
-2 -21 -5 460.32 137.73
-21 -2 -5 320.63 134.6
-2 21 5 377.15 204.92
2 21 5 576.81 217.72
-2 21 -5 611.04 175.25
2 21 -5 730.92 182.33
2 21 5 650.86 170.12
-2 -21 -6 187.36 116.45
-2 21 6 203.55 158.31
2 21 6 242.78 182.6
-2 21 -6 137.06 132.66
2 21 -6 63.74 134.58
2 21 6 112.21 125.92
-2 21 7 -8.07 129.72
2 21 7 193.35 151.21
-2 21 -7 3.42 107.91
2 21 -7 124.63 118.18
-21 -3 0 621.38 175.75
-3 21 0 754.79 251.58
3 21 0 350.25 195.79
-3 21 0 706.77 176.08
3 21 0 727.9 225.9
-21 -3 1 521.13 167.89
-21 -3 -1 639.59 182.29
-3 21 1 599.13 231.98
3 21 1 613.54 210.07
-3 21 -1 583.51 175.79
3 21 -1 1010.3 229.81
3 21 1 694.29 213.19
-21 -3 2 -17.75 145.56
-3 -21 -2 199.34 133.85
-21 -3 -2 255.59 157.12
-3 21 -2 -326.65 228.16
-3 21 2 -88.1 209.03
3 21 2 -252.01 204.31
-3 21 -2 328.86 163.92
3 21 -2 475.93 207.88
3 21 2 112.3 173.44
-21 -3 3 -85.55 148.39
-3 -21 -3 83.29 129.55
-21 -3 -3 436.99 166.06
-3 21 -3 139.62 190.93
-3 21 3 222.51 206.76
3 21 3 -145.79 198.79
-3 21 -3 109.08 154.02
3 21 -3 245.97 179.74
3 21 3 -2.99 160.93
-3 -21 -4 -96.38 121.24
-21 -3 -4 83.01 135.17
-3 21 -4 548.01 193.96
-3 21 4 92.1 177.13
3 21 4 -63.01 194.81
-3 21 -4 80.96 140.28
3 21 -4 59.56 155.53
3 21 4 172.63 161.28
-21 -3 4 -8.82 119.07
-3 -21 -5 87.66 113.18
-21 -3 -5 328.31 137.59
-3 21 5 429.48 189.33
3 21 5 158.95 182.27
-3 21 -5 -110.86 139.32
3 21 -5 314.08 159.14
3 21 5 -43.22 137.01
-3 -21 -6 381.33 126.98
-21 -3 -6 254.66 122.91
-3 21 6 159.7 153.43
3 21 6 561.98 192.46
-3 21 -6 463.75 141.45
3 21 -6 456.35 148.18
3 21 6 298.46 134.19
-3 21 7 631.87 148.13
3 21 7 479.38 164.75
3 21 -7 564.24 128.14
-4 -21 0 37.4 134.87
-21 -4 0 56.24 148.11
-4 21 0 -130.78 211.7
4 21 0 68 172.79
-4 -21 -1 170.1 146.27
-21 -4 1 233.11 162.47
-21 -4 -1 164.31 155.54
-4 21 -1 45.28 227.04
-4 21 1 266.33 211.99
4 21 1 304.36 185.36
4 21 -1 245.64 188.97
4 21 1 266.82 173.19
-21 -4 2 468.67 166.44
-4 -21 -2 385.22 164.59
-21 -4 -2 736.85 186.14
-4 21 -2 327.4 207.16
-4 21 2 594.67 237.72
4 21 2 717.31 215.46
-4 21 -2 792.71 184.5
4 21 -2 471.73 183.29
4 21 2 542.37 199.25
-21 -4 3 533.24 164.78
-4 -21 -3 653.89 177.72
-21 -4 -3 1295.09 214.14
-4 21 -3 1274.25 238.16
-4 21 3 825.06 230.99
4 21 3 596.93 217.74
-4 21 -3 972.08 179.85
4 21 -3 1145.74 215.77
4 21 3 961.26 211.3
-4 -21 -4 640.95 160.64
-21 -4 -4 722.56 171.29
-4 21 -4 1383.01 224.58
-4 21 4 813.64 218.78
4 21 4 1122.96 240.87
-4 21 -4 850.33 169.6
4 21 -4 997.48 197.78
4 21 4 853.85 198.06
-21 -4 4 591.96 155.18
-4 -21 -5 197.2 132.52
-4 21 -5 95.93 133.51
-21 -4 -5 141.18 127.01
-4 21 5 125.92 163.27
4 21 5 242.86 185.49
-4 21 -5 385.6 138.85
4 21 -5 97.06 135.64
4 21 5 123.97 136.47
-4 -21 -6 64.65 107.47
-21 -4 -6 71.26 108.35
-4 21 6 50.08 142.67
4 21 6 137.84 167.14
-4 21 -6 -13.57 96.82
4 21 -6 -35.41 112.84
4 21 6 96.08 122.41
4 21 7 63.28 131.18
4 21 -7 89.74 95.63
-5 -21 0 877.91 188.42
-21 -5 0 1386.29 223.99
-5 21 0 1186.06 251.53
5 21 0 1601.78 246.79
-5 -21 1 722.29 181.76
-5 -21 -1 1118.32 217.95
-21 -5 1 1183.3 212.38
-21 -5 -1 1151.92 220.27
-5 21 -1 1358.83 262.34
-5 21 1 1604.84 263.1
5 21 -1 1544.36 239.13
5 21 1 1581.43 246.93
-5 -21 -2 358.5 165.41
-21 -5 2 211.3 158.1
-21 -5 -2 420 171.85
-5 21 -2 346.87 205.57
-5 21 2 562.44 224.47
5 21 2 496.45 184.64
5 21 -2 669.88 187.09
5 21 2 633.38 203.41
-21 -5 3 -59.37 141.27
-5 -21 -3 104.69 142.35
-21 -5 -3 194.86 143.1
-5 21 -3 146.18 174.82
-5 21 3 10.37 177.21
5 21 3 -28.99 165.8
5 21 -3 44.12 142.64
5 21 3 -63.64 157.29
-5 -21 -4 169.17 138.1
-21 -5 -4 -164.21 142.35
-5 21 -4 512.17 192.73
-5 21 4 8.94 162.62
5 21 4 4.06 159.7
5 21 -4 123.59 150.27
5 21 4 30.59 148.28
-21 -5 4 -115.18 132.51
-5 -21 -5 227.22 132.53
-5 21 -5 735.37 163.29
-21 -5 -5 245.39 131.48
-5 21 5 129.53 156.08
5 21 5 598.19 181.16
5 21 -5 333.88 137.97
5 21 5 253.3 149.2
-21 -5 5 76.74 108.82
-5 -21 -6 321.91 124.6
-21 -5 -6 328.1 127.03
-5 21 6 287.55 149.34
5 21 6 391.88 164.47
5 21 -6 497.1 131.31
5 21 6 558.63 145.28
-6 -21 0 20.23 158.98
-21 -6 0 92.6 142.89
-6 21 0 -233.32 209.27
6 21 0 292.15 163.87
-6 -21 1 242.14 166.5
-6 -21 -1 -43.28 153.25
-21 -6 1 105.22 153
-21 -6 -1 281.6 159.51
-6 21 -1 -272.49 216.48
-6 21 1 -63.14 199.23
6 21 -1 119.78 149.64
6 21 1 313.26 174.31
-6 -21 2 135.71 135.57
-6 -21 -2 19.32 145.04
-21 -6 2 27.85 132.85
-21 -6 -2 130.26 138.26
-6 21 -2 415.28 204.21
-6 21 2 -91.26 187.05
6 21 -2 329.8 168.29
6 21 2 228.62 158.85
-21 -6 3 99.3 129.4
-6 -21 -3 30.41 140.34
-21 -6 -3 538.77 167.8
-6 21 -3 542.04 193.1
-6 21 3 289.88 178.81
6 21 3 460.94 162.53
6 21 -3 403.29 153.25
6 21 3 388.3 162.92
-6 -21 -4 258.61 140.86
-21 -6 -4 162.77 134.83
-6 21 -4 535.27 190.51
-6 21 4 428.5 178.76
6 21 4 645.59 172.36
6 21 -4 401.99 148.75
6 21 4 284.31 148.3
-21 -6 4 -41.89 126.17
-6 -21 -5 42.76 118.27
-6 21 -5 372.93 151.47
-21 -6 -5 -143.27 130.98
-6 21 5 -119.88 163.98
6 21 5 137.03 149.93
6 21 -5 -79.37 111.75
6 21 5 -81.43 127.18
-21 -6 5 -173.32 118.56
-6 -21 -6 8.33 98.6
-21 -6 -6 -1.77 100.05
6 21 6 -102.78 114.5
-7 -21 0 763.66 189.94
-21 -7 0 678.83 182.86
-7 21 0 713.9 220.54
7 21 0 845.95 187.24
-7 -21 1 554.38 189.13
-7 -21 -1 876.23 193.1
-21 -7 1 719.67 171.95
-21 -7 -1 750.54 179.47
-7 21 -1 783 223.24
-7 21 1 503.57 193.61
7 21 -1 944.84 185.53
7 21 1 862.23 187.21
-7 -21 2 400.67 170.29
-7 -21 -2 226.78 151.75
-21 -7 2 -24.28 127.69
-21 -7 -2 401.91 161.52
-7 21 -2 467.94 191.48
-7 21 2 349.15 186.43
7 21 -2 756 170.11
7 21 2 554.59 168.21
-21 -7 3 35.21 125.37
-7 -21 -3 285.72 152.02
-21 -7 -3 651.69 164.06
-7 21 -3 861.06 220.32
-7 21 3 37.29 167.81
7 21 -3 564.47 151.68
7 21 3 449.31 160.29
-7 -21 3 220.02 133.57
-7 -21 -4 -117.19 119.86
-21 -7 -4 275.96 127.33
-7 21 -4 280.91 167.16
-7 21 4 -157.85 154.69
7 21 -4 42.84 117.13
7 21 4 8.34 124.88
-21 -7 4 -191.2 123.07
-7 -21 -5 63.29 113.53
-7 21 -5 558.69 149.65
-21 -7 -5 249.72 126.24
-7 21 5 207.9 132.8
7 21 -5 171.39 108.87
7 21 5 192.73 124.21
-8 -21 0 141.64 146.43
-21 -8 0 74.67 124.86
-8 21 0 -239.56 190.16
8 21 0 146.61 135.44
-8 -21 1 60.74 142.41
-8 -21 -1 219.95 153.33
-21 -8 1 -35 123.57
-21 -8 -1 221.8 145.42
-8 21 -1 307.55 189.38
-8 21 1 -86.3 181.18
8 21 -1 134.34 133.11
8 21 1 295.73 139.95
-8 -21 -2 114.05 129.19
-21 -8 2 89.17 120.33
-21 -8 -2 391.73 152.62
-8 21 -2 282.5 179.56
-8 21 2 -151.9 175.24
8 21 -2 512.1 154.8
8 21 2 267.35 141.38
-8 -21 2 481.97 154.38
-21 -8 3 -121.01 124.46
-8 -21 -3 16.95 124.29
-21 -8 -3 279.75 134.6
-8 21 3 -187.84 170.95
8 21 -3 231.72 120
8 21 3 86.2 123.51
-8 -21 3 34.16 123.04
-8 -21 -4 159.82 120.52
-21 -8 -4 394.61 138.45
-8 21 -4 189.9 152.39
-8 21 4 -76.46 130.73
8 21 -4 57.37 101.69
8 21 4 -151.79 122.95
-21 -8 4 -76.83 106.59
-8 -21 -5 -111.79 103.1
-21 -8 -5 184.63 110.34
8 21 5 171.29 112.09
-9 -21 0 1506.44 200.18
-21 -9 0 1175.93 180.01
-9 21 0 1567.35 229.71
9 21 0 1651.24 186.36
-9 -21 1 1142.31 185.2
-9 -21 -1 1234.6 189.97
-21 -9 1 944.67 169.35
-21 -9 -1 997.8 175.44
-9 21 -1 1802.16 236.93
-9 21 1 1413.96 224.46
9 21 -1 1479.19 182.24
9 21 1 1195.18 168.99
-21 -9 2 -61.16 118.48
-9 -21 -2 419.21 140.67
-21 -9 -2 224.64 127.02
-9 21 -2 607.79 189.65
-9 21 2 217.92 153.71
9 21 -2 416.17 129.14
9 21 2 653.56 145.79
-9 -21 2 513.86 151.64
-21 -9 3 -175.88 110.57
-9 -21 -3 -13.03 113
-21 -9 -3 221.03 120.12
-9 21 -3 98.96 136.69
-9 21 3 92.6 126
9 21 3 -99.84 111.15
-9 -21 -4 33.01 109.48
-21 -9 -4 229.85 111.3
-9 21 -4 256.56 137.86
9 21 4 108.98 102.56
-21 -9 4 -146.67 103.9
-10 -21 0 19.03 116.17
-21 -10 0 22.98 104.17
-10 21 0 228.36 154.64
10 21 0 6.34 96.61
-10 -21 -1 79.04 133.35
-21 -10 1 -168.09 109.06
-21 -10 -1 19.93 100.28
-10 21 -1 306.26 155.97
-10 21 1 53.65 140.06
10 21 1 111.54 101.08
-10 -21 1 -0.55 119.22
-21 -10 2 -29.21 101.39
-10 -21 -2 49.26 114.4
-21 -10 -2 80.88 99.6
-10 21 -2 350.7 144.83
-21 -10 -3 246.89 108.61
-10 21 -3 244.76 133.42
-21 -10 3 -8.29 89.42
-21 -11 0 28.25 91.65
0 22 0 810.07 206.84
0 22 0 1063.23 201.46
0 22 1 439.1 190.06
0 22 -1 212.61 156.74
0 22 1 299.48 155.38
0 22 2 385.49 189.58
0 22 -2 617.36 173.71
0 22 2 671.79 165.39
0 22 3 108.52 171.43
0 22 -3 142.44 149.75
0 22 3 251.81 134.38
0 22 4 -99.39 165.45
0 22 -4 61.57 129.76
0 22 5 151.28 148.5
0 22 -5 -5.38 122.66
0 22 6 292.65 147.1
0 22 -6 426.35 121.97
-1 22 0 -1.68 190.19
1 22 0 151.47 179.95
-1 22 0 188.99 143.67
1 22 0 78.21 150.16
-1 22 -1 -403.49 203.65
1 22 -1 -310.82 162.42
-1 22 1 1.87 180.7
1 22 1 180.42 187.69
-1 22 -1 181.17 140.78
1 22 -1 180.27 160.95
-1 22 1 191.34 147.21
1 22 1 -12.34 142.95
-1 22 -2 -41.88 165.19
-1 22 2 152.68 189.83
1 22 2 111.83 179.16
-1 22 -2 6.68 135.18
1 22 -2 153.08 156.77
-1 22 2 330.72 135
1 22 2 100.86 138.26
-1 22 3 84.12 176.99
1 22 3 -137.9 177.55
-1 22 -3 2.47 129.41
1 22 -3 -135.56 150.07
1 22 3 193.57 140.99
-1 22 4 -27.23 164.64
1 22 4 -52.07 169.07
-1 22 -4 80.95 129.38
1 22 -4 -15.32 131.67
1 22 4 71.56 111.57
-1 22 5 101.84 149.65
1 22 5 -28.3 152.37
-1 22 -5 -313.57 135.2
1 22 -5 -51.13 121.84
-1 22 6 57.09 120.94
1 22 6 -41.74 129.39
1 22 -6 300.52 117.4
-22 -2 0 129.42 181.98
-2 22 0 33.7 178.72
2 22 0 404.57 163.48
-2 22 0 349.51 145.85
2 22 0 136.75 160.73
-22 -2 1 246 181.72
-22 -2 -1 526.08 178.71
-2 22 -1 283.99 183.02
-2 22 1 754.15 223.82
2 22 1 705.93 194.07
-2 22 -1 595.88 159.18
-2 22 1 592.1 150.81
2 22 -1 602.53 182.71
2 22 1 458.2 174.01
-22 -2 2 226.59 124.81
-22 -2 -2 88.44 119.31
-2 22 -2 -178.44 178.21
-2 22 2 258.69 184.74
2 22 2 375.78 188.24
-2 22 -2 168.68 140.94
2 22 -2 271.48 158.05
2 22 2 314.48 161.76
-2 22 -3 286.16 152.36
-2 22 3 4.21 171.87
2 22 3 26.28 167.57
-2 22 -3 225.45 140.38
2 22 -3 50.39 157.21
2 22 3 166.23 139.69
-22 -2 3 -8.43 107.75
-2 22 4 113.52 172.25
2 22 4 7.86 160.58
-2 22 -4 -5.43 122.72
2 22 -4 40.45 131.06
2 22 4 215.46 132.56
-2 22 5 151.42 143.25
2 22 5 -100.87 155.76
-2 22 -5 142.84 110.23
2 22 -5 14.4 120.15
2 22 -6 268.86 108.98
-3 22 0 618.97 191.75
3 22 0 327.13 172.41
-22 -3 1 12.48 115.69
-22 -3 -1 -31.87 124.05
-3 22 -1 -398.28 208.62
-3 22 1 -32.36 189
3 22 1 35.41 148.13
-3 22 -1 29.81 115.27
3 22 -1 105.21 158.61
3 22 1 -65.94 149.22
-22 -3 2 -72.47 114.1
-22 -3 -2 253.68 128.96
-3 22 -2 -76.67 173.52
-3 22 2 69.62 168.98
3 22 2 -97.04 156.5
-3 22 -2 89.05 119.89
3 22 -2 23.47 144.87
3 22 2 268.8 161.4
-22 -3 -3 410.19 133.7
-3 22 -3 285.99 158.67
-3 22 3 -13.9 164.7
3 22 3 72.26 162.55
-3 22 -3 2.97 111.74
3 22 -3 2.32 131.75
3 22 3 16.26 137.36
-22 -3 3 -36.82 107.86
-22 -3 -4 154.7 105.19
-3 22 4 8.65 146.25
3 22 4 3.15 157.97
-3 22 -4 228.02 119.44
3 22 -4 -97.31 124.68
3 22 4 -100.94 123.6
-3 22 5 98.81 140.56
3 22 5 -147.53 149.15
3 22 -5 19.92 109.38
-22 -4 0 29.35 122.85
-4 22 0 -10.12 182.69
4 22 0 479.29 168.19
-22 -4 1 118.97 118.91
-22 -4 -1 58.57 122.12
-4 22 -1 -137.26 186.87
-4 22 1 -210.87 200.36
4 22 -1 438.19 170.01
4 22 1 -62.08 142.62
-22 -4 2 -170.99 127.48
-22 -4 -2 119.81 127.28
-4 22 -2 -69.15 167.08
-4 22 2 -126.63 178.32
4 22 2 -70.59 131.38
4 22 -2 184.02 142.28
4 22 2 163.5 146.61
-22 -4 -3 236.84 126.54
-4 22 -3 366.91 168.9
-4 22 3 188.37 165.17
4 22 3 234.98 151.79
4 22 -3 261 138.5
4 22 3 78.67 132.73
-22 -4 3 -29.12 109.6
-22 -4 -4 284.92 115.08
-4 22 4 -102.81 156.21
4 22 4 -129.94 141.13
4 22 -4 -4.72 114.72
4 22 4 -0.37 131.79
-4 22 5 -67.31 122.83
4 22 -5 -143.64 113.63
-22 -5 0 79.89 122.47
-5 22 0 -308.11 181.61
5 22 0 -13.16 133.92
-22 -5 1 -75.33 116.52
-22 -5 -1 -12.77 114.32
-5 22 -1 -226.68 179.97
-5 22 1 -217.58 192.86
5 22 -1 384 156.12
5 22 1 87.84 137.31
-22 -5 2 -174.05 132.23
-5 -22 -2 101.94 110.41
-22 -5 -2 211.21 132.89
-5 22 -2 133.41 158.42
-5 22 2 -332.49 194.15
5 22 -2 188.78 133.97
5 22 2 -116.14 139.73
-5 -22 -3 108.78 109.62
-22 -5 -3 180.28 123.65
-5 22 -3 345.7 165.5
-5 22 3 -42.66 153.55
5 22 -3 143.03 124.73
5 22 3 5.48 127.69
-22 -5 3 -62.7 113.54
-22 -5 -4 261.51 115.53
-5 22 4 4.21 134.98
5 22 -4 204.04 114.78
5 22 4 101.94 126.25
-22 -6 0 139.09 135.85
-6 22 0 -74.04 157.32
6 22 0 75.31 130.55
-6 -22 -1 189.77 114.53
-22 -6 1 -9.33 111.69
-22 -6 -1 22.86 112.73
-6 22 -1 60.57 158.82
-6 22 1 -92.64 162.85
6 22 -1 108.2 123.67
6 22 1 158.83 136.54
-22 -6 2 -219.22 128.43
-6 -22 -2 -94.05 109.37
-22 -6 -2 129.2 128.47
-6 22 -2 217.34 160.43
-6 22 2 -132.08 169.51
6 22 -2 260.24 129.42
6 22 2 139.01 128.29
-22 -6 -3 174.67 117.41
-6 22 -3 237.14 152.31
-6 22 3 -254.42 156.77
6 22 -3 142.98 115.77
6 22 3 43.51 117.81
-22 -6 3 -70.38 107.15
-22 -6 -4 194.16 104.34
-6 22 4 -15.5 119.38
6 22 -4 78.81 102.19
6 22 4 93.1 108
-22 -7 0 -82.14 109.46
-7 22 0 143.32 151.42
7 22 0 -25.99 115.29
-7 -22 -1 152.19 119.29
-22 -7 1 -6.28 110.62
-22 -7 -1 238.03 119.21
-7 22 -1 288.26 166.35
-7 22 1 101.57 142.76
7 22 -1 313.91 128.3
7 22 1 179.17 121.63
-22 -7 2 78.51 100.71
-22 -7 -2 208.73 121.46
-7 22 -2 501.9 169.46
-7 22 2 185.04 151.93
7 22 -2 343.72 127.27
7 22 2 376.02 136.58
-22 -7 -3 251.45 108.47
-7 22 -3 56.04 135.92
-7 22 3 45.69 125.07
7 22 -3 284.44 111.57
7 22 3 15.4 108.32
-22 -7 3 -18.62 98.26
-22 -8 0 426.48 120.61
-8 22 0 783.72 170.07
8 22 0 894.21 144.49
-22 -8 1 -56.42 97.55
-22 -8 -1 187.97 109.37
-8 22 -1 492.61 154.36
-8 22 1 176.52 136.35
8 22 -1 367.76 118.34
8 22 1 427.72 126.02
-22 -8 2 -54.68 89.22
-22 -8 -2 -125.77 96.71
-8 22 -2 251.78 135.71
8 22 2 132.49 103.4
0 23 0 -166.25 141.96
0 23 0 148.71 115.26
0 23 1 18.43 147.26
0 23 -1 120.19 113.69
0 23 2 1364.48 196.44
0 23 -2 1209.8 167.96
0 23 3 400.53 160.45
0 23 -3 488.63 126.49
-1 23 0 -233.1 160.47
1 23 0 230.38 133.02
1 23 1 202.94 136.34
1 23 -1 23.82 122.45
1 23 1 371.97 131.15
-1 23 2 -182.73 153.03
1 23 2 101.88 138.6
1 23 -2 281.73 131.74
-1 23 3 11.16 141.17
1 23 3 -134.1 134.59
1 23 -3 34.52 106.61
-2 23 0 -149.76 155.83
2 23 0 254.6 135.6
-2 23 -1 464.11 154.97
-2 23 1 196.14 149.22
2 23 -1 552.39 151.6
2 23 1 561.46 144.26
2 23 -2 641.11 149.02
2 23 2 523.56 131.72
-2 23 3 428.3 159.73
2 23 -3 640.85 139.75
-3 23 0 1109.15 198.76
3 23 0 1050.54 170.08
-3 23 -1 595.1 160.38
-3 23 1 438.98 164.5
3 23 -1 469.05 145.52
3 23 1 349.68 133.4
-3 23 2 -241.14 161.01
3 23 -2 32.1 115.21
3 23 2 55.8 113.15
-3 23 3 3.25 130.26
3 23 -3 264.68 114.24
-4 23 0 -23.26 140.87
4 23 0 158.14 127.09
-4 23 -1 97.37 142.22
-4 23 1 30.24 138.22
4 23 -1 180.09 116.79
4 23 1 196.67 121.68
-4 23 2 -82.82 133.11
4 23 -2 283.96 120.14
4 23 2 270.16 121.67
-5 23 0 970.61 176.44
5 23 0 1337.5 163.89
-5 23 1 660.23 157.85
5 23 -1 904.96 143.88
5 23 1 994.81 147.17
