#------------------------------------------------------------------------------
#$Date: 2019-10-28 05:07:19 +0200 (Mon, 28 Oct 2019) $
#$Revision: 219658 $
#$URL: file:///home/coder/svn-repositories/cod/cif/4/51/44/4514469.cif $
#------------------------------------------------------------------------------
#
# This file is available in the Crystallography Open Database (COD),
# http://www.crystallography.net/
#
# All data on this site have been placed in the public domain by the
# contributors.
#
data_4514469
loop_
_publ_author_name
'Mi, Xiuna'
'Sheng, Dafei'
'Yu, Yu'e'
'Wang, Yuhao'
'Zhao, Limin'
'Lu, Jing'
'Li, Yunwu'
'Li, Dacheng'
'Dou, Jianmin'
'Duan, Jingui'
'Wang, Suna'
_publ_section_title
;
 Tunable Light Emission and Multiresponsive Luminescent Sensitivities in
 Aqueous Solutions of Two Series of Lanthanide Metal-Organic Frameworks
 Based on Structurally Related Ligands.
;
_journal_issue                   8
_journal_name_full               'ACS applied materials &amp; interfaces'
_journal_page_first              7914
_journal_page_last               7926
_journal_paper_doi               10.1021/acsami.8b18320
_journal_volume                  11
_journal_year                    2019
_chemical_formula_sum            'C21 H23 N2 O10 Tb'
_chemical_formula_weight         622.33
_space_group_crystal_system      triclinic
_space_group_IT_number           2
_space_group_name_Hall           '-P 1'
_space_group_name_H-M_alt        'P -1'
_symmetry_space_group_name_Hall  '-P 1'
_symmetry_space_group_name_H-M   'P -1'
_atom_sites_solution_hydrogens   mixed
_audit_creation_method           SHELXL-2014/7
_cell_angle_alpha                89.746(2)
_cell_angle_beta                 88.922(2)
_cell_angle_gamma                68.2630(10)
_cell_formula_units_Z            2
_cell_length_a                   9.5049(8)
_cell_length_b                   10.4264(9)
_cell_length_c                   14.3841(12)
_cell_measurement_reflns_used    3897
_cell_measurement_temperature    298(2)
_cell_measurement_theta_max      27.763
_cell_measurement_theta_min      2.3035
_cell_volume                     1323.89(19)
_computing_cell_refinement       'Bruker SMART'
_computing_data_collection       'Bruker SMART'
_computing_data_reduction        'Bruker SHELXTL'
_computing_molecular_graphics    'Bruker SHELXTL'
_computing_publication_material  'Bruker SHELXTL'
_computing_structure_refinement  'SHELXL-2014/7 (Sheldrick, 2014)'
_computing_structure_solution    'Bruker SHELXTL'
_diffrn_ambient_temperature      298(2)
_diffrn_measured_fraction_theta_full 0.975
_diffrn_measured_fraction_theta_max 0.975
_diffrn_measurement_device_type  'CCD area detector'
_diffrn_measurement_method       'phi and omega scans'
_diffrn_radiation_type           MoK\a
_diffrn_radiation_wavelength     0.71073
_diffrn_reflns_av_R_equivalents  0.1346
_diffrn_reflns_av_unetI/netI     0.0988
_diffrn_reflns_Laue_measured_fraction_full 0.975
_diffrn_reflns_Laue_measured_fraction_max 0.975
_diffrn_reflns_limit_h_max       11
_diffrn_reflns_limit_h_min       -11
_diffrn_reflns_limit_k_max       9
_diffrn_reflns_limit_k_min       -12
_diffrn_reflns_limit_l_max       17
_diffrn_reflns_limit_l_min       -15
_diffrn_reflns_number            6578
_diffrn_reflns_point_group_measured_fraction_full 0.975
_diffrn_reflns_point_group_measured_fraction_max 0.975
_diffrn_reflns_theta_full        25.020
_diffrn_reflns_theta_max         25.020
_diffrn_reflns_theta_min         2.307
_exptl_absorpt_coefficient_mu    2.722
_exptl_absorpt_correction_T_max  1.0
_exptl_absorpt_correction_T_min  0.95
_exptl_absorpt_correction_type   multi-scan
_exptl_absorpt_process_details   sadabs
_exptl_crystal_colour            colorless
_exptl_crystal_density_diffrn    1.561
_exptl_crystal_description       cluster
_exptl_crystal_F_000             616
_exptl_crystal_size_max          0.240
_exptl_crystal_size_mid          0.120
_exptl_crystal_size_min          0.050
_refine_diff_density_max         4.688
_refine_diff_density_min         -4.861
_refine_diff_density_rms         0.386
_refine_ls_extinction_method     none
_refine_ls_goodness_of_fit_ref   1.226
_refine_ls_hydrogen_treatment    constr
_refine_ls_matrix_type           full
_refine_ls_number_parameters     311
_refine_ls_number_reflns         4570
_refine_ls_number_restraints     100
_refine_ls_restrained_S_all      1.215
_refine_ls_R_factor_all          0.1159
_refine_ls_R_factor_gt           0.1071
_refine_ls_shift/su_max          0.006
_refine_ls_shift/su_mean         0.000
_refine_ls_structure_factor_coef Fsqd
_refine_ls_weighting_details
'w=1/[\s^2^(Fo^2^)+(0.2000P)^2^] where P=(Fo^2^+2Fc^2^)/3'
_refine_ls_weighting_scheme      calc
_refine_ls_wR_factor_gt          0.2821
_refine_ls_wR_factor_ref         0.2917
_reflns_Friedel_coverage         0.000
_reflns_number_gt                3927
_reflns_number_total             4570
_reflns_threshold_expression     'I > 2\s(I)'
_cod_data_source_file            am8b18320_si_003.cif
_cod_data_source_block           151022a
_cod_database_code               4514469
_shelx_shelxl_version_number     2014/7
_shelx_space_group_comment
;
The symmetry employed for this shelxl refinement is uniquely defined
by the following loop, which should always be used as a source of
symmetry information in preference to the above space-group names.
They are only intended as comments.
;
_shelx_estimated_absorpt_t_min   0.561
_shelx_estimated_absorpt_t_max   0.876
_shelx_res_file
;

    151022a.res created by SHELXL-2014/7

TITL 151022a in P-1
CELL 0.71073   9.5049  10.4264  14.3841  89.746  88.922  68.263
ZERR    2.00   0.0008   0.0009   0.0012   0.002   0.002   0.001
LATT 1
SFAC C  H  N  O  Tb
UNIT 42 46 4 20 2
OMIT  -1.00  50.04
L.S. 8
ACTA
BOND
FMAP 2
PLAN 30
conf
size 0.24 0.12 0.05
isor 0.01 o10 n2 c19 c20 c21
simu 0.01 0.02 3.8 o10  n2 c19 c20 c21
dfix 1.33 0.01 n2 c19
dfix 1.24 0.01 o10 c19
dfix 1.47 0.01 n2 c20 n2 c21
dfix 2.45 0.02 c19 c20 c19 c21
dfix 2.49 0.02 c20 c21
dfix 2.13 0.02 o10 n2
DFIX 1.55 0.01 C1 C2 C13 C14
FREE Tb1  C14
TEMP 25
WGHT    0.200000
FVAR       0.12241
TB1   5    0.347607    0.397598    0.014344    11.00000    0.01832    0.01405 =
         0.05258   -0.00329   -0.00315   -0.00785
O1    4    0.327049    0.558462    0.141855    11.00000    0.04076    0.03374 =
         0.05962   -0.00714   -0.00126   -0.02656
O2    4    0.528808    0.638018    0.142106    11.00000    0.03424    0.04494 =
         0.04516   -0.00340    0.00203   -0.02031
O3    4    0.203418    0.914159    0.192185    11.00000    0.03160    0.03032 =
         0.07229    0.01203   -0.01400   -0.01463
O4    4   -0.166122    1.380433    0.053221    11.00000    0.02841    0.02420 =
         0.07785   -0.00045   -0.01043   -0.00950
O5    4   -0.391079    1.351939    0.041358    11.00000    0.01435    0.03300 =
         0.06581   -0.00348   -0.00497   -0.01052
O6    4   -0.362548    0.843244    0.023421    11.00000    0.04556    0.01835 =
         0.07435    0.00346   -0.01885   -0.01442
O7    4   -0.168734    0.670808    0.094867    11.00000    0.03008    0.01614 =
         0.07111    0.00242   -0.00834   -0.00787
O8    4    0.101647    0.432973    0.099863    11.00000    0.02903    0.02515 =
         0.06127    0.00006   -0.00363   -0.01125
AFIX   3
H8A   2    0.067627    0.518252    0.113963    11.00000   -1.20000
H8B   2    0.034867    0.425132    0.064273    11.00000   -1.20000
AFIX   0
O9    4    0.408699    0.258054    0.159089    11.00000    0.04202    0.03115 =
         0.06177    0.00756   -0.00027   -0.00556
O10   4    0.829479    0.325288    0.328911    11.00000    0.16716    0.15681 =
         0.15253   -0.00022   -0.00190   -0.07550
N1    3    0.514778    0.074558    0.266506    11.00000    0.04912    0.04500 =
         0.06089    0.01211   -0.01441   -0.01175
N2    3    0.969243    0.444529    0.342895    11.00000    0.13814    0.14143 =
         0.13638   -0.00031   -0.00411   -0.06491
C1    1    0.405259    0.626725    0.176172    11.00000    0.03920    0.01685 =
         0.04174    0.00175   -0.00582   -0.00895
C2    1    0.343549    0.697482    0.271701    11.00000    0.03254    0.02667 =
         0.04322   -0.01057   -0.00130   -0.01372
C3    1    0.384438    0.621021    0.359997    11.00000    0.04589    0.04443 =
         0.06221    0.01836   -0.01613   -0.00592
AFIX  43
H3    2    0.456937    0.531832    0.359071    11.00000   -1.20000
AFIX   0
C4    1    0.315777    0.680114    0.447027    11.00000    0.06635    0.07604 =
         0.04964   -0.00394   -0.00634   -0.02325
AFIX  43
H4    2    0.343413    0.630072    0.501814    11.00000   -1.20000
AFIX   0
C5    1    0.202460    0.819198    0.448504    11.00000    0.05478    0.11696 =
         0.04459   -0.02387    0.00642   -0.00511
AFIX  43
H5    2    0.155005    0.856835    0.504529    11.00000   -1.20000
AFIX   0
C6    1    0.162668    0.898892    0.366068    11.00000    0.03141    0.05604 =
         0.08157   -0.02159    0.00492   -0.00806
AFIX  43
H6    2    0.094390    0.989809    0.368686    11.00000   -1.20000
AFIX   0
C7    1    0.231530    0.835382    0.274824    11.00000    0.03008    0.02845 =
         0.05126   -0.01118   -0.01179   -0.00978
C8    1    0.050839    0.960585    0.155544    11.00000    0.01858    0.01074 =
         0.04742    0.00307    0.00302   -0.00270
C9    1   -0.019464    1.104256    0.127602    11.00000    0.02084    0.03069 =
         0.05166   -0.00696   -0.00284   -0.01404
AFIX  43
H9    2    0.029658    1.165612    0.135736    11.00000   -1.20000
AFIX   0
C10   1   -0.166472    1.148709    0.087199    11.00000    0.01627    0.01427 =
         0.05747   -0.01351    0.00310   -0.00248
C11   1   -0.245034    1.302998    0.061481    11.00000    0.03087    0.01366 =
         0.04243   -0.00194   -0.00283   -0.01109
C12   1   -0.236985    1.049591    0.068502    11.00000    0.02969    0.02755 =
         0.06283   -0.00945    0.00416   -0.01628
AFIX  43
H12   2   -0.329274    1.078636    0.038411    11.00000   -1.20000
AFIX   0
C13   1   -0.168285    0.910706    0.095053    11.00000    0.03530    0.02711 =
         0.03887   -0.00955    0.00106   -0.01300
C14   1   -0.238295    0.802416    0.069419    11.00000    0.02441    0.01821 =
         0.05053   -0.00896   -0.00367   -0.01264
C15   1   -0.020607    0.861932    0.143182    11.00000    0.01119    0.03301 =
         0.06280    0.00023   -0.01030   -0.00952
AFIX  43
H15   2    0.023665    0.771651    0.164369    11.00000   -1.20000
AFIX   0
C16   1    0.442957    0.132481    0.186005    11.00000    0.02981    0.04189 =
         0.05329   -0.00145    0.00987   -0.01841
AFIX  43
H16   2    0.416311    0.074754    0.146851    11.00000   -1.20000
AFIX   0
C17   1    0.558217   -0.074558    0.285889    11.00000    0.08590    0.06139 =
         0.06458    0.01493   -0.02028   -0.03320
AFIX 137
H17A  2    0.482663   -0.105776    0.262151    11.00000   -1.50000
H17B  2    0.566001   -0.089631    0.351796    11.00000   -1.50000
H17C  2    0.654165   -0.124989    0.256293    11.00000   -1.50000
AFIX   0
C18   1    0.575339    0.160138    0.325177    11.00000    0.13819    0.08810 =
         0.11354    0.01580   -0.06320   -0.06296
AFIX 137
H18A  2    0.558549    0.246664    0.294893    11.00000   -1.50000
H18B  2    0.681989    0.111848    0.333545    11.00000   -1.50000
H18C  2    0.524279    0.176731    0.384684    11.00000   -1.50000
AFIX   0
C19   1    0.838077    0.440110    0.314399    11.00000    0.14709    0.14673 =
         0.14403    0.00087   -0.00061   -0.06587
AFIX  43
H19   2    0.762224    0.513960    0.286993    11.00000   -1.20000
AFIX   0
C20   1    1.009018    0.566777    0.329361    11.00000    0.15419    0.15271 =
         0.14584    0.00022   -0.00140   -0.06904
AFIX 137
H20A  2    1.069580    0.555715    0.273629    11.00000   -1.50000
H20B  2    1.065316    0.577208    0.381594    11.00000   -1.50000
H20C  2    0.918156    0.647307    0.324015    11.00000   -1.50000
AFIX   0
C21   1    1.092294    0.317324    0.371683    11.00000    0.16208    0.16048 =
         0.15281    0.00362   -0.00080   -0.05690
AFIX 137
H21A  2    1.078467    0.238932    0.344581    11.00000   -1.50000
H21B  2    1.090925    0.310030    0.438221    11.00000   -1.50000
H21C  2    1.187813    0.319973    0.351038    11.00000   -1.50000
AFIX   0
HKLF 4

REM  151022a in P-1
REM R1 =  0.1071 for    3927 Fo > 4sig(Fo)  and  0.1159 for all    4570 data
REM    311 parameters refined using    100 restraints

END

WGHT      0.2000      0.0000

REM Highest difference peak  4.688,  deepest hole -4.861,  1-sigma level  0.386
Q1    1   0.3485  0.4036 -0.0528  11.00000  0.05    4.69
Q2    1   0.3402  0.3865  0.0821  11.00000  0.05    2.92
Q3    1   0.2637  0.3973  0.0702  11.00000  0.05    2.39
Q4    1   0.0412  1.1972  0.0435  11.00000  0.05    1.92
Q5    1   0.4401  0.2804 -0.0219  11.00000  0.05    1.73
Q6    1   0.2458  0.5013  0.0152  11.00000  0.05    1.67
Q7    1   0.4572  0.4027  0.0777  11.00000  0.05    1.57
Q8    1  -0.2376  0.6162  0.0436  11.00000  0.05    1.43
Q9    1  -0.1914  1.4247  0.1557  11.00000  0.05    1.40
Q10   1   0.9108  0.2523  0.3434  11.00000  0.05    1.34
Q11   1   0.0988  0.6406  0.1253  11.00000  0.05    1.31
Q12   1   0.1359  0.9628  0.1145  11.00000  0.05    1.29
Q13   1  -0.3266  1.4600  0.0254  11.00000  0.05    1.27
Q14   1  -0.2566  1.0657 -0.0561  11.00000  0.05    1.24
Q15   1   0.3004  0.3431  0.1451  11.00000  0.05    1.24
Q16   1   0.3555  0.3809  0.1538  11.00000  0.05    1.23
Q17   1  -0.4426  1.3322  0.0946  11.00000  0.05    1.19
Q18   1   0.5950 -0.2207  0.3410  11.00000  0.05    1.18
Q19   1   0.7939  0.5559  0.3162  11.00000  0.05    1.15
Q20   1  -0.3661  1.1608 -0.0270  11.00000  0.05    1.14
Q21   1   0.4190  0.6377  0.0916  11.00000  0.05    1.10
Q22   1  -0.0934  1.3784 -0.0254  11.00000  0.05    1.10
Q23   1  -0.1500  1.4042 -0.0163  11.00000  0.05    1.06
Q24   1   0.0080  0.8853  0.2856  11.00000  0.05    1.05
Q25   1  -0.4586  0.9208  0.0448  11.00000  0.05    1.04
Q26   1   1.2742  0.4171  0.4532  11.00000  0.05    1.02
Q27   1   0.0902  0.8762  0.1028  11.00000  0.05    1.02
Q28   1  -0.3154  0.8856  0.0617  11.00000  0.05    1.02
Q29   1  -0.0318  0.8266  0.0286  11.00000  0.05    1.02
Q30   1  -0.1167  1.1010  0.1882  11.00000  0.05    1.01
;
_shelx_res_checksum              60618
_shelx_hkl_file
;
   0   0   2   56.50    1.03
   0   0   3  106.70    1.72
   0   0   4    4.95    0.59
   0   0   5    6.37    0.55
   0   0   7   68.51    1.86
   0   0   8    8.22    0.75
   0   0   9   13.00    1.05
   0   0  10    3.43    0.73
   0   0  11   23.12    1.60
   0   0  12    4.13    0.90
   0   0  13    2.26    0.98
   0   0  14    3.41    0.92
   0   0  15    0.33    0.61
   0   0  16   -0.21    0.55
   0   0  17   -1.49    0.75
   0   0  18   -0.41    0.93
   0   0  19    0.94    1.18
   0  -1  19    3.82    1.11
   0  -1  18    1.10    1.26
   0  -1  17    0.33    1.10
   0  -1  16    1.91    0.89
   0  -1  15    0.63    0.85
   0  -1  14    0.98    0.66
   0  -1  13    1.99    0.87
   0  -1  12    0.56    0.73
   0  -1  11    0.86    0.51
   0  -1  10    1.19    0.51
   0  -1   9    2.80    0.56
   0  -1   8    2.85    0.58
   0  -1   6   12.73    0.85
   0  -1   5   24.79    1.07
   0  -1   4    8.30    0.55
   0  -1   3   45.06    0.91
   0  -1   2  138.16    1.56
   0   1   1   67.77    0.89
   0   1   2  115.29    1.55
   0   1   3  131.48    1.82
   0   1   4   64.50    1.44
   0   1   5   87.39    1.88
   0   1   6  272.90    3.78
   0   1   7   79.02    2.32
   0   1   8   87.92    2.55
   0   1   9   25.37    1.35
   0   1  10   25.12    1.41
   0   1  11   12.24    1.09
   0   1  12    8.91    0.98
   0   1  13   20.29    1.60
   0   1  14    6.21    1.15
   0   1  15    2.85    0.87
   0   1  16    1.22    0.66
   0   1  17    1.76    0.78
   0   1  18    0.32    0.69
   0  -2  18    4.17    1.26
   0  -2  17    2.72    1.15
   0  -2  16    4.68    1.03
   0  -2  15   14.21    1.75
   0  -2  13   15.63    1.64
   0  -2  12   15.85    1.50
   0  -2  11   13.89    1.24
   0  -2  10   13.90    1.20
   0  -2   9    9.08    0.95
   0  -2   8   12.90    0.97
   0  -2   7   23.37    1.12
   0  -2   6   53.03    1.56
   0  -2   5   65.97    1.48
   0  -2   4   32.87    0.91
   0  -2   3    3.61    0.32
   0  -2   2    0.16    0.21
   0  -2   1    3.65    0.25
   0   2   0   10.47    0.32
   0   2   1   35.40    0.71
   0   2   2    2.77    0.37
   0   2   3   43.90    1.09
   0   2   4   47.70    1.25
   0   2   5  151.38    2.53
   0   2   6  165.93    2.94
   0   2   7   97.62    2.39
   0   2   8   88.28    2.46
   0   2   9   56.05    2.30
   0   2  10   24.17    1.49
   0   2  11   31.95    1.71
   0   2  12   29.98    1.78
   0   2  13   18.74    1.54
   0   2  14   16.88    1.49
   0   2  15   11.86    1.48
   0   2  16    5.16    1.17
   0   2  17    2.60    0.87
   0   2  18    2.51    1.05
   0  -3  16   10.65    1.55
   0  -3  15    5.93    1.22
   0  -3  14    9.03    1.31
   0  -3  13   19.07    1.57
   0  -3  12   27.08    1.70
   0  -3  11   27.72    1.63
   0  -3  10   14.25    1.08
   0  -3   9   19.60    1.20
   0  -3   8   12.28    0.83
   0  -3   7   21.98    0.99
   0  -3   6   22.64    0.95
   0  -3   5  193.91    2.42
   0  -3   4   62.02    1.11
   0  -3   3   71.94    1.20
   0  -3   2   45.58    0.96
   0   3  -1   10.72    0.37
   0   3   0   50.25    0.91
   0   3   1   97.02    1.43
   0   3   2   19.08    0.68
   0   3   3    3.99    0.42
   0   3   4   23.05    1.00
   0   3   5   37.13    1.28
   0   3   6    5.03    0.61
   0   3   7    3.27    0.68
   0   3   8    2.96    0.60
   0   3   9   13.65    1.15
   0   3  10   26.79    1.86
   0   3  11   16.00    1.41
   0   3  12   13.99    1.40
   0   3  13    9.86    1.16
   0   3  14    4.16    0.89
   0   3  15    6.92    1.15
   0   3  16    9.95    1.45
   0   3  17    3.98    1.15
   0   3  18    2.23    0.87
   0  -4  12   15.18    1.27
   0  -4  11   32.20    1.70
   0  -4   9   19.35    1.09
   0  -4   8   24.58    1.11
   0  -4   7   46.59    1.33
   0  -4   6   66.41    1.41
   0  -4   5   55.22    1.39
   0  -4   4   32.21    0.85
   0  -4   3   93.76    1.61
   0  -4   2  110.51    1.62
   0   4  -1  379.46    3.37
   0   4   0  780.05    5.97
   0   4   1  230.52    2.68
   0   4   2   96.83    1.71
   0   4   3  115.64    2.08
   0   4   4   39.70    1.31
   0   4   5   44.10    1.54
   0   4   6   32.04    1.42
   0   4   7    9.66    0.88
   0   4   8   20.95    1.31
   0   4   9    7.55    0.92
   0   4  10    2.18    0.68
   0   4  11    0.10    0.84
   0   4  12    5.73    1.02
   0   4  13    5.30    1.13
   0   4  14    1.80    0.71
   0   4  15    1.62    0.90
   0   4  16    0.55    0.83
   0   4  17    1.59    0.92
   0  -5   8   18.01    0.96
   0  -5   7   19.64    1.01
   0  -5   6   47.44    1.32
   0  -5   5   75.55    1.65
   0  -5   4   93.15    1.76
   0  -5   3  156.81    2.20
   0   5  -2  247.26    2.75
   0   5  -1  241.35    2.71
   0   5   0  136.13    2.02
   0   5   1  149.04    2.27
   0   5   2  254.79    3.28
   0   5   3  169.69    2.85
   0   5   4   84.03    2.02
   0   5   5  132.62    2.92
   0   5   6  129.16    2.97
   0   5   7   54.16    2.00
   0   5   8   32.46    1.71
   0   5   9   17.52    1.44
   0   5  10    9.19    1.06
   0   5  11    7.68    1.13
   0   5  12    3.99    1.25
   0   5  13    2.59    0.85
   0   5  14   -0.19    0.78
   0   5  15   -0.05    0.59
   0   5  16   -0.72    0.82
   0   6  -3   17.39    0.81
   0   6  -2   20.21    0.88
   0   6  -1   94.05    1.99
   0   6   0  108.83    2.24
   0   6   1   83.01    1.92
   0   6   2   37.62    1.32
   0   6   3   53.26    1.68
   0   6   4   73.03    1.97
   0   6   5  134.97    3.23
   0   6   6   82.56    2.50
   0   6   7   56.46    2.28
   0   6   8   70.64    2.62
   0   6   9   48.68    2.38
   0   6  10   43.45    2.36
   0   6  11   20.70    1.74
   0   6  12   18.88    1.96
   0   6  13    5.92    1.20
   0   6  14    5.27    1.31
   0   6  15    2.33    0.92
   0   6  16    1.28    0.81
   0   7   0    3.33    0.54
   0   7   1   22.22    1.34
   0   7   2   39.29    1.58
   0   7   3   25.77    1.34
   0   7   4   14.79    1.11
   0   7   5   33.54    1.80
   0   7   6   13.09    1.18
   0   7   7   45.16    2.26
   0   7   8   56.18    2.56
   0   7   9   43.47    2.41
   0   7  10   22.40    1.81
   0   7  11   16.41    1.70
   0   7  12   10.28    1.64
   0   7  13   13.68    2.01
   0   7  14    7.19    1.29
   0   7  15    5.71    1.36
   0   8   3    0.16    0.45
   0   8   4    0.79    0.68
   0   8   5    7.44    1.22
   0   8   6    1.97    0.72
   0   8   7    0.79    0.66
   0   8   8   -0.22    0.61
   0   8   9   -1.39    0.85
   0   8  10    1.94    1.13
   0   8  11    5.38    1.26
   0   8  12    2.70    1.18
   0   8  13    7.83    1.80
   0   8  14    2.82    1.06
   0   9   8    0.23    0.91
   0   9   9    0.00    1.08
   0   9  10   -0.22    0.72
   0   9  11    0.97    1.15
   0   9  12    3.48    1.60
   0   9  13   -0.86    1.29
  -1   9  13    8.56    1.81
  -1   9  12    7.10    1.44
  -1   9  11    9.04    1.76
  -1   9  10    6.55    1.45
  -1   9   9    3.56    1.07
  -1   9   8    1.91    0.96
  -1   9   7    1.67    0.86
  -1   8  14    6.36    1.76
  -1   8  13    2.99    1.28
  -1   8  12    1.85    0.97
  -1   8  11    4.56    1.33
  -1   8  10   12.95    1.66
  -1   8   9   24.87    2.16
  -1   8   8   43.53    2.60
  -1   8   7   59.40    2.99
  -1   8   6   40.54    2.19
  -1   8   5   30.72    1.77
  -1   8   4   50.73    2.34
  -1   8   3   53.98    2.22
  -1   8   2   14.62    1.46
  -1   7  15    2.71    1.45
  -1   7  14    1.85    1.17
  -1   7  13    6.28    1.37
  -1   7  12    7.70    1.49
  -1   7  11   12.03    1.47
  -1   7  10   14.40    1.50
  -1   7   9   18.20    1.60
  -1   7   8   23.01    1.83
  -1   7   7   54.52    2.54
  -1   7   6   70.24    2.52
  -1   7   5   62.52    2.33
  -1   7   4   87.69    2.74
  -1   7   3   65.18    2.38
  -1   7   2   74.76    2.39
  -1   7   1   77.07    2.44
  -1   7   0   67.58    1.99
  -1   7  -1   99.13    2.58
  -1   6  15    1.26    0.91
  -1   6  14   -0.16    0.87
  -1   6  13   -0.05    0.87
  -1   6  12    0.77    0.95
  -1   6  11    1.63    0.79
  -1   6  10    2.88    0.99
  -1   6   9    4.26    1.02
  -1   6   8   16.82    1.38
  -1   6   7   30.68    1.75
  -1   6   6   11.58    1.01
  -1   6   5   47.72    1.85
  -1   6   4   80.96    2.29
  -1   6   3   60.48    2.24
  -1   6   2   24.69    1.21
  -1   6   1   45.26    1.60
  -1   6   0  104.72    2.43
  -1   6  -1  124.60    2.37
  -1   6  -2  153.34    2.80
  -1   6  -3  110.92    2.08
   1  -6   4   78.62    1.99
   1  -6   5   28.47    1.26
  -1   5  16    0.24    0.69
  -1   5  15    1.12    1.11
  -1   5  14    2.79    1.02
  -1   5  13    2.97    0.88
  -1   5  12    2.41    0.98
  -1   5  11    3.42    0.98
  -1   5  10    0.71    0.60
  -1   5   9    0.85    0.57
  -1   5   8    2.18    0.83
  -1   5   7    2.05    0.69
  -1   5   6   14.80    0.98
  -1   5   5   21.79    1.25
  -1   5   4    2.62    0.53
  -1   5   3    6.52    0.76
  -1   5   2   23.40    1.14
  -1   5   1   77.81    1.76
  -1   5   0   55.13    1.48
  -1   5  -1  121.26    2.19
  -1   5  -2  131.56    2.04
   1  -5   3   50.66    1.40
   1  -5   4   15.23    0.86
   1  -5   5   86.67    2.01
   1  -5   6   71.03    1.81
   1  -5   7   39.57    1.39
   1  -5   8   70.98    2.01
   1  -5   9   72.67    2.31
  -1   4  17    2.97    0.91
  -1   4  16    7.64    1.31
  -1   4  15    5.78    1.28
  -1   4  14    7.30    1.29
  -1   4  13    7.95    1.31
  -1   4  12   14.44    1.44
  -1   4  11   17.07    1.51
  -1   4  10   10.91    1.08
  -1   4   9    9.58    0.99
  -1   4   8   10.54    0.96
  -1   4   7   10.75    0.97
  -1   4   6    6.30    0.69
  -1   4   5    7.02    0.76
  -1   4   4    0.04    0.26
  -1   4   3    1.55    0.45
  -1   4   2    8.10    0.66
  -1   4   1    1.39    0.39
  -1   4   0    0.37    0.26
  -1   4  -1    4.98    0.41
   1  -4   2   38.65    1.13
   1  -4   3    0.29    0.28
   1  -4   4    0.02    0.35
   1  -4   5    6.72    0.52
   1  -4   6   16.18    0.88
   1  -4   7   55.61    1.75
   1  -4   8   27.91    1.11
   1  -4   9   23.34    1.18
   1  -4  10   19.92    1.24
   1  -4  11   21.51    1.34
   1  -4  12   15.02    1.23
   1  -4  13    4.57    0.89
  -1   3  17    3.96    1.11
  -1   3  16    3.00    0.87
  -1   3  15    7.74    1.24
  -1   3  14    7.38    1.11
  -1   3  13   21.09    1.84
  -1   3  12   27.20    1.78
  -1   3  11   27.16    1.65
  -1   3  10   50.12    2.10
  -1   3   9   66.62    2.26
  -1   3   8   44.71    1.79
  -1   3   7   38.08    1.57
  -1   3   6   58.02    1.73
  -1   3   5   50.96    1.46
  -1   3   4  111.76    2.02
  -1   3   3   63.36    1.54
  -1   3   2   25.37    0.89
  -1   3   1   15.16    0.68
  -1   3   0    0.46    0.27
   1  -3   2  140.71    2.01
   1  -3   3   57.07    1.39
   1  -3   4   34.21    1.03
   1  -3   5    0.07    0.27
   1  -3   6    1.20    0.27
   1  -3   7    0.80    0.38
   1  -3   8    1.26    0.44
   1  -3   9    0.50    0.38
   1  -3  10    0.91    0.56
   1  -3  11    4.13    0.81
   1  -3  12    8.35    1.08
   1  -3  13    9.12    1.21
   1  -3  14    9.18    1.29
   1  -3  15    5.89    1.21
   1  -3  16    5.80    1.28
  -1   2  18    0.97    0.92
  -1   2  17   -0.77    0.73
  -1   2  16    1.54    0.91
  -1   2  15    1.61    0.70
  -1   2  14    4.00    0.86
  -1   2  13    9.40    1.36
  -1   2  12   14.32    1.47
  -1   2  11   37.83    1.93
  -1   2  10   29.98    1.60
  -1   2   9   54.05    2.02
  -1   2   8   39.18    1.58
  -1   2   7   68.35    1.95
  -1   2   6   22.83    1.12
  -1   2   5  230.89    2.94
  -1   2   4   67.32    1.50
  -1   2   3   92.41    1.78
  -1   2   2   27.71    0.82
  -1   2   1    6.64    0.42
  -1   2   0   42.98    0.88
   1  -2   1  217.85    2.29
   1  -2   2  131.64    1.87
   1  -2   3   96.94    1.66
   1  -2   5    2.18    0.33
   1  -2   6    6.86    0.56
   1  -2   7   26.94    1.16
   1  -2   8   19.95    1.08
   1  -2   9    5.69    0.66
   1  -2  10    7.15    0.79
   1  -2  11    3.02    0.78
   1  -2  12    1.09    0.74
   1  -2  13   -0.43    0.70
   1  -2  14   -0.07    0.53
   1  -2  15    0.43    0.63
   1  -2  16   -1.08    0.77
   1  -2  17   -0.57    0.87
   1  -2  18    1.56    1.12
  -1   1  18    2.55    1.31
  -1   1  17    2.89    1.25
  -1   1  16    1.70    0.81
  -1   1  15    1.76    0.89
  -1   1  14   -0.33    0.68
  -1   1  13    1.18    0.77
  -1   1  12    0.98    0.61
  -1   1  11    1.42    0.90
  -1   1  10    5.34    0.88
  -1   1   9    6.54    0.77
  -1   1   8   27.76    1.34
  -1   1   7   41.68    1.47
  -1   1   6   90.21    1.97
  -1   1   5   58.64    1.47
  -1   1   4    3.80    0.38
  -1   1   3    5.27    0.40
  -1   1   2  264.50    2.60
  -1   1   1  415.51    3.22
   1  -1   0   56.45    1.01
   1  -1   1  231.97    2.49
   1  -1   2  160.41    2.10
   1  -1   3   67.23    1.23
   1  -1   4   43.00    1.13
   1  -1   6  103.97    2.11
   1  -1   7   72.89    1.97
   1  -1   8   81.72    2.30
   1  -1   9   66.47    2.32
   1  -1  10   45.26    2.07
   1  -1  11   18.89    1.53
   1  -1  12   17.41    1.46
   1  -1  13   11.64    1.25
   1  -1  14   11.44    1.47
   1  -1  15    4.14    1.09
   1  -1  16    1.10    0.93
   1  -1  17    0.23    0.73
   1  -1  18   -0.26    1.00
   1  -1  19   -1.87    0.93
  -1   0  19    1.39    0.85
  -1   0  18    1.48    0.84
  -1   0  17    3.96    1.17
  -1   0  16    7.08    1.49
  -1   0  15    6.89    1.34
  -1   0  14    6.47    1.00
  -1   0  13    6.41    1.06
  -1   0  12   21.95    1.53
  -1   0  11    2.38    0.63
  -1   0  10    3.24    0.69
  -1   0   9   45.24    2.04
  -1   0   8    4.77    0.61
  -1   0   7    5.73    0.64
  -1   0   6   10.31    0.70
  -1   0   5   51.44    1.37
  -1   0   4  546.54    4.68
  -1   0   3   96.60    1.45
  -1   0   2   65.90    0.97
  -1   0   1   15.65    0.37
   1   0   0   34.43    0.65
   1   0   1  109.73    1.47
   1   0   2    5.14    0.36
   1   0   3    8.18    0.50
   1   0   4   54.60    1.38
   1   0   5   97.38    1.88
   1   0   6   34.10    1.20
   1   0   7  109.73    2.35
   1   0   8   47.99    1.65
   1   0   9   45.50    1.76
   1   0  10   10.12    0.92
   1   0  11   46.06    2.01
   1   0  12   47.71    2.17
   1   0  13   15.34    1.40
   1   0  14   18.34    1.64
   1   0  15   11.35    1.47
   1   0  16   11.13    1.67
   1   0  17    5.18    1.43
   1   0  18    2.48    1.16
   1   0  19    0.04    0.95
  -1  -1  19    3.29    1.24
  -1  -1  18    3.16    1.14
  -1  -1  17   10.19    1.51
  -1  -1  16   10.07    1.40
  -1  -1  15   14.21    1.58
  -1  -1  14   18.53    1.86
  -1  -1  13   33.71    2.19
  -1  -1  12   42.11    2.07
  -1  -1  11   31.40    1.70
  -1  -1  10   44.33    1.80
  -1  -1   9   15.40    1.03
  -1  -1   8   43.72    1.70
  -1  -1   7   13.36    1.06
  -1  -1   6    6.03    0.66
  -1  -1   5    5.69    0.51
  -1  -1   4   23.21    0.80
  -1  -1   3  112.30    1.51
  -1  -1   2   29.99    0.57
   1   1   1    1.40    0.22
   1   1   2   82.29    1.25
   1   1   3    3.70    0.42
   1   1   4    3.80    0.51
   1   1   5   19.82    0.99
   1   1   6   15.62    1.00
   1   1   7   38.77    1.64
   1   1   8   21.38    1.35
   1   1   9    9.21    1.01
   1   1  10    3.66    0.75
   1   1  11   18.14    1.39
   1   1  12   14.93    1.33
   1   1  13   23.66    1.62
   1   1  14   33.80    2.07
   1   1  15   16.86    1.52
   1   1  16   12.87    1.52
   1   1  17    5.57    1.19
   1   1  18    7.33    1.55
  -1  -2  18    1.45    1.06
  -1  -2  17    3.65    1.10
  -1  -2  16    4.08    1.16
  -1  -2  15    8.75    1.29
  -1  -2  14   11.45    1.25
  -1  -2  13   26.77    1.74
  -1  -2  12   33.27    1.89
  -1  -2  11   45.58    2.06
  -1  -2  10  116.62    3.33
  -1  -2   9   79.17    2.36
  -1  -2   8   53.95    1.75
  -1  -2   7   71.33    1.83
  -1  -2   6  150.37    2.44
  -1  -2   5  113.60    1.88
  -1  -2   4  110.15    1.63
  -1  -2   3   68.47    1.07
   1   2   1  227.31    2.17
   1   2   2    8.24    0.52
   1   2   3    1.22    0.30
   1   2   4   20.40    0.90
   1   2   5    6.25    0.64
   1   2   6    4.18    0.56
   1   2   7    2.08    0.48
   1   2   8    0.69    0.57
   1   2   9    1.06    0.48
   1   2  10    5.48    0.90
   1   2  11    5.42    0.96
   1   2  12    0.43    0.87
   1   2  13    5.76    1.00
   1   2  14    4.04    0.84
   1   2  15    5.64    1.12
   1   2  16    6.24    1.22
   1   2  17    6.89    1.16
   1   2  18    3.26    1.04
  -1  -3  15   -0.02    0.98
  -1  -3  14    1.94    0.81
  -1  -3  13    5.26    1.02
  -1  -3  12    8.45    1.07
  -1  -3  11   23.25    1.46
  -1  -3  10   11.14    0.94
  -1  -3   9   48.97    1.73
  -1  -3   8   54.46    1.67
  -1  -3   7   98.45    2.04
  -1  -3   6   64.35    1.48
  -1  -3   5   80.04    1.55
  -1  -3   4  203.04    2.21
   1   3   1  244.06    2.39
   1   3   2  230.80    2.61
   1   3   3   90.84    1.70
   1   3   4   93.38    1.89
   1   3   5    6.41    0.71
   1   3   6   11.88    0.96
   1   3   7   40.45    1.62
   1   3   8   20.80    1.23
   1   3   9   11.78    1.01
   1   3  10    8.58    1.02
   1   3  11    5.34    0.97
   1   3  12   -0.08    0.52
   1   3  13   -0.60    0.60
   1   3  14    0.05    0.76
   1   3  15   -0.15    0.89
   1   3  16    0.51    0.85
   1   3  17    0.68    0.90
   1   3  18    0.85    1.01
  -1  -4  12   -0.18    0.67
  -1  -4  11    1.68    0.70
  -1  -4  10    2.80    0.66
  -1  -4   9    3.23    0.58
  -1  -4   8    8.72    0.78
  -1  -4   7    9.72    0.66
  -1  -4   6   31.22    1.01
  -1  -4   5  144.75    1.88
  -1  -4   4  158.37    1.67
   1   4  -2  122.71    1.31
   1   4  -1  216.86    2.06
   1   4   0  339.16    2.93
   1   4   1  425.44    3.83
   1   4   2  234.58    2.75
   1   4   3  191.65    2.69
   1   4   4  232.01    3.33
   1   4   5  152.18    2.82
   1   4   6   84.05    2.29
   1   4   7   36.61    1.79
   1   4   8   28.20    1.74
   1   4   9   29.05    1.72
   1   4  10   11.63    1.19
   1   4  11   20.77    1.53
   1   4  12   21.59    1.65
   1   4  13    6.72    1.12
   1   4  14    6.52    1.22
   1   4  15    6.89    1.43
   1   4  16    1.92    1.09
   1   4  17    3.33    1.12
  -1  -5   7    0.72    0.39
  -1  -5   6    3.97    0.41
  -1  -5   5    2.42    0.33
  -1  -5   4   11.30    0.56
   1   5  -3    2.61    0.30
   1   5  -2   42.09    0.84
   1   5  -1   39.33    0.82
   1   5   0   80.12    1.37
   1   5   1   49.32    1.13
   1   5   2  107.98    2.04
   1   5   3  123.92    2.34
   1   5   4   80.72    1.98
   1   5   5   57.57    1.84
   1   5   6   33.37    1.51
   1   5   7   32.87    1.61
   1   5   8   32.55    1.89
   1   5   9   42.45    2.20
   1   5  10   60.05    2.61
   1   5  11   42.26    2.19
   1   5  12   22.39    1.72
   1   5  13   16.42    1.57
   1   5  14    9.91    1.36
   1   5  15    5.66    1.21
   1   5  16    6.08    1.44
   1   5  17    4.40    1.45
   1   6  -3    2.49    0.34
   1   6  -2   53.69    1.13
   1   6  -1   11.89    0.72
   1   6   0    3.46    0.42
   1   6   1    1.85    0.32
   1   6   2   14.48    0.85
   1   6   3   10.06    0.81
   1   6   4   25.35    1.26
   1   6   5   12.79    1.03
   1   6   6   21.36    1.42
   1   6   7   12.32    1.09
   1   6   8   12.15    1.26
   1   6   9   15.24    1.57
   1   6  10   23.92    1.80
   1   6  11   18.63    1.55
   1   6  12   11.84    1.32
   1   6  13   18.54    1.74
   1   6  14   10.75    1.47
   1   6  15   10.47    1.48
   1   6  16    7.15    1.51
   1   7   1   31.15    1.17
   1   7   2   23.27    1.26
   1   7   3   18.90    1.16
   1   7   4    7.05    0.87
   1   7   5    1.56    0.68
   1   7   6    4.78    0.93
   1   7   7    8.98    1.05
   1   7   8   -0.17    0.75
   1   7   9    0.56    0.91
   1   7  10    1.08    0.81
   1   7  11    0.66    1.04
   1   7  12    2.58    1.06
   1   7  13    1.16    1.00
   1   7  14    1.92    1.08
   1   7  15    2.55    1.21
   1   8   5  145.00    3.62
   1   8   6  111.13    3.43
   1   8   7   19.54    1.69
   1   8   8    4.49    1.08
   1   8   9    3.46    1.14
   1   8  10    7.64    1.44
   1   8  11    1.76    0.87
   1   8  12    0.37    0.70
   1   8  13    0.21    1.00
   1   8  14   -0.82    0.90
   1   8  15    0.75    1.06
   1   9   9   32.70    2.63
   1   9  10   31.41    2.82
   1   9  11   21.20    2.31
   1   9  12   17.26    2.00
   1   9  13    2.88    1.30
   1   9  14    1.55    1.19
  -2   9  11    2.35    1.07
  -2   9  10   10.40    1.83
  -2   9   9   23.47    2.31
  -2   9   8   20.16    2.23
  -2   9   7   13.92    1.63
  -2   9   6   11.74    1.41
  -2   8  13    3.12    1.35
  -2   8  12    5.72    1.42
  -2   8  11    6.43    1.46
  -2   8  10    8.22    1.45
  -2   8   9   15.74    1.92
  -2   8   8   23.57    2.00
  -2   8   7   19.58    1.67
  -2   8   6   30.68    2.02
  -2   8   5   40.92    2.29
  -2   8   4   55.52    2.54
  -2   8   3   95.15    3.58
  -2   8   2   87.26    2.92
  -2   7  14   -0.56    0.97
  -2   7  13   -0.43    0.71
  -2   7  12   -0.29    0.65
  -2   7  11   -0.54    0.65
  -2   7  10   -0.36    0.87
  -2   7   9    0.09    0.96
  -2   7   8    0.15    0.59
  -2   7   7    1.43    0.71
  -2   7   6   15.93    1.45
  -2   7   5   12.33    1.21
  -2   7   4   15.27    1.37
  -2   7   3   39.67    1.87
  -2   7   2   72.20    2.62
  -2   7   1   66.74    2.23
  -2   7   0  105.58    2.99
  -2   7  -1  117.26    2.96
  -2   7  -2   74.32    2.26
  -2   7  -3   26.00    1.42
  -2   6  14    2.50    1.14
  -2   6  13    4.91    1.26
  -2   6  12    4.50    1.16
  -2   6  11    2.78    1.06
  -2   6  10    7.23    1.08
  -2   6   9   13.01    1.43
  -2   6   8   10.74    1.15
  -2   6   7    2.82    0.63
  -2   6   6    7.68    0.93
  -2   6   5    1.37    0.67
  -2   6   4    2.52    0.76
  -2   6   3    0.91    0.58
  -2   6   2    0.95    0.48
  -2   6   1    3.00    0.67
  -2   6   0   26.15    1.30
  -2   6  -1   47.25    1.64
  -2   6  -2   44.72    1.63
  -2   6  -3   38.44    1.38
   2  -6   4   32.83    1.47
   2  -6   5    1.65    0.47
   2  -6   6   11.02    0.98
  -2   5  16    4.18    1.42
  -2   5  15    6.12    1.28
  -2   5  14    4.33    0.97
  -2   5  13    6.60    1.14
  -2   5  12    7.06    1.06
  -2   5  11   13.02    1.47
  -2   5  10   13.50    1.26
  -2   5   9   34.36    1.95
  -2   5   8   28.39    1.55
  -2   5   7   46.74    1.92
  -2   5   6   56.44    2.04
  -2   5   5    9.81    0.90
  -2   5   4   19.47    1.21
  -2   5   3   20.69    1.18
  -2   5   2    8.91    0.78
  -2   5   1   10.09    0.80
  -2   5   0    6.86    0.60
  -2   5  -1    0.36    0.37
  -2   5  -2    0.65    0.32
   2  -5   3    0.82    0.43
   2  -5   4    0.00    0.29
   2  -5   5    0.12    0.41
   2  -5   6    7.86    0.83
   2  -5   7    4.65    0.72
   2  -5   8    9.16    0.84
   2  -5   9   23.23    1.31
   2  -5  10   16.70    1.26
  -2   4  16   -0.06    1.09
  -2   4  15    2.06    1.05
  -2   4  14    2.31    0.79
  -2   4  13    5.55    1.03
  -2   4  12   10.26    1.27
  -2   4  11   16.84    1.36
  -2   4  10   26.42    1.70
  -2   4   9   30.13    1.74
  -2   4   8   21.55    1.32
  -2   4   7   43.31    1.71
  -2   4   6   42.39    1.66
  -2   4   5   77.22    2.27
  -2   4   4  204.52    3.26
  -2   4   3  221.83    3.52
  -2   4   2  241.30    3.59
  -2   4   1   68.21    1.68
  -2   4   0   92.33    2.01
  -2   4  -1   49.52    1.29
   2  -4   2   89.63    1.98
   2  -4   3   19.87    0.88
   2  -4   4   40.56    1.48
   2  -4   5   20.35    1.15
   2  -4   6    0.95    0.38
   2  -4   7    0.59    0.42
   2  -4   8    1.50    0.55
   2  -4   9    2.10    0.59
   2  -4  10    2.91    0.75
   2  -4  11    3.59    0.71
   2  -4  12    0.12    0.36
   2  -4  13    0.80    0.44
   2  -4  14    2.26    0.76
  -2   3  17    0.35    0.84
  -2   3  16   -0.06    0.63
  -2   3  15    0.38    0.74
  -2   3  14   -0.03    0.58
  -2   3  13    0.29    0.58
  -2   3  12    7.74    1.06
  -2   3  11    7.88    1.09
  -2   3  10   13.26    1.18
  -2   3   9   18.25    1.26
  -2   3   8    6.14    0.72
  -2   3   7   13.07    0.85
  -2   3   6   45.78    1.58
  -2   3   5   88.70    2.23
  -2   3   4  146.04    2.52
  -2   3   3  194.39    2.85
  -2   3   2  111.63    2.14
  -2   3   1  111.35    1.93
  -2   3   0  125.27    2.07
   2  -3   1  102.19    2.01
   2  -3   2  118.48    2.03
   2  -3   3  264.78    3.49
   2  -3   4  127.23    2.28
   2  -3   5   59.81    1.54
   2  -3   6   57.75    1.69
   2  -3   7   31.99    1.35
   2  -3   8   21.92    1.05
   2  -3   9   22.36    1.19
   2  -3  10   14.06    1.10
   2  -3  11    1.54    0.63
   2  -3  12   -0.14    0.55
   2  -3  13    0.16    0.44
   2  -3  14    1.19    0.74
   2  -3  15    3.58    0.95
   2  -3  16    0.91    0.85
   2  -3  17    0.69    0.89
  -2   2  17    1.55    0.95
  -2   2  16    1.69    0.73
  -2   2  15   -0.26    0.60
  -2   2  14   -0.49    0.64
  -2   2  13    0.53    0.55
  -2   2  12    3.41    0.81
  -2   2  11    1.47    0.74
  -2   2  10    1.47    0.55
  -2   2   9    0.66    0.46
  -2   2   8    2.24    0.62
  -2   2   7    1.58    0.39
  -2   2   6    2.91    0.54
  -2   2   5    2.02    0.39
  -2   2   4   40.56    1.19
  -2   2   3  126.49    2.01
  -2   2   2   56.62    1.33
  -2   2   1   30.57    0.93
  -2   2   0   11.75    0.54
   2  -2   1  104.40    1.66
   2  -2   2   38.35    1.21
   2  -2   3  174.58    2.43
   2  -2   6   80.54    1.75
   2  -2   7  128.70    2.52
   2  -2   8   71.80    1.95
   2  -2   9   66.00    2.05
   2  -2  10   17.42    1.16
   2  -2  11   20.22    1.37
   2  -2  12   16.69    1.27
   2  -2  13   12.94    1.33
   2  -2  14    5.21    1.05
   2  -2  15    4.99    0.94
   2  -2  17    3.08    0.89
   2  -2  18    2.96    1.16
  -2   1  18    4.01    1.17
  -2   1  17    3.78    0.95
  -2   1  16    3.00    1.00
  -2   1  15    7.99    1.29
  -2   1  14    6.04    1.07
  -2   1  13    4.38    0.99
  -2   1  12    1.06    0.59
  -2   1  11    6.00    0.97
  -2   1  10    7.23    0.85
  -2   1   9   13.63    1.03
  -2   1   8   53.76    1.90
  -2   1   7   62.47    1.79
  -2   1   6    3.22    0.43
  -2   1   5   10.96    0.68
  -2   1   4    4.01    0.45
  -2   1   3    5.22    0.42
  -2   1   2   25.60    0.82
  -2   1   1    4.48    0.38
   2  -1   0   15.89    0.65
   2  -1   1   87.98    1.71
   2  -1   2   16.29    0.68
   2  -1   3   22.64    0.89
   2  -1   4   66.81    1.41
   2  -1   5   54.73    1.44
   2  -1   7   75.67    2.01
   2  -1   8   55.41    1.88
   2  -1   9   72.40    2.18
   2  -1  10   49.14    1.92
   2  -1  11   23.03    1.41
   2  -1  12    9.88    1.04
   2  -1  13   12.73    1.21
   2  -1  14   15.74    1.47
   2  -1  15   11.58    1.29
   2  -1  16    6.42    1.24
   2  -1  17    8.41    1.43
   2  -1  18    4.34    1.29
  -2   0  18    6.59    1.58
  -2   0  17    3.37    1.02
  -2   0  16    8.77    1.38
  -2   0  15    9.76    1.22
  -2   0  14   12.95    1.31
  -2   0  13   28.60    2.02
  -2   0  12   25.11    1.90
  -2   0  11   23.57    1.45
  -2   0  10   13.34    1.11
  -2   0   9   17.27    1.11
  -2   0   8    3.24    0.56
  -2   0   7    9.18    0.78
  -2   0   6    1.15    0.42
  -2   0   5   20.15    0.88
  -2   0   4   70.80    1.58
  -2   0   3   78.09    1.41
  -2   0   2  229.89    2.39
  -2   0   1  120.12    1.55
   2   0   0   24.16    0.74
   2   0   1    8.30    0.56
   2   0   2   17.88    0.78
   2   0   3    3.22    0.38
   2   0   4   20.80    0.90
   2   0   5    0.39    0.33
   2   0   6   30.05    1.20
   2   0   8   31.00    1.44
   2   0   9    7.47    0.87
   2   0  10    1.87    0.53
   2   0  11    1.11    0.54
   2   0  12   11.43    1.14
   2   0  13   12.30    1.31
   2   0  14    9.39    1.29
   2   0  15    8.02    1.18
   2   0  16    5.40    1.10
   2   0  17    4.00    0.99
   2   0  18    3.12    0.96
  -2  -1  18   -0.20    0.62
  -2  -1  17    0.57    1.24
  -2  -1  16    5.70    1.37
  -2  -1  15    5.55    1.03
  -2  -1  14    8.68    1.22
  -2  -1  13   14.68    1.40
  -2  -1  12   24.41    1.56
  -2  -1  11   12.46    1.26
  -2  -1  10   10.61    1.07
  -2  -1   9   47.43    1.85
  -2  -1   8   89.95    2.32
  -2  -1   7  112.52    2.31
  -2  -1   6  184.76    2.89
  -2  -1   5   68.47    1.44
  -2  -1   4  169.68    2.15
  -2  -1   3   60.37    1.06
  -2  -1   2   30.82    0.71
  -2  -1   1  434.53    3.27
   2   1   0  168.50    2.02
   2   1   1   21.20    0.72
   2   1   2   96.28    1.55
   2   1   3   67.13    1.46
   2   1   4   79.63    1.72
   2   1   5   54.04    1.51
   2   1   6   38.14    1.46
   2   1   7   41.41    1.69
   2   1   8    8.34    0.93
   2   1   9    1.60    0.67
   2   1  10    0.70    0.63
   2   1  11    1.24    0.65
   2   1  12    8.33    1.24
   2   1  13   -0.83    0.59
   2   1  14    1.78    0.83
   2   1  15    0.66    0.72
   2   1  16    2.04    0.85
   2   1  17    1.93    1.05
   2   1  18    2.31    1.13
  -2  -2  17    0.15    0.93
  -2  -2  16   -0.21    0.55
  -2  -2  15    2.49    1.18
  -2  -2  14    2.21    1.02
  -2  -2  13    4.14    0.84
  -2  -2  12    1.79    0.80
  -2  -2  11   -0.07    0.45
  -2  -2  10   34.41    1.68
  -2  -2   9   43.85    1.97
  -2  -2   8   29.67    1.46
  -2  -2   7   42.79    1.49
  -2  -2   6   86.08    1.87
  -2  -2   5  123.09    2.02
  -2  -2   4  173.86    2.13
  -2  -2   3  109.22    1.40
  -2  -2   2   62.71    0.82
  -2  -2   1   34.66    0.61
   2   2   0    1.28    0.26
   2   2   1  519.58    4.18
   2   2   2  310.34    3.16
   2   2   3  110.80    1.99
   2   2   4   83.03    1.80
   2   2   5  143.62    2.49
   2   2   6   86.17    2.04
   2   2   8   40.98    1.64
   2   2   9   11.40    0.95
   2   2  10    9.54    1.04
   2   2  11   -0.03    0.45
   2   2  12   11.92    1.17
   2   2  13    7.61    1.03
   2   2  14   -0.12    0.61
   2   2  15    1.77    1.03
   2   2  16   -0.74    0.91
   2   2  17    0.37    0.82
   2   2  18    0.21    1.04
  -2  -3  14    3.75    0.99
  -2  -3  13    1.05    0.83
  -2  -3  11   -0.03    0.72
  -2  -3  10    1.16    0.59
  -2  -3   9    1.09    0.51
  -2  -3   8    1.30    0.48
  -2  -3   7    5.33    0.59
  -2  -3   6   17.05    0.88
  -2  -3   5   21.47    0.93
  -2  -3   4   46.61    1.00
  -2  -3   3   68.10    1.02
   2   3   0  132.52    1.53
   2   3   1  174.65    2.01
   2   3   2   61.15    1.24
   2   3   3  269.66    3.09
   2   3   4  288.55    3.66
   2   3   6   49.17    1.79
   2   3   7  120.25    2.99
   2   3   8   87.37    2.77
   2   3   9   28.59    1.57
   2   3  10   33.09    1.70
   2   3  11   23.54    1.47
   2   3  12   18.63    1.47
   2   3  13   18.39    1.56
   2   3  14   20.52    1.62
   2   3  15   10.16    1.36
   2   3  16    5.30    1.15
   2   3  17    1.59    1.08
   2   3  18    2.47    1.04
  -2  -4  10   16.78    1.17
  -2  -4   9    6.35    0.74
  -2  -4   8    2.75    0.55
  -2  -4   7    1.08    0.41
  -2  -4   6   16.22    0.75
  -2  -4   5    7.27    0.47
  -2  -4   4    7.97    0.41
   2   4   0   27.06    0.62
   2   4   1   24.16    0.79
   2   4   2  103.22    1.78
   2   4   3   33.11    1.07
   2   4   4   36.44    1.25
   2   4   5   33.74    1.33
   2   4   6   11.46    0.83
   2   4   7   33.32    1.50
   2   4   8   24.31    1.40
   2   4   9   27.51    1.64
   2   4  10   22.66    1.68
   2   4  11   42.95    2.32
   2   4  12   43.78    2.45
   2   4  13   22.55    1.62
   2   4  14   17.36    1.60
   2   4  15   10.20    1.28
   2   4  16    7.31    1.30
   2   4  17    4.65    1.07
  -2  -5   5   53.55    0.96
   2   5   0   15.66    0.50
   2   5   1   66.28    1.23
   2   5   2   62.71    1.38
   2   5   3    7.79    0.66
   2   5   4    4.89    0.59
   2   5   5   11.29    0.87
   2   5   6   28.68    1.34
   2   5   7    6.28    0.82
   2   5   8    3.22    0.76
   2   5   9    1.60    0.59
   2   5  10    3.43    0.77
   2   5  11   11.91    1.38
   2   5  12   13.38    1.55
   2   5  13    6.84    1.43
   2   5  14    2.88    0.90
   2   5  15    2.74    0.84
   2   5  16    2.70    1.06
   2   5  17    5.21    1.12
   2   6   0   85.16    1.44
   2   6   1  197.71    2.73
   2   6   2   85.25    1.99
   2   6   3   27.96    1.33
   2   6   4   24.60    1.30
   2   6   5   24.36    1.35
   2   6   6   14.43    1.13
   2   6   7    7.04    0.93
   2   6   8    3.69    0.81
   2   6   9    1.30    0.74
   2   6  10    0.39    0.76
   2   6  11    0.77    0.66
   2   6  12   -1.69    0.73
   2   6  13   -0.46    0.75
   2   6  14   -0.70    1.05
   2   6  15   -1.39    0.88
   2   6  16    1.17    0.79
   2   7   2   59.86    1.73
   2   7   3   74.90    2.05
   2   7   4  138.84    3.35
   2   7   5   86.89    2.80
   2   7   6   43.42    1.92
   2   7   7   69.22    2.54
   2   7   8   27.39    1.65
   2   7   9   12.54    1.34
   2   7  10    7.71    1.06
   2   7  11    9.08    1.30
   2   7  12    7.21    1.27
   2   7  13    4.49    1.19
   2   7  14    8.51    1.68
   2   7  15    1.43    1.32
   2   7  16   -0.19    0.67
   2   8   5   28.85    1.83
   2   8   6   75.62    2.93
   2   8   7   65.20    2.81
   2   8   8   22.76    1.71
   2   8   9   19.58    1.68
   2   8  10   17.49    1.66
   2   8  11   11.02    1.37
   2   8  12   16.46    1.80
   2   8  14    7.30    1.58
   2   8  15    5.05    1.76
   2   9  10    9.68    1.42
   2   9  11    7.34    1.27
   2   9  12   12.79    1.78
   2   9  13   13.73    1.90
   2   9  14    3.23    1.37
  -3   9  10    2.59    1.43
  -3   9   9    4.30    1.42
  -3   9   8    9.43    1.58
  -3   9   7    6.26    1.28
  -3   9   6   10.64    1.46
  -3   8  12    0.35    0.87
  -3   8  11   -0.77    0.69
  -3   8  10    0.35    0.83
  -3   8   9   -0.60    0.91
  -3   8   8    0.40    0.76
  -3   8   7    0.01    0.59
  -3   8   6   -0.29    0.82
  -3   8   5    0.23    0.81
  -3   8   4    5.13    1.29
  -3   8   3   11.55    1.32
  -3   8   2   32.69    2.21
  -3   8   1   63.70    2.68
  -3   7  13    1.99    0.91
  -3   7  12    3.95    1.08
  -3   7  11    9.15    1.37
  -3   7  10    6.93    1.39
  -3   7   9    5.45    1.09
  -3   7   8   11.10    1.35
  -3   7   7   10.22    1.27
  -3   7   6    2.78    0.77
  -3   7   5    2.15    0.77
  -3   7   4    2.79    0.82
  -3   7   3    5.65    1.05
  -3   7   2    3.65    0.88
  -3   7   1    1.79    0.59
  -3   7   0    2.26    0.64
  -3   7  -1    2.36    0.69
  -3   7  -2    8.69    0.97
  -3   7  -3    1.90    0.71
  -3   7  -4    0.74    0.49
  -3   6  14    5.92    1.29
  -3   6  13    6.39    1.31
  -3   6  12   15.91    1.72
  -3   6  11    9.21    1.31
  -3   6  10   16.60    1.62
  -3   6   9   18.53    1.51
  -3   6   8   33.31    1.96
  -3   6   7   35.33    1.99
  -3   6   6   16.99    1.30
  -3   6   5   46.01    2.23
  -3   6   4   15.11    1.15
  -3   6   3   34.76    1.85
  -3   6   2   46.62    1.84
  -3   6   1   63.23    2.26
  -3   6   0   47.41    1.81
  -3   6  -1   24.28    1.37
  -3   6  -2    5.31    0.73
  -3   6  -3   -0.25    0.43
  -3   6  -4   -0.45    0.50
   3  -6   5    0.39    0.65
   3  -6   6    2.39    0.55
   3  -6   7    0.07    0.58
  -3   5  15   -0.24    0.67
  -3   5  14    0.79    0.86
  -3   5  13    3.36    1.04
  -3   5  12    4.17    0.94
  -3   5  11   11.91    1.33
  -3   5  10   13.74    1.32
  -3   5   9   21.06    1.43
  -3   5   8   28.89    1.73
  -3   5   7    7.02    0.89
  -3   5   6   39.70    2.07
  -3   5   5   45.73    1.98
  -3   5   4   50.26    2.07
  -3   5   3   88.95    2.40
  -3   5   2  131.58    3.12
  -3   5   1  150.09    3.01
  -3   5   0  128.51    2.73
  -3   5  -1   74.12    2.11
  -3   5  -2   40.75    1.44
   3  -5   3   50.74    1.80
   3  -5   4   33.87    1.44
   3  -5   5   42.39    1.70
   3  -5   6   43.39    1.88
   3  -5   7    8.34    0.91
   3  -5   8    5.90    0.96
   3  -5   9    3.29    0.65
   3  -5  10    6.02    0.80
   3  -5  11    2.66    0.60
  -3   4  16    0.98    0.95
  -3   4  15   -0.53    0.83
  -3   4  14   -0.07    0.58
  -3   4  13    0.06    0.55
  -3   4  12   -1.22    0.68
  -3   4  11    1.35    0.69
  -3   4  10    5.01    0.94
  -3   4   9    6.63    0.86
  -3   4   8    8.10    0.88
  -3   4   7   28.64    1.47
  -3   4   6   62.06    2.41
  -3   4   5   23.56    1.26
  -3   4   4   56.89    1.98
  -3   4   3   55.48    1.71
  -3   4   2  142.41    2.87
  -3   4   1   85.08    2.08
  -3   4   0   63.06    1.84
  -3   4  -1   94.64    2.04
   3  -4   2   50.78    1.68
   3  -4   3   38.40    1.27
   3  -4   4  102.62    2.38
   3  -4   5   79.99    2.28
   3  -4   6   28.29    1.46
   3  -4   7   93.04    2.32
   3  -4   8   93.29    2.35
   3  -4   9   52.13    1.94
   3  -4  10   16.05    1.26
   3  -4  11    4.07    0.89
   3  -4  12    3.65    0.80
   3  -4  13    1.40    0.93
   3  -4  14    1.94    0.98
  -3   3  16    0.55    0.95
  -3   3  15    3.20    1.04
  -3   3  14    1.22    0.72
  -3   3  13    2.56    0.77
  -3   3  12    5.35    1.09
  -3   3  11    0.84    0.60
  -3   3  10    0.54    0.58
  -3   3   9    0.23    0.40
  -3   3   8    0.90    0.55
  -3   3   7    1.02    0.55
  -3   3   6    3.61    0.68
  -3   3   5    1.28    0.47
  -3   3   4   15.44    0.95
  -3   3   3   20.79    1.14
  -3   3   2   15.73    0.87
  -3   3   1   26.77    1.16
  -3   3   0   41.21    1.35
   3  -3   1    9.54    0.68
   3  -3   2   30.90    1.07
   3  -3   3   68.97    1.81
   3  -3   4   36.35    1.37
   3  -3   5   24.99    1.21
   3  -3   6   32.32    1.28
   3  -3   7   37.56    1.52
   3  -3   8   19.34    1.26
   3  -3   9   21.47    1.38
   3  -3  10   62.61    2.32
   3  -3  11   53.72    2.02
   3  -3  12   21.87    1.38
   3  -3  13   12.85    1.15
   3  -3  14   10.44    1.20
   3  -3  15    7.01    1.05
   3  -3  16    3.18    0.77
   3  -3  17    2.82    0.96
  -3   2  17    1.81    0.85
  -3   2  16    4.65    1.22
  -3   2  15    5.85    1.09
  -3   2  14    8.34    1.15
  -3   2  13   13.70    1.42
  -3   2  12    9.55    1.09
  -3   2  11   14.19    1.21
  -3   2  10   22.63    1.57
  -3   2   9   18.92    1.22
  -3   2   8   15.35    1.06
  -3   2   7   11.15    0.87
  -3   2   6   41.55    1.74
  -3   2   5   25.54    1.09
  -3   2   4   20.66    1.00
  -3   2   3    7.66    0.66
  -3   2   2   12.13    0.73
  -3   2   1    0.31    0.37
  -3   2   0    6.47    0.59
   3  -2   1    2.16    0.44
   3  -2   2    8.10    0.65
   3  -2   3    6.64    0.63
   3  -2   4   26.76    1.09
   3  -2   5   12.66    0.85
   3  -2   6    4.92    0.69
   3  -2   7   21.90    1.32
   3  -2   8   24.86    1.20
   3  -2   9   31.85    1.41
   3  -2  10   34.06    1.65
   3  -2  11   16.04    1.22
   3  -2  12   17.02    1.31
   3  -2  13   25.50    1.67
   3  -2  14   12.41    1.23
   3  -2  15   10.43    1.32
   3  -2  16    8.52    1.31
   3  -2  17    1.86    0.79
   3  -2  18    5.62    1.26
  -3   1  18    0.48    0.70
  -3   1  17    0.96    0.72
  -3   1  16    1.10    0.78
  -3   1  15    3.33    1.04
  -3   1  14    5.48    0.97
  -3   1  13    9.14    1.14
  -3   1  12   22.89    1.52
  -3   1  11   55.56    2.28
  -3   1  10   38.74    1.86
  -3   1   9   33.02    1.53
  -3   1   8   31.26    1.30
  -3   1   7    8.08    0.72
  -3   1   6   27.42    1.16
  -3   1   5   39.59    1.26
  -3   1   4   84.24    1.80
  -3   1   3  161.12    2.53
  -3   1   2   41.88    1.17
  -3   1   1   27.45    0.97
   3  -1   0   35.65    1.17
   3  -1   1    2.38    0.42
   3  -1   2   10.27    0.71
   3  -1   3   63.79    1.57
   3  -1   4   15.73    0.87
   3  -1   5   10.47    0.85
   3  -1   6    3.25    0.50
   3  -1   7    0.41    0.48
   3  -1   8    0.49    0.38
   3  -1   9    0.53    0.50
   3  -1  10    0.87    0.46
   3  -1  11    2.89    0.66
   3  -1  12    5.45    0.84
   3  -1  13    8.58    1.14
   3  -1  14    4.23    1.00
   3  -1  15    5.23    1.08
   3  -1  16    2.41    0.81
   3  -1  17    2.29    1.04
   3  -1  18    2.19    0.87
  -3   0  18    0.68    0.95
  -3   0  17   -0.07    0.62
  -3   0  16   -0.22    0.59
  -3   0  15    2.42    0.85
  -3   0  14    6.51    1.20
  -3   0  13   11.03    1.27
  -3   0  12    3.88    0.94
  -3   0  11    0.46    0.66
  -3   0  10    1.06    0.65
  -3   0   9   16.38    1.12
  -3   0   8   58.77    1.85
  -3   0   7   42.38    1.40
  -3   0   6  202.09    2.91
  -3   0   5   90.62    1.95
  -3   0   4  127.01    2.13
  -3   0   3  233.21    2.90
  -3   0   2  324.18    3.34
  -3   0   1  108.78    1.65
   3   0   0   60.59    1.29
   3   0   1   72.37    1.75
   3   0   2   35.38    1.11
   3   0   3   25.60    1.04
   3   0   4  144.64    2.49
   3   0   6  100.87    2.20
   3   0   7   71.67    1.98
   3   0   9   16.63    1.14
   3   0  10    4.24    0.72
   3   0  11    2.03    0.61
   3   0  12    0.09    0.64
   3   0  13    0.02    0.70
   3   0  14    0.59    0.62
   3   0  15   -0.11    0.57
   3   0  16    0.00    0.82
   3   0  17   -0.35    0.87
   3   0  18   -0.49    0.66
  -3  -1  18   -0.65    0.74
  -3  -1  17    1.53    0.99
  -3  -1  16   -0.18    0.82
  -3  -1  15   -1.40    0.67
  -3  -1  14    0.22    0.88
  -3  -1  13   -0.96    0.75
  -3  -1  12    1.55    0.77
  -3  -1  11   10.42    1.19
  -3  -1  10    0.46    0.49
  -3  -1   9    3.53    0.72
  -3  -1   8   15.77    1.11
  -3  -1   7   14.96    0.84
  -3  -1   6   23.66    1.02
  -3  -1   5   96.16    2.06
  -3  -1   4  114.66    1.95
  -3  -1   3   14.36    0.66
  -3  -1   2   25.87    0.82
  -3  -1   1  203.84    2.49
   3   1   0  329.65    3.52
   3   1   1   33.76    1.13
   3   1   2   98.86    1.92
   3   1   3  165.43    2.38
   3   1   4  140.54    2.40
   3   1   5  132.07    2.50
   3   1   6   53.86    1.69
   3   1   7   61.23    1.90
   3   1   8   38.22    1.55
   3   1   9   23.97    1.31
   3   1  10   29.02    1.55
   3   1  11   22.29    1.45
   3   1  12    4.90    0.84
   3   1  13    4.40    0.83
   3   1  14    8.69    1.26
   3   1  15    2.89    0.81
   3   1  16    0.53    0.83
   3   1  17    0.53    0.87
   3   1  18    0.37    0.94
  -3  -2  16    5.79    1.17
  -3  -2  15    5.80    1.01
  -3  -2  14    3.66    0.97
  -3  -2  13    3.76    0.95
  -3  -2  12    3.01    1.00
  -3  -2  11   10.04    1.14
  -3  -2  10    4.74    0.88
  -3  -2   9    1.35    0.64
  -3  -2   8    4.26    0.68
  -3  -2   6    2.56    0.43
  -3  -2   5    3.00    0.41
  -3  -2   4    4.76    0.39
  -3  -2   3    6.92    0.42
  -3  -2   2    6.66    0.38
   3   2  -1   69.75    1.32
   3   2   0   21.78    0.85
   3   2   1   41.34    1.15
   3   2   2  257.13    2.90
   3   2   3   45.69    1.29
   3   2   4    5.21    0.55
   3   2   5   37.35    1.35
   3   2   6   39.78    1.46
   3   2   7   73.84    2.16
   3   2   8  130.78    3.01
   3   2   9   85.79    2.61
   3   2  10   26.67    1.54
   3   2  11   11.21    1.10
   3   2  12   28.23    1.82
   3   2  13   43.59    2.23
   3   2  14   17.32    1.62
   3   2  15   12.61    1.41
   3   2  16    6.37    1.15
   3   2  17    4.02    1.02
   3   2  18    3.80    1.20
  -3  -3  13   15.73    1.48
  -3  -3  12   32.87    1.89
  -3  -3  11   42.29    2.02
  -3  -3  10   17.60    1.46
  -3  -3   9   20.12    1.35
  -3  -3   8   16.90    1.10
  -3  -3   7   32.50    1.28
  -3  -3   6   43.04    1.33
  -3  -3   5   30.07    0.96
  -3  -3   4   29.26    0.82
  -3  -3   3   12.49    0.51
   3   3  -1    4.45    0.36
   3   3   0    0.99    0.28
   3   3   1   66.58    1.32
   3   3   2    1.59    0.37
   3   3   3    2.59    0.48
   3   3   4    1.49    0.40
   3   3   5    2.45    0.55
   3   3   6   26.87    1.41
   3   3   7   22.94    1.37
   3   3   8   22.27    1.41
   3   3   9   24.53    1.56
   3   3  10   25.20    1.66
   3   3  11   11.56    1.26
   3   3  12   29.92    2.04
   3   3  13   19.82    1.87
   3   3  14   14.54    1.57
   3   3  15   15.04    1.56
   3   3  16    7.32    1.20
   3   3  17    5.79    1.29
  -3  -4   9   32.58    1.49
  -3  -4   8   26.10    1.24
  -3  -4   7   70.17    2.08
  -3  -4   6  132.31    2.39
  -3  -4   5  137.20    2.11
  -3  -4   4   68.99    1.21
  -3  -4   3   51.66    0.79
   3   4  -1   12.55    0.47
   3   4   1   94.03    1.53
   3   4   2  320.35    3.47
   3   4   3  215.74    2.99
   3   4   4   52.78    1.66
   3   4   5   14.88    0.95
   3   4   6    9.51    0.78
   3   4   7    0.53    0.38
   3   4   8    0.33    0.41
   3   4   9    0.51    0.45
   3   4  10   -0.50    0.40
   3   4  11    2.39    0.68
   3   4  12    7.03    1.12
   3   4  13    2.17    0.94
   3   4  14   -0.03    0.89
   3   4  15    0.07    0.96
   3   4  16    1.57    1.15
   3   4  17    0.65    0.77
   3   5   0  153.88    1.89
   3   5   1   72.02    1.36
   3   5   2   84.04    1.76
   3   5   3  129.80    2.28
   3   5   4   89.09    2.00
   3   5   5   78.21    2.00
   3   5   6   29.97    1.36
   3   5   7   23.09    1.29
   3   5   8   44.80    1.85
   3   5   9   23.24    1.46
   3   5  10   17.58    1.40
   3   5  11    4.45    0.83
   3   5  12    1.00    0.65
   3   5  13   -0.59    0.50
   3   5  14    0.66    0.67
   3   5  15    0.07    0.69
   3   5  16    0.60    0.96
   3   5  17    0.80    0.94
   3   6   2  102.54    1.86
   3   6   3   74.58    1.73
   3   6   4   45.57    1.49
   3   6   5   41.27    1.76
   3   6   6   42.75    1.87
   3   6   7   65.88    2.44
   3   6   8   69.97    2.72
   3   6   9   55.32    2.36
   3   6  10   24.45    1.58
   3   6  11   11.56    1.22
   3   6  12    8.51    1.13
   3   6  13    7.87    1.15
   3   6  14    7.09    1.28
   3   6  15    5.92    1.25
   3   6  16    3.85    1.12
   3   7   3   18.80    1.08
   3   7   4   16.82    1.14
   3   7   5   25.09    1.47
   3   7   6   29.22    1.68
   3   7   7   65.25    2.64
   3   7   8   46.21    2.40
   3   7   9   47.50    2.60
   3   7  10   29.78    2.15
   3   7  11   16.98    1.68
   3   7  12   17.45    1.71
   3   7  13   12.89    1.55
   3   7  14   12.42    1.49
   3   7  15   13.92    1.76
   3   7  16    5.42    1.34
   3   8   6    0.71    0.61
   3   8   7   13.43    1.41
   3   8   8   13.09    1.43
   3   8   9    6.89    1.32
   3   8  10    7.86    1.47
   3   8  11   11.99    1.73
   3   8  12   14.90    1.81
   3   8  14   12.01    1.74
   3   8  15    7.31    1.55
   3   9  11   -0.67    0.62
   3   9  12   -0.56    0.98
   3   9  13    1.58    1.13
   3   9  14    1.31    0.93
  -4   9   8   -0.26    0.88
  -4   9   7    2.07    1.19
  -4   9   6    0.47    0.79
  -4   9   5    0.22    0.99
  -4   8  10   11.03    1.60
  -4   8   9   15.11    1.64
  -4   8   8   14.51    1.72
  -4   8   6    4.78    1.18
  -4   8   5    4.56    1.38
  -4   8   4    4.95    1.08
  -4   8   3    4.42    1.15
  -4   8   2    5.17    1.23
  -4   8   1    2.49    0.88
  -4   8   0    2.49    1.00
  -4   7  12    4.57    1.16
  -4   7  11    7.91    1.51
  -4   7  10   11.31    1.60
  -4   7   9   11.50    1.29
  -4   7   8   30.31    2.20
  -4   7   7   28.45    1.93
  -4   7   6   26.21    1.88
  -4   7   5   41.52    2.51
  -4   7   4   33.66    1.92
  -4   7   3   38.11    2.22
  -4   7   2   47.49    2.21
  -4   7   1   40.47    2.20
  -4   7   0   52.56    2.39
  -4   7  -1   38.65    1.95
  -4   7  -2   12.74    1.17
  -4   7  -3   11.55    1.26
  -4   7  -4    4.86    0.83
  -4   6  13   -0.04    0.70
  -4   6  12    0.03    0.73
  -4   6  11    3.06    1.09
  -4   6  10    3.51    0.84
  -4   6   9    8.87    1.25
  -4   6   8   13.10    1.43
  -4   6   7   18.92    1.43
  -4   6   6   43.43    2.49
  -4   6   5   33.51    1.86
  -4   6   4   38.48    2.06
  -4   6   3   55.61    2.23
  -4   6   2   57.97    2.34
  -4   6   1   75.06    2.62
  -4   6   0   62.05    2.19
  -4   6  -1   53.51    2.13
  -4   6  -2   48.05    2.07
  -4   6  -3   28.28    1.52
  -4   6  -4   26.31    1.47
   4  -6   5   25.62    1.50
   4  -6   6   16.11    1.25
   4  -6   7    9.96    0.95
   4  -6   8    8.95    1.10
  -4   5  14    0.06    0.68
  -4   5  13    0.77    0.75
  -4   5  12   -0.97    0.84
  -4   5  11    1.07    0.69
  -4   5  10    0.72    0.65
  -4   5   9   -0.51    0.65
  -4   5   8    1.43    0.75
  -4   5   7    3.55    0.90
  -4   5   6    5.86    0.98
  -4   5   5   32.51    1.77
  -4   5   4   27.57    1.63
  -4   5   3   28.26    1.59
  -4   5   2   32.77    1.72
  -4   5   1   52.14    1.89
  -4   5   0   90.65    2.56
  -4   5  -1   66.21    2.21
  -4   5  -2   66.09    2.01
  -4   5  -3   70.83    2.39
   4  -5   4   31.13    1.58
   4  -5   5   23.22    1.23
   4  -5   6   83.24    2.53
   4  -5   7   63.45    2.29
   4  -5   8   30.93    1.73
   4  -5   9   19.47    1.58
   4  -5  10   12.64    1.32
   4  -5  11   10.06    1.14
  -4   4  15    3.96    1.12
  -4   4  14    3.89    1.09
  -4   4  13    4.34    0.99
  -4   4  12    5.68    1.21
  -4   4  11    4.39    0.90
  -4   4  10    2.05    0.63
  -4   4   9    2.62    0.69
  -4   4   8    2.91    0.68
  -4   4   7    5.80    0.90
  -4   4   6    0.03    0.53
  -4   4   5    3.75    0.84
  -4   4   4    7.35    0.79
  -4   4   3    0.66    0.60
  -4   4   2    0.65    0.41
  -4   4   1    1.13    0.42
  -4   4   0    3.18    0.58
  -4   4  -1   20.25    1.11
  -4   4  -2   61.03    2.09
   4  -4   3   82.21    2.44
   4  -4   4   83.95    2.26
   4  -4   5   58.48    1.99
   4  -4   6   27.95    1.60
   4  -4   7    0.22    0.66
   4  -4   8    7.71    0.95
   4  -4   9   11.41    1.03
   4  -4  10   11.43    1.07
   4  -4  11    7.91    0.90
   4  -4  12   10.48    1.18
   4  -4  13    7.21    1.01
   4  -4  14    6.19    1.04
   4  -4  15    4.35    0.97
  -4   3  16    3.87    1.19
  -4   3  15    3.26    1.10
  -4   3  14    4.24    0.95
  -4   3  13    7.66    1.20
  -4   3  12   14.19    1.40
  -4   3  11   15.48    1.36
  -4   3  10   18.06    1.27
  -4   3   9   19.16    1.32
  -4   3   8   28.21    1.54
  -4   3   7   30.78    1.85
  -4   3   6   24.24    1.34
  -4   3   5   59.04    2.10
  -4   3   4   25.86    1.24
  -4   3   3   38.04    1.58
  -4   3   2   24.71    1.16
  -4   3   1   37.87    1.56
  -4   3   0   10.04    0.84
  -4   3  -1    3.69    0.59
   4  -3   2    1.39    0.46
   4  -3   3    0.18    0.30
   4  -3   4    0.07    0.33
   4  -3   5    2.81    0.54
   4  -3   6    1.99    0.68
   4  -3   7   16.30    1.08
   4  -3   8   11.23    0.90
   4  -3   9    7.83    0.85
   4  -3  10    8.12    1.04
   4  -3  11    8.99    1.17
   4  -3  12    5.87    0.97
   4  -3  13    4.53    0.98
   4  -3  14    8.49    1.28
   4  -3  15    4.55    1.19
   4  -3  16    2.51    1.02
   4  -3  17    3.02    1.04
  -4   2  16    0.67    0.68
  -4   2  15    2.24    1.01
  -4   2  14    1.55    0.87
  -4   2  13    5.94    0.97
  -4   2  12   10.40    1.16
  -4   2  11   16.57    1.42
  -4   2  10   29.09    1.58
  -4   2   9   29.65    1.60
  -4   2   8   20.00    1.24
  -4   2   7   37.51    1.88
  -4   2   6   51.51    1.74
  -4   2   5   83.11    2.31
  -4   2   4   82.22    2.08
  -4   2   3  107.26    2.43
  -4   2   2   79.46    1.98
  -4   2   1   97.64    2.24
  -4   2   0   30.20    1.15
   4  -2   1  141.38    2.83
   4  -2   2   68.88    1.81
   4  -2   3   42.75    1.70
   4  -2   4   17.97    1.22
   4  -2   5    4.45    0.60
   4  -2   6    1.72    0.51
   4  -2   7    1.87    0.60
   4  -2   8    0.84    0.59
   4  -2   9   -0.86    0.63
   4  -2  10   -0.35    0.64
   4  -2  11    0.95    0.70
   4  -2  12   -0.45    0.57
   4  -2  13    0.54    0.59
   4  -2  14    0.21    0.62
   4  -2  15   -0.17    0.62
   4  -2  16    0.49    0.55
   4  -2  17   -0.09    0.53
  -4   1  17   -1.24    0.70
  -4   1  16   -0.04    0.86
  -4   1  15   -0.18    0.84
  -4   1  14    0.21    0.60
  -4   1  13    0.40    0.78
  -4   1  12    0.33    0.55
  -4   1  11    2.68    0.70
  -4   1  10    4.56    0.82
  -4   1   9    3.61    0.57
  -4   1   8   13.37    0.99
  -4   1   7   30.90    1.57
  -4   1   6   22.93    1.15
  -4   1   5   51.76    1.72
  -4   1   4   86.84    2.09
  -4   1   3  117.99    2.32
  -4   1   2  126.38    2.47
  -4   1   1  117.67    2.33
   4  -1   0  332.12    4.37
   4  -1   1  128.41    2.31
   4  -1   2  142.75    2.73
   4  -1   3  137.98    2.98
   4  -1   5   70.43    1.93
   4  -1   6   68.08    2.10
   4  -1   7   19.53    1.28
   4  -1   8   12.41    1.04
   4  -1   9   16.35    1.07
   4  -1  10   13.46    1.06
   4  -1  11   10.78    1.01
   4  -1  12    4.26    0.78
   4  -1  13    0.03    0.50
   4  -1  14   -0.32    0.67
   4  -1  15   -0.04    0.74
   4  -1  16    0.96    0.87
   4  -1  17    0.04    0.86
  -4   0  18    0.48    0.94
  -4   0  17    0.37    0.76
  -4   0  16    3.19    1.13
  -4   0  15    6.18    1.14
  -4   0  14    5.21    1.13
  -4   0  13    1.36    0.67
  -4   0  12   -0.61    0.45
  -4   0  11   -0.14    0.48
  -4   0  10   -0.32    0.50
  -4   0   9    0.65    0.38
  -4   0   8    1.30    0.44
  -4   0   7    6.15    0.63
  -4   0   6   32.42    1.28
  -4   0   5   11.06    0.83
  -4   0   3   14.84    0.77
  -4   0   2   53.55    1.55
  -4   0   1   21.08    0.85
   4   0   0   80.26    2.07
   4   0   1  239.51    3.50
   4   0   2  186.39    3.23
   4   0   3  243.05    3.48
   4   0   4  126.45    2.56
   4   0   5  272.83    4.34
   4   0   6   35.14    1.55
   4   0   7   29.28    1.29
   4   0   8   63.31    2.08
   4   0   9   50.96    1.98
   4   0  10   45.58    1.90
   4   0  11   27.91    1.61
   4   0  12   12.93    1.25
   4   0  13    7.54    0.98
   4   0  14    3.73    0.80
   4   0  15    0.93    0.61
   4   0  16    1.32    0.69
   4   0  17    0.44    0.89
  -4  -1  18    2.39    1.06
  -4  -1  17    3.19    1.13
  -4  -1  16    3.08    0.95
  -4  -1  15    4.19    1.12
  -4  -1  14    6.42    1.16
  -4  -1  13    5.26    1.08
  -4  -1  12    5.45    1.00
  -4  -1  11   11.61    1.24
  -4  -1  10   16.84    1.26
  -4  -1   9   22.44    1.34
  -4  -1   8   10.25    0.76
  -4  -1   7    5.66    0.62
  -4  -1   6    6.84    0.72
  -4  -1   5    9.37    0.75
  -4  -1   4    2.86    0.48
  -4  -1   3   29.05    0.98
  -4  -1   2   25.73    1.00
  -4  -1   1    2.82    0.50
   4   1   0   41.58    1.19
   4   1   1   74.20    1.98
   4   1   2   70.69    1.79
   4   1   3   20.36    1.09
   4   1   4    5.74    0.72
   4   1   5   17.30    0.94
   4   1   6   25.21    1.28
   4   1   7   76.77    2.15
   4   1   8   66.10    2.13
   4   1   9   14.74    1.11
   4   1  10   41.10    1.92
   4   1  11   34.42    1.84
   4   1  12   11.92    1.17
   4   1  13   11.36    1.35
   4   1  14   14.99    1.56
   4   1  15    9.41    1.21
   4   1  16    7.23    1.12
   4   1  17    7.24    1.33
  -4  -2  16    2.10    0.86
  -4  -2  15    4.50    0.97
  -4  -2  14   10.63    1.61
  -4  -2  13   12.86    1.44
  -4  -2  12   15.06    1.33
  -4  -2  11   24.22    1.57
  -4  -2  10   47.81    2.04
  -4  -2   9   31.64    1.54
  -4  -2   8   53.65    1.77
  -4  -2   7   42.12    1.46
  -4  -2   6   54.14    1.51
  -4  -2   5   45.02    1.25
  -4  -2   4   73.20    1.47
  -4  -2   3   78.75    1.54
  -4  -2   2   60.74    1.38
   4   2  -1   63.79    1.55
   4   2   0   22.61    0.99
   4   2   1   24.60    1.16
   4   2   2    4.79    0.60
   4   2   3    9.66    0.92
   4   2   5    1.90    0.45
   4   2   6    1.27    0.44
   4   2   7    7.59    0.77
   4   2   8   28.12    1.46
   4   2   9   37.12    1.83
   4   2  10   18.58    1.39
   4   2  11   11.79    1.15
   4   2  12    3.64    0.91
   4   2  13   12.03    1.35
   4   2  14   14.78    1.46
   4   2  15    8.59    1.22
   4   2  16    5.58    1.24
   4   2  17    3.44    1.14
  -4  -3  12   12.12    1.50
  -4  -3  11   39.35    2.00
  -4  -3  10   28.36    1.62
  -4  -3   9   14.70    1.11
  -4  -3   8   28.19    1.33
  -4  -3   7   32.93    1.30
  -4  -3   6   59.51    1.55
  -4  -3   5  118.47    2.20
  -4  -3   4  131.36    2.08
  -4  -3   3  103.57    1.69
  -4  -3   2   83.02    1.47
   4   3  -1   51.36    1.35
   4   3   0  318.67    3.91
   4   3   1  178.87    2.61
   4   3   2   71.72    1.88
   4   3   3  122.84    2.27
   4   3   4   70.49    1.81
   4   3   5   34.31    1.37
   4   3   6   14.77    1.08
   4   3   7    3.56    0.60
   4   3   8    4.07    0.65
   4   3   9    2.81    0.62
   4   3  10    1.26    0.71
   4   3  11    0.70    0.53
   4   3  12   -0.12    0.51
   4   3  13    3.26    0.81
   4   3  14    0.03    0.81
   4   3  15    0.65    0.67
   4   3  16    1.92    0.96
   4   3  17    0.75    0.89
  -4  -4   8    9.23    0.85
  -4  -4   7   13.75    0.96
  -4  -4   6   13.35    0.88
  -4  -4   5   53.77    1.28
  -4  -4   3  112.35    1.50
  -4  -4   2  243.70    2.55
   4   4  -1  307.64    3.33
   4   4   0  204.12    2.94
   4   4   1  143.88    2.38
   4   4   2  286.60    3.34
   4   4   3  302.29    3.75
   4   4   4  146.43    2.74
   4   4   5   57.81    1.82
   4   4   6   65.21    2.00
   4   4   7   62.88    2.16
   4   4   8   30.95    1.59
   4   4   9   40.80    1.89
   4   4  10   38.38    1.98
   4   4  11   25.11    1.72
   4   4  12    5.31    1.04
   4   4  13    6.42    1.03
   4   4  14    1.25    0.89
   4   4  15   -0.28    0.56
   4   4  16   -0.14    0.61
   4   4  17   -0.18    0.64
  -4  -5   3    8.70    0.39
  -4  -5   2   19.36    0.51
   4   5  -1   39.57    0.91
   4   5   1  176.94    2.80
   4   5   2  156.66    2.47
   4   5   3   98.55    2.11
   4   5   4   87.56    2.07
   4   5   5  102.70    2.50
   4   5   6   65.39    2.07
   4   5   7   61.33    2.16
   4   5   8   53.90    2.13
   4   5   9   64.48    2.66
   4   5  10   46.06    2.39
   4   5  11   17.96    1.69
   4   5  12    4.61    0.91
   4   5  13    3.91    1.08
   4   5  14    1.55    0.74
   4   5  15    6.83    1.17
   4   5  16    9.49    1.40
   4   6   0   -0.11    0.23
   4   6   1    0.61    0.33
   4   6   2    5.35    0.52
   4   6   3    9.69    0.71
   4   6   4   13.91    0.93
   4   6   5   39.63    1.60
   4   6   6   29.87    1.61
   4   6   7   28.33    1.63
   4   6   8   62.35    2.53
   4   6   9   27.40    1.80
   4   6  10   22.08    1.71
   4   6  11   26.39    1.99
   4   6  12   19.46    1.82
   4   6  13   21.77    2.06
   4   6  14   10.54    1.49
   4   6  15    5.47    1.19
   4   6  16    3.10    1.01
   4   7   3    1.14    0.37
   4   7   4    1.79    0.60
   4   7   5    2.81    0.68
   4   7   6    0.65    0.58
   4   7   7    5.23    0.85
   4   7   8    0.86    0.60
   4   7   9    2.69    0.74
   4   7  10    6.76    1.02
   4   7  11    5.37    1.11
   4   7  12    4.26    1.04
   4   7  13    9.49    1.46
   4   7  14    6.62    1.50
   4   7  15    7.81    1.68
   4   7  16    5.48    1.62
   4   8   7    1.93    0.69
   4   8   8    3.92    0.90
   4   8   9    0.93    0.74
   4   8  10    1.35    0.79
   4   8  11    0.99    0.86
   4   8  12   -0.52    0.69
   4   8  13   -1.00    0.86
   4   8  14   -0.10    1.09
   4   8  15    0.02    1.14
   4   9  14   -0.21    1.15
  -5   9   6    8.30    1.55
  -5   9   5    5.60    1.26
  -5   8   8    2.64    1.05
  -5   8   7    8.44    1.40
  -5   8   6   21.55    2.19
  -5   8   5   18.54    2.06
  -5   8   4   28.35    2.15
  -5   8   3   52.73    3.07
  -5   8   2   24.51    2.02
  -5   8   1   22.89    1.91
  -5   8   0   27.19    2.23
  -5   7  10    0.60    0.66
  -5   7   9    3.29    1.20
  -5   7   8    5.98    1.15
  -5   7   7   11.49    1.53
  -5   7   6    8.06    1.55
  -5   7   5    9.91    1.26
  -5   7   4   18.96    1.73
  -5   7   3   28.82    2.07
  -5   7   2   32.12    2.02
  -5   7   1   31.45    2.18
  -5   7   0   22.56    1.84
  -5   7  -1   27.15    1.80
  -5   7  -2   30.13    1.91
  -5   7  -3   35.01    2.13
  -5   7  -4   33.67    2.07
  -5   7  -5    7.51    0.99
  -5   6  11    0.13    0.70
  -5   6  10    0.14    0.81
  -5   6   9    0.47    0.69
  -5   6   8    0.93    0.65
  -5   6   7    0.16    0.98
  -5   6   6    1.74    0.90
  -5   6   5    5.20    1.09
  -5   6   4    1.39    0.71
  -5   6   3    0.46    0.49
  -5   6   2    3.00    0.96
  -5   6   1    5.00    0.99
  -5   6   0   13.79    1.19
  -5   6  -1   20.91    1.53
  -5   6  -2    8.94    1.16
  -5   6  -3    6.45    0.94
  -5   6  -4   15.70    1.17
  -5   6  -5   41.77    2.19
   5  -6   6   32.49    1.76
   5  -6   7   24.43    1.53
   5  -6   8   17.35    1.34
  -5   5  13    4.41    1.10
  -5   5  12    5.31    1.22
  -5   5  11    3.12    0.83
  -5   5  10    8.67    1.25
  -5   5   9    6.97    1.19
  -5   5   8    5.99    1.09
  -5   5   7    7.16    1.30
  -5   5   6    7.05    1.03
  -5   5   5    0.22    0.57
  -5   5   4   -0.89    0.56
  -5   5   3    0.21    0.51
  -5   5   2    1.79    0.62
  -5   5   1    1.95    0.68
  -5   5   0    1.42    0.52
  -5   5  -1    0.73    0.50
  -5   5  -2    3.09    0.79
  -5   5  -3    8.48    0.88
   5  -5   4    8.89    0.97
   5  -5   5    1.80    0.62
   5  -5   6    5.03    0.66
   5  -5   7   16.50    1.35
   5  -5   8    7.36    1.01
   5  -5   9   10.53    1.29
   5  -5  10    9.04    1.24
   5  -5  11   10.58    1.22
  -5   4  14    0.49    0.73
  -5   4  13    4.79    1.08
  -5   4  12    2.26    0.81
  -5   4  11    9.88    1.18
  -5   4  10   16.26    1.40
  -5   4   9   28.42    1.81
  -5   4   8   39.05    2.21
  -5   4   7   35.08    2.09
  -5   4   6   36.29    1.97
  -5   4   5   14.49    1.29
  -5   4   4   29.08    1.54
  -5   4   3   26.85    1.62
  -5   4   2   11.88    1.03
  -5   4   1    4.57    0.70
  -5   4   0    2.91    0.71
  -5   4  -1    1.31    0.60
  -5   4  -2   12.53    1.13
   5  -4   3   28.37    1.49
   5  -4   4   30.58    1.53
   5  -4   5   18.52    1.15
   5  -4   6    4.12    0.70
   5  -4   7    5.85    0.98
   5  -4   8   -0.06    0.60
   5  -4   9    1.01    0.79
   5  -4  10    2.15    0.70
   5  -4  11    0.81    0.56
   5  -4  12    1.68    0.72
   5  -4  13    1.99    0.79
   5  -4  14    2.43    0.86
   5  -4  15    3.22    0.97
  -5   3  15    0.99    0.74
  -5   3  14    0.19    0.87
  -5   3  13    1.15    0.74
  -5   3  12    5.61    1.09
  -5   3  11    8.64    1.07
  -5   3  10   13.57    1.37
  -5   3   9   24.34    1.65
  -5   3   8   26.52    1.61
  -5   3   7   34.86    1.88
  -5   3   6   35.32    1.87
  -5   3   5   43.92    1.88
  -5   3   4   77.46    2.49
  -5   3   3   62.50    2.22
  -5   3   2   37.28    1.58
  -5   3   1   35.35    1.65
  -5   3   0   82.12    2.42
  -5   3  -1   41.03    1.58
   5  -3   2   52.70    1.94
   5  -3   3   34.73    1.44
   5  -3   4   18.22    1.16
   5  -3   5    9.96    0.92
   5  -3   6   20.33    1.36
   5  -3   7   35.71    1.95
   5  -3   8   10.38    1.11
   5  -3   9    5.39    0.84
   5  -3  10    1.65    0.53
   5  -3  11    1.61    0.54
   5  -3  12    2.22    0.80
   5  -3  13    0.80    0.77
   5  -3  14    0.15    0.76
   5  -3  15   -0.99    0.73
   5  -3  16    0.06    0.65
  -5   2  15   -0.42    0.60
  -5   2  14   -0.26    0.85
  -5   2  13    0.04    0.58
  -5   2  12   -0.51    0.53
  -5   2  11    0.72    0.52
  -5   2  10    3.20    0.69
  -5   2   9   12.44    1.20
  -5   2   8    7.43    0.89
  -5   2   7    6.08    0.85
  -5   2   6   24.31    1.52
  -5   2   5   43.25    1.72
  -5   2   4   28.30    1.52
  -5   2   3   42.51    1.67
  -5   2   2   43.12    1.63
  -5   2   1   42.69    1.70
  -5   2   0   32.52    1.36
   5  -2   1   30.18    1.48
   5  -2   2   51.40    1.82
   5  -2   3  101.63    2.68
   5  -2   4   77.52    2.44
   5  -2   5   66.50    2.33
   5  -2   6   54.34    2.17
   5  -2   7   10.89    0.98
   5  -2   8   12.46    1.04
   5  -2   9   26.80    1.56
   5  -2  10   32.66    1.81
   5  -2  11   21.37    1.60
   5  -2  12   12.35    1.24
   5  -2  13   11.92    1.35
   5  -2  14    4.73    1.05
   5  -2  15    2.52    1.15
   5  -2  16    1.37    0.85
  -5   1  16    1.66    0.82
  -5   1  15    5.30    1.18
  -5   1  14    5.33    0.99
  -5   1  13    4.59    0.90
  -5   1  12    4.67    0.95
  -5   1  11    3.12    0.71
  -5   1  10    0.56    0.43
  -5   1   9    0.95    0.51
  -5   1   8   -0.06    0.40
  -5   1   7    1.12    0.50
  -5   1   6    0.04    0.40
  -5   1   5    3.61    0.54
  -5   1   4   23.78    1.31
  -5   1   3   30.20    1.30
  -5   1   2   19.05    1.20
  -5   1   1    5.65    0.75
  -5   1   0    6.64    0.85
   5  -1   1   52.93    1.92
   5  -1   2   42.80    1.65
   5  -1   3   87.07    2.53
   5  -1   4   95.90    2.82
   5  -1   5   48.80    1.87
   5  -1   6   41.33    1.65
   5  -1   7   14.17    1.04
   5  -1   8   37.89    1.82
   5  -1   9   31.54    1.68
   5  -1  10   28.03    1.80
   5  -1  11   28.73    1.89
   5  -1  12   40.08    2.19
   5  -1  13   14.16    1.32
   5  -1  14    6.44    0.95
   5  -1  15    7.07    1.04
   5  -1  16    4.76    0.98
  -5   0  17    2.69    1.09
  -5   0  16    2.53    0.90
  -5   0  15    6.12    1.30
  -5   0  14    3.16    0.85
  -5   0  13    2.07    0.72
  -5   0  12    4.51    0.88
  -5   0  11    5.46    0.85
  -5   0  10   15.84    1.18
  -5   0   9   37.73    1.80
  -5   0   8   36.66    1.65
  -5   0   7   20.44    1.23
  -5   0   6    5.70    0.80
  -5   0   5    4.09    0.53
  -5   0   4   17.02    1.04
  -5   0   3    3.31    0.49
  -5   0   2    0.06    0.32
  -5   0   1    0.17    0.36
   5   0   0   25.86    1.28
   5   0   1    8.65    0.69
   5   0   2   -0.11    0.37
   5   0   3    3.78    0.78
   5   0   4    2.54    0.58
   5   0   5    5.64    0.65
   5   0   6   19.48    1.30
   5   0   7    3.69    0.66
   5   0   8    5.45    0.89
   5   0   9   18.61    1.32
   5   0  10    8.64    0.92
   5   0  11    7.64    0.84
   5   0  12    5.47    0.79
   5   0  13    1.73    0.81
   5   0  14    3.92    0.82
   5   0  15    5.79    1.15
   5   0  16    9.00    1.37
   5   0  17    7.28    1.36
  -5  -1  17    0.69    1.16
  -5  -1  16    2.20    1.16
  -5  -1  15    6.07    1.21
  -5  -1  14    6.30    1.20
  -5  -1  13    9.72    1.17
  -5  -1  12    9.60    1.14
  -5  -1  11   19.90    1.59
  -5  -1  10   35.50    1.74
  -5  -1   9   46.64    1.79
  -5  -1   8   63.89    2.02
  -5  -1   7   88.71    2.62
  -5  -1   6   25.24    1.19
  -5  -1   5   21.96    1.06
  -5  -1   4   22.94    1.14
  -5  -1   3   23.35    1.06
  -5  -1   2  126.53    2.52
  -5  -1   1   52.01    1.57
   5   1   0   58.09    1.90
   5   1   1   84.38    2.24
   5   1   2   14.77    1.00
   5   1   3    3.35    0.58
   5   1   4   13.10    0.90
   5   1   5   10.41    0.90
   5   1   6    2.96    0.67
   5   1   7    0.82    0.58
   5   1   8    0.88    0.43
   5   1  10   -0.18    0.43
   5   1  11    0.33    0.68
   5   1  12    1.47    0.73
   5   1  13    1.87    0.65
   5   1  14    3.05    0.91
   5   1  15    2.57    0.91
   5   1  16    4.25    1.07
   5   1  17    2.60    0.85
  -5  -2  15    0.66    0.96
  -5  -2  14   -0.32    0.73
  -5  -2  13    1.64    0.84
  -5  -2  12    9.63    1.22
  -5  -2  11   17.45    1.39
  -5  -2  10   27.51    1.65
  -5  -2   9   32.46    1.46
  -5  -2   8   34.12    1.50
  -5  -2   7   44.85    1.69
  -5  -2   6   40.02    1.40
  -5  -2   5   67.14    1.74
  -5  -2   4   49.89    1.55
  -5  -2   3   38.14    1.25
  -5  -2   2  132.88    2.45
   5   2   0  108.83    2.22
   5   2   1   95.32    2.50
   5   2   2  100.44    2.65
   5   2   3   76.69    2.08
   5   2   4   34.05    1.49
   5   2   5   21.91    1.38
   5   2   6   27.47    1.29
   5   2   7    9.16    0.95
   5   2   8    2.83    0.63
   5   2  10    7.73    0.99
   5   2  11    3.96    0.74
   5   2  12    3.48    0.91
   5   2  13    2.65    0.74
   5   2  14   -0.19    0.55
   5   2  15   -0.31    0.59
   5   2  16    0.25    0.60
   5   2  17    0.13    0.85
  -5  -3  11   -0.16    0.63
  -5  -3  10    9.18    1.05
  -5  -3   9    7.41    0.92
  -5  -3   8    4.59    0.61
  -5  -3   7    5.15    0.65
  -5  -3   6   14.20    0.98
  -5  -3   5   19.33    1.00
  -5  -3   4   59.91    1.63
  -5  -3   3   89.42    1.77
  -5  -3   2   77.55    1.74
   5   3  -1   83.97    2.00
   5   3   0   72.43    1.92
   5   3   1  302.51    4.58
   5   3   2  102.79    2.27
   5   3   3  101.55    2.50
   5   3   4  146.27    3.29
   5   3   5  114.57    2.49
   5   3   6   65.78    2.14
   5   3   7   43.63    1.75
   5   3   8   59.35    2.15
   5   3   9   25.59    1.55
   5   3  10   15.42    1.24
   5   3  11   33.41    1.92
   5   3  12   34.61    1.96
   5   3  13    9.54    1.31
   5   3  14    2.93    1.00
   5   3  15    3.18    1.02
   5   3  16    0.67    0.63
   5   3  17    1.29    0.96
  -5  -4   7    0.87    0.38
  -5  -4   6    9.23    0.70
  -5  -4   5   12.37    0.73
  -5  -4   4   14.11    0.67
  -5  -4   3   19.79    0.79
  -5  -4   2    9.57    0.60
   5   4  -1    5.05    0.55
   5   4   0   53.27    1.55
   5   4   1   10.12    0.83
   5   4   2   24.49    1.18
   5   4   3  191.17    3.69
   5   4   4   65.58    1.81
   5   4   5   54.89    1.86
   5   4   6   44.54    1.68
   5   4   7   60.83    2.15
   5   4   8   44.98    1.90
   5   4   9   77.45    2.74
   5   4  10   51.57    2.34
   5   4  11   26.71    1.77
   5   4  12    8.88    1.20
   5   4  13    2.82    0.90
   5   4  14   10.23    1.35
   5   4  15    7.14    1.17
   5   4  16    7.29    1.37
  -5  -5   3   12.22    0.63
  -5  -5   2    7.00    0.48
   5   5  -1    4.61    0.50
   5   5   0    0.31    0.42
   5   5   1    3.64    0.50
   5   5   2    4.61    0.64
   5   5   3    8.77    0.73
   5   5   4   14.60    1.00
   5   5   5   10.43    0.92
   5   5   6    6.96    0.76
   5   5   7    4.56    0.83
   5   5   8    0.20    0.62
   5   5   9    1.30    0.71
   5   5  10    7.72    1.05
   5   5  11   14.10    1.29
   5   5  12    9.54    1.14
   5   5  13   15.36    1.46
   5   5  14    7.82    1.14
   5   5  15    8.09    1.34
   5   5  16    3.80    0.99
   5   6   1   20.24    0.91
   5   6   2   17.61    1.06
   5   6   3   13.71    0.88
   5   6   4    8.88    0.79
   5   6   5    2.16    0.58
   5   6   6    1.88    0.64
   5   6   7    9.11    0.99
   5   6   8    0.87    0.63
   5   6   9    1.50    0.77
   5   6  10    0.31    0.50
   5   6  11    0.44    0.79
   5   6  12    0.49    0.82
   5   6  13    2.94    1.04
   5   6  14    0.63    0.67
   5   6  15    6.05    1.33
   5   6  16    3.31    1.18
   5   7   4   46.89    1.64
   5   7   5   22.08    1.25
   5   7   6   20.13    1.24
   5   7   7   18.76    1.24
   5   7   8   11.89    1.19
   5   7   9   10.38    1.20
   5   7  10    4.79    0.91
   5   7  11    2.78    0.88
   5   7  12    0.51    0.61
   5   7  13   -0.08    0.58
   5   7  14   -0.80    0.82
   5   7  15   -0.31    0.67
   5   8   8   22.24    1.53
   5   8   9   13.29    1.28
   5   8  10   18.66    1.63
   5   8  11    9.83    1.34
   5   8  12    6.16    1.22
   5   8  13    2.98    0.92
   5   8  14    7.73    1.44
   5   8  15    0.29    0.76
  -6   8   6    0.99    0.98
  -6   8   5    4.51    1.26
  -6   8   4    7.08    1.41
  -6   8   3    9.39    1.52
  -6   8   2   23.80    2.12
  -6   8   1   14.58    1.56
  -6   8   0   33.93    2.58
  -6   7   8    1.54    0.96
  -6   7   7    1.10    0.77
  -6   7   6    2.18    1.19
  -6   7   5    3.22    1.07
  -6   7   4    0.91    0.79
  -6   7   3   -1.08    0.77
  -6   7   2    0.45    0.60
  -6   7   1    1.98    0.84
  -6   7   0    1.57    0.96
  -6   7  -1    1.84    0.70
  -6   7  -2    5.00    1.08
  -6   7  -3   10.81    1.32
  -6   7  -4   23.55    1.91
  -6   7  -5   18.07    1.71
  -6   6  10    2.40    1.09
  -6   6   9    6.21    1.16
  -6   6   8   17.39    1.79
  -6   6   7   25.36    2.32
  -6   6   6   18.85    1.67
  -6   6   5   13.54    1.52
  -6   6   4    7.80    1.21
  -6   6   3   11.44    1.36
  -6   6   2   18.14    1.77
  -6   6   1   16.71    1.61
  -6   6   0    6.33    1.04
  -6   6  -1    0.14    0.67
  -6   6  -2   -0.18    0.73
  -6   6  -3    0.13    0.51
  -6   6  -4    0.76    0.64
  -6   6  -5    0.14    0.43
  -6   6  -6    1.29    0.67
   6  -6   7    3.98    0.94
   6  -6   8    5.60    1.08
  -6   5  11    1.39    0.70
  -6   5  10    2.39    0.88
  -6   5   9    9.31    1.31
  -6   5   8   14.61    1.82
  -6   5   7   20.75    1.90
  -6   5   6   24.47    1.73
  -6   5   5   33.08    2.15
  -6   5   4   40.25    2.12
  -6   5   3   41.92    2.33
  -6   5   2   45.13    2.27
  -6   5   1   33.94    1.90
  -6   5   0   17.83    1.45
  -6   5  -1   17.79    1.55
  -6   5  -2   13.52    1.26
  -6   5  -3    9.62    1.02
  -6   5  -4   23.36    1.75
   6  -5   5   12.92    1.19
   6  -5   6    7.71    1.05
   6  -5   7    1.74    0.61
   6  -5   8    0.61    0.46
   6  -5   9   -0.51    0.61
   6  -5  10    0.12    0.50
   6  -5  11    0.89    0.69
   6  -5  12    0.59    0.89
  -6   4  12    0.24    0.80
  -6   4  11    0.59    0.57
  -6   4  10    5.06    1.13
  -6   4   9    5.26    1.04
  -6   4   8   14.03    1.75
  -6   4   7    8.33    1.10
  -6   4   6   13.83    1.39
  -6   4   5   13.47    1.33
  -6   4   4    8.35    1.02
  -6   4   3   24.32    1.73
  -6   4   2   40.79    1.99
  -6   4   1   74.17    2.59
  -6   4   0  116.07    3.39
  -6   4  -1   97.02    2.99
  -6   4  -2   85.64    2.60
  -6   4  -3   80.33    2.87
   6  -4   4   31.65    1.67
   6  -4   5   42.86    1.93
   6  -4   6   35.46    1.79
   6  -4   7   20.70    1.50
   6  -4   8   14.63    1.35
   6  -4   9    5.85    1.09
   6  -4  10    2.65    0.85
   6  -4  11    1.19    0.94
   6  -4  12    1.85    0.98
   6  -4  13    3.97    1.14
   6  -4  14    1.15    0.76
  -6   3  13   -0.09    0.70
  -6   3  12    0.71    0.79
  -6   3  11    0.37    0.52
  -6   3  10    1.32    0.66
  -6   3   9   -0.69    0.65
  -6   3   8    0.77    0.98
  -6   3   7    0.51    0.54
  -6   3   6    0.77    0.77
  -6   3   5    1.14    0.64
  -6   3   4   18.63    1.48
  -6   3   3   29.53    1.70
  -6   3   2   29.43    1.58
  -6   3   1   20.85    1.41
  -6   3   0   13.97    1.18
  -6   3  -1   15.26    1.14
  -6   3  -2   30.99    1.74
   6  -3   3   37.99    1.79
   6  -3   4   45.16    1.74
   6  -3   5   43.75    1.91
   6  -3   6   18.11    1.27
   6  -3   7   44.91    2.19
   6  -3   8   39.54    1.96
   6  -3   9   29.69    2.01
   6  -3  10   17.83    1.55
   6  -3  11   14.35    1.35
   6  -3  12   10.73    1.21
   6  -3  13    4.15    0.82
   6  -3  14    2.94    0.77
   6  -3  15    1.42    0.66
  -6   2  14    5.35    1.32
  -6   2  13    4.64    1.19
  -6   2  12    3.90    0.90
  -6   2  11    1.48    0.59
  -6   2  10    2.06    0.69
  -6   2   9    3.26    0.87
  -6   2   8   10.61    1.35
  -6   2   7    7.98    0.95
  -6   2   6   18.06    1.43
  -6   2   5    0.17    0.43
  -6   2   4    0.76    0.55
  -6   2   1    0.23    0.43
  -6   2   0    0.01    0.39
  -6   2  -1    2.16    0.69
   6  -2   2    5.07    0.87
   6  -2   3    4.27    0.68
   6  -2   4   13.20    1.12
   6  -2   5   11.53    1.05
   6  -2   6   37.03    1.90
   6  -2   7   57.43    2.58
   6  -2   8   20.34    1.52
   6  -2   9   22.98    1.46
   6  -2  10   23.63    1.50
   6  -2  11   20.27    1.42
   6  -2  12   15.42    1.42
   6  -2  13    9.40    1.15
   6  -2  14    7.17    1.09
   6  -2  15    5.25    1.16
  -6   1  15    2.25    0.86
  -6   1  14    8.02    1.31
  -6   1  13    5.84    1.27
  -6   1  12    5.58    0.97
  -6   1  11    9.05    1.15
  -6   1  10   11.91    1.31
  -6   1   9   12.89    1.29
  -6   1   8   14.62    1.45
  -6   1   7   22.05    1.38
  -6   1   6   37.34    1.85
  -6   1   5   19.05    1.27
  -6   1   4   35.01    1.76
  -6   1   3   14.20    1.12
  -6   1   2    8.77    1.02
  -6   1   1    2.97    0.62
  -6   1   0   14.99    1.03
   6  -1   1   25.29    1.47
   6  -1   2    2.05    0.48
   6  -1   3    1.18    0.51
   6  -1   4   -0.02    0.47
   6  -1   5    0.42    0.45
   6  -1   6    1.30    0.69
   6  -1   7    0.49    0.58
   6  -1   8    7.80    0.94
   6  -1   9    9.37    0.95
   6  -1  10    6.74    0.90
   6  -1  11    8.63    1.07
   6  -1  12    7.60    1.18
   6  -1  13    6.09    1.21
   6  -1  14    3.67    1.19
   6  -1  15    3.53    1.01
  -6   0  16    1.48    1.07
  -6   0  15    2.28    1.04
  -6   0  14    2.33    0.86
  -6   0  13    2.16    0.80
  -6   0  12    4.31    0.88
  -6   0  11    6.08    0.87
  -6   0  10   14.60    1.34
  -6   0   9   34.97    1.79
  -6   0   8   67.43    2.73
  -6   0   7   36.65    1.65
  -6   0   6   32.39    1.65
  -6   0   5   29.50    1.61
  -6   0   4   22.12    1.32
  -6   0   3   22.74    1.25
  -6   0   2   64.94    2.19
  -6   0   1   76.84    2.21
   6   0   0   81.49    2.31
   6   0   1   39.81    1.85
   6   0   2   52.17    1.96
   6   0   3  107.88    3.13
   6   0   4   64.22    2.45
   6   0   5   16.68    1.35
   6   0   6   11.31    0.98
   6   0   7   14.76    1.19
   6   0   8   10.24    1.13
   6   0   9    5.34    0.84
   6   0  10    2.93    0.74
   6   0  11   -0.20    0.82
   6   0  12    0.18    0.63
   6   0  13   -0.13    0.65
   6   0  14   -0.10    0.61
   6   0  15    0.72    0.77
   6   0  16    0.90    0.86
  -6  -1  16    0.47    1.00
  -6  -1  15    0.23    0.67
  -6  -1  14    0.93    0.87
  -6  -1  13    0.80    0.81
  -6  -1  12    3.46    1.02
  -6  -1  11    0.99    0.55
  -6  -1  10    5.24    0.87
  -6  -1   9   15.49    1.27
  -6  -1   8   13.97    1.21
  -6  -1   7   17.75    1.15
  -6  -1   6   24.98    1.42
  -6  -1   5   25.52    1.46
  -6  -1   4   59.00    2.00
  -6  -1   3   55.55    1.85
  -6  -1   2  123.89    2.85
  -6  -1   1   96.95    2.39
   6   1   0   55.14    1.94
   6   1   1   55.75    1.79
   6   1   2   58.54    2.04
   6   1   3   59.81    2.16
   6   1   4  116.66    3.13
   6   1   5   64.86    2.14
   6   1   6   45.16    1.85
   6   1   7   30.98    1.67
   6   1   8   21.51    1.46
   6   1   9   17.13    1.57
   6   1  10    8.44    1.18
   6   1  11    3.33    0.76
   6   1  12    5.69    0.87
   6   1  13    4.90    0.81
   6   1  14    1.21    0.73
   6   1  15    0.74    0.57
   6   1  16    0.11    0.49
  -6  -2  14    0.91    0.87
  -6  -2  13    0.43    0.81
  -6  -2  12    0.73    0.79
  -6  -2  11    0.60    0.70
  -6  -2  10    0.20    0.38
  -6  -2   9    0.30    0.44
  -6  -2   8   -0.82    0.46
  -6  -2   7    0.57    0.54
  -6  -2   6    2.93    0.67
  -6  -2   5   19.39    1.17
  -6  -2   4   14.22    0.97
  -6  -2   3    9.97    0.85
  -6  -2   2   35.03    1.49
  -6  -2   1   52.29    1.89
   6   2   0   46.86    1.88
   6   2   1   39.96    1.74
   6   2   2   18.25    1.31
   6   2   3   53.40    2.19
   6   2   4   54.62    1.93
   6   2   5   70.17    2.34
   6   2   6  135.04    3.41
   6   2   7   79.74    2.85
   6   2   8   25.49    1.65
   6   2   9   26.05    1.50
   6   2  10   30.78    1.65
   6   2  11   17.12    1.28
   6   2  12   13.83    1.27
   6   2  13    9.73    1.15
   6   2  14    7.14    1.05
   6   2  15    5.98    1.15
   6   2  16    2.60    1.01
  -6  -3  11    9.92    1.26
  -6  -3  10    8.26    0.96
  -6  -3   9   12.96    1.07
  -6  -3   8   13.95    1.09
  -6  -3   7   15.19    1.24
  -6  -3   6    4.97    0.68
  -6  -3   5    0.55    0.36
  -6  -3   4    0.38    0.41
  -6  -3   3    2.52    0.48
  -6  -3   2    0.25    0.31
   6   3   0    0.42    0.41
   6   3   1   16.44    1.21
   6   3   2   32.43    1.66
   6   3   3   15.25    1.09
   6   3   4   19.71    1.21
   6   3   5   22.92    1.39
   6   3   6   37.05    1.95
   6   3   7   38.23    1.79
   6   3   8   61.61    2.14
   6   3   9   27.97    1.57
   6   3  10   14.08    1.37
   6   3  11   10.64    1.26
   6   3  12   15.71    1.43
   6   3  13   14.82    1.38
   6   3  14    6.83    1.16
   6   3  15    8.52    1.26
   6   3  16    5.28    1.10
  -6  -4   6   25.67    1.21
  -6  -4   5   34.23    1.36
  -6  -4   4   40.10    1.50
  -6  -4   3   40.41    1.33
  -6  -4   2   39.94    1.39
   6   4  -1   38.19    1.52
   6   4   0   30.69    1.36
   6   4   1   10.80    1.05
   6   4   2   25.63    1.41
   6   4   3    2.15    0.59
   6   4   4    4.22    0.67
   6   4   5   15.17    1.27
   6   4   6    6.56    0.76
   6   4   7    1.22    0.45
   6   4   8    0.04    0.67
   6   4   9   -0.71    0.58
   6   4  10   -0.30    0.43
   6   4  11    0.74    0.54
   6   4  12    7.78    1.12
   6   4  13    1.59    0.67
   6   4  14    3.07    0.98
   6   4  15    6.32    1.24
   6   4  16    2.96    0.90
  -6  -5   2   71.37    1.73
   6   5   0   39.43    1.51
   6   5   1  102.80    2.57
   6   5   2  119.99    2.62
   6   5   3   66.25    2.13
   6   5   4   80.46    2.66
   6   5   5   47.92    1.75
   6   5   6   33.34    1.63
   6   5   7    5.28    0.84
   6   5   8    2.08    0.68
   6   5   9    1.58    0.73
   6   5  10    0.14    0.50
   6   5  11   -0.29    0.45
   6   5  12   -0.93    0.65
   6   5  13   -0.38    0.51
   6   5  14   -0.12    0.56
   6   5  15   -0.70    0.57
   6   6   1   47.76    1.80
   6   6   2   86.55    2.16
   6   6   3  143.79    3.11
   6   6   4  101.78    2.66
   6   6   5   46.67    1.76
   6   6   6   26.02    1.44
   6   6   7   18.68    1.30
   6   6   8   29.75    1.71
   6   6   9   19.06    1.47
   6   6  10   11.63    1.28
   6   6  11    4.00    0.81
   6   6  12    4.04    1.02
   6   6  13   -0.38    0.54
   6   6  14    0.50    0.66
   6   6  15    1.15    1.00
   6   7   5   45.00    1.82
   6   7   6   46.09    1.83
   6   7   7   50.31    2.07
   6   7   8   37.34    1.90
   6   7   9   24.85    1.73
   6   7  10   20.28    1.68
   6   7  11   13.21    1.37
   6   7  12   12.28    1.48
   6   7  13    8.87    1.40
   6   7  14    7.93    1.39
   6   7  15    3.44    1.22
   6   8  10    5.70    0.96
   6   8  11   10.60    1.37
   6   8  12    1.97    0.77
   6   8  13    1.55    0.79
   6   8  14    6.83    1.35
  -7   7   5   13.11    1.74
  -7   7   4   14.97    1.82
  -7   7   3   11.94    1.67
  -7   7   2    5.97    1.12
  -7   7   1    7.89    1.51
  -7   7   0    8.43    1.43
  -7   7  -1    3.22    0.94
  -7   7  -2    2.78    0.84
  -7   7  -3    2.85    1.04
  -7   7  -4    1.21    0.95
  -7   7  -5    0.18    0.85
  -7   6   7   13.64    1.88
  -7   6   6    7.45    1.21
  -7   6   5   27.40    2.35
  -7   6   4   18.20    1.81
  -7   6   3   19.38    1.81
  -7   6   2   32.31    2.39
  -7   6   1   26.19    2.02
  -7   6   0   30.76    2.08
  -7   6  -1   19.44    1.65
  -7   6  -2   18.54    1.82
  -7   6  -3    7.08    1.16
  -7   6  -4    8.19    1.19
  -7   6  -5    4.65    0.95
  -7   6  -6    7.95    1.05
  -7   6  -7    3.05    1.13
   7  -6   8    1.99    0.71
   7  -6   9    2.65    1.04
  -7   5   9    2.35    0.84
  -7   5   8    7.89    1.68
  -7   5   7   13.45    1.58
  -7   5   6   14.12    1.52
  -7   5   5    5.32    1.15
  -7   5   3   12.49    1.60
  -7   5   2   23.60    1.93
  -7   5   1   42.82    2.28
  -7   5   0   65.86    2.79
  -7   5  -1   40.91    2.26
  -7   5  -2   40.40    2.32
  -7   5  -3   25.61    1.80
  -7   5  -4   24.37    1.66
  -7   5  -5   29.91    2.03
   7  -5   6   23.36    1.72
   7  -5   7   20.32    1.78
   7  -5   8   12.87    1.29
   7  -5   9    9.56    1.14
   7  -5  10    8.50    1.25
   7  -5  11    6.02    1.16
  -7   4  10    2.63    1.03
  -7   4   9    0.97    0.67
  -7   4   8    1.12    0.93
  -7   4   7    1.47    0.72
  -7   4   6    0.87    0.73
  -7   4   5    0.15    0.57
  -7   4   4    5.68    1.18
  -7   4   3   14.79    1.56
  -7   4   2   27.25    1.85
  -7   4   1   22.27    1.59
  -7   4   0   16.20    1.45
  -7   4  -1   17.31    1.52
  -7   4  -2   18.83    1.55
  -7   4  -3   15.43    1.39
  -7   4  -4    6.23    1.00
   7  -4   4    5.47    0.82
   7  -4   5   11.09    1.12
   7  -4   6   15.37    1.28
   7  -4   7   13.44    1.21
   7  -4   8   13.17    1.26
   7  -4   9   16.48    1.50
   7  -4  10   21.04    1.80
   7  -4  11   16.97    1.78
   7  -4  12   11.30    1.44
  -7   3  12    5.67    1.15
  -7   3  11    6.64    1.15
  -7   3  10    5.47    1.07
  -7   3   9    5.37    1.02
  -7   3   8    6.22    1.21
  -7   3   7    6.30    1.22
  -7   3   6    4.87    1.12
  -7   3   5   11.54    1.19
  -7   3   4   23.37    1.91
  -7   3   3    5.04    0.94
  -7   3   2    2.40    0.78
  -7   3   1    0.56    0.51
  -7   3   0   -0.32    0.64
  -7   3  -1   -0.46    0.47
  -7   3  -2   -0.10    0.41
   7  -3   3    0.21    0.70
   7  -3   4    3.81    0.75
   7  -3   5    5.14    0.73
   7  -3   6    2.58    0.63
   7  -3   7    4.15    0.80
   7  -3   8   12.07    1.22
   7  -3   9   10.93    1.38
   7  -3  10    6.09    1.10
   7  -3  11    3.73    1.14
   7  -3  12    7.96    1.27
   7  -3  13    6.49    1.28
  -7   2  13    5.87    1.30
  -7   2  12   11.39    1.41
  -7   2  11    9.35    1.44
  -7   2  10    8.86    1.24
  -7   2   9   16.56    1.81
  -7   2   8   13.02    1.44
  -7   2   7   26.09    1.98
  -7   2   6   38.09    2.15
  -7   2   5   34.71    1.93
  -7   2   4   26.42    1.88
  -7   2   3   25.54    1.66
  -7   2   2   25.43    1.62
  -7   2   1   34.23    1.97
  -7   2   0   30.47    1.79
  -7   2  -1   25.61    1.63
   7  -2   2    9.40    0.97
   7  -2   3    3.85    0.98
   7  -2   5    1.37    0.75
   7  -2   6    1.13    0.55
   7  -2   7    0.22    0.58
   7  -2   8   -0.09    0.70
   7  -2   9    0.46    0.64
   7  -2  10    1.66    0.86
   7  -2  11    1.88    0.79
   7  -2  12    1.47    0.64
   7  -2  13    2.64    0.73
   7  -2  14    1.81    0.83
  -7   1  14    0.04    1.09
  -7   1  13    1.22    0.77
  -7   1  12    1.63    0.67
  -7   1  11    2.10    0.73
  -7   1  10    6.79    1.05
  -7   1   9   12.32    1.56
  -7   1   8   13.87    1.36
  -7   1   7   20.84    1.62
  -7   1   6   35.64    1.94
  -7   1   5   18.71    1.47
  -7   1   4   30.67    1.81
  -7   1   3   63.45    2.41
  -7   1   2   67.48    2.61
  -7   1   1   74.79    2.68
  -7   1   0   47.21    1.97
  -7   1  -1   76.16    2.76
   7  -1   2   43.64    2.02
   7  -1   3   41.91    1.81
   7  -1   4   22.98    1.55
   7  -1   5   24.67    1.57
   7  -1   6   17.32    1.48
   7  -1   7   22.53    1.82
   7  -1   8   31.35    2.02
   7  -1   9    8.47    1.06
   7  -1  10    5.40    0.83
   7  -1  11    1.07    0.54
   7  -1  12    0.64    0.65
   7  -1  13    0.14    0.69
   7  -1  14   -0.69    0.67
  -7   0  15   -0.90    0.90
  -7   0  14   -0.28    0.66
  -7   0  13   -0.50    0.66
  -7   0  12   -0.28    0.52
  -7   0  11    0.39    0.53
  -7   0  10    0.60    0.73
  -7   0   9    1.29    0.59
  -7   0   8    1.57    0.68
  -7   0   7    2.01    0.70
  -7   0   6    2.11    0.74
  -7   0   5    9.40    1.13
  -7   0   4   50.83    2.20
  -7   0   3   34.58    1.73
  -7   0   2   64.56    2.53
  -7   0   1   65.98    2.43
  -7   0   0   59.81    2.25
   7   0   1   58.51    2.30
   7   0   2   33.16    1.57
   7   0   3   78.37    2.76
   7   0   4   68.80    2.52
   7   0   5   81.58    2.95
   7   0   6   63.07    2.74
   7   0   7   69.60    2.74
   7   0   8   30.96    1.70
   7   0   9   17.11    1.32
   7   0  10   17.04    1.44
   7   0  11   10.25    1.15
   7   0  12    4.85    1.04
   7   0  13    3.05    0.96
   7   0  14    3.40    1.04
   7   0  15    3.09    0.90
  -7  -1  15    1.86    1.05
  -7  -1  14    1.84    0.85
  -7  -1  13    0.77    0.74
  -7  -1  12    1.20    0.67
  -7  -1  11    2.81    0.85
  -7  -1  10    3.77    0.81
  -7  -1   9    0.58    0.51
  -7  -1   8   -0.31    0.63
  -7  -1   7   -0.23    0.67
  -7  -1   6   -0.29    0.41
  -7  -1   5    0.72    0.55
  -7  -1   4   -0.18    0.43
  -7  -1   3    1.61    0.55
  -7  -1   2   11.38    1.13
  -7  -1   1   16.20    1.18
   7   1   0   10.06    0.95
   7   1   1    4.01    0.82
   7   1   2   13.69    1.09
   7   1   3   24.94    1.69
   7   1   4   30.62    1.83
   7   1   5   38.94    2.15
   7   1   6   21.55    1.52
   7   1   7   20.14    1.38
   7   1   8   33.24    1.76
   7   1   9   45.90    2.27
   7   1  10   33.89    2.05
   7   1  11   24.35    1.76
   7   1  12   15.91    1.73
   7   1  13   16.79    1.89
   7   1  14   12.15    1.67
   7   1  15    4.44    1.12
  -7  -2  13    9.12    1.40
  -7  -2  12    7.38    1.26
  -7  -2  11    8.57    1.07
  -7  -2  10    7.23    0.96
  -7  -2   9    8.12    0.98
  -7  -2   8   22.50    1.73
  -7  -2   7   19.78    1.45
  -7  -2   6   13.53    1.18
  -7  -2   5    9.30    1.10
  -7  -2   4    3.34    0.70
  -7  -2   3   12.03    0.98
  -7  -2   2   28.40    1.55
  -7  -2   1    6.76    0.87
   7   2   0    3.64    0.68
   7   2   1   -0.02    0.48
   7   2   2    3.06    0.81
   7   2   3    0.05    0.55
   7   2   4    0.11    0.61
   7   2   5   -0.24    0.50
   7   2   6    6.46    0.84
   7   2   7   18.42    1.34
   7   2   8   11.09    1.17
   7   2   9   10.55    1.33
   7   2  10   13.98    1.43
   7   2  11   12.46    1.48
   7   2  12   17.96    1.75
   7   2  13   15.96    1.63
   7   2  14    4.64    0.96
   7   2  15    6.72    1.12
  -7  -3   9   14.93    1.30
  -7  -3   8   18.54    1.28
  -7  -3   7   20.42    1.26
  -7  -3   6   40.24    1.84
  -7  -3   5   38.95    1.80
  -7  -3   4   44.82    1.81
  -7  -3   3   29.36    1.40
  -7  -3   2   32.80    1.58
  -7  -3   1   43.04    1.79
   7   3   0   39.40    1.98
   7   3   1   28.37    1.64
   7   3   2   24.51    1.68
   7   3   3   19.17    1.60
   7   3   4   10.42    1.13
   7   3   5    7.62    0.88
   7   3   6    8.48    1.08
   7   3   7    2.66    0.70
   7   3   8   -0.55    0.77
   7   3   9    0.38    0.65
   7   3  10    0.22    0.61
   7   3  11   -0.12    0.60
   7   3  12   -0.20    0.61
   7   3  13    1.34    0.73
   7   3  14    1.37    0.60
   7   3  15    1.43    0.64
  -7  -4   6   42.92    1.80
  -7  -4   5   37.38    1.55
  -7  -4   4   69.92    2.12
  -7  -4   3   65.72    1.98
  -7  -4   2   67.27    2.08
  -7  -4   1   52.26    1.95
   7   4   0   21.81    1.38
   7   4   1   21.21    1.41
   7   4   2   20.97    1.47
   7   4   3   71.17    2.62
   7   4   4  124.95    3.13
   7   4   5   96.42    2.80
   7   4   6   68.84    2.53
   7   4   7   81.12    3.14
   7   4   8   28.32    1.92
   7   4   9    7.15    0.98
   7   4  10    6.55    0.85
   7   4  11    5.86    0.98
   7   4  12    1.73    0.80
   7   4  13    0.00    0.55
   7   4  14    0.57    0.83
   7   4  15    0.11    0.57
  -7  -5   1   46.17    1.73
   7   5   0   22.14    1.20
   7   5   1   33.65    1.63
   7   5   2  168.01    3.95
   7   5   3   72.77    2.45
   7   5   4   54.58    2.08
   7   5   5   30.69    1.74
   7   5   6   19.13    1.46
   7   5   7   24.20    1.61
   7   5   8   24.85    1.51
   7   5   9   27.01    1.53
   7   5  10   34.67    1.97
   7   5  11   14.13    1.33
   7   5  12    4.66    0.92
   7   5  13   12.43    1.42
   7   5  14    5.19    1.03
   7   5  15    1.09    0.73
   7   6   2   16.27    1.36
   7   6   3    4.82    0.75
   7   6   4   16.33    1.15
   7   6   5   33.66    1.85
   7   6   6   27.69    1.79
   7   6   7   10.40    0.99
   7   6   8   16.90    1.33
   7   6   9   18.76    1.52
   7   6  10   21.02    1.58
   7   6  11   17.04    1.49
   7   6  12   15.45    1.44
   7   6  13   10.66    1.36
   7   6  14    3.67    0.89
   7   6  15    4.99    1.02
   7   7   6    0.08    0.55
   7   7   7    2.73    0.57
   7   7   8   13.89    1.32
   7   7   9    8.22    1.12
   7   7  10    6.26    0.94
   7   7  11    5.42    0.91
   7   7  12    2.70    0.78
   7   7  13    4.94    1.12
   7   7  14    4.09    1.12
   7   8  11    0.21    0.70
   7   8  12    0.45    0.80
   7   8  13   -0.44    0.76
   7   8  14   -0.73    0.64
  -8   6   3    2.05    0.80
  -8   6   2   10.80    1.70
  -8   6   1   12.25    1.59
  -8   6   0   16.02    1.73
  -8   6  -1   20.20    1.90
  -8   6  -2   20.50    1.92
  -8   6  -3   18.45    2.04
  -8   6  -4   14.90    1.75
  -8   6  -5   12.45    1.63
  -8   5   5    0.77    0.86
  -8   5   4   -0.19    0.85
  -8   5   3   -0.55    0.62
  -8   5   2    2.44    1.09
  -8   5   1    2.02    0.94
  -8   5   0    5.33    1.14
  -8   5  -1    5.90    1.06
  -8   5  -2    4.78    1.22
  -8   5  -3    8.38    1.35
  -8   5  -4    5.92    1.07
  -8   5  -5   12.67    1.36
  -8   5  -6   13.81    1.69
   8  -5   7    6.44    1.16
   8  -5   8    5.00    0.93
  -8   4   8    2.65    1.06
  -8   4   7    2.41    1.05
  -8   4   6    2.74    1.19
  -8   4   5    3.98    0.99
  -8   4   4    6.36    1.14
  -8   4   3    9.08    1.37
  -8   4   2   12.69    1.55
  -8   4   1    9.09    1.30
  -8   4   0    6.90    1.06
  -8   4  -2    1.89    0.89
  -8   4  -3    0.98    0.59
  -8   4  -4    0.34    0.50
  -8   4  -5    1.06    0.69
   8  -4   6    2.13    0.80
   8  -4   7    4.44    1.08
   8  -4   8    3.56    0.78
   8  -4   9    0.91    0.50
   8  -4  10    0.96    0.64
  -8   3  10    5.02    1.27
  -8   3   9    9.48    1.54
  -8   3   8   14.04    1.70
  -8   3   7   16.13    1.66
  -8   3   6   24.77    2.09
  -8   3   5   22.07    1.72
  -8   3   4   30.17    2.20
  -8   3   3   32.68    2.24
  -8   3   2   32.55    2.06
  -8   3   1   37.94    2.22
  -8   3   0   46.71    2.55
  -8   3  -1   33.22    2.14
  -8   3  -2   15.67    1.41
  -8   3  -3   17.44    1.66
   8  -3   4    3.37    0.93
   8  -3   5    1.26    0.62
   8  -3   6    3.09    0.74
   8  -3   7    4.59    0.87
   8  -3   8    1.30    0.62
   8  -3   9    0.30    0.72
   8  -3  10    0.02    0.79
   8  -3  11   -1.08    0.79
  -8   2  11    2.85    0.99
  -8   2  10    1.09    0.70
  -8   2   9    4.07    1.23
  -8   2   8    6.05    1.08
  -8   2   7   10.92    1.41
  -8   2   6   14.14    1.58
  -8   2   5   22.56    1.76
  -8   2   4   34.89    2.27
  -8   2   3   30.17    2.02
  -8   2   2   33.79    2.01
  -8   2   1   35.79    2.13
  -8   2   0   61.33    2.77
  -8   2  -1   52.71    2.43
  -8   2  -2   55.91    2.63
   8  -2   3   22.12    1.67
   8  -2   4   31.88    2.15
   8  -2   5   11.42    1.06
   8  -2   6   14.08    1.24
   8  -2   7   12.83    1.29
   8  -2   8   10.09    1.32
   8  -2   9    8.52    1.21
   8  -2  10    4.58    0.98
   8  -2  11    3.22    0.88
   8  -2  12    2.80    1.16
  -8   1  12    0.05    0.57
  -8   1  11   -0.49    0.61
  -8   1  10   -0.63    0.49
  -8   1   9   -0.16    0.77
  -8   1   8   -0.77    0.68
  -8   1   7   -0.43    0.59
  -8   1   6    2.80    0.90
  -8   1   5    4.92    1.00
  -8   1   4    1.76    0.72
  -8   1   3   13.20    1.37
  -8   1   2   15.08    1.38
  -8   1   1   23.42    1.77
  -8   1   0   36.29    2.09
  -8   1  -1   29.75    1.75
   8  -1   2   43.34    2.30
   8  -1   3   49.32    2.62
   8  -1   4   34.97    1.81
   8  -1   5   40.32    2.11
   8  -1   6   46.20    2.30
   8  -1   7   18.51    1.61
   8  -1   8   19.37    1.67
   8  -1   9   24.70    1.84
   8  -1  10   19.66    1.81
   8  -1  11   13.97    1.56
   8  -1  12    9.53    1.30
   8  -1  13    4.68    0.93
  -8   0  13    3.84    1.04
  -8   0  12    5.33    1.00
  -8   0  11   10.85    1.51
  -8   0  10    8.78    1.32
  -8   0   9    5.61    1.19
  -8   0   8    2.10    0.85
  -8   0   7    3.79    1.09
  -8   0   6    1.44    0.68
  -8   0   5    8.23    1.19
  -8   0   4    2.72    0.91
  -8   0   3    0.07    0.48
  -8   0   2   -0.48    0.51
  -8   0   1    0.20    0.53
  -8   0   0    2.12    0.67
  -8   0  -1   13.51    1.36
   8   0   2   14.26    1.32
   8   0   3   22.97    1.44
   8   0   4   24.44    1.66
   8   0   5   16.15    1.37
   8   0   6    8.30    1.20
   8   0   7    7.96    1.09
   8   0   8   15.85    1.60
   8   0   9   10.51    1.34
   8   0  10   10.83    1.27
   8   0  11   10.03    1.18
   8   0  12   10.89    1.30
   8   0  13    8.35    1.24
  -8  -1  14    3.42    1.30
  -8  -1  13    4.36    1.23
  -8  -1  12    4.60    1.02
  -8  -1  11    4.81    0.99
  -8  -1  10   11.34    1.39
  -8  -1   9   21.92    2.12
  -8  -1   8   14.89    1.37
  -8  -1   7   18.09    1.71
  -8  -1   6   17.49    1.49
  -8  -1   5   26.06    1.86
  -8  -1   4   27.96    1.78
  -8  -1   3   45.77    2.19
  -8  -1   2   26.58    1.80
  -8  -1   1   22.10    1.59
  -8  -1   0   10.31    1.28
   8   1   1   10.97    1.19
   8   1   2    9.70    1.10
   8   1   3    1.68    0.83
   8   1   4    1.00    0.77
   8   1   5    0.27    0.87
   8   1   6    1.11    0.65
   8   1   7    1.38    0.78
   8   1   8   -0.01    0.73
   8   1   9    2.34    0.69
   8   1  10    4.76    0.86
   8   1  11    7.59    1.14
   8   1  12    4.08    0.85
   8   1  13    3.78    1.08
  -8  -2  12    3.39    1.04
  -8  -2  11    6.10    1.10
  -8  -2  10    7.74    1.10
  -8  -2   9    5.93    0.97
  -8  -2   8   13.45    1.38
  -8  -2   7   36.97    2.18
  -8  -2   6   34.45    1.84
  -8  -2   5   48.29    2.41
  -8  -2   4   54.19    2.29
  -8  -2   3   62.90    2.43
  -8  -2   2   67.96    2.60
  -8  -2   1   69.01    2.47
  -8  -2   0  120.27    3.58
   8   2   1   84.07    3.22
   8   2   2   18.03    1.37
   8   2   3   15.09    1.42
   8   2   4   18.86    1.64
   8   2   5   19.18    1.58
   8   2   6   18.27    1.69
   8   2   7    5.46    0.99
   8   2   8    0.84    0.57
   8   2   9   -0.27    0.62
   8   2  10   -0.42    0.69
   8   2  11    0.06    0.52
   8   2  12   -0.59    0.72
   8   2  13    1.66    0.96
   8   2  14   -0.14    0.85
  -8  -3   8    7.93    1.19
  -8  -3   7   10.16    1.11
  -8  -3   6   10.76    1.15
  -8  -3   5   10.68    1.15
  -8  -3   4   16.77    1.33
  -8  -3   3   54.20    2.18
  -8  -3   2   70.66    2.55
  -8  -3   1   96.59    2.74
   8   3   0  111.14    3.37
   8   3   1   42.12    1.98
   8   3   2   40.41    2.02
   8   3   3   79.16    3.15
   8   3   4   43.66    2.18
   8   3   5   88.13    3.43
   8   3   6   74.61    2.75
   8   3   7   18.01    1.38
   8   3   8   21.53    1.64
   8   3   9   10.40    1.18
   8   3  10   10.80    1.37
   8   3  11   10.67    1.45
   8   3  12    7.48    1.37
   8   3  13    6.73    1.46
   8   3  14    3.07    1.26
  -8  -4   5    1.80    0.67
  -8  -4   4    2.93    0.71
  -8  -4   3    5.49    0.82
  -8  -4   2    2.70    0.65
  -8  -4   1    9.84    0.90
   8   4   0   48.54    2.12
   8   4   1   74.84    2.39
   8   4   2   95.97    3.04
   8   4   3  129.97    3.89
   8   4   4  119.91    3.95
   8   4   5   44.03    2.19
   8   4   6   40.30    2.02
   8   4   7   48.15    2.29
   8   4   8   42.07    2.27
   8   4   9   24.13    1.84
   8   4  10   23.62    2.01
   8   4  11   21.34    1.90
   8   4  12   15.15    1.72
   8   4  13    7.55    1.29
   8   4  14    3.72    1.04
  -8  -5   1    0.58    0.52
   8   5   0    0.01    0.57
   8   5   1    3.46    0.75
   8   5   2   -0.20    0.67
   8   5   3    4.55    0.81
   8   5   4   10.73    1.24
   8   5   5   15.74    1.33
   8   5   6   12.96    1.17
   8   5   7   16.18    1.46
   8   5   8   14.83    1.39
   8   5   9   36.43    2.43
   8   5  10   35.82    2.33
   8   5  11   12.14    1.44
   8   5  12    7.36    1.13
   8   5  13    3.50    0.86
   8   5  14    4.74    1.02
   8   6   3    2.61    0.91
   8   6   4    5.65    0.95
   8   6   5    4.64    0.84
   8   6   6    0.06    0.65
   8   6   7    0.55    0.74
   8   6   8    1.22    0.95
   8   6   9   11.46    1.46
   8   6  10    8.54    1.17
   8   6  11    4.89    0.90
   8   6  12    3.26    0.77
   8   6  13    2.26    0.70
   8   6  14    0.83    0.87
   8   7   7   12.84    1.45
   8   7   8    6.33    1.17
   8   7   9    0.50    0.67
   8   7  10    0.31    0.61
   8   7  11    5.14    0.94
   8   7  12    1.04    0.76
   8   7  13   -0.40    0.74
   8   7  14   -0.15    0.57
  -9   4   4   19.87    1.86
  -9   4   3   16.27    1.94
  -9   4   2   26.76    2.30
  -9   4   1   19.20    1.77
  -9   4   0   22.66    1.94
  -9   4  -1   27.49    2.31
  -9   4  -2   16.67    1.85
  -9   4  -3    4.05    1.06
  -9   4  -4    4.88    0.99
  -9   4  -5   10.63    1.44
  -9   4  -6    9.42    1.41
  -9   3   7    3.47    1.05
  -9   3   6    3.77    1.18
  -9   3   5   11.10    1.55
  -9   3   4   14.93    1.95
  -9   3   3   12.48    1.62
  -9   3   2   11.38    1.45
  -9   3   1   17.93    1.81
  -9   3   0   16.58    1.64
  -9   3  -1   32.40    2.38
  -9   3  -2   22.95    1.93
  -9   3  -3   25.20    1.86
  -9   3  -4   30.29    2.25
   9  -3   5   15.11    1.39
   9  -3   6   10.09    1.21
   9  -3   7   12.71    1.57
   9  -3   8    3.09    0.69
  -9   2   9    0.57    1.27
  -9   2   8    0.37    0.95
  -9   2   7    0.32    1.11
  -9   2   6   -0.09    0.93
  -9   2   5   -0.85    0.90
  -9   2   4    1.22    1.08
  -9   2   3    1.43    0.97
  -9   2   2    1.42    0.91
  -9   2   1    2.62    0.85
  -9   2   0    4.04    1.08
  -9   2  -1    5.23    1.10
  -9   2  -2    8.76    1.22
  -9   2  -3   12.86    1.43
   9  -2   4   16.21    1.63
   9  -2   5    7.93    1.13
   9  -2   6   12.47    1.34
   9  -2   7   17.67    1.53
   9  -2   8    6.44    1.03
   9  -2   9    4.94    0.99
   9  -2  10    4.41    0.92
  -9   1  10    3.59    1.04
  -9   1   9    5.74    1.44
  -9   1   8    5.98    1.17
  -9   1   7    7.04    1.51
  -9   1   6    6.34    1.24
  -9   1   5    0.02    0.74
  -9   1   4    1.82    0.88
  -9   1   3    6.31    1.18
  -9   1   2    2.19    0.93
  -9   1   1    0.76    0.98
  -9   1   0   -0.47    0.60
  -9   1  -1   -0.19    0.52
  -9   1  -2    0.80    0.84
   9  -1   3    1.09    0.84
   9  -1   4    1.57    0.68
   9  -1   5    2.92    0.80
   9  -1   6    7.41    1.18
   9  -1   7    2.14    0.77
   9  -1   8    0.69    0.80
   9  -1   9    3.55    0.98
   9  -1  10    4.34    1.09
  -9   0  11    9.84    1.61
  -9   0  10    3.31    0.97
  -9   0   9   11.84    1.77
  -9   0   8   12.65    1.60
  -9   0   7   16.41    1.81
  -9   0   6   19.85    1.80
  -9   0   5   23.15    2.01
  -9   0   4   36.76    2.41
  -9   0   3    8.51    1.17
  -9   0   2    5.81    1.14
  -9   0   1    6.07    1.10
  -9   0   0   17.96    1.64
  -9   0  -1   27.83    1.93
   9   0   2   13.85    1.33
   9   0   3    8.40    1.15
   9   0   4    4.11    0.88
   9   0   5    0.91    0.56
   9   0   6    0.69    0.62
   9   0   7    3.93    0.88
   9   0   8   -0.10    0.85
   9   0   9    0.06    0.84
   9   0  10   -0.23    0.94
   9   0  11    0.90    0.99
  -9  -1  12    1.14    0.95
  -9  -1  11    1.08    0.83
  -9  -1  10    5.85    1.27
  -9  -1   9   19.34    2.18
  -9  -1   8   20.64    1.88
  -9  -1   7   19.30    1.87
  -9  -1   6   26.60    1.94
  -9  -1   5   52.58    2.87
  -9  -1   4   29.30    2.10
  -9  -1   3   27.30    1.97
  -9  -1   2   45.06    2.43
  -9  -1   1   41.32    2.32
  -9  -1   0   50.84    2.39
  -9  -1  -1   42.78    2.44
   9   1   2   42.53    2.33
   9   1   3   19.35    1.58
   9   1   4   15.68    1.51
   9   1   5    9.97    1.24
   9   1   6   19.07    1.61
   9   1   7   14.70    1.59
   9   1   8    4.70    0.99
   9   1   9    9.53    1.45
   9   1  10    4.93    1.12
   9   1  11    1.22    0.68
   9   1  12    1.46    0.71
  -9  -2  11    1.03    0.95
  -9  -2  10    0.49    0.67
  -9  -2   9    3.11    1.27
  -9  -2   8    7.89    1.21
  -9  -2   7   12.53    1.60
  -9  -2   6   11.24    1.33
  -9  -2   5    7.79    1.22
  -9  -2   4    7.10    1.09
  -9  -2   3   19.12    1.64
  -9  -2   2   28.62    2.07
  -9  -2   1   39.13    2.29
  -9  -2   0   43.32    2.28
   9   2   1   60.13    2.82
   9   2   2   35.08    2.27
   9   2   3   21.26    1.62
   9   2   4   36.11    2.24
   9   2   5   32.72    2.07
   9   2   6   28.29    2.05
   9   2   7   25.14    2.17
   9   2   8   22.95    2.05
   9   2   9   12.21    1.41
   9   2  10    8.31    1.14
   9   2  11    8.12    1.11
   9   2  12   10.82    1.39
  -9  -3   7    1.28    0.90
  -9  -3   6    0.15    0.71
  -9  -3   5    2.13    0.95
  -9  -3   4   -0.45    0.47
  -9  -3   3    1.32    0.75
  -9  -3   2    0.97    0.66
  -9  -3   1   12.89    1.42
  -9  -3   0   22.26    1.62
   9   3   1   30.49    1.99
   9   3   2   12.21    1.23
   9   3   3    9.25    1.16
   9   3   4   16.01    1.46
   9   3   5   23.19    1.90
   9   3   6   47.58    2.81
   9   3   7   23.60    1.98
   9   3   8   11.56    1.36
   9   3   9   12.95    1.41
   9   3  10   11.78    1.37
   9   3  11    9.26    1.20
   9   3  12   16.83    1.74
  -9  -4   4   10.62    1.20
  -9  -4   3   -0.03    0.58
  -9  -4   2    1.09    0.68
  -9  -4   1    0.70    0.64
  -9  -4   0    0.71    0.57
   9   4   1   -0.25    0.48
   9   4   2    0.10    0.58
   9   4   3   -0.11    0.55
   9   4   4    2.26    1.02
   9   4   5    3.89    1.15
   9   4   6    0.97    0.84
   9   4   7    0.98    0.69
   9   4   8    3.10    0.92
   9   4   9    1.65    0.69
   9   4  10    1.86    0.70
   9   4  11    8.94    1.39
   9   4  12    6.86    1.16
   9   4  13    4.97    1.08
  -9  -5   0   59.08    2.51
   9   5   1   24.44    1.84
   9   5   2   19.53    1.55
   9   5   3    9.03    1.21
   9   5   4    1.53    0.87
   9   5   5    0.50    0.96
   9   5   6    1.60    0.74
   9   5   7    0.01    0.67
   9   5   8   -0.12    0.48
   9   5   9   -0.91    0.67
   9   5  10   -0.40    0.74
   9   5  11   -0.19    0.58
   9   5  12    0.40    0.94
   9   5  13   -0.33    0.97
   9   6   4    5.35    0.92
   9   6   5    9.75    1.32
   9   6   6    6.05    0.94
   9   6   7    7.62    1.09
   9   6   8    6.49    0.96
   9   6   9    7.40    1.22
   9   6  11    1.30    0.74
   9   6  12    1.12    1.11
   9   6  13    1.12    1.12
   9   7   9    9.80    1.22
   9   7  10    8.04    1.20
   9   7  11   19.01    2.01
   9   7  12    2.04    0.90
 -10   3   1    0.50    0.92
 -10   3   0    0.90    0.78
 -10   3  -1    4.25    1.14
 -10   3  -2    3.24    1.08
 -10   2   5   13.92    1.87
 -10   2   4   12.25    1.79
 -10   2   3    9.91    1.56
 -10   2   2    8.37    1.45
 -10   2   1    5.38    1.13
 -10   2   0    2.56    1.23
 -10   2  -1    2.20    0.93
 -10   2  -2    4.58    1.24
 -10   2  -3    0.86    0.81
 -10   2  -4    0.38    0.92
 -10   2  -5    0.16    0.77
  10  -2   5    0.02    0.52
  10  -2   6    0.82    0.89
 -10   1   7   11.79    1.80
 -10   1   6   17.14    1.92
 -10   1   5   19.68    1.97
 -10   1   4   15.04    1.89
 -10   1   3   16.87    1.86
 -10   1   2   19.76    1.95
 -10   1   1   22.18    2.11
 -10   1   0   15.12    1.80
 -10   1  -1   27.95    2.35
 -10   1  -2   23.37    1.93
 -10   1  -3   26.47    2.26
  10  -1   4   10.81    1.28
  10  -1   5    7.42    1.14
  10  -1   6    1.73    0.84
  10  -1   7    1.06    0.73
 -10   0   9    1.07    1.32
 -10   0   8    3.30    1.23
 -10   0   7    5.73    1.56
 -10   0   6    5.38    1.18
 -10   0   5    8.09    1.40
 -10   0   4   19.54    2.08
 -10   0   3   26.99    2.19
 -10   0   2   25.28    2.17
 -10   0   1   37.32    2.69
 -10   0   0   50.88    2.93
 -10   0  -1   53.98    2.92
 -10   0  -2   42.71    2.39
  10   0   3   23.19    1.79
  10   0   4   23.07    1.86
  10   0   5   22.93    1.99
  10   0   6    7.69    1.04
  10   0   7    5.33    1.03
  10   0   8   13.02    1.50
  10   0   9    3.97    1.16
 -10  -1  10   -0.52    0.66
 -10  -1   9   -0.59    1.09
 -10  -1   8   -0.01    1.02
 -10  -1   7    1.11    0.94
 -10  -1   6   -0.17    0.91
 -10  -1   5    2.88    1.06
 -10  -1   4   10.10    1.58
 -10  -1   3    3.94    1.12
 -10  -1   2    2.94    0.89
 -10  -1   1    6.75    1.29
 -10  -1   0   15.85    1.80
 -10  -1  -1   20.43    1.75
 -10  -1  -2   40.55    2.69
  10   1   3   26.19    2.07
  10   1   4   17.81    1.78
  10   1   5   13.29    1.31
  10   1   6   17.09    1.63
  10   1   7   22.20    1.89
  10   1   8   26.18    2.32
  10   1   9   22.18    2.16
 -10  -2   9    6.91    1.67
 -10  -2   8    2.61    0.88
 -10  -2   7    1.58    1.18
 -10  -2   6    0.98    0.93
 -10  -2   5    0.27    1.03
 -10  -2   4    3.46    1.03
 -10  -2   3    3.57    1.04
 -10  -2   2    0.43    0.94
 -10  -2   1   -0.43    0.91
 -10  -2   0    0.83    0.69
 -10  -2  -1    0.78    0.94
  10   2   2   -0.11    0.60
  10   2   3    1.80    0.88
  10   2   4    2.13    0.82
  10   2   5    4.20    0.97
  10   2   6   11.71    1.44
  10   2   7    9.40    1.40
  10   2   8   12.44    1.62
  10   2   9   17.12    1.98
  10   2  10   10.23    1.73
 -10  -3   6   10.70    1.35
 -10  -3   5   13.10    1.55
 -10  -3   4   16.67    1.69
 -10  -3   3   10.65    1.42
 -10  -3   2    8.73    1.26
 -10  -3   1    7.41    1.16
 -10  -3   0    7.82    1.17
 -10  -3  -1    4.29    1.01
  10   3   2    3.04    0.85
  10   3   3    6.35    1.07
  10   3   4    1.05    0.64
  10   3   5    0.15    0.85
  10   3   6    3.00    1.21
  10   3   7    0.67    0.96
  10   3   8    0.45    0.74
  10   3   9   -0.29    0.99
  10   3  10    0.87    0.98
  10   3  11    0.87    0.75
 -10  -4   3   22.85    1.79
 -10  -4   2   35.92    2.32
 -10  -4   1   44.67    2.45
 -10  -4   0   42.22    2.17
  10   4   1   22.56    1.67
  10   4   2   73.88    3.49
  10   4   3   13.11    1.25
  10   4   4   12.19    1.43
  10   4   5   19.50    1.95
  10   4   6    5.36    1.15
  10   4   7    1.17    0.78
  10   4   8    1.63    1.14
  10   4   9    0.97    0.94
  10   4  10   -0.13    0.81
  10   4  11    0.04    0.77
  10   5   1   49.30    2.57
  10   5   2   50.00    2.59
  10   5   3   34.11    2.16
  10   5   4   31.16    2.10
  10   5   5   28.53    2.26
  10   5   6    7.46    1.16
  10   5   7   13.17    1.65
  10   5   9    6.03    1.05
  10   5  10    2.94    0.82
  10   5  11    3.85    1.03
  10   6   5    4.75    1.04
  10   6   6   31.50    2.42
  10   6   7   22.42    1.99
  10   6   8   14.51    1.49
  10   6   9   17.29    1.62
  10   6  10   14.48    1.55
  10   6  11    8.18    1.31
  10   7  11    1.03    0.70
 -11   1   1   13.95    1.76
 -11   1   0   23.13    2.42
 -11   0   5    0.74    0.89
 -11   0   4    2.12    1.39
 -11   0   3    3.79    1.36
 -11   0   2    6.63    1.47
 -11   0   1    1.64    0.91
 -11   0   0    5.84    1.52
 -11   0  -1    6.68    1.33
 -11   0  -2    9.49    1.54
 -11   0  -3    6.25    1.35
 -11   0  -4    7.12    1.60
  11   0   5    1.79    0.90
 -11  -1   7    3.88    1.61
 -11  -1   6    5.80    1.50
 -11  -1   5   13.41    2.05
 -11  -1   4    1.99    1.08
 -11  -1   3    2.61    1.02
 -11  -1   2    2.30    0.93
 -11  -1   1    0.98    1.17
 -11  -1   0    0.13    1.04
 -11  -1  -1    0.14    0.75
 -11  -1  -2   -0.54    0.77
 -11  -1  -3   -0.51    0.75
  11   1   4   -0.59    0.91
  11   1   5    0.10    1.09
  11   1   6    0.65    0.79
 -11  -2   8    8.05    1.37
 -11  -2   7   12.74    2.02
 -11  -2   6   17.27    1.97
 -11  -2   5   19.75    2.32
 -11  -2   4   18.04    2.11
 -11  -2   3   21.61    1.97
 -11  -2   2   20.80    1.99
 -11  -2   1   15.11    1.85
 -11  -2   0   10.89    1.54
 -11  -2  -1    8.15    1.28
 -11  -2  -2   14.85    1.86
  11   2   3    6.87    1.41
  11   2   4    4.66    1.09
  11   2   5    3.21    0.93
  11   2   6    0.65    0.57
  11   2   7   -0.47    0.91
  11   2   8    0.94    0.82
 -11  -3   5   14.53    1.97
 -11  -3   4   25.53    2.33
 -11  -3   3   28.54    2.26
 -11  -3   2   30.61    2.33
 -11  -3   1   29.96    2.39
 -11  -3  -2   21.96    2.15
  11   3   3   23.08    2.02
  11   3   4   20.84    2.02
  11   3   5   16.39    1.66
  11   3   6   10.31    1.56
  11   3   7    5.50    1.19
  11   3   8    9.02    1.65
 -11  -4   1   33.70    2.44
 -11  -4   0   28.86    2.15
 -11  -4  -1   29.92    2.17
  11   4   2   24.10    2.14
  11   4   3   18.47    2.06
  11   4   5   15.33    1.80
  11   4   6   18.13    1.88
  11   4   7   14.94    1.63
  11   4   8   25.28    2.36
  11   4   9    6.11    1.19
  11   5   2    2.06    0.95
  11   5   3    7.31    1.33
  11   5   4    7.86    1.21
  11   5   6    8.85    1.28
  11   5   7    7.86    1.44
  11   5   8   12.47    1.73
  11   5   9    1.05    0.91
  11   6   8    0.70    1.11
  11   6   9    4.14    1.43
 -12  -2   3   20.61    2.37
 -12  -2   2   29.86    2.61
 -12  -2   1   25.50    2.58
 -12  -2   0   16.04    2.08
 -12  -2  -1   29.22    2.63
 -12  -2  -2   31.48    2.53
 -12  -2  -3   19.22    1.90
 -12  -3   3    2.45    1.22
 -12  -3   2    5.65    1.46
 -12  -3   1   11.91    1.92
 -12  -3   0   15.15    1.88
 -12  -3  -1   25.83    2.45
 -12  -3  -2   15.46    1.81
 -12  -3  -3   18.85    2.31
  12   3   4   16.28    1.97
  12   3   5   19.63    2.33
 -12  -4   0    0.33    0.81
 -12  -4  -1    0.50    0.77
 -12  -4  -2    0.43    1.03
  12   4   4    2.08    0.88
  12   4   5    3.48    1.05
  12   4   6    3.19    0.85
  12   5   5    1.27    0.90
  12   5   6    0.57    0.93
   0   0   3  252.95    2.34
   0   0   5   14.91    0.61
   0   0   6  107.44    1.68
   0   0   7   59.86    1.33
   0   0   8   17.34    0.83
   0   0   9   12.99    0.90
   0   0  10    2.68    0.54
   0   0  11   13.06    0.86
   0  -1  11    1.40    0.49
   0  -1  10    0.88    0.46
   0  -1   9    5.56    0.59
   0  -1   8    4.41    0.51
   0  -1   7    1.31    0.29
   0  -1   6    9.12    0.61
   0  -1   5   18.00    0.74
   0  -1   4    7.95    0.49
   0  -1   3  136.61    1.70
   0  -1   2  204.15    1.98
   0  -1   1   97.77    1.20
   0   1   6  178.24    2.04
   0   1   7  108.61    1.81
   0   1   8   51.99    1.22
   0   1   9   48.47    1.28
   0   1  10   25.70    1.02
   0  -2  12   10.43    0.98
   0  -2  11   21.71    1.38
   0  -2  10   10.34    0.96
   0  -2   9    7.99    0.77
   0  -2   8    6.10    0.62
   0  -2   7   28.82    1.06
   0  -2   6   22.28    0.97
   0  -2   5   37.29    1.22
   0  -2   4   34.41    1.06
   0  -2   3    6.42    0.45
   0  -2   2    0.42    0.32
   0  -2   1   17.64    0.65
   0  -2   0    7.45    0.39
   0  -2  -2    1.41    0.22
   0  -2  -3  107.97    1.35
   0   2   8   60.87    1.28
   0   2   9   30.49    0.92
   0  -3  13   20.90    1.46
   0  -3  12   21.52    1.30
   0  -3  11   21.35    1.28
   0  -3  10   18.01    1.09
   0  -3   9   13.49    0.95
   0  -3   8   18.82    1.04
   0  -3   7   21.04    1.04
   0  -3   6   30.36    1.15
   0  -3   5  234.29    3.19
   0  -3   4   87.62    2.00
   0  -3   3   49.65    1.39
   0  -3   2   52.94    1.28
   0  -3   1    8.90    0.56
   0  -3   0   20.75    0.83
   0  -3  -1  115.85    1.98
   0  -3  -2   15.88    0.67
   0  -3  -3    2.41    0.31
   0  -3  -4   40.84    0.94
   0  -4  14    3.54    0.82
   0  -4  13    6.90    0.92
   0  -4  12   15.97    1.28
   0  -4  11   38.04    1.92
   0  -4  10   27.38    1.59
   0  -4   9   19.97    1.37
   0  -4   8   24.73    1.42
   0  -4   7   35.03    1.54
   0  -4   6   58.74    1.88
   0  -4   5   70.79    2.03
   0  -4   4   42.04    1.39
   0  -4   3  180.35    2.88
   0  -4   2  234.21    3.27
   0  -4   1  453.49    4.71
   0  -4   0  807.12    7.00
   0  -4  -1  319.52    4.06
   0  -4  -2  108.87    1.83
   0  -4  -3   80.45    1.57
   0  -4  -4   59.31    1.36
   0  -4  -5   41.79    1.08
   0  -5  14    0.59    0.68
   0  -5  13    2.20    0.80
   0  -5  12    4.90    0.78
   0  -5  11    0.12    0.69
   0  -5  10    2.79    0.64
   0  -5   9   14.55    1.14
   0  -5   8   20.75    1.38
   0  -5   7   13.70    0.99
   0  -5   6   33.88    1.43
   0  -5   5   80.71    2.17
   0  -5   4  106.15    2.49
   0  -5   3  197.87    3.32
   0  -5   1  148.14    2.96
   0  -5   0   76.13    2.07
   0  -5  -1   69.74    2.08
   0  -5  -2  223.14    3.07
   0  -5  -3  168.21    2.81
   0  -5  -4  117.98    2.24
   0  -5  -5  118.70    2.28
   0  -5  -6   82.43    1.96
   0  -6  15   -0.23    0.58
   0  -6  14   -0.18    0.55
   0  -6  13    0.68    0.75
   0  -6  12    0.27    0.67
   0  -6  11   -0.03    0.46
   0  -6  10    0.18    0.49
   0  -6   9   -0.10    0.45
   0  -6   8    2.62    0.88
   0  -6   7    4.38    0.84
   0  -6   6   11.13    1.09
   0  -6   5    4.09    0.65
   0  -6   4    4.91    0.74
   0  -6   3   17.88    1.18
   0  -6   2   26.07    1.39
   0  -6   1   79.62    2.26
   0  -6   0  137.90    3.26
   0  -6  -1  102.55    2.88
   0  -6  -2   32.48    1.31
   0  -6  -3   86.91    2.36
   0  -6  -4  101.50    2.31
   0  -6  -5  136.69    2.69
   0  -6  -6  113.16    2.49
   0  -7  15    3.81    1.14
   0  -7  14    5.62    1.15
   0  -7  13    3.15    0.92
   0  -7  12    1.80    0.67
   0  -7  11    6.31    0.93
   0  -7  10    4.87    0.81
   0  -7   9    4.63    0.80
   0  -7   8   12.41    1.22
   0  -7   7    3.82    0.88
   0  -7   6    0.54    0.80
   0  -7   5    9.86    0.96
   0  -7   4    1.13    0.57
   0  -7   3    2.18    0.71
   0  -7   2    2.35    0.63
   0  -7   1    0.10    0.54
   0  -7   0    2.83    0.72
   0  -7  -1   20.69    1.40
   0  -7  -2   38.06    1.64
   0  -7  -3   22.47    1.30
   0  -7  -4   17.71    1.17
   0  -7  -5   25.12    1.37
   0  -8  15    1.40    0.95
   0  -8  14    4.58    1.20
   0  -8  13    3.08    0.84
   0  -8  12    7.98    1.25
   0  -8  11    4.93    1.04
   0  -8  10    4.87    1.06
   0  -8   9    3.93    0.78
   0  -8   8    9.40    1.16
   0  -8   7   14.89    1.22
   0  -8   6   56.71    2.31
   0  -8   5   49.56    2.31
   0  -8   4   29.96    1.88
   0  -8   3   40.34    2.03
   0  -8   2   37.89    2.07
   0  -8   1   37.24    2.15
   0  -8   0    8.72    1.12
   0  -8  -1    6.90    0.92
   0  -8  -2    1.93    0.65
   0  -8  -3    4.07    0.89
   0  -8  -4    0.95    0.64
   0  -9  13    1.16    0.98
   0  -9  12    1.01    0.77
   0  -9  11    4.15    0.99
   0  -9  10    5.87    1.06
   0  -9   9   12.36    1.40
   0  -9   8   14.15    1.47
   0  -9   7   20.49    1.68
   0  -9   6   23.05    1.67
   0  -9   5   37.60    2.13
   0  -9   4   54.81    2.53
   0  -9   3   63.60    2.82
   0  -9   2   72.41    3.06
   0  -9   1   80.66    3.34
   0  -9   0   77.44    2.84
   0  -9  -1   54.53    2.30
   0  -9  -2   50.06    2.44
   0  -9  -3   67.11    2.59
   0 -10  11    0.85    1.09
   0 -10  10    2.24    1.04
   0 -10   9    1.89    0.81
   0 -10   8    4.41    1.14
   0 -10   7    9.28    1.32
   0 -10   6   11.71    1.44
   0 -10   5   15.71    1.61
   0 -10   4   32.56    2.29
   0 -10   3   50.68    2.82
   0 -10   2   53.59    2.89
   0 -10   1   26.89    1.72
   0 -10   0   25.56    1.62
   0 -10  -1   51.17    2.58
   0 -10  -2   47.77    2.38
   0 -10  -3   41.78    2.20
   0 -11   8   -0.42    0.72
   0 -11   7   -0.14    0.66
   0 -11   6    0.57    0.78
   0 -11   5    0.04    0.79
   0 -11   4    3.76    1.11
   0 -11   3    9.90    1.60
   0 -11   2   13.21    1.53
   0 -11   1    8.46    1.07
   0 -11   0   14.09    1.51
   0 -11  -1   18.53    1.68
   0 -11  -2   39.36    2.33
   0 -12   5    3.03    1.28
   0 -12   4    0.55    0.60
   0 -12   3    1.27    0.59
   0 -12   2    0.20    0.53
   0 -12   1    0.36    0.72
   0 -12   0    0.50    0.96
   0 -12  -1    1.44    0.93
   0 -13   0   10.76    1.39
   1 -12  -1    8.96    1.30
   1 -12   0   22.80    2.00
   1 -12   1    9.51    1.47
   1 -12   2   14.70    1.81
   1 -12   3   12.39    1.66
   1 -11  -2   20.89    1.79
   1 -11  -1   26.69    2.03
   1 -11   0   18.60    1.65
   1 -11   1   33.86    2.44
   1 -11   2   26.29    2.08
   1 -11   3   22.95    1.89
   1 -11   4   15.80    1.44
   1 -11   5   20.27    1.74
   1 -11   6    5.32    0.97
   1 -11   7    5.77    1.11
   1 -10  -3   11.48    1.44
   1 -10  -2    8.51    1.14
   1 -10  -1    9.27    1.33
   1 -10   0   12.35    1.59
   1 -10   1   22.59    1.87
   1 -10   2   24.96    1.78
   1 -10   3   15.24    1.29
   1 -10   4   15.98    1.43
   1 -10   5   24.58    2.19
   1 -10   6   18.84    1.89
   1 -10   7   24.96    2.17
   1 -10   8   11.30    1.58
   1 -10   9   12.58    1.72
   1 -10  10    4.44    1.17
   1  -9  -4    2.24    0.72
   1  -9  -3    0.36    0.73
   1  -9  -2    1.09    0.80
   1  -9  -1    0.14    0.75
   1  -9   0    4.42    1.07
   1  -9   1    1.79    0.76
   1  -9   2    0.32    0.46
   1  -9   3    3.96    1.06
   1  -9   4   12.44    1.62
   1  -9   5   16.76    1.76
   1  -9   6   15.17    1.60
   1  -9   7    7.49    1.21
   1  -9   8    7.72    1.25
   1  -9   9    8.64    1.40
   1  -9  10    4.82    1.16
   1  -9  11    6.53    1.26
   1  -9  12    4.23    1.18
   1  -8  -5   29.56    1.80
   1  -8  -4   57.31    2.37
   1  -8  -3   60.45    2.38
   1  -8  -2   40.89    1.99
   1  -8  -1   19.83    1.48
   1  -8   0    8.53    1.11
   1  -8   1    7.11    0.94
   1  -8   2    9.73    1.28
   1  -8   3    8.92    1.30
   1  -8   4   14.19    1.57
   1  -8   5   13.14    1.39
   1  -8   6    0.36    0.70
   1  -8   7   -0.29    0.55
   1  -8   8   -0.29    0.51
   1  -8   9    0.24    0.83
   1  -8  10    1.12    0.67
   1  -8  11    1.65    0.96
   1  -8  12    1.39    0.99
   1  -8  13    0.50    0.67
   1  -8  14    1.02    0.96
   1  -7  -6   43.60    1.83
   1  -7  -5   78.01    2.56
   1  -7  -4   93.11    2.72
   1  -7  -3   62.72    2.20
   1  -7  -2   72.53    2.37
   1  -7  -1   69.25    2.55
   1  -7   0   53.53    2.05
   1  -7   1   88.44    2.71
   1  -7   2  105.87    3.42
   1  -7   3   59.09    2.52
   1  -7   4   76.68    2.88
   1  -7   5   32.84    1.85
   1  -7   6    6.71    0.93
   1  -7   7    9.12    1.09
   1  -7   8    4.05    0.89
   1  -7   9    2.43    0.92
   1  -7  10    0.18    0.60
   1  -7  11   -0.42    0.73
   1  -7  12   -0.91    0.51
   1  -7  14   -0.63    0.81
   1  -7  15   -0.30    0.91
   1  -6  -6   13.08    1.00
   1  -6  -5   82.75    2.44
   1  -6  -4   69.23    2.07
   1  -6  -3   52.28    1.81
   1  -6  -2   18.45    1.08
   1  -6  -1   56.10    2.07
   1  -6   0   93.96    2.35
   1  -6   1  177.63    3.99
   1  -6   2  104.19    3.10
   1  -6   3   67.36    2.45
   1  -6   4   71.10    2.37
   1  -6   5   25.76    1.51
   1  -6   6   58.61    2.29
   1  -6   7   64.44    2.40
   1  -6   8   26.15    1.53
   1  -6   9    6.95    0.87
   1  -6  10    6.57    0.88
   1  -6  11    9.78    1.16
   1  -6  12    4.97    0.85
   1  -6  13    4.43    0.94
   1  -6  14    2.55    0.80
   1  -5  -6   12.33    0.91
   1  -5  -5   19.52    1.07
   1  -5  -4    5.88    0.65
   1  -5  -3    6.41    0.67
   1  -5  -2   11.75    0.79
   1  -5  -1   58.38    1.88
   1  -5   0   61.58    1.76
   1  -5   1   77.46    2.43
   1  -5   2   80.25    2.40
   1  -5   3   54.73    1.89
   1  -5   4   33.52    1.65
   1  -5   5   61.93    2.09
   1  -5   6   52.47    1.80
   1  -5   7   38.22    1.72
   1  -5   8   71.97    2.34
   1  -5   9   37.72    1.74
   1  -5  10   19.90    1.43
   1  -5  11    8.41    1.05
   1  -5  12   11.32    1.10
   1  -5  13   15.14    1.40
   1  -5  14    7.33    1.06
   1  -4  -5   10.26    0.79
   1  -4  -4    0.19    0.28
   1  -4  -3    0.93    0.38
   1  -4  -2    3.78    0.45
   1  -4  -1    1.15    0.52
   1  -4   0   -0.53    0.37
   1  -4   1    2.86    0.61
   1  -4   2   22.38    1.21
   1  -4   3    0.10    0.35
   1  -4   4   -0.27    0.54
   1  -4   5    3.91    0.55
   1  -4   6   21.48    1.14
   1  -4   7   46.26    1.73
   1  -4   8   29.19    1.41
   1  -4   9   17.56    1.23
   1  -4  10   16.03    1.28
   1  -4  11   20.10    1.41
   1  -4  12   11.98    1.19
   1  -4  13    4.51    0.87
   1  -3  -4  159.93    2.50
   1  -3  -3   70.65    1.55
   1  -3  -2   33.71    1.01
   1  -3  -1   17.02    0.77
   1  -3   0    0.56    0.31
   1  -3   1   56.93    1.64
   1  -3   2  167.95    2.66
   1  -3   3  153.11    2.60
   1  -3   4   69.72    1.78
   1  -3   5    3.36    0.56
   1  -3   6    8.04    0.78
   1  -3   7    1.22    0.49
   1  -3   8    1.04    0.53
   1  -3   9   -0.15    0.30
   1  -3  10   -0.06    0.35
   1  -3  11    2.57    0.67
   1  -3  12    5.34    0.82
  -1   2  10   33.71    1.23
   1  -2  -3   78.25    1.49
   1  -2  -2   65.44    1.29
   1  -2  -1    7.36    0.45
   1  -2   0   32.36    0.91
   1  -2   1  136.54    2.17
   1  -2   2   86.84    1.62
   1  -2   3  141.44    2.08
   1  -2   4   81.35    1.65
   1  -2   5    8.02    0.60
   1  -2   6   19.34    0.91
   1  -2   7   19.89    1.01
   1  -2   8   14.78    0.95
   1  -2   9   13.59    0.98
   1  -2  10    8.66    0.85
   1  -2  11    1.76    0.65
   1  -2  12   -0.21    0.52
  -1   1   9    5.41    0.57
  -1   1   8   57.26    1.43
   1  -1  -1  259.06    2.61
   1  -1   0   40.97    0.79
   1  -1   1  349.88    2.90
   1  -1   2  314.32    2.93
   1  -1   3   61.61    1.18
   1  -1   4   32.89    0.91
   1  -1   5  200.95    2.54
   1  -1   6   95.01    1.87
   1  -1   7   58.88    1.57
   1  -1   8   85.61    1.98
   1  -1   9   46.23    1.55
   1  -1  10   33.73    1.40
   1  -1  11   15.67    1.07
  -1   0  11    4.45    0.67
  -1   0  10    4.19    0.59
  -1   0   9   29.26    1.21
  -1   0   8    4.92    0.55
  -1   0   7   13.16    0.68
  -1   0   6   29.43    1.00
   1   0   0   41.77    0.88
   1   0   1  122.64    1.31
   1   0   2    8.74    0.38
   1   0   3   10.84    0.40
   1   0   4   27.79    0.69
   1   0   5   70.84    1.25
   1   0   6   55.98    1.11
   1   0   7   94.60    1.57
   1   0   8   51.21    1.22
   1   0   9   31.92    1.05
   1   0  10   16.45    0.86
  -1  -1  12   37.53    1.84
  -1  -1  11   24.87    1.37
  -1  -1  10   48.79    1.65
  -1  -1   9   35.83    1.37
  -1  -1   8   42.60    1.42
  -1  -1   7   10.44    0.73
  -1  -1   6    6.00    0.57
  -1  -1   5   11.76    0.67
  -1  -1   4   28.29    0.97
  -1  -1   3   89.11    1.43
  -1  -1   2   30.54    0.71
  -1  -1   1    2.17    0.26
  -1  -1   0   42.15    0.67
   1   1   5   26.20    0.54
   1   1   6   16.32    0.51
   1   1   7   18.36    0.59
   1   1   9    8.03    0.51
  -1  -2  13   22.44    1.39
  -1  -2  12   21.59    1.31
  -1  -2  11   68.63    2.21
  -1  -2  10   94.64    2.67
  -1  -2   9   74.66    2.38
  -1  -2   8   55.23    1.91
  -1  -2   7   82.50    2.15
  -1  -2   6  132.34    2.50
  -1  -2   5  122.46    2.18
  -1  -2   4  116.91    1.97
  -1  -2   3   42.39    1.09
  -1  -2   2  111.15    1.74
  -1  -2   1   20.61    0.74
  -1  -2   0  172.64    1.83
  -1  -2  -1  270.47    2.41
   1   2   6    2.15    0.20
   1   2   7    0.55    0.19
   1   2   8    0.49    0.28
  -1  -3  13    3.35    0.74
  -1  -3  12    7.09    0.85
  -1  -3  11   18.80    1.28
  -1  -3  10   23.29    1.32
  -1  -3   9   38.02    1.51
  -1  -3   8   57.57    1.74
  -1  -3   7  109.11    2.36
  -1  -3   6   45.67    1.44
  -1  -3   5   84.93    1.87
  -1  -3   4   97.29    1.86
  -1  -3   3   91.46    1.73
  -1  -3   2  107.46    1.74
  -1  -3   1  114.26    1.92
  -1  -3   0   93.24    1.48
  -1  -3  -1  161.73    2.02
  -1  -3  -2  203.75    2.14
  -1  -3  -3  125.97    1.45
  -1  -3  -4  102.47    1.27
  -1  -4  14   -1.14    0.54
  -1  -4  13    0.06    0.63
  -1  -4  12   -0.50    0.70
  -1  -4  11    1.26    0.81
  -1  -4  10    1.97    0.75
  -1  -4   9    1.12    0.55
  -1  -4   8    4.97    0.68
  -1  -4   7    9.10    0.80
  -1  -4   6   26.12    1.22
  -1  -4   5   92.15    2.28
  -1  -4   4  171.87    3.03
  -1  -4   3  128.93    2.23
  -1  -4   2   79.58    1.68
  -1  -4   1  134.76    2.41
  -1  -4   0  377.85    4.00
  -1  -4  -1  309.70    3.39
  -1  -4  -2  254.21    3.13
  -1  -4  -3  315.01    3.53
  -1  -4  -4  197.52    2.27
  -1  -4  -5  121.28    1.79
  -1  -5  15    3.94    0.92
  -1  -5  14    3.84    1.00
  -1  -5  13    5.49    1.00
  -1  -5  12    3.13    0.71
  -1  -5  11    5.41    0.93
  -1  -5  10    6.82    0.91
  -1  -5   9    0.07    0.39
  -1  -5   8    0.88    0.44
  -1  -5   7   -0.44    0.33
  -1  -5   6    2.63    0.52
  -1  -5   5    1.70    0.44
  -1  -5   4    9.31    0.78
  -1  -5   3    6.82    0.83
  -1  -5   2   43.74    1.50
  -1  -5   1   30.35    1.16
  -1  -5   0   26.83    1.10
  -1  -5  -1   20.84    0.93
  -1  -5  -2   87.00    1.96
  -1  -5  -3  138.56    2.62
  -1  -5  -4  124.30    2.20
  -1  -5  -5   59.25    1.38
  -1  -5  -6   24.85    0.84
  -1  -6  15    8.40    1.33
  -1  -6  14   12.67    1.50
  -1  -6  13   15.23    1.65
  -1  -6  12   13.07    1.48
  -1  -6  11   12.50    1.28
  -1  -6  10   26.54    1.81
  -1  -6   9   22.90    1.57
  -1  -6   8   20.73    1.52
  -1  -6   7   17.72    1.30
  -1  -6   6   39.62    1.88
  -1  -6   5   22.14    1.39
  -1  -6   4   23.94    1.27
  -1  -6   3   53.78    1.79
  -1  -6   2   35.35    1.42
  -1  -6   1    9.04    0.82
  -1  -6   0    2.61    0.49
  -1  -6  -1    1.99    0.49
  -1  -6  -2   15.73    1.12
  -1  -6  -3   11.81    0.92
  -1  -6  -4   27.46    1.24
  -1  -6  -5   13.76    0.81
  -1  -7  16   -0.05    0.85
  -1  -7  15    8.27    1.27
  -1  -7  14    6.89    1.20
  -1  -7  13    8.43    1.26
  -1  -7  12   12.09    1.41
  -1  -7  11    6.10    0.94
  -1  -7  10   10.24    1.13
  -1  -7   9   17.57    1.36
  -1  -7   8   28.69    1.65
  -1  -7   7   40.76    1.80
  -1  -7   5   32.31    1.54
  -1  -7   4   70.96    2.26
  -1  -7   3   65.89    2.17
  -1  -7   2   48.02    1.78
  -1  -7   1   84.09    2.35
  -1  -7   0   99.03    2.70
  -1  -7  -1   39.39    1.70
  -1  -7  -2   18.38    1.29
  -1  -7  -3   15.75    1.00
  -1  -7  -4   10.16    0.96
  -1  -8  15   -0.54    0.60
  -1  -8  14    0.43    0.67
  -1  -8  13    0.35    0.63
  -1  -8  12    1.49    0.85
  -1  -8  11    5.57    1.07
  -1  -8  10    5.76    0.94
  -1  -8   9   20.24    1.56
  -1  -8   8   23.78    1.61
  -1  -8   7   27.18    1.70
  -1  -8   6   30.49    1.69
  -1  -8   5   63.75    2.34
  -1  -8   4   26.31    1.51
  -1  -8   3   37.67    1.76
  -1  -8   2   77.56    2.42
  -1  -8   1  136.86    3.44
  -1  -8   0  102.97    2.91
  -1  -8  -1   96.12    3.02
  -1  -8  -2  129.86    3.67
  -1  -8  -3   73.60    2.24
  -1  -8  -4  113.19    3.11
  -1  -9  13   -0.41    0.69
  -1  -9  12   -0.51    0.82
  -1  -9  11    0.10    0.87
  -1  -9  10    0.42    0.77
  -1  -9   9    2.39    0.88
  -1  -9   8    1.55    0.67
  -1  -9   7    2.13    0.84
  -1  -9   6   10.51    1.21
  -1  -9   5    6.81    0.91
  -1  -9   4   16.57    1.36
  -1  -9   3   59.03    2.40
  -1  -9   2   57.84    2.53
  -1  -9   1   74.55    2.71
  -1  -9   0  125.16    3.80
  -1  -9  -1  143.09    4.17
  -1  -9  -2  108.48    3.25
  -1  -9  -3   89.40    2.88
  -1 -10  11   -0.04    0.60
  -1 -10  10    1.13    0.68
  -1 -10   9    2.07    0.97
  -1 -10   8    0.08    0.50
  -1 -10   7    1.59    0.80
  -1 -10   6    0.64    0.78
  -1 -10   5    1.48    0.76
  -1 -10   4   -0.22    0.87
  -1 -10   3    2.36    0.94
  -1 -10   2    6.28    1.11
  -1 -10   1    6.32    1.06
  -1 -10   0   15.40    1.57
  -1 -10  -1   11.18    1.38
  -1 -10  -2    8.01    1.00
  -1 -11   9    3.93    1.22
  -1 -11   8    5.45    1.15
  -1 -11   7    9.50    1.47
  -1 -11   6   10.11    1.47
  -1 -11   5    7.02    1.10
  -1 -11   4    5.57    1.16
  -1 -11   3    0.78    0.75
  -1 -11   2   -0.34    0.88
  -1 -11   1    1.77    0.92
  -1 -11   0    2.64    1.04
  -1 -11  -1    3.86    0.86
  -1 -12   7   11.90    1.57
  -1 -12   6   16.37    1.85
  -1 -12   5   18.44    1.96
  -1 -12   4    3.99    1.07
  -1 -12   3   12.62    1.62
  -1 -12   2   17.26    1.76
  -1 -12   1   19.17    1.78
  -1 -12   0    7.74    1.04
  -1 -13   3   26.32    2.28
  -1 -13   2   21.70    1.83
  -1 -13   1   21.01    1.64
   2 -12  -1    3.16    0.97
   2 -11  -3   -0.10    1.00
   2 -11  -2    0.90    0.74
   2 -11  -1    1.23    0.82
   2 -11   0    6.48    1.25
   2 -11   1    6.55    1.14
   2 -11   2    7.92    1.35
   2 -11   3    5.53    1.28
   2 -11   4    6.86    1.24
   2 -11   5   17.98    1.90
   2 -10  -4    7.09    1.39
   2 -10  -3    3.12    0.88
   2 -10  -2    4.36    1.14
   2 -10  -1    3.12    1.05
   2 -10   0    2.25    0.94
   2 -10   1    0.08    0.59
   2 -10   2    1.22    0.97
   2 -10   3    3.31    1.10
   2 -10   4    6.41    1.27
   2 -10   5    1.20    0.74
   2 -10   7    3.97    0.92
   2 -10   8    4.15    1.03
   2  -9  -4   56.98    2.81
   2  -9  -3   70.43    2.95
   2  -9  -2   60.87    2.79
   2  -9  -1   34.38    2.02
   2  -9   0   21.25    1.64
   2  -9   1    7.72    1.11
   2  -9   2   14.37    1.62
   2  -9   3   15.34    1.61
   2  -9   4   10.69    1.28
   2  -9   5    7.56    1.07
   2  -9   6    1.28    0.58
   2  -9   7    1.00    0.60
   2  -9   8    0.00    0.57
   2  -9   9    0.71    0.74
   2  -9  10   -0.91    0.91
   2  -9  11   -0.85    0.98
   2  -8  -5   42.78    2.34
   2  -8  -4   30.88    1.90
   2  -8  -3   75.79    2.84
   2  -8  -2   80.73    2.93
   2  -8  -1   64.37    2.53
   2  -8   0   66.77    2.64
   2  -8   1   92.57    3.35
   2  -8   2   92.66    3.35
   2  -8   3   98.81    3.15
   2  -8   4   42.17    1.94
   2  -8   5   36.75    2.07
   2  -8   6   15.15    1.41
   2  -8   7   11.97    1.58
   2  -8   8   11.22    1.66
   2  -8   9    8.51    1.44
   2  -8  10    4.15    1.07
   2  -8  11    1.39    0.88
   2  -8  12    0.85    0.99
   2  -8  13   -0.49    0.73
   2  -8  14    0.42    1.09
   2  -7  -6    7.33    1.01
   2  -7  -5   15.05    1.34
   2  -7  -4   20.90    1.52
   2  -7  -3   38.67    1.89
   2  -7  -2   71.86    2.55
   2  -7  -1   68.52    2.45
   2  -7   0   98.15    2.98
   2  -7   1   96.73    3.18
   2  -7   2   59.52    2.40
   2  -7   3   43.35    1.89
   2  -7   4   49.61    2.21
   2  -7   5   84.64    3.28
   2  -7   6   49.45    2.61
   2  -7   7   26.78    1.95
   2  -7   8   23.54    1.83
   2  -7   9   17.92    1.63
   2  -7  10   16.32    1.71
   2  -7  11    9.74    1.45
   2  -7  12    7.33    1.42
   2  -7  13    2.02    1.11
   2  -7  14    0.71    0.84
   2  -6  -6   13.58    1.10
   2  -6  -5    2.44    0.61
   2  -6  -4    1.95    0.61
   2  -6  -3    1.17    0.62
   2  -6  -2    1.60    0.62
   2  -6  -1    2.49    0.56
   2  -6   0   24.65    1.37
   2  -6   1   42.46    1.94
   2  -6   2   27.02    1.45
   2  -6   3   26.07    1.38
   2  -6   4   50.29    2.35
   2  -6   6   19.25    1.65
   2  -6   7   75.22    2.86
   2  -6   8   42.70    2.24
   2  -6   9   36.29    2.13
   2  -6  10   23.31    1.75
   2  -6  11    8.45    1.14
   2  -6  12    6.56    1.06
   2  -6  14    2.44    1.00
   2  -5  -6   47.33    1.92
   2  -5  -5   15.80    1.12
   2  -5  -4   30.13    1.45
   2  -5  -3   26.13    1.29
   2  -5  -2    9.06    0.78
   2  -5  -1    6.02    0.65
   2  -5   0    9.44    0.80
   2  -5   1    0.00    0.42
   2  -5   2    0.06    0.32
   2  -5   3   -0.19    0.34
   2  -5   4    0.24    0.53
   2  -5   5    0.93    0.76
   2  -5   6   11.69    1.33
   2  -5   7    3.49    0.82
   2  -5   8   10.80    1.20
   2  -5   9   24.10    1.63
   2  -5  10    8.16    1.00
   2  -5  11    4.28    0.80
   2  -5  12    3.31    0.75
   2  -5  13    4.98    1.04
   2  -4  -5  112.50    2.45
   2  -4  -4  234.17    3.36
   2  -4  -3  231.54    3.63
   2  -4  -2  263.01    3.61
   2  -4  -1  110.63    2.26
   2  -4   1   48.22    1.69
   2  -4   2   33.63    1.25
   2  -4   3   34.60    1.44
   2  -4   4   29.21    1.52
   2  -4   5   14.43    1.10
   2  -4   6    1.32    0.70
   2  -4   7    0.89    0.49
   2  -4   8    1.12    0.76
   2  -4   9    2.25    0.94
   2  -4  10    1.32    0.62
   2  -4  11    1.99    0.80
   2  -4  12   -0.77    0.62
   2  -3  -4  204.97    3.12
   2  -3  -3  193.82    2.71
   2  -3  -2   91.85    1.92
   2  -3  -1  108.40    2.01
   2  -3   0  178.77    2.65
   2  -3   1   37.88    1.27
   2  -3   2  167.11    2.56
   2  -3   3  112.62    2.34
   2  -3   4   88.51    2.33
   2  -3   5   38.75    1.56
   2  -3   6   31.40    1.35
   2  -3   7   18.64    1.11
   2  -3   8   27.58    1.43
   2  -3   9   18.92    1.27
   2  -3  10    7.65    0.92
   2  -3  11    0.59    0.59
   2  -3  12   -0.05    0.46
   2  -2  -3  116.04    2.30
   2  -2  -2  109.47    1.82
   2  -2  -1   51.30    1.29
   2  -2   0   25.68    0.90
   2  -2   1   50.04    1.19
   2  -2   2  118.66    2.02
   2  -2   3  121.68    2.08
   2  -2   4  169.39    2.93
   2  -2   5   57.42    1.70
   2  -2   6   63.86    1.75
   2  -2   7  127.80    2.62
   2  -2   8   32.42    1.35
   2  -2   9   42.77    1.52
   2  -2  10   21.37    1.17
   2  -2  11   13.40    1.02
  -2   1  11    4.72    0.66
  -2   1  10    9.81    0.80
   2  -1  -1    8.10    0.64
   2  -1   0    9.25    0.55
   2  -1   1   60.55    1.22
   2  -1   2   15.49    0.61
   2  -1   3   26.00    0.77
   2  -1   4   57.44    1.48
   2  -1   5   40.62    1.30
   2  -1   6   76.38    1.69
   2  -1   7   39.18    1.32
   2  -1   8   53.91    1.50
   2  -1   9   50.77    1.53
   2  -1  10   28.82    1.27
  -2   0  12   14.49    1.18
  -2   0  11   22.71    1.36
  -2   0  10   25.04    1.18
  -2   0   9   24.79    1.22
  -2   0   8    8.59    0.74
   2   0   1    3.13    0.33
   2   0   2   25.32    0.72
   2   0   4   15.95    0.53
   2   0   5    0.87    0.38
   2   0   6   21.93    0.94
   2   0   7   24.84    0.94
   2   0   8   22.26    0.88
   2   0   9    4.56    0.55
  -2  -1  13    4.30    0.76
  -2  -1  12   22.81    1.38
  -2  -1  11   12.44    1.05
  -2  -1  10   17.75    1.17
  -2  -1   9   46.60    1.88
  -2  -1   8   86.17    2.21
  -2  -1   7  203.21    3.13
  -2  -1   6  173.14    2.90
  -2  -1   5  152.30    2.51
   2   1   3   62.08    1.16
   2   1   4  109.54    1.36
   2   1   5   58.76    0.99
   2   1   6   56.00    1.19
   2   1   8    5.60    0.51
  -2  -2  13    4.07    0.96
  -2  -2  12    2.60    0.74
  -2  -2  11   -0.15    0.50
  -2  -2  10   31.37    1.59
  -2  -2   9   30.13    1.46
  -2  -2   8   22.99    1.22
  -2  -2   7   42.41    1.57
  -2  -2   6   98.59    2.32
  -2  -2   5   83.25    2.08
  -2  -2   4  161.90    2.61
  -2  -2   3  127.69    2.03
  -2  -2   2   68.53    1.36
  -2  -2   1   41.85    1.02
  -2  -2   0    1.98    0.27
  -2  -2  -1  529.52    4.17
  -2  -2  -2  241.22    2.24
  -2  -3  14    2.73    0.80
  -2  -3  13    0.55    0.47
  -2  -3  12    2.77    0.90
  -2  -3  11   -0.93    0.71
  -2  -3  10   -0.10    0.66
  -2  -3   9    0.93    0.50
  -2  -3   8    2.15    0.52
  -2  -3   7    7.41    0.80
  -2  -3   6   14.95    0.96
  -2  -3   5   19.25    1.03
  -2  -3   4   45.24    1.43
  -2  -3   3   43.12    1.31
  -2  -3   2   86.39    1.74
  -2  -3   1   40.39    1.09
  -2  -3   0  119.00    1.72
  -2  -3  -1  167.38    2.09
  -2  -3  -2   47.72    0.86
  -2  -3  -3  234.05    2.17
  -2  -4  14    8.68    1.09
  -2  -4  13   19.97    1.55
  -2  -4  12   27.17    1.67
  -2  -4  11   18.22    1.29
  -2  -4  10   15.54    1.24
  -2  -4   9    5.25    0.73
  -2  -4   8    1.85    0.56
  -2  -4   7    0.67    0.45
  -2  -4   6   20.02    1.35
  -2  -4   5    5.00    0.69
  -2  -4   4    8.64    0.93
  -2  -4   3    3.53    0.51
  -2  -4   2    8.30    0.68
  -2  -4   1   16.45    0.74
  -2  -4   0   32.78    1.00
  -2  -4  -1   20.71    0.83
  -2  -4  -2   71.17    1.36
  -2  -4  -3   33.19    0.89
  -2  -4  -4   62.75    1.28
  -2  -4  -5   16.27    0.47
  -2  -5  15    7.58    1.21
  -2  -5  14    9.16    1.17
  -2  -5  13   14.18    1.47
  -2  -5  12   14.62    1.33
  -2  -5  11   21.60    1.48
  -2  -5  10   24.20    1.53
  -2  -5   9   32.42    1.73
  -2  -5   8   53.50    2.00
  -2  -5   7   87.24    2.49
  -2  -5   6   52.56    1.87
  -2  -5   5   40.82    1.53
  -2  -5   4  100.02    2.33
  -2  -5   2   30.19    1.19
  -2  -5   1   42.68    1.37
  -2  -5   0   28.39    1.07
  -2  -5  -1   83.05    1.93
  -2  -5  -2   68.39    1.54
  -2  -5  -3   10.22    0.65
  -2  -5  -5   10.64    0.62
  -2  -6  16    1.28    0.98
  -2  -6  14    4.27    0.98
  -2  -6  13    6.21    0.97
  -2  -6  12    5.25    0.84
  -2  -6  11    7.56    0.94
  -2  -6  10   25.48    1.66
  -2  -6   9   52.04    2.41
  -2  -6   8   42.56    2.04
  -2  -6   7   58.62    2.29
  -2  -6   6   98.89    2.87
  -2  -6   5   81.64    2.36
  -2  -6   4   53.56    1.71
  -2  -6   3   46.52    1.53
  -2  -6   2   90.44    2.12
  -2  -6   1  110.41    2.54
  -2  -6   0   64.75    1.79
  -2  -6  -1  230.63    3.31
  -2  -6  -2  131.77    2.46
  -2  -6  -3   35.86    1.38
  -2  -6  -4   39.12    1.52
  -2  -7  16   -1.29    0.94
  -2  -7  15   -0.53    1.01
  -2  -7  14   -0.48    0.92
  -2  -7  13   -0.85    0.81
  -2  -7  12    0.33    0.84
  -2  -7  10    0.52    0.72
  -2  -7   9    3.26    0.73
  -2  -7   8   24.22    1.49
  -2  -7   7   32.55    1.65
  -2  -7   6   22.04    1.35
  -2  -7   5   23.56    1.39
  -2  -7   4   41.87    1.84
  -2  -7   3   64.08    2.22
  -2  -7   2   85.59    2.33
  -2  -7   1   95.88    2.30
  -2  -7   0  187.55    3.38
  -2  -7  -1  130.74    2.74
  -2  -7  -2   82.93    2.26
  -2  -7  -3  149.32    3.06
  -2  -7  -4  170.42    3.50
  -2  -8  15    1.86    1.11
  -2  -8  14    1.60    1.06
  -2  -8  13    0.27    1.01
  -2  -8  12   -0.25    0.68
  -2  -8  11   -0.16    0.98
  -2  -8  10   -0.97    0.56
  -2  -8   9   -0.46    0.58
  -2  -8   8   -0.31    0.61
  -2  -8   7    0.40    0.86
  -2  -8   6    0.31    0.51
  -2  -8   5    6.11    0.86
  -2  -8   4    6.73    0.98
  -2  -8   3    3.05    0.68
  -2  -8   2   30.68    1.53
  -2  -8   1   76.28    2.29
  -2  -8   0  160.17    3.34
  -2  -8  -1  207.98    3.73
  -2  -8  -2  209.46    3.97
  -2  -8  -3   92.71    2.85
  -2  -9  14    3.05    1.11
  -2  -9  13    3.72    1.14
  -2  -9  12    1.85    0.80
  -2  -9  11    5.39    0.99
  -2  -9  10    5.21    1.13
  -2  -9   9    3.21    1.04
  -2  -9   8    3.97    0.80
  -2  -9   7    7.20    1.07
  -2  -9   6    4.78    0.84
  -2  -9   5    2.11    0.83
  -2  -9   4    4.17    0.90
  -2  -9   3    0.51    0.78
  -2  -9   2    0.21    0.68
  -2  -9   1   -0.64    0.58
  -2  -9   0   -0.29    0.65
  -2  -9  -1    1.46    0.75
  -2  -9  -2    0.62    0.83
  -2 -10  12    8.20    1.46
  -2 -10  11    2.89    0.91
  -2 -10  10    6.96    1.14
  -2 -10   9    7.13    1.09
  -2 -10   8   14.76    1.54
  -2 -10   7   12.89    1.28
  -2 -10   6   13.76    1.29
  -2 -10   5   18.42    1.42
  -2 -10   4   23.62    1.63
  -2 -10   3    7.61    0.93
  -2 -10   2   18.86    1.42
  -2 -10   1   30.94    1.87
  -2 -10   0   27.51    1.69
  -2 -10  -1   23.26    1.78
  -2 -10  -2   17.70    1.69
  -2 -11  10    0.83    0.74
  -2 -11   9    8.04    1.34
  -2 -11   8    8.14    1.20
  -2 -11   7   11.18    1.38
  -2 -11   6   10.31    1.30
  -2 -11   5   19.43    1.58
  -2 -11   4   21.18    1.64
  -2 -11   3   39.30    2.22
  -2 -11   2   49.18    2.54
  -2 -11   1   23.57    1.74
  -2 -11   0   34.62    2.15
  -2 -11  -1   70.20    3.20
  -2 -12   7    2.09    1.04
  -2 -12   6    5.11    1.21
  -2 -12   5    9.44    1.44
  -2 -12   4    0.65    0.68
  -2 -12   3    8.01    1.21
  -2 -12   1   40.97    2.54
  -2 -12   0   38.73    2.51
  -2 -13   4    0.18    0.77
  -2 -13   3    1.26    0.85
  -2 -13   2    3.97    1.33
  -2 -13   1    3.43    1.01
   3 -11  -3   14.08    1.93
   3 -11  -2    1.56    0.95
   3 -11  -1   10.66    1.65
   3 -11   0    7.35    1.29
   3 -11   1    3.16    1.18
   3 -10  -4   23.18    2.14
   3 -10  -3    8.42    1.43
   3 -10  -2   17.34    1.78
   3 -10  -1   18.03    1.74
   3 -10   0   27.52    2.19
   3 -10   1   15.53    1.64
   3 -10   2   21.08    1.88
   3 -10   3   16.91    1.73
   3 -10   4    7.86    1.31
   3 -10   5    2.95    0.87
   3 -10   6    2.50    0.83
   3  -9  -5    6.29    1.18
   3  -9  -4    7.43    1.14
   3  -9  -3   28.38    2.21
   3  -9  -2   20.95    1.77
   3  -9  -1   30.09    2.01
   3  -9   0   38.41    2.31
   3  -9   1   55.23    2.70
   3  -9   2   40.13    2.26
   3  -9   3   44.28    2.37
   3  -9   4   30.55    2.02
   3  -9   5   21.69    1.81
   3  -9   6   23.41    2.00
   3  -9   7   11.29    1.48
   3  -9   8    8.35    1.27
   3  -9   9    3.92    0.96
   3  -9  10    3.68    0.85
   3  -8  -6   -0.12    0.80
   3  -8  -5    0.51    0.89
   3  -8  -4    2.12    0.74
   3  -8  -3    6.65    1.11
   3  -8  -2   29.35    1.94
   3  -8  -1   39.33    2.14
   3  -8   0   31.07    1.93
   3  -8   1   14.84    1.34
   3  -8   2   32.27    1.95
   3  -8   3   24.83    1.72
   3  -8   4   31.47    2.02
   3  -8   5   47.01    2.59
   3  -8   6   18.88    1.67
   3  -8   7   14.29    1.38
   3  -8   9   12.85    1.35
   3  -8  10    8.95    1.20
   3  -8  11    2.90    0.73
   3  -8  12    3.71    0.97
   3  -7  -6    2.65    0.87
   3  -7  -5    1.63    0.70
   3  -7  -4    2.48    0.88
   3  -7  -3    4.37    1.02
   3  -7  -2    2.66    0.83
   3  -7  -1    2.00    0.65
   3  -7   0    5.02    0.95
   3  -7   1    3.45    0.86
   3  -7   2    8.50    1.10
   3  -7   3    3.49    0.77
   3  -7   4    2.63    0.79
   3  -7   5    8.94    1.16
   3  -7   6    7.79    0.98
   3  -7   7    5.23    0.82
   3  -7   8    7.49    0.91
   3  -7   9    8.66    1.03
   3  -7  10   12.40    1.38
   3  -7  11    5.43    0.95
   3  -7  12    5.45    0.95
   3  -7  13    1.87    0.72
   3  -6  -6   17.80    1.37
   3  -6  -5   34.80    1.75
   3  -6  -4   14.97    1.09
   3  -6  -3   37.60    1.94
   3  -6  -2   53.63    2.12
   3  -6  -1   51.73    2.04
   3  -6   0   48.51    2.02
   3  -6   1   22.03    1.37
   3  -6   2    4.82    0.74
   3  -6   3   -0.35    0.46
   3  -6   4    0.08    0.49
   3  -6   5   -0.23    0.58
   3  -6   6    2.55    0.63
   3  -6   7   -0.07    0.58
   3  -6   8    3.66    0.86
   3  -6   9    8.57    1.22
   3  -6  10    4.03    1.12
   3  -6  11    1.17    0.91
   3  -6  12    0.91    0.71
   3  -6  13    0.05    1.01
   3  -5  -5   54.39    2.03
   3  -5  -4   55.40    2.01
   3  -5  -3  113.40    2.90
   3  -5  -2  140.84    3.14
   3  -5  -1  128.74    2.90
   3  -5   0  110.50    2.74
   3  -5   1   74.87    2.22
   3  -5   2   23.89    1.29
   3  -5   3   30.34    1.57
   3  -5   4   31.82    1.69
   3  -5   5   41.80    1.73
   3  -5   6   15.07    1.07
   3  -5   7    8.47    1.02
   3  -5   8    1.92    0.68
   3  -5   9    2.49    0.78
   3  -5  10    8.11    1.31
   3  -5  11    2.77    1.02
   3  -5  12    0.27    0.91
   3  -4  -4   66.35    2.00
   3  -4  -3   97.70    2.21
   3  -4  -2  131.70    2.88
   3  -4  -1   74.90    2.00
   3  -4   0   71.48    2.01
   3  -4   1  106.30    2.41
   3  -4   2   98.45    2.36
   3  -4   3   40.77    1.64
   3  -4   4   61.99    2.10
   3  -4   5   92.27    2.33
   3  -4   6   47.56    1.78
   3  -4   7  123.80    3.25
   3  -4   8   57.93    2.39
   3  -4   9   30.78    1.90
   3  -4  10   11.37    1.29
   3  -4  11    1.98    0.90
   3  -4  12    2.36    0.99
   3  -3  -3   15.54    0.91
   3  -3  -2   21.41    0.98
   3  -3  -1   13.63    0.88
   3  -3   0   44.78    1.43
   3  -3   1   15.74    0.91
   3  -3   2   30.32    1.19
   3  -3   3   41.96    1.46
   3  -3   4  104.37    2.48
   3  -3   5   54.09    1.64
   3  -3   6   24.80    1.22
   3  -3   7   26.23    1.45
   3  -3   8   24.38    1.64
   3  -3   9   36.05    2.02
   3  -3  10   67.69    2.66
   3  -3  11   42.56    2.19
   3  -2  -2    5.46    0.56
   3  -2  -1    0.19    0.34
   3  -2   0    8.22    0.68
   3  -2   1    1.35    0.35
   3  -2   2   13.76    0.79
   3  -2   3    5.88    0.53
   3  -2   4   32.59    1.33
   3  -2   5    5.33    0.57
   3  -2   6    1.81    0.43
   3  -2   7   18.77    1.17
   3  -2   8   42.06    1.88
   3  -2   9   31.17    1.74
   3  -2  10   26.24    1.72
  -3   1  12   17.58    1.23
   3  -1  -1   30.12    1.12
   3  -1   0   67.30    1.53
   3  -1   1    2.17    0.41
   3  -1   2   13.28    0.71
   3  -1   3   25.84    0.93
   3  -1   4   18.58    0.85
   3  -1   5    9.92    0.75
   3  -1   6    2.43    0.44
   3  -1   7    0.37    0.33
   3  -1   8    0.54    0.49
   3  -1   9    0.03    0.56
   3  -1  10    0.23    0.56
  -3   0  12    3.08    0.64
  -3   0  11    1.02    0.60
  -3   0  10    1.46    0.56
   3   0   2   58.93    1.34
   3   0   3   37.21    1.11
   3   0   4   94.96    1.73
   3   0   5  177.79    2.41
   3   0   6  117.38    2.14
   3   0   7   89.47    1.83
   3   0   8   53.61    1.44
   3   0   9   20.30    1.05
  -3  -1  13    0.68    0.61
  -3  -1  12    1.54    0.73
  -3  -1  11   10.54    1.11
  -3  -1  10    2.13    0.57
  -3  -1   9    5.02    0.75
  -3  -1   8   11.91    0.97
   3   1   4   76.45    1.58
   3   1   5  111.23    1.89
   3   1   6   91.80    1.63
  -3  -2  14    2.81    0.83
  -3  -2  13    3.12    0.85
  -3  -2  12    1.48    0.71
  -3  -2  11   10.99    1.18
  -3  -2  10    6.03    0.92
  -3  -2   9    1.26    0.53
  -3  -2   8    4.75    0.70
  -3  -2   7    1.76    0.45
  -3  -2   6    2.48    0.50
  -3  -2   5    3.38    0.57
  -3  -2   4    2.26    0.45
  -3  -3  14   10.76    1.49
  -3  -3  13   12.90    1.41
  -3  -3  12   27.57    1.77
  -3  -3  11   29.81    1.77
  -3  -3  10   15.21    1.31
  -3  -3   9   25.56    1.57
  -3  -3   8   16.04    1.19
  -3  -3   7   27.22    1.43
  -3  -3   6   33.68    1.57
  -3  -3   5   29.53    1.47
  -3  -3   4   32.34    1.42
  -3  -3   3   10.43    0.75
  -3  -3   2    0.23    0.35
  -3  -3   1    5.84    0.53
  -3  -3   0    2.13    0.37
  -3  -3  -1   67.76    1.34
  -3  -3  -2    2.24    0.31
  -3  -3  -3    1.95    0.24
  -3  -3  -4    1.03    0.19
  -3  -4  15    1.90    0.71
  -3  -4  14   10.68    1.37
  -3  -4  13   22.85    1.97
  -3  -4  12   35.57    2.40
  -3  -4  11   12.23    1.53
  -3  -4  10   19.43    1.56
  -3  -4   9   35.25    1.86
  -3  -4   8   28.93    1.65
  -3  -4   7   47.41    1.96
  -3  -4   6  126.08    3.05
  -3  -4   5  152.63    3.17
  -3  -4   4   67.37    2.00
  -3  -4   3   49.98    1.61
  -3  -4   2   11.12    0.75
  -3  -4   1   14.92    0.81
  -3  -4   0   38.02    1.15
  -3  -4  -1  126.21    1.98
  -3  -4  -2  283.59    2.97
  -3  -4  -3  196.54    2.28
  -3  -4  -4   62.31    1.08
  -3  -5  16   -0.22    0.65
  -3  -5  15    0.16    0.73
  -3  -5  14    1.31    0.66
  -3  -5  13    3.39    0.81
  -3  -5  12   15.77    1.48
  -3  -5  11   22.55    1.76
  -3  -5  10   16.02    1.41
  -3  -5   9   26.38    1.75
  -3  -5   8   42.18    2.18
  -3  -5   7   64.86    2.64
  -3  -5   6  124.90    3.47
  -3  -5   5  100.54    2.97
  -3  -5   4  103.73    2.87
  -3  -5   3  134.08    3.09
  -3  -5   2   78.89    2.24
  -3  -5   1  113.05    2.36
  -3  -5   0  173.03    2.64
  -3  -5  -1   80.64    1.62
  -3  -5  -2   76.41    1.42
  -3  -5  -3  130.75    1.91
  -3  -5  -4   84.01    1.47
  -3  -6  16    0.25    0.63
  -3  -6  15   -0.68    0.92
  -3  -6  14   -0.58    0.71
  -3  -6  13   -0.01    0.51
  -3  -6  12   -0.04    0.69
  -3  -6  11    0.18    0.77
  -3  -6  10    1.83    0.88
  -3  -6   9   12.49    1.26
  -3  -6   8    9.70    1.02
  -3  -6   7   12.89    1.08
  -3  -6   6   20.81    1.27
  -3  -6   5    8.87    0.84
  -3  -6   4   22.74    1.21
  -3  -6   3   74.85    2.06
  -3  -6   2   54.39    1.67
  -3  -6   1   43.35    1.33
  -3  -6   0   61.41    1.76
  -3  -6  -1   73.66    1.67
  -3  -6  -2  138.14    2.45
  -3  -6  -3   88.40    1.86
  -3  -6  -4   54.81    1.43
  -3  -7  16    0.40    0.70
  -3  -7  15    2.54    1.07
  -3  -7  14    1.61    0.77
  -3  -7  13    1.92    0.76
  -3  -7  12    4.27    1.28
  -3  -7  11    3.01    0.96
  -3  -7  10    8.17    1.24
  -3  -7   9    6.13    1.08
  -3  -7   8    2.08    0.72
  -3  -7   7    1.76    0.67
  -3  -7   6    2.32    0.68
  -3  -7   5    2.78    0.71
  -3  -7   4    1.51    0.67
  -3  -7   3    0.38    0.58
  -3  -7   2    3.09    0.63
  -3  -7   1   26.67    1.21
  -3  -7   0   63.48    1.92
  -3  -7  -1   71.77    2.07
  -3  -7  -2   14.45    0.94
  -3  -7  -3   21.82    1.06
  -3  -8  15    2.52    1.20
  -3  -8  14    7.06    1.33
  -3  -8  13    9.42    1.41
  -3  -8  12   12.71    1.48
  -3  -8  11   16.76    1.54
  -3  -8  10    7.88    1.07
  -3  -8   9   15.35    1.34
  -3  -8   8   17.54    1.37
  -3  -8   7   16.30    1.27
  -3  -8   6   11.13    1.03
  -3  -8   5    6.96    0.84
  -3  -8   4   -0.26    0.41
  -3  -8   3    1.74    0.66
  -3  -8   2    4.01    0.84
  -3  -8   1    0.75    0.48
  -3  -8   0   -0.11    0.36
  -3  -8  -1    0.64    0.56
  -3  -8  -2    4.66    0.71
  -3  -8  -3    7.73    0.84
  -3  -9  14    3.20    1.13
  -3  -9  13    5.85    1.30
  -3  -9  12    4.36    1.20
  -3  -9  11   14.93    1.79
  -3  -9  10    8.60    1.35
  -3  -9   9   17.40    1.73
  -3  -9   8   18.21    1.67
  -3  -9   7   37.66    2.25
  -3  -9   6   39.51    2.17
  -3  -9   5   25.27    1.69
  -3  -9   4   30.98    1.74
  -3  -9   3   69.70    2.50
  -3  -9   2   71.22    2.37
  -3  -9   1   37.12    1.66
  -3  -9   0   21.24    1.24
  -3  -9  -1   27.72    1.48
  -3  -9  -2    8.91    0.92
  -3 -10  12    1.58    1.23
  -3 -10  11    0.73    0.79
  -3 -10  10    5.35    1.10
  -3 -10   9    6.35    1.09
  -3 -10   8    8.16    1.16
  -3 -10   7   22.17    1.80
  -3 -10   6   13.89    1.28
  -3 -10   5   22.79    1.50
  -3 -10   4   65.60    2.45
  -3 -10   3   36.48    1.85
  -3 -10   2   20.42    1.35
  -3 -10   1   33.79    1.75
  -3 -10   0   44.33    1.97
  -3 -10  -1   53.35    2.17
  -3 -11  10   -0.57    0.90
  -3 -11   9   -0.03    0.84
  -3 -11   8    1.35    0.73
  -3 -11   7    4.31    1.07
  -3 -11   6    3.65    0.87
  -3 -11   5    5.70    0.94
  -3 -11   4   16.28    1.42
  -3 -11   3   10.17    1.12
  -3 -11   2   15.03    1.26
  -3 -11   1   25.59    1.59
  -3 -11   0   12.29    1.25
  -3 -12   8    0.86    0.92
  -3 -12   7    0.23    0.69
  -3 -12   6   -0.29    0.77
  -3 -12   5   -0.34    0.51
  -3 -12   4    0.10    0.52
  -3 -12   3    3.39    0.89
  -3 -12   2    5.95    1.13
  -3 -12   1    1.61    0.69
  -3 -13   5    4.26    1.20
  -3 -13   4    2.84    1.13
  -3 -13   3    9.12    1.38
  -3 -13   2    1.15    0.79
   4 -10  -4    1.30    0.96
   4 -10  -3    6.55    1.18
   4 -10  -2    5.97    1.26
   4 -10  -1    3.84    1.15
   4 -10   0   22.39    2.08
   4 -10   1   16.51    1.81
   4 -10   2    2.58    0.90
   4 -10   3   14.86    1.75
   4  -9  -5    0.30    0.92
   4  -9  -4   -0.48    0.91
   4  -9  -3    2.93    1.04
   4  -9  -2    1.06    0.84
   4  -9  -1    7.07    1.36
   4  -9   0    5.46    1.19
   4  -9   1    1.57    0.77
   4  -9   2    7.90    1.19
   4  -9   3   10.69    1.37
   4  -9   4    8.31    1.21
   4  -9   5    8.54    1.32
   4  -9   6   11.71    1.40
   4  -9   7   11.28    1.37
   4  -9   8    5.66    1.05
   4  -8  -5    4.34    1.13
   4  -8  -4    5.48    1.15
   4  -8  -3    2.63    0.94
   4  -8  -2    5.23    1.06
   4  -8  -1    1.62    0.77
   4  -8   0    0.74    0.63
   4  -8   1    4.06    1.03
   4  -8   2    1.89    0.75
   4  -8   3    0.62    0.59
   4  -8   4    1.73    0.70
   4  -8   5    4.83    0.96
   4  -8   6    3.41    0.97
   4  -8   7   -0.25    0.73
   4  -8   8    0.07    0.83
   4  -8   9   -0.37    0.81
   4  -8  10    1.14    0.69
   4  -8  11    4.24    1.20
   4  -7  -5   37.78    2.15
   4  -7  -4   47.47    2.50
   4  -7  -3   34.58    1.96
   4  -7  -2   39.10    2.21
   4  -7  -1   45.36    2.31
   4  -7   0   47.91    2.30
   4  -7   1   33.13    1.91
   4  -7   2    9.29    1.12
   4  -7   3    8.73    1.06
   4  -7   4    3.66    0.79
   4  -7   5    1.93    0.64
   4  -7   6    1.99    0.86
   4  -7   7    0.23    0.53
   4  -7   8    0.63    0.61
   4  -7   9   -0.57    0.52
   4  -7  10    0.32    0.87
   4  -7  11    0.13    0.67
   4  -7  12   -0.42    0.75
   4  -7  13    0.19    0.84
   4  -6  -5   34.60    2.01
   4  -6  -4   49.51    2.37
   4  -6  -3   49.21    2.02
   4  -6  -2   65.19    2.51
   4  -6  -1   66.08    2.52
   4  -6   0   61.59    2.34
   4  -6   1   40.83    1.93
   4  -6   2   34.79    1.83
   4  -6   3   30.26    1.74
   4  -6   4   24.06    1.55
   4  -6   5   23.08    1.51
   4  -6   6   20.67    1.61
   4  -6   7   10.21    1.18
   4  -6   8    9.45    1.22
   4  -6   9    5.61    1.00
   4  -6  10    1.80    0.71
   4  -6  11    2.20    0.86
   4  -6  12    4.19    1.03
   4  -5  -4   22.53    1.39
   4  -5  -3   27.74    1.55
   4  -5  -2   32.42    1.63
   4  -5  -1   80.92    2.63
   4  -5   0   73.26    2.38
   4  -5   1   85.55    2.58
   4  -5   2   81.58    2.56
   4  -5   3   61.33    2.21
   4  -5   4   26.49    1.50
   4  -5   5   23.05    1.42
   4  -5   6   78.66    2.68
   4  -5   7   80.39    2.99
   4  -5   8   25.92    1.76
   4  -5   9   14.85    1.37
   4  -5  10   11.45    1.26
   4  -5  11    5.77    0.92
   4  -5  12    3.70    0.89
   4  -4  -4    9.98    0.95
   4  -4  -3    1.58    0.61
   4  -4  -2    0.66    0.39
   4  -4  -1    0.77    0.42
   4  -4   0    5.79    0.79
   4  -4   1   18.32    1.11
   4  -4   2   59.33    2.02
   4  -4   3   92.86    2.49
   4  -4   4   43.02    1.72
   4  -4   5   82.89    2.40
   4  -4   6   19.28    1.30
   4  -4   7    0.58    0.70
   4  -4   8    8.18    1.03
   4  -4   9    9.91    1.15
   4  -4  10    7.61    0.97
   4  -4  11    7.23    0.95
   4  -3  -3   55.81    1.97
   4  -3  -2   17.50    1.04
   4  -3  -1   22.90    1.06
   4  -3   0    5.18    0.65
   4  -3   1    7.24    0.75
   4  -3   2    1.44    0.40
   4  -3   3    0.16    0.46
   4  -3   4    0.00    0.32
   4  -3   5    3.82    0.66
   4  -3   6    0.96    0.43
   4  -3   7    9.90    0.94
   4  -3   8   19.34    1.43
   4  -3   9    6.48    0.91
   4  -3  10    5.86    0.88
   4  -3  11    4.73    0.83
   4  -2  -2   92.24    2.37
   4  -2  -1   61.56    1.78
   4  -2   0   35.73    1.26
   4  -2   1   52.95    1.69
   4  -2   2   88.59    2.09
   4  -2   3   32.59    1.29
   4  -2   4    6.88    0.66
   4  -2   5    6.15    0.68
   4  -2   6    0.57    0.35
   4  -2   7    2.01    0.58
   4  -2   8    1.09    0.63
   4  -2   9   -0.94    0.57
   4  -2  10   -0.63    0.55
   4  -1   0  143.94    2.72
   4  -1   1  127.84    2.56
   4  -1   2  137.94    2.64
   4  -1   3  189.89    3.04
   4  -1   4  110.60    2.25
   4  -1   5   30.01    1.21
   4  -1   6   57.78    1.68
   4  -1   7   30.37    1.28
   4  -1   8   20.73    1.16
   4  -1   9   19.32    1.24
  -4   0  13    0.95    0.47
  -4   0  12    0.00    0.41
  -4   0  11    0.40    0.44
   4   0   2  228.48    3.44
   4   0   3  208.55    3.07
   4   0   4  247.11    3.67
   4   0   5  205.55    3.12
   4   0   6   72.03    1.85
   4   0   7   28.96    1.22
   4   0   8   72.46    1.91
  -4  -1  13    4.26    1.02
  -4  -1  12    4.61    0.80
  -4  -1  11    9.01    1.09
  -4  -1  10   16.18    1.27
  -4  -1   9   18.15    1.23
   4   1   4    7.64    0.83
   4   1   5   11.15    0.91
   4   1   6   16.96    0.98
   4   1   7  102.98    2.37
  -4  -2  14    9.10    1.27
  -4  -2  13   11.74    1.33
  -4  -2  12   16.36    1.62
  -4  -2  11   31.28    2.11
  -4  -2  10   35.75    1.87
  -4  -2   9   32.27    1.63
  -4  -2   8   44.51    1.94
  -4  -2   7   43.41    1.83
  -4  -3  15    2.50    0.91
  -4  -3  14    2.70    0.76
  -4  -3  13    6.93    1.18
  -4  -3  12    9.75    1.29
  -4  -3  11   38.59    2.15
  -4  -3  10   28.66    1.89
  -4  -3   9   18.21    1.69
  -4  -3   8   28.07    1.75
  -4  -3   7   30.36    1.57
  -4  -3   6   61.04    2.07
  -4  -3   5  138.29    3.21
  -4  -3   4  139.71    3.11
  -4  -3   3   95.98    2.37
  -4  -4  15    1.41    0.86
  -4  -4  14   -0.19    0.93
  -4  -4  13    0.34    0.68
  -4  -4  12    6.52    1.15
  -4  -4  11   12.95    1.49
  -4  -4  10    6.33    1.08
  -4  -4   9    7.42    1.00
  -4  -4   8    8.58    1.04
  -4  -4   7   13.14    1.24
  -4  -4   6   13.08    1.28
  -4  -4   5   54.50    2.21
  -4  -4   4  136.50    3.40
  -4  -4   3  160.21    3.43
  -4  -4   2  270.22    4.16
  -4  -4   1  310.80    4.14
  -4  -4   0  273.86    3.67
  -4  -4  -1  150.60    2.46
  -4  -4  -2  276.40    3.30
  -4  -4  -3  245.43    2.95
  -4  -4  -4  103.76    1.53
  -4  -4  -5   38.80    0.78
  -4  -5  16    0.04    0.64
  -4  -5  15    1.09    0.92
  -4  -5  14    0.00    0.98
  -4  -5  13    0.47    1.10
  -4  -5  12   -0.57    0.99
  -4  -5  11   -0.22    0.91
  -4  -5  10    0.55    0.72
  -4  -5   9    1.25    0.80
  -4  -5   8    1.92    0.65
  -4  -5   7    1.77    0.79
  -4  -5   6    1.87    0.72
  -4  -5   5   22.86    1.45
  -4  -5   4   21.97    1.31
  -4  -5   3   11.50    0.99
  -4  -5   2   25.99    1.30
  -4  -5   1   48.89    1.61
  -4  -5   0   36.45    1.33
  -4  -5  -1  145.63    2.51
  -4  -5  -2  160.14    2.38
  -4  -5  -3  105.98    1.96
  -4  -5  -4  108.27    1.59
  -4  -6  16    4.62    1.19
  -4  -6  15    8.86    1.52
  -4  -6  14    1.45    0.98
  -4  -6  13    0.93    0.95
  -4  -6  12    4.90    1.00
  -4  -6  11   18.49    1.95
  -4  -6  10    8.19    1.31
  -4  -6   9   21.02    1.88
  -4  -6   8   22.92    1.94
  -4  -6   7    7.65    1.25
  -4  -6   6    7.62    1.24
  -4  -6   5   32.87    1.93
  -4  -6   4   28.92    1.72
  -4  -6   3   10.35    1.11
  -4  -6   2    2.55    0.62
  -4  -6   1    0.71    0.53
  -4  -6   0    0.26    0.42
  -4  -6  -1    0.78    0.34
  -4  -6  -2   10.37    0.66
  -4  -6  -3   10.27    0.62
  -4  -7  16    3.27    1.37
  -4  -7  15    3.46    1.15
  -4  -7  14    5.80    1.18
  -4  -7  13    5.89    1.03
  -4  -7  12   10.27    1.52
  -4  -7  11   13.72    1.64
  -4  -7  10    9.30    1.24
  -4  -7   9   20.18    1.73
  -4  -7   8   21.21    1.70
  -4  -7   7   21.57    1.56
  -4  -7   6   41.06    2.00
  -4  -7   5   39.72    1.88
  -4  -7   4   31.05    1.64
  -4  -7   3   35.39    1.56
  -4  -7   2   41.52    1.64
  -4  -7   1   19.89    1.08
  -4  -7   0   20.33    1.00
  -4  -7  -1   13.58    0.91
  -4  -7  -2    8.59    0.69
  -4  -7  -3    7.19    0.68
  -4  -8  15    1.92    1.11
  -4  -8  14    2.92    0.99
  -4  -8  13    5.71    1.51
  -4  -8  11   10.48    1.41
  -4  -8  10    7.65    1.22
  -4  -8   9    8.07    1.09
  -4  -8   8   11.95    1.23
  -4  -8   7    8.06    1.11
  -4  -8   6    5.80    0.85
  -4  -8   5   10.66    1.00
  -4  -8   4   41.24    1.92
  -4  -8   3   92.35    2.86
  -4  -8   2  137.94    3.37
  -4  -8   1  163.16    3.22
  -4  -8   0   95.10    2.28
  -4  -8  -1   52.04    1.80
  -4  -8  -2   85.44    2.28
  -4  -9  13   -1.10    0.94
  -4  -9  12    0.38    0.99
  -4  -9  11   -0.33    0.89
  -4  -9  10    0.80    0.70
  -4  -9   9    2.20    0.78
  -4  -9   8    2.30    0.97
  -4  -9   7   12.64    1.47
  -4  -9   6   33.49    1.86
  -4  -9   5   42.71    2.03
  -4  -9   4   23.84    1.51
  -4  -9   3   28.00    1.54
  -4  -9   2   36.08    1.70
  -4  -9   1   46.99    2.00
  -4  -9   0   63.34    2.20
  -4  -9  -1   74.45    2.21
  -4 -10  12    1.99    1.13
  -4 -10  11   -0.03    1.12
  -4 -10  10   -1.15    0.69
  -4 -10   9   -0.39    0.71
  -4 -10   8    0.12    0.73
  -4 -10   7   -0.32    0.64
  -4 -10   6   -0.33    0.81
  -4 -10   5   -0.29    0.85
  -4 -10   4    3.94    1.03
  -4 -10   3   10.91    1.13
  -4 -10   2    8.98    1.12
  -4 -10   1    6.07    0.77
  -4 -10   0    5.73    0.86
  -4 -10  -1    8.51    0.97
  -4 -11  10    1.35    0.97
  -4 -11   9    0.97    0.83
  -4 -11   8    0.72    0.76
  -4 -11   7    2.59    1.05
  -4 -11   6    4.58    0.99
  -4 -11   5    2.68    0.76
  -4 -11   4   -0.11    0.47
  -4 -11   3    0.74    0.73
  -4 -11   2    0.68    0.67
  -4 -11   1   -1.12    0.56
  -4 -11   0   -0.85    0.58
  -4 -12   8    4.01    1.03
  -4 -12   7    7.81    1.32
  -4 -12   6    2.17    0.83
  -4 -12   5    2.43    0.81
  -4 -12   4    8.57    1.27
  -4 -12   2    4.14    0.92
  -4 -12   1    5.62    1.01
  -4 -13   6    9.16    1.29
  -4 -13   5    8.22    1.20
  -4 -13   4    0.85    0.66
  -4 -13   3    9.40    1.29
  -4 -13   2   13.53    1.45
   5  -9  -4    1.28    0.87
   5  -9  -3    5.46    1.32
   5  -9  -2    5.22    1.09
   5  -9  -1    9.54    1.58
   5  -9   0    5.93    1.27
   5  -9   1   12.68    1.73
   5  -9   2    6.78    1.39
   5  -9   3    1.00    0.89
   5  -9   4   -0.43    0.63
   5  -8  -4    7.80    1.27
   5  -8  -3   29.15    2.27
   5  -8  -2   23.02    1.81
   5  -8  -1   15.02    1.51
   5  -8   0   23.49    2.07
   5  -8   1   20.90    1.83
   5  -8   2   28.51    2.09
   5  -8   3   31.38    2.19
   5  -8   4   26.15    1.95
   5  -8   5   25.64    2.05
   5  -8   6   10.87    1.36
   5  -8   7    7.41    1.25
   5  -8   8    4.40    1.08
   5  -7  -4   23.01    1.85
   5  -7  -3   30.38    2.20
   5  -7  -2   19.13    1.53
   5  -7  -1   16.64    1.44
   5  -7   0   24.02    1.94
   5  -7   1   19.91    1.66
   5  -7   2   29.53    1.97
   5  -7   3   20.70    1.61
   5  -7   4   37.18    2.22
   5  -7   5   22.94    1.81
   5  -7   7   27.56    1.91
   5  -7   8   20.32    1.77
   5  -7   9   13.25    1.41
   5  -7  10    8.32    1.31
   5  -7  11    2.44    0.93
   5  -6  -4    1.51    0.72
   5  -6  -3    0.87    0.79
   5  -6  -2    3.21    0.79
   5  -6  -1    2.29    0.60
   5  -6   0   14.55    1.39
   5  -6   1   18.69    1.50
   5  -6   2    8.06    1.07
   5  -6   3    6.04    0.91
   5  -6   4   18.72    1.47
   5  -6   5   25.42    1.71
   5  -6   6   36.26    2.04
   5  -6   7   31.21    1.95
   5  -6   8   15.29    1.41
   5  -6   9   10.13    1.21
   5  -6  11    7.75    1.11
   5  -6  12    5.04    1.11
   5  -5  -3    0.05    0.46
   5  -5  -2    2.49    0.81
   5  -5  -1    2.29    0.56
   5  -5   0    1.23    0.57
   5  -5   1    1.12    0.59
   5  -5   2    1.56    0.59
   5  -5   3   12.58    1.20
   5  -5   4    8.07    1.05
   5  -5   5    1.66    0.75
   5  -5   6    7.33    1.01
   5  -5   7   10.06    1.07
   5  -5   8    5.39    0.87
   5  -5   9    6.70    0.98
   5  -5  10    7.02    0.99
   5  -5  11    6.11    1.11
   5  -4  -3   23.25    1.45
   5  -4  -2   12.03    1.03
   5  -4  -1    6.37    0.82
   5  -4   0    1.11    0.42
   5  -4   1    1.31    0.70
   5  -4   2    9.95    1.05
   5  -4   3   13.90    1.08
   5  -4   4   33.66    1.71
   5  -4   5   18.58    1.31
   5  -4   6    3.10    0.67
   5  -4   8    0.83    0.62
   5  -4   9    0.79    0.55
   5  -4  10    1.62    0.75
   5  -4  11    0.91    0.67
   5  -3  -2   64.69    2.25
   5  -3  -1   51.61    1.89
   5  -3   0   32.21    1.52
   5  -3   1   51.11    1.78
   5  -3   2   38.34    1.73
   5  -3   3   22.70    1.31
   5  -3   4   24.08    1.33
   5  -3   5   13.74    1.13
   5  -3   6   22.14    1.40
   5  -3   7   29.00    1.58
   5  -3   8   10.29    1.07
   5  -3   9    4.91    0.78
   5  -3  10    2.45    0.77
   5  -2  -1   23.08    1.29
   5  -2   0   15.16    1.00
   5  -2   1   24.14    1.27
   5  -2   2   71.89    2.08
   5  -2   3   62.40    2.09
   5  -2   4   45.47    1.73
   5  -2   5   56.05    1.93
   5  -2   6   25.94    1.35
   5  -2   7    5.65    0.77
   5  -2   8   13.58    1.15
   5  -2   9   13.43    1.11
   5  -1   1   15.45    1.00
   5  -1   2   26.87    1.37
   5  -1   3   63.71    1.82
   5  -1   4   29.62    1.39
   5  -1   5   19.24    1.18
   5  -1   6   20.44    1.18
   5  -1   7   32.45    1.52
   5  -1   8   37.73    1.71
   5  -1   9   30.81    1.62
  -5   0  13    2.71    0.87
  -5   0  12    6.60    1.03
   5   0   3    1.75    0.61
   5   0   4    2.54    0.58
   5   0   5    7.28    0.75
   5   0   6   15.52    1.15
   5   0   7    4.81    0.86
   5   0   8    7.08    0.86
  -5  -1  14    7.50    1.22
  -5  -1  13    7.87    1.00
  -5  -1  12    9.95    1.23
  -5  -1  11   15.93    1.38
   5   1   6    1.93    0.74
   5   1   7   -1.17    0.56
  -5  -2  15    0.69    0.78
  -5  -2  14    0.15    0.80
  -5  -2  12   11.08    1.32
  -5  -2  11   12.57    1.20
  -5  -2  10   22.20    1.60
  -5  -2   9   37.78    2.00
  -5  -3  15    0.38    0.82
  -5  -3  14    0.25    0.79
  -5  -3  13    0.64    0.64
  -5  -3  12    0.68    0.67
  -5  -3  11    0.74    0.98
  -5  -3  10    9.57    1.28
  -5  -3   9    5.70    0.87
  -5  -3   8    4.23    0.78
  -5  -3   7    7.18    1.05
  -5  -3   6   14.17    1.22
  -5  -4  16    4.51    1.48
  -5  -4  15    5.74    1.31
  -5  -4  14    4.37    1.02
  -5  -4  13    9.96    1.47
  -5  -4  12    7.51    1.17
  -5  -4  11    2.79    1.05
  -5  -4  10    9.12    1.37
  -5  -4   9    9.49    1.27
  -5  -4   8    3.46    0.96
  -5  -4   7    1.24    0.79
  -5  -4   6   10.93    1.13
  -5  -4   5   14.69    1.22
  -5  -4   4   16.40    1.20
  -5  -4   3   28.44    1.52
  -5  -4   2   15.90    1.19
  -5  -4   1    7.07    0.78
  -5  -4   0   51.97    1.74
  -5  -4  -1   11.18    0.85
  -5  -4  -4   67.23    1.57
  -5  -5  16    3.51    1.43
  -5  -5  15    8.64    1.85
  -5  -5  14    6.96    1.49
  -5  -5  13   18.94    2.00
  -5  -5  12   16.09    1.82
  -5  -5  11   20.89    1.88
  -5  -5  10   48.05    2.69
  -5  -5   9   18.22    1.64
  -5  -5   8   15.06    1.49
  -5  -5   7   34.61    2.13
  -5  -5   6   31.85    1.91
  -5  -5   5   18.83    1.44
  -5  -5   4   28.29    1.85
  -5  -5   3   19.34    1.53
  -5  -5   2   12.33    1.12
  -5  -5   1    8.27    0.96
  -5  -5   0    1.21    0.55
  -5  -5  -1    6.51    0.76
  -5  -5  -2    5.23    0.64
  -5  -5  -3    9.64    0.67
  -5  -5  -4   12.34    0.67
  -5  -6  16    0.43    1.05
  -5  -6  15    2.42    0.93
  -5  -6  14    2.73    1.04
  -5  -6  13    6.89    1.46
  -5  -6  12   22.57    2.46
  -5  -6  11   40.56    2.83
  -5  -6  10   28.72    2.31
  -5  -6   9   39.75    2.48
  -5  -6   8   62.32    2.95
  -5  -6   7   46.76    2.46
  -5  -6   6   42.94    2.33
  -5  -6   5   67.90    2.77
  -5  -6   4   98.87    3.14
  -5  -6   3   76.54    2.60
  -5  -6   2   74.93    2.44
  -5  -6   1   58.92    2.07
  -5  -6   0   77.71    2.26
  -5  -6  -1   46.16    1.62
  -5  -6  -2   17.13    0.93
  -5  -6  -3   18.74    1.02
  -5  -7  15   -0.72    1.01
  -5  -7  14    0.67    0.84
  -5  -7  13    1.58    1.06
  -5  -7  12    1.17    0.79
  -5  -7  11   12.30    1.82
  -5  -7  10   20.12    2.02
  -5  -7   9   31.86    2.51
  -5  -7   8   30.17    2.42
  -5  -7   7   30.84    2.41
  -5  -7   6   29.75    2.23
  -5  -7   5   69.77    3.13
  -5  -7   4   76.65    3.12
  -5  -7   3   90.74    3.17
  -5  -7   2  157.33    4.03
  -5  -7   1  107.73    3.15
  -5  -7   0   78.31    2.34
  -5  -7  -1  122.42    2.62
  -5  -7  -2   58.68    1.63
  -5  -8  14    0.05    0.75
  -5  -8  13   -1.81    0.92
  -5  -8  12   -0.08    0.73
  -5  -8  11    0.93    0.86
  -5  -8  10    4.53    1.08
  -5  -8   9    1.34    0.77
  -5  -8   8    3.19    1.07
  -5  -8   7   11.79    1.34
  -5  -8   6   22.84    1.68
  -5  -8   5   33.61    1.92
  -5  -8   4   25.53    1.61
  -5  -8   3   28.41    1.57
  -5  -8   2   55.59    2.07
  -5  -8   1   94.76    2.60
  -5  -8   0   94.81    2.41
  -5  -8  -1   65.71    1.92
  -5  -8  -2   63.87    1.96
  -5  -9  13    1.68    1.24
  -5  -9  12    3.66    1.28
  -5  -9  11    1.84    1.00
  -5  -9  10    1.22    0.95
  -5  -9   9    0.70    0.72
  -5  -9   8   -0.26    0.78
  -5  -9   7    2.30    0.92
  -5  -9   6    1.94    0.84
  -5  -9   5    1.46    0.79
  -5  -9   4    1.54    0.72
  -5  -9   3    0.66    0.68
  -5  -9   2    3.19    0.82
  -5  -9   1   13.19    1.20
  -5  -9   0   21.37    1.22
  -5  -9  -1   33.07    1.44
  -5 -10  12    2.66    1.10
  -5 -10  11    9.40    1.63
  -5 -10  10    8.76    1.35
  -5 -10   9   10.63    1.70
  -5 -10   8    4.77    1.03
  -5 -10   7    4.75    1.00
  -5 -10   6   13.45    1.60
  -5 -10   5   16.67    1.42
  -5 -10   4   20.38    1.46
  -5 -10   3   14.68    1.21
  -5 -10   2    7.31    0.95
  -5 -10   1    2.46    0.75
  -5 -10   0    1.77    0.58
  -5 -11  10    7.08    1.47
  -5 -11   9   10.78    1.63
  -5 -11   8   10.12    1.53
  -5 -11   7   14.49    1.70
  -5 -11   6   10.19    1.41
  -5 -11   5   42.45    2.53
  -5 -11   4   29.38    2.01
  -5 -11   3    9.35    1.19
  -5 -11   2   22.57    1.69
  -5 -11   1   17.72    1.41
  -5 -12   8    4.16    1.45
  -5 -12   7    4.80    1.14
  -5 -12   6   13.80    1.72
  -5 -12   5   21.20    1.89
  -5 -12   4   18.23    1.66
  -5 -12   3   16.03    1.38
  -5 -12   2   22.66    1.61
  -5 -13   6    1.09    1.03
  -5 -13   5    1.14    0.99
  -5 -13   4    1.26    0.96
  -5 -13   3    7.38    1.19
   6  -8  -3   12.53    1.65
   6  -8  -2   23.16    2.07
   6  -8  -1   14.78    1.73
   6  -8   0   22.77    1.85
   6  -8   1   38.86    2.58
   6  -8   2   39.47    2.73
   6  -8   3   25.44    2.19
   6  -8   4   15.36    1.75
   6  -8   5    8.60    1.30
   6  -7  -3   -0.52    0.67
   6  -7  -2    0.03    0.62
   6  -7  -1    1.65    0.97
   6  -7   0    0.04    0.71
   6  -7   1    1.72    0.98
   6  -7   2    3.50    0.97
   6  -7   3    8.85    1.36
   6  -7   4   21.92    1.89
   6  -7   5   16.91    1.67
   6  -7   6    4.87    0.99
   6  -7   7    8.25    1.22
   6  -7   8    6.09    1.09
   6  -7   9    8.93    1.40
   6  -6  -3   10.49    1.29
   6  -6  -2   10.84    1.23
   6  -6  -1   12.99    1.40
   6  -6   0    5.17    0.96
   6  -6   1   -0.14    0.43
   6  -6   2   -0.21    0.79
   6  -6   3   -0.75    0.51
   6  -6   4    0.22    0.75
   6  -6   6    1.11    0.67
   6  -6   7    4.19    0.89
   6  -6   8    3.43    1.00
   6  -6   9    3.87    0.90
   6  -6  10    2.15    0.97
   6  -6  11    2.09    0.84
   6  -5  -2   35.04    1.87
   6  -5  -1   28.15    1.70
   6  -5   0   19.82    1.52
   6  -5   1    9.80    0.99
   6  -5   2   20.54    1.62
   6  -5   3    9.67    1.19
   6  -5   4   16.60    1.43
   6  -5   5   15.07    1.36
   6  -5   6    6.41    1.04
   6  -5   7    1.99    0.71
   6  -5   8    0.06    0.51
   6  -5   9   -0.61    0.46
   6  -5  10    1.50    0.86
   6  -4  -1   70.18    2.46
   6  -4   0   99.16    3.10
   6  -4   1  107.08    2.92
   6  -4   2   40.66    1.74
   6  -4   3   75.39    2.79
   6  -4   4   38.08    2.00
   6  -4   5   39.13    2.00
   6  -4   6   41.67    2.08
   6  -4   7   22.94    1.64
   6  -4   8   17.13    1.50
   6  -4   9    4.08    0.96
   6  -4  10    1.49    0.84
   6  -3  -1   26.19    1.53
   6  -3   0    9.71    0.94
   6  -3   1   13.86    1.18
   6  -3   2   19.30    1.23
   6  -3   3   51.76    2.08
   6  -3   4   56.29    2.29
   6  -3   5   38.19    1.94
   6  -3   6   17.55    1.35
   6  -3   7   57.40    2.36
   6  -3   8   32.85    1.83
   6  -3   9   24.86    1.73
   6  -2   1    0.56    0.60
   6  -2   2    6.18    0.92
   6  -2   3    2.17    0.60
   6  -2   4    9.01    0.91
   6  -2   5    6.66    0.87
   6  -2   6   18.94    1.42
   6  -2   7   25.38    1.60
   6  -2   8   20.07    1.51
   6  -2   9   32.13    1.87
   6  -1   2    1.77    0.73
   6  -1   3    0.71    0.60
   6  -1   4   -0.24    0.59
   6  -1   5    0.08    0.51
   6  -1   6    0.85    0.43
   6  -1   7    0.27    0.66
   6  -1   8    8.20    1.19
  -6   0  13    5.11    0.98
   6   0   4   22.83    1.48
   6   0   5   13.46    1.20
   6   0   6    6.91    0.89
  -6  -1  14    0.16    0.62
  -6  -1  13    0.86    0.79
  -6  -1  12    0.46    0.57
  -6  -2  15    0.06    0.94
  -6  -2  14    2.43    1.10
  -6  -2  13    1.51    0.84
  -6  -2  12    0.24    0.70
  -6  -2  11    0.24    0.58
  -6  -2  10   -0.24    0.53
  -6  -3  15    5.25    1.32
  -6  -3  14   34.00    2.47
  -6  -3  13    5.03    1.36
  -6  -3  12    9.20    1.49
  -6  -3  11    9.52    1.28
  -6  -3  10    8.08    1.08
  -6  -3   9   16.23    1.63
  -6  -3   8   16.34    1.49
  -6  -3   7   13.82    1.27
  -6  -4  16    1.29    1.08
  -6  -4  15    2.06    1.03
  -6  -4  14    9.62    1.56
  -6  -4  13    9.83    1.48
  -6  -4  12   17.03    1.88
  -6  -4  11   21.34    1.99
  -6  -4  10    9.06    1.61
  -6  -4   9   21.53    1.83
  -6  -4   8   19.89    1.59
  -6  -4   7   26.69    1.89
  -6  -4   6   35.74    2.15
  -6  -4   5   45.01    2.32
  -6  -4   4   48.03    2.22
  -6  -5  16    1.37    1.40
  -6  -5  15    1.35    1.00
  -6  -5  14    5.22    1.37
  -6  -5  13    2.47    1.06
  -6  -5  12    7.44    1.32
  -6  -5  11    7.99    1.31
  -6  -5  10   30.17    2.28
  -6  -5   9   37.71    2.45
  -6  -5   8   33.94    2.38
  -6  -5   7   52.89    2.93
  -6  -5   6   66.64    3.08
  -6  -5   5   69.43    2.90
  -6  -5   4   73.01    2.70
  -6  -5   3   73.42    2.55
  -6  -5   2   68.64    2.40
  -6  -5   1   79.76    2.54
  -6  -5   0   56.63    2.14
  -6  -5  -1  100.37    2.69
  -6  -5  -2  144.53    3.09
  -6  -5  -3   58.53    1.79
  -6  -6  15   -0.39    1.37
  -6  -6  14    1.45    1.41
  -6  -6  13   -1.22    0.98
  -6  -6  12    1.20    1.09
  -6  -6  11    5.61    1.47
  -6  -6  10   12.42    1.66
  -6  -6   9    7.56    1.46
  -6  -6   8    9.53    1.34
  -6  -6   7   22.57    2.03
  -6  -6   6   29.73    2.09
  -6  -6   5   40.85    2.37
  -6  -6   4   62.08    2.71
  -6  -6   3   72.13    2.91
  -6  -6   2   29.81    1.75
  -6  -6   1   43.48    1.99
  -6  -6   0   80.12    2.59
  -6  -6  -1   90.27    2.54
  -6  -6  -2  103.67    2.58
  -6  -7  14   -0.09    1.30
  -6  -7  13   -1.08    1.34
  -6  -7  12    1.94    1.32
  -6  -7  11    4.55    1.64
  -6  -7  10    3.93    1.31
  -6  -7   9    1.14    1.08
  -6  -7   8    0.84    1.02
  -6  -7   7    2.32    1.07
  -6  -7   6    5.67    1.29
  -6  -7   5    3.64    0.95
  -6  -7   4   11.57    1.41
  -6  -7   3   15.47    1.52
  -6  -7   2    8.92    1.16
  -6  -7   1   11.26    1.09
  -6  -7   0   48.05    1.97
  -6  -7  -1   77.02    2.30
  -6  -7  -2  104.04    2.56
  -6  -8  14    2.99    1.22
  -6  -8  13   12.29    1.93
  -6  -8  12    3.01    1.12
  -6  -8  11    7.23    1.46
  -6  -8  10    8.73    1.57
  -6  -8   9    3.65    1.30
  -6  -8   8    2.94    1.22
  -6  -8   7    0.57    1.02
  -6  -8   6    0.86    0.93
  -6  -8   5    1.33    1.16
  -6  -8   4    7.86    1.46
  -6  -8   3   17.08    1.66
  -6  -8   2   10.84    1.43
  -6  -8   1    0.39    0.76
  -6  -8   0    4.73    0.72
  -6  -8  -1    2.34    0.57
  -6  -9  12    8.25    1.83
  -6  -9  11    8.92    1.78
  -6  -9  10   24.11    2.32
  -6  -9   9   30.24    2.49
  -6  -9   8   21.02    1.95
  -6  -9   7   23.79    2.12
  -6  -9   6   13.50    1.64
  -6  -9   5   19.06    1.74
  -6  -9   4   25.64    1.76
  -6  -9   3   28.07    1.84
  -6  -9   2   28.86    1.74
  -6  -9   1   26.08    1.51
  -6  -9   0    5.82    0.82
  -6 -10  11    8.55    1.67
  -6 -10  10   12.87    1.85
  -6 -10   9   10.88    1.59
  -6 -10   8   11.22    1.45
  -6 -10   7   20.81    1.80
  -6 -10   6   25.39    1.89
  -6 -10   5   19.62    1.62
  -6 -10   4   34.37    1.95
  -6 -10   3   36.80    2.01
  -6 -10   2   30.64    1.91
  -6 -10   1   39.47    2.09
  -6 -11  10    0.67    0.87
  -6 -11   9    1.23    1.25
  -6 -11   8    1.78    1.19
  -6 -11   7    3.13    1.27
  -6 -11   6    4.45    0.99
  -6 -11   5   14.40    1.57
  -6 -11   4   15.30    1.41
  -6 -11   3    6.72    0.96
  -6 -11   2   13.19    1.26
  -6 -12   8   -0.75    0.94
  -6 -12   7   -0.35    0.93
  -6 -12   6    0.36    1.07
  -6 -12   5    0.02    0.80
  -6 -12   4   -0.26    0.71
  -6 -12   3    1.73    1.07
  -6 -12   2    7.77    1.27
  -6 -13   5    2.15    1.14
  -6 -13   4    0.18    0.87
  -6 -13   3   -0.25    0.58
   7  -7  -1    5.53    1.09
   7  -7   0    4.50    1.16
   7  -7   1    3.25    1.14
   7  -7   2    4.44    1.02
   7  -7   3    1.23    0.90
   7  -7   4    0.82    0.71
   7  -6  -1   29.55    2.05
   7  -6   0   29.97    2.06
   7  -6   1   21.73    1.87
   7  -6   2   18.10    1.69
   7  -6   3   12.38    1.27
   7  -6   4   11.07    1.42
   7  -6   5    8.40    1.43
   7  -6   6   12.45    1.71
   7  -6   7    2.02    0.90
   7  -6   8    1.70    0.84
   7  -6   9    2.25    1.03
   7  -5  -1   38.42    2.20
   7  -5   0   61.01    2.64
   7  -5   1   35.13    2.02
   7  -5   2   27.20    1.91
   7  -5   3   18.35    1.46
   7  -5   4   17.20    1.36
   7  -5   5   36.14    2.29
   7  -5   6   22.80    1.87
   7  -5   7   21.57    1.92
   7  -5   8   22.54    1.98
   7  -5   9   10.55    1.49
   7  -5  10    5.32    1.12
   7  -4   0   17.41    1.48
   7  -4   1   19.66    1.51
   7  -4   2   27.98    1.90
   7  -4   3   12.01    1.25
   7  -4   4    7.29    0.92
   7  -4   5   13.16    1.34
   7  -4   6   18.42    1.56
   7  -4   7   23.67    1.95
   7  -4   8   22.52    1.93
   7  -4   9   17.01    1.72
   7  -3   1    0.48    0.58
   7  -3   2   -0.73    0.57
   7  -3   3   -0.22    0.72
   7  -3   4    4.56    0.96
   7  -3   5    9.63    1.09
   7  -3   6    1.33    0.54
   7  -3   7    6.66    1.17
   7  -3   8   20.89    1.82
   7  -3   9   12.24    1.55
   7  -2   2    7.23    0.98
   7  -2   3    2.98    0.83
   7  -2   4    1.49    0.80
   7  -2   5    0.77    0.78
   7  -2   6    1.75    0.72
   7  -2   7    0.10    0.48
   7  -2   8   -0.47    0.68
   7  -1   4   26.43    1.83
   7  -1   5   23.28    1.65
   7  -1   6   16.91    1.50
   7  -1   7    7.08    1.09
   7  -1   8    4.79    0.99
  -7   0  14   -0.42    0.50
   7   0   7   69.51    2.98
  -7  -1  14    2.05    0.95
  -7  -1  13    0.96    0.72
  -7  -1  12    1.11    0.85
  -7  -2  15    3.41    1.30
  -7  -2  14    6.14    1.27
  -7  -2  13    7.25    1.25
  -7  -2  12    6.05    1.26
  -7  -2  11    9.15    1.35
  -7  -3  15    2.41    0.97
  -7  -3  14    7.88    1.65
  -7  -3  13    7.53    1.48
  -7  -3  12    9.38    1.35
  -7  -3  11   12.22    1.38
  -7  -3  10   12.30    1.42
  -7  -3   9   15.57    1.67
  -7  -3   8   17.91    1.58
  -7  -4  15    1.28    1.11
  -7  -4  14    0.14    0.73
  -7  -4  13    1.47    1.16
  -7  -4  12    2.39    1.03
  -7  -4  11    6.87    1.46
  -7  -4  10    7.07    1.21
  -7  -4   9   15.54    1.64
  -7  -4   8   29.15    2.06
  -7  -4   7   37.80    2.31
  -7  -4   6   39.95    2.33
  -7  -4   5   32.21    1.96
  -7  -5  15   -0.31    0.88
  -7  -5  14    1.91    1.19
  -7  -5  13    0.25    1.05
  -7  -5  12    0.92    0.81
  -7  -5  11    0.73    0.84
  -7  -5  10    0.18    0.81
  -7  -5   9    3.16    1.13
  -7  -5   8    3.61    1.14
  -7  -5   7    2.89    0.92
  -7  -5   6    6.84    1.04
  -7  -5   5   33.32    2.16
  -7  -5   4   39.83    2.26
  -7  -5   3   57.30    2.69
  -7  -5   2   73.43    2.91
  -7  -5   1   52.03    2.39
  -7  -5   0   26.26    1.61
  -7  -5  -1   56.65    2.29
  -7  -5  -2  139.41    3.41
  -7  -5  -3  106.09    2.84
  -7  -6  14    3.03    1.41
  -7  -6  13    6.16    1.69
  -7  -6  12    5.17    1.56
  -7  -6  11    5.21    1.47
  -7  -6  10    3.01    1.27
  -7  -6   9    2.49    1.03
  -7  -6   8    6.72    1.48
  -7  -6   7    3.98    1.08
  -7  -6   6    1.37    1.16
  -7  -6   5    3.01    1.06
  -7  -6   4    3.75    1.11
  -7  -6   3    3.62    0.96
  -7  -6   2    6.56    1.16
  -7  -6   1    5.21    0.93
  -7  -6   0    2.41    0.76
  -7  -6  -1   25.17    1.51
  -7  -6  -2   24.09    1.50
  -7  -7  13   10.28    2.10
  -7  -7  12   17.94    2.30
  -7  -7  11    8.33    1.62
  -7  -7  10   16.14    2.21
  -7  -7   9   23.82    2.35
  -7  -7   8   21.79    2.21
  -7  -7   7   24.12    2.27
  -7  -7   6   26.08    2.30
  -7  -7   5   13.83    1.58
  -7  -7   4    5.84    1.15
  -7  -7   3    1.76    0.96
  -7  -7   2    1.09    0.87
  -7  -7   1    4.99    1.02
  -7  -7   0    4.90    0.83
  -7  -7  -1    1.29    0.63
  -7  -8  12    3.34    1.51
  -7  -8  11    5.53    2.10
  -7  -8  10   21.90    2.78
  -7  -8   9   30.69    2.89
  -7  -8   8   31.42    2.79
  -7  -8   7   25.64    2.34
  -7  -8   6   45.81    2.92
  -7  -8   5   25.41    2.12
  -7  -8   4   27.63    2.12
  -7  -8   3   77.62    3.34
  -7  -8   2   53.05    2.59
  -7  -8   1   24.11    1.74
  -7  -8   0   19.86    1.52
  -7  -9  12    0.86    1.00
  -7  -9  11    5.46    1.42
  -7  -9   9   15.12    2.08
  -7  -9   8   28.82    2.95
  -7  -9   7   28.19    2.97
  -7  -9   6   36.93    3.11
  -7  -9   5   24.77    2.37
  -7  -9   4   31.60    2.51
  -7  -9   3   67.13    3.53
  -7  -9   2   43.22    2.52
  -7  -9   1   74.09    3.03
  -7  -9   0   54.00    2.39
  -7 -10  10    1.41    1.40
  -7 -10   9   -0.89    1.11
  -7 -10   8   -0.17    0.87
  -7 -10   7    2.30    1.04
  -7 -10   6    4.19    1.28
  -7 -10   5    8.85    1.35
  -7 -10   4   11.08    1.40
  -7 -10   3   21.72    1.79
  -7 -10   2   24.61    1.82
  -7 -10   1   14.12    1.23
  -7 -11   9    1.26    1.20
  -7 -11   8    2.69    1.21
  -7 -11   7    2.60    1.12
  -7 -11   6    1.20    0.96
  -7 -11   5   -0.42    0.74
  -7 -11   4    0.55    0.90
  -7 -11   3    1.40    0.99
  -7 -11   2    2.31    1.02
  -7 -12   7    8.93    1.67
  -7 -12   6    3.95    1.36
  -7 -12   5   -0.14    0.72
  -7 -12   4   -0.45    0.66
  -7 -12   3    1.53    0.78
  -7 -13   5    6.46    1.43
  -7 -13   4   14.40    1.99
   8  -6   1   14.20    1.67
   8  -6   2   14.91    1.60
   8  -5   1    6.01    1.13
   8  -5   2    3.26    0.85
   8  -5   3    3.91    0.93
   8  -5   4   10.59    1.52
   8  -5   5   10.19    1.43
   8  -5   6   11.55    1.41
   8  -5   7    7.64    1.24
   8  -5   8    5.99    1.20
   8  -5   9    4.47    0.97
   8  -4   2    0.68    0.85
   8  -4   3   -0.47    0.71
   8  -4   4   -0.70    0.49
   8  -4   5   -0.07    0.88
   8  -4   6    2.35    0.84
   8  -4   7    3.54    0.99
   8  -4   8    3.77    1.00
   8  -3   3   17.73    1.68
   8  -3   4    2.76    0.76
   8  -3   5    2.71    0.89
   8  -3   6    2.45    0.78
   8  -3   7    7.61    1.35
   8  -3   8    1.76    0.93
   8  -2   5   11.02    1.36
   8  -2   6   24.84    1.88
   8  -2   7   19.09    1.73
   8  -1   7    8.75    1.31
  -8  -1  14    3.86    1.17
  -8  -1  13    4.95    1.13
  -8  -2  14    1.93    0.91
  -8  -2  13    2.57    1.05
  -8  -2  12    3.87    1.09
  -8  -2  11    5.54    1.17
  -8  -3  14    0.31    1.09
  -8  -3  13    0.47    0.73
  -8  -3  12    0.08    0.58
  -8  -3  11    0.89    0.94
  -8  -3  10    1.21    0.74
  -8  -3   9    4.46    1.08
  -8  -4  14    0.89    0.92
  -8  -4  13    0.48    1.37
  -8  -4  12   -0.40    0.79
  -8  -4  11    0.11    0.89
  -8  -4  10    0.24    0.59
  -8  -4   9    0.92    0.77
  -8  -4   8   -0.75    0.85
  -8  -4   7   -0.55    0.83
  -8  -5  13    6.19    1.58
  -8  -5  12    4.74    1.30
  -8  -5  11    3.28    1.24
  -8  -5  10    4.36    1.44
  -8  -5   9    3.39    1.17
  -8  -5   8    5.58    1.26
  -8  -5   7    6.97    1.20
  -8  -5   6   10.46    1.44
  -8  -5   5   16.25    1.67
  -8  -5   4    6.69    1.26
  -8  -5   3    0.50    0.65
  -8  -5   2    0.76    0.63
  -8  -6  13    2.43    1.16
  -8  -6  12    6.07    1.44
  -8  -6  11    7.52    1.55
  -8  -6  10   13.11    2.07
  -8  -6   9    7.63    1.80
  -8  -6   8   25.11    2.50
  -8  -6   7   38.00    2.99
  -8  -6   6   40.14    2.75
  -8  -6   5   33.25    2.43
  -8  -6   4   19.86    1.75
  -8  -6   3   12.64    1.40
  -8  -6   2   30.92    2.00
  -8  -6   1   46.93    2.49
  -8  -6   0   34.41    2.03
  -8  -6  -1   34.82    2.07
  -8  -7  12    4.56    1.77
  -8  -7  11    9.29    1.97
  -8  -7  10    7.12    1.52
  -8  -7   9   10.98    1.99
  -8  -7   8   21.88    2.32
  -8  -7   7   18.49    2.09
  -8  -7   6   15.91    2.05
  -8  -7   5   33.85    2.75
  -8  -7   4   58.35    3.44
  -8  -7   3   37.20    2.61
  -8  -7   2   70.97    3.56
  -8  -7   1   98.98    3.99
  -8  -7   0   79.95    3.46
  -8  -7  -1   52.75    2.73
  -8  -8  11    3.68    1.54
  -8  -8   9   11.28    2.07
  -8  -8   8    8.60    1.70
  -8  -8   7   12.80    1.91
  -8  -8   6   16.28    2.15
  -8  -8   5   13.03    1.88
  -8  -8   4   12.97    1.66
  -8  -8   3   26.64    2.15
  -8  -8   2   40.39    2.59
  -8  -8   1   42.59    2.46
  -8  -8   0   64.30    2.88
  -8  -9  10   -0.02    1.30
  -8  -9   9    0.53    1.39
  -8  -9   8   -0.37    1.16
  -8  -9   7    0.99    1.60
  -8  -9   6    0.04    1.06
  -8  -9   5    0.93    1.28
  -8  -9   4    2.64    1.31
  -8  -9   3   16.72    1.94
  -8  -9   2   27.53    2.26
  -8  -9   1   33.12    2.41
  -8 -10   9    5.79    1.96
  -8 -10   8    5.04    1.44
  -8 -10   7   10.28    2.16
  -8 -10   6    6.44    1.85
  -8 -10   5    1.39    1.06
  -8 -10   4    1.73    1.33
  -8 -10   3    1.58    1.17
  -8 -10   2    3.32    1.11
  -8 -11   8   11.57    1.92
  -8 -11   7   16.98    2.32
  -8 -11   6   12.84    2.00
  -8 -11   5   14.55    1.98
  -8 -11   4    8.54    1.44
  -8 -11   3    9.35    1.58
  -8 -12   6   10.85    2.02
  -8 -12   5   21.47    2.44
  -8 -12   4   23.66    2.53
   9  -4   5    9.09    1.57
   9  -4   6    7.90    1.39
   9  -4   7   11.88    1.61
   9  -3   7   18.73    2.02
  -9  -2  12   -1.48    0.76
  -9  -3  12    3.33    1.26
  -9  -3  11    1.45    0.88
  -9  -3  10    1.47    1.00
  -9  -4  12    4.47    1.21
  -9  -4  11    6.61    1.41
  -9  -4  10   10.83    1.73
  -9  -4   9   10.15    1.52
  -9  -4   8    8.76    1.44
  -9  -4   7   16.37    1.70
  -9  -5  12    7.98    1.69
  -9  -5  11   11.73    1.95
  -9  -5  10   11.03    1.79
  -9  -5   9   19.25    2.03
  -9  -5   8   26.28    2.37
  -9  -5   7   25.04    2.36
  -9  -5   6   23.16    2.15
  -9  -5   5   27.36    2.27
  -9  -5   4   30.00    2.35
  -9  -6  11    5.12    1.69
  -9  -6  10    6.78    1.60
  -9  -6   9   10.05    1.90
  -9  -6   8    6.26    1.55
  -9  -6   7   20.25    2.14
  -9  -6   6   28.90    2.30
  -9  -6   5   35.74    2.60
  -9  -6   4   37.62    2.65
  -9  -6   3   44.16    2.75
  -9  -6   2   46.32    2.77
  -9  -6   1   74.29    3.49
  -9  -6   0  111.52    4.13
  -9  -6  -1  126.76    4.29
  -9  -7  11   -0.82    0.86
  -9  -7  10    1.59    1.16
  -9  -7   9   -0.01    1.29
  -9  -7   8    1.07    1.07
  -9  -7   7    3.81    1.69
  -9  -7   6    9.18    2.01
  -9  -7   5   14.81    2.22
  -9  -7   4   18.03    2.30
  -9  -7   3   20.99    2.23
  -9  -7   2   29.17    2.51
  -9  -7   1   54.09    3.02
  -9  -7   0   76.31    3.43
  -9  -8  10    4.17    1.78
  -9  -8   9    1.83    1.29
  -9  -8   8    1.60    1.13
  -9  -8   7    4.46    1.36
  -9  -8   6    6.72    1.49
  -9  -8   5    1.67    1.07
  -9  -8   4    1.43    1.27
  -9  -8   3    2.84    1.08
  -9  -8   2    5.77    1.38
  -9  -8   1   13.29    1.73
  -9  -9   9   13.87    2.44
  -9  -9   8   12.71    2.11
  -9  -9   7    8.12    1.76
  -9  -9   6    8.98    1.93
  -9  -9   5    7.99    1.95
  -9  -9   4   21.72    2.48
  -9  -9   3   23.92    2.45
  -9  -9   2   13.55    1.89
  -9 -10   8   18.22    3.21
  -9 -10   7   16.93    2.78
  -9 -10   6   31.62    3.54
  -9 -10   5   39.25    3.72
  -9 -10   4   13.59    2.31
  -9 -10   3   36.20    3.32
  -9 -11   7    4.92    1.52
  -9 -11   6    9.82    2.00
  -9 -11   5   16.22    2.27
  -9 -11   4   17.94    2.27
  -9 -12   5    4.54    1.61
 -10  -3  10    2.90    1.00
 -10  -4  10   12.38    1.84
 -10  -4   9   13.57    1.75
 -10  -5  10    0.74    0.79
 -10  -5   9    0.62    0.79
 -10  -5   8    2.78    1.09
 -10  -5   7   11.00    1.61
 -10  -5   6   18.99    2.07
 -10  -5   5   26.55    2.23
 -10  -6   9   -0.69    1.01
 -10  -6   8    0.24    1.15
 -10  -6   7    0.90    1.10
 -10  -6   6    1.48    0.87
 -10  -6   5    2.49    1.05
 -10  -6   4    5.30    1.46
 -10  -6   3    8.69    1.65
 -10  -6   2   14.90    1.93
 -10  -6   1   10.94    1.62
 -10  -6   0    9.22    1.49
 -10  -7   9    5.91    2.02
 -10  -7   8    9.29    1.90
 -10  -7   7    7.34    2.09
 -10  -7   6    2.16    1.32
 -10  -7   5    1.83    1.23
 -10  -7   4    0.99    1.03
 -10  -7   3    0.43    0.94
 -10  -7   2    1.12    1.06
 -10  -7   1    1.00    0.78
 -10  -8   8   19.87    2.74
 -10  -8   7   10.31    2.17
 -10  -8   6   15.05    2.38
 -10  -8   5   18.07    2.45
 -10  -8   4   14.35    2.30
 -10  -8   3    9.74    1.70
 -10  -8   2   19.81    2.46
 -10  -9   7   14.70    2.41
 -10  -9   6   23.01    2.83
 -10  -9   5   20.81    2.66
 -10  -9   4   29.57    2.95
 -10  -9   3   30.29    2.78
 -10  -9   2   28.29    2.56
 -10 -10   6    6.95    2.14
 -10 -10   5    5.63    1.80
 -10 -10   4   17.24    2.47
 -10 -10   3   23.67    2.71
 -10 -11   5    2.20    1.87
 -10 -11   4    3.25    1.82
 -11  -5   7   -0.10    1.25
 -11  -5   6    0.38    0.92
 -11  -5   5    0.02    1.16
 -11  -6   7    6.24    1.63
 -11  -6   6    6.70    1.48
 -11  -6   5    6.02    1.66
 -11  -6   4    6.76    1.73
 -11  -6   3    8.05    1.75
 -11  -6   2    3.90    1.47
 -11  -6   1    3.68    1.39
 -11  -7   7   22.87    2.90
 -11  -7   6   22.82    2.74
 -11  -7   5   17.63    2.25
 -11  -7   4   16.70    2.15
 -11  -7   3   15.65    2.07
 -11  -7   2   14.82    2.06
 -11  -7   1   22.91    2.31
 -11  -8   6   17.67    2.82
 -11  -8   5   27.92    3.26
 -11  -8   4   28.53    3.25
 -11  -8   3   16.31    2.43
 -11  -8   2   29.92    3.26
 -11  -9   6    2.99    1.45
 -11  -9   5    5.22    2.00
 -11  -9   4    8.05    1.76
 -11  -9   3   12.74    2.29
 -11 -10   4   -1.91    1.38
 -12  -6   4   15.82    2.13
 -12  -6   3   19.64    2.36
 -12  -6   2   21.12    2.41
 -12  -7   4   12.57    2.01
 -12  -7   3   12.63    2.08
 -12  -7   2   10.25    1.72
 -12  -8   3   -0.02    1.76
   0  -1  -1   52.71    0.76
   0  -1  -2  232.65    2.25
   0  -1  -3  246.01    2.91
   0  -1  -4   73.70    1.67
   0  -1  -5   99.45    2.31
   0  -2   0   18.64    0.64
   0  -2  -1   41.32    0.88
   0  -2  -2    1.08    0.24
   0  -2  -4   93.72    1.74
   0  -2  -5   88.02    1.99
   0  -2  -6  156.96    2.84
   0  -2  -7   82.70    2.23
   0  -3   0   76.41    1.45
   0  -3  -1  104.98    1.68
   0  -3  -2   16.94    0.69
   0  -3  -3    0.96    0.28
   0  -3  -4   19.26    0.84
   0  -3  -5   55.93    1.50
   0  -3  -6    5.61    0.68
   0  -3  -7    3.58    0.69
   0  -3  -8    6.47    0.80
   0  -3  -9   17.54    1.51
   0  -4   1  461.28    4.46
   0  -4   0  766.17    6.20
   0  -4  -1  244.96    3.07
   0  -4  -2  132.11    2.23
   0  -4  -3   45.73    1.30
   0  -4  -4   33.35    1.18
   0  -4  -5   48.20    1.49
   0  -4  -6   28.05    1.24
   0  -4  -7   16.01    1.03
   0  -4  -8   22.36    1.35
   0  -4  -9    7.37    0.82
   0  -5   1  279.92    3.64
   0  -5   0  101.19    1.93
   0  -5  -1  164.00    2.75
   0  -5  -2  160.30    2.73
   0  -5  -3  146.07    2.71
   0  -5  -4   87.44    2.09
   0  -5  -5   91.39    2.33
   0  -5  -6   66.99    1.94
   0  -5  -7   41.48    1.60
   0  -5  -8   21.22    1.37
   0  -5  -9   11.40    1.07
   0  -5 -10   10.99    1.17
   0  -5 -11    6.46    1.14
   0  -6   2   21.73    1.09
   0  -6   1   86.95    2.02
   0  -6   0  103.04    2.25
   0  -6  -1   79.99    2.11
   0  -6  -2   43.95    1.60
   0  -6  -3   61.06    1.92
   0  -6  -4   83.62    2.28
   0  -6  -5  107.35    2.74
   0  -6  -6   82.18    2.36
   0  -6  -7   44.42    1.88
   0  -6  -8   52.69    2.11
   0  -6  -9   49.07    2.30
   0  -6 -10   38.28    2.05
   0  -6 -11   19.83    1.54
   0  -6 -12   20.01    2.07
   0  -7   3    1.43    0.46
   0  -7   2    2.57    0.58
   0  -7   1    0.30    0.37
   0  -7   0    2.24    0.54
   0  -7  -1   19.90    1.24
   0  -7  -2   26.30    1.27
   0  -7  -3   19.16    1.19
   0  -7  -4   16.63    1.22
   0  -7  -5   24.98    1.48
   0  -7  -6    9.58    0.96
   0  -7  -7   41.23    1.96
   0  -7  -8   40.88    1.96
   0  -7  -9   39.07    2.24
   0  -7 -10   30.28    2.04
   0  -7 -11   19.77    1.73
   0  -7 -12   15.64    1.64
   0  -8   2   21.49    1.10
   0  -8   1   22.86    1.25
   0  -8   0    9.84    0.98
   0  -8  -1    8.06    0.96
   0  -8  -2    2.19    0.63
   0  -8  -3    2.10    0.68
   0  -8  -4    1.44    0.68
   0  -8  -5    7.05    1.10
   0  -8  -6    1.67    0.63
   0  -8  -8    0.21    0.77
   0  -8  -9    0.13    0.69
   0  -8 -10    1.26    0.81
   0  -8 -11    4.19    1.02
   0  -8 -12    5.81    1.34
   0  -9  -1   61.05    2.16
   0  -9  -2   47.38    2.08
   0  -9  -3   49.59    2.14
   0  -9  -4   60.81    2.45
   0  -9  -5   38.28    2.15
   0  -9  -6   16.61    1.45
   0  -9  -7    6.87    1.06
   0  -9  -8   -0.32    0.60
   0  -9  -9    0.01    0.73
   0  -9 -10   -0.38    0.70
   0  -9 -11    0.46    0.99
   0  -9 -12    0.25    1.16
   0  -9 -13    0.99    1.26
   0 -10  -4   64.37    2.73
   0 -10  -5   42.64    2.37
   0 -10  -6   16.46    1.54
   0 -10  -7   12.97    1.49
   0 -10  -8   15.21    1.69
   0 -10  -9   21.07    2.13
   0 -10 -10   11.69    1.77
   0 -10 -11    0.82    0.91
   0 -11  -8   10.36    1.56
   0 -11  -9   16.34    2.03
   0 -11 -10   16.94    2.10
   1 -10 -10    0.35    0.78
   1 -10  -9   -1.13    0.82
   1 -10  -8   -0.62    0.66
   1  -9 -11    5.90    1.61
   1  -9 -10    9.20    1.48
   1  -9  -9    3.25    0.92
   1  -9  -8    2.26    1.00
   1  -9  -7    1.38    0.94
   1  -9  -6    1.02    0.81
   1  -9  -5    2.88    0.84
   1  -9  -4    0.34    0.54
   1  -8 -11    2.51    1.25
   1  -8 -10   13.96    1.56
   1  -8  -9   17.75    1.54
   1  -8  -8   29.51    1.90
   1  -8  -7   30.74    1.92
   1  -8  -6   31.86    1.73
   1  -8  -5   25.69    1.53
   1  -8  -4   43.85    1.87
   1  -8  -3   49.39    2.04
   1  -8  -2   35.55    1.61
   1  -7 -10   14.34    1.44
   1  -7  -9   18.00    1.51
   1  -7  -7   62.39    2.54
   1  -7  -6   56.15    2.12
   1  -7  -5   40.62    1.74
   1  -7  -4   67.46    2.13
   1  -7  -3   55.86    1.98
   1  -7  -2   61.33    1.91
   1  -7  -1   67.22    1.95
   1  -7   0   58.70    1.70
   1  -7   1   51.12    1.72
   1  -6 -10    4.00    1.18
   1  -6  -9    2.19    0.86
   1  -6  -8   18.22    1.42
   1  -6  -7   26.06    1.64
   1  -6  -6    7.06    0.79
   1  -6  -5   59.40    1.99
   1  -6  -4   70.90    1.99
   1  -6  -3   44.74    1.62
   1  -6  -2   25.24    1.15
   1  -6  -1   57.18    1.65
   1  -6   0   98.65    2.11
   1  -6   1  110.75    2.18
   1  -6   2  128.37    2.22
   1  -6   3  107.41    2.05
   1  -5  -9   -0.12    0.72
   1  -5  -8    1.67    0.69
   1  -5  -7    1.18    0.51
   1  -5  -6   10.34    0.94
   1  -5  -5   12.89    0.87
   1  -5  -4    2.01    0.41
   1  -5  -3    6.43    0.65
   1  -5  -2   18.36    0.90
   1  -5  -1   75.77    1.70
   1  -5   0   77.91    1.74
   1  -5   1  115.60    1.97
   1  -5   2  131.57    1.99
   1  -5   3   55.37    1.40
   1  -4  -8    9.01    0.95
   1  -4  -7    7.60    0.81
   1  -4  -6    7.10    0.83
   1  -4  -5    5.29    0.62
   1  -4  -4    0.16    0.28
   1  -4  -3    0.35    0.25
   1  -4  -2    6.92    0.55
   1  -4  -1    1.40    0.33
   1  -4   0    0.03    0.27
   1  -4   1    5.34    0.41
   1  -4   2   38.36    1.06
   1  -3  -7   77.98    2.85
   1  -3  -6   44.39    1.66
   1  -3  -5   92.04    2.19
   1  -3  -4  108.71    2.23
   1  -3  -3   69.37    1.53
   1  -3  -2    7.56    0.46
   1  -3  -1    9.72    0.49
   1  -3   0    0.42    0.21
   1  -3   1   35.73    0.75
   1  -2  -5  167.91    3.82
   1  -2  -4  158.90    2.71
   1  -2  -3   73.56    1.70
   1  -2  -2   39.49    1.01
   1  -2   0   73.79    1.00
   1  -2   1  254.76    2.24
   1  -1  -1  127.40    1.90
  -1   0  -3   25.42    0.85
  -1   0  -4   48.34    1.37
  -1  -1  -1    0.67    0.19
  -1  -1  -2   63.68    1.05
  -1  -1  -3    4.60    0.37
  -1  -1  -4    5.39    0.41
  -1  -1  -5   41.45    1.27
  -1  -1  -6   39.61    1.42
  -1  -1  -7   31.95    1.46
  -1  -2  -1  112.69    1.76
  -1  -2  -2    7.44    0.52
  -1  -2  -3    2.39    0.30
  -1  -2  -4   19.60    0.76
  -1  -2  -5    3.13    0.39
  -1  -2  -6    3.60    0.50
  -1  -2  -7    1.73    0.49
  -1  -2  -8    1.19    0.56
  -1  -2  -9    1.62    0.66
  -1  -3  -1  119.92    2.09
  -1  -3  -2  236.95    2.97
  -1  -3  -3   62.29    1.50
  -1  -3  -4   81.61    1.70
  -1  -3  -5    7.43    0.64
  -1  -3  -6   14.65    0.84
  -1  -3  -7   61.27    1.72
  -1  -3  -8   33.66    1.48
  -1  -3  -9   18.22    1.12
  -1  -3 -10    7.61    0.85
  -1  -4   0  399.85    4.39
  -1  -4  -1  349.99    4.07
  -1  -4  -2  257.35    3.46
  -1  -4  -3  208.86    3.28
  -1  -4  -4  197.91    3.08
  -1  -4  -5  134.14    2.53
  -1  -4  -6   94.78    2.26
  -1  -4  -7   22.11    1.10
  -1  -4  -8   15.81    1.00
  -1  -4  -9   25.71    1.49
  -1  -4 -10    9.05    0.92
  -1  -4 -11   16.05    1.25
  -1  -4 -12   21.29    1.95
  -1  -5   0   74.31    1.91
  -1  -5  -1   40.40    1.32
  -1  -5  -2   90.00    2.17
  -1  -5  -3  139.36    2.90
  -1  -5  -4   84.53    2.13
  -1  -5  -5   56.80    1.83
  -1  -5  -6   45.94    1.73
  -1  -5  -7   25.57    1.28
  -1  -5  -8   30.91    1.51
  -1  -5 -10   54.21    2.34
  -1  -5 -11   29.75    1.70
  -1  -5 -12   21.14    1.66
  -1  -6   1   10.08    0.83
  -1  -6   0    2.86    0.50
  -1  -6  -1    1.86    0.42
  -1  -6  -2   12.05    0.91
  -1  -6  -3   12.31    1.09
  -1  -6  -4   21.16    1.20
  -1  -6  -5   14.74    1.14
  -1  -6  -6   17.86    1.25
  -1  -6  -7   13.09    1.10
  -1  -6  -8    8.95    0.94
  -1  -6  -9   12.09    1.12
  -1  -6 -10   25.69    1.76
  -1  -6 -11   18.38    1.52
  -1  -6 -12   16.21    1.53
  -1  -6 -13   18.86    1.87
  -1  -7   2   61.11    1.87
  -1  -7   1   93.15    2.44
  -1  -7   0   76.86    2.05
  -1  -7  -1   31.77    1.51
  -1  -7  -2   13.84    1.07
  -1  -7  -3   19.48    1.40
  -1  -7  -4    9.02    0.97
  -1  -7  -5    1.74    0.72
  -1  -7  -6    4.01    0.75
  -1  -7  -7   12.56    1.24
  -1  -7  -8    1.19    0.62
  -1  -7  -9    1.02    0.62
  -1  -7 -10    1.41    0.90
  -1  -7 -11    1.24    0.79
  -1  -7 -12    1.87    0.82
  -1  -7 -13    0.72    0.74
  -1  -7 -14   -0.16    1.08
  -1  -8   3   41.47    1.64
  -1  -8   2   88.01    2.48
  -1  -8   1  117.34    2.78
  -1  -8   0   99.41    2.56
  -1  -8  -1   98.27    2.73
  -1  -8  -2  101.85    2.99
  -1  -8  -3   81.45    2.70
  -1  -8  -4   75.58    2.62
  -1  -8  -5  135.53    3.62
  -1  -8  -6  125.57    3.56
  -1  -8  -7   21.06    1.75
  -1  -8  -8    4.88    0.93
  -1  -8  -9    4.62    1.09
  -1  -8 -10    1.28    0.81
  -1  -8 -11    2.00    0.96
  -1  -8 -12   -0.33    0.67
  -1  -8 -13    0.75    1.09
  -1  -8 -14    0.56    1.55
  -1  -9   3   29.92    1.54
  -1  -9   2   46.73    1.84
  -1  -9   1   58.30    1.96
  -1  -9   0   72.47    2.37
  -1  -9  -1  111.27    3.14
  -1  -9  -2  106.87    3.36
  -1  -9  -3   73.17    2.60
  -1  -9  -4   37.85    2.05
  -1  -9  -5   31.41    1.97
  -1  -9  -6   25.78    1.85
  -1  -9  -7   28.24    1.94
  -1  -9  -8   42.05    2.37
  -1  -9  -9   34.29    2.30
  -1  -9 -10   19.27    1.84
  -1  -9 -11   15.07    1.84
  -1  -9 -12    7.74    1.40
  -1  -9 -13    3.01    1.22
  -1 -10   0    9.76    1.04
  -1 -10  -1   10.80    1.28
  -1 -10  -2    5.26    0.84
  -1 -10  -3   20.66    1.58
  -1 -10  -4   36.83    2.12
  -1 -10  -5   25.54    1.80
  -1 -10  -6   25.44    1.98
  -1 -10  -7   12.96    1.40
  -1 -10  -8    5.80    1.10
  -1 -10  -9   20.24    1.98
  -1 -10 -10   23.60    2.19
  -1 -10 -11   30.39    2.73
  -1 -10 -12    6.73    1.38
  -1 -11  -3    0.94    0.82
  -1 -11  -4    2.83    0.80
  -1 -11  -5    3.03    0.90
  -1 -11  -6    3.58    1.22
  -1 -11  -7    1.41    1.00
  -1 -11  -8    4.39    1.27
  -1 -11  -9    7.29    1.52
  -1 -11 -10    2.77    1.24
  -1 -12  -7    0.16    0.75
  -1 -12  -8   -0.16    0.76
   2  -8  -8   18.52    1.71
   2  -8  -7   24.45    1.74
   2  -8  -6   17.58    1.34
   2  -8  -5   13.66    1.27
   2  -7  -8   -0.33    1.03
   2  -7  -7    0.11    0.53
   2  -7  -6   12.13    1.16
   2  -7  -5   14.07    1.26
   2  -7  -4   15.19    1.17
   2  -7  -3   34.08    1.49
   2  -6  -7    2.29    0.68
   2  -6  -6    6.37    0.89
   2  -6  -5    1.65    0.67
   2  -6  -4    1.96    0.64
   2  -6  -3    0.79    0.47
   2  -6  -2    1.60    0.47
   2  -6  -1    3.66    0.49
   2  -6   0    9.90    0.67
   2  -5  -7   50.10    2.55
   2  -5  -6   51.24    2.00
   2  -5  -5   11.44    0.95
   2  -5  -4   25.00    1.30
   2  -5  -3   23.58    1.18
   2  -5  -2   11.15    0.77
   2  -5  -1   11.19    0.69
   2  -5   0   12.53    0.70
   2  -5   1    0.10    0.27
   2  -5   2    0.31    0.23
   2  -4  -5   85.06    2.30
   2  -4  -4  127.24    2.64
   2  -4  -3  146.57    2.70
   2  -4  -2  240.45    3.33
   2  -4  -1   99.91    1.77
   2  -4   0   94.59    1.54
   2  -4   1   64.03    1.15
   2  -4   2   68.34    1.05
   2  -4   3   55.02    0.94
   2  -4   4   38.28    0.88
   2  -3  -4  130.56    3.41
   2  -3  -3  161.55    2.80
   2  -3  -2  125.70    2.23
   2  -3  -1  182.23    2.59
   2  -3   0  204.83    2.31
   2  -3   1  107.14    1.34
   2  -3   2  168.69    1.66
  -2   0  -2   36.08    0.64
  -2   0  -3    7.23    0.35
  -2   0  -4   19.40    0.68
  -2   0  -5    1.19    0.53
  -2   0  -6   33.54    1.54
  -2  -1  -2  173.65    2.04
  -2  -1  -3   62.94    1.18
  -2  -1  -4   73.98    1.29
  -2  -1  -5   65.92    1.38
  -2  -1  -6   52.74    1.39
  -2  -1  -7   39.35    1.51
  -2  -1  -8   10.21    0.96
  -2  -2  -2  283.74    3.30
  -2  -2  -3  135.68    2.04
  -2  -2  -4   94.29    1.63
  -2  -2  -5   92.91    1.74
  -2  -2  -6  129.43    2.30
  -2  -2  -7   78.78    1.88
  -2  -2  -8   42.90    1.60
  -2  -2  -9   28.23    1.42
  -2  -2 -10    8.66    0.93
  -2  -3  -2   61.11    1.56
  -2  -3  -3  223.83    3.09
  -2  -3  -4  298.80    3.90
  -2  -3  -5  170.70    2.75
  -2  -3  -6   67.65    1.70
  -2  -3  -7  114.43    2.30
  -2  -3  -8   66.42    1.90
  -2  -3  -9   24.86    1.33
  -2  -3 -10   41.32    1.84
  -2  -3 -11   27.09    1.60
  -2  -3 -12   15.34    1.67
  -2  -4  -1   24.72    1.14
  -2  -4  -2  100.20    2.22
  -2  -4  -3   19.98    1.03
  -2  -4  -4   42.76    1.57
  -2  -4  -5   36.54    1.36
  -2  -4  -6   15.84    0.97
  -2  -4  -7   34.92    1.49
  -2  -4  -8   24.97    1.27
  -2  -4  -9   21.83    1.29
  -2  -4 -10   24.59    1.50
  -2  -4 -11   41.82    2.02
  -2  -4 -12   31.81    1.87
  -2  -4 -13   27.92    2.26
  -2  -5  -1   78.22    2.10
  -2  -5  -2   92.39    2.22
  -2  -5  -3   12.43    0.98
  -2  -5  -4    7.45    0.87
  -2  -5  -5   10.45    0.85
  -2  -5  -6   32.09    1.47
  -2  -5  -7    5.88    0.73
  -2  -5  -8    2.84    0.64
  -2  -5  -9    3.97    0.80
  -2  -5 -10    2.91    0.69
  -2  -5 -11    9.72    1.17
  -2  -5 -12   11.78    1.35
  -2  -5 -13    3.48    0.84
  -2  -6   0   57.32    1.88
  -2  -6  -1  209.08    3.80
  -2  -6  -2   88.98    2.22
  -2  -6  -3   30.91    1.53
  -2  -6  -4   21.14    1.35
  -2  -6  -5   26.69    1.49
  -2  -6  -6   14.51    1.14
  -2  -6  -7    9.10    0.98
  -2  -6 -10    0.22    0.59
  -2  -6 -11   -0.47    0.64
  -2  -6 -12   -0.77    0.85
  -2  -6 -13    0.15    0.65
  -2  -6 -14    0.21    0.72
  -2  -7   1  163.83    3.25
  -2  -7   0  212.76    3.88
  -2  -7  -1  137.14    3.08
  -2  -7  -2   84.78    2.41
  -2  -7  -3  133.93    3.27
  -2  -7  -4  126.65    3.48
  -2  -7  -5   68.93    2.38
  -2  -7  -6   49.63    2.18
  -2  -7  -7   75.50    2.77
  -2  -7  -8   32.85    1.96
  -2  -7  -9   11.20    1.20
  -2  -7 -10    8.75    1.15
  -2  -7 -11    9.08    1.32
  -2  -7 -12    4.87    1.18
  -2  -7 -13    4.19    1.23
  -2  -7 -14    4.75    1.35
  -2  -7 -15    0.03    1.14
  -2  -8   2   24.50    1.31
  -2  -8   1   81.59    2.43
  -2  -8   0  179.81    3.79
  -2  -8  -1  159.61    3.27
  -2  -8  -2  204.01    4.18
  -2  -8  -3   86.80    2.88
  -2  -8  -4   73.07    2.89
  -2  -8  -5   46.67    2.14
  -2  -8  -6   76.65    2.94
  -2  -8  -7   52.92    2.45
  -2  -8  -8   24.21    1.83
  -2  -8  -9   22.91    1.87
  -2  -8 -10    8.73    1.22
  -2  -8 -11   13.14    1.48
  -2  -8 -12    9.05    1.49
  -2  -8 -13   22.05    2.23
  -2  -8 -14    9.37    1.68
  -2  -9   3   -0.41    0.33
  -2  -9   2   -0.02    0.55
  -2  -9   1   -0.04    0.54
  -2  -9   0    0.09    0.36
  -2  -9  -1    1.78    0.67
  -2  -9  -2   -0.03    0.67
  -2  -9  -3    6.31    1.00
  -2  -9  -4   24.22    1.74
  -2  -9  -5   44.96    2.32
  -2  -9  -6   74.25    3.04
  -2  -9  -7   34.95    2.23
  -2  -9  -8   13.64    1.54
  -2  -9  -9   13.64    1.50
  -2  -9 -10   14.19    1.68
  -2  -9 -11   14.65    1.74
  -2  -9 -12   13.64    1.83
  -2  -9 -13    6.70    1.45
  -2 -10   3   15.61    1.23
  -2 -10   2   22.31    1.50
  -2 -10   1   22.97    1.31
  -2 -10   0   24.71    1.49
  -2 -10  -1   20.54    1.53
  -2 -10  -2   13.89    1.40
  -2 -10  -3    3.73    1.04
  -2 -10  -4    1.21    0.80
  -2 -10  -5    4.04    1.10
  -2 -10  -6    0.89    0.76
  -2 -10  -7    2.92    1.06
  -2 -10  -8    5.53    1.19
  -2 -10  -9    5.15    1.32
  -2 -10 -10    6.25    1.48
  -2 -10 -11    2.91    1.09
  -2 -10 -12    2.70    1.27
  -2 -11   1   18.34    1.36
  -2 -11   0   42.69    2.11
  -2 -11  -1   42.67    2.18
  -2 -11  -2   64.43    2.89
  -2 -11  -3   28.55    1.94
  -2 -11  -4   10.98    1.30
  -2 -11  -5    5.72    1.19
  -2 -11  -6    1.98    0.83
  -2 -11  -7    3.78    1.08
  -2 -11  -8    8.81    1.63
  -2 -11  -9    3.31    1.31
  -2 -11 -10   -2.26    0.98
  -2 -12  -2   13.50    1.34
  -2 -12  -3   35.96    2.24
  -2 -12  -4   38.61    2.42
  -2 -12  -5   34.65    2.38
  -2 -12  -6   29.09    2.23
  -2 -12  -7   19.31    2.03
  -2 -12  -8    8.51    1.39
   3  -5  -2  161.33    3.79
  -3   0  -3   45.41    0.85
  -3   0  -4   85.10    1.27
  -3   0  -5  178.04    2.33
  -3   0  -6  110.43    2.26
  -3   0  -7  123.92    2.67
  -3  -1  -3  129.99    1.74
  -3  -1  -4  119.14    1.86
  -3  -1  -5   88.32    1.58
  -3  -1  -6   43.32    1.17
  -3  -1  -7   83.60    1.88
  -3  -1  -8   27.41    1.28
  -3  -1  -9   23.47    1.33
  -3  -2  -2  195.26    2.73
  -3  -2  -3   28.56    0.94
  -3  -2  -4    6.09    0.52
  -3  -2  -5   27.32    0.98
  -3  -2  -6   90.96    1.89
  -3  -2  -7   46.94    1.38
  -3  -2  -8   74.79    1.88
  -3  -2  -9   97.87    2.58
  -3  -2 -10   21.30    1.26
  -3  -2 -11   16.94    1.36
  -3  -3  -2    1.51    0.42
  -3  -3  -3    2.17    0.41
  -3  -3  -4    1.17    0.37
  -3  -3  -5    1.51    0.40
  -3  -3  -6   20.17    1.06
  -3  -3  -8   24.86    1.23
  -3  -3  -9   37.63    1.57
  -3  -3 -10   35.93    1.69
  -3  -3 -11    8.85    0.95
  -3  -3 -12   14.22    1.26
  -3  -4  -2  299.90    4.18
  -3  -4  -3  196.84    3.22
  -3  -4  -4   47.25    1.64
  -3  -4  -5   10.74    0.92
  -3  -4  -6   10.61    0.86
  -3  -4  -7    0.76    0.44
  -3  -4  -8    0.72    0.58
  -3  -4  -9    0.33    0.43
  -3  -4 -10    0.00    0.62
  -3  -4 -11    4.32    0.84
  -3  -4 -12    4.73    0.85
  -3  -4 -13    1.10    0.62
  -3  -5  -2   85.06    2.37
  -3  -5  -3  146.97    2.94
  -3  -5  -4   81.13    2.32
  -3  -5  -5   85.00    2.57
  -3  -5  -6   34.89    1.55
  -3  -5  -7   25.67    1.41
  -3  -5  -8   44.80    1.86
  -3  -5  -9   22.89    1.46
  -3  -5 -10   19.32    1.42
  -3  -5 -11    4.46    0.83
  -3  -5 -12    0.81    0.73
  -3  -5 -13   -0.90    0.49
  -3  -5 -14   -0.52    0.77
  -3  -6  -1   57.41    1.97
  -3  -6  -2   76.17    2.31
  -3  -6  -3   82.96    2.30
  -3  -6  -4   41.02    1.77
  -3  -6  -5   48.30    2.11
  -3  -6  -6   58.54    2.26
  -3  -6  -7   67.23    2.46
  -3  -6  -8   63.28    2.42
  -3  -6  -9   64.79    2.65
  -3  -6 -10   30.68    1.79
  -3  -6 -11   11.61    1.22
  -3  -6 -12   10.17    1.31
  -3  -6 -13   12.70    1.63
  -3  -6 -14    2.22    0.91
  -3  -6 -15    5.05    1.38
  -3  -7   0   74.61    2.33
  -3  -7  -1   67.73    2.29
  -3  -7  -2   14.94    1.18
  -3  -7  -3   25.38    1.46
  -3  -7  -4   27.36    1.58
  -3  -7  -5   44.06    2.22
  -3  -7  -6   53.41    2.22
  -3  -7  -7   91.03    3.15
  -3  -7  -8   51.84    2.39
  -3  -7  -9   49.84    2.51
  -3  -7 -10   30.32    2.07
  -3  -7 -11   18.73    1.69
  -3  -7 -12   22.17    1.87
  -3  -7 -13   12.21    1.59
  -3  -7 -14   21.44    2.11
  -3  -7 -15    8.36    1.41
  -3  -7 -16    3.12    1.56
  -3  -8   1    0.67    0.45
  -3  -8   0   -0.30    0.40
  -3  -8  -1    0.57    0.68
  -3  -8  -2    5.34    0.83
  -3  -8  -3    5.39    0.85
  -3  -8  -4    0.48    0.58
  -3  -8  -5    2.79    0.82
  -3  -8  -6    6.46    1.10
  -3  -8  -7   17.82    1.58
  -3  -8  -8   15.81    1.54
  -3  -8  -9    4.46    1.03
  -3  -8 -10    2.64    0.87
  -3  -8 -11   10.50    1.39
  -3  -8 -12   15.28    1.74
  -3  -8 -13    7.17    1.46
  -3  -8 -14   14.71    2.02
  -3  -9   2   57.15    2.08
  -3  -9   1   52.58    2.11
  -3  -9   0   31.08    1.77
  -3  -9  -1   19.90    1.27
  -3  -9  -2   13.06    1.18
  -3  -9  -3    9.45    1.18
  -3  -9  -4   15.70    1.48
  -3  -9  -5   18.16    1.73
  -3  -9  -6    3.13    1.00
  -3  -9  -7    3.21    1.09
  -3  -9  -8    6.21    1.30
  -3  -9  -9    0.99    1.05
  -3  -9 -10   -0.06    0.75
  -3  -9 -11   -0.49    0.72
  -3  -9 -12    0.03    0.83
  -3  -9 -13    0.06    1.24
  -3 -10   3   44.72    1.96
  -3 -10   2   24.39    1.47
  -3 -10   1   43.00    2.08
  -3 -10   0   47.48    2.05
  -3 -10  -1   50.96    2.10
  -3 -10  -2   49.28    2.27
  -3 -10  -3   38.17    2.14
  -3 -10  -4   23.21    1.84
  -3 -10  -5    8.38    1.15
  -3 -10  -6    7.32    1.18
  -3 -10  -7   24.39    1.99
  -3 -10  -8   20.14    1.95
  -3 -10  -9    3.43    1.11
  -3 -10 -10    9.51    1.64
  -3 -10 -11    0.20    0.89
  -3 -10 -12    0.01    1.19
  -3 -11   4   14.60    1.26
  -3 -11   3   16.16    1.36
  -3 -11   2   17.69    1.32
  -3 -11   1   24.37    1.58
  -3 -11   0   24.32    1.52
  -3 -11  -1   24.68    1.71
  -3 -11  -2   39.80    2.21
  -3 -11  -3   46.76    2.53
  -3 -11  -4   55.53    2.93
  -3 -11  -5   33.26    2.20
  -3 -11  -6   25.96    2.05
  -3 -11  -7   29.81    2.39
  -3 -11  -8   18.85    1.93
  -3 -11  -9   29.55    2.60
  -3 -11 -10   15.75    1.98
  -3 -12   1    4.25    0.83
  -3 -12   0    3.63    0.91
  -3 -12  -1    8.77    1.15
  -3 -12  -2   23.05    1.86
  -3 -12  -4   22.13    1.86
  -3 -12  -5   20.37    1.86
  -3 -12  -6   14.39    1.65
  -3 -12  -7   20.46    2.11
  -3 -12  -8   13.09    1.86
  -3 -13  -2   -0.05    0.61
  -3 -13  -3    0.04    0.83
  -3 -13  -4    0.90    0.98
  -3 -13  -5   -0.44    0.90
  -3 -13  -6    0.27    1.05
  -4   0  -3  255.52    2.44
  -4   0  -4  161.74    1.86
  -4   0  -6   59.38    1.49
  -4   0  -7   24.26    1.18
  -4  -1  -3   16.19    0.79
  -4  -1  -4    8.02    0.52
  -4  -1  -5   17.86    0.77
  -4  -1  -6   22.74    0.92
  -4  -1  -7   84.63    1.85
  -4  -1  -8   86.93    2.26
  -4  -1  -9   24.39    1.37
  -4  -1 -10   36.02    1.90
  -4  -2  -3    9.09    0.72
  -4  -2  -4    3.70    0.48
  -4  -2  -5    3.15    0.50
  -4  -2  -6    1.72    0.42
  -4  -2  -7    4.47    0.52
  -4  -2  -8   26.11    1.17
  -4  -2  -9   30.94    1.38
  -4  -2 -10    9.25    0.95
  -4  -2 -11   14.62    1.27
  -4  -2 -12    2.96    1.07
  -4  -3  -3  122.56    2.59
  -4  -3  -4   55.66    1.57
  -4  -3  -5   55.53    1.76
  -4  -3  -6   12.78    0.90
  -4  -3  -7    4.61    0.65
  -4  -3  -8    2.04    0.50
  -4  -3  -9    1.57    0.48
  -4  -3 -10   -0.13    0.57
  -4  -3 -11    0.52    0.57
  -4  -3 -12    0.07    0.72
  -4  -3 -13    5.48    1.03
  -4  -4  -3  263.49    4.25
  -4  -4  -4  125.35    2.59
  -4  -4  -5   55.83    1.91
  -4  -4  -6   57.19    2.01
  -4  -4  -7   60.25    2.05
  -4  -4  -8   39.90    1.73
  -4  -4  -9   40.77    1.81
  -4  -4 -10   28.10    1.50
  -4  -4 -11   28.75    1.64
  -4  -4 -12    6.84    1.19
  -4  -4 -13    7.14    1.14
  -4  -4 -14   -0.05    0.83
  -4  -5  -2  143.48    3.12
  -4  -5  -3  126.11    3.09
  -4  -5  -4   99.47    2.48
  -4  -5  -5   81.44    2.46
  -4  -5  -6  109.26    3.13
  -4  -5  -7   64.33    2.25
  -4  -5  -8   76.04    2.54
  -4  -5  -9   83.57    2.73
  -4  -5 -10   25.37    1.54
  -4  -5 -11   20.52    1.55
  -4  -5 -12    2.79    0.78
  -4  -5 -13    1.05    0.72
  -4  -5 -14    0.80    0.70
  -4  -5 -15    9.10    1.52
  -4  -6  -2    9.51    0.92
  -4  -6  -3   13.00    1.12
  -4  -6  -4   15.46    1.13
  -4  -6  -5   44.52    1.97
  -4  -6  -6   32.21    1.87
  -4  -6  -7   46.03    2.10
  -4  -6  -8   93.44    3.12
  -4  -6  -9   51.47    2.38
  -4  -6 -10   46.00    2.43
  -4  -6 -11   27.07    1.85
  -4  -6 -12   16.64    1.49
  -4  -6 -13   18.34    1.76
  -4  -6 -14   18.42    1.91
  -4  -6 -15    3.70    1.07
  -4  -6 -16   12.93    2.36
  -4  -7  -1   10.72    1.00
  -4  -7  -2    8.60    0.97
  -4  -7  -3    4.41    0.68
  -4  -7  -4    3.98    0.83
  -4  -7  -5    4.76    0.88
  -4  -7  -6    4.74    1.13
  -4  -7  -7   10.08    1.25
  -4  -7  -8    3.24    0.88
  -4  -7  -9    6.97    1.13
  -4  -7 -10    8.19    1.27
  -4  -7 -11    6.84    1.24
  -4  -7 -12    7.89    1.38
  -4  -7 -13    4.60    1.14
  -4  -7 -14    3.84    1.17
  -4  -7 -15    7.40    1.54
  -4  -7 -16    3.33    1.20
  -4  -8   0  135.96    3.34
  -4  -8  -1   37.32    1.83
  -4  -8  -2   64.35    2.35
  -4  -8  -3   65.25    2.28
  -4  -8  -4   52.20    2.38
  -4  -8  -5   41.96    2.22
  -4  -8  -6   38.20    2.30
  -4  -8  -7    8.31    1.14
  -4  -8  -8    3.35    0.93
  -4  -8  -9    2.67    1.08
  -4  -8 -10    1.78    1.06
  -4  -8 -11    0.82    1.02
  -4  -8 -12    0.65    1.00
  -4  -8 -13    0.28    0.82
  -4  -8 -14   -2.11    1.13
  -4  -8 -15   -0.01    0.87
  -4  -9   1   43.79    1.97
  -4  -9   0   44.49    1.97
  -4  -9  -1   86.97    2.97
  -4  -9  -2   49.71    2.05
  -4  -9  -3   47.90    2.20
  -4  -9  -4   83.76    3.07
  -4  -9  -5  100.91    3.60
  -4  -9  -6  114.57    4.07
  -4  -9  -7   48.33    2.58
  -4  -9  -8   38.01    2.37
  -4  -9  -9   31.15    2.24
  -4  -9 -10   14.62    1.80
  -4  -9 -11    3.11    1.28
  -4  -9 -12    2.12    1.06
  -4  -9 -13    0.28    1.22
  -4 -10   2    6.93    0.87
  -4 -10   1    5.60    0.86
  -4 -10   0    4.91    0.84
  -4 -10  -1    7.32    0.90
  -4 -10  -2   17.70    1.38
  -4 -10  -3   43.51    2.29
  -4 -10  -4   39.52    2.26
  -4 -10  -5   45.70    2.64
  -4 -10  -6   35.80    2.23
  -4 -10  -7   39.50    2.50
  -4 -10  -8   45.94    2.75
  -4 -10  -9   35.52    2.61
  -4 -10 -10   10.84    1.65
  -4 -10 -11   20.21    2.21
  -4 -10 -12    4.95    1.28
  -4 -11   3    0.96    0.55
  -4 -11   2    0.69    0.66
  -4 -11   1   -0.02    0.60
  -4 -11   0    0.25    0.42
  -4 -11  -1   -0.33    0.41
  -4 -11  -2    0.89    0.74
  -4 -11  -3    5.87    1.12
  -4 -11  -4   12.07    1.54
  -4 -11  -5    7.35    1.25
  -4 -11  -6    9.51    1.32
  -4 -11  -7   21.87    2.14
  -4 -11  -8   10.43    1.57
  -4 -11  -9   22.05    2.24
  -4 -11 -10   12.18    1.83
  -4 -12   4    7.03    0.96
  -4 -12   3    6.63    0.97
  -4 -12   2    5.86    1.02
  -4 -12   1    6.03    0.99
  -4 -12   0    6.20    0.87
  -4 -12  -1    5.62    1.01
  -4 -12  -2    2.11    0.76
  -4 -12  -3    2.48    1.03
  -4 -12  -4    1.40    0.87
  -4 -12  -5    2.59    1.11
  -4 -12  -6    3.56    1.03
  -4 -12  -7    1.11    1.09
  -4 -12  -8   -0.29    1.10
  -4 -13   1   10.44    1.13
  -4 -13   0   11.70    1.26
  -4 -13  -1   22.95    1.82
  -4 -13  -2   22.82    1.96
  -4 -13  -3   28.97    2.28
  -4 -13  -4   17.09    1.67
  -4 -13  -5    7.87    1.32
  -5   0  -3    2.52    0.38
  -5  -1  -3    4.18    0.50
  -5  -1  -4   14.96    0.76
  -5  -1  -5   10.41    0.71
  -5  -1  -6    1.32    0.35
  -5  -1  -7    0.42    0.38
  -5  -2  -3   71.91    1.86
  -5  -2  -4   50.45    1.45
  -5  -2  -5   33.71    1.27
  -5  -2  -6   25.50    1.11
  -5  -2  -7    8.12    0.72
  -5  -2  -8    5.28    0.72
  -5  -2  -9    2.15    0.58
  -5  -3  -3   87.98    2.26
  -5  -3  -4   77.29    1.97
  -5  -3  -5  123.77    2.67
  -5  -3  -6   82.64    2.33
  -5  -3  -7   32.46    1.41
  -5  -3  -8   57.87    1.95
  -5  -3  -9    9.75    0.90
  -5  -3 -10   19.95    1.28
  -5  -3 -11   30.62    1.66
  -5  -3 -12   53.61    2.42
  -5  -4  -3  156.57    3.20
  -5  -4  -4   76.50    2.23
  -5  -4  -5   63.49    2.07
  -5  -4  -6   55.02    2.04
  -5  -4  -7   70.53    2.27
  -5  -4  -8   44.41    1.83
  -5  -4  -9   58.05    2.16
  -5  -4 -10   55.34    2.21
  -5  -4 -11   34.81    1.85
  -5  -4 -12    3.83    0.86
  -5  -4 -13    3.21    0.98
  -5  -4 -14   10.26    1.36
  -5  -5  -3    7.69    0.85
  -5  -5  -4   11.18    0.93
  -5  -5  -5   11.23    1.00
  -5  -5  -6   12.54    1.19
  -5  -5  -7    4.78    0.76
  -5  -5  -8    0.76    0.54
  -5  -5  -9    2.42    0.80
  -5  -5 -10   11.72    1.30
  -5  -5 -11    9.79    1.10
  -5  -5 -12   19.22    1.61
  -5  -5 -13   15.10    1.56
  -5  -5 -14    5.32    1.03
  -5  -5 -15    2.49    0.90
  -5  -6  -2   16.12    1.21
  -5  -6  -3   14.47    1.20
  -5  -6  -4    7.62    0.84
  -5  -6  -5    3.50    0.85
  -5  -6  -6    4.06    0.95
  -5  -6  -7   10.37    1.18
  -5  -6  -8    3.08    0.94
  -5  -6  -9    0.66    0.84
  -5  -6 -10    1.47    0.87
  -5  -6 -11    1.01    0.65
  -5  -6 -12    1.97    0.92
  -5  -6 -13    1.99    1.00
  -5  -6 -14    4.00    1.32
  -5  -6 -15    3.93    1.28
  -5  -6 -16    2.11    1.02
  -5  -7  -2   72.46    2.51
  -5  -7  -3   36.69    1.84
  -5  -7  -4   45.87    1.91
  -5  -7  -5   49.32    2.30
  -5  -7  -6   38.06    2.10
  -5  -7  -7   32.94    2.06
  -5  -7  -8   17.18    1.55
  -5  -7  -9   14.31    1.57
  -5  -7 -10    7.49    1.16
  -5  -7 -11    7.14    1.39
  -5  -7 -12    1.49    0.99
  -5  -7 -13    0.27    0.97
  -5  -7 -14   -1.08    0.99
  -5  -7 -15    0.42    1.20
  -5  -7 -16   -0.05    0.89
  -5  -8  -1   78.35    2.68
  -5  -8  -2   66.64    2.59
  -5  -8  -3   78.36    2.73
  -5  -8  -4   62.86    2.39
  -5  -8  -5   41.17    2.14
  -5  -8  -6   73.98    3.10
  -5  -8  -7   79.24    3.40
  -5  -8  -8   51.12    2.64
  -5  -8  -9   42.68    2.59
  -5  -8 -10   37.33    2.47
  -5  -8 -11   22.18    2.03
  -5  -8 -12   13.46    1.71
  -5  -8 -13    8.40    1.58
  -5  -8 -14   11.34    1.79
  -5  -9   0   22.20    1.55
  -5  -9  -1   29.83    1.74
  -5  -9  -2   39.34    2.10
  -5  -9  -3   11.14    1.07
  -5  -9  -4   23.99    1.67
  -5  -9  -5   45.30    2.41
  -5  -9  -6   32.00    2.22
  -5  -9  -7   30.69    2.25
  -5  -9  -8   16.84    1.77
  -5  -9  -9   15.21    1.81
  -5  -9 -10   21.89    2.10
  -5  -9 -11   28.80    2.50
  -5  -9 -12   19.18    2.07
  -5  -9 -13    9.60    1.58
  -5 -10   1    1.44    0.72
  -5 -10   0    1.67    0.76
  -5 -10  -1    0.46    0.74
  -5 -10  -2    0.00    0.62
  -5 -10  -3    0.62    0.58
  -5 -10  -4    2.55    0.81
  -5 -10  -5    6.41    1.25
  -5 -10  -6    4.81    1.30
  -5 -10  -7    4.76    1.22
  -5 -10  -8   11.27    1.68
  -5 -10  -9    9.51    1.63
  -5 -10 -10    4.17    1.17
  -5 -10 -11    6.27    1.45
  -5 -10 -12    9.01    1.73
  -5 -11   2   16.94    1.40
  -5 -11   1   22.17    1.62
  -5 -11   0   21.39    1.69
  -5 -11  -1   14.53    1.26
  -5 -11  -2   12.29    1.19
  -5 -11  -3    6.05    1.04
  -5 -11  -4    3.15    1.06
  -5 -11  -5    4.20    1.20
  -5 -11  -6   10.12    1.62
  -5 -11  -7    2.10    0.92
  -5 -11  -8   -0.48    0.99
  -5 -11  -9    0.85    1.25
  -5 -11 -10   -0.24    0.84
  -5 -12   3   26.01    1.86
  -5 -12   2   23.85    1.74
  -5 -12   1   20.75    1.57
  -5 -12   0   34.33    1.96
  -5 -12  -1   42.06    2.11
  -5 -12  -2   58.18    2.71
  -5 -12  -3   37.68    2.26
  -5 -12  -4   39.64    2.55
  -5 -12  -5   29.54    2.35
  -5 -12  -6   19.40    1.94
  -5 -12  -7    8.16    1.43
  -5 -13   5    1.63    0.80
  -5 -13   4    3.19    0.93
  -5 -13   2    5.93    0.99
  -5 -13   1    8.22    1.02
  -5 -13   0   29.21    1.81
  -5 -13  -1   30.95    2.01
  -5 -13  -2   16.27    1.62
  -5 -13  -3   10.41    1.36
  -5 -13  -4   17.72    1.96
  -5 -13  -5   18.61    2.01
  -6  -1  -3   67.54    1.67
  -6  -2  -3   50.34    1.69
  -6  -2  -4   70.64    1.88
  -6  -2  -5   61.35    1.76
  -6  -2  -6  143.03    2.87
  -6  -3  -3   13.25    0.97
  -6  -3  -4   26.97    1.36
  -6  -3  -5   23.86    1.22
  -6  -3  -6   40.09    1.66
  -6  -3  -7   45.37    1.70
  -6  -3  -8   77.27    2.29
  -6  -4  -3    0.10    0.40
  -6  -4  -4    4.99    0.69
  -6  -4  -5   13.51    1.01
  -6  -4  -6    7.46    0.87
  -6  -4  -7    1.88    0.76
  -6  -4  -8    0.21    0.61
  -6  -4  -9    0.34    0.63
  -6  -4 -10   -0.37    0.70
  -6  -4 -11    1.42    0.73
  -6  -5  -3   66.96    2.33
  -6  -5  -4   67.14    2.39
  -6  -5  -5   55.10    2.03
  -6  -5  -6   33.26    1.73
  -6  -5  -7    9.31    1.20
  -6  -5  -8    2.78    0.78
  -6  -5  -9   -0.31    0.63
  -6  -5 -10   -0.30    0.49
  -6  -5 -11   -0.29    0.72
  -6  -5 -12   -0.38    0.70
  -6  -5 -13   -0.03    0.80
  -6  -6  -3  155.51    3.63
  -6  -6  -4  111.19    3.14
  -6  -6  -5   57.79    2.17
  -6  -6  -6   38.79    2.02
  -6  -6  -7   33.24    2.06
  -6  -6  -8   29.59    1.76
  -6  -6  -9   21.33    1.63
  -6  -6 -10    8.66    1.16
  -6  -6 -11    5.19    1.05
  -6  -6 -12    5.20    1.13
  -6  -6 -13   -0.06    0.85
  -6  -6 -14    0.56    0.86
  -6  -6 -15    0.40    1.11
  -6  -7  -2   80.00    2.68
  -6  -7  -3  104.25    3.21
  -6  -7  -4   45.83    2.00
  -6  -7  -5   50.57    2.21
  -6  -7  -6   53.57    2.42
  -6  -7  -7   58.26    2.74
  -6  -7  -8   52.80    2.59
  -6  -7  -9   25.89    1.92
  -6  -7 -10   27.19    1.99
  -6  -7 -11   27.14    2.16
  -6  -7 -12   25.61    2.16
  -6  -7 -13   13.89    1.71
  -6  -7 -14    8.63    1.53
  -6  -7 -15    4.34    1.48
  -6  -8  -1    0.97    0.59
  -6  -8  -2    3.15    0.74
  -6  -8  -3   15.01    1.31
  -6  -8  -4   12.03    1.11
  -6  -8  -5   18.97    1.52
  -6  -8  -6   40.82    2.27
  -6  -8  -7   32.34    2.28
  -6  -8  -8   16.63    1.71
  -6  -8  -9   26.00    2.06
  -6  -8 -10   10.12    1.44
  -6  -8 -11   20.34    2.01
  -6  -8 -12   19.84    2.15
  -6  -8 -13    9.19    1.55
  -6  -8 -14   11.47    1.73
  -6  -9  -1    6.59    1.06
  -6  -9  -2   11.63    1.25
  -6  -9  -3    9.72    1.23
  -6  -9  -4   10.27    1.12
  -6  -9  -5    6.23    1.27
  -6  -9  -6   -0.50    0.60
  -6  -9  -7    2.98    1.19
  -6  -9  -8    2.86    0.87
  -6  -9  -9    3.47    1.04
  -6  -9 -10    0.26    0.81
  -6  -9 -11    0.01    0.85
  -6  -9 -12    0.00    0.88
  -6  -9 -13    1.39    0.99
  -6 -10   0   38.73    2.05
  -6 -10  -1   43.94    2.26
  -6 -10  -2   34.50    1.94
  -6 -10  -3   28.68    1.71
  -6 -10  -4   29.99    2.00
  -6 -10  -5   18.25    1.73
  -6 -10  -6    8.68    1.44
  -6 -10  -7    6.97    1.25
  -6 -10  -8    7.40    1.26
  -6 -10  -9    3.99    1.32
  -6 -10 -10    0.75    1.24
  -6 -10 -11   -0.19    1.18
  -6 -11   1   18.33    1.52
  -6 -11   0   35.61    2.09
  -6 -11  -1   56.20    2.63
  -6 -11  -2   45.27    2.15
  -6 -11  -3   48.42    2.35
  -6 -11  -4   29.07    2.01
  -6 -11  -5   26.25    2.09
  -6 -11  -6   34.04    2.54
  -6 -11  -7   35.89    2.61
  -6 -11  -8   11.38    1.58
  -6 -11  -9   19.24    2.17
  -6 -12   3    1.47    0.65
  -6 -12   2    8.23    1.12
  -6 -12   1   15.69    1.52
  -6 -12   0   28.07    2.01
  -6 -12  -1   19.88    1.50
  -6 -12  -2   23.82    1.70
  -6 -12  -3   18.23    1.62
  -6 -12  -4   15.18    1.63
  -6 -12  -5   13.05    1.60
  -6 -12  -6   24.29    2.34
  -6 -12  -7    8.58    1.33
  -6 -13   5    2.89    0.82
  -6 -13   4    2.14    0.92
  -6 -13   3    1.72    0.90
  -6 -13   2    0.43    0.62
  -6 -13   1    1.37    0.65
  -6 -13   0   -0.06    0.45
  -6 -13  -1    0.09    0.63
  -6 -13  -2   -0.30    0.73
  -6 -13  -3    0.78    0.70
  -6 -13  -4    1.37    0.81
  -7  -3  -3   14.16    1.05
  -7  -3  -4    9.67    0.95
  -7  -3  -5    9.37    0.83
  -7  -4  -3   46.40    1.80
  -7  -4  -4  154.94    3.56
  -7  -4  -5   68.36    2.08
  -7  -4  -6   83.81    2.60
  -7  -4  -7   88.76    2.91
  -7  -5  -3  100.68    2.88
  -7  -5  -4   54.41    2.20
  -7  -5  -5   35.63    1.69
  -7  -5  -6   22.93    1.55
  -7  -5  -7   33.69    1.93
  -7  -5  -8   44.31    2.13
  -7  -5  -9   18.56    1.42
  -7  -5 -10   40.20    2.17
  -7  -6  -3    7.25    0.93
  -7  -6  -4   26.93    1.61
  -7  -6  -5   22.82    1.38
  -7  -6  -6   22.08    1.53
  -7  -6  -7   23.46    1.77
  -7  -6  -8   15.26    1.39
  -7  -6  -9   28.00    1.96
  -7  -6 -10   35.63    2.22
  -7  -6 -11   27.02    2.05
  -7  -6 -12    8.56    1.22
  -7  -7  -2   -0.83    0.64
  -7  -7  -3    0.34    0.52
  -7  -7  -4    3.78    0.86
  -7  -7  -5    1.39    0.67
  -7  -7  -6    0.42    0.59
  -7  -7  -7    8.42    1.30
  -7  -7  -8   27.55    2.13
  -7  -7  -9   15.38    1.62
  -7  -7 -10    6.46    1.16
  -7  -7 -11   10.08    1.53
  -7  -7 -12    2.49    1.01
  -7  -7 -13    9.17    1.48
  -7  -7 -14    7.83    1.47
  -7  -8  -2    5.28    0.90
  -7  -8  -3   18.13    1.52
  -7  -8  -4   21.07    1.47
  -7  -8  -5   11.21    1.19
  -7  -8  -6    5.01    0.96
  -7  -8  -7    2.55    1.04
  -7  -8  -8    0.74    1.04
  -7  -8  -9    0.56    0.72
  -7  -8 -10   -1.82    0.82
  -7  -8 -11   -1.02    0.96
  -7  -8 -12   -0.80    0.74
  -7  -8 -13   -0.03    0.76
  -7  -8 -14    0.42    0.78
  -7  -9  -1   55.44    2.44
  -7  -9  -2   59.15    2.55
  -7  -9  -3   69.57    2.87
  -7  -9  -4   32.50    1.82
  -7  -9  -5   31.89    2.04
  -7  -9  -6   15.07    1.52
  -7  -9  -7   17.18    1.83
  -7  -9  -8   10.78    1.39
  -7  -9  -9    4.54    1.11
  -7  -9 -10    4.21    1.10
  -7  -9 -11    7.56    1.55
  -7  -9 -12    2.22    1.33
  -7 -10   0   17.44    1.45
  -7 -10  -1   28.99    1.85
  -7 -10  -2   28.95    1.93
  -7 -10  -3   25.75    1.70
  -7 -10  -4   32.39    1.89
  -7 -10  -5   45.37    2.55
  -7 -10  -6   26.57    2.10
  -7 -10  -7   21.56    2.09
  -7 -10  -8   24.38    2.25
  -7 -10  -9   18.96    2.00
  -7 -10 -10   12.74    1.83
  -7 -10 -11   17.67    2.15
  -7 -11   1    1.15    0.62
  -7 -11   0    3.80    1.04
  -7 -11  -1    6.81    1.14
  -7 -11  -2    9.66    1.16
  -7 -11  -3   15.60    1.43
  -7 -11  -4   11.83    1.41
  -7 -11  -5    9.92    1.45
  -7 -11  -6    9.96    1.41
  -7 -11  -7   21.98    2.16
  -7 -11  -8   18.56    1.85
  -7 -11  -9   16.22    2.01
  -7 -12   2    3.33    0.87
  -7 -12   1    2.34    0.79
  -7 -12   0    2.79    0.85
  -7 -12  -1    2.58    0.93
  -7 -12  -2    0.05    0.46
  -7 -12  -3   -0.11    0.69
  -7 -12  -4   -0.22    0.66
  -7 -12  -5    0.37    0.94
  -7 -12  -6    0.95    0.88
  -7 -13   3   18.55    1.80
  -7 -13   2   14.07    1.56
  -7 -13   1   15.03    1.58
  -7 -13   0   10.43    1.26
  -7 -13  -1    6.73    1.01
  -7 -13  -2    4.16    0.91
  -8  -4  -3   90.29    2.63
  -8  -4  -4   92.01    2.85
  -8  -5  -3    6.10    0.85
  -8  -5  -4   15.54    1.37
  -8  -5  -5   19.27    1.33
  -8  -5  -6   20.25    1.49
  -8  -6  -3    2.49    0.81
  -8  -6  -4    6.11    0.90
  -8  -6  -5    3.27    0.63
  -8  -6  -6    0.73    0.67
  -8  -6  -7   -0.46    0.73
  -8  -6  -8    1.72    0.74
  -8  -6  -9   12.41    1.40
  -8  -7  -2   33.65    1.79
  -8  -7  -3   35.95    1.90
  -8  -7  -4   26.28    1.78
  -8  -7  -5   24.77    1.60
  -8  -7  -6   17.36    1.49
  -8  -7  -7   14.28    1.46
  -8  -7  -8    7.78    1.40
  -8  -7  -9    0.00    0.61
  -8  -7 -10   -0.30    0.57
  -8  -7 -11   -0.58    0.90
  -8  -8  -2   61.44    2.60
  -8  -8  -3   45.16    2.29
  -8  -8  -4   46.61    2.21
  -8  -8  -5   61.38    2.51
  -8  -8  -6   68.03    2.96
  -8  -8  -7   40.92    2.50
  -8  -8  -8   25.77    2.13
  -8  -8  -9   40.87    2.51
  -8  -8 -10   11.04    1.48
  -8  -8 -11   19.93    2.04
  -8  -8 -12    6.30    1.50
  -8  -8 -13   -0.71    0.70
  -8  -9  -1    5.55    1.09
  -8  -9  -2    9.83    1.18
  -8  -9  -3   18.80    1.60
  -8  -9  -4   30.30    1.94
  -8  -9  -5   31.62    1.93
  -8  -9  -6   48.40    2.62
  -8  -9  -7   29.90    2.17
  -8  -9  -8   49.42    3.05
  -8  -9  -9   29.41    2.28
  -8  -9 -10   12.80    1.64
  -8  -9 -11    4.32    1.18
  -8  -9 -12    2.90    1.13
  -8 -10   0   -0.60    0.46
  -8 -10  -1    0.53    0.75
  -8 -10  -2   -0.51    0.73
  -8 -10  -3    0.23    0.73
  -8 -10  -4    1.18    0.70
  -8 -10  -5    2.93    0.83
  -8 -10  -6    6.06    1.12
  -8 -10  -7   10.59    1.50
  -8 -10  -8    9.44    1.49
  -8 -10  -9    4.77    1.16
  -8 -10 -10    4.65    1.22
  -8 -11   1   12.10    1.36
  -8 -11   0   13.08    1.42
  -8 -11  -1    7.87    1.24
  -8 -11  -2    4.45    1.11
  -8 -11  -3    1.13    0.62
  -8 -11  -4    0.67    0.61
  -8 -11  -5    1.60    0.97
  -8 -11  -6    0.35    0.97
  -8 -11  -7    0.86    1.12
  -8 -11  -8    0.24    1.05
  -8 -12   2   35.96    2.47
  -8 -12   1   27.15    2.16
  -8 -12   0   21.86    1.91
  -8 -12  -1   18.68    1.68
  -8 -12  -2   24.69    1.89
  -8 -12  -3   15.78    1.51
  -8 -12  -4   10.86    1.47
  -8 -12  -5    6.46    1.16
  -9  -5  -3    7.16    0.99
  -9  -6  -3   22.27    1.60
  -9  -6  -4   17.40    1.51
  -9  -6  -5   12.16    1.19
  -9  -7  -2   23.25    1.57
  -9  -7  -3   32.24    1.86
  -9  -7  -4   30.66    1.83
  -9  -7  -5   14.80    1.24
  -9  -7  -6   31.83    1.97
  -9  -7  -7   33.00    2.13
  -9  -7  -8   34.10    2.36
  -9  -8  -2   12.12    1.30
  -9  -8  -3   23.55    1.77
  -9  -8  -4   19.97    1.68
  -9  -8  -5   16.28    1.33
  -9  -8  -6   29.44    1.97
  -9  -8  -7   38.34    2.37
  -9  -8  -8   32.10    2.42
  -9  -8  -9   10.03    1.33
  -9  -8 -10   16.28    1.84
  -9  -9  -1    0.91    0.60
  -9  -9  -2   -0.58    0.73
  -9  -9  -3    0.31    0.78
  -9  -9  -4    0.85    0.58
  -9  -9  -5    2.27    0.82
  -9  -9  -6   -0.20    0.81
  -9  -9  -7   -0.52    0.62
  -9  -9  -8   -0.70    1.02
  -9  -9  -9    2.94    0.92
  -9  -9 -10    3.75    1.10
  -9  -9 -11    6.42    1.47
  -9 -10  -1   18.66    1.63
  -9 -10  -2   10.82    1.33
  -9 -10  -3    6.92    1.04
  -9 -10  -4    9.24    1.21
  -9 -10  -5    5.51    1.01
  -9 -10  -6    3.18    0.90
  -9 -10  -7    0.88    0.77
  -9 -10  -8   -0.12    0.83
  -9 -10  -9   -0.27    0.66
  -9 -11   0   36.73    2.38
  -9 -11  -1   22.33    1.85
  -9 -11  -2   31.03    2.29
  -9 -11  -3   17.33    1.54
  -9 -11  -4   18.14    1.56
  -9 -11  -5   21.39    1.86
  -9 -11  -6   18.33    1.86
  -9 -12   0   15.92    1.76
  -9 -12  -1   10.62    1.43
  -9 -12  -2    7.50    1.14
 -10  -7  -2    1.40    0.76
 -10  -7  -3    0.60    0.74
 -10  -7  -4   10.16    1.27
 -10  -8  -2    5.31    1.04
 -10  -8  -3   -0.32    0.54
 -10  -8  -4    0.76    0.73
 -10  -8  -5    0.42    0.48
 -10  -8  -6    1.24    0.66
 -10  -9  -1   38.46    2.34
 -10  -9  -2   27.85    2.02
 -10  -9  -3   33.09    2.23
 -10  -9  -4   29.89    2.01
 -10  -9  -5    7.46    1.05
 -10  -9  -6    8.70    1.32
 -10  -9  -7    4.53    1.18
 -10  -9  -8    5.47    1.40
 -10 -10  -1   24.92    1.94
 -10 -10  -2   32.72    2.21
 -10 -10  -3   34.96    2.33
 -10 -10  -4   23.77    1.80
 -10 -10  -5   21.97    1.78
 -10 -10  -6   25.09    2.05
 -10 -10  -7   20.61    1.99
 -10 -11   0    8.22    1.30
 -10 -11  -1   13.11    1.62
 -10 -11  -2    6.67    1.18
 -10 -11  -3   13.49    1.56
 -10 -11  -4   18.57    1.66
 -11  -8  -2   37.92    2.29
 -11  -8  -3   38.09    2.29
 -11  -9  -1   26.83    2.03
 -11  -9  -2   13.95    1.45
 -11  -9  -3    7.56    1.18
 -11  -9  -4   14.91    1.51
 -11  -9  -5   19.01    1.58
 -11 -10   0    2.08    0.81
 -11 -10  -1    1.73    0.95
 -11 -10  -2    0.78    0.70
 -11 -10  -3    2.89    0.86
 -11 -10  -4    9.15    1.25
   0   0   0    0.00    0.00
;
_shelx_hkl_checksum              53128
loop_
_space_group_symop_operation_xyz
'x, y, z'
'-x, -y, -z'
loop_
_atom_site_label
_atom_site_type_symbol
_atom_site_fract_x
_atom_site_fract_y
_atom_site_fract_z
_atom_site_U_iso_or_equiv
_atom_site_adp_type
_atom_site_occupancy
_atom_site_site_symmetry_order
_atom_site_calc_flag
_atom_site_refinement_flags_posn
_atom_site_refinement_flags_adp
Tb1 Tb 0.34761(6) 0.39760(5) 0.01434(4) 0.0277(3) Uani 1 1 d . .
O1 O 0.3270(12) 0.5585(10) 0.1419(8) 0.041(2) Uani 1 1 d . .
O2 O 0.5288(12) 0.6380(11) 0.1421(7) 0.040(2) Uani 1 1 d . .
O3 O 0.2034(12) 0.9142(11) 0.1922(8) 0.044(3) Uani 1 1 d . .
O4 O -0.1661(11) 1.3804(10) 0.0532(9) 0.043(2) Uani 1 1 d . .
O5 O -0.3911(10) 1.3519(10) 0.0414(8) 0.037(2) Uani 1 1 d . .
O6 O -0.3625(12) 0.8432(10) 0.0234(8) 0.045(3) Uani 1 1 d . .
O7 O -0.1687(11) 0.6708(9) 0.0949(8) 0.039(2) Uani 1 1 d . .
O8 O 0.1016(11) 0.4330(10) 0.0999(7) 0.038(2) Uani 1 1 d . .
H8A H 0.0676 0.5183 0.1140 0.046 Uiso 1 1 d R U
H8B H 0.0349 0.4251 0.0643 0.046 Uiso 1 1 d R U
O9 O 0.4087(12) 0.2581(11) 0.1591(8) 0.047(3) Uani 1 1 d . .
O10 O 0.829(3) 0.325(3) 0.329(2) 0.154(7) Uani 1 1 d D U
N1 N 0.5148(17) 0.0746(16) 0.2665(11) 0.053(4) Uani 1 1 d . .
N2 N 0.969(3) 0.445(3) 0.343(2) 0.135(7) Uani 1 1 d D U
C1 C 0.4053(16) 0.6267(13) 0.1762(8) 0.033(3) Uani 1 1 d D .
C2 C 0.3435(16) 0.6975(14) 0.2717(8) 0.033(3) Uani 1 1 d D .
C3 C 0.384(2) 0.6210(19) 0.3600(13) 0.054(4) Uani 1 1 d . .
H3 H 0.4569 0.5318 0.3591 0.065 Uiso 1 1 calc R U
C4 C 0.316(2) 0.680(2) 0.4470(13) 0.065(5) Uani 1 1 d . .
H4 H 0.3434 0.6301 0.5018 0.078 Uiso 1 1 calc R U
C5 C 0.202(2) 0.819(3) 0.4485(13) 0.080(7) Uani 1 1 d . .
H5 H 0.1550 0.8568 0.5045 0.096 Uiso 1 1 calc R U
C6 C 0.1627(19) 0.899(2) 0.3661(14) 0.059(5) Uani 1 1 d . .
H6 H 0.0944 0.9898 0.3687 0.070 Uiso 1 1 calc R U
C7 C 0.2315(17) 0.8354(15) 0.2748(11) 0.037(3) Uani 1 1 d . .
C8 C 0.0508(13) 0.9606(12) 0.1555(9) 0.026(3) Uani 1 1 d . .
C9 C -0.0195(15) 1.1043(14) 0.1276(10) 0.033(3) Uani 1 1 d . .
H9 H 0.0297 1.1656 0.1357 0.040 Uiso 1 1 calc R U
C10 C -0.1665(14) 1.1487(13) 0.0872(10) 0.030(3) Uani 1 1 d . .
C11 C -0.2450(15) 1.3030(12) 0.0615(9) 0.028(3) Uani 1 1 d . .
C12 C -0.2370(16) 1.0496(15) 0.0685(11) 0.038(3) Uani 1 1 d . .
H12 H -0.3293 1.0786 0.0384 0.046 Uiso 1 1 calc R U
C13 C -0.1683(16) 0.9107(13) 0.0951(10) 0.033(3) Uani 1 1 d D .
C14 C -0.2383(14) 0.8024(12) 0.0694(10) 0.030(3) Uani 1 1 d D .
C15 C -0.0206(14) 0.8619(15) 0.1432(11) 0.035(3) Uani 1 1 d . .
H15 H 0.0237 0.7717 0.1644 0.042 Uiso 1 1 calc R U
C16 C 0.4430(17) 0.1325(17) 0.1860(11) 0.040(3) Uani 1 1 d . .
H16 H 0.4163 0.0748 0.1469 0.048 Uiso 1 1 calc R U
C17 C 0.558(3) -0.075(2) 0.2859(15) 0.069(5) Uani 1 1 d . .
H17A H 0.4827 -0.1058 0.2622 0.103 Uiso 1 1 calc R U
H17B H 0.5660 -0.0896 0.3518 0.103 Uiso 1 1 calc R U
H17C H 0.6542 -0.1250 0.2563 0.103 Uiso 1 1 calc R U
C18 C 0.575(4) 0.160(3) 0.325(2) 0.106(10) Uani 1 1 d . .
H18A H 0.5585 0.2467 0.2949 0.160 Uiso 1 1 calc R U
H18B H 0.6820 0.1118 0.3335 0.160 Uiso 1 1 calc R U
H18C H 0.5243 0.1767 0.3847 0.160 Uiso 1 1 calc R U
C19 C 0.838(3) 0.440(3) 0.314(3) 0.143(7) Uani 1 1 d D U
H19 H 0.7622 0.5140 0.2870 0.171 Uiso 1 1 calc R U
C20 C 1.009(4) 0.567(3) 0.329(3) 0.147(8) Uani 1 1 d D U
H20A H 1.0696 0.5557 0.2736 0.221 Uiso 1 1 calc R U
H20B H 1.0653 0.5772 0.3816 0.221 Uiso 1 1 calc R U
H20C H 0.9182 0.6473 0.3240 0.221 Uiso 1 1 calc R U
C21 C 1.092(3) 0.317(3) 0.372(3) 0.159(8) Uani 1 1 d D U
H21A H 1.0785 0.2389 0.3446 0.239 Uiso 1 1 calc R U
H21B H 1.0909 0.3100 0.4382 0.239 Uiso 1 1 calc R U
H21C H 1.1878 0.3200 0.3510 0.239 Uiso 1 1 calc R U
loop_
_atom_site_aniso_label
_atom_site_aniso_U_11
_atom_site_aniso_U_22
_atom_site_aniso_U_33
_atom_site_aniso_U_23
_atom_site_aniso_U_13
_atom_site_aniso_U_12
Tb1 0.0183(4) 0.0140(4) 0.0526(5) -0.0033(3) -0.0032(3) -0.0078(3)
O1 0.041(6) 0.034(5) 0.060(6) -0.007(5) -0.001(5) -0.027(5)
O2 0.034(6) 0.045(6) 0.045(5) -0.003(5) 0.002(4) -0.020(5)
O3 0.032(6) 0.030(5) 0.072(7) 0.012(5) -0.014(5) -0.015(4)
O4 0.028(5) 0.024(5) 0.078(7) 0.000(5) -0.010(5) -0.009(4)
O5 0.014(4) 0.033(5) 0.066(6) -0.003(4) -0.005(4) -0.011(4)
O6 0.046(6) 0.018(5) 0.074(7) 0.003(5) -0.019(5) -0.014(4)
O7 0.030(5) 0.016(4) 0.071(7) 0.002(4) -0.008(4) -0.008(4)
O8 0.029(5) 0.025(5) 0.061(6) 0.000(4) -0.004(4) -0.011(4)
O9 0.042(6) 0.031(6) 0.062(7) 0.008(5) 0.000(5) -0.006(5)
O10 0.167(10) 0.157(11) 0.153(10) 0.000(9) -0.002(9) -0.075(9)
N1 0.049(9) 0.045(9) 0.061(9) 0.012(7) -0.014(7) -0.012(7)
N2 0.138(9) 0.141(9) 0.136(9) 0.000(7) -0.004(7) -0.065(7)
C1 0.039(8) 0.017(6) 0.042(7) 0.002(5) -0.006(6) -0.009(6)
C2 0.033(7) 0.027(7) 0.043(7) -0.011(6) -0.001(6) -0.014(6)
C3 0.046(10) 0.044(10) 0.062(10) 0.018(8) -0.016(8) -0.006(8)
C4 0.066(12) 0.076(14) 0.050(10) -0.004(9) -0.006(8) -0.023(11)
C5 0.055(12) 0.12(2) 0.045(10) -0.024(11) 0.006(8) -0.005(12)
C6 0.031(9) 0.056(11) 0.082(13) -0.022(10) 0.005(8) -0.008(8)
C7 0.030(7) 0.028(7) 0.051(8) -0.011(6) -0.012(6) -0.010(6)
C8 0.019(6) 0.011(5) 0.047(7) 0.003(5) 0.003(5) -0.003(5)
C9 0.021(6) 0.031(7) 0.052(8) -0.007(6) -0.003(5) -0.014(5)
C10 0.016(6) 0.014(6) 0.057(8) -0.014(5) 0.003(5) -0.002(5)
C11 0.031(7) 0.014(6) 0.042(7) -0.002(5) -0.003(5) -0.011(5)
C12 0.030(7) 0.028(7) 0.063(9) -0.009(6) 0.004(6) -0.016(6)
C13 0.035(7) 0.027(7) 0.039(7) -0.010(5) 0.001(5) -0.013(6)
C14 0.024(6) 0.018(6) 0.051(8) -0.009(5) -0.004(5) -0.013(5)
C15 0.011(6) 0.033(7) 0.063(9) 0.000(6) -0.010(5) -0.010(5)
C16 0.030(8) 0.042(9) 0.053(9) -0.001(7) 0.010(6) -0.018(7)
C17 0.086(15) 0.061(13) 0.065(12) 0.015(9) -0.020(10) -0.033(11)
C18 0.14(3) 0.088(19) 0.11(2) 0.016(16) -0.063(19) -0.063(18)
C19 0.147(9) 0.147(9) 0.144(9) 0.001(7) -0.001(7) -0.066(7)
C20 0.154(11) 0.153(11) 0.146(11) 0.000(10) -0.001(9) -0.069(9)
C21 0.162(11) 0.160(12) 0.153(11) 0.004(10) -0.001(10) -0.057(10)
loop_
_atom_type_symbol
_atom_type_description
_atom_type_scat_dispersion_real
_atom_type_scat_dispersion_imag
_atom_type_scat_source
C C 0.0033 0.0016 'International Tables Vol C Tables 4.2.6.8 and 6.1.1.4'
H H 0.0000 0.0000 'International Tables Vol C Tables 4.2.6.8 and 6.1.1.4'
N N 0.0061 0.0033 'International Tables Vol C Tables 4.2.6.8 and 6.1.1.4'
O O 0.0106 0.0060 'International Tables Vol C Tables 4.2.6.8 and 6.1.1.4'
Tb Tb -0.1723 4.1537 'International Tables Vol C Tables 4.2.6.8 and 6.1.1.4'
loop_
_geom_angle_atom_site_label_1
_geom_angle_atom_site_label_2
_geom_angle_atom_site_label_3
_geom_angle
_geom_angle_site_symmetry_1
_geom_angle_site_symmetry_3
O5 Tb1 O1 79.3(3) 1_645 .
O5 Tb1 O2 74.6(4) 1_645 2_665
O1 Tb1 O2 133.7(3) . 2_665
O5 Tb1 O9 74.4(4) 1_645 .
O1 Tb1 O9 73.3(4) . .
O2 Tb1 O9 132.1(3) 2_665 .
O5 Tb1 O4 124.2(3) 1_645 2_575
O1 Tb1 O4 79.2(4) . 2_575
O2 Tb1 O4 84.7(4) 2_665 2_575
O9 Tb1 O4 143.1(4) . 2_575
O5 Tb1 O6 99.8(3) 1_645 2_565
O1 Tb1 O6 143.8(4) . 2_565
O2 Tb1 O6 78.8(4) 2_665 2_565
O9 Tb1 O6 71.7(4) . 2_565
O4 Tb1 O6 126.5(3) 2_575 2_565
O5 Tb1 O8 141.4(4) 1_645 .
O1 Tb1 O8 73.3(3) . .
O2 Tb1 O8 143.7(3) 2_665 .
O9 Tb1 O8 72.2(3) . .
O4 Tb1 O8 76.7(4) 2_575 .
O6 Tb1 O8 87.5(3) 2_565 .
O5 Tb1 O7 142.0(3) 1_645 2_565
O1 Tb1 O7 138.7(3) . 2_565
O2 Tb1 O7 74.2(3) 2_665 2_565
O9 Tb1 O7 112.9(4) . 2_565
O4 Tb1 O7 73.5(3) 2_575 2_565
O6 Tb1 O7 53.0(3) 2_565 2_565
O8 Tb1 O7 70.7(3) . 2_565
O5 Tb1 O5 75.2(3) 1_645 2_575
O1 Tb1 O5 65.6(3) . 2_575
O2 Tb1 O5 71.0(3) 2_665 2_575
O9 Tb1 O5 132.3(3) . 2_575
O4 Tb1 O5 49.0(3) 2_575 2_575
O6 Tb1 O5 149.7(4) 2_565 2_575
O8 Tb1 O5 115.4(3) . 2_575
O7 Tb1 O5 113.8(3) 2_565 2_575
O5 Tb1 C14 123.5(3) 1_645 2_565
O1 Tb1 C14 147.8(4) . 2_565
O2 Tb1 C14 77.7(4) 2_665 2_565
O9 Tb1 C14 90.3(4) . 2_565
O4 Tb1 C14 100.7(3) 2_575 2_565
O6 Tb1 C14 26.1(3) 2_565 2_565
O8 Tb1 C14 75.4(4) . 2_565
O7 Tb1 C14 27.2(3) 2_565 2_565
O5 Tb1 C14 137.3(3) 2_575 2_565
C1 O1 Tb1 138.5(8) . .
C1 O2 Tb1 134.2(8) . 2_665
C7 O3 C8 117.6(11) . .
C11 O4 Tb1 104.2(8) . 2_575
C11 O5 Tb1 169.0(9) . 1_465
C11 O5 Tb1 86.1(7) . 2_575
Tb1 O5 Tb1 104.8(3) 1_465 2_575
C14 O6 Tb1 94.6(7) . 2_565
C14 O7 Tb1 89.1(7) . 2_565
C16 O9 Tb1 139.9(11) . .
C16 N1 C17 121.5(16) . .
C16 N1 C18 117.6(17) . .
C17 N1 C18 119.9(17) . .
C19 N2 C20 122.2(14) . .
C19 N2 C21 120.3(14) . .
C20 N2 C21 116.4(14) . .
O1 C1 O2 128.2(11) . .
O1 C1 C2 114.2(12) . .
O2 C1 C2 117.6(12) . .
C7 C2 C3 118.1(12) . .
C7 C2 C1 120.1(12) . .
C3 C2 C1 121.5(12) . .
C4 C3 C2 122.0(15) . .
C3 C4 C5 119.1(18) . .
C6 C5 C4 121.3(16) . .
C5 C6 C7 119.5(16) . .
O3 C7 C2 118.2(13) . .
O3 C7 C6 121.2(14) . .
C2 C7 C6 120.1(15) . .
C15 C8 C9 122.6(12) . .
C15 C8 O3 119.2(10) . .
C9 C8 O3 118.0(11) . .
C10 C9 C8 118.2(12) . .
C9 C10 C12 120.3(12) . .
C9 C10 C11 118.4(11) . .
C12 C10 C11 121.3(12) . .
O4 C11 O5 120.5(11) . .
O4 C11 C10 120.0(11) . .
O5 C11 C10 119.4(11) . .
C13 C12 C10 121.2(13) . .
C12 C13 C15 120.3(11) . .
C12 C13 C14 121.3(12) . .
C15 C13 C14 118.3(12) . .
O6 C14 O7 122.0(10) . .
O6 C14 C13 118.4(11) . .
O7 C14 C13 119.6(11) . .
O6 C14 Tb1 59.3(6) . 2_565
O7 C14 Tb1 63.7(6) . 2_565
C13 C14 Tb1 169.1(9) . 2_565
C8 C15 C13 117.1(12) . .
O9 C16 N1 126.9(16) . .
O10 C19 N2 112.0(16) . .
loop_
_geom_bond_atom_site_label_1
_geom_bond_atom_site_label_2
_geom_bond_distance
_geom_bond_site_symmetry_2
Tb1 O5 2.389(9) 1_645
Tb1 O1 2.447(10) .
Tb1 O2 2.483(10) 2_665
Tb1 O9 2.486(11) .
Tb1 O4 2.522(10) 2_575
Tb1 O6 2.523(10) 2_565
Tb1 O8 2.524(10) .
Tb1 O7 2.622(10) 2_565
Tb1 O5 2.898(10) 2_575
Tb1 C14 2.925(11) 2_565
O1 C1 1.308(17) .
O2 C1 1.309(17) .
O2 Tb1 2.483(10) 2_665
O3 C7 1.41(2) .
O3 C8 1.457(16) .
O4 C11 1.293(17) .
O4 Tb1 2.522(10) 2_575
O5 C11 1.327(16) .
O5 Tb1 2.389(9) 1_465
O5 Tb1 2.898(10) 2_575
O6 C14 1.292(16) .
O6 Tb1 2.523(10) 2_565
O7 C14 1.337(16) .
O7 Tb1 2.622(10) 2_565
O9 C16 1.286(19) .
O10 C19 1.246(10) .
N1 C16 1.37(2) .
N1 C17 1.48(3) .
N1 C18 1.50(3) .
N2 C19 1.337(9) .
N2 C20 1.469(9) .
N2 C21 1.471(10) .
C1 C2 1.560(9) .
C2 C7 1.44(2) .
C2 C3 1.48(2) .
C3 C4 1.43(3) .
C4 C5 1.45(3) .
C5 C6 1.42(3) .
C6 C7 1.50(2) .
C8 C15 1.440(18) .
C8 C9 1.454(18) .
C9 C10 1.433(18) .
C10 C12 1.453(19) .
C10 C11 1.548(17) .
C12 C13 1.40(2) .
C13 C15 1.488(18) .
C13 C14 1.557(9) .
C14 Tb1 2.925(11) 2_565
loop_
_geom_torsion_atom_site_label_1
_geom_torsion_atom_site_label_2
_geom_torsion_atom_site_label_3
_geom_torsion_atom_site_label_4
_geom_torsion
_geom_torsion_site_symmetry_1
_geom_torsion_site_symmetry_4
Tb1 O1 C1 O2 7(2) . .
Tb1 O1 C1 C2 -170.3(9) . .
Tb1 O2 C1 O1 19(2) 2_665 .
Tb1 O2 C1 C2 -163.3(9) 2_665 .
O1 C1 C2 C7 -89.1(16) . .
O2 C1 C2 C7 93.2(16) . .
O1 C1 C2 C3 84.0(17) . .
O2 C1 C2 C3 -93.7(17) . .
C7 C2 C3 C4 0(3) . .
C1 C2 C3 C4 -173.0(17) . .
C2 C3 C4 C5 0(3) . .
C3 C4 C5 C6 -2(4) . .
C4 C5 C6 C7 4(3) . .
C8 O3 C7 C2 119.3(14) . .
C8 O3 C7 C6 -68.8(18) . .
C3 C2 C7 O3 173.5(13) . .
C1 C2 C7 O3 -13(2) . .
C3 C2 C7 C6 2(2) . .
C1 C2 C7 C6 174.8(14) . .
C5 C6 C7 O3 -175.4(17) . .
C5 C6 C7 C2 -4(3) . .
C7 O3 C8 C15 -50.8(17) . .
C7 O3 C8 C9 132.9(13) . .
C15 C8 C9 C10 1(2) . .
O3 C8 C9 C10 176.9(12) . .
C8 C9 C10 C12 -5(2) . .
C8 C9 C10 C11 177.2(12) . .
Tb1 O4 C11 O5 -4.1(15) 2_575 .
Tb1 O4 C11 C10 170.9(10) 2_575 .
Tb1 O5 C11 O4 -178(4) 1_465 .
Tb1 O5 C11 O4 3.5(13) 2_575 .
Tb1 O5 C11 C10 7(6) 1_465 .
Tb1 O5 C11 C10 -171.5(11) 2_575 .
C9 C10 C11 O4 18(2) . .
C12 C10 C11 O4 -160.0(14) . .
C9 C10 C11 O5 -166.9(12) . .
C12 C10 C11 O5 15(2) . .
C9 C10 C12 C13 4(2) . .
C11 C10 C12 C13 -177.6(13) . .
C10 C12 C13 C15 0(2) . .
C10 C12 C13 C14 -176.0(13) . .
Tb1 O6 C14 O7 -12.0(15) 2_565 .
Tb1 O6 C14 C13 167.7(10) 2_565 .
Tb1 O7 C14 O6 11.5(14) 2_565 .
Tb1 O7 C14 C13 -168.2(11) 2_565 .
C12 C13 C14 O6 -1(2) . .
C15 C13 C14 O6 -176.5(13) . .
C12 C13 C14 O7 179.2(14) . .
C15 C13 C14 O7 3.2(19) . .
C12 C13 C14 Tb1 75(5) . 2_565
C15 C13 C14 Tb1 -101(5) . 2_565
C9 C8 C15 C13 3(2) . .
O3 C8 C15 C13 -172.8(12) . .
C12 C13 C15 C8 -4(2) . .
C14 C13 C15 C8 172.3(12) . .
Tb1 O9 C16 N1 159.1(12) . .
C17 N1 C16 O9 -175.2(17) . .
C18 N1 C16 O9 -7(3) . .
C20 N2 C19 O10 177(4) . .
C21 N2 C19 O10 10(6) . .
