#------------------------------------------------------------------------------
#$Date: 2019-11-10 00:56:00 +0200 (Sun, 10 Nov 2019) $
#$Revision: 225476 $
#$URL: file:///home/coder/svn-repositories/cod/cif/4/51/53/4515309.cif $
#------------------------------------------------------------------------------
#
# This file is available in the Crystallography Open Database (COD),
# http://www.crystallography.net/
#
# All data on this site have been placed in the public domain by the
# contributors.
#
data_4515309
loop_
_publ_author_name
'Zhang, Jindan'
'Ouyang, Jun'
'Ye, Yingxiang'
'Li, Ziyin'
'Lin, Quanjie'
'Chen, Ting'
'Zhang, Zhangjing'
'Xiang, Shengchang'
_publ_section_title
;
 Mixed-Valence Cobalt(II/III) Metal-Organic Framework for Ammonia Sensing
 with Naked-Eye Color Switching.
;
_journal_issue                   32
_journal_name_full               'ACS applied materials &amp; interfaces'
_journal_page_first              27465
_journal_page_last               27471
_journal_paper_doi               10.1021/acsami.8b07770
_journal_volume                  10
_journal_year                    2018
_chemical_formula_moiety         '0.5(C42 H24 Co2 N26)'
_chemical_formula_sum            'C21 H12 Co N13'
_chemical_formula_weight         505.37
_space_group_crystal_system      hexagonal
_space_group_IT_number           194
_space_group_name_Hall           '-P 6c 2c'
_space_group_name_H-M_alt        'P 63/m m c'
_atom_sites_solution_hydrogens   difmap
_audit_creation_method           SHELXL-2014/7
_cell_angle_alpha                90
_cell_angle_beta                 90
_cell_angle_gamma                120
_cell_formula_units_Z            2
_cell_length_a                   16.3125(4)
_cell_length_b                   16.3125(4)
_cell_length_c                   7.5267(3)
_cell_measurement_reflns_used    2523
_cell_measurement_temperature    150(2)
_cell_measurement_theta_max      72.5090
_cell_measurement_theta_min      5.3740
_cell_volume                     1734.51(9)
_computing_structure_refinement  'SHELXL-2014/7 (Sheldrick, 2014)'
_diffrn_ambient_temperature      150(2)
_diffrn_measured_fraction_theta_full 0.997
_diffrn_measured_fraction_theta_max 0.989
_diffrn_measurement_device_type  'SuperNova, Dual, Cu at zero, Atlas'
_diffrn_radiation_type           CuK\a
_diffrn_radiation_wavelength     1.54184
_diffrn_reflns_av_R_equivalents  0.0685
_diffrn_reflns_av_unetI/netI     0.0278
_diffrn_reflns_Laue_measured_fraction_full 0.997
_diffrn_reflns_Laue_measured_fraction_max 0.989
_diffrn_reflns_limit_h_max       17
_diffrn_reflns_limit_h_min       -19
_diffrn_reflns_limit_k_max       19
_diffrn_reflns_limit_k_min       -19
_diffrn_reflns_limit_l_max       8
_diffrn_reflns_limit_l_min       -9
_diffrn_reflns_number            6345
_diffrn_reflns_point_group_measured_fraction_full 0.997
_diffrn_reflns_point_group_measured_fraction_max 0.989
_diffrn_reflns_theta_full        67.687
_diffrn_reflns_theta_max         73.854
_diffrn_reflns_theta_min         5.424
_exptl_absorpt_coefficient_mu    4.030
_exptl_crystal_density_diffrn    0.968
_exptl_crystal_description       flake
_exptl_crystal_F_000             512
_refine_diff_density_max         0.322
_refine_diff_density_min         -0.651
_refine_diff_density_rms         0.064
_refine_ls_extinction_method     none
_refine_ls_goodness_of_fit_ref   1.026
_refine_ls_hydrogen_treatment    constr
_refine_ls_matrix_type           full
_refine_ls_number_parameters     47
_refine_ls_number_reflns         700
_refine_ls_number_restraints     0
_refine_ls_restrained_S_all      1.026
_refine_ls_R_factor_all          0.0556
_refine_ls_R_factor_gt           0.0522
_refine_ls_shift/su_max          0.000
_refine_ls_shift/su_mean         0.000
_refine_ls_structure_factor_coef Fsqd
_refine_ls_weighting_details
'w=1/[\s^2^(Fo^2^)+(0.1100P)^2^+1.9975P] where P=(Fo^2^+2Fc^2^)/3'
_refine_ls_weighting_scheme      calc
_refine_ls_wR_factor_gt          0.1667
_refine_ls_wR_factor_ref         0.1703
_reflns_Friedel_coverage         0.000
_reflns_number_gt                641
_reflns_number_total             700
_reflns_threshold_expression     'I > 2\s(I)'
_cod_data_source_file            am8b07770_si_002.cif
_cod_data_source_block           FJU-56
_cod_original_cell_volume        1734.51(10)
_cod_database_code               4515309
_shelx_space_group_comment
;
The symmetry employed for this shelxl refinement is uniquely defined
by the following loop, which should always be used as a source of
symmetry information in preference to the above space-group names.
They are only intended as comments.
;
_olex2_refinement_description
;
1. Fixed Uiso
 At 1.2 times of:
  All C(H) groups
2. Others
 Fixed Sof: C4(0.5) H4(0.5) C3(0.5) H3(0.5)
3.a Riding coordinates:
 C4(H4), C3(H3)
;
_shelx_res_file
;
    FJU-56.res created by SHELXL-2014/7

TITL
CELL 1.541874 16.312491 16.312491 7.526723 90 90 120
ZERR 2 0.000372 0.000372 0.00026 0 0 0
LATT 1
SYMM -Y+X,+X,0.5+Z
SYMM -Y,+X-Y,+Z
SYMM -X,-Y,0.5+Z
SYMM +Y-X,-X,+Z
SYMM +Y,-X+Y,0.5+Z
SYMM -Y+X,-Y,-Z
SYMM -X,-X+Y,-Z
SYMM +Y,+X,-Z
SYMM -Y,-X,0.5-Z
SYMM +Y-X,+Y,0.5-Z
SYMM +X,+X-Y,0.5-Z
SFAC C H Co N
DISP C 0.019 0.009 88.275
DISP Co -2.249 3.533 30882.97
DISP H -0 0 0.655
DISP N 0.032 0.018 169.771
UNIT 42 24 2 26

L.S. 20
PLAN  5
MORE -1
BOND $H
ABIN
fmap 2 53
acta
OMIT -1 4 0
REM <olex2.extras>
REM <HklSrc "%.\\FJU-56.hkl">
REM </olex2.extras>

WGHT    0.110000    1.997500
FVAR       6.76445
CO1   3    1.000000    1.000000    0.500000    10.08333    0.01556    0.01556 =
         0.02760    0.00000    0.00000    0.00778
N1    4    0.876749    0.938375    0.663332    10.50000    0.01503    0.02524 =
         0.03465   -0.00048   -0.00095    0.00752
N3    4    0.333333    0.666667    0.750000    10.08333    0.01491    0.01491 =
         0.12040    0.00000    0.00000    0.00746
N2    4    0.788269    0.894135    0.602631    10.50000    0.01809    0.03381 =
         0.03294    0.00043    0.00086    0.00905
C5    1    0.434193    0.717096    0.750000    10.25000    0.01837    0.01947 =
         0.07372    0.00000    0.00000    0.00919
C1    1    0.734693    0.867347    0.750000    10.25000    0.02069    0.02655 =
         0.03461    0.00000    0.00000    0.01035
C2    1    0.631420    0.815710    0.750000    10.25000    0.01944    0.02767 =
         0.03662    0.00000    0.00000    0.00972
C4    1    0.482776    0.690183    0.639342    10.50000    0.01974    0.04607 =
         0.10815   -0.03719   -0.00542    0.00537
AFIX   3
H4    2    0.449016    0.631033    0.577282    10.50000   -1.20000
AFIX   0
C3    1    0.580852    0.740266    0.636373    10.50000    0.02326    0.05611 =
         0.10430   -0.04378   -0.00080    0.01054
AFIX   3
H3    2    0.614592    0.722506    0.554943    10.50000   -1.20000
AFIX   0
HKLF 4

REM
REM R1 =  0.0522 for     641 Fo > 4sig(Fo)  and  0.0556 for all     700 data
REM     47 parameters refined using      0 restraints

END

WGHT      0.0664      1.8835

REM Highest difference peak  0.322,  deepest hole -0.651,  1-sigma level  0.064
Q1    1   0.7076  0.8538  0.2500  10.25000  0.05    0.32
Q2    1   0.7540  0.8770  0.6802  10.50000  0.05    0.19
Q3    1   0.7274  0.7779  0.8278  11.00000  0.05    0.17
Q4    1   0.9232  0.9616  0.6163  10.50000  0.05    0.17
Q5    1   0.8132  1.0015  0.6248  11.00000  0.05    0.17
;
_shelx_res_checksum              1399
_shelx_hkl_file
;
   0   0  -9 341.141 238.483   7
   0   0  -8 58540.8 2220.46   7
   0   0  -7 256.053 457.870   7
   0   0  -6 3657.61 664.838   7
   0   0  -4 12625.0 1920.97   2
   0   0  -3 59.9921 486.627   2
   0   0  -2 999999. 10876.5   2
   0   0  -1-85.8596 197.410   2
   0   0   5-439.210 706.527   1
  -1   1  -9 735.063 276.769   7
  -1   0  -9 636.545 239.280   7
   1   0  -9 644.921 289.988   7
   0   1  -9-85.8278 214.527   7
   1  -1  -9 647.675 270.649   7
   0  -1  -9 538.101 240.535   7
  -1   0  -8 7712.96 824.896   7
   1   0  -8 8319.49 904.621   7
  -1   1  -8 8863.89 908.865   7
   0  -1  -8 7970.71 851.907   7
   0   1  -8 8263.73 885.582   7
   1  -1  -8 8102.57 891.468   7
   1  -1  -7 1429.00 541.638   7
  -1   1  -7 2128.96 606.616   7
   0  -1  -7 1504.97 530.658   7
   1   0  -7 1866.25 574.744   7
   0   1  -7 2004.47 558.075   7
  -1   0  -7 1939.26 574.096   7
  -1   1  -6 25504.0 1564.02   7
  -1   0  -6 23876.9 1521.89   7
   0  -1  -6 22272.5 1469.13   7
   1   0  -6 26521.9 1597.58   7
   0   1  -6 25525.6 1558.69   7
   1  -1  -6 21521.3 1496.82   7
   0  -1  -4 768.533 473.764   2
  -1   0  -4 1022.82 562.552   2
   0   1  -4 1183.06 649.555   2
  -1   1  -4 1647.72 735.823   2
   0  -1  -3 9115.53 1366.25   2
  -1   1  -3 8828.52 1326.89   2
  -1   0  -3 9755.12 1374.13   2
   0   1  -3 7875.36 1356.57   2
   0  -1  -2 45988.5 2312.91   2
  -1   1  -2 41649.6 2243.62   2
  -1   0  -2 39950.8 2185.04   2
   0   1  -1 160397. 3124.58   2
  -1   0  -1 164890. 2847.90   2
  -1   1  -1 168998. 2890.43   2
   0  -1  -1 164959. 3032.44   2
  -1   1   1 159695. 2536.19   1
  -1   0   1 173327. 3036.52   1
  -1   1   2 43621.0 1908.26   1
  -1   0   3 7885.69 1144.09   1
  -1   1   3 8076.44 1109.92   1
  -1   1   4 1307.19 642.562   1
   0   1   4 2103.74 680.846   1
  -1   0   4 1283.06 656.326   1
   1   0   5 1477.71 758.431   1
   1  -1   5 1659.39 668.528   1
   0  -1   5 1324.56 773.075   1
   0   1   5 1834.90 687.432   1
  -1   1   5 2062.49 862.882   1
  -1   0   5 1402.93 856.301   1
   0  -1   6 20909.9 2827.76   1
   1  -2  -9 272.063 221.765   7
   1   1  -9 3.46075 231.158   7
   2  -1  -9-157.773 237.984   7
  -1   2  -9-89.8546 220.836   7
  -2   1  -9 275.267 194.112   7
  -1  -1  -9 1.85715 169.800   7
  -1  -1  -8 3589.77 586.571   7
  -2   1  -8 3145.14 585.457   7
   1   1  -8 3218.98 623.464   7
   2  -1  -8 3953.54 668.698   7
  -1   2  -8 3664.02 629.177   7
   1  -2  -8 4146.71 645.487   7
  -2   1  -7 617.231 411.050   7
   2  -1  -7 837.741 501.037   7
   1   1  -7 467.966 437.482   7
  -1  -1  -7 141.737 394.745   7
  -1   2  -7 583.242 373.671   7
   1  -2  -7 1066.31 469.369   7
  -2   1  -6 44284.7 1997.51   7
   1   1  -6 46160.4 2155.76   7
  -1  -1  -6 43251.1 1986.12   7
   2  -1  -6 40312.0 2029.55   7
  -1   2  -6 40040.8 2002.65   7
   1  -2  -6 39865.8 1994.70   7
  -2   1  -5-96.7081 839.469   2
  -2   1  -4 8951.59 1579.00   2
  -1  -1  -4 6723.06 1389.25   2
  -1   2  -4 7329.77 1437.34   2
  -2   1  -3 641.463 589.172   2
  -1   2  -3 890.652 565.515   2
  -1  -1  -3 419.129 496.951   2
  -1  -1  -2 9383.60 1181.81   2
  -1   2  -2 12294.7 1247.03   2
  -2   1  -2 10121.2 1064.95   2
  -1  -1  -1 862.965 244.255   2
  -2   1  -1 946.326 299.487   2
  -1   2  -1 683.129 240.084   2
  -2   1   0 351208. 4447.58   1
   1   1   0 356434. 2247.05   8
   1  -2   0 349872. 3034.47   8
  -2   1   1 842.659 316.800   1
  -1   2   1 794.962 210.596   1
  -2   1   2 11360.1 1124.89   1
  -1   2   2 9751.45 867.256   1
  -1   2   3-49.1897 404.349   1
  -2   1   3 129.229 414.798   1
  -1  -1   4 8514.53 1507.04   1
  -2   1   4 9412.63 1504.46   1
  -1   2   4 6894.04 1193.23   1
  -2   1   5 98.2342 697.036   1
  -1  -1   5-503.274 881.989   1
   1  -2   6 41548.1 3825.02   1
  -1  -1   6 43630.6 4158.51   1
  -2   2  -9 7.08537 216.536   7
   0   2  -9 356.121 264.019   7
   2   0  -9 570.917 287.135   7
   0  -2  -9 177.782 201.086   7
  -2   0  -9-70.8225 172.201   7
   2  -2  -9 78.1269 212.635   7
  -2   0  -8 402.999 352.649   7
   0  -2  -8 321.190 307.437   7
   2   0  -8 745.441 424.691   7
   0   2  -8 1299.01 476.048   7
   2  -2  -8 1468.13 500.290   7
  -2   2  -8 1213.56 398.602   7
   2  -2  -7 2224.42 643.177   7
  -2   2  -7 2501.89 611.626   7
  -2   0  -7 2767.31 587.615   7
   0   2  -7 2320.45 595.433   7
   2   0  -7 3011.76 686.729   7
   0  -2  -7 2780.81 604.480   7
  -2   0  -6 70775.2 2504.48   7
   0  -2  -6 66410.0 2498.63   7
   0   2  -6 71395.5 2692.56   7
   2   0  -6 81223.2 2814.44   7
  -2   2  -6 77633.8 2687.76   7
   2  -2  -6 73425.6 2736.18   7
  -2   2  -5 1798.91 1032.42   2
  -2   0  -5 2884.58 1094.09   2
  -2   2  -4 3259.23 1043.05   2
  -2   0  -4 2056.08 923.371   2
   0   2  -3 47962.9 3047.97   2
  -2   0  -3 47600.6 2996.96   2
  -2   2  -3 50767.5 3066.51   2
   0  -2  -3 45042.3 2920.44   2
  -2   2  -2 280990. 5396.99   2
   0  -2  -2 292806. 5852.39   2
  -2   0  -2 290567. 5466.72   2
   2  -2  -1 29695.8 1226.93   8
  -2   0  -1 28521.6 1297.18   1
  -2   0  -1 29293.5 1310.30   2
  -2   2  -1 27731.6 1299.39   2
   0  -2  -1 29708.2 1317.55   2
   2   0   0 22954.2 881.490   8
  -2   0   0 24229.1 1163.25   1
  -2   2   1 26754.4 1253.97   1
  -2   0   1 26901.0 1431.54   1
   2   0   1 26809.9 1125.75   8
  -2   2   2 299744. 5364.78   1
  -2   0   2 293118. 5839.95   1
   0   2   3 50918.0 2240.81   1
  -2   2   3 49484.0 2750.88   1
  -2   0   3 48264.4 2939.27   1
  -2   2   4 1588.51 772.867   1
   0   2   4 2234.93 685.593   1
   0  -2   5 3761.32 1188.81   1
  -2   0   5 3655.59 1176.03   1
   0  -2   6 70264.4 5186.84   1
   2  -2   6 77563.0 5081.77   1
  -2   0   6 80312.5 5505.69   1
   1  -3  -9 168.796 184.504   7
   1   2  -9 165.493 250.505   7
   3  -2  -9-494.117 223.786   7
   3  -1  -9 276.940 241.639   7
  -1   3  -9-79.7381 209.733   7
   2   1  -9 148.305 232.802   7
   2  -3  -9 126.687 188.762   7
   1   2  -8 5308.31 767.376   7
   2   1  -8 4682.25 716.904   7
  -1  -2  -8 3658.61 530.860   7
  -3   2  -8 4705.22 704.793   7
   3  -2  -8 4722.39 729.155   7
  -1   3  -8 5032.30 709.378   7
  -2   3  -8 5120.55 716.836   7
   3  -1  -8 4410.77 684.570   7
   1  -3  -8 4362.04 660.770   7
  -2  -1  -8 3800.80 537.680   7
   2  -3  -8 4702.40 692.817   7
  -3   1  -8 4312.91 613.443   7
  -1  -2  -7 2079.15 551.020   7
   2  -3  -7 2192.97 607.405   7
  -1   3  -7 2075.05 599.821   7
   1   2  -7 2189.38 577.253   7
  -3   2  -7 1250.84 502.462   7
   1  -3  -7 2169.38 588.075   7
  -2  -1  -7 1951.19 555.724   7
  -3   1  -7 2145.34 577.448   7
   3  -1  -7 2916.59 698.589   7
   2   1  -7 2106.99 643.351   7
   3  -2  -7 1254.76 552.619   7
  -2   3  -7 1300.26 520.561   7
   2   1  -6 42160.3 2059.56   7
   2  -3  -6 39553.5 2083.79   7
  -1   3  -6 36942.3 1994.27   7
  -3   2  -6 42978.8 2050.48   7
  -2   3  -6 44148.2 2163.24   7
  -1  -2  -6 41239.9 1938.09   7
   1  -3  -6 40717.3 2027.91   7
   1   2  -6 41008.1 2074.06   7
  -3   1  -6 37969.8 1855.55   7
  -2  -1  -6 39749.4 1866.19   7
   3  -1  -6 40359.0 2045.22   7
   3  -2  -6 38938.0 2016.47   7
  -2  -1  -5 755.877 714.119   2
  -2   3  -5-186.768 693.907   2
  -3   2  -5 1064.13 848.778   2
  -3   1  -5 677.337 894.228   2
  -1  -2  -4 14311.9 1970.89   2
  -3   2  -4 16517.3 2112.32   2
  -3   1  -4 12585.4 1823.98   2
  -2   3  -4 14260.7 2016.97   2
  -2  -1  -4 15421.4 2054.63   2
  -1   3  -4 12992.5 1895.30   2
  -2   3  -3 2488.78 761.899   2
  -3   1  -3 1237.70 544.958   2
  -2  -1  -3 1867.80 696.618   2
  -3   2  -3 1075.15 556.022   2
  -1  -2  -3 1225.57 670.440   2
  -1   3  -3 1811.45 664.336   2
  -1   3  -2 77035.1 3071.57   2
  -2   3  -2 72701.2 2802.14   2
  -2  -1  -2 72099.1 2815.13   2
  -3   2  -2 67925.7 2805.94   2
  -3   1  -2 66728.1 2776.29   2
  -1  -2  -1 124557. 2622.10   2
   2  -3  -1 110517. 2348.46   8
  -3   1  -1 116963. 3078.46   1
  -2   3  -1 122085. 2703.78   2
  -3   2  -1 119291. 2955.80   2
  -2  -1  -1 109035. 2327.81   1
  -1   3  -1 120289. 2586.49   2
  -3   2  -1 117730. 3251.68   1
  -3   1  -1 123676. 3007.87   2
  -2  -1  -1 113989. 2617.74   2
   2  -3   0 130046. 2514.57   8
  -2  -1   0 124616. 2664.30   1
  -1  -2   0 129041. 2289.71   1
   1  -3   0 119208. 1984.30   8
   2   1   0 129636. 1937.35   8
  -3   2   0 117462. 3107.70   1
  -2   3   0 125230. 2770.85   1
  -3   1   0 132093. 3354.00   1
  -3   2   1 114396. 3245.47   1
  -2   3   1 121874. 2764.12   1
  -2  -1   1 114699. 3162.85   1
  -3   1   1 118051. 3233.23   1
   2   1   1 122937. 2194.03   8
   3  -1   1 117475. 2722.58   8
  -1   3   1 109552. 1652.48   1
  -3   1   2 66676.9 3024.80   1
  -2  -1   2 64731.8 2954.93   1
  -2   3   2 70988.5 2468.30   1
  -3   2   2 73262.0 2960.35   1
  -3   1   3 1007.62 613.477   1
  -1   3   3 2354.52 587.964   1
  -3   2   3 1891.88 728.780   1
  -2  -1   3 1530.44 713.663   1
  -2   3   3 1715.14 629.541   1
  -3   1   4 18448.2 2171.32   1
  -2  -1   4 17832.0 2148.34   1
  -2   3   4 15501.6 1803.18   1
  -1  -2   4 14914.3 2047.34   1
  -3   2   4 11051.7 1730.43   1
  -3   2   5 1384.99 934.057   1
  -1  -2   5 51.7949 772.600   1
  -2  -1   5 505.963 731.308   1
  -3   1   5 1150.18 689.495   1
  -1  -2   6 46766.8 4356.46   1
   1  -3   6 37982.0 3837.01   1
   3  -2   6 40865.5 3847.00   8
   2  -3   6 38622.2 3724.90   1
  -2  -1   6 37696.7 4051.12   1
   3  -1   6 40050.7 3739.00   8
   3   0  -9 704.909 253.638   7
   0   3  -9 688.409 277.125   7
   3  -3  -9 864.190 277.285   7
   0  -3  -8 853.321 313.945   7
   3  -3  -8 1868.07 563.084   7
   0   3  -8 785.717 437.957   7
   3   0  -8 1438.25 425.847   7
  -3   0  -8 1083.50 378.640   7
  -3   3  -8 1215.61 493.665   7
  -3   3  -7 225.624 407.953   7
   0   3  -7 1108.78 547.453   7
   0  -3  -7 1076.06 472.977   7
  -3   0  -7-110.575 351.855   7
   3   0  -7 527.090 469.095   7
   3  -3  -7 16.2509 501.302   7
   3  -3  -6 33198.8 1893.08   7
   3   0  -6 37732.2 1975.28   7
   0  -3  -6 31655.1 1744.25   7
  -3   3  -6 34398.0 1869.24   7
   0   3  -6 37992.3 2018.93   7
  -3   0  -6 31266.2 1684.96   7
  -3   0  -5 1921.68 1052.84   2
   0   3  -5 1999.03 552.750   7
  -3   3  -5 553.387 694.565   2
  -3   3  -4 82546.3 4656.72   2
  -3   0  -4 83146.8 4609.72   2
   0  -3  -3 42363.4 2805.05   2
  -3   0  -3 44339.3 2857.89   2
  -3   3  -3 51836.0 3093.99   2
   0   3  -3 46700.5 3053.98   2
   0   3  -2 72951.1 3049.58   2
  -3   0  -2 76525.0 2957.98   2
  -3   3  -2 67926.5 2804.52   2
   0  -3  -2 64740.9 2906.58   2
   0  -3  -1 3526.61 472.313   2
   3  -3  -1 4642.52 624.335   8
  -3   0  -1 3937.86 568.296   1
  -3   3  -1 3699.98 552.162   2
   0   3  -1 4324.97 526.750   2
  -3   0  -1 4348.94 594.893   2
  -3   0   0 24083.1 1455.61   1
   3   0   0 25403.8 1127.74   8
   0  -3   0 27984.8 749.097   8
   3   0   1 4804.68 583.563   8
  -3   3   1 5007.66 787.681   1
  -3   0   1 4054.57 771.448   1
  -3   3   2 72544.4 2931.51   1
  -3   0   2 81185.4 3438.86   1
   3   0   2 73598.4 2585.96   8
  -3   3   3 43335.6 2704.32   1
   0   3   3 45625.4 1829.53   1
  -3   0   3 39079.9 2790.16   1
  -3   0   4 85950.1 4805.65   1
  -3   3   4 87652.1 4327.10   1
   0  -3   5 1966.85 1083.76   1
  -3   0   5 2961.62 1171.85   1
   3  -3   6 31794.1 3257.78   1
   3   0   6 33874.9 3309.94   8
  -3   0   6 39403.6 4059.63   1
   0  -3   6 34705.5 3822.69   1
   2  -4  -9-202.057 171.974   7
   4  -2  -9 87.9847 213.989   7
   2   2  -9-213.264 236.648   7
   2  -4  -8 18609.6 1220.10   7
   4  -2  -8 17543.4 1269.18   7
   2   2  -8 19780.5 1304.43   7
  -2   4  -8 20030.5 1327.82   7
  -4   2  -8 17022.5 1113.59   7
   2  -4  -7 345.916 374.893   7
  -4   2  -7 392.331 353.259   7
   2   2  -7 379.874 479.179   7
  -2  -2  -7 101.336 307.010   7
  -2   4  -7 252.457 402.824   7
   4  -2  -7 381.187 437.463   7
   4  -2  -6 1207.00 456.487   7
   2  -4  -6 792.536 461.048   7
  -2   4  -6 1328.01 524.182   7
  -4   2  -6 1498.27 471.425   7
  -2  -2  -6 2368.08 530.605   7
   2   2  -6 2032.74 563.629   7
  -4   2  -6 3095.59 1213.40   2
  -4   2  -5-45.1129 604.438   2
   4  -2  -5 684.976 386.950   7
   2  -4  -5 994.189 383.618   7
  -2   4  -5 240.817 411.408   7
   2   2  -5 304.315 391.856   7
  -2   4  -5-619.201 852.615   2
  -2  -2  -5 371.020 687.124   2
  -2  -2  -4 237349. 7996.85   2
  -4   2  -4 247349. 8328.21   2
  -4   2  -3 3578.83 908.886   2
  -2  -2  -3 5148.78 1075.75   2
  -2   4  -3 5147.22 1031.09   2
  -2   4  -2 10758.9 1159.53   2
  -2  -2  -2 10322.5 1125.89   2
  -4   2  -2 10599.9 1219.34   2
  -4   2  -1 15155.1 1316.59   1
   2  -4  -1 15666.7 892.933   8
  -2  -2  -1 20330.8 1146.84   2
  -4   2  -1 17593.9 1356.35   2
  -2  -2  -1 18488.5 948.730   1
  -2   4  -1 16337.5 1041.59   2
  -2  -2   0 363512. 4740.31   1
   2  -4   0 339523. 4321.58   8
   2   2   1 14375.6 643.301   8
  -4   2   1 14933.8 1417.10   1
   2  -4   1 16114.9 1126.90   8
   4  -2   1 16044.6 1230.41   8
  -2  -2   1 14745.0 1234.44   1
   4  -2   2 10026.7 1131.02   8
  -2   4   2 11616.7 936.895   1
  -4   2   2 12495.2 1490.90   1
  -2  -2   2 10665.9 1397.88   1
  -2  -2   3 4240.53 1106.68   1
   4  -2   3 3606.06 903.759   8
  -4   2   3 4355.74 1171.07   1
  -2   4   3 4555.24 740.114   1
  -2  -2   4 256367. 8422.70   1
  -4   2   4 222326. 7803.96   1
  -4   2   5 822.529 763.393   1
   4  -2   5 442.014 643.892   8
  -2  -2   5 822.181 845.682   1
   4  -2   6 580.367 756.456   8
   2  -4   6 1565.48 1002.44   1
  -2  -2   6 2573.74 1478.39   1
   4  -1  -9-273.134 190.935   7
   1   3  -9-3.48789 188.064   7
   4  -3  -9 306.271 217.218   7
   3  -4  -9 103.937 169.275   7
   3   1  -8 6052.15 756.726   7
   4  -1  -8 5309.10 728.129   7
   3  -4  -8 5343.49 740.559   7
   4  -3  -8 4996.89 789.556   7
  -3   4  -8 5751.31 743.411   7
  -4   1  -8 3964.71 532.453   7
   1   3  -8 4751.50 746.130   7
  -4   3  -8 4230.33 642.688   7
  -1  -3  -8 3412.21 479.753   7
  -1   4  -8 5457.14 755.108   7
   1  -4  -8 4928.70 625.710   7
  -1  -3  -7 1588.22 459.070   7
   4  -1  -7 2144.27 599.660   7
  -3  -1  -7 1144.23 414.158   7
   1   3  -7 1164.15 501.859   7
  -1   4  -7 1258.58 520.260   7
  -3   4  -7 1515.43 582.636   7
   3   1  -7 1697.62 589.907   7
  -4   3  -7 1634.85 563.588   7
   1  -4  -7 1916.29 522.496   7
   4  -3  -7 1184.06 418.426   7
   3  -4  -7 1028.65 532.226   7
  -4   1  -7 1363.06 457.321   7
  -4   3  -6 11142.6 2373.32   2
   1   3  -6 14033.0 1268.77   7
  -4   1  -6 11486.6 2470.31   2
   1  -4  -6 11383.2 1121.39   7
   4  -3  -6 12157.5 1212.38   7
  -1  -3  -6 12842.2 1086.91   7
  -4   3  -6 13311.0 1212.94   7
  -3  -1  -6 13289.6 1093.07   7
  -3   4  -6 13413.4 1295.79   7
   4  -1  -6 12063.3 1150.25   7
   3  -4  -6 13544.0 1248.90   7
   3   1  -6 14465.4 1290.57   7
  -1   4  -6 9777.55 1160.16   7
  -4   1  -6 13268.1 1137.58   7
   3   1  -5 9221.88 972.752   7
   3  -4  -5 7773.70 941.167   7
  -4   3  -5 6059.01 1708.39   2
   4  -1  -5 9118.81 966.453   7
  -4   3  -5 8685.40 890.851   7
  -3  -1  -5 6409.96 1519.65   2
   4  -3  -5 7686.25 889.682   7
  -3   4  -5 7677.86 909.370   7
  -3   4  -5 7188.93 1597.34   2
  -1   4  -5 7126.33 914.764   7
  -4   1  -5 6728.17 1744.71   2
   1   3  -5 10260.3 1033.38   7
  -4   3  -4 78815.8 4680.13   2
  -3  -1  -4 86907.4 4730.39   2
  -3   4  -4 80505.8 4659.98   2
  -1   4  -4 76992.1 4426.29   2
  -1  -3  -4 74399.4 4429.44   2
  -4   1  -4 85941.3 4833.81   2
  -4   1  -3 45821.2 2900.82   2
  -3   4  -3 38261.0 2797.31   2
  -1  -3  -3 42876.8 2994.30   2
  -3  -1  -3 47901.1 3008.17   2
  -4   3  -3 52085.6 3105.47   2
  -1   4  -3 43976.5 2888.45   2
  -4   1  -2 52500.6 2657.90   2
  -1  -3  -2 57519.7 2684.12   2
  -4   3  -2 56882.0 2766.82   2
  -3  -1  -2 57805.6 2576.97   2
  -3   4  -2 56700.6 2550.21   2
  -1   4  -2 51649.0 2539.27   2
  -3   4  -1 241498. 4240.36   2
  -3  -1  -1 222488. 4121.63   1
  -4   3  -1 227893. 4614.36   2
  -1  -3  -1 221387. 3740.63   2
   3  -4  -1 222077. 3943.57   8
  -3  -1  -1 226550. 4070.58   2
  -1   4  -1 201983. 3614.52   2
  -4   3  -1 242107. 5331.45   1
  -4   1  -1 230766. 4660.54   2
  -4   1  -1 230782. 4893.02   1
   4  -1  -1 203298. 4060.97   8
  -4   3   0 15748.5 1269.74   1
   3   1   0 14192.8 806.333   8
  -1  -3   0 11488.8 394.237   2
   4  -1   0 13416.6 1023.82   8
  -4   1   0 12796.1 1276.14   1
   1  -4   0 15040.6 785.254   8
  -1  -3   0 14462.3 874.960   1
  -3   4   0 17007.5 1229.37   1
  -3  -1   0 14867.7 1179.42   1
   3  -4   0 14124.2 1012.70   8
  -3   4   1 204262. 4267.90   1
   3  -4   1 242129. 4514.59   8
  -4   1   1 226155. 5211.41   1
  -3  -1   1 245249. 5211.01   1
   3   1   1 228913. 3477.28   8
   4  -1   1 229108. 4334.03   8
  -4   3   1 195676. 4945.71   1
  -3  -1   2 48492.9 2895.28   1
   3   1   2 52265.2 2046.26   8
  -3   4   2 60205.4 2605.19   1
  -4   1   2 53642.0 2918.45   1
   4  -1   2 53565.7 2413.51   8
   4  -3   2 51066.3 2575.05   8
   4  -1   3 47274.3 2875.25   8
   4  -3   3 49968.8 3139.04   8
  -4   3   3 43286.2 3052.52   1
  -3   4   3 48975.6 2805.44   1
  -3  -1   3 48389.9 3290.06   1
  -3  -1   4 81662.3 4919.90   1
  -1  -3   4 92633.1 5083.26   1
  -4   3   4 81736.1 4556.31   1
   4  -1   4 82860.7 4571.44   8
  -4   1   4 91030.7 5188.11   1
  -4   1   5 8118.84 1895.56   1
   4  -1   5 7898.40 1614.59   8
   3   1   5 9494.51 1693.62   8
  -1  -3   5 6571.13 1682.00   1
   4  -3   5 8211.26 1652.07   8
  -3  -1   5 8045.56 2010.86   1
  -1  -3   6 10792.0 2120.31   1
   1   3   6 12178.4 1208.32   4
   1  -4   6 11363.7 2198.65   1
   3  -4   6 13453.5 2372.68   8
   4  -1   6 10855.8 2048.75   8
   3  -4   6 9529.05 1947.44   1
  -3  -1   6 14946.7 2716.00   1
   4  -3   6 11647.7 2197.43   8
   4   0  -9 318.257 224.706   7
   4  -4  -9-165.954 197.146   7
   0   4  -8 2584.93 586.971   7
   4  -4  -8 2646.69 585.856   7
   4   0  -8 2326.40 501.816   7
  -4   4  -8 2735.78 541.745   7
   0  -4  -8 1876.41 386.503   7
  -4   4  -7 2.89568 425.454   7
   0   4  -7 245.094 507.692   7
   0  -4  -7 429.105 389.021   7
   4  -4  -7-321.389 475.117   7
  -4   0  -7 321.684 344.253   7
   4   0  -7 1060.04 493.156   7
   4  -4  -6 23977.5 1691.93   7
  -4   0  -6 24706.6 1477.71   7
   4   0  -6 29224.8 1797.87   7
   0   4  -6 27600.1 1777.21   7
  -4   0  -6 22869.7 3234.97   2
  -4   4  -6 19515.1 3078.06   2
  -4   4  -6 25402.3 1731.09   7
   0  -4  -6 22114.2 1439.12   7
  -4   0  -5 12852.7 2245.65   2
  -4   4  -5 12347.6 2280.26   2
  -4   4  -5 12534.2 1100.60   7
   0   4  -5 16226.7 1296.00   7
   4   0  -5 13839.4 1224.54   7
   4  -4  -5 15831.7 1259.68   7
  -4   4  -4 28688.2 2838.76   2
  -4   0  -4 22084.8 2512.59   2
  -4   0  -3 19116.0 1925.67   2
  -4   4  -3 20672.2 1997.94   2
  -4   4  -2 188593. 5044.44   2
  -4   0  -2 198250. 5108.13   2
   4  -4  -1 67773.0 2469.35   8
  -4   0  -1 72048.8 2627.89   2
  -4   0  -1 75614.3 2832.57   1
  -4   4   0 8244.82 1008.91   1
  -4   0   0 8455.48 1092.52   1
   0  -4   0 7947.31 458.366   8
   4  -4   0 7722.08 852.343   8
   4   0   0 8581.50 770.068   8
  -4   4   1 64390.9 2805.41   1
   4   0   1 71742.1 2313.80   8
   4  -4   1 72031.1 2684.01   8
  -4   0   1 73937.1 3098.11   1
  -4   4   2 206977. 5664.62   1
   4   0   2 202060. 4485.31   8
  -4   0   2 201963. 5939.70   1
   4  -4   2 186165. 5079.90   8
   4  -4   3 19800.3 2041.32   8
  -4   0   3 18841.0 2215.47   1
  -4   4   3 23658.9 2215.73   1
   4   0   3 19662.8 1784.21   8
  -4   0   4 25401.2 2830.55   1
   4   0   4 23108.8 2348.52   8
  -4   4   4 18581.4 2170.59   1
   4   0   5 15712.8 2181.19   8
   4  -4   5 12324.4 2080.67   8
  -4   0   5 14234.9 2549.69   1
   0  -4   5 14678.8 2501.46   1
   4  -4   6 22014.7 2972.88   8
   0  -4   6 24920.9 3499.52   1
  -4   0   6 26682.0 3696.89   1
   0   4   6 24443.5 1746.07   4
   5  -2  -9 154.755 171.600   7
   5  -3  -9-99.1727 181.375   7
   2   3  -9-73.4596 174.516   7
   3   2  -9 143.652 190.431   7
   2  -5  -8 13912.7 996.890   7
   5  -3  -8 15776.6 1216.72   7
   5  -2  -8 16459.6 1153.69   7
  -5   3  -8 13349.9 945.682   7
  -3   5  -8 13977.4 1078.40   7
  -2   5  -8 17485.3 1195.89   7
   2   3  -8 16347.1 1157.03   7
   3  -5  -8 14295.8 1083.26   7
   3   2  -8 14913.9 1099.11   7
  -5   2  -8 12209.2 879.552   7
  -3   5  -7 643.117 518.856   7
   5  -3  -7 270.719 429.758   7
   3  -5  -7 355.140 393.511   7
  -5   3  -7 769.098 389.450   7
  -2   5  -7 1035.60 582.438   7
   5  -2  -7 347.580 408.818   7
  -5   2  -7 262.273 370.170   7
   2   3  -7 609.236 409.861   7
   2  -5  -7 89.9944 368.179   7
   3   2  -7 448.896 407.692   7
   2   3  -6 1627.90 544.570   7
  -5   3  -6 1271.69 554.228   7
  -3   5  -6 1599.69 587.485   7
   5  -3  -6 2048.15 564.454   7
   3   2  -6 2453.20 683.765   7
   2  -5  -6 1437.67 507.934   7
  -5   3  -6 1482.08 1106.81   2
   5  -2  -6 828.984 446.667   7
  -5   2  -6 1780.13 578.779   7
  -5   2  -6 1165.17 749.097   2
  -2   5  -6 2139.56 702.761   7
   3  -5  -6 2153.44 609.549   7
   2  -5  -5 1238.41 496.569   7
   3  -5  -5 397.721 378.105   7
  -3  -2  -5-565.110 811.922   2
  -5   3  -5 556.800 385.195   7
  -5   2  -5 729.983 816.259   2
  -3   5  -5-346.810 378.624   7
  -2   5  -5-91.8129 365.558   7
   5  -2  -5 75.9080 434.902   7
  -3   5  -5 348.803 565.801   2
   5  -3  -5-224.047 368.947   7
   2   3  -5 278.639 404.209   7
   3   2  -5-22.2998 361.519   7
  -5   3  -5-566.973 596.175   2
  -3   5  -4 48113.8 3588.57   2
  -3  -2  -4 57496.5 3971.60   2
  -5   2  -4 60797.3 4228.96   2
  -2  -3  -4 57540.0 3968.37   2
  -5   3  -4 59926.6 4211.78   2
  -2   5  -4 56458.7 3847.15   2
  -5   3  -3 3124.03 902.536   2
  -2   5  -3 3669.65 936.839   2
  -3   5  -3 3317.02 918.768   2
  -3  -2  -3 2808.15 830.202   2
  -2  -3  -3 3332.70 909.931   2
  -5   2  -3 2205.13 788.549   2
  -5   2  -2 29722.8 2147.19   2
  -2  -3  -2 29873.7 1977.06   2
  -3  -2  -2 27412.0 1826.69   2
  -5   3  -2 29864.8 2134.60   2
  -3   5  -2 29799.7 1908.65   2
  -2  -3  -1 67232.7 1809.62   1
  -3  -2  -1 72551.9 2372.51   2
   5  -2  -1 64632.4 2554.76   8
  -2   5  -1 58590.5 1946.86   2
   3  -5  -1 61684.1 2111.28   8
  -5   2  -1 68691.5 2939.46   2
  -5   3  -1 58592.7 2834.93   1
  -5   2  -1 66456.4 2972.00   1
  -3   5  -1 55945.0 2115.31   2
   2  -5  -1 58945.3 1701.61   8
  -2  -3  -1 70605.5 2152.19   2
   5  -3  -1 58447.3 2479.54   8
  -5   3  -1 66662.6 2880.33   2
  -3  -2  -1 53457.6 2109.81   1
  -3  -2   0 287229. 5225.77   1
  -5   3   0 275621. 6116.69   1
  -2   5   0 262478. 3142.52   2
   3  -5   0 307602. 4789.03   8
  -2  -3   0 290739. 3231.06   2
   5  -2   0 306267. 5321.67   8
   2  -5   0 267565. 4029.35   8
  -2  -3   0 282495. 4488.78   1
  -5   2   0 302632. 6547.51   1
  -3   5   1 70656.9 2405.64   1
   2  -5   1 58443.6 2232.65   8
   3  -5   1 62293.1 2413.35   8
  -5   2   1 48540.5 2764.35   1
  -2  -3   1 49857.5 2453.87   1
   5  -2   1 64128.5 2640.13   8
  -5   3   1 56798.3 3057.20   1
   5  -3   1 65680.0 2728.02   8
  -3  -2   1 61114.0 2820.11   1
   3   2   1 58529.6 1509.22   8
   5  -2   2 26182.7 1892.63   8
  -5   2   2 28848.5 2404.60   1
  -3   5   2 27918.0 1590.73   1
   2   3   2 28996.7 1188.62   8
  -3  -2   2 26987.6 2290.41   1
   5  -3   2 25605.0 1941.49   8
  -2  -3   2 26058.7 2168.33   1
   3   2   2 28834.5 1427.77   8
  -5   3   2 29130.8 2402.22   1
  -2   5   2 23837.4 908.073   1
   5  -3   3 3322.52 876.316   8
  -2  -3   3 3034.92 975.656   1
  -5   2   3 3014.18 1081.46   1
  -5   3   3 4840.86 1155.31   1
   3   2   3 3669.80 694.455   8
   5  -2   3 3680.20 930.279   8
  -3  -2   3 2413.69 776.991   1
   5  -3   4 54431.3 4038.69   8
   5  -2   4 59062.8 4077.80   8
  -2  -3   4 62890.4 4420.35   1
  -5   2   4 57097.4 4336.80   1
   3   2   4 51753.0 3102.58   8
  -5   3   4 60244.6 4295.57   1
  -3  -2   4 50576.8 4302.39   1
   2   3   5-139.698 361.171   4
  -3  -2   5 435.866 806.262   1
   5  -2   5 620.368 692.141   8
  -5   2   5-1495.17 1199.12   1
  -2  -3   5 394.358 810.679   1
  -5   3   5-289.372 852.681   1
   3   2   5-194.242 292.151   4
   5  -3   5 622.707 868.768   8
  -2   5   5 402.854 437.899   3
   2   3   6 2145.16 562.179   4
   3  -5   6 2521.69 1263.07   1
  -2  -3   6 1087.39 1236.98   1
   2  -5   6 965.611 794.833   1
   5  -3   6 714.770 799.665   8
   5  -2   6-364.274 812.622   8
  -3  -2   6-101.136 865.341   1
   3  -5   6 406.795 685.039   8
  -2   5   7 1026.03 500.063   4
   4   1  -9 492.233 218.257   7
   5  -4  -9 43.5001 164.694   7
   5  -1  -9 342.940 195.129   7
   1   4  -8 4531.18 684.624   7
  -1   5  -8 4120.00 688.107   7
  -4   5  -8 4500.31 666.995   7
   5  -1  -8 4511.75 643.908   7
   5  -4  -8 4522.53 717.694   7
   4  -5  -8 4956.98 680.505   7
   1  -5  -8 4082.46 528.902   7
   4   1  -8 5265.65 684.915   7
   1  -5  -7 892.368 379.541   7
   1   4  -7 530.085 515.916   7
  -5   4  -7 584.129 459.467   7
  -4   5  -7 960.837 463.558   7
   5  -4  -7 711.601 478.093   7
   5  -1  -7 1693.76 592.391   7
   4   1  -7 997.464 487.629   7
   4  -5  -7-184.409 471.671   7
  -1   5  -7 1575.04 554.710   7
   5  -1  -6 8224.69 997.431   7
  -4   5  -6 7693.20 1053.89   7
   1   4  -6 8243.49 1006.42   7
  -1   5  -6 8263.71 1078.02   7
  -5   4  -6 7849.72 981.511   7
   5  -4  -6 7488.96 980.514   7
   4  -5  -6 7286.92 1029.01   7
   4   1  -6 9492.62 1055.44   7
   1  -5  -6 8285.63 953.813   7
  -1  -4  -6 7878.75 846.023   7
  -5   4  -5 8493.28 2103.07   2
   5  -4  -5 9102.69 1019.67   7
  -5   1  -5 9421.40 1975.49   2
   5  -1  -5 7206.18 889.547   7
   1   4  -5 8142.17 962.190   7
   4   1  -5 6524.15 865.006   7
  -4  -1  -5 7122.15 1670.72   2
   1  -5  -5 7245.42 854.695   7
  -5   4  -5 8760.37 933.471   7
  -1   5  -5 8541.70 1023.80   7
  -4   5  -5 8408.77 1024.79   7
   4  -5  -5 7782.09 972.544   7
  -4   5  -5 7525.41 1721.31   2
  -4  -1  -4 50971.9 3776.26   2
  -4   5  -4 49437.7 3723.39   2
  -5   4  -4 40525.1 3534.60   2
  -5   1  -4 44032.0 3708.27   2
  -4   5  -3 1913.99 727.296   2
  -1   5  -3 1728.15 693.436   2
  -5   1  -3 2977.05 864.640   2
  -1  -4  -3 2864.99 943.324   2
  -4  -1  -3 2222.49 734.285   2
  -5   4  -3 3491.49 925.548   2
  -1  -4  -2 67545.1 2951.91   2
  -5   1  -2 68835.0 3194.89   2
  -4  -1  -2 66411.4 2949.08   2
  -4   5  -2 61315.4 2877.83   2
  -5   4  -2 73069.4 3290.08   2
  -1   5  -2 78708.8 3126.14   2
  -4  -1  -1 92734.7 2929.03   2
  -1   5  -1 81535.4 2182.98   2
   5  -4  -1 88663.7 3102.81   8
  -4   5  -1 88159.1 2853.15   2
   4  -5  -1 96345.8 2994.45   8
  -4  -1  -1 94296.6 3220.38   1
  -5   4  -1 82214.7 3500.22   1
  -5   1  -1 99374.0 3646.52   1
  -1  -4  -1 88527.6 2294.66   2
   5  -1  -1 89535.2 2999.39   8
  -5   4  -1 85577.5 3194.00   2
  -5   1  -1 104288. 3574.40   2
  -5   1   0 8656.16 1195.92   1
   4   1   0 10071.6 796.818   8
  -1  -4   0 11371.2 879.433   1
   4  -5   0 10494.9 1019.43   8
  -5   4   0 13339.7 1381.53   1
  -4  -1   0 9644.84 1167.46   1
   1  -5   0 10627.7 689.427   8
   5  -4   0 10483.5 1076.20   8
   5  -1   0 9408.77 925.573   8
  -4   5   0 11569.9 1175.18   1
   4   1   1 93295.3 2476.10   8
   5  -4   1 95977.9 3378.79   8
  -4   5   1 106536. 3458.75   1
  -5   1   1 79170.5 3560.85   1
   4  -5   1 93654.0 3208.29   8
  -1  -4   1 97959.9 3421.47   1
  -5   4   1 86514.1 3693.01   1
   5  -1   1 99085.1 3087.95   8
  -4  -1   1 83405.9 3430.79   1
  -5   1   2 58304.0 3436.48   1
  -5   4   2 75790.7 3868.94   1
   5  -1   2 68897.5 2960.67   8
  -4   5   2 64622.6 2977.88   1
  -4  -1   2 71944.8 3732.18   1
   4   1   2 73014.4 2625.46   8
   4  -5   2 71633.1 3285.25   8
   5  -4   2 69349.9 3247.71   8
   5  -1   3 3094.69 821.360   8
  -5   4   3 3602.56 1065.83   1
  -4   5   3 3641.01 940.691   1
   5  -4   3 2450.17 747.236   8
  -4  -1   3 2792.98 1163.92   1
   4   1   3 2403.22 646.184   8
   4  -5   3 1936.88 709.036   8
  -5   1   3 3933.25 1234.55   1
  -5   4   4 36592.3 3391.69   1
   5  -1   4 43022.1 3344.27   8
  -1  -4   4 44513.9 3839.15   1
   4  -5   4 42831.1 3473.92   8
  -4  -1   4 45425.0 4021.09   1
   4   1   4 47158.7 3146.17   8
   5  -4   4 44474.8 3675.05   8
  -5   1   4 41982.5 3808.68   1
   4  -5   5 7257.95 1607.71   8
   5  -4   5 8671.70 1843.27   8
   1  -5   5 7001.52 1712.59   1
  -5   1   5 8074.48 1964.58   1
  -1  -4   5 7017.82 1848.67   1
  -4  -1   5 3918.06 1465.76   1
  -1   5   5 8430.23 1032.68   3
   5  -1   5 10458.6 1914.85   8
   1  -5   6 4423.79 1505.18   1
   4  -5   6 6960.47 1877.18   8
  -5   1   6 11020.5 2456.80   1
   5  -4   6 7542.79 1819.92   8
  -1  -4   6 7169.69 1813.71   1
  -4  -1   6 6912.75 2193.43   1
   1   4   6 8291.89 1052.62   4
  -1   5   7 934.344 458.440   4
   1   4   7 57.6184 334.335   4
   5  -5  -8 3995.05 641.787   7
   0   5  -8 4432.21 645.345   7
   5   0  -8 3233.09 535.715   7
  -5   5  -7 4626.69 799.601   7
   5   0  -7 5740.35 799.886   7
   5  -5  -7 4808.53 838.920   7
   0   5  -7 5804.10 867.403   7
   0  -5  -7 4616.69 651.548   7
  -5   5  -6 9894.95 1142.33   7
   5   0  -6 10178.6 1097.00   7
   0   5  -6 9486.53 1163.00   7
   0  -5  -6 7873.05 845.898   7
   5  -5  -6 8565.21 1030.53   7
   5   0  -5 10587.9 1052.39   7
   5  -5  -5 13892.4 1232.77   7
   0   5  -5 11016.6 1076.16   7
  -5   5  -5 11594.3 2168.57   2
  -5   0  -5 9630.96 2090.28   2
  -5   5  -5 11049.2 1115.55   7
  -5   5  -4 39382.3 3431.78   2
  -5   0  -4 42393.0 3559.68   2
  -5   0  -3 916.254 545.484   2
  -5   5  -3 1084.94 569.603   2
  -5   0  -2 203481. 5542.00   2
  -5   5  -2 209901. 5659.68   2
   5  -5  -1 60614.0 2637.89   8
  -5   0  -1 58047.1 2843.19   1
  -5   0  -1 62708.2 2693.61   2
  -5   5  -1 58741.4 2595.78   2
  -5   5   0 51930.5 2750.19   1
   0  -5   0 46714.6 1152.77   8
   5   0   0 51968.3 2066.54   8
   5  -5   0 47154.1 2310.11   8
  -5   0   0 55535.6 2986.98   1
   5   0   1 58623.2 2320.10   8
  -5   0   1 52921.4 2997.06   1
   5  -5   1 55145.9 2647.67   8
  -5   5   2 191804. 5953.73   1
   5   0   2 209513. 4986.45   8
   5  -5   2 206679. 5728.07   8
  -5   0   2 200914. 6581.69   1
   5   0   3 1407.35 630.342   8
   5  -5   3 1800.26 816.785   8
  -5   0   3 2165.36 1093.85   1
  -5   5   3 2008.37 929.509   1
   5  -5   4 34492.4 3270.09   8
  -5   0   4 43338.3 4042.11   1
   5   0   4 42605.1 3134.25   8
   0  -5   5 12770.5 2519.20   1
  -5   0   5 14410.7 2830.97   1
   5  -5   5 10957.9 2104.35   8
   0   5   6 9762.67 1116.64   4
   0   5   7 4666.33 783.680   4
   3  -6  -8 13227.0 935.327   7
   3   3  -8 13699.0 1004.36   7
  -3   6  -8 15021.8 1081.36   7
   6  -3  -8 13422.6 1034.42   7
   3  -6  -7-87.5345 395.097   7
  -6   3  -7 969.021 457.786   7
   6  -3  -7 456.083 412.319   7
  -3   6  -7 139.725 440.183   7
   3   3  -7-5.50797 395.786   7
   3  -6  -6 1363.14 544.227   7
   3   3  -6 2879.86 669.912   7
  -3   6  -6 3089.45 796.722   7
   6  -3  -6 1809.89 563.309   7
  -6   3  -6 929.474 475.184   7
  -6   3  -5-262.397 628.849   2
  -6   3  -5 79.5541 323.569   7
  -3   6  -5 364.233 435.574   7
   3   3  -5 117.538 320.764   7
   3  -6  -5 264.980 372.362   7
  -3   6  -5 549.496 682.633   2
   6  -3  -5 11.3168 358.152   7
  -3  -3  -4 4252.88 1305.77   2
  -3   6  -4 2606.13 1076.37   2
  -6   3  -4 4300.66 1204.64   2
  -3   6  -3 800.248 391.819   2
  -6   3  -3 1297.17 704.167   2
  -3  -3  -3 988.262 635.416   2
  -3  -3  -2 85965.7 3481.82   2
  -6   3  -2 99681.0 4181.58   2
   6  -3  -1 1692.13 527.106   8
  -3  -3  -1 1610.23 430.132   1
  -6   3  -1 2538.52 754.684   2
  -3  -3  -1 1557.87 448.631   2
   3  -6  -1 1534.52 373.370   8
  -3   6  -1 1223.22 412.783   2
  -6   3  -1 1411.78 610.761   1
  -3   6   0 174943. 3259.39   2
   6  -3   0 171717. 4509.72   8
  -3  -3   0 176908. 4249.28   1
  -6   3   0 188913. 5642.04   1
   3  -6   0 187249. 3914.44   8
  -3  -3   0 158808. 3035.91   2
  -3  -3   1 1410.29 606.375   1
   3  -6   1 1639.68 486.539   8
  -6   3   1 1816.68 844.889   1
   6  -3   1 1258.15 439.245   8
   6  -3   2 92523.3 3882.14   8
  -6   3   2 85814.0 4522.83   1
   3  -6   2 87440.8 3655.44   8
  -3  -3   3 1185.98 863.372   1
  -6   3   3 2335.26 1147.15   1
   6  -3   3 1621.08 852.420   8
  -3  -3   4 2255.58 1130.34   1
  -6   3   4 3076.31 1289.39   1
   6  -3   4 4081.43 1238.52   8
  -3  -3   5-785.699 1120.34   1
  -6   3   5 150.225 860.331   1
  -3   6   5 561.349 458.096   3
   6  -3   5 1161.73 1096.93   8
   3   3   5 19.5737 303.985   4
   3   3   6 2035.22 566.225   4
  -2   6  -8 7995.85 824.190   7
   6  -4  -8 5901.81 717.795   7
   4   2  -8 6416.11 704.798   7
   2   4  -8 7653.01 819.945   7
   4  -6  -8 5973.75 695.515   7
   6  -2  -8 6215.40 744.245   7
   2  -6  -8 4563.34 573.948   7
   2  -6  -7-544.846 400.916   7
   6  -4  -7 197.917 435.537   7
   6  -2  -7 647.661 415.363   7
  -4   6  -7 495.702 485.331   7
   2   4  -7 521.120 450.758   7
   4   2  -7 469.933 444.267   7
  -6   4  -7-44.5395 367.106   7
   4  -6  -7 330.827 429.659   7
  -2   6  -7 602.948 540.654   7
   2   4  -6 7428.90 936.515   7
  -2   6  -6 6580.03 1053.80   7
   4   2  -6 5716.02 890.389   7
   4  -6  -6 5087.50 893.372   7
  -4   6  -6 5964.48 988.029   7
   6  -2  -6 6168.90 889.927   7
  -6   4  -6 4416.65 765.206   7
   2  -6  -6 5638.75 810.732   7
   6  -4  -6 5021.88 849.539   7
  -6   2  -5 1481.25 1186.74   2
   4   2  -5 151.464 376.877   7
  -4  -2  -5-147.389 774.202   2
  -4   6  -5 507.703 437.011   7
   2  -6  -5 1295.06 473.228   7
   4  -6  -5 925.328 545.660   7
   6  -2  -5 211.756 428.097   7
  -6   4  -5 889.710 877.106   2
   6  -4  -5 300.901 384.324   7
  -2   6  -5 293.090 421.753   7
   2   4  -5 655.148 446.110   7
  -6   4  -5 533.977 434.155   7
  -4   6  -5 489.961 711.841   2
  -6   4  -4 1786.63 907.845   2
  -4  -2  -4 2123.98 980.800   2
  -2   6  -4 2163.66 758.808   2
  -4   6  -4 1428.86 725.806   2
  -6   2  -4 3040.55 1089.56   2
  -2  -4  -4 1808.35 961.626   2
  -4  -2  -3 8684.48 1434.57   2
  -4   6  -3 10132.7 1508.51   2
  -2   6  -3 8513.74 1289.74   2
  -6   4  -3 10009.4 1512.89   2
  -6   2  -3 10507.3 1577.78   2
  -2  -4  -3 6356.65 1233.49   2
  -6   2  -2 194877. 5829.11   2
  -4   6  -2 199855. 5223.48   2
  -4  -2  -2 212918. 5342.55   2
  -6   4  -2 182629. 5618.96   2
  -2   6  -2 221769. 5312.78   2
  -2  -4  -2 199665. 5176.41   2
  -4  -2  -1 23248.4 1692.93   1
  -4   6  -1 26558.5 1621.99   2
  -6   4  -1 20165.7 1811.76   1
   4  -6  -1 21624.6 1451.67   8
  -2   6  -1 23094.6 1262.71   2
   2  -6  -1 21713.8 1014.66   8
   6  -4  -1 21031.8 1681.51   8
  -4  -2  -1 18197.7 1321.10   2
  -2  -4  -1 19615.8 994.113   1
  -6   2  -1 24041.1 1980.07   1
  -6   4  -1 29344.9 2122.83   2
  -6   2  -1 26798.0 2051.08   2
  -2  -4  -1 19296.7 1217.10   2
   6  -2  -1 21396.4 1618.88   8
  -4  -2   0 117633. 3910.94   1
   4  -6   0 99727.1 3175.81   8
   6  -2   0 105209. 3449.66   8
  -2  -4   0 112146. 3036.77   1
   2  -6   0 106442. 2595.61   8
  -6   2   0 131948. 4792.29   1
  -2  -4   0 97990.9 1603.77   2
   6  -4   0 106765. 3659.98   8
  -6   4   0 122107. 4439.77   1
   4   2   1 24603.1 1149.96   8
  -4   6   1 25888.0 1717.71   1
  -6   4   1 19618.1 1987.14   1
   4  -6   1 23363.8 1698.76   8
  -2  -4   1 25128.1 1893.35   1
  -6   2   1 23312.2 2152.55   1
   2  -6   1 21866.5 1459.58   8
  -4  -2   1 23163.4 1933.49   1
   6  -2   1 22677.6 1680.65   8
   6  -4   1 21477.7 1753.93   8
   6  -4   2 186311. 5667.44   8
  -6   4   2 179691. 6582.18   1
  -4   6   2 172807. 4361.87   1
  -2  -4   2 198166. 6359.24   1
  -4  -2   2 166651. 6103.57   1
   4   2   2 194352. 3930.54   8
   4  -6   2 172947. 5266.82   8
   6  -2   2 181856. 5269.67   8
  -6   2   2 178070. 6609.11   1
  -2  -4   3 9378.81 1618.26   1
  -6   4   3 10756.1 1894.76   1
  -4  -2   3 9200.04 1734.86   1
   6  -4   3 10816.6 1700.71   8
   4   2   3 9863.44 1168.29   8
  -6   2   3 8807.34 1756.58   1
   4  -6   3 8856.69 1484.47   8
   6  -2   3 9709.67 1483.17   8
   6  -4   4 2989.18 1110.27   8
  -6   4   4 2984.84 1293.64   1
  -6   2   4 1865.59 1238.53   1
  -4  -2   4 2471.21 1220.67   1
   6  -2   4 1808.01 722.976   8
   4  -6   4 1710.35 917.468   8
  -2  -4   4 1187.81 803.842   1
   4   2   5 591.716 340.393   4
  -4   6   5 1769.56 640.569   3
   2   4   5 803.938 432.003   4
   6  -2   5 290.997 669.484   8
   4  -6   5-316.364 961.098   8
   6  -4   5 960.671 582.909   8
  -2   6   5 1265.84 566.304   3
  -4  -2   5 748.384 1121.02   1
  -2  -4   5 621.779 1010.85   1
  -6   2   5 1573.58 1194.36   1
   4   2   6 5694.94 821.151   4
   2   4   6 5736.46 880.274   4
  -2   6   7-198.558 366.404   4
   2   4   7 1265.18 449.380   4
   5  -6  -8 4812.03 672.762   7
   1   5  -8 4174.27 613.413   7
   6  -1  -8 5628.12 661.613   7
   6  -5  -8 5501.75 701.447   7
   5   1  -8 4806.75 623.300   7
  -1   6  -8 3748.26 635.084   7
   5  -6  -7 10444.2 1177.02   7
   6  -5  -7 10447.3 1186.69   7
   5   1  -7 12716.5 1146.73   7
   6  -1  -7 12502.4 1159.59   7
  -1   6  -7 14610.3 1346.65   7
  -5   6  -7 8480.23 1179.78   7
   1  -6  -7 10354.6 921.061   7
   1   5  -7 12277.4 1216.26   7
  -6   5  -7 8949.73 1088.48   7
   5   1  -6 4194.88 803.682   7
  -5   6  -6 4036.60 887.496   7
   5  -6  -6 5636.00 928.542   7
   1  -6  -6 4288.98 681.118   7
  -1   6  -6 5945.58 952.878   7
   6  -5  -6 5158.63 921.477   7
   6  -1  -6 4132.50 776.942   7
   1   5  -6 4992.07 875.134   7
  -6   5  -6 4470.75 858.141   7
  -5  -1  -5 12857.3 2296.24   2
   1   5  -5 14259.0 1244.01   7
   5  -6  -5 16686.1 1407.06   7
   1  -6  -5 13568.2 1083.00   7
   6  -5  -5 18624.6 1430.33   7
  -6   5  -5 17253.8 2810.34   2
   5   1  -5 15566.5 1227.08   7
  -5   6  -5 11755.6 1285.12   7
  -1   6  -5 13099.0 1233.81   7
   6  -1  -5 14833.0 1284.94   7
  -6   5  -5 14288.7 1326.14   7
  -5   6  -5 16650.7 2647.29   2
  -6   1  -5 17648.3 2766.94   2
  -5  -1  -4 57182.3 4112.07   2
  -6   1  -4 56877.7 4229.96   2
  -5   6  -4 56398.9 4265.12   2
  -6   5  -4 60535.8 4292.45   2
  -6   5  -3 6372.36 1228.10   2
  -6   1  -3 4235.22 1069.62   2
  -5   6  -3 4494.19 977.889   2
  -5  -1  -3 4444.62 1031.14   2
   6  -5  -2 64420.1 3129.16   8
  -6   5  -2 58802.4 3165.77   2
  -5  -1  -2 60487.3 3033.89   2
  -5   6  -2 66560.7 3253.42   2
  -6   1  -2 70157.2 3501.50   2
  -6   5  -1 14050.9 1410.90   2
  -6   5  -1 17532.8 1774.33   1
   6  -1  -1 14844.6 1319.42   8
  -6   1  -1 17135.6 1609.18   2
  -5   6  -1 12734.3 1204.86   2
   6  -5  -1 16772.6 1522.72   8
  -5  -1  -1 17323.4 1380.97   2
  -6   1  -1 15399.7 1624.78   1
   5  -6  -1 15520.4 1386.45   8
  -5  -1  -1 15423.7 1532.62   1
  -5   6   0 2917.65 697.958   1
   6  -1   0 3640.20 695.629   8
   5   1   0 2914.46 530.524   8
   6  -5   0 3131.17 714.809   8
   5  -6   0 2367.36 625.004   8
  -6   5   0 3623.64 924.739   1
  -5  -1   0 2349.43 657.698   1
  -1  -5   0 3386.35 574.104   1
   1  -6   0 2817.12 375.406   8
  -6   1   0 2985.68 846.757   1
  -5   6   1 16993.1 1569.56   1
   6  -5   1 14650.1 1508.05   8
  -6   1   1 14064.3 1706.17   1
   6  -1   1 15489.8 1372.11   8
   1  -6   1 14598.4 1153.53   8
  -5  -1   1 14210.6 1621.08   1
   5  -6   1 16352.5 1499.52   8
  -1  -5   1 15777.8 1558.30   1
  -6   5   1 14700.8 1770.41   1
   5   1   1 14502.2 1098.32   8
   6  -5   2 67386.6 3488.42   8
  -5  -1   2 63298.0 3907.80   1
  -5   6   2 84897.2 3664.18   1
   5  -6   2 67793.1 3442.37   8
  -1  -5   2 56998.7 3475.89   1
   5   1   2 73653.9 2816.15   8
  -6   1   2 60953.4 3885.87   1
   6  -1   2 66294.6 3111.05   8
  -6   5   2 78777.3 4313.51   1
  -6   1   3 5755.02 1550.90   1
  -5  -1   3 6058.74 1556.94   1
  -6   5   3 6195.94 1583.31   1
   6  -5   3 5046.87 1275.85   8
   5   1   3 4129.55 902.112   8
  -5   6   3 4723.35 1051.51   1
   5  -6   3 4414.07 1135.71   8
  -1  -5   3 4835.81 1089.71   1
   6  -1   3 4965.61 1010.62   8
  -1  -5   4 61431.1 4753.72   1
   6  -1   4 59531.6 4008.93   8
  -5  -1   4 58673.3 4916.17   1
  -6   1   4 54438.1 4656.62   1
  -6   5   4 56662.8 4471.20   1
   5  -6   4 52142.2 4088.52   8
   6  -5   4 58420.3 4429.38   8
   6  -5   5 14651.9 2550.72   8
   1   5   5 13392.1 1282.47   4
  -5  -1   5 21006.9 3212.24   1
   6  -1   5 16302.4 2401.96   8
  -1   6   5 13931.4 1460.27   3
   1  -6   5 13765.6 2533.82   1
  -1  -5   5 12931.5 2592.54   1
   5   1   5 12933.4 1202.00   4
   5  -6   5 15723.5 2499.72   8
  -6   1   5 15057.9 2882.37   1
   1   5   6 5393.93 844.885   4
  -1   6   7 13239.9 1234.29   4
   1   5   7 11556.6 1164.64   4
   6   0  -8 4858.65 617.163   7
   0   6  -8 6131.68 724.933   7
   6  -6  -8 6343.05 726.995   7
   6   0  -7 27110.1 1565.55   7
   6  -6  -7 23701.1 1673.42   7
   0   6  -7 28690.9 1766.34   7
   6   0  -6 6206.58 874.351   7
   6  -6  -6 6681.60 1034.58   7
  -6   6  -6 5498.40 880.760   7
   0   6  -6 6362.63 1021.28   7
  -6   6  -5 21802.9 1722.42   7
  -6   6  -5 24526.2 3200.38   2
   6   0  -5 23690.0 1612.74   7
  -6   0  -5 27817.9 3345.13   2
   0   6  -5 19540.3 1477.47   7
   6  -6  -5 24891.7 1663.38   7
  -6   6  -4 129601. 6421.35   2
  -6   0  -4 102377. 5701.92   2
  -6   6  -3 3816.45 1027.47   2
  -6   0  -3 4889.87 1143.19   2
  -6   0  -2 19633.2 1825.16   2
   6  -6  -2 17496.5 1675.34   8
  -6   6  -2 20463.8 1876.38   2
  -6   6  -1 40862.8 2352.54   2
  -6   0  -1 48377.2 2591.90   2
   6  -6  -1 46447.2 2569.15   8
  -6   0  -1 44590.5 2809.57   1
   6  -6   0 6396.34 944.178   8
   6   0   0 6114.33 815.829   8
  -6   6   0 6604.47 1070.34   1
  -6   0   0 5944.01 1201.83   1
   0  -6   0 6223.70 736.617   1
   6  -6   1 46395.9 2715.67   8
  -6   6   1 43049.4 2751.84   1
  -6   0   1 47315.5 3164.95   1
   6   0   1 46684.6 2287.25   8
   6   0   2 20520.6 1662.76   8
   6  -6   2 20726.1 2027.33   8
  -6   0   2 23165.4 2542.90   1
  -6   6   2 17700.3 1941.19   1
  -6   0   3 4389.42 1590.48   1
   6  -6   3 3527.08 1073.30   8
   6   0   3 1738.36 656.810   8
  -6   6   3 2401.55 951.942   1
   0  -6   4 113850. 6396.94   1
   6  -6   4 109481. 6030.43   8
  -6   0   4 107590. 6658.25   1
   6   0   4 122791. 5474.27   8
  -6   0   5 30292.9 4095.80   1
   6  -6   5 21712.3 3020.51   8
   0  -6   5 28197.3 3801.18   1
   6   0   5 21478.6 1481.55   4
   0   6   6 6504.18 920.709   4
   0   6   7 23706.3 1624.12   4
   4   3  -8 8377.31 763.306   7
   4  -7  -8 6080.24 670.473   7
   3  -7  -8 6005.95 641.347   7
   3   4  -8 6431.89 683.955   7
   7  -4  -8 8275.64 762.582   7
   7  -3  -8 8419.11 768.546   7
   4   3  -7 593.928 395.889   7
   3  -7  -7-535.871 446.935   7
  -4   7  -7-421.606 551.085   7
   4  -7  -7-534.825 445.273   7
  -3   7  -7-240.634 560.458   7
   3   4  -7 305.469 387.399   7
   7  -3  -7 659.538 435.673   7
   7  -4  -7-345.488 533.038   7
   7  -3  -6 1821.46 540.197   7
  -7   4  -6 1345.08 514.529   7
   7  -4  -6 1953.68 543.048   7
  -4   7  -6 1971.70 752.883   7
   3   4  -6 2200.93 603.689   7
   4   3  -6 2195.81 569.309   7
   4  -7  -6 2532.80 659.643   7
   3  -7  -6 2219.21 569.117   7
  -3   7  -6 2803.37 804.174   7
  -7   3  -5 379.591 886.590   2
   4  -7  -5-85.9104 396.254   7
   3  -7  -5 523.205 430.788   7
   7  -4  -5 475.297 423.178   7
  -4   7  -5 134.622 468.505   7
   7  -3  -5-449.379 469.708   7
  -7   4  -5-702.445 416.183   7
  -3   7  -5 219.493 496.391   7
   4   3  -5-26.7246 305.063   7
  -4   7  -5-875.996 914.772   2
   3   4  -5 407.243 410.716   7
  -4  -3  -5 1223.00 1018.27   2
  -7   4  -5 1430.64 856.712   2
  -4   7  -4 4582.52 1326.45   2
  -3  -4  -4 4021.80 1224.81   2
  -7   3  -4 4568.02 1287.49   2
  -3   7  -4 5484.08 1227.66   2
  -4  -3  -4 4082.00 1287.90   2
  -7   4  -4 4153.19 1233.72   2
  -4   7  -3 331.900 437.592   2
  -4  -3  -3 680.151 633.769   2
  -3   7  -3 439.529 400.652   2
  -7   4  -3-170.331 539.822   2
  -3  -4  -3 314.695 413.348   2
  -7   3  -3-100.507 493.392   2
  -7   4  -2 86787.2 4164.90   2
  -4   7  -2 91862.7 3664.03   2
  -3   7  -2 86244.5 3480.97   2
  -4  -3  -2 91026.2 3685.36   2
  -7   3  -2 87516.7 4200.27   2
  -3  -4  -2 78707.6 3444.02   2
   7  -3  -1 933.422 491.540   8
  -7   4  -1 662.249 434.538   1
   3  -7  -1 442.857 230.321   8
  -3  -4  -1 1037.68 374.700   1
  -3   7  -1 857.857 317.843   2
  -7   3  -1 1053.64 610.999   1
  -3  -4  -1 593.314 241.316   2
  -4  -3  -1 487.537 311.841   1
  -4  -3  -1 427.119 257.517   2
   4  -7  -1 1130.75 471.677   8
  -7   3  -1 1399.75 701.326   2
  -4   7  -1 453.267 293.066   2
   7  -4  -1 1120.38 618.299   8
  -7   4  -1 969.461 659.233   2
  -4   7   0 158344. 3593.33   2
  -3   7   0 147867. 2705.78   2
  -3  -4   0 164193. 4306.38   1
  -3  -4   0 161335. 2814.93   2
   7  -4   0 151117. 4726.50   8
   7  -3   0 148878. 4586.80   8
   3  -7   0 162859. 3772.56   8
  -4  -3   0 171368. 4889.15   1
  -4  -3   0 180031. 3813.71   2
  -7   3   0 156090. 5640.03   1
   4  -7   0 148448. 3973.20   8
  -7   4   0 156426. 5484.67   1
   4  -7   1 891.489 527.757   8
   3  -7   1 538.870 381.272   8
   7  -3   1 318.426 346.563   8
  -7   4   1 229.960 585.635   1
  -3  -4   1 828.469 550.216   1
  -7   3   1 291.890 561.796   1
   7  -4   1 455.189 442.186   8
  -4  -3   1 811.580 653.709   1
   7  -4   2 78787.4 3898.25   8
   7  -3   2 82468.9 3897.96   8
   3  -7   2 93316.3 4054.50   8
  -7   3   2 84462.4 4898.95   1
   4  -7   2 89378.6 3959.27   8
  -7   4   2 86657.5 5058.85   1
  -4  -3   2 101385. 5017.99   1
  -3  -4   2 78739.1 4320.96   1
  -3  -4   3 168.959 718.771   1
  -7   3   3 1128.32 948.145   1
   7  -3   3 16.3068 488.924   8
   7  -4   3 144.993 494.533   8
  -7   4   3 103.952 895.592   1
   4  -7   3 221.136 499.492   8
   3  -7   3-293.937 711.326   8
  -4  -3   3 446.507 762.868   1
  -7   3   4 1728.22 1341.24   1
   3  -7   4 4885.48 1380.34   8
  -7   4   4 3906.98 1295.84   1
   4  -7   4 2685.21 1142.22   8
  -4  -3   4 4134.97 1532.77   1
  -3  -4   4 3600.57 1525.26   1
   7  -4   4 4583.92 1414.81   8
   7  -3   4 5390.42 1567.04   8
  -3   7   5-204.707 431.483   3
  -4   7   5 1641.45 585.230   3
  -4  -3   5-954.390 1185.38   1
  -7   3   5 657.786 1272.60   1
   4   3   5-252.951 414.016   4
  -3  -4   5 225.599 1141.56   1
   4  -7   5-347.044 850.975   8
   7  -4   5 1494.18 1114.34   8
   3   4   5 474.835 340.229   4
   3  -7   5-286.497 660.217   8
   7  -3   5 1218.62 1091.16   8
   3   4   6 2917.97 716.274   4
   4   3   6 1973.61 577.278   4
  -3   7   7 6.02442 342.396   4
   3   4   7 32.8478 333.591   4
   7  -5  -8 2273.49 479.214   7
   2   5  -8 2205.26 468.220   7
   5   2  -8 2378.27 452.802   7
   5  -7  -8 2434.69 491.761   7
   7  -2  -8 2026.31 430.793   7
  -5   7  -7 3147.40 763.633   7
   5  -7  -7 5403.10 827.401   7
   7  -5  -7 5225.79 853.762   7
   7  -2  -7 5927.75 790.872   7
   2   5  -7 5062.11 843.155   7
   5   2  -7 4846.03 728.836   7
   2  -7  -7 4201.94 651.764   7
  -2   7  -7 5229.46 863.246   7
  -7   5  -6 9554.51 1175.94   7
   5  -7  -6 13731.5 1325.39   7
   2   5  -6 13761.0 1283.47   7
   5   2  -6 11678.5 1184.48   7
  -2   7  -6 14700.6 1392.48   7
   7  -5  -6 13507.0 1328.40   7
   2  -7  -6 12248.2 1080.00   7
  -5   7  -6 12047.0 1354.34   7
   7  -2  -6 13209.3 1280.34   7
  -5  -2  -5 15410.1 2522.79   2
  -5   7  -5 16143.3 2568.85   2
   2   5  -5 15667.8 1289.19   7
   7  -2  -5 15542.2 1329.80   7
  -7   5  -5 16611.0 2719.63   2
  -5   7  -5 15273.1 1533.63   7
  -2   7  -5 14888.5 1435.25   7
   5  -7  -5 17003.1 1409.10   7
   2  -7  -5 16482.1 1262.33   7
   7  -5  -5 16291.5 1353.31   7
  -7   5  -5 11059.9 1273.28   7
  -7   2  -5 19955.7 3029.22   2
   5   2  -5 15442.6 1253.82   7
  -5  -2  -4 9513.95 1867.35   2
  -5   7  -4 10411.9 1850.02   2
  -7   2  -4 10531.4 1919.59   2
  -7   5  -4 8896.74 1765.76   2
  -5   7  -3 6691.52 1268.20   2
  -2   7  -3 3378.84 939.143   2
  -5  -2  -3 6024.59 1196.63   2
  -7   2  -3 7812.40 1451.35   2
  -7   5  -3 6149.62 1316.93   2
  -5   7  -2 124680. 4438.83   2
  -7   2  -2 127657. 5100.32   2
  -5  -2  -2 131224. 4478.12   2
  -7   5  -2 126252. 4997.07   2
  -2   7  -2 123352. 3958.73   2
   7  -5  -1 600.073 484.567   8
  -7   5  -1 1354.84 655.635   2
   5  -7  -1 1154.96 550.453   8
  -5  -2  -1 1498.45 612.366   1
  -5   7  -1 909.112 330.503   2
  -7   2  -1 748.760 584.832   1
  -7   5  -1 1001.24 701.953   1
  -5  -2  -1 623.594 267.858   2
  -7   2  -1 1606.87 694.441   2
   7  -2  -1 1238.64 527.430   8
  -7   2   0 11259.0 1511.94   1
  -7   5   0 11959.6 1602.56   1
  -2  -5   0 11983.7 1086.13   1
   5  -7   0 11888.4 1272.83   8
   2  -7   0 10497.4 840.438   8
  -5  -2   0 10182.2 1361.19   1
   7  -5   0 12645.0 1447.73   8
   7  -2   0 11318.1 1283.91   8
   5  -7   1 828.046 413.546   8
   7  -5   1 1603.29 621.459   8
  -7   5   1 731.904 559.408   1
  -2  -5   1 676.164 464.906   1
   7  -2   1 661.394 452.819   8
   5   2   1 744.248 256.111   8
   2  -7   1 1609.58 483.235   8
  -7   2   1 2674.32 1120.07   1
  -5  -2   1 1305.20 807.254   1
  -5   7   1 1457.82 504.775   1
  -2  -5   2 135018. 5550.01   1
   7  -2   2 119757. 4513.60   8
  -5  -2   2 139574. 5950.63   1
   7  -5   2 119107. 4932.83   8
  -7   2   2 151469. 6613.37   1
   2  -7   2 142075. 4891.47   8
  -7   5   2 103676. 5397.41   1
   5  -7   2 117067. 4678.53   8
  -5   7   2 141397. 4370.81   1
  -7   2   3 6486.82 1655.68   1
  -5  -2   3 5744.98 1663.50   1
  -7   5   3 9860.46 2005.64   1
   7  -2   3 7307.41 1329.31   8
  -2  -5   3 6476.91 1564.65   1
   7  -5   3 7393.79 1502.65   8
   5  -7   3 6248.49 1327.17   8
  -7   5   4 7760.31 1947.28   1
   7  -2   4 10784.8 1976.19   8
  -2  -5   4 7773.72 2004.58   1
  -7   2   4 9756.83 2368.25   1
  -5  -2   4 11397.3 2325.73   1
   5  -7   4 7588.32 1750.09   8
   7  -5   4 9845.42 2041.06   8
   2   5   5 17333.2 1511.22   4
   5  -7   5 16436.7 2610.48   8
  -7   2   5 16191.5 3200.53   1
  -5   7   5 19517.8 1650.74   3
   7  -5   5 16408.9 2798.49   8
  -5  -2   5 21085.6 3731.39   1
  -2  -5   5 13479.8 2622.70   1
   5   2   5 16032.3 1355.53   4
   7  -2   5 19591.5 2686.17   8
  -2   7   5 18302.3 1671.52   3
   5   2   6 12991.8 1207.27   4
   2   5   6 12957.8 1267.55   4
  -2   7   7 5201.11 820.288   4
   2   5   7 5789.88 829.532   4
   7  -6  -8 3856.29 595.332   7
   6   1  -8 2271.28 424.246   7
   1   6  -8 2994.95 511.703   7
   7  -1  -8 3227.07 476.104   7
   6  -7  -8 2827.19 476.967   7
   7  -6  -7 7128.60 989.167   7
  -1   7  -7 7524.82 950.412   7
   7  -1  -7 5971.47 823.648   7
   1   6  -7 6461.06 888.337   7
   6  -7  -7 7870.16 983.709   7
   6   1  -7 6399.35 839.211   7
   7  -6  -6 8025.59 1023.95   7
   1   6  -6 8716.87 1088.04   7
  -1   7  -6 10733.8 1201.85   7
   7  -1  -6 8724.26 1016.57   7
  -6   7  -6 7898.70 1066.07   7
  -7   6  -6 7710.91 1048.40   7
   6  -7  -6 9146.71 1136.74   7
   6   1  -6 9049.52 964.366   7
   7  -1  -5 4228.93 723.329   7
  -7   1  -5 2295.87 1293.26   2
  -6   7  -5 3421.76 759.043   7
  -1   7  -5 4267.70 796.396   7
   1   6  -5 3382.21 626.414   7
  -6  -1  -5 2524.20 1135.29   2
   7  -6  -5 5006.47 896.517   7
   6  -7  -5 3475.18 753.137   7
  -6   7  -5 3947.40 1357.57   2
  -7   6  -5 1652.38 592.753   7
  -7   6  -5 4719.08 1506.36   2
   6   1  -5 4261.06 698.462   7
   7  -6  -4 64937.9 2443.14   7
  -7   6  -4 64904.6 4670.71   2
  -6   7  -4 60050.4 2464.49   7
   6  -7  -4 59820.8 2388.60   7
  -7   1  -4 61266.4 4510.49   2
  -1   7  -4 66370.9 2471.91   7
  -6  -1  -4 58376.5 4380.38   2
  -6   7  -4 64563.0 4651.78   2
  -7   1  -3 11557.1 1740.21   2
  -6  -1  -3 10660.9 1588.33   2
  -7   6  -3 9135.66 1536.71   2
  -6   7  -3 10623.0 1575.31   2
  -6   7  -2 63358.3 3379.71   2
   7  -6  -2 71296.5 3582.17   8
   6  -7  -2 65961.5 3189.62   8
  -7   1  -2 75789.1 3969.20   1
  -7   6  -2 64804.3 3557.93   2
  -6  -1  -2 75573.2 3614.70   2
  -7   1  -2 74861.3 3853.61   2
   7  -6  -1 5747.31 1043.02   8
   6  -7  -1 5643.24 976.679   8
  -7   1  -1 5047.74 1054.00   1
   7  -1  -1 4988.77 870.681   8
  -6  -1  -1 5368.19 872.224   2
  -7   6  -1 5035.36 1084.21   2
  -6  -1  -1 4304.21 902.268   1
  -7   1  -1 5204.05 1037.19   2
  -6   7  -1 4942.99 861.141   2
   7  -1   0 36518.3 2174.84   8
  -7   6   0 35554.9 2672.29   1
   6  -7   0 35466.6 2302.76   8
  -7   1   0 37766.0 2947.57   1
   7  -6   0 36893.8 2453.56   8
  -1  -6   0 33703.5 1802.14   1
  -6  -1   0 35330.6 2731.89   1
   6   1   0 37639.2 1966.27   8
  -6  -1   1 4084.74 1043.91   1
   7  -1   1 4635.77 809.215   8
  -7   1   1 3671.45 1165.03   1
   6  -7   1 5235.15 943.908   8
  -6   7   1 5142.84 995.638   1
   6   1   1 5284.75 757.931   8
   7  -6   1 4019.15 873.202   8
  -1  -6   1 4447.56 968.183   1
  -7   6   1 4063.25 1048.78   1
   1  -7   1 3179.35 574.360   8
   6   1   2 73290.2 3002.39   8
  -1  -6   2 78644.9 4270.27   1
  -7   6   2 89411.4 4787.53   1
  -7   1   2 74448.3 4848.45   1
   7  -1   2 67145.8 3298.47   8
  -6   7   2 78234.8 3745.76   1
   6  -7   2 66188.4 3727.17   8
  -6  -1   2 65939.4 4443.68   1
   7  -6   2 76691.4 4057.43   8
  -7   1   3 13036.1 2314.08   1
  -6  -1   3 8226.09 1958.27   1
  -7   6   3 11237.6 2056.20   1
   7  -6   3 11867.5 1906.62   8
   7  -1   3 11259.4 1536.07   8
  -1  -6   3 11140.2 1859.17   1
   6  -7   3 13029.0 1937.38   8
  -1  -6   4 63867.4 5026.47   1
  -1   7   4 64785.8 2751.98   3
  -6  -1   4 64766.2 5443.83   1
  -7   1   4 60754.6 5305.70   1
   7  -1   4 67393.5 4326.08   8
   1   6   4 61657.2 2682.91   3
   7  -6   4 69228.1 5055.99   8
   6  -7   4 61504.1 4630.69   8
   6   1   5 3290.58 653.989   4
   6  -7   5 5863.97 1651.73   8
   1  -7   5-191.865 893.925   1
  -1  -6   5 3190.59 1569.96   1
  -1   7   5 3713.04 814.562   3
  -6  -1   5 4164.53 1711.76   1
  -7   1   5 2761.26 1615.81   1
   7  -6   5 4721.06 1649.23   8
   1   6   5 3689.37 799.701   4
  -1   7   6 7392.78 999.375   4
   1   6   6 8986.01 1092.32   4
   1   6   7 7823.36 954.215   4
  -1   7   7 7077.86 914.883   4
   7  -7  -8 8694.28 809.396   7
   7   0  -8 7110.86 642.102   7
   7   0  -7 2651.48 570.701   7
   0   7  -7 2401.89 686.777   7
   7  -7  -7 3098.34 640.346   7
   0   7  -6 2102.54 684.920   7
   7   0  -6 3840.20 737.646   7
   7  -7  -6 2505.24 717.214   7
  -7   7  -5 1618.89 1065.10   2
  -7   0  -5 1024.40 953.824   2
   0   7  -5 1083.64 520.614   7
   7   0  -5 863.606 467.216   7
   7  -7  -5 534.732 568.568   7
  -7   7  -5 596.713 562.237   7
   0   7  -4 88880.6 2899.09   7
   7  -7  -4 92340.1 3030.15   7
  -7   7  -4 91716.0 5567.03   2
  -7   0  -4 98105.0 5725.34   2
  -7   0  -3 37507.5 2957.84   2
  -7   7  -3 36235.8 2955.67   2
  -7   7  -2 5126.42 1033.32   2
  -7   0  -2 4984.25 1097.23   1
   7  -7  -2 6145.18 1114.64   8
  -7   0  -2 5124.87 1044.94   2
  -7   0  -1 62829.2 3215.94   2
  -7   7  -1 76036.6 3470.86   2
   7  -7  -1 70405.4 3458.56   8
  -7   0  -1 66440.0 3695.77   1
  -7   7   0 57716.3 3509.76   1
   0  -7   0 55415.3 2286.08   1
  -7   0   0 56336.9 3649.37   1
   7  -7   0 54440.0 3037.15   8
   7   0   0 53525.8 2640.96   8
   0  -7   1 60041.1 3283.57   1
  -7   7   1 60451.7 3458.57   1
   7   0   1 72364.7 3127.14   8
  -7   0   1 67156.5 4233.50   1
   7  -7   1 63668.4 3358.85   8
  -7   0   2 4612.71 1364.30   1
   7  -7   2 5532.40 1216.08   8
   7   0   2 3807.50 850.829   8
  -7   7   2 3186.57 996.610   1
   7  -7   3 38566.4 3404.68   8
  -7   0   3 39236.7 4129.62   1
   0  -7   3 27089.1 3094.38   1
  -7   7   3 29747.6 2890.31   1
   7   0   3 35915.8 2594.46   8
   0  -7   4 96222.3 6172.55   1
  -7   0   4 96420.4 7123.36   1
   0   7   4 101042. 3447.53   3
   7   0   4 94465.2 3115.95   4
   7  -7   4 96864.1 6038.51   8
   0  -7   5 508.423 978.928   1
   7  -7   5 1887.74 1071.20   8
   7   0   5 1534.61 529.856   4
  -7   0   5 889.580 1438.42   1
   0   7   6 2292.02 666.955   4
   0   7   7 3375.92 673.924   4
   4  -8  -8 3128.83 458.575   7
   4   4  -8 3154.75 477.850   7
   8  -4  -8 4003.06 557.731   7
   4  -8  -7 47.3305 430.745   7
   4   4  -7-489.614 416.545   7
   8  -4  -7 71.5319 398.647   7
  -4   8  -6 5388.21 1023.58   7
   4   4  -6 7589.07 899.384   7
   8  -4  -6 5374.01 827.210   7
   4  -8  -6 6421.66 893.856   7
  -8   4  -5 54.4059 930.892   2
   8  -4  -5 443.431 465.624   7
  -4   8  -5 685.203 519.078   7
   4   4  -5 305.542 360.695   7
   4  -8  -5-2.99449 374.220   7
  -4   8  -4 21181.6 1594.37   7
   8  -4  -4 22527.6 1480.33   7
  -8   4  -4 24888.3 3027.10   2
  -4   8  -4 21179.4 2566.64   2
   4  -8  -4 23511.0 1468.53   7
  -4   8  -3 1349.59 635.160   2
  -4  -4  -3 1245.66 685.938   2
  -8   4  -3 1618.57 903.924   2
  -8   4  -2 28147.7 2594.56   2
  -4   8  -2 26768.7 2087.36   2
  -4  -4  -2 25051.9 2072.92   2
   8  -4  -1 2076.37 670.401   8
  -8   4  -1 3435.98 972.577   2
   4  -8  -1 2738.23 561.294   8
  -4   8  -1 3155.30 573.257   2
  -8   4  -1 2320.38 879.527   1
   8  -4   0 118849. 4542.32   8
  -4  -4   0 113326. 4152.96   1
  -8   4   0 122713. 5285.35   1
   8  -4   1 3097.31 810.243   8
  -8   4   1 3097.43 1014.42   1
  -4  -4   1 3148.52 922.785   1
   4  -8   1 2880.93 711.143   8
   4  -8   2 25654.6 2297.84   8
   8  -4   2 27815.1 2443.98   8
  -4  -4   2 25434.8 2659.46   1
  -8   4   2 30000.9 3221.09   1
   8  -4   3 920.249 586.802   8
   4  -8   3 31.4760 661.034   8
  -8   4   3 1543.87 1253.43   1
  -4  -4   3 1418.44 1106.65   1
  -4  -4   4 24164.2 3411.41   1
   4   4   4 28419.3 1876.86   4
  -8   4   4 17665.2 3224.01   1
   8  -4   4 25361.9 3139.16   8
  -4   8   4 26759.4 1788.50   3
   4  -8   4 19951.3 2768.36   8
  -8   4   5-1505.08 1209.92   1
   4   4   5-291.735 399.612   4
   8  -4   5-310.336 667.612   8
  -4  -4   5 1084.90 1012.80   1
  -4   8   5 480.371 509.060   3
   4   4   6 6659.83 933.497   4
   4   4   7 545.055 382.938   4
  -4   8   8 3198.60 452.909   4
   8  -5  -8 1695.30 422.708   7
   8  -3  -8 1729.64 356.264   7
   5   3  -8 2089.20 404.464   7
   3   5  -8 2126.98 417.874   7
   5  -8  -8 2286.56 437.527   7
   5   3  -7 1968.53 518.925   7
   3   5  -7 1571.30 511.738   7
   8  -3  -7 1630.13 522.271   7
   8  -5  -7 551.119 441.850   7
   5  -8  -7 1300.93 424.379   7
   3  -8  -7 1620.35 455.869   7
   5   3  -6 25240.5 1528.23   7
   8  -5  -6 23913.4 1667.43   7
   3   5  -6 26071.9 1633.50   7
  -3   8  -6 23146.4 1914.37   7
   8  -3  -6 24271.9 1639.69   7
   5  -8  -6 26558.8 1778.45   7
   3  -8  -6 22682.2 1537.95   7
  -5   8  -6 23113.6 1984.93   7
  -8   5  -5 1821.91 1233.02   2
   5   3  -5-10.0681 358.351   7
  -5   8  -5-107.449 786.231   2
  -5   8  -5-371.630 491.619   7
   3  -8  -5 804.587 389.271   7
   8  -5  -5 810.360 574.943   7
  -3   8  -5 1182.67 608.316   7
   8  -3  -5 14.2531 376.686   7
  -8   3  -5 362.954 866.797   2
   3   5  -5 467.529 363.527   7
   5  -8  -5 1386.40 556.870   7
  -3   8  -4 5345.39 826.388   7
  -5   8  -4 5326.61 1321.14   2
   8  -5  -4 4492.57 701.890   7
   3  -8  -4 5309.59 751.288   7
  -8   5  -4 5457.11 1462.60   2
  -5  -3  -4 7207.23 1578.63   2
   8  -3  -4 5489.85 796.221   7
   5  -8  -4 5108.77 818.351   7
  -5   8  -4 4624.71 839.390   7
  -8   3  -4 4743.36 1391.80   2
  -5   8  -3 491.528 489.435   2
  -5  -3  -3-99.4655 524.965   2
  -8   5  -3 280.487 559.024   2
  -8   3  -3 780.806 776.436   2
  -8   5  -2 52504.3 3451.19   2
   8  -5  -2 47872.5 3090.70   8
  -8   3  -2 53450.5 3528.45   2
  -5   8  -2 57069.5 3069.45   2
  -5  -3  -2 51704.6 2976.29   2
  -8   3  -1 44522.3 3042.64   2
  -8   5  -1 32621.9 2811.85   1
   5  -8  -1 35198.5 2114.82   8
  -5  -3  -1 31323.9 1939.62   2
  -5   8  -1 47514.3 2419.87   2
   8  -5  -1 36448.6 2586.75   8
  -5  -3  -1 31486.3 2177.66   1
  -8   5  -1 43214.0 3007.61   2
   8  -3  -1 34653.4 2447.69   8
  -8   3  -1 38643.1 3010.31   1
   8  -3   0 28014.8 2156.51   8
   8  -5   0 32220.3 2411.65   8
  -5  -3   0 27414.1 1693.81   2
  -3  -5   0 32911.9 2042.81   1
  -5   8   0 34840.7 1961.43   2
  -5  -3   0 32432.3 2409.59   1
  -8   3   0 32576.3 2795.86   1
  -8   5   0 26213.7 2547.54   1
   5  -8   0 30683.4 2039.43   8
   3  -8   0 31275.1 1679.73   8
  -8   3   1 36420.0 3196.45   1
   8  -5   1 33929.3 2541.55   8
  -5  -3   1 35183.9 2736.77   1
   8  -3   1 37430.0 2589.71   8
  -8   5   1 34105.8 3012.39   1
   5  -8   1 33204.2 2299.98   8
   3  -8   1 38302.9 2246.40   8
  -3  -5   1 40174.8 2658.39   1
   8  -3   2 48438.0 3112.64   8
  -8   5   2 54918.4 4262.66   1
  -3  -5   2 56538.6 3875.70   1
   5  -8   2 54765.4 3396.44   8
   8  -5   2 50591.2 3392.74   8
  -8   3   2 51149.7 4213.74   1
  -5  -3   2 50942.6 3878.54   1
   3  -8   2 54826.8 3243.96   8
   3  -8   3-393.699 753.890   8
  -3  -5   3-354.298 829.448   1
  -8   5   3-414.881 933.841   1
  -5  -3   3 1021.94 1213.08   1
   5  -8   3 234.398 598.717   8
  -8   3   3-1657.35 1452.34   1
   8  -5   3-94.1723 765.174   8
   8  -3   3 303.651 470.847   8
  -3   8   4 6607.12 1002.81   3
  -5   8   4 4756.72 810.589   3
   8  -3   4 5241.07 1438.27   8
  -8   3   4 1789.24 1081.11   1
   8  -5   4 6762.92 1718.44   8
   5   3   4 5642.82 879.425   4
  -3  -5   4 5474.75 1642.05   1
  -8   5   4 3211.61 1687.90   1
   3   5   4 6251.49 964.630   4
   5  -8   4 4946.26 1455.30   8
  -5  -3   4 6232.55 2082.13   1
   3  -8   4 6660.62 1534.68   8
   5  -8   5 1037.72 703.194   8
   8  -3   5 1636.02 1082.78   8
  -8   3   5-865.161 1910.26   1
  -3  -5   5 15.3398 1120.30   1
   8  -5   5 1089.63 880.024   8
   5   3   5 569.239 448.809   4
   3   5   5-170.304 439.865   4
  -5  -3   5 2859.33 1769.87   1
  -3   8   5 308.588 410.877   3
  -5   8   5 248.999 394.686   3
   3  -8   5-2567.60 1223.40   8
  -5   8   6 22798.2 1706.26   3
   5   3   6 25823.4 1729.12   4
   3   5   6 24050.2 1714.81   4
   3   5   7 2290.94 570.031   4
  -3   8   7 1663.58 504.676   4
  -3   8   8 2217.98 377.694   4
  -8   6  -8 1917.76 364.182   5
   8  -6  -8 2869.41 485.548   7
   6  -8  -8 2820.74 447.058   7
   6   2  -8 3330.38 462.009   7
   8  -2  -8 2274.34 400.295   7
   2   6  -7 257.296 374.092   7
   8  -2  -7 595.276 421.746   7
   6  -8  -7-505.905 533.603   7
   6   2  -7-186.602 357.629   7
   8  -6  -7-88.5000 492.618   7
   8  -6  -6 11517.0 1239.73   7
   8  -2  -6 13628.4 1209.78   7
   2   6  -6 12217.4 1154.32   7
   6   2  -6 9623.63 995.797   7
   2  -8  -6 10064.4 962.485   7
   6  -8  -6 11770.5 1258.31   7
  -2   8  -6 11477.9 1335.63   7
  -8   6  -5 904.642 726.448   2
  -6   8  -5 1974.20 717.795   7
  -6  -2  -5 2637.94 1325.54   2
  -8   2  -5 1704.22 829.324   2
  -2   8  -5 3049.79 767.289   7
   2   6  -5 2782.00 615.512   7
  -6   8  -5 3609.41 1281.88   2
   6   2  -5 2534.89 575.791   7
   8  -2  -5 1726.25 524.704   7
   8  -6  -5 3308.38 761.503   7
   2  -8  -5 3331.61 605.162   7
   6  -8  -5 2465.49 721.724   7
  -8   2  -4 49670.3 4228.16   2
  -6   8  -4 54219.8 4299.34   2
  -6  -2  -4 54695.7 4236.04   2
  -2   8  -4 49792.2 2266.20   7
   6  -8  -4 47633.6 2235.51   7
   8  -2  -4 49148.6 2114.07   7
  -6   8  -4 39436.1 2230.42   7
   8  -6  -4 48628.5 2172.43   7
  -8   6  -4 52661.3 4300.17   2
  -6  -2  -3 1386.18 690.378   2
  -8   6  -3 1081.75 812.961   2
  -8   2  -3 1686.95 786.693   2
  -6   8  -3 847.114 461.592   2
  -6   8  -2 26987.0 2231.43   2
  -8   2  -2 32277.3 2856.12   1
   8  -6  -2 30605.0 2548.20   8
  -8   2  -2 31531.1 2730.69   2
  -8   6  -2 27982.9 2538.41   2
  -6  -2  -2 25102.2 2114.50   2
  -8   2  -1 57140.2 3667.68   1
  -8   2  -1 58812.0 3464.52   2
  -8   6  -1 49363.9 3452.88   1
  -8   6  -1 48762.0 3115.04   2
   8  -6  -1 46742.8 2989.67   8
   6  -8  -1 55113.5 2881.90   8
  -6  -2  -1 53562.3 3116.08   1
  -6  -2  -1 54876.2 2713.13   2
  -6   8  -1 51574.6 2693.57   2
   8  -2  -1 52043.5 2959.27   8
  -2  -6   0 11608.1 1163.95   1
  -6   8   0 10717.5 1227.27   2
  -8   6   0 12747.9 1784.21   1
   8  -6   0 10169.1 1419.69   8
  -6  -2   0 8024.92 1342.67   1
   6  -8   0 10804.7 1328.51   8
   8  -2   0 8949.44 1204.66   8
  -8   2   0 12464.4 1791.75   1
   8  -6   1 51506.3 3173.04   8
  -6  -2   1 54660.7 3632.88   1
  -2  -6   1 51882.7 3022.55   1
   2  -8   1 49961.7 2424.22   8
   6  -8   1 48419.0 2901.97   8
  -8   2   1 50901.2 3905.21   1
   8  -2   1 49554.1 2936.04   8
  -8   6   1 58826.0 3830.67   1
   2  -8   2 28069.6 2308.73   8
  -2  -6   2 29795.2 2849.38   1
   8  -6   2 29882.8 2641.33   8
  -8   2   2 27139.1 3281.44   1
   6  -8   2 31238.0 2715.44   8
  -6  -2   2 27465.3 2989.80   1
   8  -2   2 27900.9 2298.96   8
  -8   6   2 34262.7 3305.14   1
  -8   2   3 1644.76 980.860   1
  -8   6   3 2626.57 1286.22   1
  -6  -2   3 1756.57 1291.97   1
   8  -6   3 1542.83 880.345   8
   8  -2   3 1595.53 846.467   8
   2  -8   3 2327.30 954.683   8
  -2  -6   3 638.890 791.168   1
   6  -8   3 1259.40 786.127   8
  -2   8   4 50490.0 2501.21   3
   6  -8   4 44810.7 4166.29   8
  -6  -2   4 50647.9 5069.31   1
  -2  -6   4 58743.9 5047.17   1
   2  -8   4 45196.3 3995.28   8
   6   2   4 46603.0 2412.79   6
   6   2   4 47559.5 2371.83   4
   8  -2   4 55155.0 4192.21   8
  -8   2   4 46589.6 5031.04   1
  -8   6   4 46508.0 4596.93   1
   2   6   4 53425.5 2550.32   4
  -6   8   4 52079.5 2487.09   3
   8  -6   4 52554.4 4633.34   8
  -6   8   5 3011.03 732.829   3
   8  -6   5 1746.30 935.932   8
  -6  -2   5 2112.37 1221.80   1
   2  -8   5 2008.36 1004.73   8
  -2  -6   5 2434.07 1459.14   1
   6   2   5 2043.83 620.228   4
   2   6   5 2496.93 673.841   4
  -8   2   5 3292.60 2103.05   1
   6  -8   5 3187.57 1492.35   8
   2  -8   5 866.982 994.791   1
  -2   8   5 2592.16 740.121   3
   2   6   6 11832.0 1253.73   4
   6   2   6 10331.9 1064.20   4
   2   6   7 23.2991 330.250   4
  -2   8   7-265.235 350.849   4
  -2   8   8 2129.71 369.059   4
   8  -7  -8 6231.97 637.685   7
   7   1  -8 6794.90 577.629   7
   8  -1  -8 6183.58 575.356   7
   7  -8  -8 6402.42 650.683   7
   1   7  -7-224.404 370.974   7
   7   1  -7 517.007 358.285   7
   8  -1  -7 901.359 413.084   7
   7  -8  -7-164.532 547.333   7
   8  -7  -7 523.828 415.309   7
   8  -1  -6 6054.36 877.522   7
  -1   8  -6 4897.26 912.038   7
   7   1  -6 5498.94 788.881   7
   8  -7  -6 6015.09 954.131   7
   1   7  -6 4665.19 837.659   7
   7  -8  -6 6547.61 998.837   7
  -8   7  -5 508.336 840.686   2
  -8   1  -5-578.775 638.387   2
  -7   8  -5 285.026 1056.59   2
  -7  -1  -5 582.793 921.253   2
   7  -8  -5 824.602 569.896   7
  -1   8  -5-394.794 474.552   7
   1   7  -5 385.346 492.331   7
   7   1  -5 542.820 425.596   7
   8  -1  -5-77.0934 341.856   7
   8  -7  -5 251.696 531.948   7
  -1   8  -4 34629.7 1900.56   7
   1   7  -4 34215.1 1844.34   7
   8  -7  -4 36654.2 1922.17   7
   7  -8  -4 35367.2 1942.90   7
  -8   7  -4 31240.2 3338.94   2
  -8   1  -4 36210.6 3553.53   2
  -7   8  -4 25721.9 3019.09   2
  -7  -1  -4 28738.9 3246.15   2
  -8   1  -3 1157.69 781.526   2
  -8   7  -3 806.680 617.950   2
  -7   8  -3 492.032 670.969   2
  -7  -1  -3 794.650 442.462   2
  -8   7  -2 10825.7 1602.75   2
  -8   1  -2 9698.37 1592.72   1
  -7  -1  -2 10818.5 1538.05   1
   7  -8  -2 8171.70 1291.68   8
  -7   8  -2 9547.87 1396.13   2
  -8   1  -2 11503.1 1650.72   2
  -7  -1  -2 10851.8 1472.39   2
   8  -7  -2 9988.75 1471.24   8
   8  -7  -1 1294.22 699.350   8
  -7  -1  -1 1782.26 660.511   1
  -8   1  -1 1569.82 707.921   2
  -7  -1  -1 1580.06 606.637   2
  -8   1  -1 1652.58 773.079   1
   7  -8  -1 1012.70 645.082   8
   8  -1  -1 1455.00 584.587   8
  -7   8  -1 912.081 550.032   2
  -8   7  -1 942.104 517.312   2
  -8   7   0 90180.6 4702.00   1
  -7  -1   0 101376. 4987.32   1
   8  -7   0 94820.9 4276.66   8
   7  -8   0 92179.0 4093.26   8
  -8   1   0 101180. 5191.59   1
   7   1   0 100868. 3504.62   8
   8  -1   0 98120.0 3905.91   8
  -8   7   1 742.191 575.350   1
   8  -7   1 1512.10 768.979   8
  -7  -1   1 520.272 680.226   1
  -8   1   1 2090.20 1128.88   1
   7  -8   1 759.287 453.339   8
   8  -1   1 536.196 523.601   8
  -1  -7   1 512.975 448.495   1
   7   1   1 827.887 426.443   8
  -7   8   1 24.0589 422.228   1
  -1  -7   2 9731.62 1564.14   1
   8  -1   2 11440.8 1447.67   8
  -7  -1   2 9098.33 1944.75   1
  -8   1   2 10577.9 2079.86   1
   8  -7   2 9563.30 1622.54   8
   1  -8   2 11437.7 1468.10   8
  -8   7   2 9285.84 1699.57   1
  -7   8   2 7864.98 1305.11   1
   7  -8   2 9599.78 1599.53   8
  -1  -7   3-228.122 884.994   1
  -8   1   3 621.427 942.382   1
  -8   7   3-298.300 691.583   1
   8  -7   3 1017.81 863.163   8
   7  -8   3 1303.25 901.946   8
   8  -1   3 898.878 625.930   8
  -7  -1   3-791.036 1279.62   1
   1   7   4 33652.7 2059.81   4
   1  -8   4 29272.4 3370.56   1
  -1  -7   4 34421.7 3834.32   1
   8  -1   4 30744.8 1849.25   4
  -7  -1   4 35612.9 4603.90   1
   7  -8   4 36178.8 3784.33   8
  -8   1   4 32096.0 4316.73   1
  -7   8   4 32981.1 2002.43   3
   1   7   4 35337.6 2046.61   3
  -1   8   4 34504.8 2104.66   3
   8  -7   4 41100.5 4161.28   8
   7   1   4 33236.0 1977.31   4
  -1   8   5-130.793 496.102   3
   7   1   5 212.632 323.004   4
  -8   1   5-1074.05 1520.73   1
   1  -8   5-843.893 1041.92   1
   1  -8   5-807.143 1119.70   8
   8  -7   5 1002.53 828.045   8
   1   7   5-520.667 462.119   4
   7  -8   5-121.777 754.188   8
  -1  -7   5 851.541 982.375   1
  -7  -1   5 1371.31 1313.31   1
   1   7   6 5848.54 932.264   4
  -1   8   6 4708.28 848.475   4
   7   1   6 6392.10 831.885   4
   1   7   7 821.669 370.277   4
  -1   8   7 1032.11 434.436   4
  -1   8   8 5162.53 519.050   4
   8  -8  -8 5825.24 573.629   7
  -8   8  -7 336.491 275.791   5
   8   0  -7 404.934 296.054   7
   8   0  -6 2402.52 597.459   7
   8  -8  -6 3079.28 727.493   7
   0   8  -6 1996.62 628.950   7
   0   8  -5 1455.10 608.838   7
   8  -8  -5 1328.92 598.553   7
   8  -8  -4 24422.0 1660.64   7
  -8   0  -4 19834.8 2672.62   2
   0   8  -4 23476.9 1644.24   7
  -8   8  -3 12629.4 1873.92   2
  -8   0  -3 13958.0 1910.64   2
  -8   0  -2 64913.3 3916.02   1
   8  -8  -2 69513.0 3875.12   8
  -8   8  -2 59177.1 3630.72   2
  -8   0  -2 66562.5 3868.27   2
  -8   0  -1 1602.50 670.528   1
  -8   0  -1 1136.91 602.462   2
  -8   8  -1 1165.44 595.832   2
   8  -8  -1 1767.21 742.695   8
   8   0   0 15231.2 1539.45   8
  -8   0   0 20217.3 2380.56   1
   8  -8   0 16802.2 1904.70   8
  -8   8   1 860.109 790.470   1
   8  -8   1 1347.13 724.282   8
   0  -8   1 1430.84 564.771   1
   8   0   1 1105.93 530.462   8
  -8   0   1 2844.43 1313.55   1
  -8   8   2 73376.4 4332.62   1
   0  -8   2 70706.8 4612.74   1
   8  -8   2 58152.4 3948.52   8
   8   0   2 72013.1 3587.38   8
  -8   0   2 68736.4 5282.31   1
  -8   0   3 16015.2 3104.37   1
   0  -8   3 14360.0 2387.22   1
   8  -8   3 13287.9 2203.31   8
   0  -8   4 18525.4 2933.04   1
   8  -8   4 23315.3 3181.01   8
  -8   0   4 17812.8 3753.01   1
   0   8   4 23834.1 1757.27   3
   8   0   4 19657.5 1527.60   4
  -8   8   4 21927.4 1625.09   3
   8   0   5 1956.00 557.017   4
   0   8   5 1583.33 558.338   4
   0   8   6 2974.69 707.988   4
   0   8   7 561.983 378.006   4
   0   8   8 4211.63 443.521   4
  -9   5  -8 2202.82 392.144   5
   9  -4  -8 2279.63 399.484   7
   9  -5  -8 1509.74 355.463   7
   5  -9  -8 1523.14 335.298   7
   5  -9  -7 3186.43 575.441   7
   4   5  -7 3079.78 557.810   7
   5   4  -7 4084.42 633.310   7
   9  -4  -7 3626.20 635.717   7
   4  -9  -7 2498.31 543.941   7
   9  -5  -7 2866.39 594.804   7
   5   4  -6 23736.0 1435.51   7
   4   5  -6 30896.1 1663.18   7
   9  -4  -6 27526.4 1774.20   7
   9  -5  -6 28027.8 1758.73   7
   5  -9  -6 29622.4 1777.73   7
   4  -9  -6 24893.6 1609.20   7
  -4   9  -5 4104.95 945.545   7
   5  -9  -5 4827.88 884.057   7
   9  -4  -5 5958.71 890.916   7
   9  -5  -5 6073.60 915.180   7
   4  -9  -5 5615.49 865.966   7
   9  -5  -4 22589.1 1531.36   7
  -9   4  -4 25993.4 3195.40   2
   4  -9  -4 22342.9 1436.28   7
  -9   5  -4 26429.9 3252.69   2
   9  -4  -4 24299.0 1575.17   7
   5  -9  -4 24813.8 1582.64   7
  -9   4  -3 3215.20 1253.03   2
  -9   5  -3 3373.90 1298.46   2
  -9   4  -2 7913.61 1479.75   2
  -9   5  -2 6711.51 1388.53   2
   9  -5  -1 19054.9 2018.19   8
  -9   4  -1 20065.1 2336.20   1
  -9   5  -1 19626.5 2404.02   1
  -9   4  -1 24827.8 2425.17   2
  -9   5  -1 25098.4 2460.41   2
   5  -9  -1 21878.0 1679.34   8
   9  -4  -1 21900.5 2100.66   8
   5  -9   0 70481.0 3139.31   8
   4  -9   0 76953.8 2943.79   8
   9  -5   0 76020.2 3975.11   8
  -9   5   0 65077.2 4128.86   1
   9  -4   0 76565.5 3923.16   8
  -4  -5   0 71601.6 3493.20   1
  -5  -4   0 76328.5 3895.28   1
  -9   4   0 80880.2 4613.51   1
   9  -4   1 20552.4 2148.15   8
   4  -9   1 21553.9 1856.31   8
  -9   5   1 16679.9 2350.69   1
  -4  -5   1 20693.9 2083.03   1
  -5  -4   1 22066.4 2268.12   1
   5  -9   1 19584.2 1820.00   8
  -9   4   1 17353.5 2397.79   1
   9  -5   1 20345.3 2127.17   8
   4  -9   2 9791.17 1519.41   8
   5  -9   2 8412.21 1485.48   8
  -4  -5   2 8078.67 1600.04   1
  -9   4   2 8483.64 1907.56   1
  -5  -4   2 7398.72 1696.37   1
  -9   5   2 9843.50 2128.46   1
   9  -5   2 7181.65 1367.76   8
   9  -4   2 10318.9 1613.99   8
   9  -5   3 3259.91 1126.05   8
   4  -9   3 2849.46 1104.54   8
   5  -9   3 3547.66 1141.01   8
  -9   4   3 1950.48 1494.97   1
  -4  -5   3 1918.09 1282.01   1
  -9   5   3 2322.98 1219.70   1
  -5  -4   3 3310.85 1461.94   1
   9  -4   3 3293.96 1103.70   8
  -5  -4   4 22290.6 3588.01   1
   9  -5   4 24773.2 3283.96   8
   9  -4   4 24714.5 3130.21   8
  -9   5   4 22776.5 3664.88   1
  -4  -5   4 22048.1 3413.33   1
   4  -9   4 22231.9 2948.69   8
   4   5   4 25829.0 1873.10   4
  -9   4   4 25000.9 3945.79   1
   5  -9   4 23801.6 3167.34   8
   5   4   4 24594.6 1842.08   4
  -4   9   4 23846.2 1759.22   3
  -5   9   4 22228.5 1693.48   3
   4   5   5 5763.49 933.341   4
   9  -4   5 6129.51 1709.96   8
  -4   9   5 6483.79 999.188   3
   5   4   5 5954.24 946.089   6
  -9   4   5 6184.65 2429.58   1
   5  -9   5 5806.47 1752.17   8
   4  -9   5 6922.21 2086.20   8
   9  -5   5 7053.42 2034.06   8
   5   4   5 6460.00 983.138   4
  -5   9   5 6965.03 1051.18   3
   5   4   6 25058.5 1738.19   4
   4   5   6 28325.8 1829.86   4
  -5   9   6 25679.2 1808.72   3
   5   4   6 27169.2 1711.19   6
   4   5   6 25069.0 1709.13   6
  -4   9   7 2921.32 642.750   4
   5   4   7 3468.00 616.138   4
   4   5   7 2907.53 593.966   4
  -5   9   8 1941.84 341.656   4
  -4   9   8 1797.53 320.433   4
  -9   6  -8 1069.68 262.348   5
   9  -3  -8 1744.25 323.817   7
   6  -9  -8 1614.62 331.011   7
   9  -6  -8 1448.42 325.436   7
   6   3  -7 5647.60 693.554   7
   9  -3  -7 5256.12 707.604   7
   3   6  -7 3505.13 627.316   7
   6  -9  -7 4438.27 681.444   7
   9  -6  -7 4076.32 649.578   7
   3  -9  -6 28954.9 1616.53   7
   6   3  -6 33443.1 1697.26   7
   3   6  -6 33472.0 1792.40   7
   9  -6  -6 33316.9 1949.43   7
   9  -3  -6 28854.1 1732.91   7
   6  -9  -6 31538.7 1909.43   7
   6  -9  -5 480.813 466.872   7
  -3   9  -5-231.387 532.342   7
   3   6  -5-77.5713 354.840   7
   9  -3  -5 859.559 460.876   7
   3  -9  -5 698.118 458.147   7
   9  -6  -5 330.317 511.580   7
   3  -9  -4 15735.4 1152.42   7
  -3   9  -4 20950.4 1592.49   7
   6  -9  -4 18399.1 1422.43   7
  -9   6  -4 18315.0 2724.92   2
  -9   3  -4 18133.9 2699.77   2
   9  -3  -4 18668.0 1347.72   7
   9  -6  -4 15612.7 1296.20   7
  -6   9  -3 9157.20 1544.79   2
  -9   6  -3 9460.27 1760.14   2
  -9   3  -3 11486.4 2011.20   2
  -6  -3  -2 9800.51 1434.09   2
   9  -6  -2 9621.09 1544.72   8
  -9   3  -2 10452.8 1721.68   2
  -9   6  -2 10423.6 1713.18   2
  -6   9  -2 9276.18 1371.31   2
  -6  -3  -1 62012.1 3343.95   1
  -9   3  -1 60874.0 4043.53   1
   9  -6  -1 60260.7 3575.97   8
  -9   6  -1 65173.0 3923.33   2
  -9   6  -1 55513.1 3867.46   1
   9  -3  -1 59349.3 3435.07   8
  -6  -3  -1 55990.7 2869.38   2
  -6   9  -1 73227.7 3275.39   2
  -9   3  -1 62973.4 3865.72   2
   6  -9  -1 50227.0 2815.05   8
  -9   6   0 69416.9 4248.05   1
  -6   9   0 66954.7 2950.01   2
   9  -3   0 66176.7 3582.52   8
   6  -9   0 57120.8 3014.96   8
  -6  -3   0 59876.8 2781.24   2
  -6  -3   0 67299.2 3911.88   1
  -9   3   0 56159.2 3935.70   1
   9  -6   0 63656.7 3708.02   8
  -9   6   1 66048.6 4377.65   1
   9  -6   1 61234.8 3698.76   8
   6  -9   1 57544.1 3229.88   8
  -3  -6   1 61126.4 3451.23   1
  -6  -3   1 51410.2 3727.47   1
   3  -9   1 52435.9 2670.59   8
  -9   3   1 51476.7 4108.28   1
   9  -3   1 64264.5 3673.83   8
   9  -6   2 10149.3 1647.73   8
   6  -9   2 11123.3 1746.70   8
  -9   6   2 11026.2 2133.94   1
  -3  -6   2 11605.6 1809.52   1
   3  -9   2 11184.5 1627.12   8
   9  -3   2 9359.34 1481.70   8
  -9   3   2 10359.2 2203.30   1
  -6  -3   2 10216.9 2005.21   1
   9  -3   3 7828.72 1584.86   8
  -9   6   3 10047.2 2314.77   1
   9  -6   3 9855.31 1917.14   8
   3  -9   3 9899.18 1774.39   8
  -9   3   3 6754.11 1967.87   1
  -3  -6   3 9585.98 2032.42   1
  -6  -3   3 7798.02 1829.18   1
   6  -9   3 11199.8 2008.63   8
  -9   3   4 14261.7 3201.22   1
  -3  -6   4 17529.2 3034.18   1
   9  -3   4 20263.8 2679.18   8
  -6   9   4 16069.2 1454.08   3
   9  -6   4 18246.6 2831.97   8
   6  -9   4 19072.4 2875.65   8
   6   3   4 17379.8 1528.57   6
  -6  -3   4 14635.5 3037.31   1
   6   3   4 17493.3 1564.01   4
   3   6   4 21632.5 1707.98   4
  -9   6   4 19219.3 3230.59   1
  -3   9   4 16591.6 1490.18   3
   3  -9   4 15161.3 2387.15   8
  -3   9   5 391.704 432.485   3
   6   3   5 384.565 445.869   6
  -6   9   5-478.652 513.093   3
   6   3   5 604.370 421.329   4
   3   6   5 11.0497 474.873   4
   6   3   6 30351.4 1880.83   4
   3   6   6 32407.2 1970.82   4
  -6   9   6 33348.2 1973.36   3
   6   3   7 4309.84 629.336   4
   3   6   7 5499.94 767.530   4
   3   6   7 4225.79 626.457   6
  -3   9   7 4405.16 718.732   4
  -3   9   8 1145.86 263.076   4
   9  -2  -8 1811.13 314.605   7
   9  -7  -8 2148.52 379.468   7
   7  -9  -8 1495.07 334.600   7
   7   2  -7 1422.52 414.349   7
   9  -2  -7 1309.51 427.278   7
   7  -9  -7 375.301 392.561   7
   9  -7  -7 562.352 377.274   7
   2   7  -6 10617.0 1108.67   7
   9  -2  -6 12279.8 1142.92   7
   9  -7  -6 13559.4 1283.45   7
   7  -9  -6 13347.0 1377.65   7
  -2   9  -5 957.400 642.445   7
   2   7  -5 1211.59 482.980   7
   9  -2  -5-47.4108 394.996   7
   9  -7  -5 1405.21 643.850   7
   7  -9  -5 1789.13 642.700   7
   9  -7  -4 27145.2 1695.17   7
  -2   9  -4 35900.8 2015.84   7
   7  -9  -4 31587.3 1902.10   7
  -9   7  -4 26107.4 3173.71   2
  -9   2  -4 28661.0 3363.19   2
  -7  -2  -4 35761.2 3579.07   2
  -7   9  -4 23016.0 2880.29   2
   7  -9  -3 1845.47 478.253   7
  -9   7  -3 2717.75 1115.30   2
  -9   2  -3 2006.15 948.789   2
  -7   9  -3 1068.70 674.780   2
  -7  -2  -3 1859.95 837.372   2
  -9   2  -2 36026.5 3186.51   1
  -9   2  -2 35798.0 3095.76   2
  -9   7  -2 29310.3 2801.62   2
   9  -7  -2 32959.1 2848.89   8
  -7   9  -2 30035.2 2533.22   2
  -7  -2  -2 29168.7 2429.29   2
   7  -9  -1 1350.47 641.898   8
  -9   2  -1 961.605 714.347   1
   9  -2  -1 1800.11 752.158   8
   9  -7  -1 1115.93 762.681   8
  -7  -2  -1 1819.53 689.691   1
  -9   2  -1 1693.21 808.522   2
  -9   7  -1 470.773 484.605   2
  -7  -2  -1 975.318 542.173   2
  -7   9  -1 886.549 383.134   2
  -9   7   0 10489.3 1781.81   1
  -9   2   0 7913.33 1606.28   1
  -7  -2   0 9382.10 1558.33   1
  -7  -2   0 8356.48 1240.62   2
   9  -7   0 9377.42 1488.49   8
   9  -2   0 10275.7 1430.20   8
  -7   9   0 8192.02 1228.40   2
   7  -9   0 9981.96 1392.96   8
  -9   7   1 1162.90 832.338   1
  -7  -2   1 1717.99 839.427   1
   9  -2   1 1451.51 719.465   8
   9  -7   1 1286.09 752.838   8
  -2  -7   1 1073.21 553.382   1
  -9   2   1 1045.21 936.866   1
   7  -9   1 1453.77 743.552   8
   2  -9   2 34693.6 2714.05   8
   9  -2   2 30897.4 2643.99   8
   7  -9   2 27760.0 2719.77   8
   9  -7   2 29336.0 2809.86   8
  -9   2   2 33202.9 3828.25   1
  -2  -7   2 32348.4 3067.85   1
  -9   7   2 36801.2 3600.32   1
  -7  -2   2 32273.7 3617.92   1
   2   7   3 2413.71 483.191   3
  -2   9   3 2211.91 568.339   3
  -9   7   3 2997.33 1033.92   1
  -9   2   3 882.145 1219.11   1
   7  -9   3 2674.30 1113.26   8
  -2  -7   3 2989.88 1435.13   1
   2  -9   3 497.567 476.186   8
   9  -2   3 2199.28 794.603   8
   7   2   3 1653.66 528.110   4
   2   7   3 1529.52 458.497   4
  -7  -2   3 2358.60 1349.87   1
   9  -7   3 2184.35 962.496   8
  -2  -7   4 34546.3 4123.42   1
   7  -9   4 32558.5 3708.63   8
   9  -2   4 28075.2 1803.31   4
   2  -9   4 20045.2 2593.82   8
   7   2   4 29503.6 2002.66   4
  -7  -2   4 28061.2 4230.40   1
   2   7   4 30886.1 2019.64   4
  -9   2   4 29823.4 4423.85   1
   9  -7   4 29697.5 3692.04   8
  -2   9   4 28457.6 1970.17   3
  -7   9   4 27351.0 1847.88   3
   7   2   4 27328.5 1832.86   6
  -2   9   5 1553.31 598.114   3
   2   7   5 599.588 495.577   4
   7   2   5 720.122 509.862   4
  -7   9   5 1731.81 671.365   3
   7   2   6 12659.7 1187.04   4
   2   7   6 12229.1 1240.72   4
  -2   9   6 12066.8 1308.26   4
  -2   9   7 1644.00 492.124   4
   2   7   7 581.985 369.196   6
   2   7   7 1736.33 535.403   4
  -2   9   8 2521.91 361.779   4
   9  -8  -8 4371.89 496.099   7
   8  -9  -8 3813.75 455.091   7
  -9   8  -7 200.609 290.686   5
   9  -1  -7-77.3269 258.750   7
   9  -8  -7-591.327 486.461   7
   8  -9  -7-327.936 431.821   7
  -8   9  -6 1277.06 504.667   5
   1   8  -6 1350.25 522.384   7
   9  -1  -6 1833.46 537.904   7
   9  -8  -6 2185.39 662.291   7
   8  -9  -6 2003.38 703.575   7
   9  -8  -5 269.502 556.990   7
  -1   9  -5-126.385 457.139   7
   1   8  -5-146.766 425.630   7
   8  -9  -5-890.462 625.481   7
   1   8  -4 23904.7 1648.30   7
   9  -8  -4 25424.6 1669.94   7
   8  -9  -4 22592.7 1654.57   7
  -9   8  -4 17423.2 2549.53   2
  -9   1  -4 20631.6 2785.07   2
  -8   9  -4 17656.3 2591.93   2
  -8  -1  -4 22389.3 2920.03   2
   8  -9  -3 1822.75 618.881   7
  -8   9  -3 954.592 365.167   5
  -9   1  -3 1573.88 951.301   2
   9  -8  -3 1546.77 588.298   7
  -9   8  -3 1302.29 735.569   2
  -8   9  -3 1459.43 697.443   2
  -8  -1  -3 1646.21 705.664   2
  -9   1  -2 31447.1 2937.16   1
   8  -9  -2 27893.3 2478.49   8
   9  -8  -2 29722.2 2732.16   8
  -9   8  -2 29445.9 2725.35   2
  -9   1  -2 30211.4 2824.93   2
  -8   9  -2 24363.8 2364.69   2
  -8  -1  -2 28454.4 2517.64   2
  -9   1  -1 338.592 663.975   1
   9  -8  -1 315.768 630.827   8
   8  -9  -1-55.0723 406.364   8
  -9   1  -1 59.8343 483.237   2
  -9   8  -1-84.0928 435.221   2
  -8  -1  -1 123.627 390.122   2
  -8   9  -1 105.404 344.006   2
  -8  -1  -1-488.946 559.013   1
  -9   8   0 39381.1 3266.30   1
   9  -1   0 40167.5 2783.91   8
   9  -8   0 34440.3 2835.88   8
  -8   9   0 36606.2 2664.50   2
  -9   1   0 42835.0 3647.22   1
  -8  -1   0 41377.6 3451.97   1
  -8  -1   0 47156.9 3160.53   2
   8  -9   0 34335.7 2695.78   8
   1  -9   1-161.195 377.943   1
   9  -8   1 200.429 604.067   8
   9  -1   1 62.7727 357.870   8
  -8  -1   1 719.954 950.731   1
  -9   8   1 1092.44 728.902   1
  -1  -8   1-184.656 543.890   1
   8  -9   1 437.288 501.079   8
  -9   1   1 680.460 848.193   1
  -8   9   1-230.042 384.351   1
   9  -1   2 31011.4 2587.57   8
  -1  -8   2 30671.0 3084.46   1
   9  -8   2 25903.7 2710.38   8
  -8  -1   2 26414.7 3429.79   1
  -9   1   2 27049.2 3541.30   1
  -9   8   2 27074.6 2936.73   1
   8  -9   2 26665.2 2739.20   8
   1   8   3 1312.37 457.162   3
   8   1   3 1600.60 531.767   6
  -1   9   3 2084.65 676.341   3
  -8  -1   3 1079.31 1213.33   1
   1  -9   3-311.285 978.600   1
  -8   9   3 175.824 439.317   3
  -9   8   3 1988.10 540.263   3
  -9   1   3 638.770 1471.14   1
  -1  -8   3 199.616 954.172   1
   9  -8   3 2383.75 1159.75   8
   8  -9   3 1109.62 728.514   8
   9  -1   3 1190.78 509.826   4
   8   1   3 1100.74 463.110   4
   1   8   3 1877.95 533.250   4
  -8  -1   4 17275.7 3503.02   1
   8   1   4 22251.5 1589.56   6
   1  -9   4 18286.2 2885.06   1
  -9   1   4 19729.2 3931.53   1
   8  -9   4 21309.1 3112.21   8
  -1  -8   4 21678.1 3350.39   1
   9  -8   4 27609.1 3637.27   8
   8   1   4 22925.8 1739.94   4
   1   8   4 24221.3 1830.58   4
   9  -1   4 20797.2 1587.91   4
   1   8   4 20206.9 1643.29   3
  -1   9   4 24181.7 1796.72   3
  -8   9   4 22743.1 1691.85   3
   9  -1   5 222.188 351.015   4
  -8   9   5-84.8352 387.018   3
   8   1   5 395.119 383.377   4
   1   8   5 78.3755 486.537   4
  -1   9   5 509.801 554.825   4
  -1   9   6 1787.88 606.813   4
   8   1   6 1387.85 450.658   4
   1   8   6 1620.55 588.946   4
   1   8   7 158.372 313.298   4
  -1   9   7 312.437 329.402   4
   9  -9  -8 2676.03 353.064   7
  -9   9  -7 25.0779 221.048   5
   9  -9  -7-844.387 477.529   7
  -9   9  -6 988.756 512.312   5
   9  -9  -6 1780.56 681.981   7
   9  -9  -5 1216.57 642.113   7
  -9   9  -4 3064.52 1116.74   2
  -9   0  -4 2343.17 1068.42   2
  -9   9  -4 1905.60 555.607   5
   9  -9  -4 2057.44 626.806   7
  -9   9  -3 7048.63 926.246   5
   9  -9  -3 7788.33 982.700   7
  -9   9  -3 6168.48 1431.83   2
  -9   0  -3 6493.12 1393.01   2
  -9   9  -2 84265.3 4678.32   2
  -9   0  -2 91190.8 4847.61   2
   9  -9  -2 83334.4 4565.76   8
  -9   0  -1 14347.6 2003.46   1
   9  -9  -1 12592.8 1808.38   8
  -9   0  -1 13519.4 1729.91   2
  -9   9  -1 14109.0 1779.29   2
   9   0   0 35778.4 2510.71   8
  -9   0   0 36579.8 3096.26   2
  -9   0   0 32894.2 3307.47   1
  -9   9   0 30987.6 2674.04   2
   9  -9   0 29792.1 2672.73   8
   9  -9   1 15684.0 2037.13   8
  -9   9   1 13123.4 1857.75   1
  -9   0   1 13670.9 2334.23   1
  -9   9   2 97840.6 5238.44   1
   9  -9   2 87660.6 5032.52   8
  -9   0   2 89012.1 6591.42   1
   0   9   3 8191.34 1034.49   3
  -9   0   3 8592.99 2485.36   1
   9  -9   3 6631.94 1670.02   8
   0  -9   3 3810.25 1459.62   1
   9   0   3 7804.59 1011.83   4
   0   9   3 6567.34 1013.57   4
   9   0   3 7970.91 957.062   6
  -9   9   3 8392.91 987.478   3
   0   9   4 2917.15 771.506   3
  -9   9   4 2217.37 634.631   3
  -9   0   4 3373.60 1931.48   1
   0  -9   4-714.204 1225.20   1
   9  -9   4 3308.67 1453.75   8
   9   0   4 2498.98 691.299   4
   0   9   4 2839.86 760.223   4
   9   0   5 746.940 346.819   4
   0   9   5 1352.93 608.062   4
   0   9   6 1675.75 639.885   4
   0   9   7 442.573 343.098   4
 -10   5  -8 3887.52 440.830   5
  10  -5  -8 3630.87 398.872   7
   5 -10  -7 68.2504 284.599   7
  10  -5  -7-140.002 312.214   7
  10  -5  -6 12906.2 1181.54   7
   5 -10  -6 13184.6 1169.94   7
  10  -5  -5 471.301 409.024   7
   5 -10  -5 136.716 441.645   7
  10  -5  -4 54566.1 2371.26   7
 -10   5  -4 58812.4 4949.34   2
   5 -10  -4 50283.4 2296.59   7
   5 -10  -3 1525.71 536.657   7
  10  -5  -3 1076.41 392.891   7
 -10   5  -3 1450.14 867.384   2
 -10   5  -2 15961.9 2252.59   2
  10  -5  -1 717.893 498.623   8
 -10   5  -1 1281.73 823.773   2
 -10   5  -1 1887.20 951.368   1
  10  -5   0 209723. 7029.45   8
 -10   5   0 217157. 8123.45   1
  -5  -5   1 49.5755 549.404   1
  10  -5   1 287.508 512.670   8
 -10   5   1 585.911 930.181   1
   5 -10   1 642.863 337.475   8
   5 -10   2 16911.9 2159.70   8
 -10   5   2 14096.0 2607.29   1
  -5  -5   2 10577.9 2036.66   1
  10  -5   2 13118.3 1939.86   8
   5   5   3 1311.57 499.852   6
   5   5   3 1851.12 623.129   4
   5 -10   3 2571.34 1122.79   8
  -5  10   3 1915.56 657.698   3
  10  -5   3 2599.82 1087.26   8
  -5  -5   3 1082.87 1275.26   1
 -10   5   3 2660.17 1449.93   1
  10  -5   4 63280.0 5127.51   8
   5 -10   4 54286.7 4805.06   8
  -5  -5   4 50326.3 5329.41   1
   5   5   4 61682.4 2959.31   4
 -10   5   4 63689.6 6355.81   1
  -5  10   4 52946.1 2662.80   3
   5   5   4 57533.9 2919.84   6
  -5  10   5 103.467 509.403   3
   5   5   5 152.372 378.712   6
   5   5   5 482.126 510.495   4
   5   5   6 12642.7 1250.26   4
  -5  10   6 11351.6 1233.21   3
   5   5   6 11957.4 1156.50   6
   5   5   7 291.030 284.961   4
  -5  10   7 374.894 341.687   4
 -10   6  -8 2154.54 331.508   5
 -10   4  -8 1791.87 332.949   5
  10  -6  -8 1704.99 318.131   7
  10  -4  -7 1311.32 405.887   7
   4 -10  -7 807.214 321.510   7
  10  -6  -7 600.179 353.541   7
   6 -10  -7 406.037 315.084   7
  10  -6  -6 40714.6 2069.82   7
   4 -10  -6 38814.5 1880.99   7
  10  -4  -6 38497.8 1927.66   7
   6 -10  -6 41031.0 2059.34   7
  10  -4  -5-992.020 541.131   7
  10  -6  -5 717.080 542.895   7
   4 -10  -5-403.535 369.922   7
   6 -10  -5 126.777 510.949   7
  10  -4  -4 7165.60 934.111   7
  10  -6  -4 4559.30 792.513   7
   4 -10  -4 6160.52 805.826   7
   6 -10  -4 5793.90 869.991   7
 -10   6  -4 8421.67 1827.49   2
 -10   4  -4 7812.94 1802.86   2
 -10   4  -3 8688.97 1840.02   2
   4 -10  -3 8785.64 914.533   7
  10  -6  -3 8392.96 943.553   7
   6 -10  -3 8269.19 991.525   7
 -10   6  -3 9460.35 1999.04   2
 -10   6  -2 10820.4 1822.50   2
  10  -6  -2 7546.67 1565.28   8
 -10   4  -2 11674.5 1866.71   2
  10  -6  -1 3528.78 1016.42   8
  10  -4  -1 2383.64 801.728   8
 -10   6  -1 3487.63 1103.43   1
 -10   6  -1 2776.20 937.408   2
 -10   4  -1 4214.83 1149.94   2
 -10   4  -1 2782.81 1088.98   1
 -10   6   0 133770. 6334.66   1
  10  -4   0 120153. 5236.34   8
   6 -10   0 124010. 4509.31   8
  10  -6   0 125869. 5534.72   8
  -6  -4   0 108564. 5120.82   1
 -10   4   0 117607. 6009.77   1
  10  -4   1 2125.49 727.660   8
  10  -6   1 3642.92 1049.45   8
  -6  -4   1 4502.95 1261.52   1
 -10   4   1 2880.40 1096.75   1
 -10   6   1 3884.52 1420.62   1
  -4  -6   1 2623.30 862.453   1
   6 -10   1 3016.45 927.720   8
  -4  -6   2 10172.0 2006.75   1
 -10   6   2 9675.56 2036.34   1
   4 -10   2 10496.5 1689.59   8
  10  -6   2 9768.89 1721.66   8
   6 -10   2 9739.49 1670.81   8
  10  -4   2 8623.71 1535.98   8
 -10   4   2 10278.7 2210.95   1
  -6  -4   2 9058.67 1921.10   1
 -10   6   3 5981.50 1697.13   1
   4 -10   3 8779.89 1727.00   8
  10  -6   3 9289.00 1948.00   8
  10  -4   3 8794.42 1714.32   8
   6 -10   3 10282.3 1954.18   8
   6   4   3 9454.67 1169.16   4
   4   6   3 9251.78 1118.27   4
  -4  -6   3 8579.40 2103.17   1
 -10   4   3 9132.94 2452.84   1
  -6  -4   3 7338.31 2091.97   1
  -4  10   3 8878.69 1080.53   3
  -6  10   3 9841.71 1141.94   3
   6   4   3 8965.10 1114.26   6
   6   4   4 6360.38 1025.34   6
  -4  10   4 7264.94 1096.33   3
  -6  10   4 5968.13 954.468   3
  10  -4   4 6381.08 1606.58   8
   6 -10   4 5710.19 1654.52   8
   4 -10   4 4158.82 1342.94   8
 -10   4   4 5657.13 2196.88   1
   6   4   4 6994.47 1108.54   4
  -4  -6   4 9360.92 2469.14   1
   4   6   4 6617.72 1048.54   4
  -6  -4   4 5260.08 1971.18   1
 -10   6   4 7038.12 2241.47   1
  10  -6   4 7044.03 1843.39   8
  -4  10   5 81.9981 439.495   3
  -6  10   5-17.8454 463.183   3
   4   6   5 267.060 478.573   4
   6   4   5 116.034 443.893   6
   6   4   5 987.223 497.177   4
   6   4   6 35474.8 2004.59   4
   4   6   6 36992.2 2054.66   4
  -6  10   6 37828.3 2101.62   3
   6   4   6 34868.9 1831.58   6
   4   6   6 34419.2 1943.27   6
   4   6   7 1068.12 350.865   6
  -4  10   7 1826.26 533.526   4
   6   4   7 1177.32 364.548   4
   4   6   7 1337.05 400.171   4
 -10   3  -8 237.591 204.068   5
  10  -7  -8 440.239 215.683   7
 -10   7  -7 1413.25 424.841   5
  10  -3  -7 1424.32 416.660   7
  10  -7  -7 1461.42 387.678   7
   7 -10  -7 265.095 336.291   7
  10  -3  -6 31439.3 1699.21   7
  10  -7  -6 28957.7 1766.04   7
   7 -10  -6 31846.3 1893.97   7
  10  -3  -5 1390.14 489.091   7
  10  -7  -5 1741.67 603.719   7
   7 -10  -5 375.592 438.141   7
   7 -10  -4 27615.5 1814.93   7
 -10   7  -4 25047.4 3253.72   2
 -10   3  -4 24615.9 3129.68   2
  10  -7  -4 24321.3 1627.73   7
 -10   3  -3 19091.1 2717.66   2
  10  -7  -3 21696.9 1516.51   7
   7 -10  -3 21673.6 1565.58   7
 -10   7  -3 18090.2 2506.00   2
  10  -7  -2 25750.8 2631.38   8
 -10   3  -2 29093.8 2972.81   2
 -10   7  -2 26445.3 2842.24   2
  10  -3  -1 8128.01 1431.64   8
   7 -10  -1 7048.40 1182.96   8
  10  -7  -1 6736.80 1338.28   8
 -10   3  -1 8625.27 1712.66   1
 -10   3  -1 7935.74 1535.83   2
 -10   7  -1 8651.59 1561.21   2
 -10   7   0 3574.38 1174.82   1
   7 -10   0 4435.47 990.935   8
  10  -7   0 4044.60 1069.07   8
 -10   3   0 5086.52 1394.16   1
  10  -3   0 4048.74 991.282   8
  -7  -3   0 5067.05 1241.60   1
 -10   3   1 8929.38 1914.78   1
  -3  -7   1 7608.74 1410.75   1
 -10   7   1 5902.08 1653.92   1
  10  -7   1 8835.30 1573.31   8
  10  -3   1 9891.85 1568.09   8
  -7  -3   1 7629.77 1602.81   1
   7 -10   1 7521.06 1350.21   8
   7 -10   2 21395.0 2473.33   8
  -3  -7   2 29539.7 3036.95   1
  -7  -3   2 24823.6 3208.50   1
 -10   3   2 27827.6 3643.95   1
 -10   7   2 27372.2 3277.35   1
  10  -3   2 25693.5 2573.75   8
  10  -7   2 27709.9 2903.15   8
  -3  10   3 19757.4 1605.61   3
  10  -3   3 18735.5 2415.84   8
  -3  -7   3 16253.6 2857.13   1
  10  -7   3 17123.0 2549.71   8
   7 -10   3 19575.8 2717.48   8
  10  -3   3 20503.7 1604.79   4
   7   3   3 20363.4 1646.32   4
   3   7   3 20534.3 1619.56   4
  -7  -3   3 19782.0 3343.20   1
 -10   3   3 21257.6 3688.22   1
 -10   7   3 21600.5 3216.36   1
  -7  10   3 19117.3 1500.02   3
   7   3   3 21312.4 1673.94   6
  -3  10   4 24833.6 1852.08   3
  10  -7   4 22096.1 3203.32   8
  -3  -7   4 27221.3 3839.05   1
   7 -10   4 24985.6 3437.13   8
   7   3   4 27653.0 1976.09   6
  10  -3   4 25358.7 1827.55   4
   7   3   4 23334.0 1861.56   4
   3   7   4 23069.9 1819.64   4
  -7  10   4 22108.1 1728.19   3
 -10   3   4 28476.7 4589.28   1
   3 -10   4 18992.6 2558.07   8
  -7  -3   4 18805.6 3562.23   1
  -3  10   5 1144.81 559.353   3
   7   3   5 1220.04 520.170   6
  -7  10   5 1335.95 570.964   3
   7   3   5 1048.19 533.920   4
   3   7   5 1147.52 551.938   4
  -7  10   6 27733.6 1750.81   3
   7   3   6 26976.4 1710.17   4
   3   7   6 27684.1 1789.41   4
  -3  10   6 31207.6 1999.84   4
   3   7   6 24319.0 1665.11   6
   3   7   7 717.168 302.787   6
   7   3   7 827.811 317.776   4
   3   7   7 937.208 378.534   4
  -3  10   7 904.777 418.020   4
 -10   2  -8 2170.12 322.824   5
  10  -8  -8 1748.28 290.618   7
  10  -8  -7-661.933 450.006   7
   8 -10  -7-722.082 423.173   7
  10  -2  -7 56.4512 253.720   7
  10  -2  -6 14151.8 1135.43   7
  10  -8  -6 12938.4 1226.61   7
   8 -10  -6 14892.6 1378.96   7
  10  -8  -5 1365.27 599.331   7
   8 -10  -5 611.747 490.343   7
  -8  10  -4 8030.57 1035.78   5
  10  -8  -4 9246.14 1050.12   7
   8 -10  -4 9323.17 1105.78   7
 -10   8  -4 7738.68 1637.58   2
 -10   2  -4 8935.12 1907.26   2
  -8  10  -3 12984.6 1182.73   5
 -10   8  -3 13060.7 1286.01   5
 -10   8  -3 11751.9 2020.37   2
  10  -8  -3 10601.6 1101.53   7
   8 -10  -3 12868.7 1230.00   7
 -10   2  -3 11192.7 1952.65   2
  -8  10  -2 37478.1 2949.45   2
  10  -8  -2 29957.3 2917.30   8
 -10   8  -2 37222.9 1992.00   5
 -10   2  -2 37730.2 3384.01   2
 -10   8  -2 36413.5 3220.17   2
   8 -10  -1 5136.37 1119.44   8
  10  -8  -1 4276.19 1135.42   8
 -10   2  -1 5245.13 1490.25   1
  -8  -2  -1 4111.55 952.371   2
 -10   2  -1 4153.91 1103.29   2
 -10   8  -1 5845.18 1375.15   2
  -8  10  -1 3042.16 761.667   2
   8 -10   0 34890.9 2793.42   8
 -10   8   0 33788.5 3396.67   1
  10  -8   0 35931.6 3057.19   8
  -8  -2   0 34347.2 2585.87   2
  -8  10   0 33622.1 2474.66   2
  -8  -2   0 34886.0 3185.63   1
  10  -2   0 39435.5 2957.78   8
 -10   2   0 37956.0 3553.63   1
  10  -8   1 4829.46 1141.75   8
  10  -2   1 4268.44 1080.07   8
  -8  -2   1 4821.23 1584.38   1
 -10   8   1 2928.80 1084.22   1
 -10   2   1 3854.39 1366.22   1
   8 -10   1 4922.86 1138.37   8
  10  -2   2 38192.0 3099.78   8
  -2  -8   2 36471.9 3516.73   1
   8 -10   2 36497.8 3271.32   8
   8   2   2 37930.3 2042.28   4
 -10   2   2 37615.2 4386.50   1
  -8  -2   2 32231.4 4076.28   1
 -10   8   2 34716.1 2100.71   5
  10  -8   2 35072.8 3290.00   8
  -8  10   2 39562.4 2068.13   3
 -10   8   2 42667.2 3969.36   1
  -8  -2   3 11015.5 2888.93   1
  10  -2   3 11844.7 1240.25   4
   8 -10   3 13450.6 2299.09   8
   8   2   3 13458.4 1380.52   4
  -2  -8   3 12929.1 2565.10   1
 -10   2   3 11612.7 2709.15   1
   2   8   3 12723.1 1291.69   4
 -10   8   3 13150.4 2413.66   1
  10  -8   3 13195.3 2221.56   8
  -2  10   3 13060.8 1283.07   3
   8   2   3 14569.5 1372.57   6
  -8  10   3 12037.5 1245.16   3
 -10   8   3 12763.0 1188.63   3
  -8  -2   4 6979.89 2662.61   1
  10  -2   4 8019.02 1092.40   4
  -8  10   4 6852.85 985.644   3
   2 -10   4 4788.96 1385.01   1
   8 -10   4 8277.54 1938.05   8
 -10   2   4 6235.16 2582.42   1
   8   2   4 8224.45 1171.20   4
   2   8   4 8679.45 1169.67   4
  -2  -8   4 7659.78 2066.47   1
  -2  10   4 7746.80 1110.41   3
  10  -8   4 6957.63 1822.86   8
   8   2   4 9249.07 1132.56   6
  -2  10   5 598.551 435.360   3
   8   2   5 746.560 382.012   6
  -8  10   5 757.699 463.920   3
   8   2   5 653.938 420.390   4
   2   8   5 1501.88 609.214   4
  -2  10   6 12594.1 1315.57   4
   8   2   6 11712.8 1095.42   4
   2   8   6 13534.2 1309.63   4
   2   8   7 540.124 308.278   6
   2   8   7 585.400 377.419   4
  -2  10   7 501.390 362.493   4
 -10   9  -7 1190.21 362.090   5
  10  -9  -7 1170.12 350.843   7
  -9  10  -6 2487.34 512.960   5
 -10   9  -6 2575.63 671.490   5
  10  -9  -6 3540.37 739.862   7
   9 -10  -6 4207.89 835.653   7
  -9  10  -5 1709.18 560.734   5
 -10   9  -5 2922.38 722.293   5
  10  -9  -5 1919.25 679.604   7
   9 -10  -5 1942.64 718.213   7
 -10   1  -4 2521.21 1043.99   2
  -9  10  -4 1636.92 549.022   5
 -10   9  -4 1424.20 546.211   5
  10  -9  -4 930.728 516.205   7
   9 -10  -4 1545.28 657.610   7
  -9  10  -3 304.197 320.580   5
 -10   9  -3 481.610 422.538   5
  10  -9  -3 1087.67 516.406   7
   9 -10  -3 800.725 549.168   7
 -10   9  -3 1921.00 997.450   2
 -10   1  -3-272.867 582.616   2
  -9  10  -3 727.331 1011.64   2
  -9  -1  -3 1203.63 531.036   2
  10  -9  -2 65211.7 4273.89   8
  -9  10  -2 67695.9 2557.84   5
 -10   9  -2 66376.3 2662.14   5
  -9  -1  -2 62180.3 3968.44   2
 -10   9  -2 68049.8 4345.29   2
 -10   1  -2 62525.4 4323.54   2
  -9  10  -2 68089.5 4202.82   2
  10  -1  -2 58062.6 2551.51   6
   9   1  -2 62740.7 2599.42   6
  -9  -1  -1 2432.49 1075.07   1
 -10   1  -1 2822.77 1013.25   1
  -9  -1  -1 2727.02 786.007   2
   9 -10  -1 2351.07 878.081   8
  10  -9  -1 3318.54 1079.80   8
 -10   1  -1 3411.40 1074.77   2
 -10   9  -1 4174.36 1084.55   2
  -9  10  -1 2678.93 757.060   2
  10  -1   0 56049.0 3476.17   8
 -10   1   0 63627.7 4328.26   2
 -10   9   0 52324.4 3665.68   2
  -9  -1   0 45445.5 3382.62   2
  -9  10   0 45645.3 3152.19   2
  -9  -1   0 50766.5 4038.62   1
 -10   1   0 47898.2 4022.25   1
  10  -9   0 49868.4 3672.05   8
   9 -10   0 52001.7 3600.45   8
   9 -10   1 2427.75 904.788   8
  10  -9   1 2359.35 880.780   8
  10  -1   1 3520.68 985.855   8
  -9  -1   1 5335.80 1579.30   1
 -10   9   1 4814.53 1375.32   1
 -10   1   1 2926.90 1439.74   1
 -10   9   2 65477.1 2603.41   3
   1   9   2 64771.8 2731.31   3
 -10   9   2 69684.1 4931.91   1
  -9  10   2 72250.1 2948.88   5
 -10   9   2 72963.9 3000.01   5
   1 -10   2 77574.2 5203.07   1
  -1  -9   2 72052.3 4926.09   1
   9 -10   2 67258.8 4563.00   8
   9   1   2 65935.3 2742.01   4
  -9  -1   2 71883.9 5944.98   1
 -10   1   2 65159.3 5768.12   1
  10  -1   2 70693.3 2839.22   4
  -1  10   2 73839.2 2869.94   3
  10  -1   2 64029.1 2511.86   6
   9   1   2 67077.8 2648.74   6
   1   9   2 59643.1 2535.36   4
  -9  10   2 62706.0 2625.11   3
  10  -9   2 59408.4 4347.13   8
   1   9   3 930.931 540.921   3
   9   1   3 725.946 396.050   6
  -1  10   3 827.054 455.045   3
  -9  -1   3 145.251 1226.46   1
  -9  10   3 698.735 423.296   3
 -10   9   3-340.028 430.014   3
   1 -10   3-92.2125 878.901   1
  10  -1   3 636.150 437.059   4
  10  -9   3 210.757 648.008   8
  -1  -9   3 836.665 1046.13   1
 -10   1   3 880.485 1496.40   1
   9 -10   3 1332.70 885.960   8
   9   1   3 1205.23 573.577   4
   1   9   3 1004.74 437.177   4
   9   1   4 1306.10 447.010   6
  -1  10   4 1901.20 691.027   3
  -9  10   4 1030.79 542.254   3
 -10   9   4 1385.64 652.607   3
   1 -10   4 1829.25 1150.92   1
 -10   1   4-7.00863 1210.34   1
  10  -9   4 1585.70 898.561   8
   9 -10   4-91.0799 848.310   8
  -1  -9   4 1610.64 1186.28   1
  10  -1   4 2084.36 602.295   4
   9   1   4 1419.04 614.969   4
   1   9   4 1733.81 696.000   4
  -1  10   4 808.471 435.983   4
  10  -1   5 2095.67 549.798   4
  -9  10   5 2055.99 670.269   3
  -1  10   5 2363.27 741.110   4
   9   1   5 2032.71 576.397   4
   1   9   5 2635.69 756.999   4
   1   9   6 2496.87 684.805   4
  -1  10   6 2137.82 604.117   4
   9   1   6 2596.53 546.666   4
   1   9   7 1165.04 381.445   6
   1   9   7 1877.52 471.431   4
  -1  10   7 1699.42 460.572   4
  10 -10  -7 2131.35 453.919   7
 -10  10  -6 1085.05 442.011   5
  10 -10  -6 2179.29 623.105   7
 -10  10  -5 15943.6 1466.27   5
  10 -10  -5 16753.0 1466.22   7
 -10  10  -4 3319.21 710.552   5
  10 -10  -4 4013.55 841.957   7
 -10  10  -3 4830.74 842.297   5
  10 -10  -3 4294.14 853.052   7
 -10  10  -3 4227.19 1146.53   2
 -10   0  -3 4916.15 1333.51   2
 -10   0  -2 52102.0 3908.18   2
 -10  10  -2 49748.3 2308.51   5
 -10  10  -2 45555.0 3603.42   2
  10   0  -2 46087.7 2312.22   6
 -10   0  -1 22013.1 2611.42   1
 -10  10  -1 23181.1 1532.63   5
 -10   0  -1 24665.9 2602.29   2
 -10  10  -1 19809.8 2205.20   2
  10 -10  -1 23904.8 2593.91   8
  10   0  -1 22853.7 1558.92   6
 -10  10   0 74159.4 2758.11   5
 -10   0   0 79594.2 4810.26   2
 -10  10   0 76375.8 4478.77   2
  10 -10   0 65715.4 4237.21   8
  10   0   0 74511.7 2698.44   6
 -10   0   0 67734.9 4866.89   1
 -10  10   1 23679.1 1672.92   5
  10   0   1 20754.2 1528.71   4
 -10   0   1 22972.8 3219.80   1
  10   0   1 21688.5 1502.31   6
  10 -10   1 19449.8 2448.39   8
  10 -10   2 44379.7 3846.30   8
 -10  10   2 54137.0 2633.03   5
  10   0   2 51283.5 2488.33   4
   0  10   2 46153.4 2292.67   4
 -10   0   2 51600.2 5589.46   1
   0  10   2 55954.3 2596.17   3
  10   0   2 50879.6 2352.92   6
 -10  10   2 52245.5 2416.50   3
  10   0   3 4279.38 721.077   6
   0  10   3 5162.77 874.561   3
  10   0   3 4474.93 845.253   4
 -10  10   3 4812.07 780.373   3
 -10   0   3 7160.07 2828.64   1
  10 -10   3 4156.67 1363.73   8
   0  10   3 3875.01 782.304   4
   0 -10   3 6560.62 2133.71   1
  10   0   4 1995.12 522.261   4
 -10  10   4 2796.51 674.145   3
   0  10   4 3249.91 763.867   4
   0  10   4 2934.11 736.333   3
   0  10   5 16203.9 1524.81   4
  10   0   5 13488.8 1235.47   4
   0  10   6 1071.85 555.967   4
   0  10   7 1762.94 432.013   6
   0  10   7 2451.00 497.384   4
 -11   6  -7 529.140 322.721   5
  11  -5  -7 1156.44 370.694   7
  11  -6  -7 381.278 319.784   7
   5 -11  -7-356.282 264.368   7
   6 -11  -7 606.696 308.414   7
   6 -11  -6 21192.3 1473.03   7
  11  -5  -6 18950.1 1364.53   7
  11  -6  -6 21689.4 1487.08   7
   5 -11  -6 20783.3 1378.68   7
  11  -5  -5 2086.41 538.155   7
  11  -6  -5 3624.74 761.959   7
   5 -11  -5 2764.98 597.916   7
   6 -11  -5 2775.86 662.100   7
   5 -11  -4 3594.44 708.703   7
  11  -5  -4 5210.43 782.846   7
  11  -6  -4 5485.03 844.257   7
   6 -11  -4 5074.91 874.841   7
  11  -6  -3 2161.22 557.422   7
   5 -11  -3 1154.46 447.276   7
   6 -11  -3 2304.56 614.717   7
 -11   6  -3 4063.51 1608.46   2
 -11   5  -3 2061.33 1183.38   2
 -11   6  -2 6617.30 909.347   5
 -11   5  -2 5363.50 834.240   5
 -11   5  -2 6044.06 1543.95   2
 -11   6  -2 5909.11 1435.83   2
  11  -5  -1 1063.57 723.977   8
 -11   5  -1 891.971 772.357   1
 -11   5  -1 1916.82 967.342   2
 -11   6  -1 1735.65 1002.95   2
 -11   6  -1 562.151 660.412   1
  11  -6  -1 1528.22 736.932   8
 -11   5   0 146799. 7141.69   1
 -11   6   0 154315. 7214.29   1
  11  -5   0 162995. 6590.10   8
  11  -6   0 146112. 6320.90   8
  -5  -6   1-64.4814 616.187   1
  -6  -5   1 1403.82 1045.75   1
  11  -5   1 1438.51 667.695   8
  11  -6   1 1713.80 785.377   8
 -11   5   1 372.034 764.544   1
 -11   6   1 1483.14 967.474   1
   6   5   2 6515.26 941.998   6
 -11   5   2 4969.25 1774.24   1
  -5  11   2 5667.90 852.712   3
  -6  11   2 7712.44 975.429   3
 -11   6   2 5026.47 824.296   5
  11  -5   2 4989.97 1250.32   8
  11  -6   2 5463.83 1387.35   8
   6 -11   2 5754.52 1371.51   8
   6   5   2 6098.26 888.348   4
   5   6   2 7554.50 984.569   4
 -11   6   2 5091.15 1811.47   1
  -5  -6   2 5685.29 1643.56   1
   5   6   2 6895.25 1010.57   6
  -6  -5   2 4966.03 1407.98   1
   6   5   3 2097.89 711.877   6
   5   6   3 2039.03 720.688   6
 -11   6   3 2982.43 1606.08   1
  -5  11   3 2163.45 635.773   3
  -5  -6   3 1459.57 815.482   1
  -6  11   3 2293.95 674.269   3
  11  -5   3 1391.08 792.714   8
  11  -6   3 2944.30 1133.14   8
   6 -11   3 2455.97 1163.67   8
   5 -11   3 1898.70 1024.87   8
   6   5   3 954.106 507.080   4
   5   6   3 1585.43 588.952   4
  -6  -5   3 2167.33 1420.22   1
 -11   5   3 4326.13 1896.99   1
  11  -5   4 4254.71 1507.39   8
 -11   6   4 6974.45 2219.23   1
   6   5   4 4375.51 890.267   6
   5   6   4 3990.91 870.145   6
  -5  11   4 4865.85 971.789   3
  -6  11   4 4415.93 948.214   3
  11  -6   4 4812.75 1772.77   8
   6 -11   4 4100.89 1445.03   8
   5 -11   4 2565.73 1365.32   8
   6   5   4 5080.24 967.297   4
   5   6   4 4229.68 895.382   4
  -5  -6   4 3702.87 1897.15   1
  -6  -5   4 3328.53 1960.93   1
 -11   5   4 3116.28 1764.42   1
  -5  11   5 3265.87 798.769   3
   6   5   5 2332.56 674.757   6
  -6  11   5 3580.11 802.194   3
   5   6   5 2006.38 685.864   6
   6   5   5 3434.95 836.603   4
   5   6   5 3101.12 774.705   4
   6   5   6 19269.4 1461.88   4
   5   6   6 20212.6 1487.17   4
  -6  11   6 17603.8 1366.48   3
   6   5   6 19301.2 1339.48   6
   5   6   6 20067.7 1412.01   6
   6   5   7 782.788 281.972   4
   5   6   7 311.122 242.942   4
  -5  11   7 526.970 334.588   4
  -6  11   7 573.370 321.167   4
 -11   7  -7-303.487 318.700   5
  11  -4  -7 407.171 237.058   7
  11  -7  -7 363.940 272.547   7
   7 -11  -7-462.470 344.763   7
  11  -4  -6 22189.3 1393.07   7
  11  -7  -6 25810.9 1589.73   7
   7 -11  -6 27015.5 1656.62   7
  11  -4  -5 4269.06 796.565   7
  11  -7  -5 6562.00 965.387   7
   4 -11  -5 5377.00 761.179   7
   7 -11  -5 5306.11 901.303   7
   4 -11  -4 8792.63 946.126   7
   7 -11  -4 9138.10 1094.32   7
  11  -7  -4 7712.70 948.435   7
 -11   7  -3 19208.6 2838.81   2
  11  -7  -3 23075.7 1527.73   7
   4 -11  -3 25462.0 1556.33   7
 -11   4  -3 20210.8 2843.74   2
   7 -11  -3 23106.8 1627.05   7
 -11   7  -2 10646.3 1144.30   5
  11  -7  -2 10284.9 1019.10   7
   7   4  -2 10494.3 1041.44   6
 -11   4  -2 9998.50 1919.49   2
 -11   7  -2 10347.2 1882.84   2
 -11   4  -1 1488.12 895.689   1
 -11   4  -1 868.193 720.682   2
 -11   7  -1 1664.94 771.565   2
  11  -4  -1 1832.02 740.044   8
  11  -7  -1 1118.50 719.849   8
 -11   7   0 63773.7 4627.37   1
  11  -7   0 73173.1 4509.30   8
  11  -4   0 73787.7 4412.21   8
   7 -11   0 64390.7 3519.96   8
 -11   4   0 67223.6 4869.43   1
   7   4   1 1281.59 506.069   6
 -11   7   1 1104.40 953.245   1
 -11   4   1 601.499 877.499   1
  11  -7   1 1077.11 774.112   8
  -7  -4   1 1510.85 995.976   1
  11  -4   1 221.542 499.346   8
   7 -11   1 660.526 693.217   8
  -4  -7   2 10106.4 1952.01   1
 -11   7   2 10265.4 1180.24   5
  -7  -4   2 11005.0 2202.68   1
 -11   7   2 11243.1 2450.59   1
  11  -4   2 10457.7 1857.04   8
  11  -7   2 9660.18 1778.81   8
   7 -11   2 10073.4 1788.37   8
   7   4   2 10083.8 1101.41   4
   4   7   2 9931.19 1076.94   4
  -4  11   2 9782.52 1138.88   3
   7   4   2 10200.5 1146.94   6
   4   7   2 11019.0 1178.10   6
  -7  11   2 10769.2 1197.98   3
 -11   4   2 10840.5 2638.02   1
  11  -4   3 20212.3 2641.54   8
  11  -7   3 22228.7 3001.85   8
   7 -11   3 23228.4 3021.73   8
   7   4   3 23793.9 1869.09   4
   4   7   3 26287.4 1910.43   4
  -7  -4   3 26387.4 3918.33   1
 -11   4   3 22802.4 3924.43   1
  -4  -7   3 20020.8 3165.86   1
  -4  11   3 24749.8 1893.43   3
 -11   7   3 23043.2 3544.22   1
  -7  11   3 24676.4 1844.35   3
   7   4   3 22974.5 1857.12   6
   7   4   4 7576.91 1131.52   6
  -7  11   4 6061.57 1022.27   3
  11  -7   4 8960.04 2235.82   8
   7 -11   4 8655.01 2202.87   8
   7   4   4 8433.11 1192.49   4
   4   7   4 8166.12 1140.84   4
  -4  11   4 8696.37 1165.90   3
  -4  11   5 5294.27 956.089   3
   7   4   5 4706.58 873.000   6
   4   7   5 5063.46 948.183   6
  -7  11   5 5538.29 916.630   3
   7   4   5 6617.19 1006.26   4
   4   7   5 5049.74 925.677   4
   7   4   6 23137.6 1541.70   4
   4   7   6 21865.6 1556.50   4
  -4  11   6 26525.2 1828.18   4
  -7  11   6 22055.8 1518.68   3
   7   4   6 20069.5 1293.36   6
   4   7   6 22467.7 1542.05   6
   4   7   7-383.045 263.098   6
   7   4   7-288.983 268.094   4
   4   7   7 473.630 313.513   4
  -4  11   7-90.8828 299.578   4
  11  -8  -7 126.296 292.911   7
   8 -11  -7-205.108 331.074   7
 -11   8  -6 22396.1 1645.36   5
  11  -8  -6 22586.0 1530.97   7
   8 -11  -6 24955.7 1632.12   7
  11  -8  -5 2040.05 623.642   7
   8 -11  -5 1249.16 505.977   7
 -11   8  -4 5925.24 998.281   5
  11  -8  -4 6774.62 900.603   7
   8 -11  -4 7843.59 1066.01   7
 -11   8  -3 9185.15 1140.27   5
  11  -8  -3 10642.2 1114.93   7
   8 -11  -3 9749.41 1104.42   7
 -11   8  -3 8702.32 1908.47   2
 -11   3  -3 11261.0 2152.43   2
   8   3  -2 31312.4 1830.88   6
 -11   8  -2 31019.3 1912.01   5
  11  -8  -2 24143.4 2728.91   8
 -11   3  -2 30911.7 3229.91   2
 -11   8  -2 26839.3 2941.44   2
 -11   3  -1 21543.1 2868.54   1
 -11   8  -1 25483.2 1654.99   5
  11  -3  -1 20414.2 2332.23   8
   8 -11  -1 22693.7 2184.87   8
 -11   8  -1 25028.1 2736.32   2
  11  -8  -1 24183.3 2700.29   8
  11  -3  -1 27463.6 1783.78   6
   8   3  -1 31280.3 1721.29   6
 -11   3  -1 28161.8 2908.63   2
  11  -3   0 15716.9 2053.86   8
 -11   8   0 15108.6 2259.32   1
 -11   8   0 16067.4 1295.41   5
   8 -11   0 15536.0 1919.63   8
 -11   3   0 19026.4 2454.14   2
 -11   8   0 15342.6 2183.57   2
  11  -8   0 11824.3 1820.79   8
  -8  -3   0 15077.5 2249.91   1
 -11   3   0 13650.6 2270.88   1
   8   3   0 16522.8 1263.13   6
 -11   8   1 20267.0 2842.80   1
  11  -3   1 26026.8 2661.71   8
 -11   8   1 24820.2 1660.26   5
   8 -11   1 25641.7 2570.23   8
   8   3   1 24858.7 1597.73   4
  -8  -3   1 24242.9 3088.74   1
 -11   3   1 26685.4 3491.76   1
  11  -8   1 22301.0 2609.20   8
   8   3   1 28395.1 1713.77   6
   3   8   1 26597.0 1648.73   6
  -8  11   1 25344.3 1643.16   3
 -11   8   2 28508.3 1915.55   5
  11  -3   2 29976.1 2940.12   8
   8 -11   2 21057.0 2620.22   8
  11  -8   2 27486.5 3048.14   8
   8   3   2 32055.8 1946.81   4
   3   8   2 27137.4 1742.74   4
  -8  -3   2 30378.1 3909.93   1
 -11   3   2 33029.6 4167.02   1
   8   3   2 29866.5 1901.59   6
   3   8   2 29503.5 1939.72   6
  -8  11   2 30090.1 1879.36   3
  -3  11   2 31322.1 1990.27   3
  -3  -8   2 31208.3 3291.17   1
 -11   8   2 27919.7 3547.29   1
  -8  -3   3 10065.1 2648.67   1
  11  -3   3 6706.92 955.141   4
  11  -8   3 8838.84 2005.13   8
   8 -11   3 10430.1 2109.93   8
   8   3   3 8238.23 1156.51   4
   3   8   3 9235.27 1162.79   4
  -3  -8   3 8640.91 2251.74   1
 -11   8   3 8902.33 2041.36   1
  -3  11   3 9415.19 1214.62   3
   8   3   3 8125.06 1127.99   6
  -8  11   3 8734.90 1120.86   3
 -11   3   3 5423.46 2171.19   1
   8   3   4 7221.98 1076.61   6
  -3  11   4 7841.78 1155.50   3
  -8  11   4 5928.94 978.366   3
  11  -3   4 6596.58 927.716   4
   8   3   4 8204.25 1224.52   4
   3   8   4 8371.93 1164.15   4
  -3  11   5 1694.62 674.472   3
   8   3   5 1470.44 559.509   6
  -8  11   5 1715.49 613.309   3
   8   3   5 1224.04 535.272   4
   3   8   5 1793.74 650.617   4
   8   3   6 21297.2 1455.28   4
   3   8   6 19915.4 1500.44   4
  -3  11   6 20740.9 1588.98   4
  -8  11   6 20897.3 1429.92   3
   3   8   6 19839.8 1490.06   6
   3   8   7 273.694 217.381   6
   3   8   7 736.582 318.727   4
  -3  11   7 648.014 339.607   4
 -11   9  -7 396.280 251.694   5
  11  -9  -7-272.349 298.363   7
   9 -11  -7 358.961 304.496   7
 -11   9  -6 6819.85 908.822   5
  11  -9  -6 6534.58 905.814   7
   9 -11  -6 7227.35 950.184   7
 -11   9  -5 5743.33 1009.41   5
  11  -9  -5 7832.29 1025.88   7
   9 -11  -5 7487.70 1038.51   7
  -9  11  -4 6877.57 952.373   5
 -11   9  -4 6392.44 1038.08   5
  11  -9  -4 5898.01 925.903   7
   9 -11  -4 7090.03 1012.40   7
  -9  11  -3 8948.61 1010.23   5
 -11   9  -3 10424.2 1220.99   5
  11  -9  -3 10267.5 1188.15   7
   9 -11  -3 9347.35 1141.86   7
 -11   9  -3 7567.77 1748.92   2
 -11   2  -3 10360.0 2053.34   2
  -9  11  -2 30735.1 1771.83   5
 -11   9  -2 32654.1 1979.55   5
 -11   2  -2 27318.1 1791.02   5
 -11   9  -2 25539.0 2814.93   2
 -11   2  -2 29659.1 3174.64   2
   9   2  -2 26327.0 1745.95   6
  -9  11  -1 8517.85 938.641   5
 -11   9  -1 8432.37 979.250   5
  11  -9  -1 8059.81 1613.60   8
   9 -11  -1 4612.46 1004.72   8
 -11   2  -1 6949.10 1631.16   1
 -11   2  -1 7010.33 1526.44   2
 -11   9  -1 7611.36 1546.51   2
  11  -2  -1 6794.59 920.371   6
   9   2  -1 8936.06 971.944   6
  -9  11   0 37005.6 1893.11   5
 -11   9   0 35281.1 1977.20   5
  11  -2   0 35224.6 3030.09   8
   9 -11   0 33298.3 2888.58   8
 -11   2   0 33193.4 3300.75   2
 -11   9   0 33080.3 3159.69   2
  11  -2   0 35729.6 2000.85   6
  -9  -2   0 38627.1 3639.08   1
   9   2   0 38546.5 1952.80   6
 -11   2   0 33452.2 3584.38   1
   9   2   0 32021.4 1807.66   4
  11  -9   0 32759.5 3120.28   8
  -9  11   1 7946.14 991.681   3
 -11   2   1 9318.70 2012.61   1
  -9  11   1 7318.37 945.896   5
 -11   9   1 8188.33 1025.55   5
  11  -9   1 6945.87 1691.88   8
  11  -2   1 10020.6 1609.48   8
   9 -11   1 8237.52 1594.11   8
   9   2   1 7049.62 915.844   4
 -11   9   1 8804.59 1791.95   1
  -2  11   1 9123.20 1068.63   3
  -9  -2   1 7610.04 1823.21   1
  11  -2   1 8299.37 990.513   6
   9   2   1 8069.15 958.368   6
   2   9   1 6908.19 896.876   6
 -11   9   2 30790.9 3472.89   1
  -9  11   2 29317.7 2007.64   5
 -11   9   2 31820.3 2075.45   5
  11  -9   2 33032.1 3376.05   8
   9 -11   2 31570.0 3298.71   8
   9   2   2 31476.8 1980.98   4
   2   9   2 31485.1 1878.24   4
  11  -2   2 29718.4 1979.54   4
  -9  -2   2 31919.2 4126.97   1
 -11   2   2 28296.9 4148.01   1
   2   9   2 34545.0 2025.46   3
  -2  11   2 30910.4 2037.01   3
  11  -2   2 31070.1 1816.41   6
   9   2   2 29581.1 1893.51   6
  -9  11   2 33387.4 2008.76   3
   2 -11   3 6341.34 1923.43   1
  -9  -2   3 7992.89 2554.69   1
  11  -9   3 8930.87 1970.23   8
   9 -11   3 11048.4 2226.96   8
   9   2   3 11890.7 1363.18   4
   2   9   3 8434.16 1125.82   4
  11  -2   3 7612.62 1066.31   4
  -2  -9   3 13677.1 2715.06   1
 -11   2   3 7091.46 2446.94   1
  -2  11   3 9228.90 1145.48   3
   9   2   3 9564.71 1121.05   6
  -9  11   3 9599.22 1153.50   3
 -11   9   3 10172.3 1129.11   3
   9   2   4 6029.17 921.975   6
  -2  11   4 6528.65 1023.70   3
  -9  11   4 6504.24 988.992   3
  11  -2   4 6671.01 956.334   4
   9   2   4 6999.41 1088.11   4
   2   9   4 7051.02 1063.45   4
   9   2   5 6993.94 966.840   4
   2   9   5 6328.39 1022.97   4
  -2  11   5 6784.29 1070.29   4
  -9  11   5 7800.70 1026.92   3
   2   9   6 6410.16 905.516   6
   9   2   6 6404.63 791.846   4
   2   9   6 6813.02 904.357   4
  -2  11   6 6800.29 943.034   4
   2   9   7-35.4589 218.064   6
   2   9   7 764.130 335.651   4
  -2  11   7 60.8050 282.010   4
  11 -10  -7 2467.86 434.212   7
  10 -11  -7 2252.73 406.769   7
 -11  10  -6 767.549 435.511   5
  11 -10  -6 549.830 422.586   7
  10 -11  -6 1387.67 550.733   7
 -10  11  -5 16881.2 1378.90   5
 -11  10  -5 16643.8 1486.43   5
  11 -10  -5 19080.9 1514.59   7
  10 -11  -5 16271.1 1462.80   7
 -10  11  -4 26929.8 1803.10   5
 -11  10  -4 29936.7 2019.79   5
  10 -11  -4 31739.1 1995.91   7
  11 -10  -4 26269.9 1799.03   7
 -10  11  -3 9929.73 1108.06   5
  10 -11  -3 11365.1 1234.50   7
 -11  10  -3 9344.46 1137.75   5
  11 -10  -3 9813.57 1138.30   7
 -11  10  -3 8706.67 1651.99   2
 -11   1  -3 8376.70 1973.77   2
 -10  11  -2 24469.8 1656.43   5
 -11  10  -2 23963.2 1689.38   5
 -11   1  -2 22647.0 2808.56   2
 -11  10  -2 21711.5 2607.82   2
  10   1  -2 21750.2 1629.99   6
 -10  11  -1 10147.0 1066.23   5
 -11  10  -1 12075.3 1179.98   5
 -11   1  -1 12538.5 2051.42   2
  10 -11  -1 8196.76 1509.44   8
  11 -10  -1 8873.24 1596.65   8
 -11   1  -1 8575.61 1731.92   1
  11  -1  -1 8830.61 1101.16   6
 -11  10  -1 9593.08 1689.49   2
  10   1  -1 11506.2 1149.70   6
  11 -10   0 10255.0 1806.38   8
 -10  11   0 9775.72 1091.88   5
 -11  10   0 11161.8 1190.56   5
 -10  -1   0 9989.75 1903.39   1
  10 -11   0 9796.98 1701.83   8
 -11   1   0 9503.77 1960.90   1
 -11   1   0 10317.7 1997.19   2
 -11  10   0 10139.0 1752.46   2
  11  -1   0 11557.6 1162.14   6
  10   1   0 12728.0 1206.97   6
 -11   1   1 9954.83 2307.31   1
 -10  11   1 9502.20 1117.76   5
 -11  10   1 10464.6 1187.55   5
  10   1   1 10990.0 1157.26   4
  10 -11   1 8503.11 1732.16   8
 -11  10   1 5566.18 1577.62   1
  11 -10   1 10173.7 1861.70   8
 -10  -1   1 7761.00 2014.12   1
  -1  11   1 9173.92 1093.01   3
  11  -1   1 9387.67 1052.60   6
  10   1   1 9349.37 1061.01   6
   1  10   1 9667.67 1054.61   6
 -11  10   2 26037.9 1770.08   3
 -10  11   2 27163.4 1980.77   5
 -11  10   2 25935.1 1943.97   5
  11 -10   2 26038.2 3168.68   8
  10 -11   2 26079.9 3054.77   8
  11  -1   2 24556.4 1834.70   4
  10   1   2 26687.6 1865.30   4
   1  10   2 26020.3 1750.50   4
  -1  11   2 26071.6 1727.51   4
 -10  -1   2 27765.3 3981.18   1
 -11   1   2 25853.3 3786.04   1
  -1  11   2 29826.5 1918.79   3
  11  -1   2 23132.8 1621.34   6
  10   1   2 26526.2 1784.62   6
 -10  11   2 24988.2 1757.08   3
  11 -10   3 9446.47 2170.22   8
 -10  -1   3 10117.1 2985.01   1
   1  10   3 9028.51 1155.60   4
  -1  11   3 7988.67 1103.96   4
  10   1   3 8291.02 1130.75   4
 -11   1   3 9723.24 2938.14   1
   1  10   3 8134.26 1042.31   3
  -1  11   3 9215.64 1211.97   3
  11  -1   3 6718.81 874.471   6
  11  -1   3 8262.46 1116.72   4
  10   1   3 7402.15 1000.59   6
 -10  11   3 9148.66 1129.97   3
 -11  10   3 8963.76 1066.46   3
  10 -11   3 8586.34 2068.41   8
  11  -1   4 25679.4 1828.63   4
  10   1   4 27610.7 1963.93   4
   1  10   4 30375.6 2043.09   4
  -1  11   4 23167.8 1811.05   4
  -1  11   4 27085.8 1993.78   3
  10   1   4 27588.6 1752.37   6
 -10  11   4 26204.7 1877.61   3
 -11  10   4 30159.1 1920.74   3
  11  -1   5 13424.4 1207.64   4
  10   1   5 17582.5 1423.59   4
   1  10   5 17350.1 1534.06   4
  -1  11   5 16603.4 1507.54   4
 -10  11   5 14495.1 1413.07   3
   1  10   6 247.996 367.902   6
  10   1   6 1358.89 385.327   4
   1  10   6 1481.40 504.989   4
  -1  11   6 597.750 423.058   4
   1  10   7 1857.16 411.037   6
  -1  11   7 1883.18 407.498   6
   1  10   7 2177.75 442.209   4
  -1  11   7 2183.95 441.125   4
 -11   0  -7 3945.89 456.546   5
  11 -11  -7 4178.96 498.177   7
 -11  11  -6 612.123 292.470   5
  11 -11  -6 2123.65 587.584   7
 -11  11  -5 4107.21 751.610   5
  11 -11  -5 4398.29 818.120   7
 -11  11  -4 41298.1 2259.92   5
  11 -11  -4 49038.5 2420.98   7
 -11  11  -3-566.013 452.264   5
  11 -11  -3 667.947 596.524   7
 -11  11  -2 16393.7 1392.86   5
 -11  11  -2 15213.6 2225.38   2
 -11  11  -1 1217.63 577.490   5
  11 -11  -1 585.173 727.037   8
 -11   0  -1 1152.17 766.687   2
 -11  11  -1-235.311 636.752   2
  11   0  -1 448.361 381.534   6
 -11  11   0 10935.2 1178.04   5
  11 -11   0 11991.9 1959.59   8
 -11  11   0 12819.4 1849.80   2
 -11   0   0 11402.9 2126.73   1
 -11   0   0 12088.1 1947.35   2
  11   0   0 12447.8 1204.56   6
 -11   0   1 1078.76 1052.55   1
   0  11   1 1372.60 515.928   6
 -11  11   1 121.450 487.387   5
 -11  11   1 365.817 570.853   2
  11 -11   1 395.697 656.870   8
  11   0   1 1049.25 500.660   6
 -11  11   2 17515.7 1622.73   5
  11 -11   2 13882.5 2390.71   8
  11   0   2 15073.7 1500.33   4
   0  11   2 16086.6 1364.30   4
 -11   0   2 18540.7 3330.18   1
   0  11   2 19399.5 1573.53   3
  11   0   2 15468.2 1387.49   6
 -11  11   2 16185.4 1483.57   3
  11   0   3 12.4383 425.372   6
   0  11   3-602.925 525.262   3
 -11  11   3 276.388 462.950   3
  11   0   3-111.171 480.167   4
   0  11   3 404.951 495.441   4
  11   0   4 39642.0 2327.79   4
 -11  11   4 40973.4 2322.59   3
  11   0   5 3877.70 704.447   4
   0  11   5 5382.79 946.602   4
   0  11   6 1293.94 500.948   4
   0  11   7 3087.57 453.912   6
   0  11   7 4750.55 553.034   4
 -12   6  -7 90.8117 312.522   5
  12  -6  -7 227.925 220.828   7
 -12   6  -6 9162.12 1081.45   5
  12  -6  -6 7990.64 826.023   7
   6 -12  -6 7361.88 819.528   7
  12  -6  -5-283.593 400.229   7
   6 -12  -5 439.648 367.597   7
  12  -6  -4 2782.99 643.145   7
   6 -12  -4 2542.48 661.655   7
 -12   6  -3-830.191 554.985   5
   6 -12  -3-340.823 440.087   7
 -12   6  -3-679.515 839.589   2
 -12   6  -2 3573.44 742.637   5
 -12   6  -2 3448.17 1156.54   2
   6   6  -2 3786.82 657.761   6
 -12   6  -1 1168.91 782.585   1
  12  -6  -1 278.255 636.663   8
 -12   6  -1 236.613 339.499   5
 -12   6  -1-53.8500 625.144   2
   6   6  -1-502.405 366.333   6
 -12   6   0 231218. 9436.89   1
 -12   6   0 240527. 4876.45   5
 -12   6   0 248766. 9129.82   2
  12  -6   0 252945. 8788.44   8
   6   6   0 238807. 4819.90   6
  -6  12   0 244652. 5052.43   3
   6   6   1-357.921 455.545   6
  -6  12   1 96.8795 426.162   3
 -12   6   1-741.463 443.194   5
  12  -6   1 690.443 667.805   8
   6   6   1 276.771 330.188   4
 -12   6   1 267.460 998.936   1
  -6  -6   2 3529.68 1557.03   1
   6   6   2 5712.07 911.219   6
  -6  12   2 5291.45 972.037   3
 -12   6   2 3992.72 790.976   5
 -12   6   2 4944.91 1778.33   1
  12  -6   2 3346.13 1265.55   8
   6   6   2 4131.79 799.223   4
   6   6   3-72.5462 456.402   6
  -6  12   3 1020.02 677.030   3
 -12   6   3-2065.64 1130.98   1
  12  -6   3-1191.09 946.570   8
   6   6   3-59.5507 467.748   4
  -6  -6   3 1392.27 1452.33   1
   6   6   4 3246.92 809.605   6
  -6  12   4 1981.12 636.610   3
   6   6   4 2376.24 791.402   4
   6   6   5 105.908 382.190   6
  -6  12   5 222.389 435.977   3
   6   6   5 205.192 567.389   4
   6   6   6 8306.50 942.412   4
   6   6   6 6944.27 812.698   6
   6   6   7 96.8324 221.182   4
  -6  12   7-63.5883 232.215   4
 -12   7  -7 367.675 265.313   5
 -12   5  -7 348.220 292.774   5
  12  -7  -7 224.133 277.259   7
   7 -12  -7 35.1112 185.227   7
 -12   7  -6 24260.2 1678.92   5
  12  -5  -6 25041.1 1343.11   7
  12  -7  -6 22413.7 1385.97   7
   7 -12  -6 21886.7 1402.71   7
 -12   7  -5-739.604 646.721   5
  12  -5  -5-108.453 394.147   7
  12  -7  -5 477.346 387.680   7
   5 -12  -5 296.179 418.069   7
   7 -12  -5 1147.00 535.751   7
 -12   7  -4 9389.68 1219.38   5
  12  -7  -4 10923.1 1130.16   7
   5 -12  -4 9506.88 1061.58   7
   7 -12  -4 10886.6 1177.23   7
 -12   7  -3-350.502 549.168   5
 -12   5  -3 333.426 440.407   5
  12  -7  -3 295.294 424.528   7
   5 -12  -3 32.1409 399.421   7
   7 -12  -3-399.668 518.880   7
 -12   7  -3 442.625 787.292   2
 -12   5  -3 662.385 900.907   2
 -12   7  -2 40327.0 2251.64   5
 -12   5  -2 36611.4 2154.65   5
 -12   5  -2 40592.3 3859.92   2
 -12   7  -2 38530.0 3758.92   2
   7   5  -2 36531.8 1933.51   6
   5   7  -1 354.246 400.708   6
 -12   5  -1 579.292 832.733   1
  -7  12  -1 740.196 373.676   3
 -12   7  -1 839.783 412.508   5
 -12   5  -1 449.763 392.040   5
  12  -5  -1 492.859 677.640   8
 -12   5  -1 304.775 624.388   2
 -12   7  -1 370.031 807.015   2
  12  -7  -1 348.872 625.750   8
   7   5  -1 65.4593 299.225   6
 -12   5   0 109694. 6464.64   1
 -12   7   0 100162. 6095.66   1
 -12   7   0 113776. 3420.69   5
 -12   5   0 113037. 3325.13   5
  12  -5   0 106502. 5678.95   8
  12  -7   0 117476. 6014.89   8
 -12   5   0 122101. 6398.73   2
 -12   7   0 123783. 6486.63   2
   7   5   0 107528. 3179.02   4
   7   5   0 103203. 3227.02   6
   5   7   0 103540. 3178.75   6
  -5  12   0 109211. 3387.56   3
  -7  12   0 108781. 3375.94   3
   7   5   1 935.911 460.886   6
   5   7   1 172.094 374.738   6
  -7  12   1 312.126 308.536   5
  -5  12   1 1041.71 540.267   3
 -12   7   1 101.018 810.122   1
  -7  12   1-288.860 418.467   3
 -12   5   1-103.776 373.124   5
 -12   7   1 153.876 370.313   5
  12  -5   1 1016.08 904.813   8
  12  -7   1-238.137 778.258   8
   7   5   1 342.015 339.777   4
   5   7   1 801.734 433.965   4
 -12   5   1 757.859 804.214   1
 -12   5   2 29883.0 1948.54   5
 -12   7   2 39114.0 2289.64   5
  12  -7   2 35102.1 3568.68   8
   7   5   2 35905.9 2136.24   4
   5   7   2 35724.8 2058.47   4
  -7  -5   2 29855.2 3993.12   1
 -12   5   2 41812.5 4671.52   1
  -5  12   2 35537.5 2236.53   3
   7   5   2 44082.4 2398.79   6
  -7  12   2 39599.8 2252.29   3
   5   7   2 36358.0 2169.36   6
 -12   7   2 39484.5 4386.83   1
  12  -5   2 36395.2 3500.61   8
   7   5   3-82.4624 469.064   6
  -7  -5   3 34.3545 1219.59   1
   5   7   3 228.220 448.362   6
 -12   5   3-359.066 977.035   1
  -5  12   3-263.312 480.700   3
  -7  12   3 529.273 614.487   3
  12  -5   3-584.248 999.674   8
  12  -7   3-2032.46 1437.04   8
   7 -12   3 1814.81 1098.28   8
 -12   7   3-2441.42 1561.67   1
   7   5   3 973.673 633.219   4
   5   7   3 262.587 413.631   4
  -5  -7   3-809.929 1336.78   1
   7   5   4 11024.6 1428.49   4
   5   7   4 11207.6 1358.24   4
  -5  12   4 9724.77 1277.10   3
  -7  12   4 9385.96 1281.48   3
   7   5   4 11593.8 1386.77   6
   5   7   4 11824.3 1385.12   6
   7   5   5 656.998 493.417   6
  -5  12   5 999.206 567.278   3
   5   7   5 851.980 546.008   6
  -7  12   5 875.397 572.915   3
   7   5   5 192.738 546.747   4
   5   7   5 633.698 549.187   4
   7   5   6 22885.7 1492.81   4
   5   7   6 19980.6 1421.56   4
  -5  12   6 21340.5 1527.61   4
  -7  12   6 19747.4 1366.87   3
   7   5   6 19291.2 1230.16   6
   5   7   6 20429.9 1354.56   6
   7   5   7 785.596 285.732   4
   5   7   7 323.591 248.740   4
  -5  12   7 511.317 274.702   4
  -7  12   7-6.13630 232.552   4
 -12   8  -7 225.689 240.471   5
 -12   4  -7-230.271 247.203   5
   8 -12  -7-395.566 275.632   7
 -12   8  -6 15944.0 1359.66   5
  12  -8  -6 14508.0 1122.59   7
   8 -12  -6 14993.4 1225.92   7
 -12   8  -5 3865.62 871.761   5
  12  -8  -5 3914.57 744.998   7
   8 -12  -5 2800.72 686.045   7
 -12   8  -4 10349.0 1286.32   5
  12  -8  -4 10826.3 1134.36   7
   8 -12  -4 11446.8 1232.86   7
 -12   8  -3 14435.2 1465.69   5
 -12   8  -3 15251.9 2451.14   2
 -12   4  -3 17006.6 2690.97   2
  12  -8  -3 14914.6 1278.34   7
   8 -12  -3 14172.6 1377.96   7
 -12   8  -2 20590.4 1620.36   5
 -12   4  -2 19838.6 1592.64   5
 -12   4  -2 21565.1 2900.93   2
 -12   8  -2 19818.8 2697.77   2
  12  -8  -2 23571.2 1543.15   7
   8   4  -2 20601.7 1542.35   6
  12  -8  -1 1624.62 1002.55   8
  12  -4  -1 1290.86 736.458   8
 -12   8  -1 1510.32 537.949   5
 -12   4  -1 1839.65 512.145   5
 -12   4  -1 1083.81 840.801   1
 -12   4  -1 2117.98 1075.78   2
 -12   8  -1 1352.68 907.680   2
   8   4  -1 1523.87 500.671   6
 -12   4   0 27617.3 3376.09   1
  -8  12   0 24887.5 1557.69   5
 -12   8   0 28192.7 1766.40   5
 -12   8   0 25759.1 3143.86   1
 -12   4   0 25658.1 1598.88   5
   8   4   0 23235.3 1531.34   4
  12  -4   0 25882.8 2793.02   8
 -12   4   0 27865.8 3122.02   2
 -12   8   0 27126.1 3071.59   2
  12  -8   0 24182.2 2753.04   8
  12  -4   0 23607.8 1736.12   6
   8   4   0 22956.3 1558.39   6
   4   8   0 29299.3 1670.63   6
  -8  12   0 22365.3 1562.31   3
   8   4   1 1790.70 520.853   6
   4   8   1 960.853 406.637   6
   8 -12   1 1524.04 767.927   8
  12  -4   1 947.989 807.132   8
  -4  12   1 1910.04 572.665   3
  -8  12   1 761.407 430.257   5
 -12   8   1 1339.41 478.267   5
  -8  12   1 1627.51 592.905   3
  12  -8   1 2112.53 986.675   8
 -12   4   1 1110.06 1057.25   1
  -8  -4   1-158.849 692.307   1
   8   4   1 1467.73 464.146   4
 -12   8   1 1579.46 990.341   1
   4   8   1 1242.89 427.596   4
  12  -4   1 1356.10 473.565   6
 -12   8   2 23868.8 3430.85   1
 -12   8   2 21537.3 1725.32   5
  12  -4   2 19920.3 2586.92   8
  12  -8   2 20661.7 2731.12   8
   8 -12   2 21729.0 2685.93   8
   8   4   2 22777.8 1736.25   4
   4   8   2 18819.9 1525.79   4
  -8  -4   2 18498.5 3200.16   1
 -12   4   2 22028.8 3608.15   1
  -4  12   2 20203.4 1707.29   3
   8   4   2 19923.3 1615.92   6
   4   8   2 21716.5 1677.16   6
  -8  12   2 19786.4 1637.45   3
  -8  -4   3 11591.9 2936.77   1
  12  -8   3 11708.9 2316.57   8
   8 -12   3 12806.4 2329.70   8
   8   4   3 12560.1 1395.11   4
   4   8   3 15282.3 1511.62   4
  -4  -8   3 10859.0 2561.23   1
  -4  12   3 14122.2 1525.60   3
 -12   8   3 13705.1 2626.01   1
  -8  12   3 13462.6 1403.93   3
   8   4   3 13881.4 1496.13   6
   4   8   3 15671.6 1558.41   6
 -12   4   3 12021.4 3159.10   1
   8   4   4 10118.2 1328.38   4
   4   8   4 11947.5 1359.80   4
  -4  12   4 12340.7 1433.43   3
  -8  12   4 9213.85 1174.20   3
   8   4   4 10346.7 1280.78   6
   4   8   4 11071.3 1378.76   6
  -4  12   5 2765.53 715.391   3
   8   4   5 3014.27 686.822   6
   4   8   5 3839.21 854.668   6
  -8  12   5 2554.55 725.612   3
   8   4   5 3861.80 809.523   4
   4   8   5 4179.21 861.130   4
   8   4   6 14393.9 1173.93   4
   4   8   6 14822.9 1236.06   4
  -4  12   6 12440.8 1190.83   4
  -8  12   6 13389.6 1110.93   3
   4   8   6 13616.5 1140.42   6
   4   8   7-334.990 187.312   6
  -4  12   7 330.330 305.491   4
   8   4   7-554.265 233.294   4
   4   8   7-2.78744 215.290   4
  -8  12   7-145.151 267.750   4
 -12   9  -7 435.428 211.007   5
 -12   3  -7 798.865 296.481   5
  12  -9  -7 303.671 206.102   7
   9 -12  -7-138.459 242.728   7
 -12   9  -6 2287.23 601.433   5
  12  -9  -6 1014.39 440.754   7
   9 -12  -6 2182.95 570.400   7
 -12   9  -5 3725.36 874.139   5
  12  -9  -5 2876.16 692.044   7
   9 -12  -5 2710.67 711.022   7
 -12   9  -4 66638.4 3096.03   5
   9 -12  -4 61466.0 2743.88   7
 -12   9  -3 13827.4 1398.08   5
  12  -9  -3 16597.7 1383.48   7
   9 -12  -3 13709.3 1364.50   7
  -9  12  -2 3121.00 681.915   5
 -12   9  -2 2842.01 695.109   5
 -12   3  -2 2439.73 629.945   5
  12  -9  -2 2354.55 568.340   7
 -12   9  -2 2092.66 1018.10   2
 -12   3  -2 2125.63 895.125   2
   9   3  -2 2200.78 603.965   6
  -9  12  -1 11383.0 1140.27   5
 -12   9  -1 12526.0 1261.36   5
 -12   3  -1 12253.8 1148.60   5
  12  -9  -1 11960.5 2073.16   8
 -12   3  -1 12414.3 2240.47   1
 -12   3  -1 12680.2 2133.41   2
 -12   9  -1 10953.1 1890.81   2
   9   3  -1 13145.1 1204.04   6
  -9  12   0 24808.2 1692.37   3
  -9  12   0 22501.5 1535.97   5
   9   3   0 19578.8 1484.41   4
 -12   9   0 22009.2 1623.98   5
   9 -12   0 17947.4 2168.08   8
  12  -9   0 26629.2 2928.60   8
  12  -3   0 19580.4 2432.80   8
 -12   3   0 23197.3 2944.01   2
 -12   9   0 23690.0 2900.92   2
  12  -3   0 21915.9 1668.81   6
   9   3   0 25009.5 1641.17   6
   3   9   0 22522.3 1455.68   6
 -12   3   0 22167.2 3060.43   1
  -9  12   1 14033.6 1317.18   5
 -12   9   1 13244.6 1313.55   5
  12  -9   1 11216.1 1984.79   8
   9 -12   1 12590.3 1949.94   8
 -12   3   1 13671.1 2663.42   1
   9   3   1 14327.6 1320.65   4
 -12   9   1 14234.7 2380.29   1
  -9  -3   1 12605.5 2481.55   1
  12  -3   1 12018.7 1940.97   8
  12  -3   1 12463.4 1269.51   6
  -3  12   1 13857.6 1364.30   3
   9   3   1 12251.4 1205.69   6
   3   9   1 13942.1 1299.16   6
  -9  12   1 13341.1 1312.97   3
   9   3   2 2554.60 662.937   6
 -12   3   2 2274.56 1521.64   1
   3   9   2 1455.47 565.663   6
  -3  12   2 2067.81 679.498   3
 -12   9   2 2247.63 686.616   5
  -9  12   2 2474.97 624.370   3
  12  -9   2 1864.50 936.752   8
   9 -12   2 3379.93 1414.37   8
  -9  -3   2 1725.32 1730.71   1
   9   3   2 1920.14 604.598   4
 -12   9   2-110.939 671.842   1
   3   9   2 2663.85 644.178   4
  -9  -3   3 12447.5 2933.12   1
  12  -9   3 12767.5 2531.62   8
   9 -12   3 9244.70 2041.80   8
   9   3   3 14462.0 1531.18   4
   3   9   3 12269.8 1346.64   4
  -3  12   3 15036.8 1500.93   3
   9   3   3 14171.4 1444.89   6
  -9  12   3 11354.7 1338.17   3
   3   9   3 12392.1 1431.01   6
 -12   9   3 15943.8 1375.75   3
   9   3   4 66090.6 3106.49   4
   3   9   4 63300.3 2931.46   4
  -3  12   4 68422.0 3111.23   3
  -9  12   4 57929.9 2818.04   3
   9   3   4 66083.7 2934.09   6
   3   9   4 59763.2 3030.74   6
   9   3   5 3619.60 673.069   6
   3   9   5 2766.02 751.517   6
  -9  12   5 2794.74 705.761   3
   9   3   5 3474.71 738.603   4
   3   9   5 2210.29 637.797   4
  -3  12   5 2591.35 645.021   4
  -3  12   5 2372.64 605.210   3
   3   9   6 1929.47 554.713   6
   9   3   6 2247.48 523.563   4
   3   9   6 2331.11 560.360   4
  -3  12   6 2223.01 586.653   4
  -9  12   6 2166.74 495.051   3
   3   9   7 893.393 251.180   6
   3   9   7 852.926 295.139   4
  -3  12   7 1313.12 360.014   4
 -12   2  -7-168.434 189.925   5
  12 -10  -7-471.074 264.159   7
  10 -12  -7-122.640 203.401   7
 -12  10  -6 2022.88 509.075   5
  12 -10  -6 2839.05 554.022   7
  10 -12  -6 2145.14 568.799   7
 -12  10  -5-130.772 488.733   5
  12 -10  -5 262.160 475.606   7
  10 -12  -5 401.159 499.399   7
 -10  12  -4 45205.2 2239.97   5
 -12  10  -4 46736.6 2520.52   5
  12 -10  -4 43492.1 2261.83   7
 -10  12  -3 656.495 442.142   5
 -12  10  -3 167.452 497.504   5
 -12   2  -3-255.275 447.668   5
  12 -10  -3 1266.47 648.718   7
  10 -12  -3 443.591 517.420   7
 -10  12  -2 14966.4 1306.95   5
 -12  10  -2 10660.7 1233.24   5
 -12   2  -2 12898.4 1192.77   5
  10   2  -2 11921.0 1238.36   6
 -12  10  -2 11825.8 2061.80   2
 -12   2  -2 10617.1 2036.61   2
 -10  12  -1 5760.83 856.980   5
 -12   2  -1 4363.35 1249.31   1
 -12  10  -1 5566.95 910.047   5
  12 -10  -1 4159.23 1341.99   8
 -12   2  -1 7132.47 1747.72   2
 -12  10  -1 4342.11 1156.85   2
  12  -2  -1 4046.83 805.093   6
  10   2  -1 4961.45 826.549   6
 -10  12   0 3092.09 675.009   5
 -12  10   0 4274.70 863.385   5
  12 -10   0 5344.58 1440.69   8
  10 -12   0 3948.25 1046.76   8
 -12   2   0 4369.95 1395.21   2
 -12  10   0 4393.18 1272.99   2
  12  -2   0 3760.15 774.309   6
 -12   2   0 2979.78 1340.11   1
  10   2   0 3455.70 689.973   6
  10   2   1 3854.87 680.661   6
   2  10   1 5426.33 822.066   6
 -12   2   1 5773.89 1782.14   1
  -2  12   1 4485.35 827.129   3
 -10  12   1 4965.34 889.664   5
 -12  10   1 4334.25 842.409   5
  12 -10   1 4557.12 1367.42   8
  10 -12   1 3578.56 1277.80   8
  10   2   1 5711.06 879.848   4
 -10  12   1 4863.74 828.052   3
 -12  10   1 2957.64 1388.50   1
 -10  -2   1 4578.95 1470.42   1
  12  -2   1 4838.18 816.751   6
 -12  10   2 12631.1 1288.11   3
 -12   2   2 12823.0 2990.38   1
 -12  10   2 9199.38 2386.81   1
 -10  12   2 11051.1 1310.07   5
 -12  10   2 13287.9 1470.03   5
  10   2   2 15010.7 1477.59   4
  12 -10   2 12573.5 2223.62   8
  10 -12   2 12360.9 2251.25   8
   2  10   2 12470.0 1217.54   4
  -2  12   2 15923.0 1384.81   4
 -10  -2   2 13126.3 2798.63   1
  -2  12   2 15880.9 1480.43   3
  12  -2   2 12370.0 1202.96   6
  10   2   2 12928.1 1316.54   6
   2  10   2 13333.8 1398.31   6
 -10  12   2 13423.7 1344.50   3
  10   2   3 377.533 499.201   6
  -2  12   3 815.624 587.734   3
 -10  12   3 500.543 570.325   3
 -12  10   3-214.396 459.805   3
  10   2   3 392.497 515.033   4
   2  10   3 604.725 434.544   4
  -2  12   3 607.435 582.774   4
  10   2   4 45553.4 2564.85   4
   2  10   4 43009.0 2448.28   4
  -2  12   4 44993.7 2440.62   4
  -2  12   4 45483.8 2489.08   3
 -10  12   4 46415.1 2487.28   3
  10   2   4 48032.5 2366.35   6
   2  10   5 37.5961 480.661   6
 -10  12   5 379.628 393.506   3
  10   2   5-283.264 418.232   4
   2  10   5 327.824 467.087   4
  -2  12   5 344.243 427.909   4
   2  10   6 1930.21 523.399   6
  10   2   6 1938.34 442.482   4
   2  10   6 1759.54 543.669   4
  -2  12   6 2712.01 603.456   4
   2  10   7-51.5219 175.521   6
  -2  12   7 218.928 196.778   6
   2  10   7-19.4890 190.746   4
  -2  12   7 196.640 226.238   4
  12 -11  -7 192.447 176.739   7
  11 -12  -7 436.147 196.013   7
 -12  11  -6 6159.21 677.171   5
 -12   1  -6 5029.68 716.557   5
  12 -11  -6 5612.60 746.041   7
  11 -12  -6 5386.24 717.107   7
 -11  12  -5 761.214 404.878   5
 -12  11  -5-216.660 483.714   5
  12 -11  -5 880.081 551.158   7
  11 -12  -5 795.749 582.385   7
 -11  12  -4 8221.88 1041.50   5
 -12  11  -4 7873.28 1052.75   5
  12 -11  -4 8863.20 1090.68   7
  11 -12  -4 11151.8 1230.39   7
 -11  12  -3 3736.68 734.000   5
 -12  11  -3 2499.97 693.069   5
  12 -11  -3 3604.71 798.815   7
  11 -12  -3 3726.86 850.538   7
 -11  12  -2 29546.5 1834.20   5
 -12  11  -2 29065.1 1885.18   5
 -12  11  -2 24340.9 2950.89   2
 -12   1  -2 31114.4 3460.74   2
  11   1  -2 22543.2 1758.93   6
 -12  11  -1 5223.03 889.633   5
 -12   1  -1 4289.04 1252.42   1
 -11  12  -1 5442.44 869.864   5
  11 -12  -1 4300.71 1204.44   8
  12 -11  -1 5118.61 1437.14   8
 -12   1  -1 4619.67 1301.47   2
 -12  11  -1 1722.89 702.422   2
  12  -1  -1 2944.96 665.568   6
  11   1  -1 3856.09 806.747   6
 -11  12   0 3951.52 764.019   5
 -12  11   0 4037.98 822.631   5
  12 -11   0 5161.36 1325.03   8
  11 -12   0 4737.37 1280.83   8
 -11  -1   0 3238.26 1299.98   1
 -12   1   0 4344.25 1356.52   2
 -12  11   0 7457.01 1635.81   2
 -12   1   0 5949.46 1727.79   1
  12  -1   0 5372.35 908.067   6
  11   1   0 5035.68 828.240   6
   1  11   1 3944.39 777.140   6
 -11  -1   1 3491.15 1258.05   1
 -11  12   1 3696.81 819.208   5
 -12  11   1 2783.40 726.577   5
 -12   1   1 2403.65 875.529   1
 -11  12   1 2727.33 722.206   3
 -12   1   1 4342.89 1490.43   2
  12 -11   1 3265.38 1106.12   8
  11 -12   1 4439.64 1301.12   8
 -12  11   1 5055.39 1279.94   2
  12  -1   1 3217.57 699.885   6
  11   1   1 4404.52 822.137   6
 -11  12   2 27616.7 2014.60   5
 -12  11   2 29857.2 2114.58   5
  12 -11   2 27526.7 3335.47   8
  11 -12   2 24474.2 3142.35   8
  11   1   2 30351.7 2138.89   4
   1  11   2 23827.6 1697.77   4
  -1  12   2 33250.9 1998.50   4
 -11  -1   2 28445.1 4193.76   1
   1  11   2 24535.7 1812.21   3
 -12   1   2 25583.8 4004.50   1
  -1  12   2 26039.9 1844.06   3
  12  -1   2 27544.3 1830.09   6
  11   1   2 23596.1 1766.28   6
   1  11   2 30379.4 2033.62   6
 -11  12   2 27569.8 1911.59   3
 -12  11   2 25811.0 1823.08   3
  11   1   3 2644.17 681.607   6
  -1  12   3 3936.13 856.774   3
 -11  12   3 3272.99 746.480   3
 -12  11   3 2170.38 607.996   3
  12  -1   3 1310.02 548.630   4
  11   1   3 3244.81 837.472   4
   1  11   3 3786.65 803.575   4
  -1  12   3 2943.73 736.555   4
  12  -1   3 3276.73 680.158   6
  11   1   4 8795.89 1130.56   4
   1  11   4 9744.18 1189.11   4
  -1  12   4 8044.35 1071.64   4
  11   1   4 8196.11 960.470   6
 -11  12   4 8258.06 1107.69   3
 -12  11   4 7860.87 1041.69   3
   1  11   5 16.1247 430.959   6
 -11  12   5 371.926 407.739   3
  11   1   5 340.706 378.712   4
   1  11   5-11.9151 489.084   4
  -1  12   5 732.603 501.327   4
   1  11   6 4885.05 742.085   6
   1  11   6 6822.24 834.161   4
  -1  12   6 6929.40 817.696   4
  -1  12   7 462.065 202.699   6
   1  11   7 758.852 244.120   4
  -1  12   7 767.426 245.584   4
 -12   0  -6 9750.67 790.258   5
  12 -12  -6 8922.98 832.120   7
 -12  12  -5 6752.29 824.951   5
 -12   0  -5 6073.01 822.457   5
  12 -12  -5 7954.90 971.059   7
 -12  12  -4 7032.81 972.557   5
  12 -12  -4 9408.93 1109.59   7
 -12  12  -3 491.122 541.862   5
  12 -12  -3 1291.67 603.483   7
 -12  12  -2 28915.1 1849.28   5
 -12  12  -1 1762.54 637.205   5
  12 -12  -1 1499.71 861.100   8
  12   0  -1 1048.64 477.885   6
 -12   0   0 5351.29 1661.35   1
 -12  12   0 2328.64 656.488   5
  12 -12   0 3394.05 1081.12   8
  12   0   0 3612.21 793.186   6
   0  12   1 1648.31 537.874   6
 -12  12   1 2010.41 616.765   5
 -12  12   1 1795.81 624.544   3
  12 -12   1 1528.03 776.122   8
  12   0   1 2024.69 673.278   6
 -12  12   2 29367.7 2122.08   5
   0  12   2 34384.5 2003.05   4
   0  12   2 27595.6 1850.65   3
  12   0   2 27177.5 1858.85   6
   0  12   2 30204.8 1988.94   6
 -12  12   2 28607.2 1943.14   3
 -12  12   3 731.746 567.487   3
  12   0   3-571.532 679.392   4
   0  12   3 1161.02 606.743   4
  12   0   3 340.522 350.840   6
  12   0   4 6374.03 963.934   4
   0  12   4 8282.53 1076.23   4
 -12  12   4 8565.37 1087.78   3
   0  12   5 5208.62 857.079   6
   0  12   5 7230.43 936.886   4
   0  12   6 10745.9 948.728   4
   0  12   6 7715.16 820.195   6
 -13   7  -7 357.332 203.155   5
 -13   6  -7 223.215 210.262   5
 -13   7  -6 7811.88 930.772   5
 -13   6  -6 6737.87 873.827   5
  13  -7  -6 5651.97 677.356   7
   7 -13  -6 6571.93 686.749   7
 -13   7  -5 4046.26 875.113   5
 -13   6  -5 3424.68 763.450   5
  13  -7  -5 3839.76 704.234   7
   6 -13  -5 3881.20 680.772   7
   7 -13  -5 3760.83 677.081   7
 -13   7  -4 2742.58 767.593   5
 -13   6  -4 1668.14 664.519   5
  13  -7  -4 2050.66 581.231   7
   6 -13  -4 1572.65 527.308   7
   7 -13  -4 2045.80 616.615   7
 -13   7  -3 19525.4 1703.24   5
 -13   6  -3 18579.8 1642.23   5
   6 -13  -3 20811.0 1526.03   7
   7 -13  -3 18920.4 1524.15   7
 -13   7  -2 44575.6 2439.84   5
 -13   6  -2 43928.7 2407.38   5
 -13   6  -2 42350.8 4149.77   2
 -13   7  -2 45853.3 4218.31   2
   7   6  -2 44272.9 2121.94   6
 -13   7  -1 26872.9 1786.33   5
 -13   6  -1 27855.9 1757.69   5
 -13   6  -1 25025.4 3327.34   1
  13  -6  -1 24061.3 2878.41   8
 -13   6  -1 28301.2 3149.47   2
 -13   7  -1 26543.3 3119.04   2
  13  -7  -1 26547.2 3094.15   8
   7   6  -1 27223.0 1693.87   6
   6   7  -1 28025.1 1683.76   6
  -7  13  -1 22760.2 1602.65   3
 -13   6   0 46914.9 4455.58   1
 -13   7   0 37921.8 4224.03   1
 -13   7   0 44798.4 2238.42   5
 -13   6   0 42795.1 2175.07   5
  13  -7   0 43552.9 3891.22   8
 -13   6   0 46324.9 4154.15   2
 -13   7   0 48553.1 4259.99   2
   7   6   0 43228.1 2072.09   4
  13  -6   0 40250.7 3746.18   8
   7   6   0 52364.4 2378.95   6
   6   7   0 48002.5 2290.79   6
  -6  13   0 40815.2 2185.01   3
  -7  13   0 43796.1 2291.16   3
 -13   6   1 24764.1 3458.17   1
 -13   7   1 27086.1 3620.92   1
 -13   6   1 23525.2 1692.77   5
 -13   7   1 24103.4 1745.51   5
  13  -6   1 26511.5 3060.30   8
  13  -7   1 27077.5 3139.39   8
   7   6   1 27366.7 1753.00   4
   6   7   1 24586.3 1615.08   4
   7   6   1 28006.0 1814.49   6
   6   7   1 30404.0 1923.43   6
  -6  13   1 25959.1 1816.00   3
  -7  13   1 24950.8 1759.36   3
 -13   6   2 45213.0 2421.01   5
 -13   7   2 43928.2 2453.59   5
  13  -6   2 44764.9 4045.70   8
   7   6   2 45205.6 2387.97   4
   6   7   2 43294.1 2344.69   4
  13  -7   2 44144.2 4134.28   8
  -6  13   2 41951.7 2467.33   3
  -7  13   2 46356.3 2511.26   3
   7   6   2 51590.0 2581.70   6
   6   7   2 46873.3 2517.64   6
 -13   6   2 45577.9 4990.05   1
 -13   7   2 43734.6 4874.10   1
   7   6   3 19712.2 1707.89   4
   6   7   3 19098.9 1660.78   4
  -6  13   3 15967.8 1661.05   3
  -7  13   3 18594.8 1707.59   3
   7   6   3 16893.2 1594.91   6
   6   7   3 19484.5 1748.28   6
   7   6   4 2130.45 740.676   6
   6   7   4 1700.13 729.733   6
  -6  13   4 2180.50 706.849   3
  -7  13   4 1709.04 711.003   3
   7   6   4 2683.88 856.939   4
   6   7   4 2480.88 716.300   4
   7   6   5 3086.74 674.743   6
  -6  13   5 4138.31 860.300   3
   6   7   5 4375.12 794.627   6
  -7  13   5 4374.65 807.219   3
   7   6   5 3761.24 777.169   4
   6   7   5 4047.96 835.099   4
   7   6   6 5912.84 741.911   4
   6   7   6 6619.15 791.129   4
  -6  13   6 7221.77 891.563   4
   7   6   6 5317.60 612.896   6
   6   7   6 6178.72 690.093   6
   6   7   7 472.377 209.014   4
  -6  13   7 503.015 205.307   4
  -7  13   7 230.283 209.117   4
 -13   8  -7-1.30047 165.508   5
 -13   5  -7 261.076 212.026   5
 -13   8  -6 7650.98 895.056   5
 -13   5  -6 9323.49 987.815   5
  13  -8  -6 6621.40 705.373   7
   8 -13  -6 7542.55 766.640   7
 -13   8  -5-306.708 566.327   5
 -13   5  -5-189.767 555.440   5
  13  -8  -5-36.8984 351.312   7
   8 -13  -5-319.920 413.389   7
 -13   8  -4 7270.94 1145.31   5
 -13   5  -4 5812.85 1022.64   5
  13  -8  -4 8807.89 1028.89   7
   5 -13  -4 6938.35 844.994   7
   8 -13  -4 6838.88 989.404   7
 -13   8  -3 7523.60 1112.26   5
 -13   5  -3 6264.94 1000.37   5
  13  -8  -3 6064.57 879.976   7
   5 -13  -3 5650.75 852.790   7
   8 -13  -3 6109.21 953.924   7
 -13   8  -2 8595.26 1113.14   5
 -13   5  -2 9402.50 1145.61   5
   8   5  -2 8108.49 1008.15   6
 -13   5  -2 7643.95 1710.50   2
 -13   8  -2 8482.23 1773.82   2
 -13   8  -1 17600.2 1486.83   5
 -13   5  -1 16371.7 1379.97   5
 -13   5  -1 18350.5 2757.41   1
  13  -8  -1 18929.2 2626.74   8
 -13   5  -1 15021.6 2304.73   2
 -13   8  -1 15656.6 2436.13   2
   8   5  -1 17954.7 1408.57   6
   5   8  -1 16083.1 1267.51   6
  -8  13  -1 18563.8 1499.99   3
 -13   5   0 79577.7 5895.14   1
 -13   8   0 72106.4 2888.45   5
 -13   5   0 77873.9 2881.54   5
 -13   8   0 76880.0 5653.11   1
  13  -5   0 78675.7 5127.25   8
  13  -8   0 86715.7 5453.10   8
 -13   5   0 83888.0 5497.07   2
 -13   8   0 86913.7 5665.19   2
   8   5   0 65934.9 2690.61   4
   8   5   0 81990.3 3003.14   6
   5   8   0 77686.0 2845.93   6
  -5  13   0 79450.3 3024.33   3
  -8  13   0 82891.8 3101.77   3
 -13   5   1 14162.9 1338.57   5
 -13   8   1 16305.4 1515.16   5
  13  -8   1 17527.5 2518.41   8
   8   5   1 16901.6 1390.35   4
   5   8   1 18904.6 1393.81   4
   8   5   1 15795.4 1384.91   6
  -5  13   1 18910.6 1598.68   3
   5   8   1 17278.2 1447.67   6
  -8  13   1 17639.9 1494.59   3
 -13   8   1 15817.0 2826.85   1
 -13   5   1 18175.5 2925.26   1
  13  -5   1 17408.6 2423.65   8
 -13   8   2 9235.76 1205.56   5
  -5  13   2 9721.21 1196.19   3
  -8  13   2 8487.75 1134.82   3
 -13   8   2 8786.37 2378.23   1
  13  -5   2 7641.75 1631.69   8
  13  -8   2 7407.86 1824.60   8
   8   5   2 11605.1 1301.13   4
   5   8   2 7148.67 1006.75   4
 -13   5   2 9197.81 2619.07   1
   8   5   2 9544.17 1206.81   6
   5   8   2 10560.1 1246.15   6
   8   5   3 7462.70 1150.22   6
   5   8   3 7802.62 1154.03   6
  -5  13   3 6885.39 1161.69   3
  -8  13   3 7283.90 1131.04   3
   8   5   3 6742.13 1076.54   4
   5   8   3 6239.28 999.950   4
   8   5   4 7898.27 1109.92   6
   5   8   4 7665.52 1136.18   6
  -5  13   4 6930.93 1128.71   3
  -8  13   4 7472.38 1151.33   3
   8   5   4 7608.19 1116.01   4
   5   8   4 7413.52 1081.17   4
   8   5   5 542.584 413.273   6
  -5  13   5 338.111 478.145   3
   5   8   5 692.809 551.697   6
  -8  13   5 239.507 402.765   3
   8   5   5-58.2620 476.529   4
   5   8   5 226.593 481.603   4
   8   5   6 7174.54 780.212   4
   5   8   6 7177.01 830.321   4
  -5  13   6 6651.11 809.578   4
   8   5   6 5514.29 605.709   6
   5   8   6 6260.90 744.632   6
   5   8   7 389.967 190.360   4
  -5  13   7 371.552 218.758   4
  -8  13   7 180.996 170.162   4
 -13   4  -7 1413.15 282.662   5
 -13   9  -6 6276.57 768.902   5
 -13   4  -6 8110.18 903.227   5
  13  -9  -6 6747.23 722.964   7
   9 -13  -6 5884.99 684.821   7
 -13   9  -5 20.5062 484.367   5
 -13   4  -5 699.269 537.314   5
  13  -9  -5 514.089 420.918   7
   9 -13  -5 651.847 502.092   7
 -13   9  -4 24031.1 1879.70   5
 -13   4  -4 22818.5 1814.36   5
  13  -9  -4 23232.7 1618.20   7
   9 -13  -4 24686.4 1729.26   7
 -13   9  -3 5048.76 1005.38   5
 -13   4  -3 3585.49 757.746   5
  13  -9  -3 3929.15 740.626   7
   9 -13  -3 3241.93 781.529   7
 -13   9  -2 4843.48 885.937   5
 -13   4  -2 3762.93 750.399   5
  13  -9  -2 7919.07 988.371   7
 -13   9  -2 4746.13 1518.52   2
 -13   4  -2 3994.89 1431.65   2
   9   4  -2 4346.54 762.415   6
 -13   9  -1 4515.98 862.636   5
 -13   4  -1 3429.97 1276.17   1
 -13   4  -1 5434.36 837.768   5
  -9  13  -1 4801.22 873.932   3
  13  -9  -1 4821.30 1401.79   8
 -13   4  -1 7182.78 1733.03   2
 -13   9  -1 2878.86 1200.78   2
   9   4  -1 4835.90 821.158   6
 -13   4   0 27750.3 3572.99   1
  -9  13   0 22574.7 1602.21   5
 -13   9   0 26232.6 1800.27   5
  13  -4   0 30688.0 3243.77   8
  13  -9   0 25314.0 3005.21   8
   9   4   0 21982.1 1601.19   4
 -13   4   0 25451.6 3092.72   2
 -13   9   0 23183.4 2913.37   2
   9   4   0 22064.6 1600.80   6
   4   9   0 23632.6 1553.97   6
  -9  13   0 24764.9 1732.10   3
   9   4   1 4616.11 824.261   6
   4   9   1 4578.26 813.892   6
  -4  13   1 5034.66 866.834   3
  -9  13   1 4222.27 728.991   5
 -13   9   1 4310.34 803.070   5
  -9  13   1 3835.22 793.097   3
  13  -4   1 3495.24 1233.04   8
  13  -9   1 4433.88 1491.99   8
   9   4   1 4346.13 828.781   4
 -13   9   1 5415.78 1616.24   1
 -13   4   1 3249.84 1475.03   1
  13  -4   1 4137.30 760.898   6
   9   4   2 3965.27 840.687   6
   4   9   2 5166.77 909.683   6
  -4  13   2 6309.45 986.643   3
 -13   9   2 5343.93 993.251   5
  -9  13   2 5127.88 895.209   3
 -13   9   2 5273.43 885.501   3
  13  -9   2 3450.45 1376.27   8
  -9  -4   2 6873.24 1912.72   1
   9   4   2 3505.90 769.998   4
   4   9   2 5539.15 921.251   4
 -13   9   2 3298.83 1817.74   1
   9   4   3 5128.32 938.381   6
   4   9   3 4626.87 923.996   6
  -4  13   3 5311.60 1011.41   3
  -9  13   3 3554.65 854.099   3
   9   4   3 4671.32 901.503   4
   4   9   3 3205.58 749.266   4
   9   4   4 26637.0 2004.92   4
   4   9   4 22731.6 1817.27   4
  -4  13   4 26866.0 2019.62   3
   9   4   4 25173.9 1855.03   6
   4   9   4 24758.3 1963.46   6
   9   4   5-66.1993 347.346   6
   4   9   5 77.5697 431.873   6
  -9  13   5 228.004 420.413   3
   9   4   5-359.252 495.601   4
   4   9   5 28.7553 440.186   4
  -4  13   5-735.760 510.884   4
  -4  13   5-216.754 508.972   3
   9   4   6 5881.10 729.955   4
   4   9   6 6452.74 782.006   4
  -4  13   6 5997.90 762.393   4
   4   9   6 6187.77 747.118   6
   4   9   7 1007.89 243.548   4
  -4  13   7 2169.32 340.929   4
  -9  13   7 1661.02 311.590   4
 -13  10  -6 4081.41 591.614   5
 -13   3  -6 5121.45 713.201   5
  13 -10  -6 3913.67 575.966   7
  10 -13  -6 4028.27 595.213   7
 -13  10  -5 1173.51 547.470   5
 -13   3  -5 528.658 434.048   5
  13 -10  -5 987.340 440.742   7
  10 -13  -5 576.043 489.402   7
 -13  10  -4 21127.9 1732.89   5
 -13   3  -4 21180.4 1686.30   5
  13 -10  -4 22588.1 1581.96   7
  10 -13  -4 20929.8 1605.31   7
 -13  10  -3 7426.65 1083.77   5
 -13   3  -3 6927.24 959.402   5
  13 -10  -3 7739.11 988.052   7
  10 -13  -3 9489.83 1152.52   7
 -10  13  -2 12016.8 1206.65   5
 -13  10  -2 11935.5 1282.52   5
 -13   3  -2 11018.1 1144.81   5
  13 -10  -2 9061.58 1090.54   7
  10   3  -2 9638.22 1154.69   6
 -13   3  -1 1659.01 683.462   1
 -10  13  -1 2666.11 652.098   5
 -13  10  -1 3738.68 884.743   5
  13 -10  -1 2365.81 1088.33   8
 -13   3  -1 2268.98 1102.98   2
 -13  10  -1 3328.27 1224.21   2
  10   3  -1 2618.68 699.257   6
 -10  13   0 8537.59 1103.78   3
 -10  13   0 7954.20 974.595   5
 -13  10   0 9123.06 1188.31   5
 -13   3   0 11443.9 2282.69   1
  13 -10   0 9925.76 1997.73   8
 -13   3   0 7685.40 1756.56   2
 -13  10   0 6878.32 1593.97   2
  10   3   0 8682.55 1075.71   6
   3  10   0 8553.34 969.782   6
  13  -3   0 7942.54 1037.83   6
  10   3   1 2720.19 685.233   6
   3  10   1 3203.33 702.515   6
  -3  13   1 2640.27 703.230   3
 -13  10   1 3058.69 1253.88   1
 -10  13   1 1882.35 634.391   5
 -13  10   1 2005.05 609.922   5
 -10  13   1 2140.15 676.297   3
 -13   3   1 1627.43 1069.93   2
 -13  10   1 2005.16 1002.56   2
  13 -10   1 2029.23 947.178   8
  10   3   1 2375.71 638.664   4
 -13   3   1 3557.36 1550.13   1
  13  -3   1 2240.69 685.471   6
 -13  10   2 11518.6 1250.84   3
 -13  10   2 10497.5 1297.13   5
  10   3   2 12605.5 1425.17   4
   3  10   2 9268.70 1136.75   4
  13  -3   2 10610.0 1197.19   6
  -3  13   2 11212.9 1307.59   3
  10   3   2 11715.9 1296.41   6
   3  10   2 11256.2 1262.02   6
 -10  13   2 9813.68 1199.77   3
  10   3   3 7506.07 1086.01   6
  -3  13   3 7171.37 1096.93   3
   3  10   3 7349.20 1167.18   6
 -10  13   3 7184.50 1052.11   3
  -3  13   3 7569.00 1025.24   4
  10   3   3 6919.68 1131.89   4
   3  10   3 7871.20 1059.83   4
 -13  10   3 7647.40 998.335   3
  10   3   4 22689.3 1862.83   4
   3  10   4 22273.2 1739.56   4
  -3  13   4 21751.1 1653.71   4
  -3  13   4 22710.7 1843.33   3
 -10  13   4 21492.7 1704.88   3
  10   3   4 22228.5 1672.67   6
   3  10   4 21761.9 1818.75   6
  10   3   5 1010.82 407.806   6
   3  10   5 321.198 430.205   6
 -10  13   5 1105.79 528.482   3
  10   3   5 1704.37 584.437   4
   3  10   5 788.940 491.037   4
  -3  13   5 465.942 387.146   4
   3  10   6 3399.20 601.905   6
  10   3   6 3450.06 522.432   4
   3  10   6 4248.12 650.042   4
  -3  13   6 3452.26 590.095   4
 -13  11  -6 4369.90 590.841   5
 -13   2  -6 5123.88 621.980   5
  11 -13  -6 5265.80 647.450   7
  13 -11  -6 4674.58 607.174   7
 -13  11  -5 574.449 425.313   5
 -13   2  -5 609.904 425.755   5
  13 -11  -5 1265.44 515.579   7
  11 -13  -5 1382.85 519.955   7
 -11  13  -4 19231.5 1390.19   5
 -13  11  -4 14776.8 1421.39   5
 -13   2  -4 17090.7 1478.70   5
  13 -11  -4 16578.6 1390.57   7
  11 -13  -4 19789.1 1546.87   7
 -11  13  -3 1391.19 518.568   5
 -13  11  -3 385.241 433.304   5
 -13   2  -3 1125.78 484.525   5
  13 -11  -3 714.858 502.203   7
  11 -13  -3 978.394 634.885   7
 -11  13  -2 19301.6 1514.43   5
 -13  11  -2 17366.1 1512.99   5
  13 -11  -2 17802.6 1443.99   7
  11   2  -2 16004.4 1471.03   6
 -11  13  -1 5858.35 928.412   5
 -13  11  -1 7086.34 1008.89   5
 -13  11  -1 4445.78 1284.97   2
  11   2  -1 5666.82 946.834   6
 -11  13   0 1315.43 508.268   5
 -13  11   0 2614.87 740.299   5
 -13   2   0 1036.21 728.293   1
 -11  13   0 2782.34 768.875   3
  13 -11   0 2956.89 1178.08   8
 -13   2   0 1600.13 925.858   2
 -13  11   0 1978.69 1068.38   2
  13  -2   0 938.627 410.551   6
  11   2   0 2541.07 672.088   6
  -2  13   1 5157.50 889.709   3
 -11  13   1 5258.74 911.582   5
 -13  11   1 5512.65 911.438   5
 -11  13   1 4862.91 878.259   3
  11 -13   1 6354.00 1509.66   8
 -13  11   1 5244.73 1464.79   2
   2  11   1 6632.43 916.206   6
  13  -2   1 6484.52 993.165   6
  11   2   1 7120.71 994.412   6
 -13  11   2 18511.1 1691.19   5
  11   2   2 17410.8 1653.41   4
   2  11   2 20129.3 1558.72   4
  -2  13   2 19287.1 1629.06   3
  13  -2   2 17015.2 1449.30   6
  11   2   2 17826.7 1585.39   6
   2  11   2 20247.1 1695.41   6
 -11  13   2 17892.6 1571.60   3
 -13  11   2 19031.9 1583.34   3
  11   2   3 525.371 443.426   6
  -2  13   3 771.653 497.757   3
   2  11   3 1340.14 647.782   6
 -11  13   3 944.175 562.267   3
 -13  11   3-473.263 553.792   3
  11   2   3 191.877 594.673   4
   2  11   3 799.006 528.280   4
  -2  13   3 926.973 426.341   4
  11   2   4 22299.8 1818.85   4
   2  11   4 19232.7 1602.10   4
  -2  13   4 16915.3 1436.29   4
  -2  13   4 18892.2 1576.17   3
 -11  13   4 18818.7 1551.58   3
  11   2   4 18015.0 1403.83   6
   2  11   4 17265.2 1598.89   6
   2  11   5 1330.79 578.155   6
 -11  13   5 1566.06 499.550   3
  11   2   5 335.701 365.996   4
   2  11   5 1382.06 596.313   4
  -2  13   5 1032.98 435.652   4
   2  11   6 4057.20 594.806   6
  -2  13   6 2705.89 514.523   6
   2  11   6 4827.25 645.311   4
  -2  13   6 4305.61 605.302   4
 -13  12  -6 4540.92 478.661   5
 -13   1  -6 4085.84 476.350   5
  13 -12  -6 3600.93 495.360   7
  12 -13  -6 4686.24 570.128   7
 -13  12  -5 674.223 396.455   5
 -13   1  -5-379.087 349.287   5
  13 -12  -5 206.534 452.896   7
  12 -13  -5 95.2624 435.406   7
 -12  13  -4 18651.1 1406.60   5
 -13  12  -4 20132.1 1534.08   5
 -13   1  -4 19265.0 1438.97   5
  13 -12  -4 23946.1 1623.95   7
  12 -13  -4 24358.5 1687.82   7
 -12  13  -3 8657.41 1057.22   5
 -13  12  -3 8337.61 1123.73   5
  13 -12  -3 8844.76 1037.75   7
  12 -13  -3 8831.82 1156.61   7
 -12  13  -2 16530.6 1429.04   5
 -13  12  -2 19174.4 1576.17   5
  13 -12  -2 16899.9 1426.50   7
 -12  13  -1 5134.27 833.573   5
 -13  12  -1 6624.08 1000.79   5
  13  -1  -1 4898.58 772.552   6
  12   1  -1 4651.75 847.106   6
 -12  13   0 1352.68 520.610   5
 -13  12   0 1502.33 604.601   5
  13  -1   0 996.356 474.641   6
  12   1   0 2177.52 675.415   6
   1  12   1 5899.09 856.963   6
 -12  13   1 5204.58 884.217   5
 -13  12   1 4934.49 948.056   5
 -12  13   1 4291.17 797.782   3
 -13  12   1 5624.36 925.709   3
  13  -1   1 5515.44 913.260   6
  12   1   1 5662.64 932.669   6
 -13  12   2 18830.4 1708.86   5
   1  12   2 15745.8 1353.29   4
  -1  13   2 12811.1 1281.14   3
  13  -1   2 17787.5 1491.37   6
  12   1   2 19374.8 1630.91   6
   1  12   2 17114.9 1539.32   6
  -1  13   2 18868.7 1571.78   6
 -12  13   2 14520.2 1426.83   3
 -13  12   2 16340.7 1487.01   3
   1  12   3 6493.29 1085.52   6
 -12  13   3 6763.62 999.526   3
  12   1   3 7689.08 1161.47   4
   1  12   3 7259.43 1063.45   4
  -1  13   3 6703.85 984.213   4
  -1  13   3 7116.96 955.443   3
  13  -1   3 8453.84 979.046   6
 -13  12   3 7957.81 1052.01   3
  12   1   3 5963.62 934.694   6
  12   1   4 19713.0 1625.79   4
   1  12   4 23282.6 1662.97   4
  -1  13   4 22030.9 1612.59   4
  12   1   4 20488.9 1377.75   6
 -12  13   4 20960.7 1627.72   3
 -13  12   4 20050.6 1479.27   3
   1  12   4 21854.7 1780.53   6
   1  12   5-117.638 434.650   6
 -12  13   5-161.858 282.534   3
  -1  13   5-456.016 467.079   6
   1  12   5 647.032 482.451   4
  -1  13   5 735.174 405.390   4
   1  12   6 3564.57 509.803   6
  -1  13   6 3761.13 539.655   6
   1  12   6 4956.97 606.119   4
  -1  13   6 5025.70 615.410   4
  13 -13  -6 10227.7 728.005   7
 -13  13  -5 276.547 242.387   5
  13 -13  -5 1121.93 474.440   7
 -13  13  -4 6120.96 834.788   5
  13 -13  -4 6411.30 891.279   7
 -13  13  -3 12283.0 1238.04   5
  13 -13  -3 14098.0 1265.37   7
 -13  13  -2 36107.0 2073.70   5
 -13  13  -1 679.565 466.557   5
  13   0  -1-428.029 664.527   6
 -13  13   0 2718.42 679.608   5
  13   0   0 3617.67 770.311   6
 -13  13   1 447.756 562.989   5
 -13  13   1 1207.89 588.767   3
  13   0   1 1158.03 560.469   6
  13   0   2 31821.0 2003.02   6
   0  13   2 36322.1 2142.82   6
 -13  13   2 34053.4 2122.53   3
   0  13   3 13620.2 1297.51   4
  13   0   3 11517.5 1156.36   6
 -13  13   3 11657.0 1235.76   3
   0  13   3 13327.8 1349.40   6
   0  13   4 4091.64 734.384   6
 -13  13   4 6013.74 864.587   3
   0  13   4 6434.01 898.893   4
   0  13   5 249.445 348.999   6
   0  13   5 863.588 388.466   4
   0  13   6 9538.31 724.110   4
   0  13   6 8288.24 684.084   6
 -14   7  -6 1541.04 425.825   5
 -14   7  -5-372.032 511.127   5
   7 -14  -5 599.646 421.581   7
 -14   7  -4 19690.6 1702.21   5
   7 -14  -4 18225.8 1360.01   7
 -14   7  -3 169.027 493.690   5
   7 -14  -3 609.638 441.836   7
 -14   7  -2 3749.36 820.260   5
   7   7  -2 5314.05 765.522   6
 -14   7  -1 1084.59 511.149   5
   7   7  -1 581.848 422.529   6
 -14   7   0 160774. 4338.10   5
  14  -7   0 160915. 7697.51   8
   7   7   0 148818. 4107.87   6
  -7  14   0 168594. 4535.20   3
   7   7   1 968.526 427.179   6
  -7  14   1 729.477 509.062   3
 -14   7   1-332.087 461.880   5
   7   7   1 964.134 405.499   4
   7   7   2 4572.36 875.950   6
  -7  14   2 4461.19 950.327   3
 -14   7   2 4124.45 823.483   5
   7   7   2 4656.49 804.324   4
   7   7   3 465.327 599.199   6
  -7  14   3 230.526 525.096   3
   7   7   3 644.111 599.854   4
   7   7   4 20220.4 1665.55   4
  -7  14   4 19131.1 1652.03   3
   7   7   4 19515.6 1645.10   6
   7   7   5-168.986 355.336   6
  -7  14   5 333.600 446.514   3
   7   7   5 3.04303 424.482   4
   7   7   6 226.148 219.952   6
   7   7   6 400.709 301.570   4
  -7  14   6 528.218 267.867   4
 -14   8  -6 4363.71 606.638   5
 -14   6  -6 4884.52 671.854   5
   8 -14  -6 3734.99 477.579   7
 -14   8  -5 580.382 477.305   5
 -14   6  -5-102.781 417.960   5
  14  -8  -5 383.161 308.796   7
   8 -14  -5 605.382 425.904   7
 -14   8  -4 4519.46 922.310   5
 -14   6  -4 3298.47 779.958   5
  14  -8  -4 5926.02 789.368   7
   6 -14  -4 3753.62 640.692   7
   8 -14  -4 4659.50 762.698   7
 -14   8  -3 3232.74 830.774   5
 -14   6  -3 2262.42 611.277   5
   6 -14  -3 2657.74 617.070   7
   8 -14  -3 3524.62 697.302   7
 -14   8  -2 24764.0 1844.98   5
 -14   6  -2 22594.4 1794.70   5
   8   6  -2 27526.3 1739.38   6
  -8  14  -1 2346.43 652.293   3
 -14   8  -1 3846.37 788.158   5
 -14   6  -1 3795.57 776.964   5
   8   6  -1 3601.09 690.144   6
   6   8  -1 4326.54 712.280   6
 -14   8   0 15777.3 1438.54   5
 -14   6   0 15802.1 1377.17   5
  14  -6   0 14935.2 2398.10   8
  14  -8   0 17646.2 2609.39   8
   8   6   0 15313.8 1311.82   4
   8   6   0 16314.6 1399.72   6
   6   8   0 17675.3 1423.74   6
  -6  14   0 16331.6 1456.70   3
  -8  14   0 16260.1 1475.61   3
   8   6   1 3328.75 767.174   6
   6   8   1 3589.67 794.846   6
  -6  14   1 2968.11 770.038   3
  -8  14   1 3819.79 806.687   3
 -14   6   1 3185.63 656.057   5
 -14   8   1 3342.44 687.535   5
   8   6   1 4281.65 807.730   4
   6   8   1 3840.51 723.699   4
 -14   6   2 25819.0 1835.12   5
 -14   8   2 24258.4 1838.16   5
   8   6   2 26254.5 1850.72   4
   6   8   2 25149.2 1765.03   4
  -6  14   2 25170.9 1987.48   3
   8   6   2 29421.6 1980.73   6
  -8  14   2 26151.1 1924.63   3
   6   8   2 29281.6 2018.92   6
   8   6   3 1692.64 598.136   6
   6   8   3 2882.24 787.635   6
  -6  14   3 2508.19 800.416   3
  -8  14   3 2347.20 717.851   3
   8   6   3 3571.69 868.802   4
   6   8   3 3094.74 766.876   4
   8   6   4 3877.81 820.476   6
   6   8   4 4836.26 940.109   6
  -6  14   4 4852.01 941.524   3
  -8  14   4 4391.49 860.808   3
   8   6   4 4637.34 922.824   4
   6   8   4 5651.84 977.159   4
   8   6   5 612.421 382.866   6
  -6  14   5 1127.84 534.179   3
   6   8   5 231.119 390.737   6
  -8  14   5-631.770 451.242   3
   8   6   5-158.508 403.424   4
   6   8   5 423.253 376.625   4
  -6  14   5 425.632 422.182   4
   6   8   6 3389.23 487.435   6
   8   6   6 4663.26 604.893   4
   6   8   6 4797.95 620.230   4
  -6  14   6 4437.34 593.615   4
  -8  14   6 4028.07 567.538   4
   8   6   6 3378.92 450.357   6
 -14   9  -6 7062.18 742.169   5
 -14   5  -6 9094.30 836.706   5
  14  -9  -6 7130.71 630.972   7
   9 -14  -6 7222.14 657.939   7
 -14   9  -5 1662.23 579.497   5
 -14   5  -5 2376.89 633.510   5
  14  -9  -5 1598.26 477.992   7
   9 -14  -5 1643.48 488.126   7
 -14   9  -4 11480.6 1325.90   5
 -14   5  -4 9765.21 1180.08   5
  14  -9  -4 11185.1 1046.93   7
   9 -14  -4 10490.3 1087.54   7
 -14   9  -3 266.025 510.036   5
 -14   5  -3 400.473 474.678   5
  14  -9  -3 1374.80 525.557   7
   9 -14  -3 1052.45 604.745   7
 -14   9  -2 40052.3 2331.68   5
 -14   5  -2 35526.1 2161.10   5
  14  -9  -2 35593.4 1876.52   7
   9   5  -2 36862.7 2089.50   6
 -14   9  -1 7393.41 1081.26   5
 -14   5  -1 7207.19 998.231   5
  -9  14  -1 6299.78 1003.44   3
   9   5  -1 7938.50 1030.77   6
   5   9   0 4018.76 696.295   6
  -5  14   0 4821.39 788.198   3
  -9  14   0 3858.25 822.170   3
 -14   9   0 3379.87 800.598   5
 -14   5   0 5325.79 810.727   5
  14  -5   0 3009.76 1110.20   8
   9   5   0 3856.93 773.962   6
   9   5   1 7205.91 1003.38   6
  -9  14   1 6811.22 1053.60   3
 -14   9   1 6495.93 958.029   5
   5   9   1 7010.03 915.802   4
   9   5   1 7338.06 982.592   4
  -5  14   1 6925.15 1068.26   3
   5   9   1 8069.55 1058.98   6
 -14   9   2 38022.9 2032.28   3
 -14   9   2 37466.6 2308.92   5
   9   5   2 39913.1 2292.17   4
   5   9   2 40770.6 2219.31   4
  -5  14   2 40365.7 2366.66   3
   9   5   2 38601.7 2332.08   6
   5   9   2 31116.6 2075.36   6
  -9  14   2 35313.4 2202.33   3
   9   5   3-187.243 456.802   6
   5   9   3 932.689 562.304   6
  -5  14   3 871.296 585.487   3
  -9  14   3 752.841 558.914   3
   9   5   3 237.145 483.877   4
   5   9   3 483.010 442.627   4
  -9  14   4 7499.92 1089.83   3
   9   5   4 12575.5 1373.99   4
   5   9   4 9370.16 1203.85   4
  -5  14   4 10840.0 1263.04   3
   9   5   4 12495.9 1281.39   6
   5   9   4 10538.2 1258.59   6
   9   5   5 1852.83 467.715   6
   5   9   5 1911.05 561.298   6
  -9  14   5 1528.83 503.410   3
   9   5   5 1768.46 521.203   4
   5   9   5 2020.85 605.355   4
  -5  14   5 795.902 416.453   4
  -5  14   5 1115.45 530.251   3
   9   5   6 7958.49 742.481   4
   5   9   6 8840.56 810.384   4
  -5  14   6 7465.58 730.980   4
   5   9   6 7434.24 698.462   6
 -14  10  -6 4256.38 551.454   5
 -14   4  -6 3853.60 542.526   5
  14 -10  -6 2932.67 428.287   7
  10 -14  -6 3341.84 476.185   7
 -14   4  -5 1975.94 562.475   5
  14 -10  -5 2205.34 538.420   7
  10 -14  -5 2616.23 591.026   7
 -14  10  -4 10251.2 1183.88   5
 -14   4  -4 10644.4 1176.97   5
  14 -10  -4 9965.23 1049.98   7
  10 -14  -4 12105.6 1142.18   7
 -14  10  -3 426.729 479.851   5
 -14   4  -3 490.265 376.827   5
  14 -10  -3 1323.11 532.753   7
  10 -14  -3 1664.66 601.665   7
 -14  10  -2 16715.9 1536.13   5
 -14   4  -2 16022.7 1393.10   5
  14 -10  -2 16006.4 1367.06   7
  10   4  -2 14664.7 1347.32   6
 -10  14  -2 15373.2 1454.35   3
 -14  10  -1 2803.95 787.099   5
 -14   4  -1 3587.16 714.587   5
 -10  14  -1 4323.04 944.016   3
  10   4  -1 3661.50 783.054   6
 -10  14   0 10555.3 1130.17   5
 -14  10   0 9707.64 1171.45   5
  10   4   0 10846.4 1200.76   6
   4  10   0 11757.5 1142.42   6
 -10  14   0 11153.2 1287.28   3
   4  10   1 3370.23 716.338   6
  -4  14   1 2878.94 694.421   3
 -14  10   1 1792.53 572.921   5
 -10  14   1 1805.71 653.368   3
  10   4   1 1865.80 632.059   4
  10   4   1 3444.59 753.816   6
 -14  10   2 16080.0 1578.88   5
  10   4   2 19802.0 1701.55   4
   4  10   2 17126.6 1455.57   4
  -4  14   2 16037.3 1499.04   3
  10   4   2 18096.4 1598.03   6
   4  10   2 19067.5 1641.03   6
 -10  14   2 16421.2 1502.89   3
 -14  10   2 16103.9 1413.48   3
  10   4   3 408.550 487.587   6
   4  10   3 1123.77 647.769   6
  -4  14   3 1106.31 637.284   3
 -10  14   3 743.337 578.899   3
  10   4   3 788.591 709.644   4
   4  10   3 1204.82 511.954   4
  -4  14   3 740.070 432.377   4
  10   4   4 13873.5 1453.21   4
   4  10   4 11281.1 1251.28   4
  -4  14   4 12615.1 1219.95   4
  -4  14   4 12850.8 1393.00   3
 -10  14   4 10596.3 1242.73   3
  10   4   4 12777.1 1260.60   6
   4  10   4 13662.5 1405.13   6
  10   4   5 1959.10 464.278   6
   4  10   5 2001.73 572.971   6
 -10  14   5 1725.00 506.316   3
  10   4   5 1913.62 550.092   4
   4  10   5 1598.86 493.981   4
  -4  14   5 1344.41 458.197   4
   4  10   6 3276.18 493.870   6
  10   4   6 2649.04 436.149   4
   4  10   6 4311.28 570.544   4
  -4  14   6 3576.24 505.802   4
 -14  11  -6 3237.42 440.203   5
 -14   3  -6 2780.72 413.523   5
  14 -11  -6 2349.34 404.649   7
  11 -14  -6 3023.72 427.818   7
 -14  11  -5 337.039 351.151   5
 -14   3  -5 332.526 298.537   5
  14 -11  -5 274.952 352.129   7
  11 -14  -5 420.842 403.047   7
 -14   3  -4 7378.89 947.408   5
 -14  11  -4 7304.82 1028.88   5
  14 -11  -4 7599.01 925.119   7
  11 -14  -4 8227.61 1004.16   7
 -14  11  -3 584.853 503.102   5
 -14   3  -3 450.493 367.523   5
  14 -11  -3 1272.17 540.342   7
  11 -14  -3 1062.57 661.684   7
 -11  14  -2 18126.2 1582.07   3
 -11  14  -2 16721.7 1408.36   5
 -14  11  -2 18364.4 1627.90   5
  14 -11  -2 18158.1 1475.97   7
  11   3  -2 16753.7 1455.94   6
 -11  14  -1-378.061 458.372   5
 -14  11  -1 1486.96 648.874   5
 -11  14  -1 1422.66 726.009   3
  11   3  -1 984.178 533.621   6
 -11  14   0 9253.87 1131.19   5
 -14  11   0 8992.41 1138.37   5
  11   3   0 11167.1 1247.12   6
 -11  14   0 10043.5 1247.99   3
   3  11   1 284.203 362.524   6
  -3  14   1 391.758 480.819   3
 -11  14   1-358.308 501.710   5
 -14  11   1-9.39741 554.181   5
 -11  14   1-130.138 585.678   3
  14  -3   1 252.295 457.745   6
  11   3   1 518.971 497.835   6
 -14  11   2 17426.4 1686.40   5
  11   3   2 18529.7 1686.86   4
   3  11   2 19232.0 1504.54   4
  -3  14   2 16487.4 1482.81   3
  14  -3   2 16726.5 1395.87   6
  11   3   2 19563.0 1695.33   6
   3  11   2 18465.7 1562.99   6
 -11  14   2 17865.2 1546.33   3
 -14  11   2 15712.8 1423.23   3
  11   3   3 622.585 487.007   6
  -3  14   3 1547.05 672.468   3
   3  11   3 440.756 465.938   6
 -11  14   3 971.195 595.587   3
 -14  11   3 354.189 356.938   3
  11   3   3 1014.75 593.016   4
   3  11   3 892.590 474.916   4
  -3  14   3 489.805 342.092   4
   3  11   4 7792.85 1061.08   6
 -11  14   4 7827.11 1040.38   3
   3  11   4 7873.07 1026.72   4
  -3  14   4 9142.77 1023.93   4
  11   3   4 7833.44 1109.09   4
  -3  14   4 5717.42 911.481   3
  11   3   4 7797.49 927.636   6
   3  11   5 94.4146 351.235   6
 -11  14   5-135.849 295.600   3
  11   3   5-329.222 436.205   4
   3  11   5 384.169 331.108   4
  -3  14   5-142.060 304.623   4
  11   3   5 390.708 243.171   6
   3  11   6 2542.48 426.745   6
   3  11   6 3108.34 474.510   4
  -3  14   6 3408.42 460.721   4
  14 -12  -6 1786.32 331.391   7
  12 -14  -6 2042.75 343.902   7
 -14  12  -5 848.172 417.808   5
 -14   2  -5 63.7509 259.004   5
  14 -12  -5 261.622 333.108   7
  12 -14  -5 91.3254 368.459   7
 -14  12  -4 11189.2 1145.15   5
 -14   2  -4 9549.45 969.034   5
  14 -12  -4 9217.36 984.047   7
  12 -14  -4 9622.04 1018.90   7
 -12  14  -3 258.290 327.848   5
 -14  12  -3 546.617 544.558   5
  14 -12  -3 406.561 459.278   7
  12 -14  -3-11.0996 532.741   7
 -12  14  -2 19060.7 1496.89   5
 -14  12  -2 20331.0 1642.76   5
  14 -12  -2 19188.8 1484.65   7
 -12  14  -1 12.7816 397.811   5
 -14  12  -1 211.332 410.468   5
 -12  14  -1 1350.94 716.371   3
  12   2  -1-139.381 447.450   6
 -12  14   0 6477.82 967.520   5
 -14  12   0 6891.91 1042.97   5
 -12  14   0 6447.74 980.590   3
  14  -2   0 4979.18 879.648   6
  12   2   0 7843.08 1079.93   6
   2  12   1 89.6165 376.788   6
 -12  14   1 153.347 427.661   5
 -14  12   1 138.764 522.486   5
 -12  14   1 184.029 481.185   3
 -14  12   1 2.37581 439.761   3
  14  -2   1-145.324 520.419   6
  12   2   1 586.667 555.046   6
 -14  12   2 20138.0 1726.79   5
  -2  14   2 16454.5 1449.44   3
  14  -2   2 16801.7 1441.98   6
  12   2   2 20552.8 1707.53   6
   2  12   2 18749.3 1627.77   6
  -2  14   2 20383.4 1508.93   6
 -12  14   2 16761.3 1517.48   3
 -14  12   2 18462.5 1520.70   3
  -2  14   3-1061.41 542.717   3
   2  12   3 301.026 445.067   6
 -12  14   3 659.692 457.703   3
 -14  12   3-362.635 429.075   3
  12   2   3-1476.98 810.115   4
   2  12   3-18.2759 405.963   4
  -2  14   3 444.400 412.809   4
  12   2   3-174.751 435.865   6
   2  12   4 10118.7 1110.04   4
  -2  14   4 10498.2 1040.81   4
  12   2   4 9990.28 998.129   6
 -12  14   4 8797.85 1065.71   3
   2  12   4 11305.7 1235.78   6
   2  12   5 108.975 301.244   6
 -12  14   5 21.8165 249.254   3
  -2  14   5 269.586 327.326   6
   2  12   5 158.335 293.734   4
  -2  14   5 92.8191 269.113   4
   2  12   6 1727.97 330.120   6
  -2  14   6 1280.13 293.291   6
   2  12   6 2545.54 399.445   4
  -2  14   6 2482.89 378.225   4
  13 -14  -6 3057.78 382.848   7
 -14  13  -5 737.411 321.980   5
  14 -13  -5 318.621 301.370   7
  13 -14  -5 309.708 310.575   7
 -13  14  -4 8513.36 891.438   5
 -14  13  -4 9914.20 1015.28   5
  14 -13  -4 10524.5 979.366   7
  13 -14  -4 10688.5 1003.15   7
 -13  14  -3-57.5608 372.140   5
 -14  13  -3 479.946 422.947   5
  14 -13  -3 840.482 511.853   7
  13 -14  -3 909.358 582.734   7
 -13  14  -2 7236.32 982.217   5
 -14  13  -2 8268.36 1068.11   5
  14 -13  -2 5326.27 945.680   7
  13 -14  -2 5452.03 942.938   7
 -13  14  -1 1828.44 542.782   5
  13   1  -1 1561.76 465.566   6
 -13  14   0 18730.3 1606.47   3
 -13  14   0 15017.3 1430.59   5
 -14  13   0 15117.8 1439.72   5
  14  -1   0 17621.7 1563.81   6
  13   1   0 17726.0 1543.90   6
 -13  14   1 2157.92 656.437   5
 -14  13   1 2830.72 777.851   5
 -13  14   1 3335.15 780.579   3
 -14  13   1 2760.16 781.157   3
  14  -1   1 2410.78 692.756   6
  13   1   1 2737.32 723.477   6
  -1  14   2 6770.76 865.090   6
 -13  14   2 5677.96 897.991   3
 -14  13   2 6952.85 949.759   3
   1  13   2 8534.88 1027.06   6
  14  -1   2 6812.93 969.111   6
  13   1   2 7753.69 1049.99   6
   1  13   3 579.045 391.235   6
  -1  14   3 15.5775 431.090   6
 -13  14   3 1535.58 629.879   3
 -14  13   3 160.349 411.743   3
   1  13   3 753.635 432.510   4
  -1  14   3 457.755 368.601   4
  14  -1   3 66.7182 318.650   6
  13   1   3 370.486 348.450   6
   1  13   4 8825.07 965.129   4
  -1  14   4 10002.8 1002.58   4
 -13  14   4 8057.52 936.577   3
 -14  13   4 7872.60 861.199   3
   1  13   4 9793.93 1090.07   6
  -1  14   4 8681.40 995.229   6
   1  13   5-71.7270 274.985   6
  -1  14   5 241.261 299.419   6
   1  13   5-20.9893 255.880   4
  -1  14   5 509.542 289.194   4
  14 -14  -5 813.940 333.525   7
 -14  14  -4 11865.4 923.625   3
 -14  14  -4 9160.48 892.628   5
  14 -14  -4 11834.4 980.665   7
 -14  14  -3 2241.30 600.474   5
  14 -14  -3 3963.00 757.230   7
 -14  14  -2 2609.22 637.773   5
  14 -14  -2 2033.91 587.552   7
 -14  14  -1 1817.61 579.529   5
 -14  14   0 34726.4 2100.45   3
 -14  14   0 31229.3 2010.47   5
  14   0   0 32195.1 2075.45   6
 -14  14   1 1971.68 683.395   5
 -14  14   1 1846.29 647.524   3
  14   0   1 1811.23 577.856   6
   0  14   2 2103.23 526.670   6
 -14  14   2 2107.68 657.131   3
  14   0   2 2967.59 701.816   6
   0  14   3 3221.81 650.460   6
 -14  14   3 3225.01 644.565   3
   0  14   3 4157.20 655.259   4
  14   0   3 3087.97 588.638   6
   0  14   4 10346.3 928.615   4
 -14  14   4 8735.68 910.703   3
   0  14   4 8222.46 969.911   6
   0  14   5 358.792 248.664   6
   0  14   5 306.444 241.681   4
 -15   8  -6 2038.20 393.732   5
 -15   7  -6 2043.33 395.610   5
 -15   8  -5-227.451 409.718   5
 -15   7  -5 872.660 437.931   5
   8 -15  -5 639.873 331.501   7
 -15   8  -4 20127.1 1572.76   5
 -15   7  -4 19699.7 1548.37   5
   7 -15  -4 16982.9 1156.42   7
   8 -15  -4 18049.3 1220.17   7
 -15   8  -3 374.812 512.412   5
 -15   7  -3 139.686 455.624   5
   7 -15  -3 349.465 374.365   7
   8 -15  -3-435.141 448.637   7
 -15   8  -2 8086.88 1087.87   5
 -15   7  -2 9608.56 1149.89   5
   8   7  -2 7818.82 931.768   6
 -15   8  -1 14331.7 1407.22   5
 -15   7  -1 14246.1 1376.68   5
   8   7  -1 14645.3 1305.20   6
   7   8  -1 15931.3 1315.27   6
  -8  15  -1 12578.7 1257.88   3
 -15   7   0 8766.50 1077.73   5
 -15   8   0 9103.36 1127.02   5
   8   7   0 10085.9 1142.01   6
   7   8   0 10882.5 1138.11   6
  -7  15   0 10399.9 1195.35   3
  -8  15   0 10477.5 1179.06   3
 -15   7   1 13157.4 1309.15   5
 -15   8   1 13059.8 1289.35   5
   8   7   1 13754.6 1274.84   4
   7   8   1 13562.0 1251.09   4
   8   7   1 12249.1 1261.65   6
  -7  15   1 13420.5 1396.36   3
   7   8   1 11515.9 1218.40   6
  -8  15   1 13227.7 1359.94   3
   8   7   2 7074.16 1018.81   6
 -15   7   2 7797.83 1027.14   5
  -7  15   2 7140.51 1085.55   3
  -8  15   2 7038.24 1044.49   3
 -15   8   2 7038.59 1035.07   5
   8   7   2 7851.70 1031.29   4
   7   8   2 7778.42 1036.60   4
   7   8   2 9744.34 1187.70   6
   8   7   3-43.5114 478.863   6
   7   8   3-517.228 562.341   6
  -7  15   3-173.115 586.833   3
  -8  15   3 293.984 562.146   3
   8   7   3 67.4583 439.092   4
   7   8   3 39.6078 426.927   4
   8   7   4 20352.7 1577.04   4
   7   8   4 19940.1 1575.97   4
  -7  15   4 20325.7 1583.27   3
  -8  15   4 20752.1 1619.55   3
   8   7   4 20604.0 1562.01   6
   7   8   4 17797.8 1490.60   6
   8   7   5 337.114 286.088   6
  -7  15   5 112.350 323.837   3
   7   8   5 445.003 317.376   6
  -8  15   5 133.997 373.256   3
   8   7   5-60.4897 316.799   4
   7   8   5 321.785 334.470   4
  -7  15   5-232.844 345.120   4
   7   8   6 1048.70 247.420   6
   8   7   6 1223.44 306.575   4
   7   8   6 1695.82 356.705   4
  -7  15   6 1597.92 326.707   4
  -8  15   6 1307.59 307.949   4
 -15   9  -6 3777.69 485.120   5
 -15   6  -6 4027.36 487.866   5
 -15   9  -5 5775.97 787.255   5
 -15   6  -5 5238.85 731.829   5
   9 -15  -5 4726.22 598.246   7
 -15   9  -4 11542.6 1252.13   5
 -15   6  -4 15458.8 1367.11   5
   9 -15  -4 15436.9 1175.49   7
 -15   9  -3 11686.2 1301.61   5
 -15   6  -3 9695.98 1157.48   5
   9 -15  -3 11091.3 1132.49   7
 -15   9  -2 10170.8 1223.71   5
 -15   6  -2 10267.2 1179.25   5
   6 -15  -2 9620.17 1004.63   7
   9   6  -2 8712.11 1030.76   6
  -9  15  -1 1651.04 614.883   3
 -15   9  -1 1515.71 675.150   5
 -15   6  -1 846.149 566.072   5
   9   6  -1-95.6306 382.972   6
   6   9  -1 750.245 411.088   6
 -15   6   0 9142.74 1101.14   5
 -15   9   0 8221.09 1051.05   5
   9   6   0 8436.98 1068.55   6
   6   9   0 7840.31 986.940   6
  -6  15   0 7689.23 1041.33   3
  -9  15   0 7980.13 1104.34   3
   9   6   1 319.358 447.872   6
   6   9   1 304.121 390.003   6
  -6  15   1 141.054 428.444   3
  -9  15   1 124.546 511.517   3
 -15   9   1 613.093 434.197   5
   9   6   1 717.483 484.709   4
   6   9   1 762.464 373.946   4
 -15   9   2 7426.86 1034.34   5
   9   6   2 10756.7 1233.03   4
   6   9   2 10582.3 1142.69   4
  -6  15   2 8993.89 1189.40   3
   9   6   2 10341.2 1253.56   6
  -9  15   2 9837.02 1210.71   3
   6   9   2 10133.7 1200.99   6
 -15   9   2 9892.44 1025.46   3
   9   6   3 11485.8 1307.41   4
   6   9   3 12227.7 1285.85   4
  -6  15   3 11246.7 1265.40   3
  -9  15   3 9352.95 1230.14   3
   9   6   3 10818.8 1247.05   6
   6   9   3 11148.5 1299.71   6
   9   6   4 16467.8 1449.48   4
   6   9   4 15552.0 1364.19   4
  -6  15   4 14187.9 1238.13   4
  -6  15   4 16412.4 1425.06   3
  -9  15   4 14997.8 1333.65   3
   9   6   4 14629.7 1326.25   6
   6   9   4 14591.6 1339.57   6
   9   6   5 4272.78 606.147   6
   6   9   5 4091.61 631.094   6
  -9  15   5 5040.46 710.617   3
  -6  15   5 4647.05 657.687   4
   9   6   5 5019.50 725.804   4
   6   9   5 5775.26 748.136   4
   6   9   6 2958.14 384.784   6
   6   9   6 3590.67 468.604   4
   9   6   6 2408.56 385.029   4
  -6  15   6 3033.29 403.614   4
  -9  15   6 2337.42 371.001   4
 -15  10  -6 6307.19 564.259   5
 -15   5  -6 5012.03 505.070   5
 -15  10  -5 7722.83 878.625   5
 -15   5  -5 8289.16 868.568   5
  15 -10  -5 7941.44 708.762   7
  10 -15  -5 7838.17 759.684   7
 -15  10  -4 11474.5 1273.84   5
 -15   5  -4 9705.82 1059.54   5
  15 -10  -4 13945.8 1080.31   7
  10 -15  -4 11569.4 1050.84   7
 -15  10  -3 9561.45 1203.35   5
 -15   5  -3 6445.17 954.460   5
  10 -15  -3 9567.45 1046.78   7
  15 -10  -3 6040.70 758.980   7
 -15  10  -2 28639.8 1948.62   5
 -15   5  -2 25356.8 1746.50   5
  10   5  -2 24275.9 1717.70   6
 -10  15  -1-75.9566 461.571   3
 -15  10  -1 950.460 693.246   5
 -15   5  -1 609.206 432.587   5
  10   5  -1-23.3065 480.383   6
   5  10   0 2403.92 580.785   6
 -10  15   0 3454.23 870.427   3
 -15  10   0 2046.35 652.834   5
  10   5   0 2548.81 692.076   6
   5  10   1-82.9058 414.252   6
  -5  15   1-581.994 522.570   3
 -10  15   1-21.1733 487.424   3
 -15  10   1-132.940 509.529   5
  10   5   1-828.170 590.583   4
  10   5   1 126.008 498.852   6
 -15  10   2 25280.9 1881.95   5
  10   5   2 27885.0 1945.02   4
   5  10   2 28210.6 1779.36   4
  -5  15   2 26198.9 1868.59   3
  10   5   2 26131.2 1907.05   6
   5  10   2 31346.3 2031.39   6
 -10  15   2 28621.9 1942.39   3
 -15  10   2 24652.6 1635.37   3
   5  10   3 7773.68 1063.63   6
  -5  15   3 8268.49 1092.15   3
   5  10   3 8897.92 1092.31   4
  -5  15   3 7556.77 958.084   4
  10   5   3 9522.55 1190.84   4
  10   5   3 8932.83 1147.77   6
 -10  15   3 9142.45 1188.79   3
  10   5   4 12223.4 1241.00   4
   5  10   4 12300.5 1205.16   4
  -5  15   4 11239.6 1072.59   4
  -5  15   4 12321.7 1244.11   3
 -10  15   4 10733.8 1148.35   3
  10   5   4 10804.0 1112.76   6
   5  10   4 10316.2 1157.32   6
  10   5   5 8470.81 883.668   4
   5  10   5 8092.76 843.582   4
  -5  15   5 8353.94 804.412   4
 -10  15   5 8817.55 881.839   3
  10   5   5 6933.82 679.447   6
   5  10   5 9367.69 889.972   6
   5  10   6 5369.61 540.645   4
  -5  15   6 4831.19 485.897   4
 -10  15   6 4102.87 465.470   4
   5  10   6 4236.46 459.922   6
 -15  11  -5 1929.79 517.636   5
 -15   4  -5 623.800 306.491   5
  15 -11  -5 1270.11 338.829   7
  11 -15  -5 1471.79 396.054   7
 -15  11  -4 6232.31 916.419   5
 -15   4  -4 5546.48 790.206   5
  15 -11  -4 8278.79 880.236   7
  11 -15  -4 7450.68 858.503   7
 -15  11  -3 982.851 577.548   5
 -15   4  -3 110.842 337.826   5
  15 -11  -3 528.368 411.282   7
  11 -15  -3 669.233 543.823   7
 -15  11  -2 34270.7 2127.97   5
 -15   4  -2 28777.4 1767.43   5
  15 -11  -2 31158.6 1738.85   7
 -11  15  -2 29640.1 1869.92   3
 -15  11  -1 10094.1 1223.57   5
  15 -11  -1 8922.82 1001.54   7
  11   4  -1 7030.55 1033.15   6
 -11  15  -1 11173.2 1327.88   3
   4  11   0 1564.67 477.368   6
 -11  15   0 1007.41 419.551   5
 -15  11   0 1395.69 671.223   5
 -11  15   0 2446.72 690.030   3
  11   4   0 2364.42 694.044   6
  -4  15   1 7326.33 979.461   3
 -15  11   1 7329.42 1064.54   5
  11   4   1 9809.29 1192.21   6
   4  11   1 8936.54 1023.63   6
 -11  15   1 9077.86 1160.20   3
 -15  11   2 30270.8 2047.70   5
  11   4   2 32781.3 2153.77   4
   4  11   2 34814.8 1938.80   4
  -4  15   2 28384.7 1853.08   3
  11   4   2 35533.7 2218.09   6
   4  11   2 32274.6 2040.42   6
 -11  15   2 28275.5 1935.23   3
 -15  11   2 28810.6 1802.87   3
  -4  15   3 449.605 495.881   3
   4  11   3 277.231 462.143   6
 -11  15   3 550.471 455.358   3
 -15  11   3-174.792 304.059   3
  11   4   3 751.932 536.445   4
   4  11   3 57.7854 454.025   4
  -4  15   3 993.148 463.728   4
  11   4   3 540.829 488.268   6
   4  11   4 7117.81 955.659   6
   4  11   4 6602.22 876.227   4
  -4  15   4 7768.31 873.146   4
  11   4   4 7526.44 1015.81   4
  -4  15   4 6841.43 871.595   3
 -11  15   4 7186.79 966.928   3
  11   4   4 7718.61 907.687   6
   4  11   5 1076.06 389.254   6
 -11  15   5 772.338 338.702   3
   4  11   5 1346.22 407.576   4
  -4  15   5 1432.63 396.550   4
  11   4   5 1822.20 373.100   6
   4  11   6 1454.73 283.690   4
 -11  15   6 974.525 240.578   4
 -15  12  -5 474.931 307.719   5
 -15   3  -5 541.214 266.108   5
  15 -12  -5-299.731 279.909   7
  12 -15  -5 606.144 333.837   7
 -15  12  -4 2287.07 626.555   5
 -15   3  -4 2183.63 472.527   5
  15 -12  -4 2125.18 518.086   7
  12 -15  -4 2691.00 569.368   7
 -15  12  -3 447.312 529.901   5
  15 -12  -3-73.4082 366.499   7
  12 -15  -3 333.684 506.719   7
 -12  15  -2 18739.0 1432.74   5
 -15  12  -2 17889.2 1583.27   5
  15 -12  -2 18370.9 1352.07   7
 -12  15  -2 17317.7 1477.13   3
 -12  15  -1 13547.3 1327.64   5
 -15  12  -1 13109.2 1367.50   5
  15 -12  -1 14234.8 1207.01   7
  12   3  -1 11469.6 1237.81   6
 -12  15  -1 14676.1 1512.01   3
 -12  15   0 30164.7 1918.24   5
 -15  12   0 30102.7 2014.81   5
  12   3   0 34054.3 2055.11   6
 -12  15   0 31646.0 2081.42   3
 -15  12   1 12352.3 1273.23   3
 -15  12   1 12605.7 1391.28   5
  12   3   1 13278.5 1364.26   6
   3  12   1 15214.9 1272.41   6
 -12  15   1 13422.6 1363.21   3
  -3  15   2 17137.2 1444.48   3
  12   3   2 19086.0 1634.62   6
   3  12   2 19800.8 1541.44   6
 -12  15   2 18244.0 1520.52   3
 -15  12   2 16552.2 1419.44   3
  -3  15   3-83.8931 480.586   3
   3  12   3-190.670 433.091   6
  -3  15   3 13.6076 334.905   6
 -12  15   3 499.535 527.741   3
 -15  12   3 463.702 393.460   3
   3  12   3 424.916 385.098   4
  12   3   3 64.9691 409.833   6
   3  12   4 2240.52 622.526   6
  -3  15   4 1073.62 415.460   6
 -12  15   4 1358.98 449.422   3
   3  12   4 3176.65 616.738   4
  -3  15   4 2352.73 518.573   4
  12   3   4 2040.14 510.409   6
   3  12   5 289.207 288.580   6
 -12  15   5 160.345 232.315   3
  -3  15   5 5.20140 274.258   6
   3  12   5-18.8063 249.475   4
  -3  15   5-92.4307 227.947   4
 -15  13  -5 210.548 220.552   5
  15 -13  -5 176.367 214.443   7
 -15  13  -4 3075.42 615.859   5
  15 -13  -4 3908.54 597.905   7
  13 -15  -4 3119.89 574.829   7
 -13  15  -3 732.873 372.178   5
 -15  13  -3 1376.85 503.279   5
 -13  15  -3 2203.59 513.022   3
  15 -13  -3 286.024 408.035   7
  13 -15  -3 1253.67 572.332   7
 -13  15  -2 4661.44 732.276   5
 -15  13  -2 4103.06 743.233   5
 -13  15  -2 3626.27 740.151   3
  15 -13  -2 4547.26 753.794   7
  13 -15  -2 4332.87 831.985   7
 -13  15  -1 1472.16 536.153   5
 -15  13  -1 1622.22 637.072   5
 -13  15  -1 1260.49 622.844   3
  13   2  -1 572.598 481.236   6
 -13  15   0 63535.7 2741.32   5
 -15  13   0 65602.4 2899.71   5
  13   2   0 67384.4 2946.91   6
 -13  15   0 64071.6 2895.35   3
   2  13   1-9.93825 292.239   6
 -15  13   1 1126.06 566.029   5
 -13  15   1 362.425 492.401   3
 -15  13   1 1347.91 586.256   3
  15  -2   1-825.719 614.936   6
  13   2   1 1947.68 721.361   6
   2  13   2 4557.96 784.211   6
 -13  15   2 4190.51 842.166   3
 -15  13   2 3529.46 723.958   3
  15  -2   2 2016.09 449.720   6
  13   2   2 5179.42 910.227   6
   2  13   3 1680.83 547.951   6
  -2  15   3 829.160 437.513   6
 -13  15   3 1947.37 630.425   3
 -15  13   3 1042.42 470.668   3
   2  13   3 904.959 408.595   4
  13   2   3 1723.36 529.622   6
   2  13   4 2658.16 597.789   6
  -2  15   4 2744.86 552.141   6
 -13  15   4 2373.32 566.868   3
   2  13   4 3998.19 622.897   4
  -2  15   4 3529.73 569.696   4
  13   2   4 3898.47 572.510   6
   2  13   5 395.199 275.176   6
  -2  15   5 252.657 228.461   6
   2  13   5 124.698 237.686   4
  -2  15   5-144.254 181.210   4
  15 -14  -5-109.560 220.381   7
  14 -15  -5-302.277 217.976   7
 -15  14  -4 1867.59 428.441   5
 -15  14  -4 2593.99 473.267   3
  15 -14  -4 2654.92 488.166   7
  14 -15  -4 3415.43 564.623   7
 -14  15  -3 536.528 321.205   5
 -15  14  -3 1781.41 541.014   5
 -14  15  -3 882.726 421.278   3
  15 -14  -3 637.993 390.885   7
  14 -15  -3 1648.64 554.289   7
 -14  15  -2 8217.42 1016.55   3
 -14  15  -2 7978.67 973.207   5
 -15  14  -2 8027.44 977.042   5
  15 -14  -2 8273.60 1001.94   7
  14 -15  -2 7376.76 994.772   7
 -14  15  -1-185.509 384.063   5
 -15  14  -1-111.299 489.949   5
 -14  15  -1 28.0761 494.968   3
 -15  14   0 18193.6 1482.38   3
 -14  15   0 19191.9 1515.92   5
 -15  14   0 19456.5 1566.64   5
  14   1   0 16285.7 1492.47   6
 -14  15   0 19337.5 1606.86   3
 -15  14   1 598.017 484.083   5
 -14  15   1 470.212 448.822   3
 -15  14   1 965.767 590.651   3
  14   1   1-151.117 464.055   6
  14   1   2 8973.43 1070.78   6
   1  14   2 9168.22 943.173   6
 -14  15   2 8211.49 1032.12   3
 -15  14   2 7616.57 967.357   3
  15  -1   2 5999.15 834.528   6
   1  14   3 476.999 320.630   6
  -1  15   3 856.455 376.939   6
 -14  15   3 993.890 464.635   3
 -15  14   3 776.641 398.441   3
  14   1   3 824.936 398.801   6
   1  14   4 2024.52 479.955   6
  -1  15   4 1552.88 386.373   6
 -14  15   4 1538.41 443.325   3
 -15  14   4 1900.08 397.568   3
   1  14   4 1876.45 413.732   4
  -1  15   4 2273.24 401.708   4
   1  14   5 74.7582 166.706   6
  -1  15   5 303.174 202.716   6
   1  14   5-129.653 159.689   4
 -15  15  -4 4503.78 522.232   5
  15 -15  -4 6141.87 637.812   7
 -15  15  -3 3378.15 556.857   5
 -15  15  -3 4272.26 683.851   3
  15 -15  -3 4557.10 645.844   7
 -15  15  -2 1309.08 456.074   5
 -15  15  -2 1298.21 548.011   3
  15 -15  -2 1225.51 514.263   7
 -15  15  -1-53.7800 404.853   5
 -15  15  -1-478.173 469.887   3
 -15  15   0 29094.0 1805.98   5
 -15  15   0 26160.3 1758.93   3
 -15  15   1 265.693 453.959   3
  15   0   1-302.328 573.157   6
 -15  15   2 1271.68 473.140   3
  15   0   2 376.802 367.504   6
   0  15   3 3179.26 520.293   6
 -15  15   3 4125.12 603.299   3
  15   0   3 2394.18 463.903   6
 -15  15   4 4657.28 522.185   3
   0  15   4 3935.30 533.670   6
 -16   8  -5 72.5125 251.205   5
 -16   8  -4 29946.1 1745.42   5
   8 -16  -4 29521.4 1363.25   7
 -16   8  -3 762.278 515.498   5
   8 -16  -3 78.5777 318.931   7
 -16   8  -2 6031.48 939.740   5
   8 -16  -2 4895.72 788.429   7
 -16   8  -1 247.266 555.494   5
   8   8  -1 731.705 481.004   6
  -8  16   0 1762.64 665.259   3
 -16   8   0 1916.25 578.725   5
   8   8   0 2748.48 646.480   6
   8   8   1 597.124 471.292   6
  -8  16   1-519.528 518.736   3
 -16   8   1 49.9866 384.381   5
   8   8   1-36.0208 383.000   4
   8   8   2 5562.16 870.852   6
  -8  16   2 6109.52 958.673   3
   8   8   2 4827.19 826.449   4
   8   8   3-777.594 538.070   6
  -8  16   3-193.921 491.230   3
   8   8   3-8.96567 395.539   4
   8   8   4 32809.3 1814.79   4
  -8  16   4 26670.4 1529.53   4
  -8  16   4 29914.6 1720.83   3
   8   8   4 30475.3 1742.30   6
   8   8   5-48.3961 211.178   6
   8   8   5-257.496 287.983   4
  -8  16   5 222.880 224.691   4
 -16   9  -5 3387.01 539.788   5
 -16   7  -5 2981.39 507.741   5
   9 -16  -5 2052.61 362.380   7
 -16   9  -4 13050.7 1189.62   5
 -16   7  -4 13033.9 1130.05   5
   9 -16  -4 12243.1 923.914   7
 -16   9  -3 5284.64 894.574   5
 -16   7  -3 3877.33 729.542   5
   9 -16  -3 3741.16 616.541   7
 -16   9  -2 26589.4 1804.42   5
 -16   7  -2 25244.3 1699.61   5
   7 -16  -2 21202.6 1448.34   7
   9 -16  -2 23579.3 1531.15   7
   9   7  -2 22228.0 1475.01   6
 -16   9  -1 16993.8 1492.19   5
 -16   7  -1 15716.2 1393.43   5
   9   7  -1 17913.5 1427.60   6
   7   9  -1 15569.5 1238.09   6
  -9  16  -1 13432.2 1309.30   3
  -7  16   0 4247.60 814.018   3
  -9  16   0 4689.22 849.773   3
 -16   7   0 5032.39 844.968   5
 -16   9   0 4835.84 843.283   5
   9   7   0 6831.62 957.283   6
   7   9   0 6139.10 855.629   6
 -16   7   1 12966.4 1264.92   5
 -16   9   1 13444.1 1357.13   5
  -7  16   1 12821.7 1320.50   3
   9   7   1 16286.3 1429.42   6
   7   9   1 15712.1 1380.12   6
  -9  16   1 14064.2 1369.96   3
   9   7   2 24187.2 1686.75   4
   7   9   2 25579.3 1675.70   4
  -7  16   2 22962.9 1716.44   3
   9   7   2 23935.9 1759.20   6
  -9  16   2 20222.2 1626.25   3
   7   9   2 24083.7 1749.88   6
   9   7   3 4548.87 828.731   6
   7   9   3 3077.67 705.403   6
  -7  16   3 5172.90 852.982   3
  -9  16   3 2975.00 727.781   3
   9   7   3 3289.26 726.609   4
   7   9   3 4500.41 794.629   4
   9   7   4 13263.9 1205.29   4
   7   9   4 11995.3 1107.23   4
  -7  16   4 15783.6 1154.53   4
  -7  16   4 13082.9 1150.27   3
  -9  16   4 13545.2 1166.16   3
   9   7   4 14788.1 1201.63   6
   7   9   4 15057.9 1232.60   6
   7   9   5 2225.73 435.923   6
  -9  16   5 2268.76 436.543   3
   9   7   5 3007.52 499.054   4
   7   9   5 2807.81 492.504   4
  -7  16   5 2508.54 440.482   4
  -9  16   5 1806.92 402.024   4
   9   7   5 2096.84 372.144   6
 -16  10  -5 3963.30 581.534   5
 -16   6  -5 3025.35 493.873   5
  10 -16  -5 3216.97 434.194   7
 -16  10  -4 9984.01 1052.39   5
 -16   6  -4 9062.45 952.829   5
  10 -16  -4 9337.40 849.961   7
 -16  10  -3 5792.64 973.002   5
 -16   6  -3 3994.42 714.540   5
  10 -16  -3 5104.39 765.045   7
 -16  10  -2 11068.7 1246.63   5
 -16   6  -2 11802.0 1153.39   5
  10 -16  -2 8795.74 1028.16   7
 -16  10  -1 19544.9 1631.97   5
 -16   6  -1 18400.0 1494.46   5
  10   6  -1 24461.7 1701.02   6
 -10  16  -1 20429.8 1600.14   3
 -10  16   0 6456.62 976.327   3
 -16  10   0 4345.83 849.598   5
  10   6   0 4477.68 798.338   6
   6  10   0 5747.37 828.845   6
 -16  10   1 22454.5 1718.86   5
  -6  16   1 19365.9 1535.80   3
  10   6   1 26673.3 1826.26   6
   6  10   1 23200.0 1610.30   6
 -10  16   1 23549.9 1749.19   3
  10   6   2 9994.70 1148.95   4
   6  10   2 9600.65 1008.09   4
  -6  16   2 10258.4 1144.35   3
  10   6   2 9663.21 1161.77   6
 -10  16   2 10283.7 1190.36   3
   6  10   2 10493.4 1153.29   6
 -16  10   2 8689.48 943.906   3
  10   6   3 4449.44 778.675   6
   6  10   3 3839.08 754.275   6
  -6  16   3 4823.77 793.871   3
 -10  16   3 4329.15 806.010   3
  10   6   3 4112.01 757.202   4
   6  10   3 3792.43 661.124   4
  10   6   4 10302.5 1065.90   4
   6  10   4 7376.66 861.384   4
  -6  16   4 10246.3 910.235   4
  -6  16   4 9648.47 995.835   3
 -10  16   4 10152.4 1011.55   3
  10   6   4 10877.1 1011.65   6
   6  10   4 11084.7 1080.69   6
   6  10   5 3081.16 491.688   6
 -10  16   5 2950.45 471.498   3
  10   6   5 2674.36 472.126   4
   6  10   5 3131.74 493.824   4
  -6  16   5 2665.89 425.707   4
 -10  16   5 2488.76 446.635   4
  10   6   5 2686.21 392.727   6
 -16  11  -5 4918.60 585.224   5
 -16   5  -5 4172.71 496.451   5
  11 -16  -5 4638.06 501.372   7
 -16  11  -4 11215.3 1098.90   5
 -16   5  -4 10346.0 927.943   5
  11 -16  -4 10773.0 901.699   7
 -16  11  -3 3281.95 803.773   5
 -16   5  -3 2676.37 576.258   5
  11 -16  -3 3094.16 659.647   7
 -16   5  -2 7437.30 918.451   5
 -16  11  -2 5960.46 972.777   5
  11 -16  -2 5849.38 824.088   7
 -11  16  -1 4087.80 833.167   3
 -16  11  -1 2372.07 618.214   5
  11   5  -1 2126.13 614.386   6
 -16  11   0 19603.8 1610.38   5
  11   5   0 21902.3 1624.80   6
   5  11   0 22497.8 1466.74   6
 -11  16   0 19564.3 1667.60   3
   5  11   1 2303.20 577.676   6
  -5  16   1 3641.31 698.528   3
 -11  16   1 2787.17 657.446   3
 -16  11   1 3864.41 858.480   5
 -16  11   1 2792.17 679.118   3
  11   5   1 3692.42 796.900   6
   5  11   2 6745.82 947.178   6
  -5  16   2 7330.67 946.050   3
 -11  16   2 5945.79 953.605   3
   5  11   2 8077.52 935.230   4
  11   5   2 8008.69 1096.55   6
 -16  11   2 6788.56 866.276   3
   5  11   3 2097.94 613.988   6
  -5  16   3 2483.94 646.748   3
 -11  16   3 1884.65 579.926   3
  11   5   3 1488.29 438.510   4
   5  11   3 3066.52 618.977   4
  11   5   3 2567.09 690.414   6
  11   5   4 11366.5 1085.94   4
   5  11   4 11312.5 1011.59   4
  -5  16   4 12320.8 958.329   4
 -11  16   4 11352.6 1024.78   3
  11   5   4 11728.3 1003.43   6
   5  11   4 12123.5 1074.63   6
 -11  16   5 2949.72 444.916   3
  -5  16   5 3862.44 467.228   4
   5  11   5 3764.32 505.850   4
  11   5   5 3172.97 390.802   6
   5  11   5 4813.67 565.861   6
 -16  12  -5 1707.26 364.636   5
  12 -16  -5 1849.04 347.695   7
 -16  12  -4 3402.24 626.021   5
 -16   4  -4 2852.95 494.063   5
  16 -12  -4 3297.11 499.084   7
  12 -16  -4 2595.23 531.409   7
 -16  12  -3 386.754 453.125   5
  16 -12  -3-76.1843 339.566   7
  12 -16  -3-694.987 486.254   7
 -16  12  -2 17163.6 1476.36   5
  16 -12  -2 16079.8 1143.56   7
  12 -16  -2 18643.2 1421.11   7
 -12  16  -2 16107.4 1288.65   3
 -16  12  -1 1075.35 618.305   5
 -12  16  -1 870.364 535.428   3
  16 -12  -1 1191.66 509.307   7
  12   4  -1 371.554 459.764   6
 -16  12   0 16284.3 1486.43   5
  12   4   0 15886.1 1446.70   6
 -12  16   0 17077.4 1537.40   3
   4  12   1 774.070 433.008   6
 -16  12   1 779.733 560.985   5
 -12  16   1 951.271 482.734   3
 -16  12   1 1201.73 529.328   3
  12   4   1 478.311 439.944   6
  -4  16   2 18336.7 1389.54   3
  12   4   2 19931.3 1615.68   6
   4  12   2 19210.5 1451.62   6
 -12  16   2 17833.9 1471.21   3
 -16  12   2 17618.0 1320.05   3
   4  12   3 800.231 427.062   6
 -12  16   3-702.874 486.386   3
   4  12   3 305.226 317.665   4
  -4  16   3-576.482 440.528   3
  12   4   3-209.981 458.198   6
   4  12   4 2444.96 530.494   6
  -4  16   4 1716.63 441.534   6
 -12  16   4 3308.97 593.873   3
   4  12   4 3560.16 575.979   4
  -4  16   4 3079.95 469.867   4
  12   4   4 2443.06 482.354   6
 -12  16   5 1483.85 306.909   3
   4  12   5 888.458 247.110   6
  -4  16   5 490.944 232.213   6
   4  12   5 1135.03 281.212   4
  13 -16  -5 748.604 238.506   7
 -16  13  -4 116.224 296.535   5
  16 -13  -4 1253.47 348.939   7
  13 -16  -4 939.248 346.693   7
 -16  13  -3-151.433 410.851   5
  16 -13  -3-64.0434 290.033   7
  13 -16  -3 87.4348 350.982   7
 -16  13  -2 20550.8 1534.47   5
  16 -13  -2 15715.4 1224.75   7
  13 -16  -2 19979.2 1418.28   7
 -13  16  -2 17232.5 1335.76   3
 -13  16  -1 2303.14 587.429   5
 -16  13  -1 1110.84 565.294   5
 -13  16  -1 1946.53 650.469   3
  16 -13  -1 1852.43 516.650   7
  13   3  -1 114.165 511.476   6
 -13  16   0 16695.2 1379.24   5
 -16  13   0 15805.8 1411.42   5
  13   3   0 15242.1 1376.77   6
 -13  16   0 19581.9 1590.57   3
   3  13   1 1947.06 472.621   6
 -16  13   1 951.751 528.404   5
 -13  16   1 678.843 494.296   3
 -16  13   1 2142.37 641.567   3
  13   3   1 1775.12 652.677   6
  13   3   2 20729.7 1573.07   6
   3  13   2 18148.0 1325.04   6
 -13  16   2 19029.0 1455.57   3
 -16  13   2 17230.5 1300.01   3
   3  13   3-151.524 337.381   6
 -13  16   3 704.909 503.833   3
 -16  13   3 8.70853 301.946   3
   3  13   3 971.671 361.817   4
  13   3   3 248.262 382.321   6
   3  13   4 1434.18 389.989   6
  -3  16   4 779.118 300.739   6
 -13  16   4 864.012 347.151   3
   3  13   4 1172.89 366.185   4
  13   3   4 1018.64 319.564   6
   3  13   5 117.694 150.456   6
 -16  14  -4 861.443 270.323   5
 -16  14  -4 1288.44 320.522   3
  16 -14  -4 1335.53 348.933   7
  14 -16  -4 1086.61 342.933   7
 -16  14  -3 2972.95 583.303   5
  16 -14  -3 2087.69 464.198   7
 -14  16  -2 10728.5 1004.41   5
 -16  14  -2 11761.8 1129.18   5
  16 -14  -2 10489.9 938.357   7
  14 -16  -2 11423.7 1124.21   7
 -14  16  -2 10669.2 1064.68   3
 -14  16  -1 3530.93 663.227   5
 -16  14  -1 3564.04 708.258   5
 -14  16  -1 3957.52 768.235   3
  16 -14  -1 1506.24 511.409   7
 -14  16   0 19552.2 1466.82   5
 -16  14   0 19443.5 1593.36   5
  14   2   0 22232.3 1634.93   6
 -14  16   0 19408.4 1544.53   3
 -16  14   0 19497.2 1461.55   3
 -16  14   1 2876.94 742.003   5
 -14  16   1 3391.18 701.115   3
 -16  14   1 3574.00 761.766   3
  14   2   1 4530.26 808.974   6
  14   2   2 10980.7 1118.15   6
   2  14   2 10722.2 920.147   6
 -14  16   2 10369.9 1039.40   3
 -16  14   2 9995.69 988.041   3
   2  14   3 2690.70 513.554   6
 -14  16   3 2928.64 577.365   3
 -16  14   3 2767.91 507.037   3
  14   2   3 2978.62 568.666   6
   2  14   4 146.150 207.443   6
  -2  16   4 671.094 253.655   6
 -14  16   4 798.132 311.982   3
   2  14   4 1123.55 269.379   4
  16 -15  -4 4203.16 469.190   7
  15 -16  -4 4434.64 497.258   7
 -15  16  -3 2039.53 431.183   5
 -16  15  -3 1122.52 342.697   5
 -15  16  -3 1848.09 398.999   3
 -16  15  -3 2580.49 486.084   3
  16 -15  -3 877.169 332.788   7
  15 -16  -3 1801.86 445.739   7
 -15  16  -2 2441.94 519.550   5
 -16  15  -2 1826.48 421.331   5
 -15  16  -2 2488.13 566.664   3
 -16  15  -2 1651.89 466.546   3
  16 -15  -2 3106.61 536.264   7
  15 -16  -2 3003.32 606.628   7
 -15  16  -1 1723.64 504.306   5
 -16  15  -1 1752.12 584.031   5
 -15  16  -1 1474.09 553.607   3
 -16  15  -1 1890.86 526.316   3
  16 -15  -1 860.918 459.896   7
  15 -16  -1 867.404 495.656   7
 -15  16   0 20466.5 1476.73   5
 -16  15   0 22199.9 1534.32   5
 -15  16   0 22991.6 1546.34   3
 -16  15   0 20012.1 1471.26   3
 -15  16   1 1356.04 489.485   3
 -16  15   1 1801.23 554.342   3
  15   1   1 546.245 408.367   6
 -15  16   2 3141.01 621.222   3
 -16  15   2 2443.76 509.261   3
  15   1   2 1540.20 480.718   6
   1  15   3 946.984 278.695   6
 -15  16   3 1193.26 371.716   3
 -16  15   3 1649.21 391.071   3
  15   1   3 1030.88 331.473   6
   1  15   4 1977.98 320.896   6
 -16  16  -3 1745.58 361.771   5
 -16  16  -3 1714.45 355.328   3
  16 -16  -3 2049.18 375.774   7
 -16  16  -2 1311.06 424.458   5
 -16  16  -2 1683.74 496.360   3
  16 -16  -2 923.000 375.807   7
 -16  16  -1 582.523 327.168   5
 -16  16  -1 1109.48 462.228   3
  16 -16  -1 359.539 355.732   7
 -16  16   0 20498.6 1378.29   3
 -16  16   1 100.032 323.040   3
 -16  16   2 1290.40 423.826   3
 -16  16   3 1911.92 383.679   3
 -17   9  -5 933.433 291.923   5
 -17   8  -5 992.949 280.264   5
 -17   9  -4 3326.21 584.071   5
 -17   8  -4 3672.37 594.267   5
   9 -17  -4 2988.48 413.244   7
 -17   9  -3 2110.13 564.146   5
 -17   8  -3 2309.52 595.387   5
   9 -17  -3 1713.81 426.380   7
 -17   9  -2 14026.2 1243.68   5
 -17   8  -2 12457.5 1159.79   5
   8 -17  -2 12906.4 1036.33   7
   9 -17  -2 12900.3 1093.70   7
 -17   8  -1 4702.94 853.429   5
 -17   9  -1 5143.12 845.333   5
   9   8  -1 6881.06 854.604   6
   8   9  -1 6026.51 785.692   6
 -17   8   0 7678.68 966.093   5
 -17   9   0 8314.34 1020.62   5
  -9  17   0 7433.79 970.824   3
   9   8   0 8667.55 991.782   6
   8   9   0 9070.04 990.925   6
  -8  17   0 11003.2 1136.21   3
  -8  17   1 6294.37 940.054   3
  -9  17   1 6544.95 953.404   3
 -17   8   1 5980.82 843.222   5
 -17   9   1 5839.29 876.421   5
   9   8   1 6327.14 890.586   6
   8   9   1 5488.70 789.961   6
   9   8   2 11373.0 1109.73   4
   8   9   2 13600.9 1185.42   4
  -8  17   2 10764.2 1113.93   3
  -9  17   2 11306.8 1205.84   3
   9   8   2 12627.3 1221.99   6
   8   9   2 11544.8 1137.11   6
   9   8   3 1291.29 460.963   6
   8   9   3 2020.24 560.582   6
  -8  17   3 1972.86 522.300   3
  -9  17   3 1448.36 546.144   3
   9   8   3 773.387 379.522   4
   8   9   3 2001.72 491.801   4
   8   9   4 3568.31 595.841   6
  -8  17   4 3600.97 584.610   3
  -9  17   4 2785.21 518.772   3
   9   8   4 2284.26 469.075   4
   8   9   4 2888.35 514.012   4
  -8  17   4 3536.21 478.407   4
  -9  17   4 2982.57 452.358   4
   9   8   4 3157.71 529.774   6
   8   9   5 570.035 206.440   4
   8   9   5 559.376 215.133   6
 -17  10  -5 214.063 221.867   5
 -17  10  -4 13584.9 1046.45   5
 -17   7  -4 12962.7 982.458   5
  10 -17  -4 13377.3 858.206   7
 -17  10  -3 1026.89 501.955   5
 -17   7  -3 25.7719 354.364   5
  10 -17  -3 329.771 329.152   7
 -17  10  -2 15410.0 1333.78   5
 -17   7  -2 13137.4 1148.14   5
  10 -17  -2 14056.0 1179.35   7
 -10  17  -1 2263.26 517.892   3
 -17   7  -1 1851.75 516.656   5
 -17  10  -1 2609.39 659.125   5
  10   7  -1 1252.80 442.078   6
 -10  17   0 398.695 435.327   3
 -17   7   0 1234.19 449.779   5
 -17  10   0 694.499 499.352   5
  10   7   0 881.915 449.068   6
   7  10   0 1926.02 557.740   6
  -7  17   1 3034.37 657.654   3
 -10  17   1 1383.00 621.642   3
 -17  10   1 1727.57 522.025   5
 -17  10   1 1758.98 493.770   3
  10   7   1 3034.51 662.106   6
   7  10   1 2371.74 596.377   6
   7  10   2 16483.8 1224.33   4
  -7  17   2 13455.2 1182.73   3
  10   7   2 13801.9 1299.78   6
 -10  17   2 10431.3 1177.51   3
   7  10   2 13271.0 1234.44   6
   7  10   3 358.494 404.722   6
  -7  17   3-39.5119 321.884   3
 -10  17   3 532.196 365.931   3
  10   7   3-586.138 509.000   4
   7  10   3 230.962 332.812   4
  10   7   3-75.4047 387.141   6
  10   7   4 13553.5 1057.30   4
   7  10   4 15524.9 1059.70   4
 -10  17   4 12262.6 861.320   4
  -7  17   4 12603.9 937.682   3
 -10  17   4 12963.0 990.454   3
  10   7   4 14076.9 1011.19   6
   7  10   4 12896.7 992.746   6
   7  10   5-179.667 189.181   4
   7  10   5-142.650 184.450   6
 -17  11  -4 16032.0 1107.16   5
  11 -17  -4 15032.1 927.201   7
 -17  11  -3 185.728 410.732   5
 -17   6  -3 566.024 344.758   5
  11 -17  -3 383.045 337.537   7
 -17  11  -2 11213.9 1167.76   5
 -17   6  -2 9547.77 909.835   5
  11 -17  -2 11203.5 1071.49   7
 -17  11  -1 11543.9 1182.77   5
  11   6  -1 11333.4 1100.42   6
 -11  17  -1 11424.8 1120.30   3
 -11  17   0 1648.81 635.125   3
 -17  11   0 525.643 442.005   5
  11   6   0 1834.49 555.170   6
   6  11   0 1950.19 492.821   6
 -17  11   1 10458.2 1041.03   3
 -17  11   1 10362.7 1137.30   5
  -6  17   1 12137.6 1088.12   3
  11   6   1 13445.5 1251.40   6
   6  11   1 12595.4 1130.01   6
 -11  17   1 11388.8 1218.73   3
  -6  17   2 11257.3 1064.54   3
  11   6   2 11907.0 1174.07   6
 -11  17   2 11571.4 1126.50   3
   6  11   2 10589.2 1061.11   6
 -17  11   2 9084.68 848.462   3
   6  11   3 25.0906 336.191   6
  -6  17   3 368.751 308.861   3
 -11  17   3 305.323 376.880   3
   6  11   3 924.003 371.650   4
  11   6   3 193.339 353.114   6
   6  11   4 13145.4 944.296   4
 -11  17   4 12857.8 963.815   3
  11   6   4 14044.9 966.119   6
   6  11   4 14381.5 1016.78   6
 -17  12  -4 8788.94 800.431   5
  12 -17  -4 10564.6 800.770   7
 -17  12  -3 488.122 419.254   5
  12 -17  -3 325.118 355.956   7
 -17  12  -2 6127.36 874.875   5
  12 -17  -2 5159.14 789.927   7
 -12  17  -1 6585.15 887.935   3
 -17  12  -1 7331.29 965.722   5
  12   5  -1 6268.05 850.941   6
 -17  12   0 12651.7 1274.23   5
  12   5   0 13985.5 1277.14   6
 -12  17   0 16959.6 1421.67   3
 -17  12   1 7961.52 986.104   5
  12   5   1 9117.28 1100.96   6
   5  12   1 7274.58 815.458   6
 -12  17   1 8938.89 1069.15   3
 -17  12   1 7669.89 927.074   3
  -5  17   2 5245.25 697.844   3
 -12  17   2 6109.20 852.408   3
  12   5   2 7622.82 975.282   6
   5  12   2 6548.19 820.123   6
 -17  12   2 5867.70 718.035   3
   5  12   3 2.48913 327.836   6
 -12  17   3 210.232 341.873   3
   5  12   3 175.229 248.940   4
  12   5   3 87.3786 335.706   6
   5  12   4 8962.06 738.945   4
 -12  17   4 8803.55 783.335   3
  12   5   4 9736.21 756.258   6
   5  12   4 9745.95 800.950   6
 -17  13  -4 2116.93 394.669   5
  13 -17  -4 1879.36 363.760   7
 -17  13  -3 364.613 350.636   5
  13 -17  -3 53.1607 320.219   7
 -17  13  -2 10886.9 1084.23   5
  13 -17  -2 11027.0 1010.44   7
 -13  17  -2 9617.50 860.022   3
 -13  17  -1 50.4151 398.387   3
 -17  13  -1-171.611 476.232   5
 -17  13   0 17171.2 1350.94   3
 -17  13   0 17205.3 1402.80   5
  13   4   0 18136.5 1393.79   6
 -13  17   0 18454.6 1468.18   3
 -13  17   1 1289.57 567.350   3
 -17  13   1 364.504 445.790   5
 -17  13   1-119.889 356.152   3
  13   4   1 182.868 415.672   6
   4  13   1-57.5624 287.494   6
   4  13   2 9104.69 900.335   6
 -13  17   2 11148.6 1091.56   3
 -17  13   2 9938.44 892.006   3
   4  13   3 247.821 280.671   6
 -13  17   3-214.239 344.555   3
  13   4   3 478.969 389.040   6
   4  13   4 1623.58 350.187   6
 -13  17   4 1650.50 342.294   3
  13   4   4 1840.18 317.329   6
 -17  14  -4 1344.86 277.299   5
  14 -17  -4 2169.17 348.519   7
  17 -14  -3 116.372 211.787   7
  14 -17  -3 139.858 294.732   7
 -17  14  -2 7832.46 890.790   5
  17 -14  -2 6235.78 651.307   7
  14 -17  -2 8516.50 857.092   7
 -14  17  -2 7243.08 742.051   3
 -17  14  -1 21.5587 393.041   5
 -14  17  -1 520.118 378.761   3
 -17  14  -1 796.551 461.227   3
  17 -14  -1 100.950 333.069   7
  14 -17  -1 339.125 451.529   7
 -17  14   0 15144.2 1282.09   5
  14   3   0 12125.3 1120.76   6
 -14  17   0 12717.4 1173.50   3
 -17  14   0 11451.8 1094.80   3
 -14  17   1 326.138 364.497   3
 -17  14   1 116.285 352.563   3
  14   3   1-505.839 451.339   6
  14   3   2 8127.77 919.586   6
   3  14   2 7431.71 719.532   6
 -14  17   2 8266.88 894.175   3
 -17  14   2 7099.10 771.047   3
   3  14   3-477.337 241.244   6
 -14  17   3-172.303 316.799   3
  14   3   3-191.568 277.048   6
 -17  15  -3 57.9921 278.698   5
 -17  15  -3 698.363 291.227   3
  17 -15  -3 458.783 221.333   7
  15 -17  -3 531.364 265.577   7
 -17  15  -2 6541.77 761.332   5
  17 -15  -2 4862.89 570.199   7
  15 -17  -2 6729.32 720.691   7
 -15  17  -2 4628.95 612.523   3
 -17  15  -2 6618.41 765.866   3
 -17  15  -1 578.105 405.368   5
 -15  17  -1 495.070 397.842   3
 -17  15  -1 149.585 384.061   3
  17 -15  -1 437.643 298.151   7
  15 -17  -1 374.688 344.682   7
 -17  15   0 5555.79 808.837   5
 -15  17   0 5634.90 767.717   3
  17 -15   0 3278.19 546.491   7
 -17  15   0 6223.61 797.564   3
 -15  17   1 136.438 326.910   3
 -17  15   1 266.773 313.541   3
  15   2   2 4795.64 657.535   6
 -15  17   2 5888.75 711.849   3
 -17  15   2 7152.95 723.166   3
 -15  17   3-34.7280 219.224   3
  16 -17  -3 413.340 224.537   7
 -17  16  -2 1702.88 372.087   5
 -16  17  -2 812.302 287.797   3
 -17  16  -2 1126.57 373.443   3
  17 -16  -2 564.495 269.678   7
  16 -17  -2 1193.56 359.820   7
 -17  16  -1 1160.47 393.300   5
 -16  17  -1 623.707 348.711   3
 -17  16  -1 863.491 361.228   3
  17 -16  -1 1241.89 373.731   7
  16 -17  -1 430.978 277.662   7
 -16  17   0 19365.9 1233.61   3
 -17  16   0 19401.2 1224.39   3
 -16  17   1 959.777 380.598   3
 -17  16   1 535.967 300.597   3
  17 -16   1-17.7874 310.838   7
 -16  17   2 1421.52 380.037   3
 -17  16   2 1071.58 320.599   3
 -17  17  -1-117.318 235.855   3
  17 -17  -1 37.4150 209.018   7
  17 -17   0 8212.31 687.423   7
 -17  17   0 16556.2 1034.86   3
 -17  17   1 107.202 209.012   3
  17 -17   1-294.178 232.870   7
 -17  17   2 1711.26 339.742   3
 -18   9  -4 2428.17 393.997   5
 -18   9  -3-191.857 293.156   5
 -18   9  -2 3920.80 618.821   5
   9 -18  -2 5319.98 664.238   7
 -18   9  -1-434.442 385.258   5
   9 -18  -1-43.7943 381.966   7
   9   9  -1-351.398 362.581   6
 -18   9   0 26357.8 1571.34   5
   9   9   0 35062.0 1761.15   6
  -9  18   1-372.042 413.919   3
   9   9   1 55.5207 346.538   6
  -9  18   2 4461.67 695.177   3
   9   9   2 3885.46 644.640   6
  -9  18   3-311.572 312.333   3
   9   9   3 344.296 303.270   6
  -9  18   4 2916.30 416.802   3
   9   9   4 4330.99 509.148   6
 -18  10  -4 2160.25 379.081   5
 -18   8  -3-163.570 264.730   5
 -18  10  -3-531.037 332.054   5
  10 -18  -3-21.3109 228.446   7
 -18   8  -2 15696.1 1116.83   5
 -18  10  -2 15865.2 1188.06   5
  10 -18  -2 16223.8 1174.91   7
 -18   8  -1 1608.85 418.160   5
 -18  10  -1 2569.52 541.521   5
  10 -18  -1 2188.92 594.943   7
  10   8  -1 1722.80 416.123   6
 -10  18   0 4639.32 758.399   3
 -18   8   0 4093.45 629.437   5
 -18  10   0 5240.52 775.879   5
  10   8   0 6144.10 801.147   6
   8  10   0 6920.07 802.435   6
  -8  18   1 2420.61 558.367   3
 -10  18   1 2170.95 566.180   3
 -18  10   1 2061.71 457.566   3
  10   8   1 2460.41 580.062   6
   8  10   1 2330.84 513.224   6
  -8  18   2 16420.5 1204.45   3
 -10  18   2 15367.5 1244.97   3
  10   8   2 18072.7 1287.70   6
   8  10   2 17885.4 1274.35   6
  -8  18   3-184.898 278.224   3
 -10  18   3 84.7624 273.021   3
  10   8   3-192.221 273.733   6
   8  10   3-162.757 325.127   6
 -10  18   4 1588.48 331.003   3
  10   8   4 2013.78 361.793   6
   8  10   4 2180.68 367.745   6
 -18  11  -4 2402.69 394.901   5
 -18   7  -3 561.048 256.955   5
 -18  11  -3 1018.82 383.691   5
  11 -18  -3 1285.48 348.869   7
 -18   7  -2 7357.21 724.955   5
 -18  11  -2 8822.67 915.976   5
  11 -18  -2 9599.70 969.681   7
 -18  11  -1 393.422 358.873   5
  11 -18  -1 75.0001 392.786   7
  11   7  -1 467.498 284.027   6
 -18  11   0 7131.75 895.251   5
 -11  18   0 5010.24 808.075   3
  11   7   0 6381.21 800.797   6
   7  11   0 7326.84 775.939   6
  -7  18   1 436.936 346.679   3
 -18  11   1-298.105 433.748   5
 -11  18   1 808.085 465.399   3
 -18  11   1 182.966 273.801   3
  11   7   1 1117.42 460.802   6
   7  11   1 1202.26 453.375   6
  -7  18   2 9911.56 927.089   3
  11   7   2 10300.5 991.264   6
 -11  18   2 8390.16 934.099   3
   7  11   2 10031.4 949.183   6
  -7  18   3 1424.61 366.822   3
 -11  18   3 1389.68 399.937   3
  11   7   3 1131.25 359.442   6
   7  11   3 1683.05 425.987   6
 -11  18   4 2162.91 362.646   3
  11   7   4 2445.52 366.598   6
   7  11   4 2423.15 366.324   6
 -18  12  -4 11545.9 748.036   5
 -18  12  -3 1130.05 352.742   5
  12 -18  -3 1203.41 355.386   7
 -18  12  -2 6237.92 791.564   5
  12 -18  -2 7487.16 824.355   7
 -12  18  -1-127.339 311.170   3
 -18  12  -1 79.6465 369.151   5
  12 -18  -1-22.3264 450.133   7
 -12  18   0 1434.44 500.450   3
 -18  12   0 1477.31 494.847   5
 -18  12   0 2105.80 544.054   3
  12   6   0 704.499 362.150   6
 -12  18   1-335.709 429.777   3
 -18  12   1 423.319 282.762   3
  12   6   1 26.0373 341.876   6
   6  12   1 39.1538 269.326   6
  -6  18   2 6502.51 691.118   3
  12   6   2 7937.03 874.252   6
 -12  18   2 7326.26 859.383   3
   6  12   2 7751.11 787.184   6
   6  12   3 791.958 314.647   6
 -12  18   3 1561.32 413.678   3
  12   6   3 1316.89 405.019   6
 -12  18   4 8575.08 631.236   3
   6  12   4 10393.7 671.541   6
 -18  13  -3 1839.98 433.418   5
  13 -18  -3 3274.56 475.827   7
 -18  13  -2 5393.44 706.827   5
  13 -18  -2 6090.86 741.691   7
 -13  18  -1 1199.29 393.896   3
 -18  13  -1 1291.52 488.816   5
  13 -18  -1 1917.35 531.953   7
 -13  18   0 2790.73 611.352   3
 -18  13   0 2318.81 546.971   5
 -18  13   0 2917.42 593.551   3
  13   5   0 1845.23 493.252   6
 -13  18   1 1506.44 470.992   3
 -18  13   1 2015.43 437.731   3
  13   5   1 1978.14 480.296   6
  13   5   2 6257.98 759.258   6
   5  13   2 6307.34 661.376   6
 -13  18   2 5202.22 712.864   3
 -18  13   2 4751.04 538.563   3
 -13  18   3 2313.91 453.216   3
  13   5   3 2354.78 425.872   6
   5  13   3 2342.65 397.411   6
 -18  14  -3-168.210 255.493   5
  14 -18  -3-335.676 250.143   7
 -18  14  -2 1684.70 422.727   5
 -18  14  -2 2313.14 458.753   3
  14 -18  -2 1973.55 459.848   7
 -14  18  -1 690.875 345.557   3
 -18  14  -1 1137.87 457.775   5
 -18  14  -1 510.589 345.054   3
  14 -18  -1 276.705 374.304   7
 -18  14   0 10415.6 987.500   5
 -14  18   0 10161.9 962.541   3
 -18  14   0 10301.5 955.955   3
 -14  18   1 257.187 303.906   3
 -18  14   1-82.6077 252.124   3
  14   4   1-22.2982 316.320   6
 -14  18   2 1821.53 447.583   3
 -18  14   2 1687.91 342.533   3
  14   4   2 1532.68 403.246   6
 -14  18   3 56.8288 207.323   3
  14   4   3-202.298 226.568   6
 -18  15  -2 3184.13 497.914   5
 -18  15  -2 2378.61 436.672   3
  15 -18  -2 3217.58 515.484   7
 -15  18  -1 214.761 239.382   3
 -18  15  -1 552.267 331.006   5
 -18  15  -1 120.553 312.530   3
  15 -18  -1 30.9823 299.719   7
  15 -18   0 5278.87 675.013   7
 -15  18   0 6395.94 712.550   3
 -18  15   0 7306.12 744.587   3
 -15  18   1 469.063 270.765   3
 -18  15   1 145.382 263.908   3
 -15  18   2 2354.20 428.943   3
 -18  15   2 2602.28 391.166   3
 -18  16  -2 3036.14 425.444   3
  16 -18  -2 3008.32 419.979   7
 -16  18  -1 1749.24 377.676   3
 -18  16  -1 1565.54 371.444   3
  16 -18  -1 1415.63 337.228   7
 -16  18   0 7085.78 685.808   3
 -18  16   0 7941.35 720.490   3
 -16  18   1 1305.07 351.723   3
 -18  16   1 1554.28 348.479   3
 -16  18   2 2658.01 372.694   3
 -17  18   0 11970.9 773.583   3
 -18  17   0 12392.5 786.343   3
 -19  10  -3-392.214 237.881   5
 -19   9  -2 4179.07 522.547   5
 -19  10  -2 3787.99 534.460   5
 -19   9  -1 1104.24 341.386   5
 -19  10  -1 1486.50 405.526   5
  10 -19  -1 2320.79 492.869   7
 -19  10   0 24959.1 1341.99   5
   9 -19   0 25033.2 1251.24   7
  10   9   0 27719.6 1401.14   6
   9  10   0 26683.7 1326.55   6
 -19  10   0 23276.1 1163.71   3
  -9  19   1 1131.65 316.960   3
 -10  19   1 1424.83 404.005   3
  10   9   1 1620.48 423.282   6
   9  10   1 1783.85 428.417   6
  -9  19   2 5618.30 629.722   3
 -10  19   2 5358.45 628.548   3
  10   9   2 5638.37 660.004   6
   9  10   2 5323.41 629.655   6
 -10  19   3 86.1385 187.629   3
  -9  19   3 95.0285 179.676   3
  10   9   3 226.693 227.908   6
   9  10   3 122.589 189.863   6
 -19  11  -3-13.4400 191.564   5
 -19  11  -2 7491.76 722.943   5
  11 -19  -2 10741.9 819.846   7
 -19  11  -1 548.092 291.446   5
  11 -19  -1 809.961 406.706   7
 -19  11   0 7336.34 760.521   5
  11   8   0 7598.58 767.873   6
 -11  19   0 5999.69 634.297   3
 -19  11   0 6302.03 660.236   3
 -11  19   1 1344.49 414.688   3
  11   8   1 610.918 309.153   6
   8  11   1 739.348 323.471   6
  -8  19   2 8104.98 690.110   3
 -11  19   2 9569.13 820.421   3
  11   8   2 8775.68 806.463   6
   8  11   2 9303.77 779.684   6
 -11  19   3 353.646 228.552   3
  11   8   3 404.219 225.185   6
   8  11   3 313.566 192.691   6
 -19  12  -3 536.411 226.030   5
 -19  12  -2 8552.35 776.723   5
  12 -19  -2 10829.1 820.420   7
 -19  12  -1 399.745 318.625   5
 -19  12  -1 347.627 300.461   3
  12 -19  -1 381.727 325.513   7
 -12  19   0 2107.64 443.588   3
 -19  12   0 1614.19 394.753   5
 -19  12   0 2280.64 442.117   3
  12   7   0 1802.95 390.611   6
 -12  19   1 523.365 312.271   3
 -19  12   1-14.0281 207.897   3
  12   7   1 97.3233 251.504   6
   7  12   1 267.405 250.808   6
 -12  19   2 8897.74 767.461   3
  12   7   2 8457.97 772.051   6
   7  12   2 8954.18 707.355   6
 -12  19   3 750.530 239.695   3
  12   7   3 827.324 253.126   6
 -19  13  -2 2371.53 427.627   5
 -19  13  -2 1861.25 388.005   3
  13 -19  -2 2551.33 448.906   7
 -19  13  -1-403.629 273.407   5
  13 -19  -1 127.522 310.971   7
 -19  13   0 4063.24 589.975   5
 -13  19   0 3662.59 530.464   3
 -19  13   0 4307.97 563.877   3
 -13  19   1 151.918 302.328   3
 -19  13   1-171.990 203.283   3
  13   6   1-213.337 312.870   6
 -13  19   2 2215.46 404.143   3
  13   6   2 1695.10 342.523   6
 -19  14  -2 4272.51 520.572   5
 -19  14  -2 3205.20 459.944   3
  14 -19  -2 4372.00 507.596   7
 -19  14  -1 2306.76 445.671   5
 -19  14  -1 1970.22 421.779   3
  14 -19  -1 1919.13 446.969   7
 -14  19   0 1589.91 342.651   3
 -19  14   0 2004.40 405.512   3
  14 -19   0 1157.85 373.929   7
 -14  19   1 2205.46 434.318   3
 -19  14   1 2131.32 370.747   3
 -14  19   2 3203.85 422.622   3
 -19  15  -1-11.2695 192.549   3
  15 -19  -1 57.4205 226.573   7
 -15  19   0 1172.80 310.686   3
 -19  15   0 1650.21 361.122   3
  15 -19   0 794.362 350.706   7
 -15  19   1-43.4289 192.898   3
  15 -19   1-535.900 295.714   7
   0   0   0    0.00    0.00   0
TITL FJU-56 in P6(3)mc
REM P6(3)mc (#186 in standard setting)
CELL 1.54184  16.312491  16.312491   7.526723  90.0000  90.0000 120.0000
ZERR   25.00   0.000372   0.000372   0.000260   0.0000   0.0000   0.0000
LATT -1
SYMM -y, x-y, z
SYMM -x+y,-x, z
SYMM -x,-y, z+1/2
SYMM  y,-x+y, z+1/2
SYMM  x-y, x, z+1/2
SYMM -y,-x, z
SYMM -x+y, y, z
SYMM  x, x-y, z
SYMM  y, x, z+1/2
SYMM  x-y,-y, z+1/2
SYMM -x,-x+y, z+1/2
SFAC C H N O Co
UNIT 25.00 25.00 25.00 25.00 25.00
TREF
HKLF 4
END
;
_shelx_hkl_checksum              74322
_shelx_fab_checksum              59596
_shelx_fab_file
;
   -1    2    0    -31.97     -0.11
    0    2    0     -3.04     -0.33
   -1    3    0     -8.86      0.13
    0    3    0     -1.20     -0.02
   -2    4    0     33.64      0.10
    0    4    0    -11.16      0.06
   -2    5    0     20.91      0.02
   -1    5    0      5.19     -0.04
    0    5    0    -14.75     -0.03
   -3    6    0    -13.97      0.02
   -2    6    0     -3.53      0.20
   -1    6    0     -7.51     -0.18
    0    6    0      5.18      0.04
   -3    7    0     -9.18     -0.10
   -2    7    0     -2.36     -0.02
   -1    7    0      6.81     -0.07
    0    7    0      5.66      0.13
   -4    8    0      6.29     -0.11
   -3    8    0     -3.63     -0.01
   -2    8    0      4.66     -0.27
   -1    8    0      1.54     -0.52
    0    8    0      0.14     -0.06
   -4    9    0      3.31      0.21
   -3    9    0     -0.64      0.18
   -2    9    0     -2.34      0.29
   -1    9    0     -3.77      0.09
    0    9    0     -4.27      0.05
   -5   10    0      5.82      0.03
   -4   10    0      6.22      0.06
   -3   10    0     -0.01     -0.04
   -2   10    0     -3.91     -0.25
   -1   10    0     -0.39      0.40
    0   10    0      0.93      0.06
   -5   11    0     -6.94     -0.06
   -4   11    0     -2.53     -0.07
   -3   11    0      0.61     -0.15
   -2   11    0      3.07      0.01
   -1   11    0      3.02      0.13
    0   11    0      0.69     -0.01
   -6   12    0     -1.25      0.03
   -5   12    0     -1.76      0.03
   -4   12    0      3.00     -0.08
   -3   12    0      2.19      0.02
   -2   12    0      1.59     -0.04
   -1   12    0     -1.30      0.05
    0   12    0     -2.20     -0.06
   -6   13    0      0.88      0.00
   -5   13    0      0.31     -0.01
   -4   13    0      0.35      0.02
   -3   13    0     -1.44     -0.04
   -2   13    0     -2.50      0.02
   -1   13    0     -0.27      0.10
    0   13    0     -1.55      0.03
   -7   14    0      1.09      0.00
   -6   14    0      2.42      0.06
   -5   14    0     -1.46      0.08
   -4   14    0     -1.31     -0.01
   -3   14    0     -1.01     -0.04
   -2   14    0      1.12     -0.03
   -1   14    0     -0.30     -0.01
    0   14    0      2.11      0.01
   -7   15    0      0.26     -0.02
   -6   15    0     -1.48      0.01
   -5   15    0     -0.67      0.00
   -4   15    0     -0.50      0.01
   -3   15    0      1.20     -0.01
   -2   15    0      2.95     -0.06
   -1   15    0      0.73      0.11
    0   15    0     -0.21     -0.06
   -8   16    0      0.35     -0.05
   -7   16    0     -0.77      0.05
   -6   16    0     -0.05      0.01
   -5   16    0      1.16      0.07
   -4   16    0      1.16     -0.05
   -3   16    0      0.12     -0.07
   -2   16    0     -0.64      0.04
   -1   16    0     -1.63      0.02
    0   16    0     -0.42     -0.01
   -8   17    0      0.74     -0.06
   -7   17    0      0.00     -0.02
   -6   17    0     -0.28     -0.01
   -5   17    0     -0.20      0.00
   -4   17    0     -1.07     -0.04
   -3   17    0     -1.17      0.03
   -2   17    0     -1.63     -0.03
   -1   17    0      0.48      0.04
    0   17    0      0.23      0.02
   -9   18    0     -0.06      0.04
   -8   18    0      0.84      0.00
   -7   18    0     -0.60      0.00
   -6   18    0      0.65      0.02
   -5   18    0      1.01      0.03
   -4   18    0     -0.20      0.03
   -3   18    0      0.65     -0.05
   -2   18    0      1.84      0.01
   -1   18    0     -0.13      0.02
   -9   19    0     -0.98     -0.01
   -8   19    0     -0.44     -0.03
   -7   19    0     -0.06     -0.01
   -6   19    0     -0.83      0.02
   -5   19    0     -0.26      0.02
   -4   19    0     -0.16      0.01
    0    1    1     49.85     -0.03
    0    2    1     47.26     -0.29
   -1    3    1      8.91     -0.11
    0    3    1     24.25     -0.42
   -1    4    1    -15.77      0.21
    0    4    1      4.39      0.05
   -2    5    1     -5.43      0.12
   -1    5    1    -16.82      0.06
    0    5    1    -18.16      0.13
   -2    6    1      9.13     -0.08
   -1    6    1      3.35     -0.07
    0    6    1     10.50     -0.27
   -3    7    1      6.30     -0.22
   -2    7    1      8.71      0.36
   -1    7    1      2.88     -0.07
    0    7    1     -0.61     -0.18
   -3    8    1     -0.33      0.13
   -2    8    1      1.54      0.18
   -1    8    1     -3.28      0.02
    0    8    1      0.29      0.34
   -4    9    1     -0.75     -0.11
   -3    9    1     -6.91     -0.06
   -2    9    1     -2.36     -0.09
   -1    9    1     -2.16     -0.73
    0    9    1      3.24     -0.04
   -4   10    1     -3.72      0.15
   -3   10    1     -5.66      0.05
   -2   10    1      0.89      0.07
   -1   10    1      2.38      0.05
    0   10    1      2.48     -0.11
   -5   11    1      0.99      0.01
   -4   11    1      5.02      0.11
   -3   11    1      4.24      0.01
   -2   11    1      1.24      0.07
   -1   11    1     -1.23     -0.08
    0   11    1     -3.19      0.14
   -5   12    1      1.97     -0.02
   -4   12    1      3.24     -0.03
   -3   12    1     -0.16     -0.03
   -2   12    1     -2.11     -0.06
   -1   12    1     -1.54      0.00
    0   12    1      0.99      0.06
   -6   13    1      0.24      0.03
   -5   13    1     -1.80     -0.04
   -4   13    1     -1.20     -0.05
   -3   13    1     -2.97      0.08
   -2   13    1     -0.70      0.02
   -1   13    1      1.92     -0.02
    0   13    1      0.25      0.01
   -6   14    1     -0.30     -0.03
   -5   14    1     -2.18      0.05
   -4   14    1      0.34      0.06
   -3   14    1      1.87     -0.01
   -2   14    1      0.09      0.04
   -1   14    1      2.60      0.01
    0   14    1     -1.10      0.00
   -7   15    1     -0.39      0.06
   -6   15    1      0.82     -0.04
   -5   15    1     -0.65     -0.01
   -4   15    1      1.97     -0.04
   -3   15    1      0.85     -0.01
   -2   15    1      0.01     -0.02
   -1   15    1     -1.70     -0.08
    0   15    1     -2.59      0.01
   -7   16    1      1.01     -0.02
   -6   16    1      0.74      0.04
   -5   16    1      0.63     -0.03
   -4   16    1     -0.62     -0.01
   -3   16    1     -0.68      0.01
   -2   16    1     -0.87      0.04
   -1   16    1      0.20     -0.06
    0   16    1      1.16     -0.03
   -8   17    1     -0.34     -0.01
   -7   17    1     -0.48     -0.01
   -6   17    1     -0.99     -0.08
   -5   17    1     -1.59      0.00
   -4   17    1     -0.37      0.02
   -3   17    1     -0.49     -0.02
   -2   17    1      0.68      0.04
   -1   17    1      1.27      0.06
    0   17    1     -0.47      0.02
   -8   18    1      0.19      0.01
   -7   18    1      0.42      0.04
   -6   18    1      0.71      0.04
   -5   18    1      0.43      0.00
   -4   18    1      0.24     -0.02
   -3   18    1      1.25      0.03
   -2   18    1     -0.40      0.03
   -9   19    1      0.19      0.01
   -8   19    1      0.60      0.01
   -7   19    1     -0.50      0.05
   -6   19    1     -0.46      0.03
   -5   19    1      0.28      0.00
   -4   19    1      0.08     -0.02
    0    0    2    -96.17      0.04
    0    1    2     -2.32      0.04
   -1    2    2      9.23     -0.08
    0    2    2     23.17      0.07
   -1    3    2      3.78     -0.20
    0    3    2      2.74      0.05
   -2    4    2    -16.18      0.25
   -1    4    2     -9.38      0.04
    0    4    2     15.35     -0.15
   -2    5    2    -12.61      0.08
   -1    5    2     -5.42     -0.01
    0    5    2     16.72      0.01
   -3    6    2      2.12     -0.12
   -2    6    2      6.25     -0.29
   -1    6    2      1.80     -0.01
    0    6    2     -3.32      0.10
   -3    7    2      8.46      0.04
   -2    7    2      4.49      0.06
   -1    7    2     -8.20      0.02
    0    7    2     -3.34     -0.29
   -4    8    2     -0.43      0.28
   -3    8    2     -1.40      0.00
   -2    8    2     -0.90      0.25
   -1    8    2     -3.40      0.31
    0    8    2      2.55      0.03
   -4    9    2     -4.71     -0.15
   -3    9    2     -2.19     -0.03
   -2    9    2      3.98      0.04
   -1    9    2      2.14     -0.10
    0    9    2      4.30     -0.01
   -5   10    2     -4.49     -0.08
   -4   10    2     -0.76     -0.08
   -3   10    2      0.68      0.01
   -2   10    2      5.51     -0.03
   -1   10    2     -0.69     -0.21
    0   10    2     -0.44     -0.07
   -5   11    2      4.06      0.07
   -4   11    2      1.84      0.10
   -3   11    2     -2.72      0.01
   -2   11    2     -2.72     -0.06
   -1   11    2     -3.94     -0.01
    0   11    2     -1.40     -0.04
   -6   12    2      2.80     -0.12
   -5   12    2      0.95     -0.01
   -4   12    2     -1.26     -0.01
   -3   12    2     -2.23      0.00
   -2   12    2      0.00      0.14
   -1   12    2      0.87      0.04
    0   12    2      2.66      0.08
   -6   13    2     -1.91     -0.05
   -5   13    2     -0.61      0.00
   -4   13    2     -0.74      0.02
   -3   13    2      1.24      0.02
   -2   13    2      2.85     -0.03
   -1   13    2      0.74     -0.11
    0   13    2      0.69      0.08
   -7   14    2     -1.41     -0.05
   -6   14    2     -0.57      0.10
   -5   14    2      0.64      0.05
   -4   14    2      1.78     -0.04
   -3   14    2      0.80      0.04
   -2   14    2     -0.32     -0.02
   -1   14    2     -0.66     -0.04
    0   14    2     -1.69     -0.04
   -7   15    2      0.69      0.05
   -6   15    2      1.08     -0.06
   -5   15    2      0.56     -0.02
   -4   15    2     -0.40      0.06
   -3   15    2     -1.32     -0.02
   -2   15    2     -2.80     -0.04
   -1   15    2     -0.39      0.00
    0   15    2      0.61      0.07
   -8   16    2      0.06     -0.10
   -7   16    2     -0.38     -0.02
   -6   16    2      0.23     -0.05
   -5   16    2     -1.44     -0.01
   -4   16    2     -0.60     -0.04
   -3   16    2      0.24      0.02
   -2   16    2      0.54      0.00
   -1   16    2      1.95      0.00
    0   16    2      0.14      0.07
   -8   17    2     -0.72      0.03
   -7   17    2      0.37     -0.04
   -6   17    2     -0.27      0.05
   -5   17    2      0.45      0.03
   -4   17    2      0.93      0.01
   -3   17    2      0.68     -0.01
   -2   17    2      0.47      0.06
   -1   17    2     -0.51     -0.05
    0   17    2     -0.55     -0.09
   -9   18    2     -0.22      0.01
   -8   18    2     -0.08      0.05
   -7   18    2      0.38     -0.01
   -6   18    2      0.54      0.03
   -5   18    2     -0.99     -0.02
   -4   18    2      0.20      0.04
   -3   18    2     -0.21      0.03
   -2   18    2     -1.04     -0.01
   -9   19    2      0.18      0.00
   -8   19    2     -0.06      0.01
   -7   19    2      0.15      0.01
   -6   19    2      0.12     -0.03
   -5   19    2      0.09     -0.07
    0    1    3    -14.65     -0.12
    0    2    3    -15.70     -0.95
   -1    3    3    -11.26      0.02
    0    3    3    -11.50      0.14
   -1    4    3      5.44     -0.11
    0    4    3      8.40      0.00
   -2    5    3      2.74      0.27
   -1    5    3      6.21      0.09
    0    5    3     11.86      0.08
   -2    6    3     -2.15     -0.08
   -1    6    3     -6.33      0.02
    0    6    3     -0.97     -0.04
   -3    7    3     -4.32      0.08
   -2    7    3     -8.69     -0.09
   -1    7    3     -3.33      0.02
    0    7    3      2.37      0.04
   -3    8    3     -1.35      0.08
   -2    8    3      1.40     -0.04
   -1    8    3      2.08      0.01
    0    8    3      3.23     -0.15
   -4    9    3      2.31     -0.05
   -3    9    3      5.56     -0.01
   -2    9    3      4.11     -0.04
   -1    9    3     -0.39      0.05
    0    9    3     -1.16     -0.05
   -4   10    3      2.95     -0.03
   -3   10    3      1.08     -0.02
   -2   10    3     -1.35      0.01
   -1   10    3     -4.17      0.04
    0   10    3     -0.70     -0.01
   -5   11    3     -1.33     -0.04
   -4   11    3     -2.90      0.00
   -3   11    3     -3.95      0.08
   -2   11    3     -0.52      0.01
   -1   11    3      0.20      0.06
    0   11    3      3.73      0.04
   -5   12    3     -2.44     -0.05
   -4   12    3     -0.30      0.03
   -3   12    3     -0.61     -0.01
   -2   12    3      2.50     -0.09
   -1   12    3      1.42      0.04
    0   12    3      0.31     -0.16
   -6   13    3      0.49      0.01
   -5   13    3      1.68      0.09
   -4   13    3      2.26      0.02
   -3   13    3      2.06      0.01
   -2   13    3      1.13      0.10
   -1   13    3     -1.99      0.00
    0   13    3     -1.88     -0.03
   -6   14    3      0.24      0.01
   -5   14    3      0.75     -0.11
   -4   14    3      0.09     -0.08
   -3   14    3     -1.97     -0.03
   -2   14    3     -0.79     -0.04
   -1   14    3     -1.84     -0.08
    0   14    3      0.48      0.06
   -7   15    3     -0.97     -0.04
   -6   15    3     -0.96      0.01
   -5   15    3     -0.87      0.04
   -4   15    3     -1.39      0.06
   -3   15    3     -0.63     -0.04
   -2   15    3      1.26     -0.02
   -1   15    3      1.35      0.05
    0   15    3      1.52      0.01
   -7   16    3     -0.52     -0.02
   -6   16    3      0.00      0.02
   -5   16    3      0.04      0.00
   -4   16    3      1.05      0.02
   -3   16    3      1.26      0.02
   -2   16    3      0.54      0.03
   -1   16    3     -0.12      0.05
    0   16    3     -0.99     -0.02
   -8   17    3      0.96     -0.04
   -7   17    3     -0.31      0.01
   -6   17    3      0.51     -0.03
   -5   17    3      0.70      0.05
   -4   17    3     -0.30     -0.02
   -3   17    3     -0.40     -0.02
   -2   17    3     -1.44     -0.02
   -1   17    3      0.13     -0.03
   -8   18    3      0.25      0.01
   -7   18    3      0.39     -0.03
   -6   18    3     -0.55      0.04
   -5   18    3     -0.51      0.03
   -4   18    3      0.48     -0.02
   -9   19    3     -0.55      0.00
   -8   19    3      0.75     -0.01
   -7   19    3     -0.72     -0.04
    0    0    4      8.46      3.43
    0    1    4      2.79      0.79
   -1    2    4      0.62     -2.10
    0    2    4     -5.74     -0.89
   -1    3    4     -5.51      0.36
    0    3    4     -2.03     -0.10
   -2    4    4     12.52      0.49
   -1    4    4      4.04      0.22
    0    4    4     -3.76     -0.18
   -2    5    4      5.44      0.39
   -1    5    4     -0.66     -0.20
    0    5    4     -5.90     -0.21
   -3    6    4     -2.32     -0.43
   -2    6    4     -2.64      0.15
   -1    6    4     -4.25     -0.04
    0    6    4      4.59      0.07
   -3    7    4     -5.05     -0.19
   -2    7    4     -0.14      0.04
   -1    7    4      4.00      0.03
    0    7    4      6.07     -0.28
   -4    8    4      0.15      0.15
   -3    8    4      1.30     -0.01
   -2    8    4      1.61      0.19
   -1    8    4      0.79      0.08
    0    8    4     -2.20     -0.09
   -4    9    4      4.30     -0.27
   -3    9    4      1.11     -0.06
   -2    9    4     -2.99      0.11
   -1    9    4     -3.39     -0.03
    0    9    4     -1.43      0.07
   -5   10    4      0.85      0.10
   -4   10    4      0.19     -0.03
   -3   10    4     -2.40      0.07
   -2   10    4     -2.26      0.08
   -1   10    4      0.23     -0.04
    0   10    4      2.35     -0.15
   -5   11    4     -2.61      0.08
   -4   11    4     -1.63      0.03
   -3   11    4      1.15     -0.09
   -2   11    4      2.27      0.04
   -1   11    4      2.04     -0.03
    0   11    4      2.51     -0.02
   -6   12    4     -0.46     -0.04
   -5   12    4     -0.34      0.04
   -4   12    4      1.77     -0.02
   -3   12    4      1.31     -0.04
   -2   12    4      0.72      0.10
   -1   12    4     -0.89     -0.02
    0   12    4     -1.05      0.02
   -6   13    4      2.09     -0.04
   -5   13    4      0.55     -0.06
   -4   13    4      0.64     -0.02
   -3   13    4     -1.66      0.01
   -2   13    4     -2.73     -0.03
   -1   13    4     -1.81     -0.01
    0   13    4     -0.05      0.00
   -7   14    4      0.20      0.04
   -6   14    4     -0.35      0.05
   -5   14    4     -0.83      0.04
   -4   14    4     -0.86      0.00
   -3   14    4     -1.17     -0.02
   -2   14    4      0.36      0.06
   -1   14    4      1.51     -0.02
    0   14    4      1.52     -0.05
   -7   15    4     -0.96     -0.03
   -6   15    4     -0.28     -0.03
   -5   15    4      0.28     -0.05
   -4   15    4      0.99     -0.04
   -3   15    4      1.40     -0.03
   -2   15    4      1.17      0.06
   -1   15    4     -0.05     -0.01
    0   15    4     -1.50      0.08
   -8   16    4     -0.33     -0.01
   -7   16    4     -0.06      0.05
   -6   16    4      0.18      0.04
   -5   16    4      0.58     -0.05
   -4   16    4      0.56      0.07
   -3   16    4     -0.59      0.03
   -2   16    4     -0.16     -0.03
   -1   16    4     -1.29     -0.03
   -8   17    4      0.49      0.02
   -7   17    4     -0.10     -0.02
   -6   17    4      0.34      0.01
   -5   17    4     -0.29      0.04
   -4   17    4     -0.88      0.02
   -3   17    4      0.11     -0.03
   -9   18    4     -0.02     -0.01
   -8   18    4      0.27     -0.01
   -7   18    4     -0.35      0.01
   -6   18    4     -0.89     -0.02
    0    1    5     -2.28      0.31
    0    2    5     -0.73      2.71
   -1    3    5      4.54      0.78
    0    3    5      6.05      0.01
   -1    4    5     -2.47     -0.19
    0    4    5     -5.42     -0.21
   -2    5    5      0.70     -1.08
   -1    5    5     -3.36      0.00
    0    5    5     -5.10     -0.41
   -2    6    5      3.07      0.11
   -1    6    5      2.70      0.20
    0    6    5      4.39      0.31
   -3    7    5      1.78      0.28
   -2    7    5      4.76     -0.35
   -1    7    5      0.88      0.02
    0    7    5     -1.84      0.00
   -3    8    5     -0.27      0.02
   -2    8    5      0.23     -0.01
   -1    8    5     -4.38      0.21
    0    8    5     -1.99     -0.11
   -4    9    5     -1.73     -0.02
   -3    9    5     -2.68      0.15
   -2    9    5     -1.82     -0.02
   -1    9    5      0.58      0.03
    0    9    5      2.09     -0.08
   -4   10    5     -0.71     -0.08
   -3   10    5     -1.10      0.02
   -2   10    5      2.02     -0.01
   -1   10    5      1.65     -0.01
    0   10    5      0.59      0.06
   -5   11    5      0.86      0.01
   -4   11    5      1.80     -0.17
   -3   11    5      2.26     -0.02
   -2   11    5      1.22     -0.06
   -1   11    5     -0.18      0.03
    0   11    5     -1.93     -0.05
   -5   12    5      0.57     -0.03
   -4   12    5      0.56      0.04
   -3   12    5     -0.84      0.10
   -2   12    5     -0.13      0.03
   -1   12    5     -2.26      0.01
    0   12    5      0.53     -0.05
   -6   13    5     -0.63     -0.08
   -5   13    5     -1.05      0.05
   -4   13    5     -2.22      0.05
   -3   13    5     -1.35     -0.06
   -2   13    5     -0.65      0.01
   -1   13    5      0.68      0.06
    0   13    5      2.07      0.01
   -6   14    5     -0.01     -0.01
   -5   14    5     -0.49     -0.01
   -4   14    5      0.80     -0.10
   -3   14    5      0.21      0.05
   -2   14    5      2.22     -0.02
   -1   14    5      0.03     -0.01
    0   14    5      0.18     -0.01
   -7   15    5      1.02     -0.07
   -6   15    5      0.49      0.05
   -5   15    5      1.18      0.02
   -4   15    5      0.30     -0.05
   -3   15    5     -0.05      0.04
   -2   15    5     -1.01      0.00
   -1   15    5     -0.89      0.01
   -7   16    5      0.28      0.07
   -6   16    5      0.36     -0.01
   -5   16    5     -0.32      0.02
   -4   16    5     -0.12      0.06
   -3   16    5     -1.25      0.05
   -8   17    5     -0.58      0.00
   -7   17    5      0.25      0.02
    0    0    6      5.08     -3.11
    0    1    6     -1.96     -1.03
   -1    2    6      0.26      2.36
    0    2    6      1.64      1.05
   -1    3    6      2.05     -0.38
    0    3    6     -0.38      0.28
   -2    4    6     -4.23     -0.52
   -1    4    6     -1.99     -0.22
    0    4    6      2.95      0.23
   -2    5    6     -3.04     -0.54
   -1    5    6     -0.23      0.19
    0    5    6      2.34      0.29
   -3    6    6      2.43      0.53
   -2    6    6      3.19     -0.24
   -1    6    6      1.83      0.06
    0    6    6     -0.87      0.08
   -3    7    6      1.14      0.25
   -2    7    6      0.44     -0.11
   -1    7    6     -3.16      0.04
    0    7    6     -2.02      0.22
   -4    8    6     -1.36     -0.05
   -3    8    6     -0.70      0.08
   -2    8    6     -1.49     -0.18
   -1    8    6     -1.05     -0.08
    0    8    6      2.98      0.05
   -4    9    6     -1.41      0.09
   -3    9    6     -0.56      0.06
   -2    9    6      1.82     -0.21
   -1    9    6      1.33     -0.01
    0    9    6     -0.04      0.01
   -5   10    6      0.61     -0.06
   -4   10    6     -0.28     -0.01
   -3   10    6      1.50     -0.03
   -2   10    6      1.81     -0.02
   -1   10    6     -0.69      0.02
    0   10    6      0.53      0.04
   -5   11    6      0.90     -0.02
   -4   11    6      0.45     -0.01
   -3   11    6     -0.39      0.07
   -2   11    6     -1.87     -0.01
   -1   11    6     -0.87      0.00
    0   11    6     -2.23      0.10
   -6   12    6      0.03      0.04
   -5   12    6      0.25     -0.03
   -4   12    6      0.06      0.03
   -3   12    6     -0.89      0.03
   -2   12    6      0.14     -0.11
   -1   12    6      0.18      0.03
    0   12    6      0.96      0.03
   -6   13    6     -1.07      0.04
   -5   13    6     -0.84     -0.01
   -4   13    6     -0.12      0.05
   -3   13    6      0.93      0.02
   -2   13    6      0.98     -0.04
   -1   13    6      0.97      0.03
    0   13    6     -0.24     -0.11
   -7   14    6     -0.29      0.05
   -6   14    6      0.04     -0.12
   -5   14    6      0.20     -0.05
   -4   14    6      0.41      0.06
   -3   14    6      0.36     -0.01
   -2   14    6      0.05      0.01
   -1   14    6     -1.09      0.01
   -7   15    6      0.74      0.02
   -6   15    6      0.29      0.05
   -5   15    6     -0.16      0.02
   -4   15    6     -0.42     -0.05
    0    1    7     -0.31      0.01
    0    2    7     -3.17     -1.32
   -1    3    7     -1.25      0.08
    0    3    7     -2.52      0.04
   -1    4    7      1.59     -0.14
    0    4    7      1.37     -0.02
   -2    5    7      0.36      0.42
   -1    5    7      2.04      0.11
    0    5    7      2.23      0.00
   -2    6    7     -1.46     -0.03
   -1    6    7     -1.32      0.06
    0    6    7     -2.26      0.17
   -3    7    7     -0.95      0.05
   -2    7    7     -1.44     -0.13
   -1    7    7     -0.95      0.04
    0    7    7      0.62     -0.01
   -3    8    7     -0.08     -0.09
   -2    8    7      0.56     -0.09
   -1    8    7      1.57     -0.03
    0    8    7      2.48     -0.17
   -4    9    7      0.10     -0.01
   -3    9    7      0.88      0.05
   -2    9    7      0.40      0.03
   -1    9    7     -0.56      0.08
    0    9    7     -1.23      0.04
   -4   10    7      0.26     -0.04
   -3   10    7      0.35      0.05
   -2   10    7     -0.13     -0.06
   -1   10    7     -0.97      0.01
    0   10    7      0.61      0.00
   -5   11    7     -0.03      0.04
   -4   11    7     -1.12     -0.02
   -3   11    7     -0.53      0.02
   -2   11    7     -0.44      0.02
   -1   11    7     -0.34      0.02
    0   11    7      0.72     -0.07
   -5   12    7      0.20      0.04
   -4   12    7     -0.40     -0.03
   -3   12    7      0.22      0.00
   -2   12    7      0.36      0.02
   -1   12    7      0.51     -0.01
   -6   13    7     -0.05      0.02
   -5   13    7      0.51      0.04
   -4   13    7      0.59      0.02
    0    0    8      9.52     -0.42
    0    1    8      0.98      0.30
   -1    2    8     -3.10     -0.13
    0    2    8     -1.32      0.08
   -1    3    8     -0.20      0.04
    0    3    8     -0.50     -0.32
   -2    4    8      2.83     -0.15
   -1    4    8      0.51      0.15
    0    4    8     -0.55      0.04
   -2    5    8      1.51      0.11
   -1    5    8     -0.04     -0.01
    0    5    8     -1.50     -0.03
   -3    6    8     -0.35      0.04
   -2    6    8     -0.56      0.16
   -1    6    8     -0.74      0.08
    0    6    8      0.09     -0.14
   -3    7    8     -0.97     -0.01
   -2    7    8     -0.17     -0.05
   -1    7    8      0.64      0.00
    0    7    8      0.82      0.16
   -4    8    8      0.01     -0.21
   -3    8    8      0.18     -0.01
   -2    8    8      0.57     -0.16
   -1    8    8      0.70     -0.07
    0    8    8     -0.09      0.03
   -4    9    8      0.64      0.11
   -3    9    8      0.07      0.00
   -2    9    8     -0.45     -0.02
   -1    9    8     -0.86      0.09
    0    9    8     -0.38     -0.07
   -5   10    8      0.11      0.06
   -4   10    8     -0.05      0.01
   -3   10    8     -0.28     -0.02
   -2   10    8     -0.28      0.08
    0    1    9      1.72     -0.24
    0    2    9      4.26     -0.32
   -1    3    9      0.71     -0.62
    0    3    9      1.04     -0.14
   -1    4    9     -0.36      0.30
    0    4    9     -0.94      0.11
   -2    5    9      0.44      0.14
   -1    5    9     -1.07      0.05
    0    0    0      0.00      0.00
# SQUEEZE RESULTS (APPEND TO CIF)
# Note: Data are Listed for all Voids in the P1 Unit Cell
# i.e. Centre of Gravity, Solvent Accessible Volume,
# Recovered number of Electrons in the Void and
# Details about the Squeezed Material
loop_
  _platon_squeeze_void_nr
  _platon_squeeze_void_average_x
  _platon_squeeze_void_average_y
  _platon_squeeze_void_average_z
  _platon_squeeze_void_volume
  _platon_squeeze_void_count_electrons
  _platon_squeeze_void_content
   1 -0.014  0.484 -0.010       706       200 ' '
_platon_squeeze_details
TITL FJU-56P 63/m m cs  R = 0.15
CELL   16.3125   16.3125    7.5267     90.00     90.00    120.00
SPGR P63/mmc
# Note: Atoms in Void as Cxxx and Qxxx all others
C101 0.857 0.704 0.762 !       5.18 eA-3
C102 0.654 0.355 0.742 !       1.32 eA-3
Q103 0.852 0.140 0.265 !       1.08 eA-3
C104 0.362 0.439 0.246 !       1.06 eA-3
C105 0.758 0.113 0.728 !       0.94 eA-3
C106 0.345 0.472 0.246 !       0.91 eA-3
C107 0.500 1.000 0.501 !       0.86 eA-3
Q108 0.559 0.929 0.376 !       0.65 eA-3
Q109 0.411 0.329 0.656 !       0.62 eA-3
C110 0.027 0.513 0.369 !       0.57 eA-3
C111 0.562 0.499 0.761 !       0.55 eA-3
;
_shelx_shelxl_version_number     2014/7
loop_
_space_group_symop_operation_xyz
'x, y, z'
'x-y, x, z+1/2'
'-y, x-y, z'
'-x, -y, z+1/2'
'-x+y, -x, z'
'y, -x+y, z+1/2'
'x-y, -y, -z'
'-x, -x+y, -z'
'y, x, -z'
'-y, -x, -z+1/2'
'-x+y, y, -z+1/2'
'x, x-y, -z+1/2'
'-x, -y, -z'
'-x+y, -x, -z-1/2'
'y, -x+y, -z'
'x, y, -z-1/2'
'x-y, x, -z'
'-y, x-y, -z-1/2'
'-x+y, y, z'
'x, x-y, z'
'-y, -x, z'
'y, x, z-1/2'
'x-y, -y, z-1/2'
'-x, -x+y, z-1/2'
loop_
_atom_site_label
_atom_site_type_symbol
_atom_site_fract_x
_atom_site_fract_y
_atom_site_fract_z
_atom_site_U_iso_or_equiv
_atom_site_adp_type
_atom_site_occupancy
_atom_site_site_symmetry_order
_atom_site_calc_flag
_atom_site_refinement_flags_posn
_atom_site_refinement_flags_adp
_atom_site_refinement_flags_occupancy
Co1 Co 1.0000 1.0000 0.5000 0.0196(4) Uani 1 12 d S T P
N1 N 0.87675(19) 0.93837(10) 0.6633(4) 0.0261(7) Uani 1 2 d S T P
N3 N 0.3333 0.6667 0.7500 0.050(3) Uani 1 12 d S T P
N2 N 0.7883(2) 0.89413(10) 0.6026(4) 0.0300(7) Uani 1 2 d S T P
C5 C 0.4342(4) 0.71710(18) 0.7500 0.0373(13) Uani 1 4 d S T P
C1 C 0.7347(3) 0.86735(17) 0.7500 0.0279(11) Uani 1 4 d S T P
C2 C 0.6314(3) 0.81571(17) 0.7500 0.0288(11) Uani 1 4 d S T P
C4 C 0.4828(4) 0.6902(5) 0.6393(12) 0.063(2) Uani 0.5 1 d . . .
H4 H 0.4490 0.6310 0.5773 0.075 Uiso 0.5 1 d R . .
C3 C 0.5809(4) 0.7403(5) 0.6364(12) 0.065(2) Uani 0.5 1 d . . .
H3 H 0.6146 0.7225 0.5549 0.078 Uiso 0.5 1 d R . .
loop_
_atom_site_aniso_label
_atom_site_aniso_U_11
_atom_site_aniso_U_22
_atom_site_aniso_U_33
_atom_site_aniso_U_23
_atom_site_aniso_U_13
_atom_site_aniso_U_12
Co1 0.0156(5) 0.0156(5) 0.0276(7) 0.000 0.000 0.0078(2)
N1 0.0150(13) 0.0252(11) 0.0346(14) -0.0005(6) -0.0010(11) 0.0075(6)
N3 0.015(2) 0.015(2) 0.120(9) 0.000 0.000 0.0075(11)
N2 0.0181(14) 0.0338(13) 0.0329(15) 0.0004(6) 0.0009(12) 0.0090(7)
C5 0.018(2) 0.0195(17) 0.074(4) 0.000 0.000 0.0092(12)
C1 0.021(2) 0.0265(18) 0.035(2) 0.000 0.000 0.0103(12)
C2 0.019(2) 0.0277(19) 0.037(3) 0.000 0.000 0.0097(12)
C4 0.020(3) 0.046(4) 0.108(6) -0.037(4) -0.005(3) 0.005(3)
C3 0.023(3) 0.056(4) 0.104(6) -0.044(4) -0.001(3) 0.011(3)
loop_
_atom_type_symbol
_atom_type_description
_atom_type_scat_dispersion_real
_atom_type_scat_dispersion_imag
_atom_type_scat_source
C C 0.0190 0.0090 'International Tables Vol C Tables 4.2.6.8 and 6.1.1.4'
H H 0.0000 0.0000 'International Tables Vol C Tables 4.2.6.8 and 6.1.1.4'
Co Co -2.2490 3.5330 'International Tables Vol C Tables 4.2.6.8 and 6.1.1.4'
N N 0.0320 0.0180 'International Tables Vol C Tables 4.2.6.8 and 6.1.1.4'
loop_
_geom_angle_atom_site_label_1
_geom_angle_atom_site_label_2
_geom_angle_atom_site_label_3
_geom_angle
_geom_angle_site_symmetry_1
_geom_angle_site_symmetry_3
N1 Co1 N1 180.0 17_656 5_675
N1 Co1 N1 90.06(11) 5_675 3_765
N1 Co1 N1 90.06(11) 17_656 13_776
N1 Co1 N1 89.94(11) 17_656 .
N1 Co1 N1 180.0 15_566 3_765
N1 Co1 N1 180.0 13_776 .
N1 Co1 N1 89.94(11) 17_656 3_765
N1 Co1 N1 89.94(11) 3_765 13_776
N1 Co1 N1 90.06(11) 5_675 .
N1 Co1 N1 89.94(11) 15_566 .
N1 Co1 N1 89.94(11) 5_675 15_566
N1 Co1 N1 90.06(11) 3_765 .
N1 Co1 N1 90.06(11) 15_566 13_776
N1 Co1 N1 89.94(11) 5_675 13_776
N1 Co1 N1 90.06(11) 17_656 15_566
N1 N1 Co1 125.22(8) 16_557 .
N1 N1 N2 110.08(18) 16_557 .
N2 N1 Co1 124.7(2) . .
C5 N3 C5 120.000(1) 3_665 .
C5 N3 C5 120.0 3_665 14_567
C5 N3 C5 120.0 14_567 .
N1 N2 C1 104.2(3) . .
C4 C5 N3 120.2(3) . .
C4 C5 N3 120.2(3) 12_566 .
C4 C5 N3 120.2(3) 20_565 .
C4 C5 N3 120.2(3) 16_557 .
C4 C5 C4 75.5(7) 20_565 .
C4 C5 C4 119.6(6) 20_565 16_557
C4 C5 C4 75.2(7) 12_566 20_565
C4 C5 C4 75.5(7) 12_566 16_557
C4 C5 C4 119.6(6) 12_566 .
C4 C5 C4 75.2(7) 16_557 .
N2 C1 N2 111.4(4) 16_557 .
N2 C1 C2 124.3(2) 16_557 .
N2 C1 C2 124.3(2) . .
C3 C2 C1 121.1(3) 16_557 .
C3 C2 C1 121.1(3) . .
C3 C2 C1 121.1(3) 20_565 .
C3 C2 C1 121.1(3) 12_566 .
C3 C2 C3 72.6(8) 12_566 16_557
C3 C2 C3 117.8(7) . 12_566
C3 C2 C3 76.4(8) 20_565 12_566
C3 C2 C3 76.4(8) . 16_557
C3 C2 C3 72.6(8) . 20_565
C3 C2 C3 117.8(7) 20_565 16_557
C5 C4 C4 52.4(4) . 16_557
C5 C4 C4 52.3(4) . 20_565
C5 C4 H4 119.1 . .
C5 C4 C3 120.3(6) . .
C4 C4 C4 89.999(1) 16_557 20_565
C4 C4 H4 135.9 20_565 .
C4 C4 H4 119.1 16_557 .
C3 C4 C4 89.3(4) . 20_565
C3 C4 C4 90.9(5) . 16_557
C3 C4 H4 119.9 . .
C2 C3 C4 120.9(6) . .
C2 C3 C3 53.7(4) . 20_565
C2 C3 C3 51.8(4) . 16_557
C2 C3 H3 119.1 . .
C4 C3 C3 90.7(4) . 20_565
C4 C3 C3 89.1(5) . 16_557
C4 C3 H3 120.0 . .
C3 C3 C3 89.999(1) 20_565 16_557
C3 C3 H3 126.0 20_565 .
C3 C3 H3 129.7 16_557 .
loop_
_geom_bond_atom_site_label_1
_geom_bond_atom_site_label_2
_geom_bond_distance
_geom_bond_site_symmetry_2
Co1 N1 2.131(3) 17_656
Co1 N1 2.131(3) 5_675
Co1 N1 2.131(3) 13_776
Co1 N1 2.131(3) 3_765
Co1 N1 2.131(3) 15_566
Co1 N1 2.131(3) .
N1 N1 1.305(6) 16_557
N1 N2 1.331(4) .
N3 C5 1.425(5) 3_665
N3 C5 1.425(5) .
N3 C5 1.425(5) 14_567
N2 C1 1.343(4) .
C5 C4 1.365(7) 12_566
C5 C4 1.365(7) 20_565
C5 C4 1.365(7) 16_557
C5 C4 1.365(7) .
C1 N2 1.343(4) 16_557
C1 C2 1.459(7) .
C2 C3 1.382(7) 20_565
C2 C3 1.382(7) 16_557
C2 C3 1.382(7) 12_566
C2 C3 1.382(7) .
C4 C4 1.666(17) 16_557
C4 C4 1.671(14) 20_565
C4 H4 0.9597 .
C4 C3 1.386(8) .
C3 C3 1.636(16) 20_565
C3 C3 1.710(18) 16_557
C3 H3 0.9602 .
