#------------------------------------------------------------------------------
#$Date: 2019-11-10 01:37:26 +0200 (Sun, 10 Nov 2019) $
#$Revision: 225563 $
#$URL: file:///home/coder/svn-repositories/cod/cif/4/51/54/4515409.cif $
#------------------------------------------------------------------------------
#
# This file is available in the Crystallography Open Database (COD),
# http://www.crystallography.net/
#
# All data on this site have been placed in the public domain by the
# contributors.
#
data_4515409
loop_
_publ_author_name
'Chakraborty, Gouri'
'Das, Prasenjit'
'Mandal, Sanjay K.'
_publ_section_title
;
 Strategic Construction of Highly Stable Metal-Organic Frameworks
 Combining Both Semi-Rigid Tetrapodal and Rigid Ditopic Linkers: Selective
 and Ultrafast Sensing of 4-Nitroaniline in Water.
;
_journal_issue                   49
_journal_name_full               'ACS applied materials &amp; interfaces'
_journal_page_first              42406
_journal_page_last               42416
_journal_paper_doi               10.1021/acsami.8b15894
_journal_volume                  10
_journal_year                    2018
_chemical_formula_moiety         'C49 H40 N4 Ni2 O14'
_chemical_formula_sum            'C49 H40 N4 Ni2 O14'
_chemical_formula_weight         1026.27
_space_group_crystal_system      orthorhombic
_space_group_IT_number           52
_space_group_name_Hall           '-P 2a 2bc'
_space_group_name_H-M_alt        'P n n a'
_atom_sites_solution_hydrogens   mixed
_cell_angle_alpha                90
_cell_angle_beta                 90
_cell_angle_gamma                90
_cell_formula_units_Z            4
_cell_length_a                   26.4359(18)
_cell_length_b                   17.7874(11)
_cell_length_c                   9.5097(6)
_cell_measurement_reflns_used    22875
_cell_measurement_temperature    100.(2)
_cell_measurement_theta_max      25.22
_cell_measurement_theta_min      1.54
_cell_volume                     4471.7(5)
_computing_cell_refinement       'SAINT V8.34A (Bruker AXS Inc., 2013)'
_computing_data_collection       'APEX2 (Bruker)'
_computing_data_reduction        'SAINT V8.34A (Bruker AXS Inc., 2013)'
_computing_molecular_graphics    'SHELXTL (Bruker AXS)'
_computing_publication_material  'SHELXTL (Bruker AXS)'
_computing_structure_refinement  'SHELXL-2014/6 (Sheldrick, 2014)'
_diffrn_ambient_temperature      100.(2)
_diffrn_measured_fraction_theta_full 0.997
_diffrn_measured_fraction_theta_max 0.997
_diffrn_measurement_device_type  'Bruker Kappa APEX II'
_diffrn_measurement_method       'phi and omega scan'
_diffrn_radiation_monochromator  Graphite
_diffrn_radiation_type           'Mo K\a'
_diffrn_radiation_wavelength     0.71073
_diffrn_reflns_av_R_equivalents  0.0427
_diffrn_reflns_av_unetI/netI     0.0366
_diffrn_reflns_limit_h_max       13
_diffrn_reflns_limit_h_min       -31
_diffrn_reflns_limit_k_max       21
_diffrn_reflns_limit_k_min       -21
_diffrn_reflns_limit_l_max       7
_diffrn_reflns_limit_l_min       -11
_diffrn_reflns_number            22875
_diffrn_reflns_theta_full        25.22
_diffrn_reflns_theta_max         25.22
_diffrn_reflns_theta_min         1.54
_diffrn_source                   'Sealed tube'
_diffrn_source_type              'Fine Focus'
_exptl_absorpt_coefficient_mu    0.918
_exptl_absorpt_correction_T_max  0.7452
_exptl_absorpt_correction_T_min  0.4181
_exptl_absorpt_correction_type   multi-scan
_exptl_absorpt_process_details   'SADABS V2014/4 (Bruker AXS Inc.)'
_exptl_crystal_colour            green
_exptl_crystal_density_diffrn    1.524
_exptl_crystal_density_method    'not measured'
_exptl_crystal_description       block
_exptl_crystal_F_000             2120
_exptl_crystal_size_max          0.25
_exptl_crystal_size_mid          0.24
_exptl_crystal_size_min          0.23
_refine_diff_density_max         0.914
_refine_diff_density_min         -0.483
_refine_ls_extinction_method     none
_refine_ls_goodness_of_fit_ref   1.029
_refine_ls_hydrogen_treatment    mixed
_refine_ls_matrix_type           full
_refine_ls_number_parameters     318
_refine_ls_number_reflns         4035
_refine_ls_number_restraints     1
_refine_ls_restrained_S_all      7.104
_refine_ls_R_factor_all          0.0467
_refine_ls_R_factor_gt           0.0386
_refine_ls_shift/su_max          0.001
_refine_ls_shift/su_mean         0.000
_refine_ls_structure_factor_coef Fsqd
_refine_ls_weighting_details
'w=1/[\s^2^(Fo^2^)+(0.1000P)^2^+0.4776P] where P=(Fo^2^+2Fc^2^)/3'
_refine_ls_weighting_scheme      calc
_refine_ls_wR_factor_gt          0.1201
_refine_ls_wR_factor_ref         0.1310
_reflns_number_gt                3512
_reflns_number_total             4035
_reflns_threshold_expression     'I > 2\s(I)'
_cod_data_source_file            am8b15894_si_003.cif
_cod_data_source_block           I
_cod_database_code               4515409
_shelx_res_file
;
TITL GC_493_1K_0ma in Pnna
CELL 0.71073 26.4359 17.7874 9.5097 90.000 90.000 90.000
ZERR 4.00 0.0018 0.0011 0.0006 0.000 0.000 0.000
LATT 1
SYMM x, -y+1/2, -z+1/2
SYMM -x+1/2, y+1/2, -z+1/2
SYMM -x+1/2, -y, z
SFAC C  H  N  O  Ni
UNIT 196  160  16  56  8
L.S. 10
ACTA
BOND $H
FMAP 2
PLAN 20
EQIV $3 x-1/2, y, -z+1
EQIV $2 -x+1/2, -y, z+1
EQIV $1 -x+1, -y, -z
DANG 1.296731 0.020000 H26B H26A
CONF
FREE C14  Ni1
DFIX 0.820000 0.010000 O4 H26B
DFIX 0.820000 0.010000 O4 H26A
TEMP -173.000
WGHT    0.100000    0.477630
FVAR       0.06777
NI1   5    0.459049    0.049446    0.224043    11.00000    0.01001    0.01178 =
         0.02165   -0.00051    0.00178   -0.00006
O6    4    0.313818    0.180695    0.659596    11.00000    0.01778    0.02300 =
         0.02420    0.00170    0.00465    0.00598
O7    4    0.173972    0.179082    0.670852    11.00000    0.01806    0.04704 =
         0.02153    0.00371   -0.00364   -0.01884
O1    4    0.457355   -0.049650    0.340113    11.00000    0.01987    0.01328 =
         0.02119   -0.00197    0.00113    0.00202
O4    4    0.458731    0.130584    0.072041    11.00000    0.01383    0.02183 =
         0.02346    0.00184    0.00436    0.00017
H26A  2    0.477841    0.116942    0.014884    11.00000   -1.50000
H26B  2    0.426659    0.125661    0.031823    11.00000   -1.50000
O3    4    0.387490    0.016887    0.154503    11.00000    0.01313    0.01809 =
         0.02974    0.00173   -0.00200   -0.00048
O5    4    0.363998    0.105160   -0.000240    11.00000    0.01691    0.03404 =
         0.03857    0.01638   -0.00190   -0.00124
N1    3    0.423691    0.108766    0.380945    11.00000    0.01525    0.01461 =
         0.02777   -0.00214    0.00245    0.00048
O2    4    0.485976   -0.055095    0.123913    11.00000    0.01794    0.01222 =
         0.02311    0.00114    0.00318   -0.00003
C1    1    0.393518    0.166603    0.347623    11.00000    0.02704    0.01584 =
         0.02860    0.00416    0.00730    0.00418
AFIX  43
H1    2    0.397550    0.188874    0.257520    11.00000   -1.20000
AFIX   0
C2    1    0.356971    0.195976    0.435483    11.00000    0.02434    0.01694 =
         0.03118    0.00525    0.00768    0.00654
AFIX  43
H2    2    0.337031    0.237804    0.407444    11.00000   -1.20000
AFIX   0
C3    1    0.350186    0.162396    0.566730    11.00000    0.01232    0.01683 =
         0.02522   -0.00295    0.00310   -0.00290
C4    1    0.277693    0.237970    0.620157    11.00000    0.01224    0.01830 =
         0.02487    0.00050    0.00088    0.00377
AFIX  23
H4A   2    0.256945    0.221044    0.539479    11.00000   -1.20000
H4B   2    0.295233    0.285103    0.593930    11.00000   -1.20000
AFIX   0
C5    1    0.244685    0.250000    0.750000    10.50000    0.00992    0.01804 =
         0.01939    0.00044    0.00000    0.00000
C6    1    0.211502    0.181156    0.779527    11.00000    0.01290    0.02582 =
         0.02246    0.00240   -0.00332   -0.00525
AFIX  23
H6B   2    0.232126    0.134707    0.777947    11.00000   -1.20000
H6A   2    0.195254    0.185611    0.872952    11.00000   -1.20000
AFIX   0
C7    1    0.128559    0.146182    0.698119    11.00000    0.01632    0.02642 =
         0.02042   -0.00566   -0.00054   -0.00835
C8    1    0.119051    0.096233    0.807109    11.00000    0.01152    0.02391 =
         0.03097    0.00239   -0.00356   -0.00023
AFIX  43
H8    2    0.144882    0.083000    0.871998    11.00000   -1.20000
AFIX   0
C9    1    0.070793    0.066144    0.818734    11.00000    0.01591    0.01802 =
         0.02966    0.00287    0.00036   -0.00016
AFIX  43
H9    2    0.064312    0.031803    0.893092    11.00000   -1.20000
AFIX   0
N2    3    0.032779    0.082949    0.730572    11.00000    0.01303    0.01670 =
         0.02430   -0.00102   -0.00143   -0.00085
C10   1    0.042961    0.132003    0.626712    11.00000    0.02056    0.03528 =
         0.01922    0.00333   -0.00444   -0.00765
AFIX  43
H10   2    0.016357    0.145250    0.564293    11.00000   -1.20000
AFIX   0
C11   1    0.089627    0.164027    0.605770    11.00000    0.02509    0.03990 =
         0.01920    0.00427   -0.00347   -0.01251
AFIX  43
H11   2    0.095179    0.197676    0.529742    11.00000   -1.20000
AFIX   0
C12   1    0.382455    0.104320    0.605893    11.00000    0.01624    0.01696 =
         0.02159    0.00096   -0.00078   -0.00024
AFIX  43
H12   2    0.379952    0.082394    0.696719    11.00000   -1.20000
AFIX   0
C13   1    0.418119    0.078925    0.511399    11.00000    0.01381    0.01788 =
         0.02377   -0.00217   -0.00319    0.00097
AFIX  43
H13   2    0.439721    0.038827    0.538754    11.00000   -1.20000
AFIX   0
C14   1    0.471020   -0.087722    0.234587    11.00000    0.00897    0.01952 =
         0.02276   -0.00001   -0.00236   -0.00070
C15   1    0.469299   -0.170790    0.241015    11.00000    0.02113    0.01579 =
         0.01206   -0.00116    0.00088   -0.00239
C16   1    0.421979   -0.210040    0.245246    11.00000    0.02152    0.01747 =
         0.01551    0.00019    0.00041   -0.00092
C17   1    0.375294   -0.170795    0.237501    11.00000    0.02085    0.01569 =
         0.03542    0.00113    0.00131    0.00163
AFIX  43
H17   2    0.374892   -0.117626    0.228115    11.00000   -1.20000
AFIX   0
C18   1    0.330473   -0.210542    0.243725    11.00000    0.01707    0.02395 =
         0.05902    0.00357   -0.00140    0.00422
AFIX  43
H18   2    0.299209   -0.184305    0.239482    11.00000   -1.20000
AFIX   0
C19   1    0.514081   -0.210833    0.244433    11.00000    0.01759    0.01769 =
         0.02359    0.00047   -0.00065   -0.00186
AFIX  43
H19   2    0.545359   -0.184690    0.239127    11.00000   -1.20000
AFIX   0
C20   1    0.355162    0.051233    0.080536    11.00000    0.01484    0.01969 =
         0.02268   -0.00208    0.00200    0.00049
C21   1    0.300952    0.023743    0.088267    11.00000    0.01408    0.01592 =
         0.02594    0.00164    0.00076    0.00239
C22   1    0.276414    0.009390    0.220191    11.00000    0.01659    0.01989 =
         0.02281    0.00002   -0.00058   -0.00380
C23   1    0.301551    0.016011    0.351445    11.00000    0.01890    0.04170 =
         0.02593    0.00501   -0.00266   -0.01475
AFIX  43
H23   2    0.336718    0.026963    0.353031    11.00000   -1.20000
AFIX   0
C24   1    0.276259    0.006971    0.475605    11.00000    0.03677    0.06437 =
         0.02163    0.00294   -0.00545   -0.02918
AFIX  43
H24   2    0.294092    0.010087    0.562137    11.00000   -1.20000
AFIX   0
C25   1    0.275002    0.013602   -0.035205    11.00000    0.01523    0.02145 =
         0.02203    0.00214    0.00363    0.00274
AFIX  43
H25   2    0.291016    0.025111   -0.122007    11.00000   -1.20000
AFIX   0
HKLF 4 1 1 0 0 0 1 0 0 0 1

REM  GC_493_1K_0ma in Pnna
REM R1 =  0.0386 for    3512 Fo > 4sig(Fo)  and  0.0467 for all    4035 data
REM    318 parameters refined using      1 restraints

END

WGHT      0.0673      2.8025

REM Highest difference peak  0.914,  deepest hole -0.483,  1-sigma level  0.116
Q1    1   0.2316  0.2179  0.7655  11.00000  0.05    0.54
Q2    1   0.4600 -0.0100  0.2212  11.00000  0.05    0.50
Q3    1   0.2584  0.2475  0.6949  11.00000  0.05    0.48
Q4    1   0.2890  0.0124  0.1537  11.00000  0.05    0.45
Q5    1   0.2500  0.0000  0.2141  10.50000  0.05    0.43
Q6    1   0.2500  0.0000 -0.0268  10.50000  0.05    0.41
Q7    1   0.2777  0.0454  0.4442  11.00000  0.05    0.41
Q8    1   0.3616 -0.1793  0.2503  11.00000  0.05    0.40
Q9    1   0.2875  0.2206  0.6278  11.00000  0.05    0.40
Q10   1   0.2810  0.0223  0.1758  11.00000  0.05    0.39
Q11   1   0.3270 -0.2500  0.2500  10.50000  0.05    0.38
Q12   1   0.4619  0.1016  0.2250  11.00000  0.05    0.38
Q13   1   0.2929  0.0061  0.4008  11.00000  0.05    0.38
Q14   1   0.2791  0.0101  0.5131  11.00000  0.05    0.36
Q15   1   0.3210  0.0508  0.0865  11.00000  0.05    0.35
Q16   1   0.2167  0.1662  0.8145  11.00000  0.05    0.34
Q17   1   0.3520  0.1131 -0.0043  11.00000  0.05    0.34
Q18   1   0.2829  0.0405 -0.0092  11.00000  0.05    0.34
Q19   1   0.1220  0.0473  0.7810  11.00000  0.05    0.32
Q20   1   0.2864  0.0092  0.2787  11.00000  0.05    0.32
;
_shelx_res_checksum              71191
_shelx_hkl_file
;
   0   0  -1   -0.46    0.08
   0   0  -2 1000.00   55.52
   0   0  -2  937.57   55.51
   0   0  -3   -0.05    0.07
   0   0  -3   -0.04    0.05
   0   0  -4   77.76    4.40
   0   0  -4   72.75    4.36
   0   0  -5   -0.03    0.10
   0   0  -5   -0.01    0.08
   0   0  -6   59.54    3.57
   0   0  -6   62.34    3.62
   0   0  -7   -0.03    0.12
   0   0  -7   -0.09    0.16
   0   0  -8   49.13    2.98
   0   0  -8   51.05    3.06
   0   0  -9   -0.38    0.20
   0   0  -9    0.00    0.17
   0   0 -10    4.12    0.46
   0   0 -10    5.89    0.60
   0   0 -11    0.44    0.25
   0   0 -11   -0.30    0.28
   0   1   0   -0.51    0.02
   0  -1   0   -0.51    0.00
   0   1   0   -0.52    0.00
   0  -1   0   -0.52    0.01
   0  -1  -1    6.90    0.44
   0   1  -1    7.11    0.44
   0  -1  -1    7.85    0.43
   0   1  -2   -0.02    0.04
   0   1  -2    0.13    0.05
   0  -1  -2    0.00    0.05
   0  -1  -2    0.05    0.04
   0   1  -3    7.49    0.48
   0   1  -3    7.74    0.50
   0  -1  -3    7.58    0.50
   0  -1  -3    7.48    0.47
   0   1  -4   -0.02    0.09
   0  -1  -4   -0.07    0.06
   0  -1  -4   -0.01    0.08
   0   1  -4   -0.04    0.07
   0   1  -5   65.88    3.92
   0  -1  -5   65.41    3.88
   0  -1  -5   67.84    3.93
   0   1  -5   67.63    3.89
   0  -1  -6   -0.03    0.12
   0   1  -6   -0.08    0.11
   0  -1  -6    0.01    0.11
   0   1  -6   -0.07    0.12
   0   1  -7  131.11    7.61
   0  -1  -7  131.51    7.54
   0   1  -7  126.77    7.55
   0  -1  -7  131.23    7.61
   0  -1  -8    0.26    0.20
   0   1  -8   -0.03    0.16
   0   1  -8    0.11    0.18
   0  -1  -8    0.01    0.14
   0   1  -9   41.64    2.44
   0  -1  -9   39.39    2.43
   0  -1  -9   38.58    2.50
   0   1  -9   40.94    2.51
   0   1 -10   -0.07    0.25
   0   1 -10   -0.04    0.21
   0  -1 -10   -0.10    0.23
   0  -1 -10    0.06    0.20
   0  -1 -11   13.59    1.08
   0   1 -11   13.31    0.98
   0   1 -11   13.65    1.06
   0   2   0  317.43   19.79
   0  -2   0  395.94   19.80
   0   2   0  322.57   19.83
   0  -2  -1   -0.02    0.02
   0   2  -1    0.06    0.03
   0  -2   1    0.08    0.03
   0   2  -1    0.00    0.03
   0  -2  -1    0.00    0.03
   0   2  -2    5.01    0.33
   0   2  -2    5.36    0.34
   0  -2  -2    5.30    0.32
   0  -2   2    5.12    0.31
   0  -2  -2    5.35    0.35
   0   2  -3    0.03    0.06
   0  -2  -3   -0.10    0.04
   0  -2   3    0.02    0.02
   0   2  -3   -0.09    0.06
   0  -2  -3    0.02    0.07
   0   2  -4    1.13    0.15
   0  -2  -4    0.97    0.12
   0  -2   4    1.37    0.09
   0  -2  -4    1.15    0.17
   0   2  -4    1.29    0.17
   0   2  -5    0.02    0.09
   0  -2   5    0.08    0.03
   0  -2  -5    0.13    0.09
   0   2  -5    0.14    0.11
   0  -2  -5   -0.10    0.10
   0   2  -6    8.10    0.55
   0  -2  -6    8.10    0.54
   0  -2  -6    7.28    0.58
   0   2  -6    8.05    0.60
   0   2  -7    0.12    0.13
   0   2  -7    0.08    0.16
   0  -2  -7   -0.11    0.12
   0  -2  -7   -0.23    0.14
   0   2  -8    0.14    0.19
   0  -2  -8    0.19    0.14
   0  -2  -8    0.16    0.20
   0   2  -8   -0.03    0.14
   0  -2  -9   -0.03    0.15
   0  -2  -9    0.02    0.21
   0   2  -9    0.36    0.21
   0   2  -9   -0.04    0.22
   0   2 -10    3.25    0.45
   0   2 -10    3.58    0.40
   0  -2 -10    2.56    0.43
   0  -2 -10    3.30    0.43
   0   2 -11    0.00    0.21
   0  -2 -11   -0.16    0.25
   0   2 -11    0.41    0.29
   0   3   0    0.01    0.03
   0   3   0   -0.04    0.07
   0  -3   0    0.10    0.04
   0  -3   1  304.19   17.03
   0  -3  -1  314.39   17.04
   0   3  -1  291.30   17.03
   0   3  -1  278.17   17.05
   0   3  -2    0.02    0.06
   0  -3  -2    0.06    0.06
   0   3  -2    0.00    0.05
   0   3  -2    0.00    0.03
   0  -3   2    0.00    0.04
   0  -3  -2    0.22    0.04
   0   3  -3  288.44   16.45
   0  -3  -3  287.48   16.43
   0  -3   3  284.79   16.42
   0   3  -3  285.96   16.47
   0  -3  -3  285.57   16.47
   0   3  -4    0.06    0.09
   0   3  -4    0.03    0.08
   0  -3   4    0.01    0.04
   0  -3  -4    0.07    0.06
   0  -3  -4    0.11    0.11
   0   3  -5    3.26    0.29
   0  -3  -5    2.86    0.24
   0   3  -5    3.00    0.30
   0  -3   5    2.78    0.19
   0  -3  -5    2.54    0.29
   0   3  -6    0.12    0.12
   0   3  -6   -0.05    0.12
   0  -3  -6    0.05    0.10
   0  -3  -6   -0.19    0.14
   0   3  -7    6.40    0.52
   0  -3  -7    6.15    0.45
   0   3  -7    5.76    0.47
   0  -3  -7    5.99    0.52
   0  -3  -8   -0.11    0.13
   0   3  -8    0.11    0.16
   0   3  -8   -0.02    0.16
   0  -3  -8   -0.05    0.18
   0  -3  -9    1.56    0.34
   0  -3  -9    1.20    0.23
   0   3  -9    1.09    0.25
   0   3  -9    1.69    0.33
   0   3 -10   -0.20    0.23
   0  -3 -10    0.10    0.27
   0   3 -10   -0.05    0.20
   0  -3 -11    1.21    0.36
   0   3 -11    1.16    0.29
   0   3 -11    1.10    0.36
   0   4   0   -0.09    0.11
   0   4   0    0.01    0.05
   0  -4   0    0.04    0.06
   0  -4   1    0.00    0.07
   0   4  -1   -0.24    0.08
   0  -4  -1   -0.26    0.07
   0   4  -1    0.13    0.08
   0  -4   2   31.08    1.79
   0  -4  -2   29.97    1.77
   0   4  -2   30.81    1.81
   0   4  -2   30.36    1.79
   0   4  -3    0.07    0.08
   0  -4   3    0.10    0.05
   0  -4  -3    0.05    0.09
   0  -4  -3    0.05    0.05
   0   4  -3    0.05    0.03
   0   4  -3    0.01    0.07
   0  -4  -4    7.81    0.48
   0   4  -4    7.48    0.54
   0   4  -4    7.73    0.51
   0  -4  -4    8.02    0.54
   0  -4   4    7.48    0.47
   0  -4  -5    0.10    0.13
   0   4  -5    0.01    0.11
   0  -4   5    0.02    0.05
   0   4  -5    0.04    0.10
   0  -4  -5   -0.10    0.07
   0  -4  -6    0.38    0.18
   0   4  -6    0.42    0.14
   0   4  -6    0.55    0.16
   0  -4  -6    0.61    0.13
   0  -4  -7    0.04    0.16
   0   4  -7   -0.09    0.13
   0  -4  -7    0.02    0.12
   0   4  -7   -0.08    0.16
   0   4  -8    1.01    0.26
   0  -4  -8    0.73    0.25
   0  -4  -8    1.11    0.19
   0   4  -8    0.88    0.23
   0   4  -9   -0.04    0.17
   0  -4  -9    0.04    0.21
   0   4  -9   -0.12    0.21
   0   4 -10    7.13    0.66
   0  -4 -10    7.50    0.73
   0   4 -10    6.81    0.60
   0   4 -11    0.01    0.27
   0   4 -11    0.28    0.27
   0  -4 -11    0.06    0.28
   0   5   0    0.16    0.04
   0  -5   0    0.20    0.07
   0   5   0    0.27    0.13
   0  -5  -1   36.13    2.09
   0   5  -1   35.97    2.13
   0  -5   1   35.67    2.09
   0   5  -1   34.83    2.08
   0  -5   2   -0.08    0.05
   0   5  -2    0.08    0.07
   0  -5  -2    0.09    0.03
   0   5  -2    0.69    0.11
   0   5  -3    3.39    0.23
   0  -5   3    3.45    0.25
   0   5  -3    3.22    0.27
   0  -5  -3    3.74    0.23
   0   5  -3    3.62    0.28
   0  -5  -4    0.01    0.06
   0  -5   4    0.00    0.06
   0   5  -4    0.06    0.09
   0   5  -4    0.01    0.09
   0  -5  -4    0.08    0.11
   0   5  -5    4.92    0.37
   0  -5  -5    4.86    0.33
   0  -5   5    4.57    0.32
   0  -5  -5    4.62    0.40
   0   5  -5    4.73    0.39
   0   5  -6    0.03    0.12
   0  -5  -6    0.06    0.09
   0  -5  -6   -0.11    0.13
   0   5  -6   -0.07    0.13
   0  -5  -7    7.04    0.47
   0   5  -7    5.93    0.52
   0  -5  -7    5.86    0.54
   0   5  -7    6.22    0.50
   0   5  -8   -0.07    0.17
   0  -5  -8   -0.10    0.19
   0   5  -8   -0.19    0.16
   0   5  -9   23.50    1.62
   0   5  -9   25.07    1.58
   0  -5  -9   25.83    1.65
   0   5 -10   -0.24    0.22
   0  -5 -10    0.30    0.28
   0   5 -10   -0.08    0.22
   0   5 -11    5.66    0.57
   0  -5 -11    3.63    0.59
   0   5 -11    4.74    0.59
   0   6   0   46.06    3.17
   0  -6   0   57.71    3.07
   0   6  -1    0.16    0.10
   0  -6   1    0.09    0.06
   0  -6  -1    0.05    0.07
   0   6  -1   -0.01    0.05
   0   6  -2    0.16    0.07
   0   6  -2    0.11    0.08
   0  -6   2    0.28    0.08
   0  -6  -2    0.07    0.06
   0  -6  -2    0.17    0.04
   0  -6   3   -0.07    0.07
   0  -6  -3    0.01    0.04
   0   6  -3   -0.12    0.07
   0   6  -3    0.02    0.10
   0   6  -4   25.85    1.54
   0  -6  -4   25.62    1.47
   0   6  -4   24.76    1.46
   0   6  -4   25.23    1.52
   0  -6   4   24.39    1.49
   0   6  -5    0.12    0.11
   0  -6  -5    0.06    0.07
   0  -6   5    0.17    0.07
   0   6  -5   -0.05    0.11
   0  -6  -5    0.00    0.12
   0  -6  -6    4.73    0.42
   0  -6  -6    4.41    0.32
   0   6  -6    3.93    0.38
   0   6  -6    4.08    0.38
   0  -6   6    4.15    0.34
   0   6  -7    0.12    0.15
   0   6  -7    0.23    0.16
   0  -6  -7    0.10    0.18
   0   6  -8   12.32    0.90
   0   6  -8   12.85    0.87
   0  -6  -8   11.20    0.89
   0   6  -9    0.03    0.22
   0   6  -9    0.06    0.23
   0  -6  -9   -0.11    0.21
   0   6 -10    9.06    0.73
   0  -6 -10    9.21    0.83
   0   6 -10    8.92    0.77
   0   7   0    0.17    0.15
   0  -7   0    0.03    0.08
   0   7  -1    0.18    0.06
   0  -7  -1    0.17    0.08
   0   7  -1    0.37    0.13
   0  -7   1    0.25    0.09
   0   7  -2    0.15    0.10
   0  -7   2   -0.02    0.08
   0   7  -2    0.08    0.08
   0  -7  -2    0.08    0.08
   0  -7   3   54.58    3.16
   0   7  -3   54.14    3.17
   0   7  -3   54.82    3.20
   0  -7  -3   53.23    3.12
   0   7  -4    0.11    0.05
   0   7  -4    0.02    0.10
   0  -7  -4   -0.09    0.05
   0  -7   4    0.04    0.08
   0   7  -4    0.03    0.10
   0   7  -5    6.42    0.48
   0  -7  -5    5.72    0.39
   0   7  -5    6.08    0.45
   0  -7   5    5.92    0.42
   0  -7   6    0.06    0.10
   0   7  -6    0.07    0.14
   0   7  -6    0.09    0.15
   0   7  -7    6.67    0.56
   0   7  -7    6.40    0.52
   0  -7  -8    0.01    0.19
   0   7  -8    0.00    0.17
   0   7  -8   -0.13    0.17
   0  -7  -9   13.66    0.99
   0   7  -9   12.82    0.96
   0   7  -9   12.24    0.92
   0  -7 -10   -0.12    0.24
   0   7 -10   -0.21    0.21
   0   7 -10    0.06    0.25
   0   8   0  197.85   13.06
   0  -8   0  248.01   12.91
   0   8  -1    0.05    0.06
   0  -8   1    0.00    0.08
   0  -8  -1   -0.03    0.07
   0   8  -1    0.24    0.14
   0  -8  -2  371.54   20.65
   0   8  -2  351.35   20.70
   0   8  -2  352.64   20.64
   0  -8   2  361.99   20.65
   0   8  -3    0.08    0.10
   0  -8  -3    0.05    0.04
   0  -8   3   -0.04    0.09
   0   8  -3    0.14    0.10
   0   8  -4   53.63    3.25
   0  -8  -4   55.30    3.25
   0   8  -4   59.03    3.30
   0  -8   4   56.49    3.29
   0   8  -4   57.00    3.33
   0   8  -5    0.18    0.14
   0   8  -5    0.03    0.12
   0  -8   5   -0.09    0.09
   0  -8   6    8.29    0.58
   0   8  -6    8.45    0.63
   0   8  -6    9.01    0.65
   0   8  -7   -0.17    0.16
   0   8  -7   -0.13    0.15
   0   8  -8    0.42    0.21
   0   8  -8    0.46    0.23
   0   8  -9   -0.01    0.21
   0   8  -9   -0.11    0.20
   0   8 -10    2.16    0.37
   0   8 -10    2.23    0.40
   0  -9   0    0.18    0.11
   0   9   0    0.18    0.22
   0   9  -1    3.16    0.40
   0   9  -1    3.14    0.25
   0  -9   1    3.28    0.28
   0  -9  -1    3.44    0.28
   0   9   1    3.08    0.50
   0   9  -2    0.12    0.08
   0  -9  -2    0.36    0.11
   0  -9   2   -0.01    0.10
   0   9  -2    0.03    0.10
   0  -9   3   10.28    0.66
   0   9  -3   10.50    0.66
   0   9  -3   10.34    0.70
   0  -9  -3    9.56    0.60
   0   9  -4    0.09    0.10
   0   9  -4    0.01    0.07
   0  -9   4   -0.19    0.09
   0   9  -4    0.09    0.11
   0   9  -5    0.73    0.18
   0  -9   5    0.42    0.14
   0   9  -5    0.30    0.16
   0   9  -6    0.10    0.16
   0  -9   6    0.10    0.12
   0   9  -6    0.10    0.16
   0   9  -7   36.06    2.19
   0   9  -7   33.60    2.13
   0   9  -8   -0.03    0.20
   0   9  -8   -0.06    0.18
   0   9  -9   62.62    3.82
   0   9  -9   62.80    3.77
   0   9 -10    0.02    0.25
   0   9 -10   -0.28    0.23
   0 -10   0   13.26    0.85
   0  10   0   12.98    1.07
   0  10  -1   -0.04    0.13
   0 -10   1   -0.02    0.10
   0  10  -1   -0.03    0.06
   0  10   1   -0.02    0.23
   0 -10  -1   -0.09    0.09
   0 -10   2   53.39    3.25
   0  10  -2   56.88    3.33
   0 -10  -2   57.00    3.25
   0  10  -2   53.84    3.23
   0  10  -3    0.01    0.10
   0 -10  -3    0.03    0.05
   0 -10   3   -0.05    0.11
   0  10  -3    0.04    0.11
   0 -10   4    2.18    0.24
   0  10  -4    2.14    0.29
   0  10  -4    2.17    0.25
   0 -10   5    0.07    0.11
   0  10  -5   -0.29    0.11
   0  10  -5    0.02    0.14
   0  10  -6   12.09    0.84
   0  10  -6   12.49    0.88
   0 -10   6   11.62    0.80
   0  10  -7    0.10    0.21
   0  10  -7   -0.16    0.17
   0  10  -8    0.52    0.23
   0  10  -8    0.66    0.24
   0  10  -9    0.34    0.27
   0  10  -9    0.05    0.21
   0  10 -10    0.32    0.26
   0  10 -10    0.25    0.29
   0 -11   0   -0.04    0.10
   0  11   0    0.00    0.18
   0 -11  -1   29.61    1.80
   0 -11   1   29.51    1.80
   0  11  -1   29.03    1.76
   0  11  -1   34.92    1.99
   0  11   1   25.49    2.04
   0  11  -2   -0.06    0.09
   0 -11   2   -0.16    0.10
   0  11  -2   -0.03    0.12
   0  11  -3    8.20    0.61
   0  11  -3    7.13    0.53
   0 -11   3    7.37    0.55
   0  11  -4   -0.10    0.12
   0 -11   4    0.14    0.13
   0  11  -4   -0.14    0.10
   0  11  -5    0.60    0.17
   0 -11   5    0.70    0.19
   0  11  -5    0.91    0.23
   0  11  -6    0.09    0.18
   0  11  -6   -0.16    0.15
   0 -11   6   -0.20    0.12
   0  11  -7   17.31    1.17
   0  11  -7   17.86    1.21
   0  11  -8   -0.11    0.18
   0  11  -8   -0.27    0.18
   0  11  -9    6.50    0.65
   0  11  -9    4.02    0.50
   0 -12   0    5.67    0.45
   0  12   0    5.72    0.73
   0  12  -1    0.12    0.21
   0 -12  -1   -0.05    0.12
   0 -12   1   -0.03    0.12
   0  12   1    0.07    0.24
   0  12  -2    8.88    0.59
   0  12  -2    9.74    0.72
   0 -12   2    7.82    0.61
   0 -12   3    0.16    0.15
   0  12  -3   -0.01    0.12
   0  12  -3    0.06    0.14
   0 -12   4    2.56    0.29
   0  12  -4    2.62    0.29
   0  12  -4    2.40    0.33
   0  12  -5   -0.07    0.17
   0 -12   5    0.01    0.15
   0  12  -5   -0.16    0.15
   0  12  -6   21.11    1.43
   0 -12   6   23.58    1.42
   0  12  -6   22.73    1.49
   0  12  -7    0.08    0.21
   0  12  -7   -0.13    0.19
   0  12  -8   -0.19    0.20
   0  12  -8    0.16    0.21
   0  12  -9   -0.20    0.21
   0  12  -9   -0.10    0.22
   0  13   0   -0.06    0.22
   0 -13   0    0.11    0.13
   0  13  -1    9.17    0.76
   0 -13  -1    7.05    0.54
   0 -13   1    7.11    0.54
   0  13   1    5.16    0.79
   0  13  -2    0.23    0.18
   0  13  -2    0.02    0.10
   0  13   2   -0.16    0.25
   0 -13   2    0.06    0.14
   0  13  -3    1.15    0.26
   0 -13   3    0.90    0.21
   0  13  -3    1.02    0.19
   0 -13   4   -0.04    0.15
   0  13  -4   -0.25    0.15
   0  13  -4   -0.21    0.13
   0  13  -5   10.02    0.74
   0  13  -5   11.65    0.81
   0 -13   5    9.68    0.73
   0 -13   6   -0.22    0.16
   0  13  -6    0.00    0.18
   0  13  -6   -0.27    0.16
   0  13  -7    9.99    0.78
   0  13  -7    8.95    0.72
   0  13  -8   -0.26    0.20
   0  13  -8    0.15    0.21
   0 -14   0   29.56    1.81
   0  14   0   28.54    2.09
   0  14  -1   -0.43    0.24
   0 -14   1   -0.06    0.16
   0  14   1    0.08    0.29
   0  14   2    3.58    0.71
   0  14  -2    4.06    0.52
   0  14  -2    4.06    0.35
   0 -14   2    3.69    0.39
   0  14  -3   -0.06    0.14
   0  14  -3    0.03    0.16
   0 -14   3    0.10    0.18
   0 -14   4    4.23    0.44
   0  14  -4    4.20    0.49
   0  14  -4    4.15    0.40
   0  14  -5   -0.07    0.18
   0 -14   5    0.17    0.19
   0  14  -5    0.12    0.19
   0  14  -6   -0.03    0.19
   0  14  -6    0.20    0.22
   0 -14   6    0.22    0.20
   0  14  -7   -0.04    0.19
   0  14  -7    0.65    0.26
   0  14  -8    1.81    0.36
   0  14  -8    1.72    0.34
   0 -15   0    0.21    0.16
   0  15   0   -0.17    0.25
   0  15  -1    5.00    0.67
   0 -15   1    4.36    0.43
   0  15   1    3.09    0.65
   0  15   2   -0.33    0.33
   0  15  -2   -0.24    0.21
   0 -15   2    0.50    0.18
   0  15  -3    7.90    0.61
   0  15   3    8.88    1.14
   0  15  -3    9.39    0.77
   0 -15   3    8.92    0.67
   0  15  -4   -0.08    0.19
   0  15  -4   -0.11    0.17
   0 -15   4    0.00    0.18
   0  15  -5   11.06    0.85
   0 -15   5   10.80    0.80
   0  15  -5    9.85    0.76
   0  15  -6   -0.09    0.19
   0  15  -6    0.27    0.21
   0  15  -7    0.17    0.24
   0  15  -7    0.21    0.25
   0  15  -8   -0.02    0.24
   0  16   0    7.69    0.96
   0  16  -1    0.08    0.27
   0  16   1    0.11    0.35
   0 -16   1   -0.06    0.16
   0 -16   2    0.92    0.24
   0  16   2    0.11    0.39
   0  16  -2    0.57    0.31
   0  16   3   -0.19    0.35
   0 -16   3    0.00    0.17
   0  16  -3   -0.22    0.14
   0  16  -3    0.12    0.22
   0  16  -4    1.16    0.31
   0  16  -4    1.00    0.22
   0 -16   4    1.17    0.26
   0  16  -5    0.12    0.19
   0 -16   5    0.18    0.19
   0  16  -5    0.16    0.23
   0  16  -6    1.45    0.35
   0  16  -6    0.99    0.27
   0  16  -7   -0.22    0.24
   0  16  -7    0.00    0.25
   0  17   0    0.59    0.42
   0  17  -1    0.14    0.29
   0  17   1    0.23    0.37
   0  17   2    0.29    0.43
   0  17  -2    0.16    0.26
   0 -17   3    0.40    0.20
   0  17  -3    0.04    0.24
   0  17   3    0.33    0.47
   0  17   4    0.01    0.35
   0  17  -4   -0.18    0.18
   0  17  -4    0.10    0.20
   0  17  -5   11.19    0.81
   0  17  -5   10.28    0.89
   0  17  -6   -0.24    0.18
   0  17  -6    0.08    0.23
   0  18   0   57.33    3.79
   0  18  -1   -0.19    0.27
   0  18   1    0.43    0.44
   0  18  -2   16.81    1.28
   0  18   2   13.26    1.59
   0  18   3    0.00    0.38
   0  18  -3   -0.12    0.21
   0  18  -4    0.84    0.30
   0  18   4    0.11    0.49
   0  18  -5   -0.11    0.24
   0  18  -5    0.11    0.20
   0  18  -6    1.84    0.35
   0  18  -6    1.56    0.43
   0  19   0    0.45    0.40
   0  19  -1    0.50    0.37
   0  19   1    0.47    0.52
   0  19  -2    0.15    0.31
   0  19   2    0.22    0.44
   0  19  -3    4.05    0.58
   0  19   3    3.35    0.79
   0  19  -4   -0.27    0.20
   0  19   4    0.17    0.41
   0  19   5   18.29    1.86
   0  19  -5   22.89    1.55
   0  20   0   28.97    2.22
   0  20   1   -0.23    0.45
   0  20  -1   -0.19    0.30
   0  20  -2   19.62    1.41
   0  20   2   11.75    1.63
   0  20  -3   -0.14    0.25
   0  20   3   -0.06    0.42
   0  21   0    0.13    0.39
   0  21   1    0.06    0.48
   0  21  -1    0.24    0.39
  -1   0   0    0.00    0.00
  -1   0  -1    3.96    0.33
   1   0  -1    5.16    0.32
  -1   0  -1    5.50    0.33
   1   0  -2   -0.06    0.04
  -1   0  -2   -0.02    0.05
   1   0  -2   -0.02    0.05
  -1   0  -2   -0.03    0.04
   1   0  -3   16.62    1.00
  -1   0  -3   15.86    0.98
  -1   0  -3   16.82    1.01
   1   0  -3   16.00    0.98
  -1   0  -4    0.14    0.08
   1   0  -4   -0.05    0.09
   1   0  -4    0.18    0.08
  -1   0  -4    0.04    0.09
   1   0  -5   30.85    1.82
   1   0  -5   30.44    1.86
  -1   0  -5   31.30    1.87
  -1   0  -5   30.35    1.83
  -1   0  -6    0.08    0.13
  -1   0  -6   -0.11    0.11
   1   0  -6   -0.03    0.11
   1   0  -6    0.09    0.14
   1   0  -7   14.63    0.91
  -1   0  -7   13.81    0.91
  -1   0  -7   13.35    0.96
   1   0  -7   14.26    0.96
  -1   0  -8    0.36    0.20
   1   0  -8    0.22    0.15
   1   0  -8    0.31    0.20
  -1   0  -8    0.03    0.17
   1   0  -9    1.54    0.27
  -1   0  -9    2.16    0.29
   1   0  -9    1.97    0.34
  -1   0  -9    1.82    0.34
   1   0 -10    0.04    0.21
   1   0 -10   -0.04    0.25
  -1   0 -10    0.10    0.19
  -1   0 -10   -0.17    0.22
  -1   0 -11    3.66    0.43
   1   0 -11    4.51    0.57
   1   0 -11    3.25    0.42
  -1   0 -11    3.32    0.52
  -1  -1   0   -0.33    0.01
  -1   1   0   -0.34    0.02
  -1   1   0   -0.32    0.01
   1  -1   0   -0.33    0.00
  -1   1  -1    6.98    0.42
   1  -1  -1    6.58    0.42
   1  -1  -1    6.77    0.43
  -1   1  -1    6.75    0.43
   1   1  -1    7.25    0.43
   1   1  -1    7.18    0.43
  -1  -1  -1    6.74    0.42
  -1  -1  -1    6.12    0.43
  -1  -1  -1    6.91    0.42
   1  -1  -2   38.05    2.23
   1  -1  -2   39.26    2.26
  -1   1  -2   39.43    2.26
  -1   1  -2   38.61    2.24
  -1  -1  -2   39.94    2.26
   1  -1   2   39.40    2.22
   1   1  -2   38.68    2.25
   1   1  -2   36.83    2.24
  -1  -1  -2   37.98    2.24
  -1   1  -3   88.71    5.12
  -1   1  -3   89.65    5.10
   1  -1  -3   87.98    5.11
   1  -1  -3   88.33    5.08
   1   1  -3   85.87    5.11
   1   1  -3   87.35    5.09
   1  -1   3   87.73    5.06
  -1  -1  -3   88.57    5.09
  -1  -1  -3   89.90    5.12
   1  -1  -4    1.33    0.14
   1  -1  -4    1.64    0.19
  -1   1  -4    1.45    0.16
  -1   1  -4    1.46    0.19
   1   1  -4    1.53    0.16
  -1  -1  -4    1.63    0.15
   1   1  -4    0.99    0.16
   1  -1   4    1.33    0.09
  -1  -1  -4    1.88    0.21
  -1   1  -5   11.03    0.69
   1  -1  -5   10.65    0.72
  -1   1  -5   11.45    0.73
   1  -1  -5    9.92    0.67
  -1  -1  -5   10.49    0.73
   1   1  -5   11.43    0.69
   1   1  -5   10.83    0.72
  -1  -1  -5   10.23    0.68
  -1   1  -6    1.71    0.21
   1  -1  -6    1.47    0.19
   1  -1  -6    1.59    0.24
  -1   1  -6    1.40    0.24
  -1  -1  -6    1.78    0.25
   1   1  -6    1.89    0.21
   1   1  -6    1.65    0.25
  -1  -1  -6    1.68    0.21
   1  -1  -7    5.74    0.52
  -1   1  -7    7.00    0.49
  -1   1  -7    6.46    0.55
   1  -1  -7    6.02    0.46
  -1  -1  -7    7.09    0.55
   1   1  -7    6.74    0.48
   1   1  -7    6.37    0.54
  -1  -1  -7    5.65    0.48
   1  -1  -8   26.86    1.69
   1  -1  -8   24.98    1.59
  -1   1  -8   25.92    1.61
  -1   1  -8   27.64    1.69
   1   1  -8   25.62    1.67
  -1  -1  -8   26.26    1.68
   1   1  -8   26.31    1.61
  -1  -1  -8   24.95    1.60
   1  -1  -9    9.33    0.70
  -1   1  -9   10.54    0.81
  -1   1  -9    9.88    0.73
   1  -1  -9    9.66    0.78
   1   1  -9    9.66    0.79
   1   1  -9   10.96    0.73
  -1  -1  -9    8.77    0.77
  -1  -1  -9    9.68    0.71
  -1   1 -10   -0.07    0.19
  -1   1 -10    0.04    0.27
   1  -1 -10    0.14    0.20
   1  -1 -10   -0.02    0.25
   1   1 -10    0.19    0.24
   1   1 -10    0.06    0.19
  -1  -1 -10    0.03    0.20
  -1  -1 -10   -0.04    0.24
   1  -1 -11    2.78    0.46
  -1   1 -11    3.54    0.44
  -1   1 -11    2.35    0.45
  -1  -1 -11    3.19    0.52
   1   1 -11    3.26    0.40
   1   1 -11    3.98    0.54
  -1  -2   0    0.09    0.06
  -1   2   0    0.33    0.11
  -1   2   0    0.02    0.05
  -1  -2   1  250.05   14.10
  -1   2  -1  253.46   14.11
  -1   2  -1  240.44   14.12
   1   2  -1  254.05   14.11
  -1  -2  -1  238.27   14.11
  -1   2   1  240.40   14.09
  -1  -2  -1  238.74   14.10
  -1  -2  -1  245.21   14.10
   1  -2   1  259.06   14.10
   1   2  -1  239.61   14.11
  -1   2  -2    0.03    0.02
   1  -2  -2    0.10    0.04
  -1   2  -2    0.03    0.05
  -1  -2   2    0.04    0.03
   1  -2  -2    0.03    0.06
  -1   2  -2    0.14    0.05
  -1  -2  -2    0.07    0.04
  -1  -2  -2    0.09    0.03
   1   2  -2    0.02    0.04
   1  -2   2    0.27    0.04
  -1  -2  -2    0.04    0.06
   1   2  -2    0.04    0.05
  -1   2  -3    7.88    0.55
   1  -2  -3    8.53    0.55
   1  -2  -3    8.65    0.52
  -1   2  -3    9.27    0.54
   1   2  -3    8.33    0.53
   1  -2   3    8.57    0.51
  -1  -2  -3    8.58    0.56
  -1  -2  -3    8.47    0.52
   1   2  -3    8.44    0.55
   1  -2  -4    0.12    0.07
   1  -2  -4    0.19    0.10
  -1   2  -4    0.12    0.08
  -1   2  -4    0.13    0.10
   1   2  -4    0.15    0.08
  -1  -2  -4    0.17    0.11
  -1  -2  -4    0.04    0.06
   1  -2   4    0.13    0.04
   1   2  -4    0.12    0.08
  -1   2  -5   17.85    1.18
   1  -2  -5   19.41    1.18
  -1   2  -5   19.28    1.15
   1  -2  -5   18.30    1.13
   1  -2   5   18.47    1.09
   1   2  -5   18.52    1.17
   1   2  -5   19.45    1.14
  -1  -2  -5   18.27    1.13
  -1  -2  -5   18.44    1.18
  -1   2  -6   43.30    2.72
  -1   2  -6   47.66    2.68
   1  -2  -6   44.58    2.66
   1  -2  -6   44.07    2.71
  -1  -2  -6   44.92    2.66
   1   2  -6   46.22    2.72
  -1  -2  -6   44.67    2.72
   1   2  -6   45.91    2.67
   1  -2  -7    0.14    0.19
  -1   2  -7    0.18    0.14
  -1   2  -7    0.26    0.19
   1  -2  -7    0.29    0.12
  -1  -2  -7    0.22    0.17
   1   2  -7    0.19    0.14
  -1  -2  -7    0.00    0.13
   1   2  -7    0.25    0.16
   1  -2  -8    1.47    0.23
  -1   2  -8    1.70    0.26
  -1   2  -8    1.41    0.30
   1  -2  -8    1.26    0.29
   1   2  -8    1.71    0.26
  -1  -2  -8    1.81    0.25
   1   2  -8    1.79    0.29
  -1  -2  -8    1.86    0.32
   1  -2  -9   -0.06    0.16
   1  -2  -9   -0.06    0.20
  -1   2  -9   -0.06    0.22
  -1   2  -9   -0.15    0.16
  -1  -2  -9   -0.08    0.21
   1   2  -9    0.20    0.20
  -1  -2  -9   -0.37    0.15
   1   2  -9   -0.12    0.18
   1  -2 -10    2.00    0.37
  -1   2 -10    2.35    0.40
  -1   2 -10    1.87    0.32
  -1  -2 -10    1.87    0.40
   1   2 -10    2.48    0.35
  -1  -2 -10    2.44    0.32
   1   2 -10    2.23    0.40
  -1   2 -11    0.26    0.29
  -1   2 -11   -0.03    0.21
   1  -2 -11    0.20    0.27
  -1  -2 -11   -0.05    0.30
   1   2 -11   -0.21    0.27
   1   2 -11    0.23    0.24
  -1   3   0    0.13    0.05
   1  -3   0   -0.08    0.07
  -1  -3   0    0.06    0.07
  -1   3  -1  430.88   23.46
   1  -3  -1  365.62   23.45
  -1  -3   1  425.98   23.46
  -1   3  -1  384.09   23.48
   1  -3   1  434.19   23.46
  -1  -3  -1  420.69   23.46
   1   3  -1  420.99   23.46
   1   3  -1  391.71   23.48
  -1   3  -2   33.41    1.96
  -1  -3   2   33.26    1.94
  -1   3  -2   33.10    1.94
   1  -3  -2   33.74    1.94
  -1   3  -2   34.14    1.97
  -1  -3  -2   31.96    1.97
   1   3  -2   33.49    1.97
   1  -3   2   34.42    1.95
  -1  -3  -2   34.75    1.95
   1   3  -2   33.51    1.96
  -1  -3  -2   33.27    1.94
  -1  -3   3  154.51    8.89
   1  -3  -3  153.84    8.90
   1  -3  -3  152.67    8.94
  -1   3  -3  159.30    8.92
  -1   3  -3  154.97    8.94
   1   3  -3  154.02    8.92
   1  -3   3  156.14    8.90
  -1  -3  -3  156.38    8.90
   1   3  -3  156.94    8.93
  -1  -3  -3  150.78    8.94
   1  -3  -4    0.00    0.06
  -1   3  -4    0.11    0.10
  -1  -3   4    0.08    0.03
   1  -3  -4    0.08    0.10
  -1   3  -4    0.00    0.08
   1   3  -4    0.10    0.10
  -1  -3  -4    0.07    0.07
   1  -3   4    0.11    0.04
   1   3  -4    0.03    0.08
  -1  -3  -4    0.08    0.11
   1  -3  -5   67.19    4.04
  -1   3  -5   65.96    4.04
   1  -3  -5   70.23    3.99
  -1  -3   5   68.77    3.95
  -1   3  -5   72.31    4.01
  -1  -3  -5   68.63    3.99
   1  -3   5   68.14    3.96
   1   3  -5   64.92    4.03
   1   3  -5   71.34    4.01
  -1  -3  -5   69.22    4.05
   1  -3  -6    0.13    0.14
   1  -3  -6    0.14    0.10
  -1   3  -6    0.08    0.15
  -1   3  -6    0.11    0.13
   1   3  -6    0.03    0.13
  -1  -3  -6    0.26    0.11
  -1  -3  -6    0.00    0.14
   1   3  -6    0.09    0.13
   1  -3  -7   13.54    0.89
   1  -3  -7   14.21    0.97
  -1   3  -7   14.60    0.98
  -1   3  -7   14.93    0.93
  -1  -3  -7   14.35    0.97
   1   3  -7   12.07    0.94
  -1  -3  -7   14.47    0.90
   1   3  -7   13.98    0.91
  -1   3  -8   21.77    1.48
   1  -3  -8   22.88    1.49
  -1   3  -8   22.52    1.43
   1  -3  -8   24.26    1.41
  -1  -3  -8   22.32    1.41
   1   3  -8   21.46    1.47
  -1  -3  -8   23.96    1.51
   1   3  -8   22.47    1.43
   1  -3  -9    0.31    0.17
  -1   3  -9    0.27    0.24
  -1   3  -9    0.07    0.18
   1  -3  -9    0.39    0.23
  -1  -3  -9    0.32    0.17
  -1  -3  -9    0.41    0.23
   1   3  -9    0.17    0.20
   1   3  -9    0.08    0.20
   1  -3 -10    0.60    0.28
  -1   3 -10    0.08    0.27
  -1   3 -10    0.49    0.23
   1   3 -10    0.55    0.26
   1   3 -10    0.35    0.24
  -1  -3 -10    0.57    0.28
  -1   3 -11    0.31    0.28
   1  -3 -11    0.06    0.26
  -1   3 -11    0.23    0.24
   1   3 -11    0.10    0.28
   1   3 -11   -0.08    0.21
  -1  -3 -11   -0.20    0.27
  -1   4   0    0.10    0.13
   1   4   0    0.20    0.13
  -1   4   0    0.09    0.05
  -1  -4   0   -0.18    0.05
   1  -4   0    0.01    0.07
  -1   4  -1  128.91    7.84
  -1  -4   1  136.39    7.81
  -1   4  -1  136.96    7.81
   1  -4   1  140.81    7.81
  -1  -4  -1  135.69    7.81
   1   4  -1  140.91    7.81
   1   4  -1  129.72    7.84
  -1   4  -2  149.67    8.38
  -1  -4   2  147.59    8.37
  -1   4  -2  141.00    8.40
   1  -4  -2  147.58    8.35
   1  -4   2  143.72    8.37
   1   4  -2  143.40    8.39
   1   4  -2  145.57    8.38
  -1  -4  -2  140.16    8.36
  -1  -4  -2  151.01    8.37
  -1  -4   3    1.68    0.14
  -1   4  -3    1.82    0.13
   1  -4  -3    1.59    0.19
  -1   4  -3    2.06    0.18
   1  -4  -3    1.83    0.14
  -1   4  -3    1.52    0.18
  -1  -4  -3    2.05    0.21
   1  -4   3    1.84    0.15
  -1  -4  -3    1.72    0.15
   1   4  -3    1.87    0.18
   1   4  -3    1.90    0.18
   1   4  -3    1.84    0.12
   1  -4  -4   92.71    5.34
  -1  -4   4   90.59    5.33
  -1   4  -4   95.91    5.37
   1  -4  -4   93.48    5.39
  -1   4  -4   91.72    5.39
   1   4  -4   95.53    5.37
   1  -4   4   91.07    5.33
   1   4  -4   90.80    5.38
  -1  -4  -4   93.68    5.40
  -1  -4  -4   90.43    5.34
  -1   4  -5    0.50    0.16
  -1   4  -5    0.53    0.14
  -1  -4   5    0.73    0.09
   1  -4  -5    0.59    0.16
   1  -4  -5    0.68    0.11
  -1  -4  -5    0.81    0.17
   1   4  -5    0.72    0.14
   1  -4   5    0.74    0.09
   1   4  -5    0.60    0.15
  -1  -4  -5    0.75    0.12
  -1   4  -6   69.88    4.08
   1  -4  -6   68.19    4.01
   1  -4  -6   70.56    4.08
  -1   4  -6   67.59    4.04
   1  -4   6   66.08    4.00
   1   4  -6   69.51    4.04
  -1  -4  -6   70.45    4.09
   1   4  -6   71.12    4.08
  -1  -4  -6   67.36    4.01
  -1   4  -7    0.51    0.20
   1  -4  -7    0.80    0.15
  -1   4  -7    0.77    0.18
   1  -4  -7    0.73    0.21
   1   4  -7    0.61    0.18
  -1  -4  -7    0.56    0.20
   1   4  -7    0.59    0.19
  -1  -4  -7    0.60    0.15
  -1   4  -8   16.99    1.17
   1  -4  -8   17.63    1.09
  -1   4  -8   15.45    1.11
   1  -4  -8   17.89    1.18
  -1  -4  -8   17.64    1.20
   1   4  -8   18.90    1.14
  -1  -4  -8   16.54    1.09
   1   4  -8   16.67    1.16
   1  -4  -9    1.32    0.33
  -1   4  -9    1.36    0.33
  -1   4  -9    1.38    0.27
   1   4  -9    2.05    0.34
  -1  -4  -9    1.81    0.37
   1   4  -9    1.62    0.27
  -1   4 -10    3.75    0.50
   1  -4 -10    3.63    0.51
  -1   4 -10    3.76    0.45
   1   4 -10    4.01    0.45
  -1  -4 -10    4.52    0.54
   1   4 -10    4.27    0.53
   1  -4 -11    0.05    0.32
  -1   4 -11    0.07    0.29
  -1   4 -11    0.14    0.24
  -1  -4 -11   -0.22    0.26
   1   4 -11    0.14    0.28
   1   4 -11   -0.07    0.26
   1  -5   0   -0.06    0.06
   1   5   0   -0.08    0.11
  -1   5   0   -0.14    0.11
  -1   5   0   -0.10    0.04
  -1  -5   0   -0.01    0.07
  -1   5  -1   39.18    2.25
  -1  -5   1   39.58    2.26
  -1   5  -1   37.92    2.31
  -1  -5  -1   38.58    2.26
   1  -5   1   39.08    2.26
   1   5  -1   40.35    2.25
   1   5  -1   35.85    2.30
  -1   5  -2   14.03    0.88
   1  -5  -2   14.03    0.82
  -1  -5   2   14.78    0.85
  -1   5  -2   13.91    0.85
   1   5  -2   14.40    0.85
  -1  -5  -2   13.98    0.83
  -1  -5  -2   13.89    0.85
   1  -5   2   14.17    0.85
   1   5  -2   13.22    0.87
   1  -5  -3  282.05   16.42
  -1  -5   3  290.44   16.44
  -1   5  -3  286.01   16.48
  -1   5  -3  280.88   16.43
  -1   5  -3  299.33   16.46
   1   5  -3  286.76   16.47
   1  -5   3  288.78   16.44
   1   5  -3  292.72   16.46
   1   5  -3  272.31   16.42
  -1  -5  -3  285.74   16.43
  -1   5  -4   40.24    2.29
  -1  -5   4   40.86    2.32
   1  -5  -4   38.71    2.31
  -1   5  -4   40.28    2.35
  -1   5  -4   40.66    2.38
   1   5  -4   40.75    2.35
  -1  -5  -4   38.67    2.38
   1   5  -4   38.92    2.37
  -1  -5  -4   40.17    2.32
   1  -5   4   38.73    2.32
  -1  -5   5  104.61    5.90
  -1   5  -5  101.12    5.97
   1  -5  -5  101.34    5.97
   1  -5  -5  100.23    5.90
  -1  -5  -5  100.14    5.91
   1   5  -5  102.33    5.96
  -1  -5  -5  100.72    5.98
   1  -5   5  101.91    5.90
   1   5  -5  108.47    5.95
  -1   5  -6    1.41    0.25
  -1   5  -6    1.40    0.21
   1  -5  -6    1.23    0.24
   1  -5  -6    1.47    0.17
   1  -5   6    1.63    0.16
  -1  -5  -6    1.48    0.17
   1   5  -6    1.23    0.20
   1   5  -6    1.16    0.21
  -1  -5  -6    1.32    0.24
  -1   5  -7    6.45    0.54
   1  -5  -7    6.53    0.45
   1  -5  -7    7.00    0.55
  -1   5  -7    5.77    0.51
  -1  -5  -7    6.03    0.55
  -1  -5  -7    6.65    0.47
   1   5  -7    6.43    0.54
   1   5  -7    6.04    0.50
   1  -5  -8    0.65    0.23
  -1   5  -8    0.39    0.21
  -1   5  -8    0.43    0.19
  -1  -5  -8    0.17    0.22
   1   5  -8    0.83    0.21
   1   5  -8    0.41    0.22
  -1  -5  -8    0.34    0.24
  -1   5  -9    0.53    0.25
  -1   5  -9    0.89    0.25
   1  -5  -9    0.30    0.24
   1   5  -9    0.69    0.22
   1   5  -9    0.15    0.21
  -1  -5  -9    0.42    0.25
   1  -5 -10    2.19    0.43
  -1   5 -10    2.38    0.37
  -1   5 -10    2.46    0.41
  -1  -5 -10    2.00    0.40
   1   5 -10    2.73    0.38
   1   5 -10    2.64    0.42
   1  -5 -11    0.01    0.31
  -1   5 -11    0.17    0.25
  -1   5 -11    0.27    0.27
   1   5 -11    0.34    0.28
  -1  -5 -11    0.07    0.33
   1   5 -11    0.32    0.25
  -1   6   0   -0.08    0.04
   1   6   0    0.05    0.13
   1  -6   0   -0.02    0.07
  -1  -6   0   -0.04    0.08
  -1   6   0    0.05    0.15
  -1   6  -1    9.63    0.63
  -1  -6   1   10.95    0.65
  -1   6  -1   10.40    0.71
   1  -6   1   10.75    0.65
   1   6  -1    9.90    0.71
  -1  -6  -1   10.56    0.65
   1  -6  -2   34.68    2.07
  -1   6  -2   35.33    2.15
  -1   6  -2   36.22    2.11
  -1  -6   2   37.40    2.12
   1   6  -2   35.72    2.14
   1  -6   2   36.73    2.12
   1   6  -2   36.52    2.11
  -1  -6  -2   37.44    2.12
  -1  -6  -2   34.63    2.09
  -1   6  -3    1.05    0.17
   1  -6  -3    1.38    0.11
  -1   6  -3    1.35    0.13
  -1   6  -3    1.23    0.15
  -1  -6   3    1.22    0.14
   1  -6   3    1.05    0.14
  -1  -6  -3    1.06    0.11
   1   6  -3    1.32    0.18
   1   6  -3    1.75    0.17
  -1   6  -4  107.43    6.21
  -1   6  -4  112.99    6.29
   1  -6  -4  106.87    6.21
  -1   6  -4  107.49    6.26
  -1  -6   4  110.28    6.23
   1  -6   4  106.52    6.23
   1   6  -4  104.85    6.20
   1   6  -4  106.57    6.26
   1   6  -4  109.48    6.28
  -1  -6  -4  107.72    6.22
  -1   6  -5    0.25    0.14
   1  -6  -5    0.24    0.08
  -1  -6   5    0.10    0.08
  -1   6  -5    0.15    0.12
   1   6  -5    0.13    0.13
  -1  -6  -5    0.35    0.09
  -1  -6  -5    0.36    0.15
   1   6  -5    0.31    0.12
   1  -6   5    0.32    0.09
  -1   6  -6   17.39    1.13
   1  -6  -6   17.80    1.08
  -1   6  -6   17.43    1.16
   1  -6  -6   18.04    1.17
   1   6  -6   18.18    1.15
  -1  -6  -6   17.42    1.08
   1   6  -6   17.28    1.12
  -1  -6  -6   18.60    1.17
   1  -6   6   17.68    1.08
  -1   6  -7    2.52    0.30
   1  -6  -7    3.32    0.37
  -1   6  -7    1.95    0.31
  -1  -6  -7    2.59    0.36
   1   6  -7    2.29    0.29
  -1  -6  -7    2.08    0.24
   1   6  -7    2.36    0.32
  -1   6  -8   12.20    0.90
  -1   6  -8   12.02    0.84
   1  -6  -8   11.55    0.90
   1   6  -8   11.09    0.86
  -1  -6  -8   12.63    0.91
   1   6  -8   12.56    0.85
   1  -6  -9    2.04    0.37
  -1   6  -9    2.37    0.40
  -1   6  -9    1.80    0.31
  -1  -6  -9    2.02    0.37
   1   6  -9    2.24    0.38
   1   6  -9    2.24    0.32
  -1   6 -10   14.94    1.06
  -1   6 -10   14.60    1.00
   1  -6 -10   12.01    1.03
   1   6 -10   13.50    1.05
   1   6 -10   12.09    0.97
  -1  -6 -10   16.54    1.12
  -1   7   0    0.07    0.13
   1   7   0   -0.05    0.12
  -1   7   0    0.02    0.04
   1  -7   0   -0.06    0.07
  -1  -7   0    0.07    0.07
  -1   7  -1   18.78    1.24
   1  -7  -1   19.03    1.16
  -1  -7   1   19.47    1.16
  -1   7  -1   19.56    1.14
   1   7  -1   19.52    1.15
   1   7  -1   19.13    1.24
   1  -7   1   18.85    1.16
  -1  -7  -1   19.18    1.16
  -1  -7   2    3.57    0.27
   1  -7  -2    3.49    0.22
  -1   7  -2    4.36    0.33
  -1   7  -2    3.38    0.26
  -1  -7  -2    3.03    0.26
   1   7  -2    3.94    0.27
   1   7  -2    3.37    0.30
   1  -7   2    3.43    0.27
  -1  -7   3   28.49    1.66
   1  -7  -3   27.52    1.62
  -1   7  -3   27.83    1.67
  -1   7  -3   29.22    1.70
   1   7  -3   26.75    1.68
   1   7  -3   27.29    1.66
   1  -7   3   27.71    1.66
  -1  -7  -3   26.25    1.62
  -1  -7  -3   30.56    1.66
  -1   7  -4    0.56    0.14
  -1  -7   4    0.49    0.11
  -1   7  -4    0.53    0.13
  -1   7  -4    0.45    0.08
   1  -7  -4    0.58    0.08
   1   7  -4    0.58    0.15
  -1  -7  -4    0.51    0.09
   1   7  -4    0.50    0.07
   1   7  -4    0.53    0.13
   1  -7   4    0.62    0.11
  -1   7  -5   11.06    0.72
  -1  -7   5   11.09    0.68
  -1   7  -5   10.68    0.74
   1  -7  -5   10.37    0.65
   1  -7   5   10.07    0.67
  -1  -7  -5   10.84    0.66
   1   7  -5   10.44    0.71
   1   7  -5   10.11    0.72
  -1   7  -6   -0.09    0.13
  -1   7  -6    0.01    0.13
  -1  -7  -6    0.22    0.17
   1  -7   6    0.08    0.09
   1   7  -6   -0.24    0.12
  -1  -7  -6   -0.03    0.09
   1   7  -6   -0.29    0.11
  -1   7  -7    1.23    0.25
  -1   7  -7    0.89    0.22
  -1  -7  -7    0.86    0.25
   1   7  -7    0.99    0.23
   1   7  -7    1.37    0.26
  -1   7  -8    2.01    0.30
  -1   7  -8    1.85    0.32
  -1  -7  -8    1.21    0.30
   1   7  -8    2.29    0.34
   1   7  -8    1.83    0.28
  -1   7  -9    1.29    0.29
  -1   7  -9    1.63    0.34
  -1  -7  -9    1.67    0.35
   1   7  -9    1.65    0.34
   1   7  -9    1.74    0.30
  -1   7 -10    4.23    0.56
  -1   7 -10    4.71    0.52
   1   7 -10    3.95    0.47
  -1  -7 -10    4.67    0.58
   1   7 -10    4.58    0.56
  -1   8   0    0.01    0.14
  -1   8   0   -0.09    0.05
   1  -8   0   -0.23    0.07
  -1  -8   0   -0.16    0.07
   1   8   0   -0.12    0.13
   1  -8  -1    0.88    0.14
  -1   8  -1    0.89    0.11
  -1   8  -1    0.71    0.19
  -1  -8   1    1.16    0.15
  -1   8   1    1.05    0.29
   1   8  -1    1.09    0.22
   1   8  -1    0.87    0.11
   1  -8   1    1.01    0.15
  -1  -8  -1    0.94    0.14
  -1   8  -2    5.90    0.40
  -1  -8   2    5.38    0.40
  -1   8  -2    5.24    0.45
   1  -8   2    5.45    0.41
   1   8  -2    5.72    0.46
  -1  -8  -2    6.30    0.41
   1   8  -2    5.55    0.39
   1  -8  -3    1.98    0.14
  -1   8  -3    2.15    0.22
  -1  -8   3    1.77    0.20
  -1   8  -3    2.32    0.26
   1   8  -3    1.74    0.20
   1   8  -3    1.57    0.22
  -1  -8  -3    2.05    0.16
   1  -8   3    1.97    0.21
  -1  -8  -3    2.69    0.23
  -1  -8   4    3.79    0.30
   1  -8  -4    3.72    0.25
  -1   8  -4    3.62    0.34
  -1   8  -4    4.00    0.27
  -1   8  -4    3.54    0.32
   1   8  -4    3.55    0.32
   1   8  -4    3.73    0.31
  -1  -8  -4    3.61    0.26
   1   8  -4    3.38    0.26
   1  -8   4    3.85    0.30
  -1  -8   5   20.31    1.21
  -1   8  -5   20.52    1.24
  -1   8  -5   18.73    1.27
   1   8  -5   19.38    1.26
  -1  -8  -5   19.00    1.18
   1  -8   5   20.28    1.21
   1   8  -5   20.55    1.24
  -1   8  -6   26.02    1.56
  -1   8  -6   24.17    1.58
  -1  -8   6   26.41    1.56
   1  -8   6   25.04    1.51
   1   8  -6   22.93    1.54
   1   8  -6   25.36    1.58
  -1   8  -7   11.87    0.83
  -1   8  -7    9.95    0.77
   1   8  -7   11.13    0.82
   1   8  -7   11.72    0.79
  -1   8  -8   11.83    0.92
  -1   8  -8   12.44    0.90
   1   8  -8   13.13    0.90
   1   8  -8   13.06    0.93
  -1   8  -9    0.00    0.21
  -1   8  -9    0.26    0.25
   1   8  -9    0.22    0.23
   1   8  -9    0.12    0.21
  -1   8 -10    4.19    0.52
  -1   8 -10    3.32    0.45
   1   8 -10    3.93    0.49
   1   8 -10    3.65    0.49
   1  -9   0    0.02    0.08
  -1  -9   0   -0.05    0.09
   1   9   0    0.22    0.21
  -1   9   0    0.09    0.20
  -1   9  -1   66.38    3.79
  -1   9  -1   67.00    3.95
  -1  -9   1   62.52    3.82
   1  -9  -1   68.64    3.82
   1   9  -1   63.85    3.94
   1   9  -1   64.58    3.79
   1  -9   1   64.58    3.82
  -1   9   1   62.05    4.06
  -1  -9  -1   67.28    3.82
  -1  -9   2    9.54    0.62
  -1   9  -2    9.14    0.59
  -1   9  -2    9.71    0.68
   1   9  -2    8.83    0.59
   1  -9   2    8.47    0.61
   1   9  -2    9.56    0.67
  -1  -9  -2    9.46    0.61
  -1   9  -3    2.55    0.24
   1  -9  -3    2.57    0.17
  -1  -9   3    2.23    0.24
  -1   9  -3    2.95    0.31
  -1  -9  -3    2.70    0.25
  -1  -9  -3    2.52    0.18
   1   9  -3    2.35    0.27
   1   9  -3    1.91    0.23
   1  -9   3    2.61    0.26
  -1   9  -4    0.38    0.09
  -1   9  -4    0.34    0.13
  -1  -9   4    0.38    0.12
  -1   9  -4    0.23    0.13
   1   9  -4    0.20    0.12
   1   9  -4    0.51    0.14
  -1  -9  -4    0.42    0.08
   1  -9   4    0.20    0.11
  -1  -9   5   11.79    0.77
  -1   9  -5   11.55    0.79
  -1   9  -5   11.64    0.83
   1   9  -5   11.25    0.79
   1  -9   5   12.10    0.77
   1   9  -5   12.67    0.82
  -1   9  -6    5.38    0.48
  -1   9  -6    5.05    0.46
  -1  -9   6    5.04    0.42
   1   9  -6    5.22    0.46
   1   9  -6    5.15    0.46
   1  -9   6    5.46    0.41
  -1   9  -7    7.60    0.63
  -1   9  -7    7.27    0.60
   1   9  -7    7.85    0.62
   1   9  -7    7.99    0.60
  -1   9  -8    0.33    0.21
  -1   9  -8    0.02    0.19
   1   9  -8   -0.12    0.19
   1   9  -8    0.09    0.21
  -1   9  -9    2.53    0.37
  -1   9  -9    2.07    0.38
   1   9  -9    2.46    0.36
   1   9  -9    2.91    0.43
  -1   9 -10    0.11    0.24
  -1   9 -10    0.01    0.24
   1   9 -10   -0.14    0.22
   1 -10   0   -0.11    0.09
   1  10   0   -0.17    0.18
  -1 -10   0   -0.08    0.10
  -1  10   0    0.17    0.22
  -1  10  -1    0.09    0.08
  -1 -10   1   -0.07    0.10
   1  10   1    0.16    0.25
   1 -10  -1    0.05    0.10
  -1  10  -1    0.02    0.16
   1  10  -1    0.17    0.17
   1 -10   1    0.23    0.12
  -1  10   1    0.07    0.25
  -1 -10  -1    0.33    0.12
  -1  10  -2    6.32    0.44
  -1 -10   2    6.38    0.47
  -1  10  -2    7.05    0.54
   1  10  -2    7.26    0.54
   1 -10   2    5.62    0.46
  -1 -10  -2    6.43    0.47
   1  10  -2    6.55    0.45
  -1  10  -3    0.20    0.13
  -1 -10   3    0.50    0.12
  -1  10  -3    0.20    0.11
   1  10  -3    0.22    0.12
   1 -10   3    0.43    0.13
  -1 -10  -3    0.37    0.07
   1  10  -3    0.28    0.12
  -1  10  -4    0.29    0.14
  -1 -10   4    0.13    0.12
  -1  10  -4    0.23    0.09
  -1  10  -4    0.25    0.13
   1  10  -4    0.20    0.13
   1  10  -4    0.18    0.12
   1 -10   4    0.15    0.11
  -1  10  -5    0.01    0.13
  -1 -10   5    0.24    0.13
  -1  10  -5    0.02    0.14
   1  10  -5    0.08    0.15
   1  10  -5    0.20    0.14
   1 -10   5    0.16    0.13
  -1  10  -6    0.26    0.17
  -1  10  -6    0.30    0.17
  -1 -10   6    0.60    0.16
   1  10  -6    0.17    0.16
   1  10  -6    0.01    0.17
   1 -10   6    0.38    0.15
  -1  10  -7    0.74    0.22
  -1  10  -7    0.60    0.21
   1  10  -7    0.88    0.22
   1  10  -7    0.63    0.22
  -1  10  -8    1.78    0.32
  -1  10  -8    2.20    0.37
   1  10  -8    1.86    0.33
   1  10  -8    1.51    0.29
  -1  10  -9    1.01    0.31
  -1  10  -9    0.70    0.30
   1  10  -9    0.76    0.27
   1  10  -9    0.56    0.25
  -1  10 -10   -0.07    0.23
  -1  10 -10    0.15    0.24
   1  10 -10    0.23    0.24
  -1 -11   0    0.02    0.11
  -1  11   0    0.20    0.22
   1 -11   0   -0.20    0.09
   1  11   0    0.09    0.20
  -1  11  -1    4.56    0.56
   1  11   1    3.34    0.59
  -1  11  -1    4.31    0.32
  -1 -11   1    4.53    0.37
  -1 -11  -1    4.34    0.37
  -1  11   1    4.17    0.64
   1 -11   1    4.20    0.39
   1  11  -1    5.29    0.57
  -1  11  -2    1.40    0.26
  -1 -11   2    1.50    0.22
  -1  11  -2    1.32    0.17
   1 -11   2    1.60    0.22
   1  11  -2    1.60    0.27
   1  11  -2    1.79    0.19
  -1 -11  -2    1.45    0.20
  -1  11  -3   44.80    2.56
  -1  11  -3   43.79    2.64
  -1 -11   3   38.81    2.56
   1 -11   3   42.31    2.57
   1  11  -3   45.78    2.56
   1  11  -3   43.44    2.62
  -1  11  -4    3.68    0.35
  -1 -11   4    3.71    0.36
  -1  11  -4    4.07    0.43
   1  11  -4    4.22    0.38
   1 -11   4    3.59    0.36
   1  11  -4    4.36    0.36
  -1 -11   5    5.27    0.43
  -1  11  -5    5.20    0.44
  -1  11  -5    4.73    0.50
   1  11  -5    5.66    0.47
   1  11  -5    5.47    0.44
   1 -11   5    4.83    0.42
  -1  11  -6    4.28    0.43
  -1 -11   6    4.96    0.41
  -1  11  -6    4.15    0.47
   1  11  -6    4.01    0.42
   1  11  -6    4.63    0.47
   1 -11   6    5.10    0.41
  -1  11  -7    1.17    0.27
  -1  11  -7    1.07    0.26
   1  11  -7    1.45    0.30
   1  11  -7    1.37    0.26
  -1  11  -8    3.56    0.47
  -1  11  -8    2.44    0.37
   1  11  -8    4.26    0.43
   1  11  -8    2.82    0.43
  -1  11  -9    0.21    0.23
  -1  11  -9    0.69    0.28
   1  11  -9    0.72    0.32
   1  11  -9    0.56    0.26
   1  12   0    0.33    0.27
  -1  12   0   -0.01    0.19
   1 -12   0    0.11    0.12
  -1 -12   0    0.10    0.14
  -1  12  -1   27.77    1.66
  -1 -12   1   28.26    1.71
   1  12   1   24.48    1.96
  -1  12  -1   34.95    1.94
  -1  12   1   23.98    1.97
   1 -12   1   27.32    1.71
  -1 -12  -1   27.29    1.70
   1  12  -1   29.32    1.89
  -1 -12   2    0.60    0.16
  -1  12  -2    0.84    0.24
  -1  12  -2    0.58    0.13
   1 -12   2    0.50    0.16
   1  12  -2    0.61    0.13
  -1  12   2    0.62    0.35
  -1 -12  -2    0.64    0.16
   1  12  -2    0.70    0.21
  -1  12  -3    0.57    0.15
  -1  12  -3    0.42    0.17
  -1 -12   3    0.70    0.16
   1 -12   3    0.35    0.16
   1  12  -3    0.44    0.14
   1  12  -3    0.62    0.18
  -1  12  -4    1.12    0.20
  -1 -12   4    1.05    0.19
  -1  12  -4    1.28    0.25
   1  12  -4    1.14    0.21
   1 -12   4    1.13    0.21
   1  12  -4    0.73    0.20
  -1  12  -5    5.21    0.46
  -1  12  -5    5.18    0.53
  -1 -12   5    5.03    0.44
   1  12  -5    4.34    0.44
   1  12  -5    5.70    0.54
   1 -12   5    5.53    0.45
  -1  12  -6   15.46    1.10
  -1  12  -6   15.64    1.04
  -1 -12   6   16.08    1.03
   1  12  -6   14.57    1.04
   1  12  -6   16.02    1.09
  -1  12  -7    0.19    0.20
  -1  12  -7    0.36    0.22
   1  12  -7    0.36    0.23
   1  12  -7    0.25    0.19
  -1  12  -8    2.68    0.43
  -1  12  -8    3.40    0.43
   1  12  -8    3.79    0.43
   1  12  -8    4.00    0.49
  -1  12  -9    0.27    0.27
  -1  12  -9    0.38    0.25
   1  12  -9    0.33    0.25
  -1 -13   0    0.20    0.16
  -1  13   0    0.08    0.23
   1  13   0   -0.29    0.17
   1 -13   0   -0.11    0.11
   1  13   1    7.92    1.01
  -1  13  -1   10.39    0.87
  -1 -13   1   10.15    0.70
   1  13  -1   11.83    0.90
  -1 -13  -1    9.85    0.69
   1 -13   1    9.44    0.69
  -1  13   1    8.38    1.05
  -1 -13   2    0.06    0.13
  -1  13  -2    0.25    0.11
  -1  13  -2   -0.02    0.17
   1  13   2   -0.16    0.25
  -1  13   2   -0.14    0.27
   1 -13   2    0.08    0.13
   1  13  -2    0.00    0.15
  -1 -13  -2   -0.08    0.12
  -1  13  -3   13.98    1.00
  -1  13  -3   13.90    0.89
  -1 -13   3   13.83    0.93
   1  13  -3   13.90    0.99
   1  13  -3   13.56    0.90
   1 -13   3   13.41    0.91
  -1  13  -4    0.18    0.19
  -1 -13   4    0.25    0.17
  -1  13  -4    0.18    0.15
   1  13  -4    0.26    0.16
   1  13  -4    0.43    0.19
   1 -13   4    0.13    0.14
  -1 -13   5   46.78    2.90
  -1  13  -5   48.80    2.97
  -1  13  -5   49.28    2.90
   1  13  -5   50.48    2.96
   1  13  -5   47.12    2.90
   1 -13   5   47.39    2.90
  -1  13  -6    0.20    0.22
  -1  13  -6   -0.31    0.20
  -1 -13   6   -0.21    0.16
   1  13  -6   -0.21    0.17
   1  13  -6    0.01    0.18
  -1  13  -7    1.76    0.34
  -1  13  -7    1.34    0.28
   1  13  -7    1.23    0.29
   1  13  -7    1.19    0.30
  -1  13  -8    1.19    0.30
  -1  13  -8    1.28    0.33
   1  13  -8    1.61    0.40
   1  13  -8    1.19    0.29
  -1  13  -9    1.90    0.41
   1  14   0    0.08    0.29
  -1 -14   0    0.06    0.17
  -1  14   0    0.46    0.37
  -1 -14   1    4.04    0.39
  -1  14  -1    4.74    0.63
   1  14   1    2.74    0.61
   1  14  -1    4.07    0.62
   1 -14   1    3.05    0.36
  -1  14   1    3.62    0.69
  -1 -14  -1    3.64    0.37
   1  14   2    3.40    0.69
  -1  14  -2    4.30    0.53
  -1  14  -2    4.07    0.34
  -1 -14   2    3.37    0.38
   1  14  -2    5.42    0.57
  -1 -14  -2    3.97    0.39
  -1  14   2    4.18    0.77
   1 -14   2    3.80    0.40
  -1 -14   3    0.35    0.18
  -1  14  -3    0.55    0.16
  -1  14  -3    0.56    0.25
   1 -14   3    0.75    0.21
   1  14  -3    0.72    0.23
   1  14  -3    0.46    0.15
  -1  14  -4   19.02    1.32
  -1  14  -4   18.80    1.22
  -1 -14   4   18.65    1.25
   1 -14   4   19.71    1.25
   1  14  -4   19.84    1.31
   1  14  -4   19.10    1.22
  -1  14  -5    0.16    0.19
  -1 -14   5    0.35    0.18
  -1  14  -5    0.06    0.18
   1  14  -5    0.43    0.21
   1  14  -5    0.50    0.21
  -1 -14   6   35.30    2.15
  -1  14  -6   35.34    2.23
  -1  14  -6   34.22    2.15
   1  14  -6   33.12    2.15
   1  14  -6   35.93    2.22
  -1  14  -7    0.02    0.20
  -1  14  -7    0.05    0.21
   1  14  -7   -0.11    0.21
   1  14  -7    0.17    0.25
  -1  14  -8   16.28    1.17
  -1  14  -8   15.49    1.11
   1  14  -8   14.97    1.10
  -1 -15   0   -0.07    0.16
  -1  15   0    0.16    0.29
   1  15   0    0.06    0.28
  -1 -15   1   21.61    1.49
  -1  15  -1   27.95    1.77
  -1 -15  -1   24.50    1.51
   1  15  -1   25.21    1.73
  -1  15   1   20.10    1.81
  -1  15  -2    2.35    0.27
  -1 -15   2    2.06    0.30
   1  15   2    2.20    0.62
  -1  15  -2    3.47    0.50
   1  15  -2    2.45    0.42
  -1  15   2    1.68    0.59
   1 -15   2    2.34    0.31
  -1  15  -3   34.53    2.08
  -1  15  -3   38.13    2.24
   1  15   3   32.62    2.50
  -1 -15   3   34.19    2.12
   1  15  -3   34.76    2.09
   1  15  -3   35.28    2.21
  -1  15   3   31.62    2.50
   1 -15   3   32.57    2.12
  -1  15  -4    3.11    0.34
  -1  15  -4    2.71    0.43
  -1 -15   4    2.80    0.36
   1  15  -4    3.47    0.45
   1  15  -4    3.41    0.36
  -1  15  -5   58.22    3.44
  -1 -15   5   54.70    3.35
  -1  15  -5   53.95    3.34
   1  15  -5   53.48    3.34
   1  15  -5   59.33    3.43
  -1  15  -6    0.01    0.23
  -1 -15   6    0.16    0.21
  -1  15  -6   -0.13    0.20
   1  15  -6   -0.14    0.19
   1  15  -6    0.08    0.19
  -1  15  -7    8.43    0.72
  -1  15  -7    7.72    0.65
   1  15  -7    7.92    0.87
   1  15  -7    6.42    0.64
  -1  15  -8    0.14    0.28
  -1  15  -8   -0.12    0.23
   1  15  -8    0.13    0.25
   1  16   0   -0.17    0.31
  -1 -16   0    0.20    0.19
  -1  16   0    0.16    0.29
  -1 -16   1    0.46    0.19
  -1  16  -1    1.03    0.36
   1  16   1    0.58    0.41
  -1 -16  -1    0.68    0.21
   1  16  -1    0.83    0.34
  -1  16   1    0.93    0.43
   1  16   2    1.24    0.51
  -1  16  -2    2.40    0.44
  -1 -16   2    1.43    0.29
  -1  16   2    1.43    0.56
   1  16  -2    2.04    0.44
   1  16   3    1.43    0.54
  -1  16  -3    1.82    0.26
  -1 -16   3    1.72    0.29
  -1  16  -3    1.43    0.33
  -1  16   3    1.92    0.61
   1  16  -3    1.55    0.34
  -1  16  -4   11.60    0.80
  -1  16  -4   12.96    0.94
  -1 -16   4   10.26    0.82
   1  16  -4   10.89    0.79
   1  16  -4   11.47    0.90
  -1 -16   5    2.04    0.31
  -1  16  -5    1.55    0.34
  -1  16  -5    1.72    0.30
   1  16  -5    1.48    0.27
   1  16  -5    1.97    0.36
  -1 -16   6   27.22    1.76
  -1  16  -6   28.40    1.77
  -1  16  -6   28.41    1.85
   1  16  -6   26.11    1.74
   1  16  -6   27.57    1.82
  -1  16  -7    0.26    0.24
  -1  16  -7    0.08    0.23
   1  16  -7    0.12    0.21
  -1 -17   0    0.12    0.20
  -1  17   0   -0.16    0.29
   1  17   0    0.14    0.34
  -1  17  -1    1.23    0.42
   1  17   1    1.34    0.52
  -1 -17   1    1.86    0.30
  -1  17   1    1.76    0.58
   1  17  -1    1.82    0.45
   1  17   2    1.54    0.54
  -1 -17   2    1.47    0.30
  -1  17  -2    2.33    0.44
  -1  17   2    0.84    0.51
   1  17  -2    1.69    0.43
  -1 -17   3   17.12    1.16
  -1  17  -3   19.49    1.29
   1  17   3   13.87    1.64
  -1  17   3   11.09    1.53
   1  17  -3   18.57    1.28
  -1 -17   4    0.32    0.21
  -1  17  -4    0.32    0.20
  -1  17  -4    0.34    0.24
   1  17   4    0.00    0.39
   1  17  -4    0.17    0.21
  -1  17   4    0.05    0.40
  -1  17  -5    2.73    0.37
  -1  17  -5    3.29    0.48
  -1 -17   5    3.30    0.41
   1  17  -5    3.06    0.46
   1  17  -5    2.70    0.37
  -1  17  -6   -0.37    0.18
  -1  17  -6   -0.02    0.26
   1  17  -6   -0.02    0.20
  -1  18   0    0.45    0.39
   1  18   0    0.47    0.40
  -1 -18   1    5.81    0.58
  -1  18  -1    7.82    0.89
   1  18   1    5.32    0.89
  -1  18   1    5.05    0.90
   1  18  -1    6.58    0.82
  -1 -18   2    0.19    0.21
  -1  18  -2   -0.14    0.25
   1  18   2   -0.08    0.37
  -1  18   2   -0.21    0.36
   1  18  -2    0.46    0.32
   1  18   3    6.93    1.13
  -1 -18   3    8.96    0.77
  -1  18  -3   12.54    0.94
   1  18  -3   10.37    0.87
  -1  18   3    7.63    1.21
  -1  18  -4    2.52    0.44
  -1 -18   4    2.71    0.39
   1  18   4    2.39    0.69
  -1  18  -4    3.44    0.39
  -1  18   4    1.86    0.64
   1  18  -4    3.70    0.51
  -1  18  -5    0.32    0.24
  -1  18  -5    0.54    0.29
  -1  18   5   -0.07    0.40
   1  18  -5    0.10    0.22
  -1  18  -6    2.22    0.36
  -1  18  -6    2.37    0.46
   1  18  -6    1.54    0.32
   1  19   0   -0.11    0.40
  -1  19   0   -0.24    0.31
   1  19   1    1.62    0.57
  -1  19  -1    2.46    0.55
  -1  19   1    2.96    0.75
   1  19  -1    2.87    0.56
  -1  19  -2    1.07    0.42
   1  19   2    0.46    0.51
  -1  19   2    0.89    0.58
   1  19  -2    0.98    0.37
  -1  19  -3    9.02    0.90
   1  19   3    4.77    0.97
  -1  19   3    5.59    1.06
   1  19  -3    6.76    0.78
   1  19   4   -0.19    0.36
  -1  19  -4    0.24    0.29
  -1  19   4    0.09    0.50
   1  19  -4    0.25    0.24
  -1  19  -5   10.24    0.83
   1  19   5    9.67    1.36
  -1  19  -5   12.12    0.97
  -1  19   5    8.16    1.28
   1  20   0    0.01    0.44
  -1  20   0    0.01    0.44
   1  20   1    1.13    0.61
  -1  20  -1    2.38    0.57
   1  20  -1    2.30    0.54
  -1  20   1    1.74    0.61
   1  20   2    0.22    0.52
  -1  20  -2    0.50    0.35
   1  20  -2    0.13    0.35
  -1  20   2    0.36    0.49
   1  20   3    0.64    0.57
  -1  20  -3    0.97    0.40
  -1  20   3    0.40    0.49
   1  20  -3    0.72    0.37
   1  21   0    0.00    0.40
  -1  21   0    0.21    0.42
  -1  21  -1    0.96    0.45
   1  21   1    0.55    0.54
  -1  21   1    0.81    0.55
   1  21  -1    0.56    0.46
  -2   0   0    0.01    0.01
  -2   0  -1    0.02    0.05
   2   0  -1    0.08    0.04
  -2   0  -1    0.07    0.04
   2   0  -1    0.00    0.03
  -2   0  -1    0.05    0.03
   2   0  -2  378.08   21.89
  -2   0  -2  370.94   21.87
   2   0  -2  381.32   21.90
  -2   0  -2  401.38   21.91
  -2   0  -2  377.16   21.89
   2   0  -3    0.03    0.06
   2   0  -3    0.02    0.07
  -2   0  -3   -0.02    0.06
  -2   0  -3   -0.02    0.07
  -2   0  -4   50.19    2.86
   2   0  -4   48.84    2.85
   2   0  -4   48.17    2.88
  -2   0  -4   48.72    2.90
   2   0  -5    0.18    0.11
  -2   0  -5    0.11    0.11
   2   0  -5    0.13    0.09
  -2   0  -5    0.20    0.10
   2   0  -6   67.50    3.90
  -2   0  -6   68.34    3.91
  -2   0  -6   64.08    3.96
   2   0  -6   67.20    3.95
  -2   0  -7   -0.12    0.13
   2   0  -7   -0.14    0.12
  -2   0  -7    0.37    0.18
   2   0  -7   -0.04    0.15
  -2   0  -8   26.55    1.59
   2   0  -8   23.77    1.57
  -2   0  -8   26.52    1.67
   2   0  -8   25.80    1.65
  -2   0  -9   -0.15    0.18
   2   0  -9   -0.05    0.21
   2   0  -9    0.13    0.17
  -2   0  -9   -0.28    0.19
  -2   0 -10    0.68    0.25
  -2   0 -10    1.01    0.32
   2   0 -10    0.79    0.25
   2   0 -10    0.43    0.29
   2   0 -11   -0.15    0.24
  -2   0 -11    0.09    0.21
  -2   0 -11    0.10    0.27
  -2   1  -1    1.65    0.11
  -2   1  -1    1.65    0.13
   2  -1  -1    1.73    0.11
  -2   1  -1    1.58    0.12
  -2  -1   1    1.55    0.10
   2   1  -1    1.50    0.11
   2   1  -1    2.04    0.11
  -2  -1  -1    1.76    0.13
  -2  -1  -1    1.57    0.11
  -2  -1  -1    1.40    0.11
  -2   1  -2  374.57   20.91
  -2   1  -2  365.99   20.89
   2  -1  -2  352.87   20.88
   2  -1  -2  361.96   20.90
  -2   1  -2  357.67   20.87
  -2  -1  -2  368.05   20.91
   2   1  -2  361.07   20.89
   2   1  -2  380.67   20.89
  -2  -1  -2  358.49   20.87
  -2  -1  -2  361.07   20.88
  -2   1  -3   36.90    2.16
   2  -1  -3   34.54    2.12
   2  -1  -3   35.78    2.15
  -2   1  -3   36.70    2.14
  -2  -1  -3   37.46    2.16
   2   1  -3   38.50    2.15
  -2  -1  -3   36.08    2.13
   2   1  -3   36.84    2.13
   2  -1  -4   27.57    1.64
  -2   1  -4   28.20    1.65
  -2   1  -4   28.18    1.69
   2  -1  -4   27.17    1.67
   2   1  -4   28.07    1.65
  -2  -1  -4   27.46    1.65
   2   1  -4   27.57    1.67
  -2  -1  -4   28.69    1.69
   2  -1  -5   23.34    1.44
  -2   1  -5   24.63    1.46
  -2   1  -5   24.65    1.50
   2  -1  -5   24.11    1.49
   2   1  -5   23.89    1.45
  -2  -1  -5   25.49    1.51
  -2  -1  -5   24.02    1.46
   2   1  -5   24.05    1.49
  -2   1  -6    0.46    0.16
   2  -1  -6    0.50    0.16
  -2   1  -6    0.48    0.14
   2  -1  -6    0.44    0.12
  -2  -1  -6    0.42    0.16
  -2  -1  -6    0.35    0.12
   2   1  -6    0.56    0.13
   2   1  -6    0.36    0.16
   2  -1  -7   19.96    1.18
   2  -1  -7   18.29    1.23
  -2   1  -7   18.61    1.24
  -2   1  -7   18.48    1.19
  -2  -1  -7   18.63    1.18
   2   1  -7   19.35    1.23
  -2  -1  -7   19.41    1.25
   2   1  -7   18.13    1.18
   2  -1  -8    0.42    0.23
  -2   1  -8    0.49    0.23
  -2   1  -8    0.45    0.17
   2  -1  -8    0.50    0.18
  -2  -1  -8    0.54    0.23
  -2  -1  -8    0.36    0.18
   2   1  -8    0.55    0.22
   2   1  -8    0.42    0.17
   2  -1  -9    7.84    0.66
   2  -1  -9    7.04    0.56
  -2   1  -9    7.07    0.60
  -2   1  -9    8.01    0.69
   2   1  -9    8.25    0.60
   2   1  -9    7.55    0.66
  -2  -1  -9    7.65    0.59
  -2  -1  -9    6.86    0.66
   2  -1 -10    0.18    0.23
   2  -1 -10   -0.03    0.20
  -2   1 -10    0.40    0.23
  -2   1 -10    0.07    0.27
   2   1 -10    0.02    0.24
  -2  -1 -10    0.05    0.25
   2   1 -10    0.09    0.18
  -2  -1 -10    0.05    0.19
   2  -1 -11    8.13    0.76
  -2   1 -11    7.98    0.77
  -2   1 -11    9.05    0.72
   2   1 -11    8.57    0.76
  -2  -1 -11    8.80    0.86
   2   1 -11    9.22    0.71
  -2  -1 -11    7.83    0.69
  -2   2   0  212.35   12.39
  -2  -2   0  218.96   12.40
  -2  -2   1    0.64    0.06
  -2   2  -1    0.64    0.07
  -2   2  -1    0.64    0.06
  -2   2  -1    0.65    0.08
   2   2  -1    0.64    0.07
  -2   2   1    0.68    0.05
  -2  -2  -1    0.90    0.07
  -2  -2  -1    0.70    0.08
   2   2  -1    0.65    0.06
  -2  -2  -1    0.65    0.07
  -2  -2   2  247.54   13.90
   2  -2  -2  233.97   13.91
   2  -2  -2  243.38   13.93
  -2   2  -2  243.73   13.92
  -2   2  -2  237.37   13.91
  -2   2  -2  244.99   13.94
  -2  -2  -2  236.77   13.91
   2   2  -2  246.39   13.93
  -2  -2  -2  238.94   13.91
  -2  -2  -2  247.73   13.94
   2   2  -2  247.51   13.92
   2  -2  -3   13.61    0.79
  -2   2  -3   14.30    0.82
   2  -2  -3   13.90    0.83
  -2   2  -3   13.16    0.83
   2   2  -3   13.05    0.82
  -2  -2  -3   12.71    0.83
   2   2  -3   12.42    0.81
  -2  -2  -3   13.73    0.80
  -2   2  -4    0.11    0.11
   2  -2  -4    0.24    0.07
  -2   2  -4    0.25    0.09
   2  -2  -4    0.32    0.11
   2   2  -4    0.15    0.09
  -2  -2  -4    0.27    0.08
   2   2  -4    0.07    0.08
  -2  -2  -4    0.21    0.11
  -2   2  -5    8.43    0.59
   2  -2  -5    8.50    0.58
   2  -2  -5    8.20    0.53
  -2   2  -5    8.60    0.56
   2   2  -5    8.19    0.58
  -2  -2  -5    8.36    0.54
   2   2  -5    8.52    0.56
  -2  -2  -5    7.23    0.58
  -2   2  -6    0.41    0.14
   2  -2  -6    0.36    0.11
   2  -2  -6    0.26    0.14
  -2   2  -6    0.33    0.16
   2   2  -6    0.09    0.14
   2   2  -6    0.20    0.12
  -2  -2  -6    0.37    0.16
  -2  -2  -6    0.34    0.12
   2  -2  -7    1.25    0.25
  -2   2  -7    1.84    0.24
   2  -2  -7    1.90    0.22
  -2   2  -7    1.48    0.26
   2   2  -7    1.73    0.22
  -2  -2  -7    1.93    0.23
  -2  -2  -7    1.20    0.27
   2   2  -7    1.76    0.27
  -2   2  -8    1.26    0.29
   2  -2  -8    1.45    0.28
  -2   2  -8    1.67    0.25
   2  -2  -8    1.22    0.20
  -2  -2  -8    1.61    0.24
  -2  -2  -8    1.48    0.29
   2   2  -8    1.56    0.28
   2   2  -8    1.48    0.23
  -2   2  -9    1.37    0.26
   2  -2  -9    1.82    0.35
  -2   2  -9    1.36    0.31
   2  -2  -9    1.37    0.24
   2   2  -9    1.39    0.26
  -2  -2  -9    1.51    0.35
  -2  -2  -9    1.64    0.26
   2   2  -9    1.67    0.31
   2  -2 -10    0.12    0.23
  -2   2 -10    0.19    0.24
  -2   2 -10   -0.12    0.22
   2   2 -10    0.09    0.21
  -2  -2 -10   -0.19    0.27
  -2  -2 -10    0.08    0.21
   2   2 -10    0.19    0.24
  -2   2 -11   -0.16    0.26
   2  -2 -11    0.09    0.30
  -2   2 -11   -0.30    0.20
   2   2 -11   -0.19    0.23
  -2  -2 -11    0.17    0.29
   2   2 -11    0.15    0.25
  -2  -3   0  190.68   10.91
  -2   3   0  189.52   10.90
  -2   3  -1    2.81    0.22
  -2   3  -1    2.65    0.19
  -2  -3   1    2.73    0.19
   2   3  -1    2.65    0.20
  -2  -3  -1    2.89    0.20
   2   3  -1    2.74    0.20
   2  -3  -2   26.76    1.56
  -2  -3   2   26.51    1.57
  -2   3  -2   26.94    1.58
  -2   3  -2   26.78    1.57
  -2   3  -2   27.57    1.60
  -2  -3  -2   27.11    1.57
  -2  -3  -2   27.57    1.60
   2   3  -2   26.17    1.58
  -2  -3  -2   27.14    1.57
   2   3  -2   27.01    1.58
  -2   3  -3    9.39    0.63
  -2   3  -3    9.85    0.61
   2  -3  -3    9.52    0.58
  -2  -3   3    9.38    0.57
   2  -3  -3    9.86    0.62
  -2   3  -3    9.90    0.57
  -2  -3  -3    9.50    0.63
   2   3  -3   10.45    0.61
  -2  -3  -3   10.13    0.58
   2   3  -3    9.65    0.61
  -2  -3  -3    8.88    0.59
  -2   3  -4   37.13    2.09
  -2  -3   4   35.17    2.04
   2  -3  -4   35.24    2.11
   2  -3  -4   35.85    2.06
  -2   3  -4   35.31    2.12
   2   3  -4   35.07    2.08
  -2  -3  -4   35.57    2.07
   2   3  -4   33.49    2.10
   2  -3  -5    2.70    0.23
   2  -3  -5    2.38    0.28
  -2   3  -5    2.60    0.29
  -2   3  -5    3.24    0.28
  -2  -3   5    2.68    0.18
  -2  -3  -5    2.84    0.24
  -2  -3  -5    2.99    0.31
   2   3  -5    2.47    0.25
   2   3  -5    2.96    0.29
   2  -3  -6    9.95    0.67
  -2   3  -6    9.31    0.67
   2  -3  -6    8.68    0.60
  -2   3  -6    9.31    0.64
  -2  -3  -6    8.76    0.61
   2   3  -6    9.23    0.66
   2   3  -6    9.46    0.63
  -2  -3  -6    9.88    0.69
   2  -3  -7    0.08    0.16
   2  -3  -7    0.04    0.11
  -2   3  -7   -0.20    0.15
  -2   3  -7    0.03    0.14
   2   3  -7    0.04    0.13
   2   3  -7    0.20    0.15
  -2  -3  -7   -0.11    0.12
  -2  -3  -7   -0.19    0.15
   2  -3  -8   11.60    0.76
   2  -3  -8   11.49    0.84
  -2   3  -8   10.08    0.78
  -2   3  -8   12.04    0.86
  -2  -3  -8   11.41    0.77
   2   3  -8   11.07    0.78
  -2  -3  -8   11.77    0.86
   2   3  -8   11.46    0.84
   2  -3  -9   25.51    1.65
  -2   3  -9   26.06    1.66
  -2   3  -9   23.28    1.58
  -2  -3  -9   24.10    1.56
   2   3  -9   25.03    1.64
   2   3  -9   25.36    1.59
  -2  -3  -9   26.24    1.67
   2  -3 -10    1.04    0.32
  -2   3 -10    0.80    0.25
  -2   3 -10    0.29    0.29
  -2  -3 -10    0.47    0.28
   2   3 -10    0.68    0.30
   2   3 -10    0.75    0.24
  -2   3 -11    4.76    0.54
  -2   3 -11    6.25    0.69
   2  -3 -11    6.62    0.69
  -2  -3 -11    5.02    0.63
   2   3 -11    4.78    0.53
   2   3 -11    6.42    0.65
  -2   4   0  383.97   22.32
  -2  -4   0  395.19   22.34
  -2  -4   1   20.42    1.14
  -2   4  -1   18.92    1.18
  -2   4  -1   19.56    1.14
   2   4  -1   17.96    1.16
   2   4  -1   19.04    1.14
  -2  -4  -1   19.50    1.15
   2  -4  -2   48.11    2.78
  -2   4  -2   47.18    2.83
  -2  -4   2   48.95    2.80
  -2   4  -2   47.79    2.81
  -2   4  -2   47.39    2.80
  -2  -4  -2   49.67    2.81
  -2  -4  -2   52.56    2.83
   2  -4   2   49.06    2.81
   2   4  -2   46.91    2.81
  -2  -4  -2   46.93    2.79
   2   4  -2   47.93    2.82
   2  -4  -3    1.67    0.12
  -2   4  -3    1.49    0.18
  -2   4  -3    1.64    0.12
  -2  -4   3    1.54    0.13
  -2   4  -3    1.22    0.15
  -2  -4  -3    1.60    0.19
   2   4  -3    1.40    0.15
   2   4  -3    1.45    0.09
  -2  -4  -3    1.33    0.13
   2   4  -3    1.39    0.16
  -2  -4  -3    1.85    0.14
   2  -4   3    1.48    0.14
   2  -4  -4    5.49    0.41
  -2   4  -4    5.00    0.41
   2  -4  -4    5.46    0.35
  -2   4  -4    5.77    0.39
  -2  -4   4    5.27    0.34
   2   4  -4    5.49    0.38
   2   4  -4    5.13    0.39
  -2  -4  -4    5.53    0.42
   2  -4   4    5.20    0.35
  -2  -4  -4    5.26    0.36
  -2  -4   5    4.43    0.28
  -2   4  -5    4.51    0.37
  -2   4  -5    4.68    0.36
   2  -4  -5    4.44    0.31
   2  -4  -5    4.52    0.37
   2   4  -5    4.16    0.35
  -2  -4  -5    3.88    0.37
   2   4  -5    4.51    0.34
  -2  -4  -5    3.90    0.31
   2  -4  -6    4.40    0.40
   2  -4  -6    4.29    0.32
  -2   4  -6    4.38    0.37
  -2   4  -6    4.65    0.41
   2   4  -6    4.57    0.37
  -2  -4  -6    3.79    0.41
   2   4  -6    4.23    0.38
  -2  -4  -6    4.25    0.33
   2  -4  -7   18.91    1.25
  -2   4  -7   17.90    1.21
  -2   4  -7   19.57    1.27
   2  -4  -7   19.29    1.17
   2   4  -7   19.10    1.25
   2   4  -7   19.03    1.21
  -2  -4  -7   20.97    1.29
  -2  -4  -7   18.58    1.19
   2  -4  -8    1.27    0.24
  -2   4  -8    1.97    0.27
  -2   4  -8    1.31    0.28
   2  -4  -8    1.63    0.30
   2   4  -8    1.66    0.30
  -2  -4  -8    1.67    0.32
   2   4  -8    1.31    0.24
  -2  -4  -8    2.08    0.25
  -2   4  -9    0.84    0.29
   2  -4  -9    1.14    0.30
  -2   4  -9    1.19    0.27
  -2  -4  -9    0.97    0.30
   2   4  -9    1.28    0.29
   2   4  -9    0.62    0.23
  -2  -4  -9    0.49    0.20
  -2   4 -10    0.00    0.22
   2  -4 -10    0.11    0.24
  -2   4 -10    0.00    0.20
   2   4 -10    0.15    0.20
   2   4 -10    0.07    0.21
  -2  -4 -10    0.09    0.26
  -2   4 -11   11.36    0.86
   2  -4 -11   10.25    0.91
  -2   4 -11   10.91    0.94
   2   4 -11   13.09    0.88
   2   4 -11   10.14    0.89
  -2  -4 -11   10.51    0.92
  -2  -5   0  119.37    6.81
  -2   5   0  116.35    6.79
   2   5   0  118.77    6.92
  -2   5  -1    8.37    0.58
  -2  -5   1    8.38    0.53
  -2   5  -1    8.39    0.52
   2  -5   1    9.05    0.54
  -2  -5  -1    8.72    0.54
   2   5  -1    8.01    0.57
   2   5  -1    8.91    0.53
   2  -5  -2   43.17    2.48
  -2   5  -2   43.32    2.52
  -2  -5   2   45.52    2.52
  -2   5  -2   41.43    2.55
   2   5  -2   43.62    2.52
   2  -5   2   44.65    2.52
  -2  -5  -2   43.38    2.52
   2   5  -2   40.81    2.53
  -2  -5  -2   42.95    2.50
  -2  -5   3    6.22    0.43
  -2   5  -3    6.34    0.42
  -2   5  -3    6.62    0.45
   2  -5  -3    6.92    0.41
  -2   5  -3    6.44    0.47
  -2  -5  -3    7.07    0.44
   2  -5   3    7.15    0.44
   2   5  -3    6.80    0.46
  -2  -5  -3    7.29    0.48
   2   5  -3    6.28    0.45
  -2  -5  -3    7.25    0.43
  -2  -5   4   19.76    1.20
  -2   5  -4   21.30    1.27
  -2   5  -4   21.14    1.18
  -2   5  -4   20.18    1.24
   2  -5  -4   20.27    1.20
  -2  -5  -4   19.75    1.21
  -2  -5  -4   20.17    1.27
   2   5  -4   20.00    1.25
   2   5  -4   21.07    1.24
   2  -5   4   19.65    1.21
  -2   5  -5    0.34    0.14
  -2  -5   5    0.19    0.08
   2  -5  -5    0.22    0.08
   2  -5  -5    0.39    0.15
  -2   5  -5    0.15    0.11
   2   5  -5    0.12    0.11
  -2  -5  -5    0.17    0.13
  -2  -5  -5    0.17    0.10
   2   5  -5    0.32    0.13
  -2   5  -6   10.22    0.70
   2  -5  -6   10.07    0.64
  -2   5  -6   10.25    0.74
   2  -5  -6   10.27    0.73
   2   5  -6   10.18    0.71
  -2  -5  -6   10.65    0.66
   2   5  -6    9.88    0.69
  -2  -5  -6    9.66    0.73
   2  -5  -7   14.02    0.97
   2  -5  -7   13.21    0.88
  -2   5  -7   15.40    0.95
  -2   5  -7   13.64    0.97
   2   5  -7   13.77    0.96
  -2  -5  -7   13.75    0.90
  -2  -5  -7   14.18    0.98
   2   5  -7   15.02    0.94
   2  -5  -8    2.33    0.35
  -2   5  -8    2.47    0.32
  -2   5  -8    2.58    0.36
   2   5  -8    2.50    0.31
   2   5  -8    2.28    0.34
  -2  -5  -8    2.35    0.36
  -2  -5  -8    3.16    0.30
  -2   5  -9    0.01    0.18
  -2   5  -9    0.36    0.22
   2  -5  -9    0.31    0.26
   2   5  -9    0.05    0.21
   2   5  -9    0.16    0.21
  -2  -5  -9    0.01    0.25
   2  -5 -10    2.99    0.46
  -2   5 -10    3.51    0.48
  -2   5 -10    3.91    0.45
   2   5 -10    2.95    0.41
   2   5 -10    3.88    0.49
  -2  -5 -10    3.32    0.50
  -2   5 -11    0.15    0.28
  -2   5 -11   -0.14    0.23
   2  -5 -11    0.09    0.29
  -2  -5 -11    0.01    0.33
   2   5 -11    0.08    0.23
   2   6   0  342.38   21.10
  -2  -6   0  380.48   20.98
  -2   6   0  372.21   20.95
  -2   6  -1    0.29    0.07
  -2  -6   1    0.43    0.09
  -2   6  -1    0.39    0.12
   2   6  -1    0.18    0.10
  -2  -6  -1    0.42    0.09
   2  -6   1    0.40    0.09
   2   6  -1    0.42    0.07
  -2   6  -2   33.71    1.99
  -2   6  -2   33.08    2.03
  -2  -6   2   35.74    2.00
   2  -6  -2   33.23    1.95
   2   6  -2   34.69    2.02
  -2  -6  -2   33.32    2.00
  -2  -6  -2   33.02    1.98
   2  -6   2   34.39    2.00
   2   6  -2   34.91    2.00
  -2   6  -3   40.52    2.36
  -2  -6   3   39.07    2.32
   2  -6  -3   38.70    2.28
  -2   6  -3   38.42    2.31
  -2   6  -3   40.82    2.33
  -2  -6  -3   40.35    2.32
   2  -6   3   39.21    2.32
   2   6  -3   39.92    2.33
   2   6  -3   40.12    2.34
  -2  -6  -3   39.40    2.30
  -2   6  -4   17.38    1.14
   2  -6  -4   17.52    1.06
  -2   6  -4   18.16    1.06
  -2   6  -4   17.28    1.11
  -2  -6   4   18.01    1.09
   2   6  -4   18.37    1.11
   2  -6   4   18.63    1.09
   2   6  -4   18.45    1.13
  -2  -6  -4   18.37    1.08
   2   6  -4   17.83    1.04
  -2  -6  -4   18.68    1.15
  -2   6  -5   -0.06    0.12
  -2   6  -5    0.13    0.12
   2  -6  -5    0.09    0.07
  -2  -6   5    0.04    0.08
   2   6  -5   -0.01    0.11
  -2  -6  -5    0.09    0.08
   2   6  -5   -0.05    0.09
  -2  -6  -5   -0.02    0.13
  -2   6  -6    2.32    0.29
  -2   6  -6    1.60    0.23
   2  -6  -6    1.65    0.17
  -2  -6  -6    1.77    0.27
  -2  -6  -6    1.80    0.19
   2   6  -6    1.65    0.25
   2   6  -6    1.34    0.22
  -2   6  -7    6.61    0.55
   2  -6  -7    7.06    0.57
  -2   6  -7    6.74    0.51
  -2  -6  -7    6.60    0.56
   2   6  -7    6.04    0.52
   2   6  -7    5.94    0.51
  -2  -6  -7    5.43    0.45
   2  -6  -8    0.17    0.20
  -2   6  -8    0.28    0.20
  -2   6  -8    0.23    0.20
  -2  -6  -8    0.10    0.21
   2   6  -8    0.00    0.18
   2   6  -8   -0.10    0.16
  -2   6  -9    2.41    0.36
  -2   6  -9    3.91    0.49
   2  -6  -9    3.78    0.48
   2   6  -9    3.31    0.42
   2   6  -9    2.82    0.37
  -2  -6  -9    2.74    0.43
  -2   6 -10    0.30    0.29
  -2   6 -10    0.12    0.23
   2  -6 -10   -0.05    0.28
   2   6 -10    0.07    0.26
   2   6 -10   -0.06    0.20
  -2  -6 -10   -0.06    0.30
   2   7   0    3.24    0.42
  -2  -7   0    3.50    0.27
  -2   7   0    2.94    0.41
  -2   7   0    3.47    0.23
  -2   7  -1    0.82    0.11
  -2  -7   1    0.94    0.13
  -2   7  -1    0.92    0.19
   2  -7   1    1.07    0.14
  -2   7   1    1.40    0.31
   2   7  -1    1.10    0.12
  -2  -7  -1    0.99    0.13
   2   7  -1    0.89    0.19
  -2  -7   2   23.24    1.36
  -2   7  -2   22.62    1.35
  -2   7  -2   22.20    1.40
   2  -7  -2   22.00    1.30
   2  -7   2   22.69    1.36
   2   7  -2   24.49    1.40
  -2  -7  -2   22.50    1.36
   2   7  -2   21.67    1.35
   2  -7  -3   33.00    1.92
  -2   7  -3   35.62    2.02
  -2   7  -3   33.20    1.98
  -2   7  -3   32.85    1.96
  -2  -7   3   31.82    1.97
   2   7  -3   34.13    2.00
  -2  -7  -3   33.56    1.97
  -2  -7  -3   32.39    1.94
   2  -7   3   33.25    1.97
   2   7  -3   34.59    1.98
  -2  -7   4    0.27    0.10
  -2   7  -4    0.18    0.13
  -2   7  -4    0.25    0.12
  -2   7  -4    0.24    0.07
   2  -7  -4    0.20    0.06
   2  -7   4    0.32    0.10
   2   7  -4    0.33    0.12
   2   7  -4    0.25    0.11
   2   7  -4    0.17    0.05
  -2  -7  -4    0.16    0.08
  -2   7  -5    1.92    0.27
  -2  -7   5    2.62    0.23
  -2   7  -5    2.41    0.26
   2  -7  -5    2.23    0.18
   2  -7   5    1.93    0.21
  -2  -7  -5    2.65    0.21
   2   7  -5    1.82    0.24
   2   7  -5    2.47    0.28
  -2   7  -6    1.86    0.29
  -2   7  -6    1.79    0.25
   2   7  -6    2.01    0.26
   2   7  -6    2.13    0.27
  -2  -7  -6    1.90    0.20
  -2  -7  -6    2.19    0.30
  -2   7  -7    8.52    0.64
  -2   7  -7    8.34    0.67
   2   7  -7    8.28    0.64
  -2  -7  -7    8.50    0.68
   2   7  -7    8.84    0.66
  -2   7  -8    8.75    0.72
  -2   7  -8    6.76    0.64
   2   7  -8    9.60    0.68
   2   7  -8    8.61    0.69
  -2  -7  -8    9.03    0.74
  -2   7  -9   15.18    1.13
  -2   7  -9   15.07    1.06
   2   7  -9   15.90    1.11
  -2  -7  -9   14.81    1.12
   2   7  -9   15.69    1.07
  -2   7 -10    3.47    0.45
  -2   7 -10    3.53    0.50
  -2  -7 -10    4.00    0.54
   2   7 -10    3.51    0.48
   2   7 -10    3.32    0.43
   2   8   0  205.20   13.07
  -2   8   0  204.48   13.08
  -2  -8   0  243.72   12.93
  -2   8   0  239.85   12.89
  -2   8  -1   28.95    1.83
  -2  -8   1   30.51    1.72
  -2   8  -1   30.17    1.70
   2   8  -1   26.32    1.81
  -2  -8  -1   29.50    1.72
  -2   8   1   26.98    1.94
   2  -8   1   27.74    1.72
  -2  -8   2  106.78    6.11
  -2   8  -2  108.48    6.17
  -2   8  -2  103.25    6.10
  -2  -8  -2  105.68    6.11
   2   8  -2  104.01    6.15
   2  -8   2  104.20    6.11
   2   8  -2  106.26    6.10
  -2   8  -3   55.53    3.21
   2  -8  -3   53.72    3.15
  -2   8  -3   55.17    3.26
  -2  -8   3   55.73    3.21
   2  -8   3   53.55    3.21
   2   8  -3   52.74    3.21
  -2  -8  -3   53.69    3.17
   2   8  -3   54.98    3.24
  -2  -8  -3   58.62    3.21
  -2   8  -4   75.00    4.23
  -2   8  -4   74.76    4.19
   2  -8  -4   63.73    4.12
  -2   8  -4   72.99    4.15
  -2  -8   4   71.11    4.17
   2   8  -4   72.63    4.21
   2   8  -4   72.11    4.19
   2  -8   4   70.56    4.17
  -2  -8  -4   72.97    4.14
  -2   8  -5    0.20    0.13
  -2  -8   5    0.24    0.10
  -2   8  -5    0.26    0.15
   2  -8   5    0.14    0.11
  -2  -8  -5    0.18    0.08
   2   8  -5    0.10    0.13
   2   8  -5    0.26    0.14
  -2   8  -6    7.35    0.59
  -2   8  -6    8.11    0.64
   2   8  -6    8.11    0.60
   2   8  -6    8.95    0.62
  -2   8  -7    8.13    0.66
  -2   8  -7    6.89    0.59
   2   8  -7    7.73    0.63
   2   8  -7    8.70    0.61
  -2   8  -8   17.26    1.19
  -2   8  -8   17.72    1.15
   2   8  -8   17.37    1.15
   2   8  -8   15.71    1.16
  -2   8  -9    4.71    0.54
  -2   8  -9    5.05    0.51
   2   8  -9    4.62    0.54
   2   8  -9    4.14    0.47
  -2   8 -10    0.57    0.31
  -2   8 -10    0.57    0.26
   2   8 -10    0.44    0.26
  -2  -9   0   48.33    2.63
  -2   9   0   45.86    2.58
  -2   9   0   42.93    2.82
   2   9   0   38.14    2.78
  -2   9  -1    3.54    0.26
  -2   9  -1    3.46    0.43
  -2  -9   1    3.94    0.30
   2   9  -1    3.85    0.44
  -2   9   1    3.45    0.54
  -2  -9  -1    3.18    0.29
   2  -9   1    3.34    0.30
  -2   9  -2   42.54    2.59
  -2  -9   2   44.45    2.61
  -2   9  -2   44.97    2.68
   2   9  -2   47.06    2.67
   2  -9   2   43.08    2.61
  -2  -9  -2   42.88    2.61
   2   9  -2   44.62    2.59
  -2   9  -3   29.39    1.79
  -2  -9   3   29.36    1.74
  -2   9  -3   29.10    1.74
   2  -9  -3   26.04    1.67
   2   9  -3   31.07    1.78
  -2  -9  -3   28.65    1.70
   2   9  -3   28.82    1.74
  -2  -9  -3   31.10    1.74
   2  -9   3   29.10    1.74
  -2   9  -4    1.21    0.18
  -2   9  -4    1.07    0.21
  -2  -9   4    0.85    0.15
  -2   9  -4    1.13    0.14
  -2  -9  -4    1.07    0.12
   2   9  -4    1.16    0.19
   2   9  -4    1.31    0.18
   2  -9   4    0.89    0.15
  -2  -9   5   16.83    1.07
  -2   9  -5   18.02    1.10
  -2   9  -5   17.08    1.14
   2  -9   5   16.78    1.07
   2   9  -5   17.39    1.12
   2   9  -5   17.22    1.10
  -2   9  -6    4.06    0.41
  -2  -9   6    4.26    0.42
  -2   9  -6    4.49    0.47
   2   9  -6    4.53    0.43
   2   9  -6    4.86    0.43
  -2   9  -7   19.05    1.34
  -2   9  -7   21.69    1.31
   2   9  -7   20.08    1.29
   2   9  -7   19.43    1.31
  -2   9  -8    0.04    0.22
  -2   9  -8    0.11    0.20
   2   9  -8    0.07    0.20
   2   9  -8    0.31    0.20
  -2   9  -9   17.03    1.28
  -2   9  -9   19.40    1.25
   2   9  -9   18.44    1.27
   2   9  -9   17.35    1.22
  -2   9 -10    2.01    0.35
  -2   9 -10    2.11    0.42
   2   9 -10    1.25    0.32
  -2  10   0  166.74    9.83
  -2  10   0  166.04    9.55
  -2 -10   0  181.40    9.61
   2  10   0  147.89    9.78
  -2  10  -1   29.07    1.79
  -2  10  -1   30.78    1.97
  -2 -10   1   30.60    1.83
   2  10   1   33.53    2.11
  -2  10   1   26.21    2.08
   2 -10   1   30.11    1.83
   2  10  -1   33.36    1.99
  -2 -10  -1   30.34    1.83
  -2 -10   2   30.79    1.86
  -2  10  -2   29.14    1.93
  -2  10  -2   30.74    1.84
  -2 -10  -2   32.21    1.86
   2  10  -2   33.24    1.94
   2 -10   2   29.81    1.86
   2  10  -2   30.53    1.84
  -2  10  -3    0.82    0.16
  -2  10  -3    0.92    0.19
  -2 -10   3    1.02    0.16
   2 -10   3    0.80    0.15
   2  10  -3    0.55    0.14
   2  10  -3    0.92    0.18
  -2 -10  -3    0.70    0.14
  -2 -10  -3    0.95    0.11
  -2 -10   4    6.81    0.51
  -2  10  -4    7.25    0.48
  -2  10  -4    6.95    0.55
  -2  10  -4    7.37    0.53
   2 -10   4    6.95    0.51
   2  10  -4    7.06    0.54
   2  10  -4    7.14    0.52
  -2  10  -5    5.28    0.43
  -2 -10   5    5.03    0.39
  -2  10  -5    4.57    0.44
   2  10  -5    4.48    0.43
   2  10  -5    4.85    0.41
  -2  10  -6    0.12    0.17
  -2  10  -6   -0.11    0.17
  -2 -10   6    0.21    0.14
   2  10  -6    0.08    0.17
   2  10  -6    0.14    0.16
  -2  10  -7   -0.09    0.18
  -2  10  -7    0.13    0.20
   2  10  -7   -0.23    0.17
   2  10  -7    0.04    0.17
  -2  10  -8    0.24    0.21
  -2  10  -8   -0.03    0.19
   2  10  -8   -0.09    0.20
   2  10  -8   -0.16    0.18
  -2  10  -9    0.65    0.31
  -2  10  -9    0.75    0.26
   2  10  -9    0.56    0.27
  -2  10 -10    0.14    0.27
  -2  11   0   33.17    2.29
   2  11   0   30.44    2.26
  -2 -11   0   37.29    2.07
  -2 -11   1    5.15    0.39
  -2  11  -1    6.09    0.62
   2  11   1    4.24    0.63
  -2  11  -1    4.45    0.34
   2 -11   1    4.41    0.38
  -2 -11  -1    5.38    0.39
  -2  11   1    3.44    0.60
   2  11  -1    4.46    0.54
  -2  11  -2    2.10    0.31
  -2 -11   2    1.90    0.23
  -2  11  -2    1.79    0.20
   2 -11   2    1.46    0.21
  -2 -11  -2    1.80    0.23
   2  11  -2    2.04    0.21
  -2  11   2    1.83    0.44
   2  11  -2    1.56    0.27
  -2  11  -3    1.13    0.19
  -2 -11   3    1.37    0.20
  -2  11  -3    1.35    0.25
   2  11  -3    1.66    0.25
  -2 -11  -3    1.42    0.19
   2 -11   3    1.53    0.21
   2  11  -3    1.48    0.21
  -2  11  -4    8.99    0.66
  -2 -11   4    9.76    0.66
  -2  11  -4    9.16    0.72
  -2  11  -4   10.45    0.64
   2  11  -4    9.80    0.71
   2 -11   4    9.22    0.66
   2  11  -4   10.11    0.68
  -2  11  -5    9.02    0.66
  -2  11  -5    8.98    0.69
  -2 -11   5    8.88    0.63
   2  11  -5    9.19    0.67
   2  11  -5    8.86    0.65
  -2  11  -6    0.78    0.22
  -2 -11   6    1.20    0.22
  -2  11  -6    1.32    0.26
   2  11  -6    1.47    0.24
   2  11  -6    1.24    0.26
  -2  11  -7   41.00    2.49
  -2  11  -7   40.26    2.54
   2  11  -7   41.57    2.53
   2  11  -7   40.03    2.49
  -2  11  -8   -0.01    0.20
  -2  11  -8    0.25    0.24
   2  11  -8    0.49    0.24
   2  11  -8    0.29    0.23
  -2  11  -9   34.35    2.29
  -2  11  -9   34.72    2.22
   2  11  -9   37.02    2.23
   2  12   0  117.83    7.66
  -2  12   0  131.79    7.71
  -2 -12   0  133.01    7.44
  -2 -12   1    1.19    0.21
  -2  12  -1    1.01    0.15
  -2  12  -1    1.33    0.31
   2  12   1    0.64    0.35
  -2  12   1    0.93    0.35
  -2 -12  -1    0.92    0.18
   2  12  -1    1.04    0.30
  -2 -12   2   22.31    1.44
  -2  12  -2   25.81    1.57
  -2  12  -2   22.91    1.40
  -2  12   2   23.61    1.79
   2  12  -2   23.95    1.53
   2 -12   2   21.91    1.43
  -2 -12  -2   22.55    1.43
  -2 -12   3   13.13    0.88
  -2  12  -3   14.18    0.96
  -2  12  -3   12.71    0.85
   2  12  -3   12.54    0.92
   2  12  -3   14.17    0.87
   2 -12   3   12.82    0.88
  -2 -12  -3   13.58    0.87
  -2  12  -4    2.18    0.26
  -2  12  -4    1.93    0.31
  -2 -12   4    2.59    0.29
   2  12  -4    2.42    0.32
   2  12  -4    2.05    0.26
  -2 -12   5    0.28    0.16
  -2  12  -5    0.11    0.18
  -2  12  -5    0.24    0.18
   2  12  -5    0.07    0.18
   2  12  -5    0.40    0.17
  -2 -12   6    2.17    0.28
  -2  12  -6    2.20    0.35
  -2  12  -6    2.09    0.30
   2  12  -6    1.31    0.27
   2  12  -6    2.30    0.34
  -2  12  -7    9.86    0.77
  -2  12  -7   11.42    0.86
   2  12  -7   10.27    0.77
   2  12  -7   10.05    0.81
  -2  12  -8    0.91    0.27
  -2  12  -8    1.47    0.33
   2  12  -8    1.10    0.28
  -2  12  -9    2.96    0.47
  -2  12  -9    2.39    0.39
   2  12  -9    2.47    0.38
  -2 -13   0    5.27    0.45
   2  13   0    5.19    0.73
  -2  13   0    5.65    0.74
  -2 -13   1   -0.09    0.13
  -2  13  -1   -0.08    0.18
  -2  13  -1    0.00    0.09
   2  13   1    0.21    0.27
   2  13  -1    0.08    0.19
  -2  13   1   -0.05    0.24
  -2 -13  -1    0.07    0.14
  -2  13  -2    8.92    0.62
  -2 -13   2    9.11    0.67
  -2  13  -2   10.19    0.78
  -2 -13  -2    8.69    0.65
   2  13  -2    9.60    0.75
  -2  13   2    8.31    1.07
  -2  13  -3    0.70    0.22
  -2  13  -3    0.72    0.16
  -2 -13   3    0.37    0.16
   2  13  -3    0.48    0.21
  -2 -13  -3    0.57    0.18
   2  13  -3    0.60    0.17
  -2  13  -4   21.55    1.46
  -2 -13   4   22.27    1.39
  -2  13  -4   21.72    1.38
   2  13  -4   22.87    1.44
   2  13  -4   21.04    1.37
  -2 -13   5   11.02    0.82
  -2  13  -5   11.32    0.81
  -2  13  -5   12.33    0.89
   2  13  -5   11.49    0.81
   2  13  -5   12.57    0.87
  -2 -13   6   15.83    1.04
  -2  13  -6   16.05    1.06
  -2  13  -6   16.31    1.12
   2  13  -6   13.47    1.03
   2  13  -6   15.76    1.09
  -2  13  -7    8.60    0.76
  -2  13  -7    8.68    0.71
   2  13  -7   10.01    0.77
   2  13  -7    9.86    0.75
  -2  13  -8    2.16    0.34
  -2  13  -8    1.60    0.36
   2  13  -8    1.52    0.32
  -2  13  -9    2.94    0.48
  -2  14   0    1.95    0.48
  -2 -14   0    1.42    0.25
   2  14   0    2.03    0.49
  -2 -14   1    2.49    0.31
   2  14   1    1.98    0.54
  -2  14  -1    2.87    0.51
  -2 -14  -1    2.02    0.29
   2  14  -1    3.09    0.55
  -2  14   1    2.00    0.56
  -2 -14   2    0.00    0.17
   2  14   2    0.09    0.32
  -2  14  -2    0.12    0.12
  -2  14  -2    0.16    0.21
   2  14  -2    0.48    0.24
  -2 -14  -2    0.30    0.16
  -2  14   2    0.47    0.39
  -2  14  -3    1.98    0.27
  -2 -14   3    1.84    0.28
  -2  14  -3    2.32    0.38
   2  14  -3    2.41    0.36
  -2  14   3    1.49    0.52
   2  14  -3    2.07    0.25
  -2 -14   4    1.52    0.27
  -2  14  -4    2.30    0.36
  -2  14  -4    2.42    0.29
   2  14  -4    1.25    0.27
   2  14  -4    2.21    0.27
  -2 -14   5    3.37    0.39
  -2  14  -5    3.41    0.37
  -2  14  -5    3.53    0.44
   2  14  -5    3.66    0.44
   2  14  -5    2.49    0.34
  -2 -14   6   -0.13    0.19
  -2  14  -6   -0.13    0.18
  -2  14  -6    0.27    0.21
   2  14  -6    0.56    0.22
   2  14  -6    0.33    0.22
  -2  14  -7    4.59    0.47
  -2  14  -7    4.34    0.54
   2  14  -7    3.22    0.42
  -2  14  -8    0.08    0.24
  -2  14  -8   -0.10    0.25
   2  14  -8    0.18    0.24
  -2 -15   0   12.98    0.96
   2  15   0   15.08    1.26
  -2  15   0   17.56    1.34
  -2  15  -1    1.09    0.37
  -2 -15   1    1.20    0.25
   2  15   1    1.00    0.46
  -2  15   1    0.47    0.38
   2  15  -1    1.05    0.35
  -2 -15  -1    1.26    0.24
  -2 -15   2   11.01    0.79
  -2  15  -2   10.65    0.73
  -2  15  -2   12.50    0.95
   2  15   2    9.18    1.20
  -2 -15  -2   11.81    0.80
  -2  15   2    7.93    1.17
   2  15  -2   11.52    0.91
  -2 -15   3   -0.09    0.18
  -2  15  -3    0.44    0.22
  -2  15  -3    0.17    0.15
  -2  15   3    0.61    0.43
   2  15  -3    0.12    0.17
  -2  15  -4    8.38    0.70
  -2  15  -4    8.22    0.62
  -2 -15   4    7.83    0.64
   2  15  -4    6.95    0.67
   2  15  -4    8.05    0.60
  -2  15  -5    1.36    0.32
  -2 -15   5    1.13    0.28
  -2  15  -5    1.05    0.25
   2  15  -5    0.94    0.26
   2  15  -5    0.85    0.24
  -2  15  -6   13.06    1.01
  -2  15  -6   12.05    0.94
  -2 -15   6   13.63    0.94
   2  15  -6   13.57    1.00
   2  15  -6   13.55    0.95
  -2  15  -7    0.25    0.25
  -2  15  -7    0.21    0.24
   2  15  -7    0.04    0.24
  -2  15  -8    0.72    0.32
  -2  15  -8    0.49    0.31
   2  15  -8    0.55    0.29
   2  16   0   -0.26    0.28
  -2 -16   0    0.11    0.19
  -2  16   0    0.29    0.33
  -2  16  -1    0.52    0.34
   2  16   1   -0.09    0.32
  -2 -16   1    0.20    0.18
  -2  16   1    0.03    0.34
   2  16  -1    0.00    0.25
  -2 -16  -1    0.13    0.17
   2  16   2    1.41    0.51
  -2 -16   2    2.38    0.34
  -2  16  -2    2.89    0.49
  -2  16   2    2.28    0.64
   2  16  -2    2.23    0.44
  -2 -16  -2    2.04    0.30
  -2  16  -3    4.47    0.41
  -2 -16   3    4.58    0.47
  -2  16  -3    4.38    0.57
   2  16   3    4.06    0.82
  -2  16   3    3.88    0.80
   2  16  -3    4.28    0.54
  -2  16  -4    4.54    0.55
  -2 -16   4    4.20    0.46
  -2  16  -4    4.60    0.43
  -2  16   4    4.22    0.86
   2  16  -4    3.89    0.50
  -2  16  -5    8.64    0.69
  -2 -16   5    8.77    0.68
  -2  16  -5    8.89    0.76
   2  16  -5    8.42    0.73
   2  16  -5    8.03    0.66
  -2 -16   6    0.09    0.22
  -2  16  -6    0.19    0.22
  -2  16  -6    0.14    0.27
   2  16  -6    0.29    0.23
  -2  16  -7    1.47    0.38
  -2  16  -7    1.60    0.34
   2  16  -7    1.42    0.31
  -2  17   0    1.33    0.48
  -2 -17   0    1.88    0.30
   2  17   0    2.24    0.53
   2  17   1    3.68    0.71
  -2  17  -1    4.66    0.68
  -2 -17   1    2.91    0.39
  -2  17   1    3.80    0.76
  -2 -17  -1    4.05    0.43
   2  17  -1    4.54    0.66
  -2  17  -2    1.02    0.35
   2  17   2    1.15    0.55
  -2 -17   2    1.24    0.28
  -2  17   2    0.99    0.49
   2  17  -2    0.92    0.33
  -2 -17   3    3.43    0.42
  -2  17  -3    3.11    0.47
   2  17   3    3.05    0.74
  -2  17  -3    3.02    0.49
   2  17  -3    3.83    0.51
  -2  17   3    2.75    0.71
  -2 -17   4    0.75    0.27
  -2  17  -4    0.91    0.32
  -2  17  -4    1.25    0.24
   2  17  -4    0.60    0.27
  -2  17   4    0.85    0.50
  -2  17  -5    0.57    0.26
  -2  17  -5    0.84    0.25
  -2 -17   5    0.31    0.25
   2  17  -5    0.67    0.28
   2  17  -5    0.49    0.23
  -2 -17   6    2.25    0.37
  -2  17  -6    1.89    0.35
  -2  17  -6    1.73    0.38
   2  17  -6    1.93    0.32
  -2 -18   0   22.82    1.60
   2  18   0   26.52    1.94
  -2  18   0   27.86    2.01
  -2  18  -1    0.36    0.35
  -2 -18   1    0.09    0.21
   2  18   1    0.18    0.43
  -2  18   1    0.19    0.40
   2  18  -1   -0.23    0.24
  -2 -18   2   15.89    1.12
   2  18   2   11.60    1.55
  -2  18  -2   18.58    1.33
  -2  18   2   13.85    1.67
   2  18  -2   17.81    1.28
  -2 -18   3    0.58    0.23
  -2  18  -3    0.21    0.26
   2  18   3    0.19    0.43
   2  18  -3    0.31    0.28
  -2  18   3    0.57    0.46
   2  18   4    0.43    0.44
  -2  18  -4    0.28    0.29
  -2 -18   4    0.38    0.22
   2  18  -4    0.07    0.22
  -2  18   4    0.06    0.41
  -2  18  -5    4.25    0.60
  -2  18  -5    4.13    0.48
  -2 -18   5    5.60    0.56
  -2  18   5    4.57    0.88
  -2  18  -6    2.00    0.44
  -2  18  -6    2.12    0.35
  -2 -18   6    1.84    0.37
   2  18  -6    1.23    0.31
  -2  19   0    0.97    0.46
   2  19   0    0.92    0.47
  -2 -19   1    0.01    0.21
   2  19   1   -0.13    0.35
  -2  19  -1    0.30    0.33
   2  19  -1    0.56    0.39
  -2  19   1    0.17    0.39
   2  19   2    0.20    0.41
  -2  19  -2    0.07    0.28
  -2 -19   2    0.18    0.26
   2  19  -2    0.24    0.33
  -2  19   2    0.30    0.49
  -2 -19   3    0.63    0.28
   2  19   3    0.22    0.49
  -2  19  -3    0.37    0.29
   2  19  -3    0.42    0.33
  -2  19   3    0.53    0.50
  -2  19  -4    2.60    0.50
  -2 -19   4    2.70    0.40
   2  19   4    1.54    0.63
  -2  19   4    2.49    0.74
   2  19  -4    3.42    0.58
   2  19   5    4.87    1.01
  -2  19  -5    9.06    0.79
  -2 -19   5    8.46    0.72
  -2  19   5    6.44    1.15
   2  20   0   24.96    2.02
  -2  20   0   26.34    2.06
   2  20   1    0.17    0.48
  -2  20  -1   -0.07    0.34
  -2  20   1    0.65    0.48
   2  20  -1    0.10    0.38
   2  20   2   16.04    1.86
  -2  20  -2   21.72    1.60
  -2  20   2   17.25    1.95
   2  20  -2   21.98    1.57
  -2  20  -3    1.34    0.42
   2  20   3    1.06    0.56
   2  20  -3    0.96    0.38
  -2  20   3    0.62    0.52
   2  21   0    9.91    1.19
  -2  21   0    7.99    1.10
  -2  21  -1    2.52    0.59
   2  21   1    1.89    0.67
   2  21  -1    2.56    0.57
  -2  21   1    2.58    0.68
  -3   0   0    0.02    0.01
  -3   0   0    0.01    0.02
  -3   0  -1  398.43   23.17
  -3   0   1  388.93   23.17
  -3   0  -1  388.36   23.17
  -3   0  -1  417.09   23.19
   3   0  -1  428.90   23.17
   3   0  -2    0.15    0.05
   3   0  -2    0.04    0.05
  -3   0  -2    0.04    0.07
  -3   0  -2    0.06    0.03
  -3   0  -2    0.02    0.05
  -3   0  -3   58.44    3.35
  -3   0  -3   56.99    3.28
   3   0  -3   58.25    3.33
   3   0  -3   56.40    3.31
  -3   0  -3   55.77    3.31
  -3   0  -4   -0.02    0.08
   3   0  -4    0.09    0.07
   3   0  -4    0.20    0.10
  -3   0  -4    0.20    0.08
  -3   0  -5   19.78    1.18
   3   0  -5   18.72    1.16
   3   0  -5   19.29    1.20
  -3   0  -5   19.25    1.22
  -3   0  -6   -0.06    0.10
  -3   0  -6    0.34    0.16
   3   0  -6    0.03    0.11
   3   0  -6    0.04    0.14
  -3   0  -7   15.29    0.99
  -3   0  -7   15.42    1.05
   3   0  -7   15.22    1.03
   3   0  -7   15.47    0.98
  -3   0  -8   -0.01    0.18
  -3   0  -8   -0.12    0.14
   3   0  -8   -0.25    0.15
   3   0  -8    0.07    0.20
   3   0  -9   16.54    1.14
   3   0  -9   16.97    1.06
  -3   0  -9   15.33    1.14
  -3   0  -9   15.18    1.07
  -3   0 -10   -0.01    0.25
  -3   0 -10   -0.41    0.19
   3   0 -10    0.13    0.24
   3   0 -10    0.40    0.22
  -3   0 -11   11.18    0.83
  -3   0 -11   10.42    0.96
   3   0 -11   11.51    0.92
  -3  -1   0   -0.01    0.02
  -3   1   0    0.05    0.02
  -3   1   0    0.03    0.03
  -3  -1   0    0.06    0.03
  -3   1   0    0.05    0.03
  -3   1  -1    3.59    0.22
  -3   1  -1    3.26    0.21
  -3   1  -1    3.26    0.21
  -3  -1   1    3.31    0.20
  -3  -1  -1    3.50    0.22
  -3  -1  -1    3.40    0.21
  -3  -1  -1    3.32    0.21
   3   1  -1    2.75    0.20
  -3   1  -2   52.13    2.98
   3  -1  -2   52.49    2.98
  -3   1  -2   53.37    3.01
   3  -1  -2   53.78    3.00
  -3   1  -2   50.69    2.99
  -3  -1   2   50.98    2.96
  -3  -1  -2   54.19    3.01
   3   1  -2   53.08    2.99
   3   1  -2   49.51    2.99
  -3  -1  -2   48.47    2.98
  -3  -1  -2   49.86    2.99
  -3   1  -3    6.98    0.47
   3  -1  -3    6.93    0.44
  -3   1  -3    6.84    0.41
   3  -1  -3    6.90    0.46
  -3   1  -3    7.24    0.45
  -3  -1  -3    7.09    0.42
   3   1  -3    7.09    0.46
  -3  -1  -3    7.09    0.48
   3   1  -3    6.55    0.44
  -3  -1  -3    7.53    0.45
  -3   1  -4    1.80    0.22
   3  -1  -4    2.10    0.23
  -3   1  -4    2.26    0.21
   3  -1  -4    2.35    0.18
   3   1  -4    2.04    0.22
  -3  -1  -4    2.20    0.24
  -3  -1  -4    2.33    0.20
   3   1  -4    2.22    0.20
   3  -1  -5    2.64    0.24
   3  -1  -5    2.75    0.28
  -3   1  -5    2.60    0.25
  -3   1  -5    2.32    0.28
  -3  -1  -5    2.66    0.25
  -3  -1  -5    3.22    0.32
   3   1  -5    2.83    0.28
   3   1  -5    2.90    0.24
  -3   1  -6   41.82    2.40
   3  -1  -6   40.66    2.38
  -3   1  -6   39.78    2.44
   3  -1  -6   40.50    2.43
  -3  -1  -6   40.54    2.39
  -3  -1  -6   38.48    2.44
   3   1  -6   38.70    2.38
   3   1  -6   41.57    2.43
   3  -1  -7    2.25    0.25
   3  -1  -7    2.18    0.30
  -3   1  -7    2.82    0.29
  -3   1  -7    2.34    0.33
  -3  -1  -7    2.71    0.34
   3   1  -7    2.82    0.29
  -3  -1  -7    2.17    0.26
   3   1  -7    2.86    0.33
   3  -1  -8   13.44    0.93
  -3   1  -8   13.38    0.94
   3  -1  -8   12.46    0.85
  -3   1  -8   12.91    0.88
  -3  -1  -8   12.27    0.86
   3   1  -8   13.49    0.93
   3   1  -8   12.24    0.86
  -3  -1  -8   13.82    0.97
  -3   1  -9    0.23    0.25
   3  -1  -9    0.05    0.17
  -3   1  -9    0.18    0.18
   3  -1  -9    0.02    0.20
  -3  -1  -9    0.05    0.18
   3   1  -9    0.22    0.17
  -3  -1  -9    0.05    0.22
   3   1  -9    0.27    0.23
   3  -1 -10   30.26    1.91
  -3   1 -10   30.32    1.95
  -3   1 -10   29.05    1.85
   3  -1 -10   27.68    1.83
   3   1 -10   31.12    1.84
   3   1 -10   29.01    1.91
  -3  -1 -10   27.87    1.83
  -3  -1 -10   28.99    1.93
   3  -1 -11    0.42    0.29
  -3   1 -11    0.42    0.27
  -3   1 -11   -0.10    0.29
   3   1 -11    0.33    0.24
  -3  -1 -11    0.62    0.26
  -3  -1 -11    0.58    0.35
   3   1 -11    0.40    0.31
  -3   2   0    0.03    0.02
  -3   2   0   -0.03    0.04
  -3  -2   0   -0.01    0.03
  -3  -2   1    8.60    0.51
  -3   2  -1    8.32    0.52
  -3   2  -1    8.56    0.52
  -3   2  -1    8.47    0.53
  -3  -2  -1    8.50    0.52
   3   2  -1    8.98    0.51
  -3  -2  -1    8.64    0.52
  -3  -2   2   10.56    0.62
   3  -2  -2   10.84    0.62
  -3   2  -2   10.29    0.65
  -3   2  -2   10.29    0.62
  -3   2  -2    9.97    0.64
  -3  -2  -2    9.96    0.63
  -3  -2  -2   10.02    0.63
   3   2  -2   11.05    0.63
   3   2  -2   10.44    0.64
  -3  -2  -2   10.94    0.66
   3  -2  -3    0.27    0.06
  -3   2  -3    0.27    0.09
  -3   2  -3    0.37    0.08
   3  -2  -3    0.23    0.09
  -3  -2   3    0.30    0.03
  -3   2  -3    0.31    0.04
  -3  -2  -3    0.34    0.05
   3   2  -3    0.25    0.07
  -3  -2  -3    0.52    0.08
   3   2  -3    0.35    0.08
  -3  -2  -3    0.74    0.12
  -3   2  -4    8.96    0.60
   3  -2  -4    9.62    0.58
   3  -2  -4    9.31    0.62
  -3   2  -4    8.89    0.63
   3   2  -4    9.78    0.62
   3   2  -4    9.71    0.60
  -3  -2  -4    9.06    0.63
  -3  -2  -4    9.36    0.59
  -3   2  -5    0.92    0.18
  -3   2  -5    1.18    0.17
   3  -2  -5    0.87    0.16
   3  -2  -5    0.88    0.12
  -3  -2  -5    0.79    0.18
   3   2  -5    0.69    0.15
  -3  -2  -5    0.75    0.14
   3   2  -5    1.03    0.15
  -3   2  -6   21.20    1.36
   3  -2  -6   20.79    1.28
  -3   2  -6   20.71    1.31
   3  -2  -6   21.49    1.34
  -3  -2  -6   20.16    1.29
  -3  -2  -6   21.46    1.36
   3   2  -6   22.31    1.31
   3   2  -6   21.80    1.34
   3  -2  -7    0.00    0.11
   3  -2  -7    0.31    0.18
  -3   2  -7   -0.17    0.12
  -3   2  -7   -0.02    0.16
   3   2  -7   -0.06    0.13
  -3  -2  -7   -0.36    0.12
   3   2  -7    0.04    0.14
  -3  -2  -7   -0.20    0.15
   3  -2  -8   -0.11    0.13
   3  -2  -8    0.09    0.19
  -3   2  -8    0.15    0.21
  -3   2  -8    0.18    0.16
  -3  -2  -8   -0.19    0.15
   3   2  -8   -0.11    0.13
   3   2  -8    0.16    0.17
  -3  -2  -8   -0.29    0.19
   3  -2  -9    0.20    0.15
  -3   2  -9    0.17    0.18
  -3   2  -9    0.37    0.25
   3  -2  -9    0.15    0.24
  -3  -2  -9    0.28    0.19
   3   2  -9    0.30    0.22
   3   2  -9    0.31    0.19
  -3  -2  -9    0.39    0.27
  -3   2 -10    0.64    0.26
   3  -2 -10    0.60    0.31
  -3   2 -10    0.66    0.28
  -3  -2 -10    0.55    0.32
   3   2 -10    0.47    0.22
  -3  -2 -10    0.59    0.23
   3   2 -10    0.52    0.29
  -3   2 -11   -0.17    0.30
   3  -2 -11    0.22    0.26
  -3   2 -11   -0.08    0.25
   3   2 -11   -0.08    0.19
  -3  -2 -11    0.19    0.29
   3   2 -11   -0.26    0.28
  -3   3   0   -0.07    0.07
  -3  -3   0    0.00    0.04
  -3   3   0    0.01    0.03
  -3  -3   1   11.79    0.70
  -3   3  -1   11.88    0.70
  -3   3  -1   11.58    0.70
  -3  -3  -1   11.72    0.70
  -3  -3  -1   11.84    0.71
   3   3  -1   11.54    0.70
  -3   3  -2    2.09    0.18
  -3   3  -2    1.95    0.17
  -3  -3   2    1.99    0.15
   3  -3  -2    2.23    0.14
  -3   3  -2    1.87    0.15
   3   3  -2    2.12    0.17
   3   3  -2    2.27    0.16
  -3  -3  -2    2.14    0.18
  -3  -3  -2    1.94    0.15
  -3  -3  -2    2.25    0.16
  -3   3  -3   60.64    3.52
  -3  -3   3   59.96    3.47
  -3   3  -3   60.12    3.47
  -3   3  -3   61.79    3.50
   3  -3  -3   59.79    3.47
  -3  -3  -3   59.46    3.47
   3   3  -3   60.24    3.50
   3   3  -3   61.43    3.50
  -3  -3  -3   59.68    3.52
  -3  -3  -3   59.07    3.48
  -3   3  -4    6.68    0.48
  -3   3  -4    7.07    0.50
  -3  -3   4    7.26    0.42
   3  -3  -4    6.91    0.49
   3  -3  -4    6.66    0.44
  -3  -3  -4    6.43    0.50
   3   3  -4    7.57    0.49
   3   3  -4    7.21    0.47
  -3  -3  -4    7.20    0.46
  -3   3  -5   74.61    4.19
   3  -3  -5   70.13    4.15
  -3   3  -5   72.30    4.22
   3  -3  -5   72.69    4.21
  -3  -3   5   70.35    4.11
   3   3  -5   69.75    4.17
   3   3  -5   73.09    4.20
  -3  -3  -5   70.90    4.16
  -3  -3  -5   71.34    4.22
  -3   3  -6    0.52    0.17
   3  -3  -6    0.58    0.16
   3  -3  -6    0.50    0.12
  -3   3  -6    0.31    0.14
  -3  -3  -6    0.36    0.17
  -3  -3  -6    0.34    0.13
   3   3  -6    0.45    0.15
   3   3  -6    0.46    0.13
   3  -3  -7    3.92    0.42
  -3   3  -7    3.89    0.38
  -3   3  -7    4.97    0.48
   3  -3  -7    3.78    0.33
  -3  -3  -7    4.25    0.45
  -3  -3  -7    3.76    0.36
   3   3  -7    4.34    0.36
   3   3  -7    4.29    0.43
   3  -3  -8   12.17    0.87
  -3   3  -8   11.94    0.89
   3  -3  -8   11.99    0.79
  -3   3  -8   11.36    0.83
  -3  -3  -8   12.31    0.81
   3   3  -8   12.17    0.82
  -3  -3  -8   12.09    0.90
   3   3  -8   12.02    0.87
  -3   3  -9    0.33    0.24
   3  -3  -9    0.14    0.22
  -3   3  -9    0.25    0.21
  -3  -3  -9   -0.09    0.17
  -3  -3  -9    0.04    0.23
   3   3  -9    0.11    0.20
   3   3  -9    0.31    0.19
  -3   3 -10    3.10    0.45
  -3   3 -10    2.71    0.36
   3  -3 -10    2.26    0.41
  -3  -3 -10    2.91    0.46
   3   3 -10    2.61    0.40
   3   3 -10    3.03    0.38
  -3   3 -11    0.03    0.25
   3  -3 -11   -0.02    0.26
  -3   3 -11    0.30    0.31
  -3  -3 -11   -0.10    0.28
   3   3 -11   -0.04    0.27
   3   3 -11    0.03    0.22
  -3  -4   0    0.05    0.07
  -3   4   0    0.00    0.04
  -3   4   0   -0.04    0.10
  -3   4  -1   49.06    2.67
  -3   4  -1   43.90    2.71
  -3  -4   1   47.32    2.68
   3   4  -1   42.60    2.69
  -3  -4  -1   47.42    2.68
   3  -4  -2   10.38    0.58
  -3  -4   2   10.74    0.61
  -3   4  -2    9.65    0.64
  -3   4  -2    9.94    0.62
  -3   4  -2    9.46    0.61
   3   4  -2   10.27    0.62
  -3  -4  -2   10.17    0.61
  -3  -4  -2    9.42    0.61
  -3   4   2    9.87    0.58
   3   4  -2   10.18    0.62
  -3  -4  -2   10.01    0.64
  -3   4  -3    1.42    0.18
  -3   4  -3    1.37    0.12
   3  -4  -3    1.68    0.12
  -3   4  -3    1.65    0.17
  -3  -4   3    1.57    0.13
   3   4  -3    1.29    0.15
   3   4  -3    1.77    0.17
  -3  -4  -3    1.60    0.14
  -3  -4  -3    1.73    0.14
   3   4  -3    1.40    0.09
  -3  -4  -3    1.73    0.19
  -3   4  -4   30.46    1.76
   3  -4  -4   29.75    1.78
  -3   4  -4   28.70    1.84
  -3  -4   4   30.03    1.77
  -3   4  -4   30.90    1.82
  -3  -4  -4   31.98    1.78
  -3  -4  -4   31.42    1.80
  -3  -4  -4   31.76    1.85
   3   4  -4   29.77    1.81
   3   4  -4   29.83    1.82
   3  -4  -5    1.36    0.14
  -3  -4   5    1.45    0.12
  -3   4  -5    1.25    0.18
  -3   4  -5    1.07    0.20
   3  -4  -5    0.86    0.18
   3   4  -5    1.21    0.17
  -3  -4  -5    1.11    0.15
   3   4  -5    1.15    0.18
  -3  -4  -5    0.81    0.19
   3  -4  -6   18.68    1.15
   3  -4  -6   18.77    1.22
  -3   4  -6   19.33    1.20
  -3   4  -6   19.19    1.24
   3   4  -6   19.57    1.22
  -3  -4  -6   19.00    1.17
  -3  -4  -6   18.77    1.24
   3   4  -6   19.25    1.19
  -3   4  -7    0.39    0.16
  -3   4  -7    0.51    0.19
   3  -4  -7    0.35    0.12
   3  -4  -7    0.23    0.17
  -3  -4  -7    0.61    0.15
   3   4  -7    0.41    0.18
  -3  -4  -7    0.18    0.19
   3   4  -7    0.51    0.17
  -3   4  -8    1.32    0.30
  -3   4  -8    1.17    0.24
   3  -4  -8    0.99    0.26
  -3  -4  -8    1.73    0.24
   3   4  -8    1.35    0.24
   3   4  -8    1.71    0.29
  -3  -4  -8    1.03    0.27
   3  -4  -9    0.30    0.23
  -3   4  -9    0.11    0.20
  -3   4  -9   -0.03    0.18
   3   4  -9    0.15    0.22
  -3  -4  -9    0.17    0.24
   3   4  -9    0.35    0.20
  -3  -4  -9    0.10    0.18
  -3   4 -10    9.80    0.78
  -3   4 -10    8.49    0.83
   3  -4 -10   10.01    0.82
  -3  -4 -10   10.55    0.85
   3   4 -10   11.06    0.77
   3   4 -10    9.52    0.81
  -3   4 -11    0.39    0.31
   3  -4 -11    1.85    0.42
  -3   4 -11    0.67    0.30
  -3  -4 -11    1.27    0.40
   3   4 -11    0.68    0.29
  -3   5   0    0.07    0.04
  -3   5   0    0.00    0.09
  -3  -5   0    0.04    0.06
  -3  -5   1   14.28    0.79
  -3   5  -1   14.06    0.78
  -3   5  -1   12.74    0.83
   3   5  -1   10.55    0.81
  -3  -5  -1   12.86    0.79
  -3  -5   2    1.41    0.14
  -3   5  -2    1.46    0.14
  -3   5  -2    1.97    0.16
  -3   5  -2    1.60    0.18
   3   5  -2    1.16    0.14
  -3  -5  -2    1.52    0.15
   3   5  -2    1.42    0.15
  -3  -5  -2    1.50    0.13
  -3   5  -3  289.45   16.79
  -3  -5   3  292.68   16.79
  -3   5  -3  286.52   16.84
  -3   5  -3  302.97   16.81
   3  -5  -3  292.88   16.77
  -3  -5  -3  294.85   16.79
  -3  -5  -3  295.86   16.80
   3   5  -3  287.55   16.81
  -3  -5  -3  281.28   16.83
   3   5  -3  301.66   16.81
  -3   5  -4    3.96    0.32
  -3  -5   4    4.10    0.28
  -3   5  -4    4.08    0.26
   3  -5  -4    4.20    0.27
  -3   5  -4    3.77    0.34
  -3  -5  -4    4.28    0.28
   3   5  -4    4.05    0.32
  -3  -5  -4    4.21    0.35
   3   5  -4    4.12    0.33
  -3  -5  -4    3.83    0.29
  -3   5  -5   32.09    1.90
   3  -5  -5   31.17    1.85
  -3   5  -5   31.18    1.93
  -3  -5   5   31.75    1.85
  -3  -5  -5   29.86    1.93
  -3  -5  -5   31.86    1.87
   3   5  -5   32.24    1.90
   3   5  -5   32.44    1.91
   3  -5  -6    0.07    0.14
  -3   5  -6   -0.04    0.12
   3  -5  -6    0.02    0.08
  -3   5  -6    0.20    0.15
  -3  -5  -6    0.10    0.15
   3   5  -6    0.08    0.13
  -3  -5  -6    0.14    0.11
   3   5  -6    0.03    0.12
  -3   5  -7    0.31    0.18
  -3   5  -7    0.39    0.18
   3  -5  -7    0.20    0.18
   3   5  -7    0.54    0.17
  -3  -5  -7    0.37    0.21
   3   5  -7    0.20    0.17
  -3  -5  -7    0.57    0.15
   3  -5  -8    3.13    0.42
  -3   5  -8    5.11    0.44
  -3   5  -8    3.50    0.44
   3   5  -8    3.29    0.37
  -3  -5  -8    4.45    0.38
  -3  -5  -8    4.45    0.49
   3   5  -8    3.84    0.43
  -3   5  -9    0.04    0.19
  -3   5  -9    0.02    0.21
   3  -5  -9   -0.02    0.22
   3   5  -9   -0.02    0.18
   3   5  -9   -0.04    0.21
  -3  -5  -9   -0.04    0.24
  -3   5 -10    0.27    0.28
   3  -5 -10    0.64    0.32
  -3   5 -10    0.16    0.23
   3   5 -10    0.44    0.22
   3   5 -10    0.40    0.28
  -3  -5 -10    0.64    0.30
  -3   5 -11    5.11    0.65
  -3   6   0    0.06    0.12
  -3   6   0    0.13    0.05
  -3  -6   0    0.01    0.07
   3   6   0    0.13    0.11
  -3   6  -1    1.29    0.19
  -3   6  -1    1.35    0.13
  -3  -6   1    1.45    0.14
   3   6  -1    0.87    0.16
  -3   6   1    1.03    0.25
  -3  -6  -1    1.01    0.13
  -3   6  -2    1.50    0.15
  -3  -6   2    1.57    0.15
  -3   6  -2    1.15    0.17
   3   6  -2    1.45    0.16
   3   6  -2    1.20    0.14
  -3  -6  -2    1.11    0.14
  -3   6  -3    3.13    0.29
  -3   6  -3    3.34    0.26
   3  -6  -3    3.22    0.20
  -3   6  -3    3.35    0.23
  -3  -6   3    2.88    0.24
   3   6  -3    3.14    0.28
  -3  -6  -3    3.14    0.23
  -3  -6  -3    3.02    0.25
   3   6  -3    3.25    0.27
  -3   6  -4   32.71    1.98
  -3   6  -4   31.03    1.95
  -3  -6   4   34.75    1.93
  -3   6  -4   32.45    1.91
   3  -6  -4   32.42    1.90
  -3  -6  -4   32.18    1.92
   3   6  -4   33.61    1.95
   3   6  -4   31.98    1.88
  -3  -6  -4   31.80    1.98
   3   6  -4   31.66    1.96
  -3  -6  -4   35.18    1.93
   3  -6  -5    1.79    0.15
  -3   6  -5    1.89    0.23
  -3  -6   5    1.48    0.16
  -3   6  -5    1.58    0.23
   3   6  -5    1.68    0.22
  -3  -6  -5    1.64    0.24
  -3  -6  -5    1.67    0.18
   3   6  -5    1.64    0.21
  -3   6  -6   20.11    1.33
  -3   6  -6   21.24    1.30
   3   6  -6   20.35    1.29
   3   6  -6   21.17    1.31
  -3  -6  -6   20.93    1.34
  -3  -6  -6   20.32    1.26
  -3   6  -7   14.75    0.95
  -3   6  -7   14.48    0.98
   3   6  -7   14.58    0.96
  -3  -6  -7   13.77    0.89
   3   6  -7   12.30    0.91
  -3  -6  -7   13.80    0.99
  -3   6  -8    2.18    0.32
  -3   6  -8    3.22    0.42
  -3  -6  -8    2.99    0.40
   3   6  -8    2.19    0.34
   3   6  -8    2.40    0.31
  -3   6  -9    0.18    0.22
  -3   6  -9    0.02    0.20
   3   6  -9    0.00    0.19
   3   6  -9    0.42    0.24
  -3  -6  -9    0.48    0.27
  -3   6 -10    9.57    0.80
  -3   6 -10    9.21    0.76
   3   6 -10    8.60    0.72
  -3  -6 -10    9.06    0.84
  -3   7   0    0.04    0.04
  -3  -7   0    0.06    0.08
  -3   7   0    0.03    0.14
   3   7   0   -0.01    0.12
  -3   7  -1    7.52    0.57
  -3  -7   1    7.15    0.49
  -3   7  -1    7.73    0.47
  -3   7   1    6.81    0.67
  -3  -7  -1    7.96    0.50
   3   7  -1    6.93    0.56
  -3  -7   2   35.34    2.14
  -3   7  -2   35.88    2.19
  -3   7  -2   38.46    2.13
  -3  -7  -2   35.94    2.14
   3   7  -2   36.03    2.16
   3   7  -2   35.88    2.13
  -3  -7   3  104.92    5.99
  -3   7  -3  102.13    6.03
  -3   7  -3  101.65    5.97
  -3   7  -3  108.95    6.00
   3   7  -3  103.72    6.01
  -3  -7  -3  100.37    5.96
  -3  -7  -3  102.97    5.98
   3   7  -3  103.23    5.99
  -3   7  -4    5.59    0.43
  -3  -7   4    5.71    0.40
   3  -7  -4    5.67    0.36
  -3   7  -4    5.74    0.46
  -3   7  -4    5.66    0.38
   3   7  -4    5.87    0.43
  -3  -7  -4    6.22    0.40
  -3  -7  -4    6.44    0.39
   3   7  -4    5.52    0.42
   3   7  -4    5.88    0.36
  -3   7  -5   28.91    1.73
  -3  -7   5   29.41    1.69
  -3   7  -5   28.35    1.76
  -3  -7  -5   27.85    1.68
   3   7  -5   27.78    1.73
  -3  -7  -5   27.55    1.76
   3   7  -5   28.81    1.72
  -3   7  -6    5.40    0.43
  -3   7  -6    4.86    0.46
  -3  -7  -6    5.15    0.38
  -3  -7  -6    4.63    0.45
   3   7  -6    5.32    0.42
   3   7  -6    4.80    0.43
  -3   7  -7    0.05    0.16
  -3   7  -7   -0.08    0.14
   3   7  -7    0.11    0.17
  -3  -7  -7    0.03    0.19
   3   7  -7   -0.14    0.15
  -3   7  -8   18.73    1.24
  -3   7  -8   19.07    1.29
   3   7  -8   18.30    1.25
  -3  -7  -8   20.88    1.31
   3   7  -8   17.45    1.22
  -3   7  -9   -0.28    0.21
  -3   7  -9    0.34    0.24
  -3  -7  -9   -0.06    0.25
   3   7  -9    0.36    0.21
   3   7  -9    0.13    0.21
  -3   7 -10    8.03    0.70
  -3   7 -10    7.46    0.76
  -3  -7 -10    7.50    0.76
   3   7 -10    5.84    0.61
   3   8   0    0.05    0.16
  -3  -8   0   -0.04    0.08
  -3   8   0    0.01    0.15
  -3   8   0   -0.04    0.05
  -3  -8   1   79.80    4.55
  -3   8  -1   84.45    4.66
  -3   8  -1   79.47    4.52
   3   8  -1   74.49    4.63
  -3  -8  -1   79.89    4.54
  -3   8   1   68.17    4.75
  -3   8  -2    5.00    0.36
  -3  -8   2    5.42    0.38
  -3   8  -2    4.97    0.42
  -3  -8  -2    5.07    0.37
   3   8  -2    5.09    0.36
   3   8  -2    5.08    0.41
  -3   8  -3   65.26    3.72
  -3  -8   3   62.20    3.72
  -3   8  -3   66.13    3.78
  -3   8  -3   61.77    3.71
   3   8  -3   62.53    3.72
  -3  -8  -3   66.76    3.72
   3   8  -3   65.21    3.75
  -3  -8  -3   60.63    3.69
  -3   8  -4   53.39    3.12
  -3  -8   4   50.44    3.10
  -3   8  -4   53.43    3.08
  -3   8  -4   53.39    3.16
   3   8  -4   53.50    3.14
  -3  -8  -4   55.12    3.10
   3   8  -4   52.42    3.12
  -3  -8  -4   52.13    3.08
  -3  -8   5    6.32    0.43
  -3   8  -5    5.39    0.49
  -3   8  -5    6.26    0.47
  -3  -8  -5    6.25    0.42
   3   8  -5    5.94    0.47
   3   8  -5    6.27    0.48
  -3   8  -6   11.48    0.84
  -3   8  -6   11.98    0.80
   3   8  -6   11.55    0.78
   3   8  -6   11.13    0.80
  -3   8  -7    4.77    0.51
  -3   8  -7    3.93    0.42
   3   8  -7    4.53    0.46
   3   8  -7    5.23    0.46
  -3  -8  -7    4.23    0.48
  -3   8  -8    3.47    0.46
  -3   8  -8    4.32    0.44
   3   8  -8    3.28    0.43
   3   8  -8    3.31    0.39
  -3  -8  -8    3.60    0.45
  -3   8  -9    0.47    0.24
  -3   8  -9    0.28    0.27
   3   8  -9   -0.05    0.20
  -3  -8  -9    0.27    0.26
   3   8  -9    0.09    0.20
  -3   8 -10    7.42    0.70
  -3   8 -10    7.94    0.73
  -3  -8 -10    7.91    0.74
   3   8 -10    6.96    0.67
  -3  -9   0    0.13    0.10
   3   9   0    0.29    0.20
  -3   9   0    0.08    0.05
  -3   9   0   -0.04    0.17
  -3   9  -1    1.80    0.29
  -3  -9   1    1.75    0.20
  -3   9  -1    1.58    0.16
  -3   9   1    1.53    0.38
  -3  -9  -1    1.47    0.19
   3   9  -1    0.96    0.23
  -3   9  -2    0.51    0.11
  -3  -9   2    0.62    0.13
  -3   9  -2    0.63    0.18
   3   9  -2    0.58    0.16
   3   9  -2    0.58    0.12
  -3  -9  -2    0.42    0.12
  -3   9  -3    0.41    0.13
  -3   9  -3    0.43    0.16
  -3  -9   3    0.32    0.11
   3   9  -3    0.50    0.13
  -3  -9  -3    0.46    0.09
   3   9  -3    0.55    0.14
  -3  -9  -3    0.24    0.11
  -3   9  -4    3.63    0.37
  -3   9  -4    2.56    0.28
  -3  -9   4    2.66    0.28
  -3   9  -4    3.23    0.25
  -3  -9  -4    3.33    0.24
   3   9  -4    2.93    0.29
   3   9  -4    2.75    0.31
  -3  -9  -4    3.37    0.28
  -3  -9   5   16.43    0.97
  -3   9  -5   15.58    0.99
  -3   9  -5   15.85    1.04
   3   9  -5   15.20    0.99
   3   9  -5   16.14    1.01
  -3  -9  -5   13.05    0.95
  -3   9  -6   12.20    0.91
  -3   9  -6   13.43    0.88
   3   9  -6   13.51    0.89
   3   9  -6   12.56    0.88
  -3   9  -7    1.85    0.32
  -3   9  -7    1.18    0.25
   3   9  -7    1.30    0.26
   3   9  -7    1.18    0.25
  -3   9  -8   57.81    3.54
  -3   9  -8   59.70    3.49
   3   9  -8   56.27    3.51
   3   9  -8   58.59    3.48
  -3   9  -9   -0.02    0.22
  -3   9  -9   -0.12    0.20
   3   9  -9   -0.01    0.20
  -3   9 -10   15.38    1.17
  -3   9 -10   15.60    1.11
   3   9 -10   15.44    1.12
  -3  10   0    0.32    0.23
   3  10   0    0.05    0.20
  -3 -10   0   -0.10    0.11
  -3  10   0    0.05    0.06
  -3 -10   1   67.60    3.90
  -3  10  -1   66.74    3.87
  -3  10  -1   73.51    4.07
  -3 -10  -1   64.48    3.90
  -3  10   1   58.86    4.16
   3  10  -1   67.47    4.04
  -3  10  -2    0.49    0.12
  -3  10  -2    0.56    0.17
  -3 -10   2    0.63    0.14
  -3 -10  -2    0.51    0.13
   3  10  -2    0.41    0.11
   3  10  -2    0.56    0.17
  -3  10  -3   34.81    2.03
  -3  10  -3   33.56    2.09
  -3 -10   3   34.78    2.04
  -3 -10  -3   30.07    1.98
   3  10  -3   35.53    2.07
  -3 -10  -3   33.89    2.03
   3  10  -3   35.86    2.03
  -3 -10   4    0.11    0.12
  -3  10  -4    0.09    0.09
  -3  10  -4    0.14    0.15
  -3  10  -4    0.05    0.12
  -3 -10  -4    0.05    0.08
  -3 -10  -4    0.06    0.11
   3  10  -4    0.11    0.11
   3  10  -4    0.06    0.12
  -3 -10   5    8.34    0.61
  -3  10  -5    9.27    0.65
  -3  10  -5    8.88    0.68
   3  10  -5    8.35    0.63
   3  10  -5    9.31    0.65
  -3  10  -6    3.78    0.39
  -3  10  -6    3.39    0.43
   3  10  -6    4.21    0.43
   3  10  -6    3.51    0.38
  -3  10  -7    2.60    0.33
  -3  10  -7    2.02    0.34
   3  10  -7    2.86    0.35
   3  10  -7    1.97    0.32
  -3  10  -8    0.42    0.24
  -3  10  -8    0.66    0.24
   3  10  -8    0.30    0.23
   3  10  -8    0.57    0.24
  -3  10  -9    0.27    0.26
  -3  10  -9    0.30    0.24
   3  10  -9    0.84    0.27
  -3  10 -10    0.82    0.35
  -3 -11   0    0.10    0.12
   3  11   0    0.20    0.21
  -3  11   0   -0.21    0.16
  -3  11   0    0.04    0.07
  -3 -11   1    6.11    0.44
   3  11   1    6.77    0.79
  -3  11  -1    5.63    0.38
  -3  11  -1    6.74    0.66
  -3  11   1    3.16    0.62
   3  11  -1    6.44    0.58
  -3 -11  -1    4.76    0.42
  -3  11  -2    7.00    0.54
  -3 -11   2    5.39    0.43
  -3  11  -2    5.37    0.41
   3  11  -2    5.84    0.50
  -3  11   2    4.79    0.75
  -3 -11  -2    5.70    0.43
  -3 -11   3    1.95    0.25
  -3  11  -3    2.19    0.31
  -3  11  -3    1.80    0.22
   3  11  -3    1.69    0.22
   3  11  -3    2.12    0.28
  -3 -11  -3    1.77    0.18
  -3 -11  -3    1.80    0.22
  -3  11  -4    6.25    0.46
  -3  11  -4    6.97    0.55
  -3  11  -4    6.67    0.50
  -3 -11   4    6.38    0.49
  -3 -11  -4    7.30    0.49
   3  11  -4    5.65    0.48
   3  11  -4    6.71    0.52
  -3 -11   5    4.44    0.38
  -3  11  -5    4.15    0.40
  -3  11  -5    4.05    0.46
   3  11  -5    3.93    0.39
   3  11  -5    4.76    0.45
  -3 -11   6   10.08    0.78
  -3  11  -6    9.87    0.74
  -3  11  -6   10.63    0.80
   3  11  -6    9.99    0.74
   3  11  -6   10.94    0.77
  -3  11  -7    0.19    0.19
  -3  11  -7    0.19    0.20
   3  11  -7    0.28    0.20
   3  11  -7    0.00    0.19
  -3  11  -8   13.38    0.96
  -3  11  -8   12.43    1.00
   3  11  -8   14.52    0.98
  -3  11  -9    0.15    0.24
  -3  11  -9   -0.11    0.25
   3  11  -9    0.05    0.22
   3  12   0   -0.02    0.24
  -3 -12   0    0.48    0.16
  -3  12   0    0.22    0.24
  -3  12  -1   38.60    2.30
  -3 -12   1   36.14    2.11
  -3  12  -1   34.67    2.06
   3  12   1   33.56    2.38
   3  12  -1   38.05    2.29
  -3  12   1   29.05    2.37
  -3 -12  -1   32.98    2.10
  -3  12  -2    2.63    0.26
  -3 -12   2    3.16    0.31
  -3  12  -2    2.45    0.38
  -3 -12  -2    2.67    0.30
  -3  12   2    1.70    0.51
   3  12  -2    3.19    0.41
  -3  12  -3    3.80    0.37
  -3 -12   3    3.92    0.39
  -3  12  -3    5.39    0.47
  -3 -12  -3    3.98    0.39
   3  12  -3    4.68    0.36
   3  12  -3    4.23    0.44
  -3  12  -4   19.15    1.24
  -3 -12   4   20.57    1.27
  -3  12  -4   20.46    1.34
  -3  12  -4   20.00    1.26
   3  12  -4   19.85    1.26
   3  12  -4   20.47    1.31
  -3  12  -5   14.68    1.05
  -3 -12   5   14.98    0.98
  -3  12  -5   14.54    0.99
   3  12  -5   16.34    1.04
   3  12  -5   13.87    0.98
  -3  12  -6    8.98    0.69
  -3 -12   6    9.55    0.69
  -3  12  -6    9.17    0.74
   3  12  -6    9.96    0.72
   3  12  -6    8.25    0.67
  -3  12  -7    0.04    0.22
  -3  12  -7    0.44    0.22
   3  12  -7    0.28    0.20
   3  12  -7    0.07    0.19
  -3  12  -8    6.64    0.61
  -3  12  -8    5.62    0.64
   3  12  -8    6.11    0.59
  -3  12  -9    1.33    0.35
  -3  12  -9    1.08    0.33
   3  12  -9    1.22    0.31
   3  13   0    0.05    0.21
  -3 -13   0   -0.08    0.13
  -3  13   0    0.16    0.25
  -3  13  -1   31.25    1.88
  -3 -13   1   26.22    1.65
   3  13   1   23.06    1.89
  -3  13  -1   26.37    1.59
   3  13  -1   31.01    1.87
  -3  13   1   24.35    1.96
  -3 -13  -1   25.18    1.64
  -3 -13   2    0.15    0.15
  -3  13  -2   -0.01    0.16
  -3  13  -2    0.01    0.11
  -3  13   2    0.02    0.32
  -3 -13  -2   -0.04    0.13
   3  13  -2    0.12    0.18
  -3  13  -3   29.65    1.75
  -3  13  -3   28.64    1.86
  -3 -13   3   27.38    1.76
   3  13  -3   29.97    1.84
  -3  13   3   30.87    2.21
  -3 -13  -3   27.20    1.76
  -3  13  -4    5.08    0.45
  -3 -13   4    5.22    0.44
  -3  13  -4    5.37    0.55
  -3  13  -4    5.17    0.41
   3  13  -4    4.53    0.44
   3  13  -4    5.06    0.51
  -3  13  -5    4.60    0.46
  -3  13  -5    5.67    0.57
  -3 -13   5    5.53    0.48
   3  13  -5    5.09    0.52
   3  13  -5    5.53    0.49
  -3  13  -6    2.63    0.36
  -3  13  -6    2.81    0.43
  -3 -13   6    2.63    0.34
   3  13  -6    2.49    0.37
   3  13  -6    1.89    0.30
  -3  13  -7    0.40    0.26
  -3  13  -7    0.87    0.27
   3  13  -7    0.51    0.23
  -3  13  -8    5.57    0.66
  -3  13  -8    6.60    0.63
   3  13  -8    7.06    0.63
  -3 -14   0    0.07    0.15
  -3  14   0   -0.42    0.26
   3  14   0    0.25    0.34
   3  14   1   27.44    2.42
  -3  14  -1   35.53    2.11
  -3  14  -1   41.64    2.44
  -3 -14   1   36.39    2.18
  -3  14   1   32.34    2.51
  -3 -14  -1   34.56    2.17
   3  14  -1   40.31    2.41
  -3 -14   2    5.97    0.53
  -3  14  -2    6.53    0.49
  -3  14  -2    7.50    0.67
   3  14   2    7.54    0.94
  -3  14   2    5.74    0.91
  -3 -14  -2    6.91    0.53
   3  14  -2    7.14    0.65
  -3 -14   3   11.18    0.79
  -3  14  -3   11.87    0.88
  -3  14  -3   10.69    0.75
  -3 -14  -3   10.84    0.76
   3  14  -3   11.12    0.85
  -3  14   3    8.89    1.20
  -3  14  -4    6.22    0.61
  -3 -14   4    5.37    0.51
  -3  14  -4    4.67    0.46
   3  14  -4    5.48    0.46
   3  14  -4    6.12    0.54
  -3  14  -5    0.18    0.19
  -3 -14   5   -0.10    0.19
  -3  14  -5   -0.16    0.17
   3  14  -5    0.46    0.21
   3  14  -5    0.13    0.17
  -3  14  -6   26.83    1.78
  -3  14  -6   26.80    1.70
  -3 -14   6   26.85    1.70
   3  14  -6   26.75    1.69
   3  14  -6   26.82    1.76
  -3  14  -7   -0.02    0.20
  -3  14  -7    0.18    0.22
   3  14  -7   -0.09    0.19
  -3  14  -8   14.81    1.10
  -3  14  -8   15.61    1.18
   3  14  -8   16.70    1.11
  -3 -15   0   -0.03    0.16
   3  15   0    0.16    0.29
  -3  15   0   -0.05    0.30
  -3  15  -1   28.70    1.70
   3  15   1   16.71    1.63
  -3 -15   1   20.04    1.37
  -3 -15  -1   21.53    1.38
  -3  15   1   20.97    1.74
   3  15  -1   22.70    1.59
  -3  15  -2    3.29    0.51
   3  15   2    2.70    0.62
  -3 -15   2    3.38    0.37
  -3  15  -2    3.07    0.31
   3  15  -2    4.08    0.52
  -3  15   2    2.70    0.65
  -3 -15  -2    2.85    0.35
  -3  15  -3   24.17    1.53
  -3 -15   3   24.29    1.57
  -3  15  -3   26.22    1.70
  -3 -15  -3   25.20    1.57
   3  15  -3   25.34    1.65
  -3  15   3   22.12    1.96
  -3  15  -4    0.77    0.22
  -3  15  -4    0.46    0.23
  -3 -15   4    0.48    0.22
   3  15  -4    0.60    0.21
  -3  15  -5    3.22    0.36
  -3 -15   5    2.96    0.39
  -3  15  -5    3.37    0.46
   3  15  -5    3.19    0.42
   3  15  -5    1.87    0.32
  -3  15  -6    1.24    0.28
  -3 -15   6    1.62    0.30
  -3  15  -6    0.93    0.30
   3  15  -6    1.30    0.27
  -3  15  -7    2.14    0.41
  -3  15  -7    1.85    0.33
   3  15  -7    2.42    0.36
  -3  15  -8    2.01    0.41
  -3  16   0    0.52    0.39
  -3 -16   0   -0.36    0.17
   3  16   0    0.13    0.29
   3  16   1    5.34    0.83
  -3  16  -1    5.62    0.74
  -3 -16   1    4.37    0.49
  -3 -16  -1    5.93    0.50
   3  16  -1    6.43    0.76
  -3  16   1    6.51    0.92
  -3 -16   2    0.08    0.21
  -3  16  -2    0.21    0.28
   3  16   2    0.28    0.42
  -3  16   2    0.57    0.47
  -3 -16  -2    0.44    0.19
   3  16  -2    0.13    0.28
  -3  16  -3    0.78    0.28
   3  16   3    1.02    0.45
  -3 -16   3    0.63    0.24
  -3  16  -3    0.73    0.20
   3  16  -3    0.56    0.26
  -3  16   3    0.38    0.44
  -3 -16   4   21.83    1.50
  -3  16  -4   24.38    1.49
  -3  16  -4   24.03    1.61
  -3  16   4   18.01    1.89
   3  16  -4   25.72    1.58
  -3 -16   5    1.09    0.29
  -3  16  -5    2.45    0.40
  -3  16  -5    1.35    0.26
   3  16  -5    1.53    0.32
   3  16  -5    1.22    0.28
  -3  16  -6    6.29    0.62
  -3 -16   6    7.72    0.63
  -3  16  -6    8.03    0.77
   3  16  -6    5.62    0.58
  -3  16  -7    0.30    0.27
  -3  16  -7    0.29    0.26
   3  16  -7    0.78    0.29
   3  17   0   -0.17    0.31
  -3  17   0   -0.33    0.28
  -3 -17   0    0.02    0.18
  -3  17  -1   10.78    1.08
  -3 -17   1    8.43    0.69
   3  17   1    7.07    1.05
   3  17  -1   11.05    1.06
  -3  17   1    8.90    1.17
  -3 -17  -1    8.69    0.71
  -3  17  -2    0.51    0.31
  -3 -17   2    0.18    0.22
   3  17   2    0.74    0.45
   3  17  -2    0.48    0.31
  -3 -17  -2    0.71    0.22
  -3  17   2   -0.29    0.35
  -3 -17   3    6.47    0.64
  -3  17  -3    8.96    0.86
   3  17   3    6.29    1.01
  -3  17   3    6.30    1.05
   3  17  -3    8.13    0.70
  -3  17  -4    0.68    0.29
  -3 -17   4    0.82    0.26
  -3  17  -4    0.66    0.20
   3  17  -4    0.90    0.29
  -3  17   4    0.87    0.48
  -3  17  -5    7.78    0.79
  -3 -17   5    6.47    0.64
  -3  17  -5    8.26    0.65
  -3  17   5    6.01    1.04
  -3 -17   6    4.78    0.51
  -3  17  -6    3.88    0.55
  -3  17  -6    3.80    0.45
   3  17  -6    3.53    0.45
  -3 -18   0    0.23    0.23
   3  18   0    0.35    0.35
  -3  18   0   -0.12    0.33
  -3  18  -1   26.74    1.67
   3  18   1   19.47    1.69
  -3 -18   1   17.20    1.30
  -3 -18  -1   17.64    1.29
   3  18  -1   22.63    1.58
  -3  18   1   18.67    1.69
   3  18   2    0.40    0.41
  -3 -18   2    1.03    0.27
  -3  18  -2    0.83    0.36
  -3  18   2    1.14    0.51
   3  18  -2    1.09    0.36
   3  18   3    4.74    0.90
  -3 -18   3    5.82    0.57
  -3  18  -3    7.23    0.76
   3  18  -3    5.92    0.68
  -3  18   3    3.58    0.85
  -3  18  -4    5.92    0.69
   3  18   4    3.87    0.86
  -3 -18   4    6.88    0.62
  -3  18   4    4.35    0.91
  -3 -18   5    0.64    0.29
  -3  18  -5    0.58    0.26
  -3  18  -5    0.80    0.34
  -3  18   5    0.50    0.49
  -3  18  -6    1.18    0.36
  -3  19   0   -0.08    0.35
   3  19   0   -0.05    0.34
  -3 -19   0   -0.10    0.21
  -3 -19   1    1.38    0.30
   3  19   1    1.56    0.56
  -3  19  -1    1.84    0.49
  -3  19   1    1.90    0.64
   3  19  -1    2.13    0.53
  -3 -19  -1    1.42    0.31
  -3  19  -2    0.43    0.34
   3  19   2    0.54    0.45
  -3 -19   2    0.07    0.26
   3  19  -2   -0.21    0.28
  -3  19   2    0.64    0.56
   3  19   3    1.52    0.62
  -3 -19   3    1.45    0.32
  -3  19  -3    2.53    0.51
   3  19  -3    2.85    0.50
  -3  19   3    0.78    0.59
   3  19   4    0.08    0.50
  -3 -19   4    0.23    0.24
  -3  19  -4    0.17    0.27
  -3  19   4    0.59    0.49
   3  19   5    0.46    0.49
  -3 -19   5    0.40    0.28
  -3  19  -5    0.10    0.29
  -3  19   5    0.02    0.48
  -3  20   0    0.01    0.38
  -3 -20   0   -0.09    0.23
   3  20   0   -0.31    0.38
  -3 -20   1    7.72    0.71
   3  20   1    8.49    1.17
  -3  20  -1    8.14    1.02
  -3  20   1    9.60    1.26
   3  20  -1    8.70    1.00
   3  20   2    0.25    0.43
  -3 -20   2    0.38    0.26
  -3  20  -2    0.27    0.35
  -3  20   2    0.44    0.50
   3  20  -2    0.39    0.32
   3  20   3    2.42    0.71
  -3  20  -3    3.53    0.60
  -3 -20   3    3.74    0.48
  -3  20   3    2.70    0.79
  -3  21   0    0.09    0.42
   3  21   0   -0.68    0.35
  -3  21  -1    0.49    0.42
   3  21   1    0.61    0.47
   3  21  -1    0.70    0.45
  -3  21   1    0.77    0.53
  -4   0   0    3.83    0.25
  -4   0   0    4.07    0.25
  -4   0  -1   -0.03    0.03
  -4   0  -1    0.04    0.05
  -4   0   1   -0.02    0.03
  -4   0  -1    0.01    0.04
   4   0  -2  153.44    8.66
  -4   0  -2  146.67    8.67
  -4   0  -2  148.39    8.66
  -4   0  -2  152.47    8.69
   4   0  -2  152.87    8.66
   4   0  -3    0.03    0.06
  -4   0  -3    0.01    0.08
  -4   0  -3    0.08    0.06
   4   0  -3    0.09    0.07
  -4   0  -3    0.04    0.03
  -4   0  -4   83.22    4.86
   4   0  -4   84.05    4.84
  -4   0  -4   82.66    4.82
   4   0  -4   82.98    4.81
   4   0  -5    0.01    0.10
   4   0  -5    0.08    0.08
  -4   0  -5    0.01    0.11
  -4   0  -5   -0.10    0.08
   4   0  -6   51.65    3.13
  -4   0  -6   55.39    3.11
  -4   0  -6   53.54    3.16
   4   0  -6   50.14    3.08
  -4   0  -7    0.01    0.17
   4   0  -7    0.14    0.13
   4   0  -7   -0.12    0.13
  -4   0  -7   -0.04    0.13
   4   0  -8   23.46    1.46
   4   0  -8   22.76    1.40
  -4   0  -8   22.06    1.41
  -4   0  -8   21.38    1.48
  -4   0  -9    0.13    0.22
  -4   0  -9    0.03    0.17
   4   0  -9    0.14    0.17
   4   0  -9   -0.08    0.18
  -4   0 -10    6.78    0.68
  -4   0 -10    5.20    0.51
   4   0 -10    5.01    0.49
   4   0 -10    4.36    0.54
  -4   0 -11   -0.03    0.27
  -4   0 -11    0.22    0.23
   4   0 -11    0.29    0.29
  -4   1   0    5.77    0.35
  -4  -1   0    6.35    0.34
  -4   1   0    5.38    0.35
  -4   1   0    5.16    0.36
  -4  -1   1   10.99    0.65
  -4   1  -1   10.71    0.65
  -4   1  -1   11.56    0.67
  -4  -1  -1   10.63    0.65
  -4  -1  -1   11.38    0.66
  -4  -1  -1   10.47    0.66
  -4   1  -2   12.77    0.76
  -4  -1   2   12.63    0.72
   4  -1  -2   12.31    0.73
  -4   1  -2   12.57    0.74
  -4   1  -2   12.22    0.73
   4  -1  -2   12.85    0.74
  -4  -1  -2   11.79    0.73
   4   1  -2   12.07    0.74
  -4  -1  -2   12.21    0.76
   4   1  -2   12.17    0.73
  -4  -1  -2   11.26    0.73
  -4   1  -3   13.54    0.84
   4  -1  -3   13.29    0.82
  -4   1  -3   13.22    0.78
   4  -1  -3   14.02    0.80
  -4   1  -3   13.50    0.82
  -4  -1  -3   13.37    0.84
  -4  -1  -3   12.80    0.79
  -4  -1  -3   13.25    0.81
   4   1  -3   13.09    0.81
   4   1  -3   13.60    0.81
  -4   1  -4   23.96    1.52
   4  -1  -4   26.02    1.48
   4  -1  -4   24.57    1.50
  -4   1  -4   25.16    1.49
   4   1  -4   25.22    1.48
  -4  -1  -4   24.82    1.49
  -4  -1  -4   25.00    1.53
   4   1  -4   24.87    1.50
   4  -1  -5    0.25    0.09
  -4   1  -5    0.17    0.10
   4  -1  -5    0.33    0.13
  -4   1  -5    0.32    0.14
   4   1  -5    0.34    0.13
  -4  -1  -5    0.37    0.11
   4   1  -5    0.27    0.10
  -4  -1  -5    0.32    0.14
   4  -1  -6    0.07    0.13
   4  -1  -6    0.03    0.11
  -4   1  -6    0.05    0.14
  -4   1  -6    0.05    0.12
   4   1  -6    0.21    0.12
  -4  -1  -6    0.00    0.14
  -4  -1  -6    0.24    0.12
   4   1  -6    0.06    0.10
  -4   1  -7   34.36    2.24
   4  -1  -7   37.27    2.17
   4  -1  -7   36.29    2.23
  -4   1  -7   35.33    2.19
  -4  -1  -7   36.65    2.25
  -4  -1  -7   35.66    2.18
   4   1  -7   37.16    2.23
   4   1  -7   37.73    2.18
   4  -1  -8    1.24    0.21
   4  -1  -8    1.25    0.26
  -4   1  -8    1.01    0.21
  -4   1  -8    1.12    0.29
   4   1  -8    0.99    0.20
  -4  -1  -8    0.66    0.19
  -4  -1  -8    1.08    0.30
   4   1  -8    1.21    0.24
   4  -1  -9   18.05    1.22
  -4   1  -9   17.07    1.31
   4  -1  -9   20.34    1.32
  -4   1  -9   19.15    1.25
  -4  -1  -9   19.58    1.34
  -4  -1  -9   19.92    1.26
   4   1  -9   20.85    1.32
   4   1  -9   19.14    1.24
  -4   1 -10    1.03    0.32
   4  -1 -10    0.94    0.29
  -4   1 -10    0.90    0.27
  -4  -1 -10    0.90    0.24
  -4  -1 -10    1.19    0.34
   4   1 -10    0.97    0.31
   4   1 -10    0.57    0.24
  -4   1 -11    5.53    0.70
  -4   1 -11    7.39    0.66
   4  -1 -11    6.94    0.72
  -4  -1 -11    6.87    0.64
   4   1 -11    7.46    0.62
  -4  -1 -11    6.84    0.75
   4   1 -11    7.61    0.70
  -4   2   0  162.28    9.14
  -4   2   0  140.71    9.17
  -4  -2   0  171.98    9.15
  -4   2   0  162.00    9.15
  -4   2  -1    8.42    0.51
  -4  -2   1    8.61    0.51
  -4   2  -1    8.23    0.51
  -4  -2  -1    8.87    0.52
   4   2  -1    8.47    0.50
  -4  -2  -1    8.09    0.52
  -4   2  -2   11.28    0.70
  -4   2  -2   10.18    0.67
  -4   2  -2   10.80    0.66
  -4  -2   2   11.88    0.66
   4  -2  -2   12.02    0.66
  -4  -2  -2   10.47    0.67
   4   2  -2   11.47    0.67
  -4  -2  -2   10.32    0.67
   4   2  -2   11.60    0.68
  -4  -2  -2   10.90    0.69
  -4   2  -3   19.42    1.15
  -4  -2   3   19.42    1.14
  -4   2  -3   19.32    1.21
   4  -2  -3   18.87    1.16
   4  -2  -3   20.41    1.19
  -4   2  -3   19.79    1.18
   4   2  -3   21.21    1.18
   4   2  -3   20.41    1.18
  -4  -2  -3   19.35    1.17
  -4  -2  -3   19.41    1.16
  -4  -2  -3   20.20    1.21
  -4   2  -4   26.28    1.60
  -4   2  -4   24.87    1.57
   4  -2  -4   26.59    1.58
   4  -2  -4   24.86    1.54
  -4  -2  -4   25.79    1.60
  -4  -2  -4   26.55    1.56
   4   2  -4   27.02    1.56
  -4  -2  -4   26.96    1.52
   4   2  -4   26.68    1.57
  -4   2  -5    0.93    0.18
   4  -2  -5    0.46    0.10
  -4   2  -5    0.50    0.13
   4  -2  -5    0.55    0.15
   4   2  -5    0.53    0.12
  -4  -2  -5    0.57    0.16
   4   2  -5    0.55    0.14
  -4  -2  -5    0.77    0.13
  -4   2  -6    4.39    0.42
  -4   2  -6    4.67    0.38
   4  -2  -6    4.66    0.41
   4  -2  -6    4.24    0.35
  -4  -2  -6    4.90    0.38
   4   2  -6    5.18    0.37
  -4  -2  -6    5.23    0.45
   4   2  -6    4.73    0.39
  -4   2  -7   24.84    1.56
   4  -2  -7   23.79    1.47
  -4   2  -7   23.07    1.49
   4  -2  -7   24.82    1.54
   4   2  -7   25.05    1.53
  -4  -2  -7   23.58    1.49
   4   2  -7   25.21    1.49
  -4  -2  -7   23.18    1.55
  -4   2  -8    0.17    0.16
   4  -2  -8   -0.18    0.18
   4  -2  -8   -0.17    0.12
  -4   2  -8   -0.08    0.17
  -4  -2  -8   -0.24    0.21
  -4  -2  -8   -0.24    0.13
   4   2  -8   -0.30    0.17
   4   2  -8   -0.26    0.15
   4  -2  -9    2.09    0.27
  -4   2  -9    1.97    0.31
   4  -2  -9    1.88    0.32
  -4   2  -9    1.39    0.33
   4   2  -9    1.64    0.31
   4   2  -9    1.68    0.27
  -4  -2  -9    1.85    0.29
  -4  -2  -9    1.80    0.38
  -4   2 -10    0.15    0.28
   4  -2 -10    0.34    0.27
  -4   2 -10    0.52    0.26
   4   2 -10   -0.10    0.24
  -4  -2 -10    0.30    0.22
  -4  -2 -10    0.07    0.26
   4   2 -10    0.50    0.23
  -4   2 -11    9.67    0.75
  -4   2 -11    8.55    0.82
   4  -2 -11    8.83    0.81
   4   2 -11    8.90    0.73
  -4  -2 -11    9.39    0.84
  -4   3   0    3.94    0.33
  -4  -3   0    4.27    0.28
  -4   3   0    4.41    0.26
  -4   3  -1   75.49    4.31
  -4   3  -1   76.22    4.28
  -4   3  -1   77.10    4.29
  -4  -3   1   78.91    4.29
  -4   3   1   71.44    4.26
   4   3  -1   71.57    4.28
  -4  -3  -1   74.40    4.29
  -4  -3  -1   69.38    4.29
  -4  -3   2    3.01    0.20
  -4   3  -2    2.96    0.23
  -4   3  -2    2.96    0.20
  -4   3  -2    2.85    0.22
  -4  -3  -2    3.03    0.21
   4   3  -2    2.82    0.20
  -4  -3  -2    3.09    0.23
   4   3  -2    2.88    0.21
  -4  -3  -2    2.82    0.21
  -4  -3   3   22.04    1.27
  -4   3  -3   22.26    1.30
  -4   3  -3   21.58    1.32
  -4   3  -3   21.78    1.27
   4  -3  -3   21.58    1.27
  -4  -3  -3   20.34    1.32
   4   3  -3   22.44    1.30
   4   3  -3   22.58    1.29
  -4  -3  -3   21.14    1.27
  -4  -3  -3   20.98    1.28
  -4  -3   4   17.12    0.99
  -4   3  -4   16.76    0.98
  -4   3  -4   16.07    1.07
   4  -3  -4   16.78    1.06
   4  -3  -4   16.84    1.01
  -4   3  -4   18.57    1.05
   4   3  -4   15.99    1.03
  -4  -3  -4   16.27    1.07
   4   3  -4   17.83    1.05
  -4  -3  -4   17.05    1.00
  -4  -3  -4   17.16    1.03
   4  -3  -5    7.00    0.53
  -4   3  -5    7.35    0.55
  -4  -3   5    7.52    0.44
  -4   3  -5    7.36    0.53
   4  -3  -5    7.47    0.48
   4   3  -5    7.44    0.53
   4   3  -5    7.18    0.51
  -4  -3  -5    7.48    0.50
  -4  -3  -5    8.17    0.57
  -4   3  -6   13.99    0.89
   4  -3  -6   12.58    0.80
  -4   3  -6   12.38    0.83
   4  -3  -6   13.89    0.87
   4   3  -6   11.96    0.85
   4   3  -6   12.50    0.83
  -4  -3  -6   12.81    0.89
  -4  -3  -6   12.57    0.82
   4  -3  -7    1.00    0.17
  -4   3  -7    1.00    0.20
  -4   3  -7    0.65    0.21
   4  -3  -7    0.87    0.22
  -4  -3  -7    0.95    0.18
   4   3  -7    1.07    0.22
   4   3  -7    0.81    0.18
  -4  -3  -7    0.63    0.23
   4  -3  -8    1.97    0.32
  -4   3  -8    2.47    0.35
  -4   3  -8    2.28    0.32
   4  -3  -8    2.12    0.25
   4   3  -8    2.46    0.33
   4   3  -8    2.73    0.30
  -4  -3  -8    1.67    0.27
  -4  -3  -8    2.60    0.39
  -4   3  -9   15.34    1.00
  -4   3  -9   14.84    1.06
   4  -3  -9   14.99    1.04
   4   3  -9   13.66    0.97
   4   3  -9   14.14    1.03
  -4  -3  -9   15.15    1.08
  -4  -3  -9   13.45    0.96
  -4   3 -10    0.22    0.22
   4  -3 -10    0.95    0.30
  -4   3 -10    0.31    0.25
   4   3 -10    0.32    0.24
  -4  -3 -10    0.80    0.25
  -4  -3 -10    0.69    0.34
   4   3 -10    0.87    0.24
   4  -3 -11    3.40    0.51
  -4   3 -11    3.73    0.55
  -4   3 -11    3.57    0.46
  -4  -3 -11    3.74    0.57
   4   3 -11    3.78    0.46
  -4   4   0  365.78   19.11
  -4  -4   0  349.06   19.13
  -4   4   0  283.19   19.19
  -4   4  -1   74.34    4.15
  -4   4  -1   70.23    4.19
  -4  -4   1   73.85    4.15
  -4   4   1   72.17    4.12
  -4  -4  -1   71.52    4.16
   4   4  -1   68.30    4.17
  -4   4  -2    0.32    0.09
  -4   4  -2    0.32    0.07
  -4  -4   2    0.21    0.06
  -4   4  -2    0.29    0.08
  -4  -4  -2    0.46    0.10
  -4   4   2    0.44    0.05
   4   4  -2    0.37    0.08
  -4  -4  -2    0.26    0.07
   4   4  -2    0.25    0.06
  -4  -4  -2    0.21    0.06
  -4   4  -3   41.29    2.36
   4  -4  -3   40.29    2.34
  -4  -4   3   40.75    2.36
  -4   4  -3   40.57    2.41
  -4   4  -3   40.97    2.38
  -4  -4  -3   39.19    2.40
   4   4  -3   40.89    2.38
   4   4  -3   41.94    2.38
  -4  -4  -3   39.86    2.36
  -4  -4  -3   39.89    2.36
   4  -4  -4   14.66    0.85
  -4   4  -4   14.50    0.84
  -4  -4   4   14.00    0.85
  -4   4  -4   13.94    0.89
  -4   4  -4   14.67    0.93
   4   4  -4   14.83    0.89
  -4  -4  -4   12.80    0.91
  -4  -4  -4   14.71    0.85
  -4  -4  -4   14.62    0.87
   4   4  -4   13.45    0.88
   4  -4  -5   61.34    3.63
  -4   4  -5   61.22    3.71
  -4  -4   5   63.72    3.61
  -4   4  -5   65.49    3.67
   4  -4  -5   65.37    3.69
   4   4  -5   64.58    3.67
  -4  -4  -5   59.75    3.65
  -4  -4  -5   60.35    3.70
   4   4  -5   61.62    3.67
  -4   4  -6    0.47    0.17
   4  -4  -6    0.41    0.11
   4  -4  -6    0.38    0.16
  -4   4  -6    0.35    0.16
  -4  -4  -6    0.34    0.13
   4   4  -6    0.39    0.15
  -4  -4  -6    0.66    0.20
   4   4  -6    0.66    0.17
   4  -4  -7   11.34    0.83
   4  -4  -7   10.93    0.75
  -4   4  -7   12.88    0.87
  -4   4  -7   11.30    0.80
  -4  -4  -7   12.09    0.78
   4   4  -7   12.24    0.82
  -4  -4  -7   12.04    0.87
   4   4  -7   12.28    0.80
  -4   4  -8    2.22    0.35
   4  -4  -8    2.70    0.37
  -4   4  -8    2.31    0.31
  -4  -4  -8    2.66    0.30
   4   4  -8    1.93    0.31
   4   4  -8    2.43    0.30
  -4  -4  -8    2.39    0.37
  -4   4  -9    4.01    0.45
  -4   4  -9    4.30    0.52
   4  -4  -9    5.06    0.52
  -4  -4  -9    4.33    0.53
   4   4  -9    4.90    0.51
  -4  -4  -9    4.66    0.44
   4   4  -9    4.00    0.44
   4  -4 -10    3.74    0.50
  -4   4 -10    3.62    0.46
  -4   4 -10    3.92    0.52
   4   4 -10    4.18    0.45
   4   4 -10    4.15    0.51
  -4  -4 -10    3.48    0.51
  -4   4 -11   12.20    1.02
   4  -4 -11   11.32    0.96
  -4   4 -11   11.83    0.91
   4   4 -11   13.49    0.93
  -4  -4 -11   11.32    0.99
  -4  -5   0    4.17    0.30
  -4   5   0    4.59    0.27
  -4   5   0    3.20    0.39
  -4   5  -1    7.09    0.50
  -4   5  -1    6.77    0.44
  -4  -5   1    7.44    0.46
  -4   5   1    7.43    0.61
   4   5  -1    6.66    0.49
  -4   5   1    7.05    0.42
  -4  -5  -1    7.68    0.46
  -4   5  -2   37.67    2.27
  -4  -5   2   40.20    2.27
  -4   5  -2   37.87    2.31
  -4   5  -2   38.57    2.27
  -4  -5  -2   39.30    2.26
   4   5  -2   39.67    2.28
   4   5  -2   38.53    2.27
  -4  -5  -2   38.78    2.27
  -4   5  -3    2.19    0.17
  -4   5  -3    2.32    0.22
  -4  -5   3    1.93    0.18
  -4   5  -3    2.36    0.24
   4  -5  -3    2.33    0.15
   4   5  -3    2.31    0.21
  -4  -5  -3    2.04    0.23
  -4  -5  -3    2.08    0.19
  -4  -5  -3    2.28    0.18
   4   5  -3    2.02    0.19
  -4   5  -4  113.86    6.45
   4  -5  -4  109.07    6.40
  -4  -5   4  112.28    6.42
  -4   5  -4  111.33    6.48
  -4   5  -4  110.55    6.41
  -4  -5  -4  110.83    6.43
  -4  -5  -4  112.43    6.42
  -4  -5  -4  112.33    6.48
   4   5  -4  110.88    6.45
   4   5  -4  110.05    6.45
  -4  -5   5   19.12    1.12
  -4   5  -5   20.62    1.18
  -4   5  -5   18.74    1.21
   4  -5  -5   18.11    1.12
   4   5  -5   19.05    1.17
  -4  -5  -5   17.60    1.20
   4   5  -5   19.59    1.18
  -4  -5  -5   18.38    1.14
   4  -5  -6   15.82    0.95
  -4   5  -6   15.33    1.05
  -4   5  -6   16.07    1.01
  -4  -5  -6   16.77    0.98
   4   5  -6   15.44    1.01
  -4  -5  -6   14.65    1.05
   4   5  -6   15.35    1.00
  -4   5  -7    4.44    0.43
   4  -5  -7    5.76    0.49
  -4   5  -7    4.09    0.47
   4   5  -7    4.62    0.44
  -4  -5  -7    5.05    0.39
   4   5  -7    5.39    0.45
  -4  -5  -7    4.50    0.49
  -4   5  -8    7.82    0.63
   4  -5  -8    8.09    0.65
  -4   5  -8    7.34    0.66
  -4  -5  -8    7.65    0.67
  -4  -5  -8    7.71    0.58
   4   5  -8    8.15    0.61
   4   5  -8    8.66    0.64
  -4   5  -9   -0.08    0.20
   4  -5  -9    0.20    0.21
  -4   5  -9   -0.01    0.19
   4   5  -9    0.09    0.18
  -4  -5  -9    0.05    0.25
   4   5  -9    0.09    0.21
  -4   5 -10    0.24    0.27
   4  -5 -10    0.54    0.31
  -4   5 -10    0.08    0.22
  -4  -5 -10    0.61    0.30
   4   5 -10    0.43    0.23
  -4   6   0   20.35    1.49
  -4   6   0   24.35    1.36
  -4  -6   0   23.75    1.39
  -4   6  -1    0.25    0.07
  -4  -6   1    0.30    0.08
  -4   6  -1    0.16    0.10
  -4  -6  -1    0.20    0.08
  -4   6   1    0.24    0.03
  -4   6   1    0.78    0.24
   4   6  -1    0.13    0.09
  -4   6  -2   78.76    4.80
  -4   6  -2   81.75    4.76
  -4  -6   2   86.24    4.76
   4   6  -2   84.62    4.76
   4   6  -2   80.42    4.77
  -4  -6  -2   81.23    4.76
  -4   6  -3   63.02    3.68
  -4   6  -3   63.74    3.72
  -4  -6   3   63.33    3.66
  -4   6  -3   62.42    3.66
   4   6  -3   63.57    3.68
  -4  -6  -3   62.46    3.67
  -4  -6  -3   61.64    3.70
   4   6  -3   64.02    3.68
  -4  -6  -3   63.54    3.66
  -4  -6   4   11.69    0.72
  -4   6  -4   11.52    0.71
  -4   6  -4   11.40    0.75
   4  -6  -4   11.95    0.69
  -4   6  -4   12.28    0.79
  -4  -6  -4   11.63    0.79
  -4  -6  -4   12.06    0.73
   4   6  -4   10.70    0.75
   4   6  -4   11.86    0.75
   4   6  -4   11.46    0.68
  -4  -6  -4   12.08    0.73
  -4   6  -5   55.31    3.42
  -4   6  -5   57.81    3.46
  -4  -6   5   59.29    3.38
   4  -6  -5   56.49    3.36
   4   6  -5   60.13    3.42
   4   6  -5   57.85    3.42
  -4  -6  -5   59.28    3.39
  -4  -6  -5   58.31    3.46
  -4   6  -6    3.16    0.38
  -4   6  -6    3.85    0.35
  -4  -6  -6    3.25    0.38
   4   6  -6    3.09    0.34
   4   6  -6    3.95    0.35
  -4  -6  -6    3.79    0.30
  -4   6  -7    3.38    0.37
  -4   6  -7    4.57    0.47
   4   6  -7    3.03    0.35
  -4  -6  -7    3.95    0.35
  -4  -6  -7    3.95    0.45
   4   6  -7    3.88    0.39
  -4   6  -8    0.02    0.18
  -4   6  -8    0.17    0.20
  -4  -6  -8    0.23    0.23
   4   6  -8    0.06    0.19
   4   6  -8    0.40    0.21
  -4   6  -9   14.38    1.07
  -4   6  -9   15.02    1.02
   4   6  -9   13.86    1.01
   4   6  -9   13.80    0.98
  -4  -6  -9   13.68    1.05
  -4   6 -10    4.23    0.51
  -4   6 -10    4.73    0.60
  -4  -6 -10    5.16    0.61
   4   6 -10    5.49    0.53
  -4   7   0    0.79    0.09
  -4  -7   0    0.64    0.12
  -4   7   0    1.05    0.24
   4   7   0    0.84    0.21
  -4   7  -1    0.17    0.11
  -4  -7   1    0.14    0.08
  -4   7  -1    0.05    0.07
  -4   7   1    0.36    0.22
  -4  -7  -1    0.13    0.09
   4   7  -1    0.02    0.10
  -4   7   1    0.20    0.04
  -4   7  -2  133.13    7.86
  -4   7  -2  137.07    7.80
  -4  -7   2  138.44    7.81
   4   7  -2  131.59    7.83
  -4  -7  -2  132.57    7.81
   4   7  -2  138.94    7.81
  -4   7  -3    0.14    0.10
  -4   7  -3   -0.02    0.07
  -4   7  -3    0.04    0.09
  -4  -7   3   -0.14    0.07
   4   7  -3    0.09    0.08
  -4  -7  -3    0.02    0.06
  -4  -7  -3    0.02    0.08
   4   7  -3   -0.01    0.08
   4  -7  -4  103.54    6.00
  -4  -7   4  106.03    6.05
  -4   7  -4  105.87    6.07
  -4   7  -4  103.67    6.03
  -4   7  -4  104.34    6.11
  -4  -7  -4  101.44    6.04
  -4  -7  -4  106.82    6.05
   4   7  -4  106.68    6.07
   4   7  -4  102.69    6.07
  -4   7  -5    0.10    0.14
  -4  -7   5    0.33    0.10
  -4   7  -5    0.29    0.14
  -4  -7  -5    0.66    0.18
   4   7  -5    0.54    0.14
  -4  -7  -5    0.44    0.12
   4   7  -5    0.54    0.14
  -4   7  -6    2.08    0.28
  -4   7  -6    2.68    0.35
  -4  -7  -6    2.12    0.32
   4   7  -6    2.64    0.30
   4   7  -6    2.54    0.29
  -4  -7  -6    2.58    0.25
  -4   7  -7    3.05    0.38
  -4   7  -7    2.68    0.33
   4   7  -7    2.11    0.30
  -4  -7  -7    2.72    0.28
  -4  -7  -7    2.52    0.36
   4   7  -7    2.96    0.35
  -4   7  -8    1.14    0.26
  -4   7  -8    1.16    0.27
  -4  -7  -8    1.12    0.29
   4   7  -8    0.93    0.24
   4   7  -8    1.54    0.26
  -4   7  -9    2.09    0.34
  -4   7  -9    1.87    0.38
   4   7  -9    2.29    0.33
  -4  -7  -9    2.13    0.39
  -4   7 -10    0.32    0.27
  -4   7 -10    0.66    0.27
   4   7 -10    0.70    0.27
  -4  -7 -10    0.58    0.34
   4   8   0    1.14    0.27
  -4   8   0    1.74    0.14
  -4  -8   0    1.51    0.18
  -4   8   0    1.25    0.28
  -4   8  -1   18.21    1.06
  -4  -8   1   17.92    1.09
  -4   8  -1   16.58    1.18
   4   8  -1   18.31    1.19
  -4  -8  -1   17.41    1.09
  -4   8   1   16.82    1.32
  -4  -8   2   66.91    3.82
  -4   8  -2   66.23    3.81
  -4   8  -2   64.70    3.88
   4   8  -2   64.73    3.85
  -4  -8  -2   64.76    3.82
  -4   8  -3   14.32    0.88
  -4   8  -3   13.55    0.86
  -4  -8   3   12.82    0.87
  -4   8  -3   14.20    0.92
   4   8  -3   13.66    0.87
  -4  -8  -3   14.72    0.87
  -4  -8  -3   13.81    0.84
   4   8  -3   14.05    0.89
  -4   8  -4    0.95    0.19
  -4  -8   4    1.66    0.19
  -4   8  -4    1.79    0.24
  -4   8  -4    1.97    0.18
   4   8  -4    1.54    0.20
  -4  -8  -4    1.77    0.19
   4   8  -4    1.19    0.19
  -4  -8  -4    1.61    0.17
  -4   8  -5   10.17    0.68
  -4  -8   5    9.69    0.64
  -4   8  -5    9.74    0.72
   4   8  -5    9.64    0.68
  -4  -8  -5    9.54    0.63
   4   8  -5   10.56    0.68
  -4   8  -6    0.24    0.17
  -4   8  -6   -0.06    0.14
  -4  -8  -6    0.09    0.10
  -4  -8  -6    0.25    0.19
   4   8  -6    0.17    0.14
   4   8  -6   -0.03    0.16
  -4   8  -7    0.58    0.21
  -4   8  -7    0.68    0.24
  -4  -8  -7    0.70    0.24
   4   8  -7    0.76    0.20
   4   8  -7    0.82    0.20
  -4   8  -8    5.30    0.57
  -4   8  -8    5.54    0.53
  -4  -8  -8    4.66    0.54
   4   8  -8    5.58    0.49
   4   8  -8    4.87    0.49
  -4   8  -9    5.26    0.59
  -4   8  -9    5.14    0.52
   4   8  -9    5.14    0.51
  -4  -8  -9    4.46    0.56
  -4   8 -10    0.71    0.28
  -4   8 -10    1.07    0.31
  -4  -8 -10    0.24    0.30
   4   8 -10    0.66    0.26
  -4   9   0    0.14    0.06
   4   9   0    0.05    0.17
  -4  -9   0    0.08    0.10
  -4   9   0   -0.03    0.16
  -4   9  -1   26.38    1.55
  -4   9  -1   24.07    1.38
  -4  -9   1   22.70    1.42
  -4   9   1   19.14    1.62
   4   9  -1   22.48    1.52
  -4  -9  -1   23.38    1.41
  -4   9  -2   23.21    1.39
  -4  -9   2   22.69    1.41
  -4   9  -2   25.48    1.50
  -4  -9  -2   22.19    1.41
   4   9  -2   22.89    1.45
  -4  -9   3   14.29    0.88
  -4   9  -3   13.47    0.93
  -4   9  -3   13.45    0.87
  -4   9  -3   14.29    0.86
   4   9  -3   12.92    0.89
   4   9  -3   14.11    0.87
  -4  -9  -3   13.54    0.84
  -4  -9  -3   14.14    0.88
  -4   9  -4   18.75    1.17
  -4   9  -4   19.76    1.21
  -4  -9   4   19.72    1.20
  -4   9  -4   19.75    1.26
   4   9  -4   19.77    1.21
  -4  -9  -4   18.72    1.19
   4   9  -4   19.68    1.22
  -4  -9  -4   19.08    1.16
  -4   9  -5   18.37    1.18
  -4   9  -5   18.53    1.23
  -4  -9   5   20.12    1.16
   4   9  -5   19.90    1.19
  -4  -9  -5   17.33    1.13
   4   9  -5   18.14    1.19
  -4   9  -6    4.90    0.46
  -4   9  -6    5.39    0.49
   4   9  -6    5.60    0.48
   4   9  -6    4.95    0.45
  -4   9  -7    0.08    0.17
  -4   9  -7    0.08    0.20
   4   9  -7    0.08    0.17
   4   9  -7    0.22    0.17
  -4   9  -8    1.01    0.28
  -4   9  -8    1.06    0.26
   4   9  -8    0.93    0.25
  -4   9  -9    5.64    0.58
  -4   9  -9    4.70    0.59
   4   9  -9    5.90    0.55
  -4   9 -10    2.03    0.41
  -4   9 -10    2.09    0.37
   4   9 -10    1.80    0.34
  -4 -10   0   89.15    4.94
  -4  10   0   86.89    5.16
   4  10   0   72.93    5.09
  -4  10   0   87.09    4.88
  -4 -10   1    1.10    0.18
  -4  10  -1    1.55    0.29
  -4  10  -1    1.23    0.15
  -4 -10  -1    1.90    0.22
   4  10  -1    1.47    0.28
  -4  10   1    1.20    0.36
  -4  10  -2    7.91    0.56
  -4 -10   2    8.78    0.59
  -4  10  -2    8.76    0.66
   4  10  -2    8.98    0.64
  -4 -10  -2    8.31    0.58
  -4  10   2    7.45    0.93
  -4  10  -3    0.86    0.16
  -4  10  -3    0.59    0.18
  -4 -10   3    1.18    0.19
   4  10  -3    1.18    0.18
   4  10  -3    0.85    0.17
  -4 -10  -3    0.88    0.12
  -4 -10  -3    0.93    0.17
  -4  10  -4    0.28    0.10
  -4  10  -4    0.24    0.14
  -4 -10   4    0.28    0.13
  -4  10  -4    0.37    0.15
  -4 -10  -4    0.50    0.14
   4  10  -4    0.31    0.13
   4  10  -4    0.27    0.12
  -4 -10  -4    0.28    0.09
  -4 -10   5    1.82    0.23
  -4  10  -5    2.03    0.26
  -4  10  -5    1.38    0.27
   4  10  -5    2.07    0.26
   4  10  -5    2.30    0.28
  -4  10  -6    0.15    0.17
  -4  10  -6    0.08    0.18
   4  10  -6    0.10    0.15
   4  10  -6   -0.15    0.13
  -4  10  -7    2.22    0.33
  -4  10  -7    2.50    0.39
   4  10  -7    3.26    0.38
   4  10  -7    2.47    0.33
  -4  10  -8    6.72    0.62
  -4  10  -8    7.19    0.65
   4  10  -8    6.91    0.62
  -4  10  -9    0.72    0.28
  -4  10  -9    0.78    0.30
   4  10  -9    0.94    0.27
  -4  11   0    0.09    0.07
  -4 -11   0    0.14    0.12
  -4  11   0    0.13    0.20
   4  11   0    0.18    0.22
  -4  11  -1    0.19    0.19
   4  11   1   -0.19    0.17
  -4  11  -1    0.25    0.10
  -4 -11   1    0.18    0.14
  -4  11   1    0.16    0.25
   4  11  -1    0.45    0.21
  -4 -11  -1    0.08    0.14
  -4  11  -2    0.53    0.13
  -4 -11   2    0.75    0.16
  -4  11  -2    0.38    0.18
   4  11  -2    0.49    0.18
  -4  11   2    0.68    0.36
  -4 -11  -2    0.59    0.16
  -4 -11   3    1.10    0.19
  -4  11  -3    1.02    0.22
  -4  11  -3    1.38    0.20
   4  11  -3    1.28    0.19
   4  11  -3    1.64    0.24
  -4 -11  -3    1.14    0.15
  -4 -11  -3    1.43    0.20
  -4  11  -4    8.93    0.61
  -4  11  -4    9.35    0.64
  -4 -11   4    8.90    0.64
  -4  11  -4    9.29    0.70
   4  11  -4    9.91    0.67
   4  11  -4    8.44    0.63
  -4 -11  -4    9.44    0.64
  -4 -11   5   15.49    0.99
  -4  11  -5   15.23    1.01
  -4  11  -5   14.93    1.06
   4  11  -5   13.94    1.00
   4  11  -5   17.07    1.04
  -4  11  -6    0.40    0.19
  -4  11  -6    0.38    0.20
   4  11  -6    0.21    0.17
   4  11  -6    0.68    0.20
  -4  11  -7    3.28    0.46
  -4  11  -7    3.76    0.41
   4  11  -7    3.20    0.38
  -4  11  -8    0.61    0.24
  -4  11  -8   -0.20    0.23
   4  11  -8   -0.10    0.19
  -4  11  -9    4.82    0.53
  -4  11  -9    4.27    0.56
   4  11  -9    3.40    0.45
  -4  12   0   23.40    1.40
  -4 -12   0   25.31    1.48
  -4  12   0   27.29    1.77
   4  12   0   19.18    1.64
  -4  12  -1    5.72    0.64
   4  12   1    4.17    0.66
  -4  12  -1    5.24    0.38
  -4 -12   1    5.34    0.43
   4  12  -1    5.31    0.60
  -4 -12  -1    5.68    0.43
  -4  12   1    4.42    0.72
  -4  12  -2    4.70    0.35
  -4 -12   2    4.72    0.38
  -4  12  -2    4.59    0.51
  -4  12   2    3.72    0.69
   4  12  -2    3.80    0.46
  -4 -12  -2    3.62    0.38
  -4  12  -3    0.63    0.16
  -4  12  -3    0.95    0.23
  -4 -12   3    1.05    0.19
  -4 -12  -3    0.71    0.17
   4  12  -3    1.12    0.21
  -4  12  -4    2.38    0.25
  -4  12  -4    2.23    0.34
  -4 -12   4    1.70    0.26
  -4  12  -4    2.27    0.27
   4  12  -4    2.13    0.27
  -4 -12  -4    1.97    0.25
   4  12  -4    2.46    0.30
  -4 -12   5   -0.03    0.14
  -4  12  -5   -0.02    0.16
  -4  12  -5   -0.11    0.15
   4  12  -5    0.12    0.16
   4  12  -5    0.08    0.16
  -4  12  -6    0.67    0.22
  -4 -12   6    1.01    0.26
  -4  12  -6    0.94    0.27
   4  12  -6    0.80    0.23
   4  12  -6    0.53    0.21
  -4  12  -7    7.52    0.67
  -4  12  -7    8.16    0.70
   4  12  -7    7.48    0.62
  -4  12  -8   -0.07    0.21
  -4  12  -8   -0.04    0.20
   4  12  -8   -0.13    0.20
  -4  12  -9    8.82    0.73
  -4  12  -9    7.85    0.77
   4  12  -9    8.77    0.74
   4  13   0   40.38    2.96
  -4 -13   0   46.92    2.76
  -4  13   0   51.25    3.08
   4  13   1    0.20    0.26
  -4  13  -1    0.16    0.10
  -4  13  -1    0.23    0.21
  -4 -13   1    0.16    0.16
  -4  13   1   -0.10    0.26
   4  13  -1    0.24    0.25
  -4 -13  -1    0.12    0.14
  -4  13  -2   13.65    1.03
  -4 -13   2   13.41    0.91
  -4  13  -2   13.35    0.87
  -4  13   2   12.34    1.38
   4  13  -2   14.26    1.01
  -4 -13  -2   13.66    0.90
  -4  13  -3    3.53    0.34
  -4 -13   3    3.13    0.36
  -4  13  -3    3.68    0.46
  -4 -13  -3    3.71    0.37
   4  13  -3    4.25    0.45
  -4  13   3    3.15    0.70
  -4 -13   4   35.77    2.13
  -4  13  -4   34.07    2.20
  -4  13  -4   33.83    2.11
  -4  13  -4   36.14    2.10
  -4 -13  -4   34.47    2.11
   4  13  -4   35.37    2.16
   4  13  -4   33.61    2.11
  -4  13  -5    0.27    0.21
  -4  13  -5    0.16    0.19
  -4 -13   5    0.15    0.19
   4  13  -5    0.34    0.19
   4  13  -5    0.42    0.18
  -4  13  -6   21.42    1.45
  -4 -13   6   20.28    1.37
  -4  13  -6   22.50    1.38
   4  13  -6   20.52    1.36
  -4  13  -7    1.91    0.31
  -4  13  -7    1.84    0.37
   4  13  -7    1.67    0.30
  -4  13  -8    0.52    0.26
  -4  13  -8    0.28    0.26
   4  13  -8    0.46    0.24
  -4 -14   0    5.01    0.43
   4  14   0    3.61    0.70
  -4  14   0    5.80    0.78
  -4 -14   1    5.07    0.45
   4  14   1    5.55    0.84
  -4  14  -1    5.97    0.71
  -4  14  -1    5.29    0.39
  -4 -14  -1    4.62    0.45
   4  14  -1    5.37    0.68
  -4  14   1    4.23    0.78
  -4 -14   2    6.45    0.56
   4  14   2    8.14    1.00
  -4  14  -2    6.76    0.51
  -4  14  -2    7.64    0.76
   4  14  -2    7.73    0.67
  -4 -14  -2    7.01    0.56
  -4  14   2    6.91    1.00
  -4  14  -3    3.31    0.47
  -4 -14   3    3.94    0.39
  -4  14  -3    3.81    0.37
  -4 -14  -3    3.56    0.39
   4  14  -3    3.68    0.45
  -4  14   3    4.30    0.80
  -4 -14   4    1.46    0.25
  -4  14  -4    1.23    0.22
  -4  14  -4    1.32    0.30
  -4  14  -4    1.79    0.26
  -4 -14  -4    1.36    0.23
   4  14  -4    1.96    0.30
  -4 -14   5   18.63    1.22
  -4  14  -5   18.30    1.21
  -4  14  -5   19.44    1.31
   4  14  -5   17.78    1.21
   4  14  -5   19.25    1.26
  -4 -14   6   -0.13    0.20
  -4  14  -6    0.09    0.22
  -4  14  -6    0.31    0.24
   4  14  -6    0.64    0.21
  -4  14  -7   16.74    1.13
  -4  14  -7   16.09    1.21
   4  14  -7   15.71    1.12
  -4  14  -8    0.52    0.31
  -4  14  -8    0.26    0.25
   4  14  -8    0.53    0.25
  -4 -15   0   51.06    3.16
   4  15   0   47.56    3.41
  -4  15   0   61.65    3.54
  -4 -15   1    0.39    0.19
  -4  15  -1    0.68    0.35
   4  15   1    0.01    0.36
   4  15  -1    0.66    0.35
  -4 -15  -1    0.30    0.19
  -4  15   1    0.92    0.44
  -4  15  -2   42.86    2.54
   4  15   2   35.80    2.90
  -4  15  -2   51.04    2.80
  -4 -15   2   41.86    2.60
  -4  15   2   35.68    2.96
  -4 -15  -2   39.64    2.58
   4  15  -2   50.58    2.75
  -4  15  -3    0.97    0.29
  -4  15  -3    1.07    0.21
  -4 -15   3    0.62    0.23
   4  15  -3    0.99    0.25
  -4 -15  -3    0.95    0.23
  -4  15   3    0.65    0.43
  -4  15  -4   31.30    1.82
  -4  15  -4   30.33    1.94
  -4 -15   4   28.76    1.84
  -4  15  -4   27.79    1.80
   4  15  -4   30.76    1.89
  -4  15   4   23.76    2.20
  -4  15  -5    2.75    0.35
  -4  15  -5    3.54    0.47
  -4 -15   5    2.11    0.36
   4  15  -5    2.65    0.34
  -4 -15   6   23.36    1.55
  -4  15  -6   24.70    1.65
  -4  15  -6   25.57    1.56
   4  15  -6   22.72    1.54
  -4  15  -7    0.13    0.21
  -4  15  -7    0.22    0.27
   4  15  -7    0.48    0.23
   4  16   0   20.94    1.64
  -4  16   0   24.99    1.75
  -4 -16   0   19.65    1.37
  -4 -16   1    0.74    0.22
   4  16   1    0.18    0.38
  -4  16  -1    1.00    0.41
  -4 -16  -1    0.43    0.22
  -4  16   1    0.16    0.37
   4  16  -1    1.10    0.39
  -4 -16   2    0.73    0.23
  -4  16  -2    0.83    0.35
   4  16   2    0.97    0.48
  -4  16   2    1.15    0.60
  -4 -16  -2    0.88    0.25
   4  16  -2    0.35    0.26
  -4  16  -3    3.12    0.33
  -4  16  -3    2.66    0.45
  -4 -16   3    2.78    0.37
  -4  16   3    0.93    0.55
   4  16  -3    2.91    0.41
  -4 -16  -3    2.18    0.33
  -4 -16   4    0.54    0.24
  -4  16  -4    0.16    0.20
  -4  16  -4    0.20    0.22
   4  16  -4    0.34    0.21
  -4  16   4    0.40    0.44
  -4  16  -5   20.95    1.33
  -4  16  -5   20.27    1.43
  -4 -16   5   19.67    1.35
  -4 -16   6    0.32    0.25
  -4  16  -6    0.03    0.22
  -4  16  -6   -0.28    0.20
   4  16  -6   -0.10    0.22
  -4  16  -7   10.02    0.90
  -4  16  -7   10.13    0.80
   4  16  -7   10.35    0.80
  -4  17   0   26.84    1.86
  -4 -17   0   20.97    1.47
   4  17   0   22.18    1.75
  -4  17  -1   -0.27    0.27
   4  17   1   -0.10    0.38
  -4 -17   1    0.26    0.20
  -4 -17  -1   -0.12    0.18
  -4  17   1   -0.36    0.39
   4  17  -1   -0.13    0.31
  -4  17  -2   30.14    1.87
  -4 -17   2   23.58    1.64
   4  17   2   20.48    1.96
  -4  17   2   22.25    2.04
  -4 -17  -2   24.97    1.63
   4  17  -2   31.37    1.82
   4  17   3    4.44    0.81
  -4 -17   3    3.67    0.46
  -4  17  -3    4.18    0.57
   4  17  -3    4.67    0.57
  -4 -17  -3    4.37    0.46
  -4  17   3    2.75    0.74
  -4  17  -4    2.77    0.36
  -4 -17   4    3.29    0.42
  -4  17  -4    3.70    0.53
  -4  17   4    1.99    0.67
  -4 -17   5    0.52    0.27
  -4  17  -5    0.43    0.30
  -4  17  -5    0.27    0.23
  -4  17   5    0.34    0.41
  -4 -17   6    1.86    0.36
  -4  17  -6    2.42    0.45
  -4  17  -6    2.09    0.34
  -4  18   0   -0.28    0.34
   4  18   0    0.17    0.32
  -4 -18   0    0.15    0.21
   4  18   1    0.28    0.36
  -4 -18   1    0.02    0.21
  -4  18  -1    0.36    0.36
  -4  18   1   -0.14    0.35
   4  18  -1    0.15    0.28
  -4 -18  -1    0.39    0.23
  -4  18  -2    4.77    0.64
  -4 -18   2    2.30    0.38
   4  18   2    2.84    0.69
  -4  18   2    3.00    0.75
   4  18  -2    4.31    0.59
  -4 -18  -2    2.80    0.38
  -4  18  -3    0.01    0.28
   4  18   3   -0.33    0.33
  -4 -18   3    0.39    0.27
   4  18  -3    0.17    0.25
  -4  18   3    1.08    0.54
  -4  18  -4    2.53    0.45
   4  18   4    1.26    0.61
  -4 -18   4    1.14    0.32
  -4  18   4    2.06    0.68
  -4  18  -5    8.88    0.73
  -4  18  -5    9.45    0.84
  -4 -18   5    8.88    0.73
  -4  18   5    7.49    1.20
  -4 -19   0    4.48    0.52
  -4  19   0    6.09    0.89
   4  19   0    4.67    0.79
  -4 -19   1    0.79    0.27
  -4  19  -1    0.41    0.38
   4  19   1    0.61    0.47
   4  19  -1    1.05    0.39
  -4  19   1    0.70    0.50
  -4 -19  -1    0.78    0.26
   4  19   2    1.62    0.59
  -4 -19   2    2.10    0.38
  -4  19  -2    2.34    0.51
   4  19  -2    2.21    0.45
  -4  19   2    2.32    0.68
  -4 -19   3    9.46    0.77
   4  19   3    8.29    1.23
  -4  19  -3   10.12    0.92
  -4  19   3    9.07    1.36
  -4 -19   4    1.84    0.36
  -4  19  -4    2.88    0.53
   4  19   4    2.40    0.70
  -4  19   4    1.77    0.65
  -4 -20   0    1.93    0.37
  -4  20   0    1.32    0.53
   4  20   0    2.47    0.61
   4  20   1    1.82    0.65
  -4 -20   1    1.70    0.34
  -4  20  -1    2.65    0.60
  -4 -20  -1    2.22    0.39
   4  20  -1    2.40    0.57
  -4  20   1    2.60    0.71
   4  20   2    8.95    1.26
  -4 -20   2    9.36    0.81
  -4  20  -2   11.51    1.03
  -4  20   2   11.58    1.46
   4  20   3    2.72    0.73
  -4  20  -3    3.14    0.56
  -4 -20   3    2.43    0.40
  -4  20   3    1.65    0.66
  -4  21   0   -0.25    0.42
   4  21   0   -0.09    0.37
  -4 -21   0    0.45    0.27
  -4  21  -1    0.65    0.42
  -4 -21   1    0.89    0.30
   4  21   1    0.03    0.43
  -4  21   1    0.68    0.56
   4  21  -1    0.46    0.37
  -5   0   0   -0.05    0.04
  -5   0   0    0.00    0.03
  -5   0   1  272.19   16.13
  -5   0  -1  287.15   16.15
  -5   0  -1  286.42   16.14
  -5   0  -1  279.42   16.14
   5   0  -2   -0.07    0.05
  -5   0  -2   -0.19    0.05
  -5   0  -2   -0.09    0.07
  -5   0  -2   -0.04    0.05
  -5   0   2   -0.08    0.04
  -5   0  -3   86.48    4.91
  -5   0  -3   81.07    4.89
  -5   0  -3   84.61    4.94
   5   0  -3   85.57    4.91
   5   0  -3   86.75    4.90
   5   0  -4    0.00    0.07
  -5   0  -4    0.07    0.08
  -5   0  -4    0.02    0.03
   5   0  -4   -0.01    0.09
  -5   0  -4    0.09    0.11
   5   0  -5    7.35    0.50
   5   0  -5    7.41    0.53
  -5   0  -5    7.52    0.52
  -5   0  -5    7.70    0.56
  -5   0  -6   -0.13    0.11
  -5   0  -6   -0.08    0.13
   5   0  -6    0.08    0.11
   5   0  -6   -0.11    0.13
  -5   0  -7    0.33    0.19
  -5   0  -7    0.22    0.14
   5   0  -7    0.14    0.16
   5   0  -7    0.27    0.12
  -5   0  -8   -0.06    0.15
  -5   0  -8   -0.16    0.19
   5   0  -8   -0.10    0.12
   5   0  -8   -0.11    0.16
   5   0  -9    0.60    0.25
  -5   0  -9    0.58    0.21
  -5   0  -9    0.73    0.27
   5   0  -9    0.50    0.20
  -5   0 -10   -0.22    0.18
   5   0 -10    0.23    0.19
   5   0 -10    0.04    0.25
  -5   0 -10    0.08    0.26
  -5   0 -11   -0.12    0.23
  -5   0 -11    0.23    0.33
   5   0 -11    0.57    0.40
  -5   1   0    0.12    0.04
  -5   1   0   -0.02    0.04
  -5   1   0    0.01    0.04
  -5  -1   0   -0.01    0.03
  -5  -1   0   -0.03    0.04
  -5   1  -1   47.28    2.80
  -5  -1   1   48.31    2.80
  -5   1  -1   46.95    2.80
  -5   1  -1   50.17    2.81
  -5   1   1   46.99    2.79
  -5  -1  -1   46.04    2.80
  -5  -1  -1   51.48    2.81
  -5  -1  -1   48.75    2.80
  -5  -1   2    3.13    0.19
  -5   1  -2    2.76    0.20
  -5   1  -2    2.78    0.21
  -5   1  -2    2.88    0.23
  -5  -1  -2    2.65    0.20
  -5  -1  -2    2.75    0.21
  -5  -1  -2    2.71    0.23
   5   1  -2    2.86    0.20
   5  -1  -3   15.77    0.90
  -5   1  -3   14.24    0.90
  -5   1  -3   14.79    0.87
  -5  -1   3   14.91    0.86
  -5   1  -3   14.66    0.92
   5  -1  -3   15.02    0.88
  -5  -1  -3   14.54    0.89
   5   1  -3   14.83    0.89
   5   1  -3   15.07    0.89
  -5  -1  -3   14.29    0.87
  -5  -1  -3   13.94    0.92
   5  -1  -4   16.97    1.06
   5  -1  -4   18.71    1.09
  -5   1  -4   18.64    1.08
  -5   1  -4   17.15    1.03
  -5   1  -4   18.83    1.12
  -5  -1  -4   17.25    1.12
   5   1  -4   17.39    1.08
   5   1  -4   17.54    1.07
  -5  -1  -4   17.90    1.08
  -5  -1  -4   17.59    1.04
   5  -1  -5   17.78    1.09
  -5   1  -5   16.59    1.12
  -5   1  -5   18.06    1.08
   5  -1  -5   17.55    1.06
  -5  -1  -5   17.84    1.08
   5   1  -5   17.31    1.09
   5   1  -5   17.04    1.06
  -5  -1  -5   16.78    1.12
  -5   1  -6   41.72    2.61
  -5   1  -6   43.96    2.56
   5  -1  -6   44.28    2.58
   5  -1  -6   42.81    2.53
   5   1  -6   42.74    2.54
  -5  -1  -6   41.62    2.61
   5   1  -6   43.21    2.57
  -5  -1  -6   43.31    2.55
   5  -1  -7    0.37    0.13
  -5   1  -7    0.45    0.16
   5  -1  -7   -0.19    0.15
  -5   1  -7    0.14    0.18
  -5  -1  -7    0.02    0.13
   5   1  -7   -0.02    0.15
   5   1  -7    0.22    0.13
  -5  -1  -7    0.24    0.18
   5  -1  -8   70.65    4.25
  -5   1  -8   69.23    4.27
  -5   1  -8   72.08    4.35
   5  -1  -8   77.23    4.32
  -5  -1  -8   74.68    4.28
  -5  -1  -8   74.38    4.36
   5   1  -8   72.81    4.31
   5   1  -8   69.05    4.25
  -5   1  -9    0.83    0.28
   5  -1  -9    0.83    0.21
   5  -1  -9    0.59    0.23
  -5   1  -9    0.84    0.25
  -5  -1  -9    0.80    0.22
  -5  -1  -9    0.85    0.31
   5   1  -9    0.96    0.21
   5   1  -9    1.07    0.26
  -5   1 -10   38.95    2.37
   5  -1 -10   38.10    2.41
  -5   1 -10   36.30    2.45
   5   1 -10   39.11    2.42
   5   1 -10   39.70    2.35
  -5  -1 -10   38.82    2.47
  -5  -1 -10   37.49    2.36
   5  -1 -11   -0.20    0.26
  -5   1 -11   -0.04    0.31
  -5   1 -11   -0.22    0.22
  -5  -1 -11    0.04    0.24
  -5  -1 -11    0.01    0.32
  -5   2   0    0.05    0.05
  -5  -2   0   -0.02    0.03
  -5   2   0   -0.04    0.03
  -5  -2   0    0.06    0.05
  -5   2   0    0.10    0.06
  -5   2  -1  228.81   13.46
  -5   2  -1  235.03   13.46
  -5  -2   1  236.13   13.46
  -5   2  -1  231.53   13.48
  -5  -2  -1  238.40   13.47
  -5  -2  -1  237.16   13.47
  -5   2  -2    2.76    0.21
  -5   2  -2    2.91    0.24
  -5   2  -2    2.64    0.20
  -5  -2   2    3.07    0.20
  -5  -2  -2    3.20    0.21
  -5  -2  -2    2.96    0.21
  -5  -2  -2    2.66    0.23
   5   2  -2    3.02    0.20
  -5   2  -3  103.35    6.04
  -5  -2   3  104.88    5.98
  -5   2  -3  104.48    5.99
   5  -2  -3  106.21    5.99
  -5   2  -3  106.69    6.02
   5   2  -3  100.74    6.01
  -5  -2  -3  101.79    6.01
  -5  -2  -3  103.34    6.04
  -5  -2  -3  102.40    6.00
   5   2  -3  107.62    6.01
  -5   2  -4   -0.04    0.08
  -5   2  -4    0.02    0.10
   5  -2  -4    0.09    0.07
  -5   2  -4    0.08    0.04
   5  -2  -4    0.28    0.11
  -5  -2   4    0.13    0.03
  -5  -2  -4    0.01    0.10
   5   2  -4    0.08    0.08
  -5  -2  -4    0.13    0.08
  -5  -2  -4   -0.02    0.04
   5   2  -4   -0.03    0.08
   5  -2  -5   34.58    2.05
   5  -2  -5   35.37    2.01
  -5   2  -5   34.94    2.08
  -5   2  -5   34.27    2.04
  -5  -2  -5   34.35    2.03
   5   2  -5   33.11    2.04
   5   2  -5   32.63    2.02
  -5  -2  -5   33.72    2.08
   5  -2  -6    0.12    0.10
  -5   2  -6   -0.14    0.11
  -5   2  -6    0.06    0.15
   5  -2  -6   -0.06    0.13
   5   2  -6    0.06    0.12
  -5  -2  -6   -0.05    0.11
  -5  -2  -6   -0.05    0.14
   5   2  -6    0.11    0.11
  -5   2  -7   20.89    1.45
  -5   2  -7   23.91    1.40
   5  -2  -7   22.51    1.42
   5  -2  -7   22.61    1.36
   5   2  -7   19.51    1.40
   5   2  -7   22.10    1.38
  -5  -2  -7   23.78    1.39
  -5  -2  -7   22.88    1.46
  -5   2  -8    1.44    0.30
   5  -2  -8    1.36    0.28
   5  -2  -8    1.36    0.21
  -5   2  -8    1.69    0.26
   5   2  -8    1.13    0.27
  -5  -2  -8    1.18    0.29
  -5  -2  -8    1.42    0.24
   5   2  -8    1.23    0.23
  -5   2  -9    3.06    0.44
  -5   2  -9    2.56    0.36
   5  -2  -9    3.32    0.42
   5   2  -9    3.53    0.43
  -5  -2  -9    2.62    0.42
   5   2  -9    3.16    0.35
  -5  -2  -9    2.87    0.35
  -5   2 -10    0.31    0.22
  -5   2 -10    0.17    0.26
   5  -2 -10    0.16    0.27
  -5  -2 -10    0.06    0.19
  -5  -2 -10    0.05    0.26
   5   2 -10    0.22    0.21
   5   2 -10   -0.03    0.22
  -5   2 -11    1.88    0.36
  -5   2 -11    2.91    0.50
   5  -2 -11    3.11    0.47
   5   2 -11    2.87    0.38
  -5  -2 -11    2.48    0.41
  -5  -2 -11    2.56    0.49
  -5   3   0   -0.03    0.07
  -5  -3   0   -0.10    0.05
  -5   3   0    0.02    0.04
  -5  -3   1    0.33    0.07
  -5   3  -1    0.27    0.08
  -5   3  -1    0.34    0.07
  -5   3  -1    0.36    0.07
  -5  -3  -1    0.44    0.08
  -5   3   1    0.24    0.04
   5   3  -1    0.34    0.05
  -5  -3  -1    0.26    0.07
  -5   3   1    0.33    0.15
  -5   3  -2    0.92    0.10
  -5   3  -2    0.84    0.11
  -5   3  -2    0.83    0.12
  -5  -3   2    0.99    0.10
  -5  -3  -2    0.95    0.11
  -5  -3  -2    0.94    0.11
  -5  -3  -2    0.94    0.13
  -5   3  -3    1.10    0.14
   5  -3  -3    1.32    0.11
  -5  -3   3    1.14    0.11
  -5   3  -3    1.20    0.17
  -5   3  -3    1.08    0.11
  -5  -3  -3    1.21    0.17
  -5  -3  -3    1.23    0.13
  -5  -3  -3    1.16    0.12
   5   3  -3    1.16    0.13
   5   3  -3    1.14    0.13
  -5   3  -4  101.76    5.90
   5  -3  -4  102.77    5.83
  -5   3  -4  103.59    5.82
  -5   3  -4   99.77    5.87
  -5  -3   4  100.03    5.82
   5   3  -4  102.41    5.86
  -5  -3  -4  103.73    5.86
  -5  -3  -4   99.01    5.90
   5   3  -4   99.93    5.86
  -5  -3  -4   99.43    5.83
   5  -3  -5   24.52    1.49
  -5  -3   5   24.35    1.41
   5  -3  -5   25.34    1.44
  -5   3  -5   24.11    1.51
  -5   3  -5   24.66    1.48
  -5  -3  -5   23.52    1.45
   5   3  -5   24.06    1.46
   5   3  -5   22.65    1.47
  -5  -3  -5   24.44    1.51
  -5   3  -6   20.89    1.39
   5  -3  -6   21.53    1.30
   5  -3  -6   21.48    1.37
  -5   3  -6   22.23    1.35
   5   3  -6   21.80    1.33
  -5  -3  -6   21.77    1.33
   5   3  -6   22.83    1.36
  -5  -3  -6   20.74    1.39
   5  -3  -7    3.87    0.30
   5  -3  -7    2.69    0.35
  -5   3  -7    3.43    0.40
  -5   3  -7    2.71    0.33
  -5  -3  -7    2.84    0.31
   5   3  -7    3.95    0.38
   5   3  -7    3.40    0.33
  -5  -3  -7    3.26    0.40
   5  -3  -8   19.58    1.35
   5  -3  -8   22.39    1.42
  -5   3  -8   21.64    1.46
  -5   3  -8   21.48    1.38
  -5  -3  -8   22.52    1.36
  -5  -3  -8   23.41    1.47
   5   3  -8   21.95    1.40
   5   3  -8   20.80    1.36
  -5   3  -9    0.53    0.27
   5  -3  -9    0.55    0.27
  -5   3  -9    0.27    0.20
   5   3  -9    0.28    0.20
   5   3  -9    0.72    0.27
  -5  -3  -9    0.33    0.21
  -5  -3  -9    0.53    0.27
   5  -3 -10    6.28    0.65
  -5   3 -10    6.04    0.65
  -5   3 -10    4.89    0.56
  -5  -3 -10    6.47    0.57
  -5  -3 -10    5.32    0.65
   5   3 -10    7.04    0.59
  -5   3 -11    0.46    0.29
  -5   3 -11   -0.06    0.27
   5  -3 -11   -0.15    0.26
   5   3 -11    0.29    0.25
  -5  -3 -11   -0.19    0.26
  -5   4   0   -0.05    0.03
  -5   4   0   -0.06    0.07
  -5  -4   0    0.00    0.05
  -5   4  -1    8.83    0.54
  -5   4  -1    8.41    0.57
  -5  -4   1    9.37    0.55
  -5   4  -1    8.87    0.54
  -5   4   1    8.25    0.67
  -5  -4  -1    9.19    0.55
   5   4  -1    8.11    0.55
  -5   4   1    8.46    0.51
  -5  -4   2  137.05    7.67
  -5   4  -2  132.24    7.67
  -5   4  -2  134.09    7.68
  -5   4  -2  136.00    7.71
  -5  -4  -2  135.08    7.70
  -5  -4  -2  131.97    7.67
   5   4  -2  130.31    7.67
  -5  -4  -2  129.84    7.68
  -5   4  -3   77.08    4.61
  -5   4  -3   80.49    4.59
  -5  -4   3   78.94    4.56
  -5   4  -3   79.07    4.56
   5   4  -3   77.81    4.57
  -5  -4  -3   80.09    4.57
  -5  -4  -3   77.91    4.61
  -5  -4  -3   78.58    4.57
   5   4  -3   81.34    4.58
   5  -4  -4    5.23    0.33
  -5   4  -4    4.81    0.40
  -5   4  -4    4.90    0.32
  -5  -4   4    5.08    0.33
  -5   4  -4    4.45    0.37
  -5  -4  -4    5.06    0.36
  -5  -4  -4    5.01    0.40
   5   4  -4    5.30    0.37
  -5  -4  -4    4.98    0.34
   5   4  -4    5.22    0.37
  -5   4  -5    0.47    0.14
  -5  -4   5    0.32    0.07
  -5   4  -5    0.39    0.15
   5  -4  -5    0.25    0.08
  -5  -4  -5    0.25    0.15
  -5  -4  -5    0.42    0.07
  -5  -4  -5    0.34    0.11
   5   4  -5    0.12    0.12
   5   4  -5    0.16    0.11
   5  -4  -6    4.15    0.37
  -5   4  -6    3.64    0.40
  -5   4  -6    3.72    0.36
   5  -4  -6    4.32    0.30
   5   4  -6    3.98    0.34
   5   4  -6    3.50    0.35
  -5  -4  -6    4.35    0.34
  -5  -4  -6    3.68    0.41
   5  -4  -7    0.46    0.19
  -5   4  -7    0.17    0.18
   5  -4  -7    0.31    0.12
  -5   4  -7    0.60    0.18
  -5  -4  -7    0.24    0.15
   5   4  -7    0.53    0.16
  -5  -4  -7    0.28    0.19
   5   4  -7    0.76    0.18
  -5   4  -8    3.11    0.36
  -5   4  -8    3.32    0.43
   5  -4  -8    2.78    0.38
   5   4  -8    3.56    0.37
   5   4  -8    2.76    0.36
  -5  -4  -8    3.38    0.43
  -5  -4  -8    2.80    0.33
   5  -4  -9    1.95    0.37
  -5   4  -9    1.55    0.34
  -5   4  -9    1.50    0.31
  -5  -4  -9    2.26    0.31
  -5  -4  -9    2.12    0.39
   5   4  -9    1.86    0.31
   5   4  -9    2.34    0.31
  -5   4 -10    0.36    0.27
  -5   4 -10    0.46    0.25
   5  -4 -10    0.10    0.25
   5   4 -10    0.09    0.20
  -5  -4 -10    0.32    0.31
  -5   4 -11    1.52    0.38
  -5   4 -11    1.97    0.36
   5  -4 -11    1.26    0.35
   5   4 -11    1.77    0.35
  -5  -4 -11    1.46    0.39
  -5   5   0   -0.07    0.04
  -5   5   0    0.05    0.12
  -5  -5   0   -0.11    0.06
  -5   5  -1    1.48    0.19
  -5   5  -1    0.90    0.12
  -5  -5   1    1.14    0.14
   5   5  -1    1.21    0.17
  -5   5   1    1.02    0.25
  -5  -5  -1    1.41    0.15
  -5   5   1    1.21    0.09
  -5   5  -2    7.22    0.47
  -5  -5   2    7.31    0.47
  -5   5  -2    7.25    0.47
  -5   5  -2    6.74    0.50
  -5  -5  -2    7.19    0.49
  -5  -5  -2    7.51    0.47
   5   5  -2    7.59    0.47
  -5  -5  -2    7.22    0.47
  -5   5  -3   11.39    0.72
  -5   5  -3   12.14    0.78
  -5   5  -3   12.05    0.75
  -5  -5   3   11.82    0.72
  -5  -5  -3   11.48    0.72
  -5  -5  -3   12.15    0.73
   5   5  -3   11.40    0.73
  -5  -5  -3   11.63    0.76
   5   5  -3   11.83    0.74
   5  -5  -4    2.72    0.19
  -5  -5   4    2.65    0.21
  -5   5  -4    2.38    0.25
  -5   5  -4    2.81    0.20
  -5   5  -4    2.97    0.31
   5   5  -4    2.70    0.26
  -5  -5  -4    2.45    0.23
   5   5  -4    2.75    0.24
  -5  -5  -4    2.38    0.28
  -5  -5  -4    2.40    0.21
  -5   5  -5    6.95    0.51
   5  -5  -5    6.78    0.45
  -5   5  -5    7.33    0.55
  -5  -5   5    7.44    0.46
  -5  -5  -5    6.39    0.54
  -5  -5  -5    6.88    0.48
   5   5  -5    7.33    0.51
  -5  -5  -5    7.58    0.46
   5   5  -5    6.93    0.50
  -5   5  -6    6.29    0.50
   5  -5  -6    6.69    0.44
  -5   5  -6    7.06    0.56
   5   5  -6    6.81    0.51
  -5  -5  -6    6.31    0.47
  -5  -5  -6    6.68    0.55
   5   5  -6    6.65    0.49
  -5   5  -7    0.64    0.22
  -5   5  -7    0.39    0.17
  -5  -5  -7    0.34    0.14
   5   5  -7    0.29    0.18
   5   5  -7    0.02    0.14
  -5  -5  -7    0.61    0.24
  -5   5  -8    2.16    0.31
  -5   5  -8    2.21    0.38
   5   5  -8    2.71    0.35
  -5  -5  -8    2.16    0.28
   5   5  -8    2.52    0.31
  -5  -5  -8    2.20    0.36
  -5   5  -9   -0.12    0.23
  -5   5  -9    0.01    0.22
   5   5  -9    0.20    0.21
  -5  -5  -9   -0.03    0.23
   5   5  -9    0.01    0.24
  -5   5 -10   -0.15    0.21
  -5   5 -10    0.12    0.25
  -5  -5 -10    0.02    0.26
   5   5 -10   -0.30    0.21
  -5   6   0    0.01    0.05
  -5  -6   0   -0.03    0.07
  -5   6   0   -0.13    0.11
  -5  -6   1    0.23    0.08
  -5   6  -1    0.07    0.09
  -5   6  -1    0.10    0.06
  -5   6   1    0.10    0.03
  -5  -6  -1    0.11    0.07
   5   6  -1    0.11    0.08
  -5   6   1    0.04    0.15
  -5   6  -2    4.53    0.30
  -5   6  -2    4.17    0.30
  -5  -6   2    4.25    0.31
  -5   6  -2    3.73    0.33
   5   6  -2    4.12    0.30
  -5  -6  -2    4.14    0.31
  -5   6  -3    0.05    0.10
  -5   6  -3    0.11    0.09
  -5  -6   3   -0.01    0.07
  -5   6  -3    0.18    0.07
   5   6  -3    0.10    0.08
   5   6  -3    0.04    0.08
  -5  -6  -3    0.21    0.11
  -5  -6  -3    0.17    0.07
  -5  -6  -3    0.08    0.08
  -5  -6   4    0.29    0.09
  -5   6  -4    0.35    0.14
   5  -6  -4    0.33    0.06
  -5   6  -4    0.32    0.08
  -5   6  -4    0.34    0.12
   5   6  -4    0.48    0.12
   5   6  -4    0.44    0.11
  -5  -6  -4    0.49    0.10
   5   6  -4    0.35    0.04
  -5  -6  -4    0.41    0.14
  -5  -6  -4    0.50    0.10
   5  -6  -5    0.47    0.09
  -5   6  -5    0.33    0.15
  -5   6  -5    0.65    0.16
  -5  -6   5    0.51    0.11
   5   6  -5    0.30    0.13
   5   6  -5    0.36    0.13
  -5  -6  -5    0.51    0.10
  -5  -6  -5    0.33    0.16
  -5  -6  -5    0.53    0.12
  -5   6  -6    7.60    0.59
  -5   6  -6    6.93    0.54
   5   6  -6    7.70    0.54
  -5  -6  -6    6.82    0.57
  -5  -6  -6    7.55    0.51
   5   6  -6    6.19    0.52
  -5   6  -7    2.69    0.33
  -5   6  -7    2.71    0.37
   5   6  -7    2.63    0.31
   5   6  -7    2.68    0.32
  -5  -6  -7    2.43    0.35
  -5  -6  -7    2.48    0.28
  -5   6  -8    8.17    0.66
  -5   6  -8    6.89    0.59
  -5  -6  -8    7.24    0.55
   5   6  -8    7.34    0.61
  -5  -6  -8    6.91    0.64
   5   6  -8    7.94    0.59
  -5   6  -9    1.02    0.28
  -5   6  -9    0.64    0.24
   5   6  -9    0.51    0.22
  -5  -6  -9    1.01    0.30
  -5   6 -10    0.77    0.31
  -5   6 -10    0.69    0.27
  -5  -6 -10    0.83    0.33
   5   6 -10    0.09    0.22
  -5   7   0   -0.03    0.12
  -5  -7   0    0.02    0.08
  -5   7   0    0.05    0.05
  -5  -7   1    1.18    0.15
  -5   7  -1    0.99    0.19
  -5   7  -1    1.16    0.13
  -5   7   1    0.92    0.28
   5   7  -1    1.43    0.23
  -5   7   1    1.13    0.09
  -5  -7  -1    0.88    0.14
  -5   7  -2    1.00    0.19
  -5   7  -2    0.80    0.13
  -5  -7   2    0.91    0.14
  -5  -7  -2    1.05    0.15
   5   7  -2    1.07    0.16
  -5   7  -3   26.59    1.56
  -5  -7   3   26.08    1.56
  -5   7  -3   26.52    1.57
  -5   7  -3   26.34    1.62
  -5  -7  -3   25.63    1.55
   5   7  -3   25.57    1.57
   5   7  -3   26.07    1.57
  -5  -7  -3   26.73    1.57
  -5   7  -4    3.37    0.35
  -5   7  -4    3.53    0.32
  -5  -7   4    3.33    0.28
  -5   7  -4    3.42    0.26
   5   7  -4    3.76    0.30
   5   7  -4    2.90    0.30
  -5  -7  -4    2.96    0.26
  -5  -7  -4    3.91    0.29
  -5  -7  -4    3.62    0.36
  -5  -7   5   11.05    0.71
  -5   7  -5   11.23    0.76
  -5   7  -5   11.29    0.80
  -5  -7  -5   10.95    0.79
  -5  -7  -5   11.39    0.71
   5   7  -5   10.99    0.75
  -5  -7  -5   12.04    0.72
   5   7  -5   11.14    0.75
  -5   7  -6   27.51    1.82
  -5   7  -6   28.83    1.77
   5   7  -6   30.07    1.78
  -5  -7  -6   29.19    1.73
  -5  -7  -6   28.37    1.82
   5   7  -6   28.97    1.77
  -5   7  -7    1.12    0.22
  -5   7  -7    1.00    0.25
   5   7  -7    1.07    0.22
   5   7  -7    1.19    0.22
  -5  -7  -7    0.72    0.26
  -5  -7  -7    0.90    0.18
  -5   7  -8    5.11    0.57
  -5   7  -8    6.00    0.54
   5   7  -8    5.62    0.53
  -5  -7  -8    6.26    0.62
   5   7  -8    5.70    0.53
  -5   7  -9    1.28    0.29
  -5   7  -9    1.02    0.31
   5   7  -9    1.34    0.27
  -5  -7  -9    0.81    0.31
  -5   7 -10   13.18    1.08
  -5   7 -10   14.66    1.03
  -5  -7 -10   15.18    1.11
   5   7 -10   13.48    1.00
  -5  -8   0   -0.06    0.09
  -5   8   0    0.00    0.17
   5   8   0   -0.22    0.15
  -5   8   0   -0.05    0.05
  -5  -8   1   82.58    4.59
  -5   8  -1   84.00    4.70
  -5   8  -1   81.28    4.56
   5   8  -1   74.15    4.67
  -5  -8  -1   81.43    4.59
  -5   8   1   68.42    4.81
  -5   8   1   77.48    4.53
  -5   8  -2    5.62    0.43
  -5   8  -2    4.55    0.35
  -5  -8   2    4.87    0.37
  -5  -8  -2    5.14    0.38
   5   8  -2    4.75    0.38
  -5   8  -3   51.08    2.98
  -5   8  -3   52.84    2.99
  -5   8  -3   49.88    3.04
  -5  -8   3   50.38    2.99
   5   8  -3   52.18    3.00
  -5  -8  -3   52.18    2.99
  -5  -8  -3   49.47    2.96
   5   8  -3   48.95    2.99
  -5  -8   4    4.47    0.36
  -5   8  -4    4.19    0.40
  -5   8  -4    4.80    0.34
  -5   8  -4    4.58    0.37
   5   8  -4    4.90    0.37
  -5  -8  -4    4.60    0.35
  -5  -8  -4    4.69    0.33
   5   8  -4    4.92    0.38
  -5   8  -5    2.37    0.32
  -5  -8   5    2.90    0.25
  -5   8  -5    2.56    0.29
  -5  -8  -5    2.15    0.23
   5   8  -5    2.61    0.28
  -5  -8  -5    2.61    0.24
   5   8  -5    2.06    0.26
  -5   8  -6    9.71    0.74
  -5   8  -6   10.04    0.70
  -5  -8  -6   10.05    0.65
   5   8  -6   10.16    0.70
   5   8  -6    9.66    0.69
  -5  -8  -6    9.35    0.74
  -5   8  -7    2.19    0.35
  -5   8  -7    1.82    0.28
   5   8  -7    2.10    0.29
   5   8  -7    1.51    0.26
  -5  -8  -7    1.25    0.28
  -5   8  -8   14.98    1.03
  -5   8  -8   15.33    1.08
   5   8  -8   16.13    1.02
  -5  -8  -8   12.94    1.06
  -5   8  -9    8.43    0.74
  -5   8  -9    9.95    0.82
  -5  -8  -9   10.05    0.82
   5   8  -9    9.93    0.76
  -5   8 -10    0.29    0.26
  -5   8 -10    0.21    0.30
  -5  -8 -10    0.18    0.32
   5   8 -10    0.19    0.23
   5   9   0   -0.04    0.14
  -5   9   0   -0.11    0.15
  -5   9   0   -0.04    0.06
  -5  -9   0   -0.03    0.09
  -5  -9   1    2.38    0.25
  -5   9  -1    2.93    0.21
  -5   9  -1    2.46    0.35
  -5  -9  -1    2.33    0.24
  -5   9   1    1.86    0.41
   5   9  -1    2.70    0.37
  -5   9   1    2.20    0.16
  -5  -9   2    1.72    0.20
  -5   9  -2    1.53    0.25
  -5   9  -2    1.67    0.18
  -5   9   2    1.75    0.43
   5   9  -2    1.77    0.24
  -5  -9  -2    1.94    0.22
  -5   9  -3    0.24    0.13
  -5   9  -3    0.20    0.10
  -5   9  -3    0.31    0.12
  -5  -9   3    0.20    0.11
   5   9  -3    0.40    0.13
  -5  -9  -3    0.32    0.12
  -5  -9  -3    0.33    0.09
   5   9  -3    0.32    0.11
  -5   9  -4    5.05    0.46
  -5   9  -4    5.64    0.39
  -5   9  -4    4.95    0.43
  -5  -9   4    6.25    0.42
   5   9  -4    5.02    0.41
   5   9  -4    5.60    0.42
  -5  -9  -4    5.35    0.38
  -5  -9  -4    4.86    0.40
  -5   9  -5    1.07    0.20
  -5  -9   5    1.35    0.19
  -5   9  -5    1.44    0.26
   5   9  -5    1.31    0.21
  -5  -9  -5    1.26    0.17
  -5  -9  -5    1.51    0.19
   5   9  -5    1.05    0.19
  -5   9  -6    7.11    0.62
  -5   9  -6    7.22    0.58
   5   9  -6    8.09    0.58
   5   9  -6    7.57    0.59
  -5   9  -7    1.03    0.26
  -5   9  -7    0.91    0.23
   5   9  -7    0.72    0.21
   5   9  -7    1.19    0.24
  -5   9  -8   17.37    1.29
  -5   9  -8   18.37    1.22
   5   9  -8   19.11    1.22
  -5   9  -9    0.47    0.26
  -5   9  -9    0.35    0.25
   5   9  -9   -0.02    0.20
  -5   9 -10   35.84    2.33
  -5   9 -10   36.49    2.41
   5   9 -10   38.97    2.34
  -5  10   0   -0.04    0.06
  -5  10   0   -0.10    0.17
  -5 -10   0   -0.01    0.11
   5  10   0   -0.05    0.17
  -5  10  -1   80.55    4.37
  -5 -10   1   71.49    4.21
  -5  10  -1   73.35    4.17
  -5 -10  -1   72.98    4.21
  -5  10   1   60.29    4.45
   5  10  -1   70.21    4.33
  -5  10  -2    1.90    0.21
  -5  10  -2    1.99    0.30
  -5 -10   2    2.00    0.23
  -5 -10  -2    1.89    0.23
   5  10  -2    1.89    0.28
  -5  10   2    2.14    0.48
  -5  10  -3   46.10    2.74
  -5  10  -3   47.98    2.75
  -5  10  -3   45.91    2.82
  -5 -10   3   46.32    2.76
  -5 -10  -3   48.77    2.76
  -5 -10  -3   44.04    2.72
   5  10  -3   46.23    2.77
  -5 -10   4    1.54    0.22
  -5  10  -4    1.90    0.21
  -5  10  -4    1.55    0.22
  -5  10  -4    1.69    0.27
   5  10  -4    1.66    0.23
   5  10  -4    2.03    0.24
  -5 -10  -4    2.16    0.20
  -5 -10  -4    1.88    0.23
  -5 -10   5   26.28    1.54
  -5  10  -5   23.27    1.60
  -5  10  -5   23.48    1.54
   5  10  -5   25.82    1.56
   5  10  -5   24.40    1.54
  -5 -10  -5   25.95    1.52
  -5  10  -6    1.63    0.27
  -5  10  -6    1.80    0.31
   5  10  -6    1.75    0.27
   5  10  -6    1.53    0.25
  -5  10  -7    0.08    0.19
  -5  10  -7    0.14    0.19
   5  10  -7    0.01    0.19
  -5  10  -8    5.49    0.63
  -5  10  -8    5.64    0.56
   5  10  -8    6.50    0.56
  -5  10  -9   -0.10    0.21
  -5  10  -9    0.09    0.24
   5  10  -9   -0.15    0.20
   5  11   0    0.04    0.20
  -5 -11   0    0.04    0.12
  -5  11   0   -0.04    0.20
  -5  11   0   -0.01    0.06
  -5 -11   1    1.09    0.20
  -5  11  -1    1.65    0.32
  -5  11  -1    1.15    0.16
   5  11  -1    1.60    0.30
  -5  11   1    1.61    0.40
  -5 -11  -1    1.75    0.23
  -5  11  -2   16.97    1.13
  -5 -11   2   15.76    1.03
  -5  11  -2   17.23    1.01
  -5 -11  -2   15.57    1.03
  -5  11   2   13.47    1.31
   5  11  -2   16.39    1.09
  -5  11  -3    8.77    0.58
  -5  11  -3    8.16    0.65
  -5 -11   3    8.65    0.59
  -5 -11  -3    7.26    0.54
  -5 -11  -3    8.40    0.59
   5  11  -3    8.78    0.62
  -5  11  -4    2.96    0.31
  -5  11  -4    3.03    0.28
  -5  11  -4    2.71    0.36
  -5 -11   4    2.44    0.29
   5  11  -4    2.47    0.29
   5  11  -4    3.68    0.32
  -5 -11  -4    3.08    0.31
  -5 -11   5    4.14    0.40
  -5  11  -5    4.45    0.48
  -5  11  -5    4.05    0.41
  -5 -11  -5    4.91    0.38
   5  11  -5    4.53    0.40
   5  11  -5    3.40    0.38
  -5  11  -6    5.13    0.49
  -5  11  -6    5.46    0.56
   5  11  -6    5.87    0.48
   5  11  -6    5.21    0.47
  -5  11  -7    1.53    0.31
  -5  11  -7    1.44    0.31
   5  11  -7    1.51    0.27
  -5  11  -8    9.30    0.78
  -5  11  -8    9.07    0.72
   5  11  -8    8.53    0.70
  -5  11  -9    1.60    0.37
  -5  11  -9    1.27    0.32
   5  11  -9    1.50    0.33
  -5 -12   0    0.01    0.13
   5  12   0    0.07    0.21
  -5  12   0    0.01    0.07
  -5  12   0   -0.17    0.19
  -5  12  -1   46.97    2.77
  -5 -12   1   45.19    2.82
   5  12   1   44.66    3.07
  -5  12  -1   54.81    3.04
  -5 -12  -1   46.32    2.83
  -5  12   1   44.21    3.14
   5  12  -1   50.24    2.99
  -5 -12   2    0.19    0.13
  -5  12  -2    0.01    0.11
  -5  12  -2    0.22    0.17
  -5 -12  -2    0.24    0.13
  -5  12   2    0.12    0.32
   5  12  -2    0.11    0.16
  -5  12  -3   29.72    1.83
  -5  12  -3   28.60    1.72
  -5 -12   3   27.13    1.73
   5  12  -3   29.98    1.78
  -5 -12  -3   29.46    1.74
  -5 -12  -3   24.85    1.71
  -5  12   3   29.68    2.15
  -5  12  -4    1.85    0.26
  -5 -12   4    2.30    0.28
  -5  12  -4    2.40    0.35
  -5  12  -4    2.33    0.26
   5  12  -4    2.67    0.30
   5  12  -4    2.79    0.32
  -5 -12  -4    1.93    0.27
  -5  12  -5    3.52    0.37
  -5 -12   5    4.05    0.39
  -5  12  -5    3.85    0.46
  -5 -12  -5    3.52    0.35
   5  12  -5    3.11    0.35
   5  12  -5    4.14    0.41
  -5  12  -6    0.57    0.24
  -5  12  -6    0.79    0.22
   5  12  -6    0.92    0.22
  -5  12  -7    1.96    0.32
  -5  12  -7    2.80    0.42
   5  12  -7    2.14    0.32
  -5  12  -8    1.21    0.35
  -5  12  -8    0.52    0.26
   5  12  -8    0.58    0.25
  -5  12  -9    1.08    0.30
  -5  12  -9    1.08    0.36
   5  12  -9    1.13    0.30
  -5  13   0    0.17    0.26
   5  13   0    0.43    0.25
  -5 -13   0   -0.19    0.13
   5  13   1    0.14    0.25
  -5 -13   1    0.55    0.17
  -5  13  -1    0.53    0.13
  -5  13  -1    0.54    0.27
   5  13  -1    0.34    0.24
  -5  13   1    0.39    0.33
  -5 -13  -1    0.45    0.18
  -5 -13   2    0.36    0.16
  -5  13  -2    0.01    0.12
  -5  13  -2    0.18    0.21
  -5  13   2   -0.13    0.30
  -5 -13  -2    0.10    0.15
   5  13  -2    0.07    0.17
  -5  13  -3    0.41    0.21
  -5 -13   3    0.52    0.20
  -5  13  -3    0.44    0.15
  -5  13   3   -0.39    0.24
   5  13  -3    0.53    0.17
  -5 -13  -3    0.26    0.17
  -5  13  -4    0.08    0.18
  -5  13  -4    0.16    0.13
  -5  13  -4    0.40    0.16
  -5 -13   4    0.21    0.17
   5  13  -4    0.14    0.15
  -5 -13  -4    0.07    0.15
  -5  13  -5    0.16    0.22
  -5  13  -5    0.18    0.19
  -5 -13   5   -0.14    0.17
   5  13  -5    0.66    0.19
   5  13  -5    0.57    0.20
  -5  13  -6   15.15    1.06
  -5  13  -6   14.87    1.12
   5  13  -6   16.74    1.07
  -5  13  -7    0.55    0.29
  -5  13  -7    0.56    0.27
   5  13  -7    0.71    0.23
  -5  13  -8    3.69    0.45
  -5  13  -8    3.26    0.51
   5  13  -8    2.88    0.40
  -5 -14   0    0.05    0.14
   5  14   0   -0.15    0.28
  -5  14   0    0.32    0.39
  -5 -14   1   16.72    1.12
   5  14   1   13.72    1.35
  -5  14  -1   19.52    1.35
  -5  14   1   19.74    1.53
   5  14  -1   18.68    1.32
  -5 -14  -1   15.82    1.11
  -5  14  -2    0.04    0.21
  -5 -14   2   -0.10    0.15
  -5  14  -2   -0.04    0.12
  -5 -14  -2    0.19    0.17
   5  14  -2    0.01    0.17
  -5  14   2   -0.15    0.28
  -5 -14   3    2.13    0.31
  -5  14  -3    2.68    0.30
  -5  14  -3    1.83    0.36
  -5  14   3    2.16    0.62
  -5 -14  -3    2.27    0.30
   5  14  -3    2.97    0.37
  -5  14  -4    5.63    0.59
  -5 -14   4    4.77    0.47
  -5  14  -4    3.87    0.41
  -5  14  -4    5.31    0.42
  -5 -14  -4    4.46    0.44
   5  14  -4    4.23    0.46
  -5  14   4    3.25    0.70
  -5  14  -5    0.37    0.22
  -5  14  -5    0.42    0.24
  -5 -14   5    0.38    0.21
  -5  14  -6    8.48    0.68
  -5  14  -6    9.03    0.76
  -5 -14   6    9.12    0.76
   5  14  -6    8.24    0.67
  -5  14  -7    0.01    0.22
  -5  14  -7   -0.02    0.21
   5  14  -7    0.27    0.21
  -5  14  -8   -0.01    0.23
  -5  14  -8    0.33    0.27
   5  14  -8    0.08    0.22
  -5  15   0   -0.06    0.32
   5  15   0    0.27    0.35
  -5 -15   0    0.06    0.17
  -5  15  -1    2.33    0.50
   5  15   1    2.96    0.59
  -5 -15   1    2.36    0.33
  -5 -15  -1    2.60    0.34
   5  15  -1    3.09    0.52
  -5  15   1    1.95    0.59
  -5  15  -2    4.34    0.57
  -5  15  -2    3.00    0.37
  -5 -15   2    3.64    0.40
   5  15   2    4.13    0.69
   5  15  -2    3.21    0.47
  -5 -15  -2    3.03    0.37
  -5  15   2    2.47    0.67
  -5 -15   3   15.08    1.03
  -5  15  -3   16.80    1.15
  -5  15  -3   14.25    0.98
  -5  15   3   12.54    1.54
  -5 -15  -3   14.22    1.01
   5  15  -3   15.95    1.09
  -5 -15   4    7.31    0.63
  -5  15  -4    9.60    0.62
  -5  15  -4    8.49    0.60
  -5  15  -4    7.71    0.70
  -5 -15  -4    7.28    0.61
   5  15  -4    6.84    0.66
  -5  15   4    5.77    0.98
  -5  15  -5    4.90    0.48
  -5 -15   5    4.56    0.49
  -5  15  -5    5.34    0.60
  -5  15  -6    0.45    0.22
  -5  15  -6    0.21    0.23
  -5 -15   6    0.19    0.24
   5  15  -6    0.34    0.20
  -5  15  -7    0.79    0.31
  -5  15  -7    0.32    0.26
   5  15  -7   -0.50    0.19
   5  16   0   -0.13    0.27
  -5 -16   0   -0.26    0.16
  -5  16   0    0.12    0.32
  -5 -16   1    0.58    0.22
   5  16   1    1.08    0.46
  -5  16  -1    0.56    0.36
  -5  16   1    1.36    0.50
  -5 -16  -1    0.60    0.22
   5  16  -1    1.02    0.39
  -5  16  -2    6.22    0.75
   5  16   2    6.48    0.99
  -5 -16   2    6.45    0.55
  -5 -16  -2    5.73    0.56
   5  16  -2    6.97    0.72
  -5  16   2    6.15    1.01
  -5  16  -3    1.65    0.38
  -5  16  -3    1.82    0.27
  -5 -16   3    1.30    0.27
   5  16  -3    1.57    0.34
  -5 -16  -3    1.54    0.28
  -5  16   3    1.37    0.57
  -5  16  -4    6.70    0.55
  -5  16  -4    6.88    0.54
  -5 -16   4    5.76    0.58
  -5  16  -4    7.35    0.74
  -5 -16  -4    5.69    0.55
  -5  16   4    4.03    0.86
  -5  16  -5    0.45    0.23
  -5  16  -5    0.41    0.27
  -5 -16   5   -0.07    0.22
  -5  16   5   -0.17    0.35
  -5  16  -6    0.12    0.23
  -5 -16   6   -0.08    0.22
  -5  16  -6   -0.25    0.22
  -5  16  -7    0.41    0.24
  -5  16  -7   -0.07    0.26
  -5 -17   0   -0.09    0.18
   5  17   0   -0.04    0.32
  -5  17   0   -0.07    0.32
   5  17   1    0.44    0.43
  -5  17  -1    0.20    0.30
  -5 -17   1    0.14    0.20
  -5  17   1    0.41    0.47
  -5 -17  -1    0.23    0.21
   5  17  -1    0.16    0.30
   5  17   2    0.88    0.48
  -5 -17   2   -0.16    0.21
  -5  17  -2    0.35    0.29
  -5 -17  -2    0.38    0.23
  -5  17   2   -0.20    0.38
   5  17  -2   -0.06    0.20
  -5  17  -3    1.89    0.40
  -5 -17   3    1.17    0.29
   5  17   3    0.73    0.46
  -5 -17  -3    1.39    0.27
  -5  17   3    0.83    0.53
  -5 -17   4    1.19    0.28
  -5  17  -4    1.11    0.33
  -5  17  -4    1.15    0.27
  -5  17   4    1.46    0.59
  -5  17  -5    0.27    0.24
  -5  17  -5    0.65    0.31
  -5 -17   5    0.54    0.25
  -5  17   5    0.03    0.39
  -5 -17   6    0.54    0.27
  -5  17  -6    0.72    0.31
  -5  17  -6    0.45    0.27
   5  18   0    0.10    0.35
  -5 -18   0   -0.20    0.19
  -5  18   0   -0.21    0.32
  -5 -18   1   29.78    2.10
  -5  18  -1   40.41    2.44
   5  18   1   25.70    2.37
  -5  18   1   40.05    2.62
  -5 -18  -1   32.52    2.11
   5  18  -1   38.69    2.37
  -5  18  -2    0.10    0.29
  -5 -18   2   -0.41    0.22
   5  18   2    0.11    0.38
  -5 -18  -2   -0.23    0.17
  -5  18   2   -0.14    0.39
   5  18  -2   -0.08    0.26
   5  18   3    4.67    0.86
  -5 -18   3    5.50    0.59
  -5  18  -3    7.06    0.79
  -5 -18  -3    6.12    0.58
  -5  18   3    4.74    0.95
  -5 -18   4    0.31    0.24
  -5  18  -4    0.49    0.31
  -5  18   4    0.11    0.46
  -5  18  -5    2.93    0.46
  -5  18  -5    3.39    0.52
  -5 -18   5    2.75    0.42
  -5  18   5    3.04    0.80
   5  19   0    0.11    0.38
  -5  19   0    0.05    0.38
  -5 -19   0   -0.20    0.22
   5  19   1    0.48    0.43
  -5  19  -1    1.20    0.49
  -5 -19   1    0.53    0.27
   5  19  -1    1.06    0.41
  -5  19   1    0.92    0.53
  -5 -19  -1    0.88    0.27
   5  19   2    1.29    0.51
  -5  19  -2    1.91    0.48
  -5 -19   2    1.06    0.34
  -5 -19  -2    1.64    0.34
  -5  19   2    1.24    0.58
  -5  19  -3    1.33    0.41
   5  19   3    0.86    0.56
  -5 -19   3    1.83    0.37
  -5  19   3    1.54    0.67
  -5  19  -4   20.83    1.40
  -5 -19   4   17.65    1.24
   5  19   4   14.61    1.73
  -5  19   4   13.86    1.80
  -5 -20   0   -0.03    0.25
  -5  20   0    0.33    0.48
   5  20   0   -0.14    0.41
  -5 -20   1   34.12    2.35
  -5  20  -1   45.35    2.71
   5  20   1   31.12    2.66
  -5  20   1   39.02    2.83
   5  20  -1   45.39    2.88
  -5 -20  -1   35.04    2.34
  -5  20  -2    1.79    0.48
   5  20   2    0.74    0.52
  -5 -20   2    1.88    0.38
  -5  20   2    0.69    0.56
  -5 -20  -2    1.76    0.34
   5  20   3   12.02    1.67
  -5  20  -3   24.93    1.55
  -5 -20   3   18.56    1.30
  -5  20   3   16.37    1.92
  -5  21   0    0.03    0.44
   5  21   0   -0.05    0.42
  -5 -21   0    0.08    0.27
  -6   0   0    3.65    0.29
  -6   0   0    3.69    0.30
  -6   0  -1    0.03    0.07
  -6   0   1   -0.02    0.05
  -6   0  -1    0.00    0.06
  -6   0  -1   -0.01    0.06
  -6   0   1    0.01    0.06
  -6   0  -2   19.52    1.19
  -6   0  -2   19.73    1.16
  -6   0   2   20.23    1.15
  -6   0  -2   18.79    1.17
   6   0  -3    0.07    0.06
   6   0  -3    0.12    0.06
  -6   0  -3    0.18    0.07
  -6   0  -3   -0.02    0.08
  -6   0  -3    0.04    0.05
   6   0  -4    0.64    0.12
  -6   0  -4    0.50    0.12
  -6   0  -4    0.66    0.15
  -6   0  -4    0.51    0.07
   6   0  -4    0.48    0.10
   6   0  -5    0.19    0.11
  -6   0  -5    0.21    0.13
   6   0  -5   -0.03    0.09
  -6   0  -5    0.06    0.11
   6   0  -6    3.34    0.30
   6   0  -6    3.97    0.34
  -6   0  -6    3.58    0.33
  -6   0  -6    3.14    0.37
   6   0  -7   -0.17    0.12
  -6   0  -7    0.03    0.14
  -6   0  -7   -0.04    0.17
   6   0  -7   -0.14    0.12
  -6   0  -8    4.71    0.43
   6   0  -8    3.89    0.43
   6   0  -8    4.21    0.38
  -6   0  -8    3.03    0.44
   6   0  -9    0.12    0.22
   6   0  -9   -0.02    0.15
  -6   0  -9   -0.06    0.21
  -6   0  -9    0.20    0.20
  -6   0 -10    2.91    0.49
   6   0 -10    2.33    0.35
  -6   0 -10    2.52    0.37
   6   0 -10    2.72    0.41
  -6   0 -11   -0.28    0.23
  -6   0 -11   -0.26    0.25
  -6   1   0    3.85    0.27
  -6   1   0    3.30    0.26
  -6  -1   0    3.63    0.26
  -6   1   0    3.29    0.27
  -6  -1   1   39.10    2.21
  -6   1  -1   37.78    2.22
  -6   1  -1   36.95    2.21
  -6  -1  -1   36.92    2.22
  -6  -1  -1   38.63    2.22
  -6  -1  -1   39.16    2.22
  -6   1   1   36.78    2.21
  -6  -1   2    7.08    0.41
  -6   1  -2    6.37    0.43
  -6   1  -2    6.17    0.42
  -6   1  -2    6.73    0.45
   6   1  -2    7.18    0.41
  -6  -1  -2    6.37    0.43
  -6  -1  -2    6.41    0.43
  -6  -1  -2    6.74    0.45
  -6   1  -3   27.30    1.59
  -6   1  -3   26.53    1.57
   6  -1  -3   28.21    1.57
  -6   1  -3   27.09    1.62
  -6  -1   3   27.19    1.55
  -6  -1  -3   26.73    1.57
   6   1  -3   24.72    1.57
  -6  -1  -3   26.42    1.58
  -6  -1  -3   26.68    1.61
   6   1  -3   26.85    1.58
  -6   1  -4    0.10    0.05
  -6   1  -4   -0.03    0.10
  -6  -1   4    0.10    0.04
   6  -1  -4    0.12    0.10
  -6   1  -4   -0.12    0.08
   6  -1  -4    0.12    0.08
  -6  -1  -4    0.05    0.11
  -6  -1  -4    0.11    0.05
   6   1  -4   -0.03    0.07
   6   1  -4    0.02    0.08
  -6  -1  -4    0.25    0.09
   6  -1  -5   21.01    1.25
  -6   1  -5   21.04    1.32
  -6   1  -5   21.45    1.28
   6  -1  -5   20.99    1.28
  -6  -1  -5   19.06    1.31
   6   1  -5   20.44    1.27
  -6  -1  -5   21.64    1.27
   6   1  -5   20.46    1.26
   6  -1  -6    0.49    0.14
  -6   1  -6    0.60    0.19
  -6   1  -6    0.75    0.16
   6  -1  -6    0.76    0.18
  -6  -1  -6    0.74    0.17
   6   1  -6    0.75    0.17
  -6  -1  -6    0.89    0.21
   6   1  -6    0.50    0.15
   6  -1  -7    2.22    0.30
   6  -1  -7    2.43    0.25
  -6   1  -7    2.88    0.30
  -6   1  -7    2.29    0.35
   6   1  -7    2.04    0.25
  -6  -1  -7    2.32    0.28
  -6  -1  -7    1.82    0.32
   6   1  -7    3.23    0.33
   6  -1  -8    1.26    0.22
  -6   1  -8    1.31    0.24
  -6   1  -8    1.16    0.29
   6  -1  -8    1.47    0.29
   6   1  -8    0.81    0.21
  -6  -1  -8    1.53    0.31
   6   1  -8    1.64    0.27
  -6  -1  -8    1.51    0.26
  -6   1  -9   12.21    0.91
   6  -1  -9   12.84    0.94
  -6   1  -9   13.50    0.99
   6  -1  -9   12.78    0.87
   6   1  -9   12.47    0.93
  -6  -1  -9   12.25    0.89
  -6  -1  -9   13.58    0.99
   6   1  -9   13.29    0.89
  -6   1 -10    1.54    0.31
  -6   1 -10    1.30    0.35
   6  -1 -10    1.65    0.35
   6   1 -10    1.34    0.35
  -6  -1 -10    1.23    0.28
   6   1 -10    1.25    0.27
  -6  -1 -10    1.44    0.36
  -6   1 -11   -0.40    0.24
  -6   1 -11   -0.05    0.28
  -6  -1 -11   -0.18    0.21
  -6  -1 -11    0.36    0.31
  -6   2   0   47.41    2.67
  -6  -2   0   47.16    2.66
  -6  -2   0   45.67    2.68
  -6   2   0   44.01    2.69
  -6   2   0   45.90    2.66
  -6   2  -1   30.62    1.83
  -6   2  -1   31.01    1.84
  -6  -2   1   31.72    1.83
  -6  -2  -1   32.35    1.84
  -6  -2  -1   31.40    1.84
  -6   2  -2    0.35    0.08
  -6   2  -2    0.14    0.07
  -6  -2   2    0.25    0.06
  -6   2  -2    0.29    0.07
  -6  -2  -2    0.33    0.07
  -6  -2  -2    0.11    0.07
   6   2  -2    0.22    0.04
  -6  -2  -2    0.17    0.06
  -6  -2   3   34.62    2.01
  -6   2  -3   33.54    2.06
  -6   2  -3   35.32    2.04
  -6   2  -3   34.09    2.02
   6   2  -3   33.67    2.02
  -6  -2  -3   33.76    2.02
  -6  -2  -3   35.21    2.03
  -6  -2  -3   35.46    2.06
   6   2  -3   35.77    2.03
   6  -2  -4   11.54    0.73
  -6  -2   4   11.48    0.67
  -6   2  -4   10.87    0.75
   6  -2  -4   11.33    0.69
  -6   2  -4   11.42    0.68
  -6   2  -4   11.40    0.72
   6   2  -4   11.73    0.72
  -6  -2  -4   10.57    0.71
  -6  -2  -4   11.16    0.68
  -6  -2  -4   11.17    0.75
   6   2  -4   11.68    0.71
  -6   2  -5    0.35    0.14
  -6   2  -5    0.32    0.12
  -6  -2   5    0.26    0.04
   6  -2  -5    0.25    0.12
   6  -2  -5    0.13    0.09
  -6  -2  -5    0.27    0.05
  -6  -2  -5    0.30    0.14
  -6  -2  -5    0.31    0.11
   6   2  -5    0.35    0.12
   6   2  -5    0.19    0.10
   6  -2  -6   14.38    0.86
   6  -2  -6   13.84    0.91
  -6   2  -6   14.18    0.90
  -6   2  -6   12.57    0.93
  -6  -2  -6   14.00    0.95
  -6  -2  -6   15.19    0.89
   6   2  -6   14.28    0.89
   6   2  -6   12.12    0.89
   6  -2  -7   32.08    2.00
   6  -2  -7   33.63    2.06
  -6   2  -7   34.69    2.11
  -6   2  -7   33.06    2.04
   6   2  -7   33.61    2.02
   6   2  -7   33.36    2.05
  -6  -2  -7   33.29    2.02
  -6  -2  -7   34.62    2.10
   6  -2  -8    4.88    0.41
  -6   2  -8    4.54    0.53
   6  -2  -8    5.08    0.51
  -6   2  -8    5.42    0.49
   6   2  -8    5.70    0.49
  -6  -2  -8    5.20    0.47
  -6  -2  -8    5.26    0.56
   6   2  -8    5.26    0.43
  -6   2  -9    1.37    0.28
  -6   2  -9    1.11    0.32
   6  -2  -9    1.18    0.28
  -6  -2  -9    1.33    0.33
   6   2  -9    1.71    0.27
   6   2  -9    1.31    0.30
  -6  -2  -9    1.19    0.26
  -6   2 -10    0.34    0.22
  -6   2 -10    0.29    0.30
   6  -2 -10    0.06    0.24
  -6  -2 -10    0.01    0.20
  -6  -2 -10    0.25    0.28
   6   2 -10    0.42    0.22
  -6   2 -11    4.37    0.61
   6  -2 -11    5.43    0.61
  -6   2 -11    5.47    0.56
   6   2 -11    5.12    0.52
  -6  -2 -11    4.72    0.53
  -6  -2 -11    4.55    0.62
  -6  -3   0    0.63    0.09
  -6   3   0    0.43    0.10
  -6   3   0    0.81    0.08
  -6   3   0    0.63    0.09
  -6   3  -1    2.12    0.18
  -6  -3   1    1.88    0.16
  -6   3  -1    1.87    0.16
  -6   3  -1    1.68    0.15
  -6  -3  -1    1.75    0.16
  -6  -3  -1    1.83    0.17
  -6   3   1    1.53    0.24
   6   3  -1    1.98    0.13
  -6  -3   2   46.13    2.61
  -6   3  -2   45.27    2.64
  -6   3  -2   44.53    2.61
  -6   3  -2   44.45    2.61
  -6  -3  -2   45.08    2.61
  -6  -3  -2   44.31    2.61
  -6  -3  -2   44.61    2.63
   6   3  -2   44.47    2.59
  -6   3  -3    0.16    0.10
  -6   3  -3    0.21    0.06
  -6  -3   3    0.20    0.06
  -6   3  -3    0.12    0.09
   6   3  -3    0.27    0.07
  -6  -3  -3    0.25    0.10
  -6  -3  -3    0.13    0.06
   6   3  -3    0.20    0.08
  -6  -3  -3    0.29    0.08
  -6   3  -4   70.65    4.18
  -6   3  -4   70.91    4.10
  -6  -3   4   71.10    4.10
   6  -3  -4   74.16    4.11
  -6   3  -4   71.73    4.14
  -6  -3  -4   71.13    4.11
   6   3  -4   67.19    4.13
  -6  -3  -4   70.00    4.17
   6   3  -4   71.43    4.13
  -6  -3  -4   72.00    4.13
   6  -3  -5    0.60    0.11
  -6   3  -5    0.67    0.06
  -6   3  -5    0.63    0.17
  -6   3  -5    0.60    0.14
  -6  -3   5    0.67    0.08
  -6  -3  -5    0.84    0.14
   6   3  -5    0.62    0.14
  -6  -3  -5    0.59    0.17
  -6  -3  -5    0.79    0.09
   6   3  -5    0.69    0.14
  -6   3  -6   21.75    1.37
   6  -3  -6   21.12    1.33
   6  -3  -6   19.87    1.27
  -6   3  -6   21.51    1.32
   6   3  -6   22.22    1.32
  -6  -3  -6   20.63    1.36
  -6  -3  -6   21.08    1.30
   6   3  -6   20.96    1.30
   6  -3  -7    1.18    0.24
  -6   3  -7    1.20    0.22
   6  -3  -7    1.65    0.20
  -6   3  -7    1.25    0.27
  -6  -3  -7    1.36    0.22
  -6  -3  -7    1.50    0.29
   6   3  -7    1.41    0.24
   6   3  -7    1.56    0.23
  -6   3  -8    6.88    0.64
   6  -3  -8    8.02    0.63
  -6   3  -8    6.92    0.58
   6   3  -8    7.76    0.58
  -6  -3  -8    8.34    0.67
  -6  -3  -8    7.41    0.57
   6   3  -8    6.80    0.59
  -6   3  -9    4.77    0.48
  -6   3  -9    3.61    0.51
   6  -3  -9    4.64    0.50
  -6  -3  -9    4.39    0.56
  -6  -3  -9    4.58    0.46
   6   3  -9    4.48    0.48
   6   3  -9    5.10    0.46
  -6   3 -10    0.53    0.24
   6  -3 -10    0.47    0.29
  -6   3 -10    0.39    0.31
  -6  -3 -10    0.48    0.30
   6   3 -10    0.64    0.26
  -6  -3 -10    0.18    0.21
  -6   3 -11    0.95    0.30
   6  -3 -11    0.78    0.32
  -6   3 -11    1.11    0.40
   6   3 -11    0.90    0.27
  -6  -3 -11    1.03    0.40
  -6   4   0    3.01    0.29
  -6  -4   0    3.23    0.25
  -6   4   0    3.51    0.22
  -6  -4   1    0.95    0.13
  -6   4  -1    0.89    0.15
  -6   4  -1    1.06    0.13
  -6   4  -1    0.87    0.11
   6   4  -1    1.13    0.13
  -6  -4  -1    0.80    0.12
  -6   4   1    0.99    0.09
  -6  -4  -1    1.06    0.14
  -6   4   1    0.76    0.20
  -6  -4   2    0.04    0.06
  -6   4  -2   -0.03    0.06
  -6   4  -2   -0.08    0.07
  -6   4  -2   -0.05    0.06
  -6  -4  -2    0.03    0.06
  -6  -4  -2   -0.03    0.06
   6   4  -2   -0.02    0.04
  -6  -4  -2   -0.06    0.08
  -6   4  -3  112.17    6.43
  -6   4  -3  111.20    6.41
  -6   4  -3  107.04    6.45
  -6  -4   3  112.22    6.40
  -6  -4  -3  111.14    6.41
  -6  -4  -3  110.82    6.45
   6   4  -3  112.45    6.41
  -6  -4  -3  110.01    6.41
   6   4  -3  112.72    6.42
  -6   4  -4   31.25    1.81
  -6   4  -4   30.26    1.88
  -6   4  -4   29.25    1.84
  -6  -4   4   30.50    1.80
   6  -4  -4   32.06    1.80
  -6  -4  -4   31.47    1.88
  -6  -4  -4   30.29    1.81
   6   4  -4   29.86    1.83
  -6  -4  -4   31.30    1.83
   6   4  -4   32.09    1.84
  -6   4  -5   83.12    5.18
  -6   4  -5   87.33    5.07
  -6   4  -5   86.56    5.14
  -6  -4   5   87.05    5.09
   6  -4  -5   88.46    5.10
  -6  -4  -5   86.96    5.18
   6   4  -5   90.38    5.14
  -6  -4  -5   91.05    5.09
   6   4  -5   91.53    5.14
  -6  -4  -5   89.63    5.13
  -6   4  -6    0.62    0.17
  -6   4  -6    0.64    0.19
   6  -4  -6    0.81    0.13
  -6  -4  -6    0.66    0.21
   6   4  -6    0.69    0.17
   6   4  -6    0.79    0.17
  -6  -4  -6    0.51    0.14
  -6   4  -7   46.41    2.87
  -6   4  -7   45.77    2.82
  -6  -4  -7   47.61    2.88
  -6  -4  -7   47.91    2.80
   6   4  -7   48.23    2.81
   6   4  -7   46.21    2.82
  -6   4  -8    0.11    0.20
  -6   4  -8    0.01    0.17
   6  -4  -8    0.50    0.21
   6   4  -8    0.09    0.18
  -6  -4  -8    0.19    0.18
   6   4  -8    0.16    0.16
  -6  -4  -8    0.02    0.22
  -6   4  -9   34.00    2.18
   6  -4  -9   34.61    2.13
  -6   4  -9   33.77    2.10
  -6  -4  -9   33.72    2.07
  -6  -4  -9   33.40    2.17
   6   4  -9   32.53    2.07
   6  -4 -10    1.46    0.34
  -6   4 -10    1.09    0.36
  -6   4 -10    1.07    0.31
   6   4 -10    1.32    0.30
  -6  -4 -10    1.77    0.38
  -6   5   0   62.30    4.01
  -6  -5   0   71.49    3.93
  -6   5   0   68.35    3.90
  -6   5  -1   63.44    3.63
  -6   5  -1   62.50    3.58
  -6  -5   1   65.10    3.58
  -6   5  -1   65.47    3.57
  -6   5   1   65.20    3.54
   6   5  -1   53.21    3.59
  -6  -5  -1   63.67    3.59
  -6   5   1   50.46    3.70
  -6   5  -2   48.03    2.81
  -6   5  -2   47.54    2.85
  -6  -5   2   50.82    2.82
  -6   5  -2   48.26    2.81
  -6  -5  -2   46.96    2.81
  -6  -5  -2   47.64    2.83
   6   5  -2   48.11    2.80
  -6  -5  -2   48.11    2.82
  -6   5   2   48.28    2.77
  -6   5  -3    7.32    0.53
  -6   5  -3    7.06    0.47
  -6  -5   3    6.74    0.47
  -6   5  -3    6.90    0.48
  -6  -5  -3    7.53    0.52
  -6  -5  -3    7.07    0.47
   6   5  -3    8.00    0.49
  -6  -5  -3    7.35    0.48
   6   5  -3    7.30    0.47
  -6   5  -4   71.91    4.05
  -6   5  -4   69.85    4.01
  -6  -5   4   70.71    4.01
  -6   5  -4   69.23    4.08
  -6  -5  -4   65.38    4.07
  -6  -5  -4   70.53    4.03
  -6  -5  -4   68.01    4.02
   6   5  -4   68.84    4.04
   6   5  -4   68.31    4.03
  -6   5  -5    0.24    0.15
   6  -5  -5    0.44    0.09
  -6  -5   5    0.75    0.10
  -6   5  -5    0.63    0.16
  -6   5  -5    0.74    0.09
  -6  -5  -5    0.61    0.18
   6   5  -5    0.44    0.13
  -6  -5  -5    0.53    0.10
   6   5  -5    0.60    0.14
  -6  -5  -5    0.74    0.14
  -6   5  -6   25.10    1.60
  -6   5  -6   26.62    1.56
  -6  -5  -6   24.34    1.60
   6   5  -6   25.34    1.55
   6   5  -6   24.72    1.55
  -6  -5  -6   24.97    1.53
  -6   5  -7    2.99    0.33
  -6   5  -7    2.88    0.38
   6   5  -7    2.96    0.32
   6   5  -7    2.34    0.31
  -6  -5  -7    2.65    0.38
  -6  -5  -7    2.75    0.29
  -6   5  -8   10.19    0.86
  -6   5  -8   11.88    0.84
   6   5  -8   12.59    0.83
  -6  -5  -8   10.85    0.87
  -6  -5  -8   11.69    0.79
   6   5  -8   11.93    0.83
  -6   5  -9   -0.03    0.21
  -6   5  -9    0.10    0.20
   6   5  -9    0.24    0.19
  -6  -5  -9    0.38    0.18
  -6  -5  -9    0.30    0.26
  -6   5 -10   -0.10    0.26
  -6   5 -10    0.21    0.26
  -6  -5 -10    0.23    0.29
   6   5 -10   -0.05    0.21
  -6  -6   0   13.21    0.82
  -6   6   0   13.77    0.78
  -6   6   0   11.70    0.91
  -6   6  -1    2.05    0.17
  -6  -6   1    1.90    0.19
  -6   6  -1    2.03    0.24
  -6   6   1    1.25    0.29
   6   6  -1    1.51    0.21
  -6  -6  -1    1.77    0.19
  -6   6   1    2.00    0.13
  -6   6  -2    0.60    0.11
  -6  -6   2    0.56    0.11
  -6   6  -2    0.59    0.11
  -6   6  -2    0.60    0.14
  -6  -6  -2    0.57    0.11
   6   6  -2    0.69    0.10
  -6   6  -3    0.88    0.12
  -6   6  -3    0.73    0.14
  -6   6  -3    1.04    0.18
  -6  -6   3    0.93    0.13
  -6  -6  -3    1.10    0.14
  -6  -6  -3    0.93    0.16
   6   6  -3    1.11    0.15
  -6  -6  -3    0.88    0.12
   6   6  -3    1.17    0.13
  -6   6  -4    2.18    0.24
  -6   6  -4    2.33    0.28
  -6  -6   4    2.12    0.20
  -6   6  -4    2.24    0.19
  -6  -6  -4    1.79    0.26
  -6  -6  -4    2.56    0.23
   6   6  -4    2.47    0.22
   6   6  -4    2.37    0.23
  -6  -6  -4    2.00    0.21
  -6  -6   5   99.19    5.70
  -6   6  -5   99.60    5.69
  -6   6  -5   96.72    5.74
  -6   6  -5   98.47    5.79
  -6  -6  -5   99.08    5.78
  -6  -6  -5  100.20    5.72
  -6  -6  -5  101.41    5.70
   6   6  -5   93.60    5.73
   6   6  -5   98.83    5.74
  -6   6  -6    3.01    0.33
  -6   6  -6    2.33    0.34
   6   6  -6    2.75    0.30
  -6  -6  -6    3.31    0.29
  -6  -6  -6    3.06    0.37
   6   6  -6    2.88    0.31
  -6   6  -7   31.75    1.96
  -6   6  -7   34.55    2.03
  -6  -6  -7   31.85    1.92
   6   6  -7   29.61    1.95
  -6  -6  -7   30.76    2.00
   6   6  -7   32.65    1.95
  -6   6  -8    2.32    0.37
  -6   6  -8    1.92    0.30
  -6  -6  -8    2.11    0.36
  -6  -6  -8    2.38    0.29
   6   6  -8    2.59    0.32
  -6   6  -9   18.44    1.32
  -6   6  -9   18.19    1.25
   6   6  -9   19.53    1.24
  -6  -6  -9   18.27    1.32
  -6   6 -10    0.16    0.26
  -6   6 -10   -0.33    0.24
  -6  -6 -10   -0.17    0.28
   6   6 -10    0.08    0.22
  -6  -7   0   43.03    2.48
  -6   7   0   42.92    2.44
  -6   7   0   38.94    2.60
  -6   7  -1   13.93    0.87
  -6   7  -1   13.94    0.96
  -6  -7   1   15.65    0.91
   6   7  -1   13.01    0.95
  -6   7   1   13.07    1.08
  -6  -7  -1   15.36    0.91
  -6   7   1   14.85    0.84
  -6   7  -2   28.64    1.75
  -6  -7   2   29.00    1.76
  -6   7  -2   30.17    1.75
  -6   7  -2   30.03    1.82
   6   7  -2   28.95    1.76
  -6  -7  -2   30.22    1.76
  -6   7  -3    0.51    0.11
  -6  -7   3    0.47    0.11
  -6   7  -3    0.34    0.14
  -6   7  -3    0.26    0.12
   6   7  -3    0.19    0.11
  -6  -7  -3    0.41    0.10
  -6  -7  -3    0.54    0.12
   6   7  -3    0.50    0.11
  -6   7  -4  104.22    6.19
  -6   7  -4  104.05    6.11
  -6   7  -4  107.24    6.14
  -6  -7   4  106.46    6.12
   6   7  -4  103.64    6.13
  -6  -7  -4  106.85    6.18
  -6  -7  -4  104.81    6.12
   6   7  -4  109.86    6.14
  -6  -7  -4  105.20    6.13
  -6   7  -5   -0.14    0.14
  -6   7  -5    0.06    0.12
  -6   7  -5   -0.03    0.07
  -6  -7   5    0.01    0.09
  -6  -7  -5    0.16    0.15
  -6  -7  -5   -0.10    0.08
   6   7  -5   -0.01    0.11
   6   7  -5    0.11    0.11
  -6  -7  -5    0.20    0.10
  -6   7  -6   13.01    0.93
  -6   7  -6   12.84    0.88
  -6  -7  -6   13.51    0.84
  -6  -7  -6   13.57    0.93
   6   7  -6   12.34    0.87
   6   7  -6   13.22    0.87
  -6   7  -7    0.35    0.19
  -6   7  -7    0.39    0.21
   6   7  -7   -0.05    0.16
  -6  -7  -7    0.20    0.14
   6   7  -7    0.34    0.17
  -6  -7  -7    0.22    0.20
  -6   7  -8   12.56    0.93
  -6   7  -8   11.69    0.87
  -6  -7  -8   11.52    0.92
   6   7  -8   12.81    0.86
  -6   7  -9    0.63    0.25
  -6   7  -9    0.68    0.30
  -6  -7  -9    0.84    0.31
   6   7  -9    0.41    0.21
  -6   7 -10    1.73    0.36
  -6   7 -10    1.42    0.36
   6   7 -10    1.08    0.29
  -6  -7 -10    2.00    0.40
   6   8   0   98.80    6.05
  -6  -8   0  103.23    5.92
  -6   8   0  104.35    6.08
  -6   8   0  101.33    5.87
  -6  -8   1    7.71    0.51
  -6   8  -1    7.77    0.48
  -6   8  -1    8.02    0.61
  -6  -8  -1    7.23    0.51
  -6   8   1    7.36    0.44
   6   8  -1    6.31    0.57
  -6   8   1    6.48    0.77
  -6   8  -2    7.06    0.49
  -6  -8   2    7.42    0.50
  -6   8  -2    7.47    0.56
  -6  -8  -2    7.28    0.50
  -6   8   2    7.03    0.83
   6   8  -2    7.31    0.51
  -6   8  -3    1.18    0.15
  -6   8  -3    1.31    0.17
  -6   8  -3    1.19    0.20
  -6  -8   3    1.13    0.16
  -6  -8  -3    1.30    0.17
  -6  -8  -3    1.14    0.15
   6   8  -3    0.92    0.15
  -6  -8   4    5.65    0.40
  -6   8  -4    5.77    0.38
  -6   8  -4    5.43    0.42
  -6   8  -4    4.90    0.46
  -6  -8  -4    5.51    0.38
  -6  -8  -4    5.07    0.39
   6   8  -4    5.62    0.41
   6   8  -4    4.82    0.40
  -6   8  -5    5.38    0.48
  -6  -8   5    6.00    0.45
  -6   8  -5    6.10    0.52
  -6   8  -5    6.00    0.48
  -6  -8  -5    6.49    0.44
  -6  -8  -5    6.43    0.44
   6   8  -5    6.09    0.47
   6   8  -5    6.38    0.47
  -6  -8  -5    7.16    0.53
  -6   8  -6    2.56    0.30
  -6   8  -6    2.01    0.33
   6   8  -6    2.19    0.27
  -6  -8  -6    2.67    0.26
  -6  -8  -6    1.94    0.32
   6   8  -6    1.94    0.27
  -6   8  -7    4.46    0.45
  -6   8  -7    4.98    0.52
   6   8  -7    5.08    0.45
  -6  -8  -7    3.91    0.48
  -6   8  -8    0.73    0.24
  -6   8  -8    0.90    0.27
  -6  -8  -8    0.61    0.27
   6   8  -8    0.45    0.21
  -6   8  -9    5.06    0.62
  -6   8  -9    5.89    0.56
   6   8  -9    6.75    0.58
  -6  -8  -9    4.52    0.59
  -6   8 -10    1.78    0.42
  -6   8 -10    2.38    0.39
   6   8 -10    2.12    0.35
  -6  -8 -10    2.03    0.44
   6   9   0  130.46    8.47
  -6   9   0  148.07    8.53
  -6   9   0  148.37    8.28
  -6  -9   0  147.91    8.34
  -6   9  -1    0.38    0.10
  -6  -9   1    0.45    0.13
  -6   9  -1    0.19    0.16
   6   9  -1    0.43    0.20
  -6   9   1    0.56    0.06
  -6  -9  -1    0.47    0.13
  -6   9   1    0.69    0.29
  -6   9  -2    7.01    0.55
  -6   9  -2    6.86    0.46
  -6  -9   2    6.55    0.47
  -6  -9  -2    6.80    0.48
  -6   9   2    5.43    0.78
   6   9  -2    6.45    0.50
  -6   9  -3   -0.07    0.11
  -6   9  -3    0.01    0.12
  -6   9  -3    0.00    0.09
  -6  -9   3    0.12    0.11
  -6  -9  -3   -0.01    0.08
  -6  -9  -3    0.08    0.11
   6   9  -3    0.02    0.08
  -6  -9   4   35.18    2.10
  -6   9  -4   34.35    2.16
  -6   9  -4   34.54    2.11
  -6   9  -4   35.18    2.08
   6   9  -4   36.06    2.11
  -6  -9  -4   34.20    2.07
  -6  -9  -4   35.07    2.09
   6   9  -4   36.06    2.11
  -6  -9   5    2.13    0.23
  -6   9  -5    2.01    0.30
  -6   9  -5    1.75    0.26
  -6  -9  -5    2.12    0.22
   6   9  -5    2.10    0.26
  -6  -9  -5    2.02    0.23
   6   9  -5    1.71    0.24
  -6   9  -6   29.64    1.79
  -6   9  -6   26.87    1.72
   6   9  -6   26.55    1.71
   6   9  -6   27.97    1.72
  -6   9  -7    0.16    0.22
  -6   9  -7   -0.18    0.16
   6   9  -7    0.20    0.18
  -6   9  -8    0.08    0.20
  -6   9  -8    0.34    0.22
  -6  -9  -8    0.09    0.23
   6   9  -8    0.32    0.22
  -6   9  -9    1.08    0.29
  -6   9  -9    0.71    0.29
   6   9  -9    0.61    0.24
  -6  -9  -9    0.77    0.32
  -6   9 -10    0.15    0.26
  -6   9 -10    0.04    0.26
   6   9 -10    1.07    0.29
  -6  10   0    1.40    0.33
  -6 -10   0    1.17    0.19
   6  10   0    0.71    0.25
  -6  10   0    1.06    0.12
  -6  10  -1    3.15    0.39
  -6  10  -1    2.37    0.21
  -6 -10   1    2.07    0.24
   6  10  -1    1.76    0.32
  -6 -10  -1    2.20    0.25
  -6  10   1    2.02    0.16
  -6  10   1    2.03    0.45
  -6  10  -2    6.20    0.46
  -6 -10   2    6.68    0.49
  -6  10  -2    6.75    0.55
   6  10  -2    6.70    0.52
  -6 -10  -2    6.94    0.49
  -6  10   2    5.37    0.80
  -6  10  -3    0.88    0.21
  -6  10  -3    0.57    0.15
  -6  10  -3    0.90    0.15
  -6 -10   3    0.99    0.18
  -6 -10  -3    0.58    0.16
  -6 -10  -3    0.90    0.13
   6  10  -3    0.65    0.15
  -6  10  -4    2.79    0.36
  -6  10  -4    3.33    0.34
  -6 -10   4    3.79    0.34
  -6  10  -4    3.44    0.30
  -6 -10  -4    3.38    0.27
   6  10  -4    3.67    0.32
   6  10  -4    3.52    0.33
  -6 -10  -4    3.11    0.32
  -6  10  -5    1.71    0.29
  -6  10  -5    1.60    0.25
  -6 -10   5    1.51    0.22
   6  10  -5    1.85    0.25
  -6 -10  -5    1.66    0.21
   6  10  -5    1.26    0.22
  -6 -10  -5    1.99    0.23
  -6  10  -6    0.37    0.21
  -6  10  -6    0.68    0.20
   6  10  -6    0.57    0.19
  -6  10  -7    4.75    0.49
  -6  10  -7    6.63    0.63
   6  10  -7    4.98    0.48
  -6  10  -8    0.36    0.24
  -6  10  -8    0.06    0.21
   6  10  -8    0.06    0.19
  -6  10  -9    0.89    0.31
  -6  10  -9    0.68    0.32
   6  10  -9    0.58    0.24
  -6  11   0    1.96    0.17
  -6  11   0    2.07    0.42
  -6 -11   0    1.79    0.24
   6  11   0    1.96    0.40
  -6  11  -1    3.93    0.50
  -6  11  -1    3.65    0.29
  -6 -11   1    4.01    0.34
   6  11  -1    3.57    0.46
  -6  11   1    4.51    0.66
  -6 -11  -1    3.10    0.33
  -6 -11   2    0.72    0.17
  -6  11  -2    0.48    0.13
  -6  11  -2    0.34    0.19
   6  11  -2    0.77    0.19
  -6  11   2    0.53    0.33
  -6 -11  -2    0.66    0.16
  -6  11  -3   15.58    1.05
  -6  11  -3   15.29    0.95
  -6  11  -3   14.85    0.95
  -6 -11   3   15.51    0.97
  -6 -11  -3   15.94    0.97
  -6  11   3   15.38    1.33
   6  11  -3   14.04    0.98
  -6 -11  -3   13.26    0.92
  -6  11  -4    1.07    0.20
  -6  11  -4    0.78    0.16
  -6  11  -4    1.37    0.27
  -6 -11   4    1.30    0.21
  -6 -11  -4    0.97    0.15
   6  11  -4    1.10    0.20
  -6 -11  -4    1.13    0.19
  -6 -11   5    0.21    0.15
  -6  11  -5    0.03    0.15
  -6  11  -5    0.23    0.18
  -6 -11  -5   -0.09    0.12
   6  11  -5   -0.08    0.13
   6  11  -5    0.01    0.14
  -6  11  -6    0.65    0.24
  -6  11  -6    0.46    0.20
   6  11  -6    0.40    0.18
  -6  11  -7    0.02    0.19
  -6  11  -7    0.13    0.22
   6  11  -7    0.05    0.19
  -6  11  -8    1.01    0.30
  -6  11  -8    0.49    0.25
   6  11  -8    0.90    0.25
  -6  11  -9    1.95    0.40
  -6  11  -9    1.85    0.36
   6  11  -9    2.03    0.34
  -6  12   0    9.89    0.64
  -6 -12   0   11.07    0.72
   6  12   0    9.23    0.89
  -6  12   0   10.55    0.94
  -6  12  -1    0.32    0.11
  -6  12  -1    0.60    0.26
   6  12   1    0.55    0.32
  -6 -12   1    0.51    0.16
  -6 -12  -1    0.41    0.16
  -6  12   1    0.69    0.37
   6  12  -1    0.34    0.21
  -6  12  -2    0.75    0.16
  -6  12  -2    0.84    0.24
  -6 -12   2    0.76    0.18
  -6  12   2    0.70    0.41
  -6 -12  -2    0.89    0.21
   6  12  -2    0.84    0.23
  -6  12  -3    4.40    0.48
  -6 -12   3    4.13    0.38
  -6  12  -3    3.09    0.34
  -6  12   3    3.51    0.69
   6  12  -3    4.17    0.38
  -6 -12  -3    3.67    0.30
  -6 -12  -3    3.77    0.37
  -6  12  -4    0.28    0.19
  -6  12  -4    0.19    0.16
  -6  12  -4    0.02    0.12
  -6 -12   4    0.15    0.15
   6  12  -4    0.23    0.15
  -6 -12  -4   -0.06    0.15
  -6  12  -5   17.91    1.20
  -6 -12   5   17.49    1.11
  -6  12  -5   17.88    1.13
   6  12  -5   15.86    1.10
  -6 -12  -5   16.29    1.09
  -6  12  -6   -0.15    0.17
  -6  12  -6   -0.13    0.18
   6  12  -6   -0.31    0.14
  -6  12  -7    0.27    0.23
  -6  12  -7    0.18    0.25
   6  12  -7    0.26    0.20
  -6  12  -8    1.53    0.33
  -6  12  -8    1.20    0.33
   6  12  -8    1.34    0.29
  -6  12  -9    1.31    0.33
  -6  12  -9    1.34    0.37
   6  12  -9    1.29    0.31
  -6 -13   0   27.04    1.65
   6  13   0   22.49    1.83
  -6  13   0   30.85    1.96
  -6  13  -1   -0.14    0.09
   6  13   1    0.06    0.28
  -6  13  -1   -0.15    0.19
  -6 -13   1    0.10    0.17
  -6 -13  -1   -0.18    0.13
   6  13  -1   -0.18    0.17
  -6  13   1    0.32    0.33
  -6  13  -2   40.05    2.38
  -6  13  -2   37.56    2.20
  -6 -13   2   35.18    2.23
  -6  13   2   33.95    2.61
   6  13  -2   38.64    2.33
  -6 -13  -2   34.96    2.23
  -6  13  -3    0.48    0.22
  -6 -13   3    0.39    0.17
  -6  13  -3    0.45    0.16
  -6  13   3   -0.20    0.30
  -6 -13  -3    0.13    0.15
   6  13  -3    0.13    0.16
  -6 -13   4   51.68    3.25
  -6  13  -4   54.39    3.34
  -6  13  -4   58.09    3.24
  -6  13  -4   57.24    3.25
  -6 -13  -4   52.40    3.24
   6  13  -4   53.09    3.27
  -6  13  -5    0.36    0.23
  -6 -13   5    0.43    0.20
  -6  13  -5    0.22    0.18
  -6 -13  -5    0.73    0.19
  -6  13  -6   13.57    1.01
  -6  13  -6   14.02    0.94
   6  13  -6   12.23    0.93
  -6  13  -7    0.96    0.26
  -6  13  -7    0.66    0.30
   6  13  -7    0.66    0.23
  -6  13  -8    1.28    0.35
  -6  13  -8    0.94    0.29
   6  13  -8    0.92    0.26
  -6  14   0    1.62    0.47
  -6 -14   0    1.27    0.24
   6  14   0    0.90    0.34
  -6 -14   1    3.70    0.39
  -6  14  -1    3.53    0.54
   6  14   1    2.90    0.61
  -6  14   1    4.98    0.78
  -6 -14  -1    3.36    0.37
   6  14  -1    3.20    0.51
  -6  14  -2    1.76    0.35
  -6  14  -2    1.31    0.20
  -6 -14   2    0.90    0.21
  -6 -14  -2    0.68    0.21
  -6  14   2    1.49    0.52
   6  14  -2    0.93    0.26
  -6  14  -3   14.71    1.08
  -6  14  -3   15.33    0.95
  -6 -14   3   13.30    0.97
  -6 -14  -3   13.99    0.97
  -6  14   3   11.51    1.46
   6  14  -3   15.51    1.02
  -6  14  -4    1.61    0.24
  -6 -14   4    1.26    0.25
  -6  14  -4    1.28    0.32
  -6  14  -4    1.31    0.26
  -6 -14  -4    1.29    0.26
  -6  14   4    1.58    0.54
  -6  14  -5   11.81    0.90
  -6 -14   5   12.03    0.83
  -6  14  -5   10.22    0.79
  -6 -14  -5   11.25    0.79
  -6  14  -6    6.08    0.65
  -6  14  -6    5.65    0.54
  -6  14  -7    3.96    0.45
  -6  14  -7    2.23    0.43
   6  14  -7    3.42    0.41
  -6  14  -8    2.22    0.37
  -6  14  -8    1.43    0.39
   6  14  -8    1.56    0.34
   6  15   0   11.39    1.12
  -6  15   0   13.46    1.20
  -6 -15   0   13.48    0.92
  -6  15  -1    1.68    0.43
   6  15   1    1.46    0.44
  -6 -15   1    1.50    0.27
  -6 -15  -1    1.05    0.25
   6  15  -1    2.24    0.43
  -6  15   1    1.00    0.48
  -6 -15   2   49.88    3.24
   6  15   2   48.54    3.55
  -6  15  -2   62.75    3.45
   6  15  -2   61.64    3.37
  -6 -15  -2   53.34    3.24
  -6  15   2   45.60    3.62
  -6  15  -3    1.56    0.36
  -6 -15   3    1.93    0.32
  -6  15  -3    1.65    0.25
  -6 -15  -3    1.99    0.30
   6  15  -3    1.46    0.32
  -6  15   3    1.28    0.58
  -6  15  -4   26.41    1.57
  -6  15  -4   23.63    1.67
  -6  15  -4   25.70    1.56
  -6 -15   4   23.87    1.58
  -6 -15  -4   25.26    1.57
  -6  15   4   20.88    1.98
  -6 -15   5    0.25    0.22
  -6  15  -5    0.12    0.21
  -6  15  -5    0.04    0.21
  -6 -15   6    8.28    0.84
  -6  15  -6    8.61    0.76
  -6  15  -6    7.67    0.66
  -6  15  -7   -0.17    0.23
  -6  15  -7   -0.48    0.21
  -6  16   0    0.07    0.36
  -6 -16   0    0.19    0.20
   6  16   0    0.07    0.32
  -6  16  -1    0.28    0.38
  -6 -16   1    0.50    0.20
   6  16   1    0.09    0.40
  -6 -16  -1    0.47    0.23
  -6  16   1    0.36    0.47
   6  16  -1    0.87    0.41
   6  16   2    0.49    0.43
  -6  16  -2    1.13    0.36
  -6 -16   2    0.75    0.23
  -6  16   2    0.73    0.46
  -6 -16  -2    0.64    0.25
   6  16  -2    1.11    0.32
  -6 -16   3   25.45    1.75
  -6  16  -3   32.99    1.93
  -6 -16  -3   29.21    1.76
  -6  16   3   21.46    2.14
  -6 -16   4    5.24    0.57
  -6  16  -4    7.20    0.57
  -6  16  -4    6.97    0.56
  -6  16  -4    7.12    0.73
  -6 -16  -4    6.51    0.56
  -6  16   4    6.11    1.04
  -6  16  -5   22.84    1.57
  -6 -16   5   24.38    1.48
  -6  16  -5   21.53    1.45
  -6  16   5   18.63    1.87
  -6 -16   6    0.97    0.35
  -6  16  -6    1.52    0.31
  -6  16  -6    0.65    0.33
  -6  16  -7    2.58    0.48
  -6  16  -7    3.78    0.45
  -6  17   0    5.67    0.84
   6  17   0    4.59    0.73
  -6 -17   0    3.87    0.46
  -6 -17   1    0.67    0.23
   6  17   1    0.45    0.40
  -6  17  -1    0.90    0.38
  -6 -17  -1    0.44    0.25
   6  17  -1    0.13    0.32
  -6  17   1    0.49    0.49
  -6  17  -2   63.64    3.57
  -6 -17   2   51.80    3.33
   6  17  -2   58.04    3.47
  -6 -17  -2   52.68    3.32
  -6  17   2   50.11    3.78
  -6 -17   3   -0.12    0.19
  -6  17  -3    0.01    0.25
   6  17   3    0.26    0.43
  -6  17   3   -0.11    0.44
  -6 -17  -3   -0.17    0.17
  -6 -17   4   17.69    1.20
  -6  17  -4   18.82    1.33
  -6  17   4   14.18    1.76
  -6 -17  -4   16.84    1.16
  -6  17  -5    4.30    0.46
  -6 -17   5    4.59    0.50
  -6  17  -5    4.04    0.57
  -6  17   5    2.33    0.74
  -6  17  -6    3.45    0.45
  -6 -17   6    4.10    0.50
  -6  17  -6    4.22    0.58
  -6  17   6    2.91    0.74
   6  18   0   -0.47    0.31
  -6  18   0    0.29    0.37
  -6 -18   0    0.00    0.21
   6  18   1    0.39    0.42
  -6  18  -1    1.26    0.44
  -6 -18   1    0.90    0.28
   6  18  -1    1.71    0.43
  -6 -18  -1    0.78    0.30
  -6  18   1    1.24    0.54
  -6 -18   2    0.87    0.31
  -6  18  -2    1.16    0.39
   6  18   2    0.65    0.43
  -6  18   2   -0.23    0.40
  -6 -18  -2    0.58    0.24
   6  18   3   14.42    1.77
  -6 -18   3   19.43    1.37
  -6  18  -3   23.91    1.55
  -6 -18  -3   23.17    1.38
  -6  18   3   14.86    1.90
  -6 -18   4    2.00    0.35
  -6  18  -4    1.61    0.42
  -6  18   4    0.88    0.55
  -6  18  -5    5.89    0.72
  -6 -18   5    5.78    0.60
  -6  18   5    5.60    1.04
  -6  19   0    1.99    0.56
   6  19   0    1.88    0.50
  -6 -19   0    1.35    0.33
   6  19   1    1.78    0.57
  -6  19  -1    2.15    0.54
  -6 -19   1    1.55    0.34
  -6 -19  -1    1.68    0.35
  -6  19   1    1.22    0.62
  -6 -19   2    7.23    0.66
  -6  19  -2    6.53    0.82
   6  19   2    4.69    0.89
  -6 -19  -2    7.03    0.66
  -6  19   2    6.62    1.11
   6  19   3    3.40    0.78
  -6  19  -3    4.56    0.66
  -6 -19   3    5.12    0.56
  -6 -19  -3    4.05    0.48
  -6  19   3    4.41    0.95
  -6 -19   4    0.29    0.27
  -6  19  -4    0.50    0.35
   6  19   4    0.41    0.47
  -6  19   4   -0.43    0.46
  -6 -20   0    1.12    0.30
   6  20   0    1.00    0.47
  -6  20   0    0.37    0.44
  -6 -20   1    0.38    0.27
  -6  20  -1    0.80    0.49
   6  20   1    0.58    0.44
  -6 -20  -1    0.51    0.28
  -6  20   1    1.12    0.56
  -6 -20   2    2.32    0.39
   6  20   2    1.30    0.58
  -6  20  -2    1.57    0.51
  -6 -20  -2    1.35    0.32
  -6  20   2    1.93    0.68
  -6 -20   3   -0.14    0.30
   6  20   3   -0.27    0.38
  -6  20  -3   -0.14    0.31
  -6  20   3    0.86    0.62
  -7   0   0   -0.02    0.04
  -7   0   0   -0.10    0.05
  -7   0  -1  201.88   11.36
  -7   0   1  166.91   11.36
  -7   0  -1  210.01   11.37
  -7   0   1  205.91   11.36
  -7   0  -1  201.86   11.37
  -7   0  -2    0.03    0.06
  -7   0   2    0.08    0.05
  -7   0  -2    0.00    0.07
  -7   0  -2    0.05    0.05
  -7   0  -3   23.44    1.39
  -7   0   3   23.05    1.37
  -7   0  -3   23.51    1.43
  -7   0  -3   23.87    1.41
   7   0  -3   23.87    1.39
  -7   0  -4    0.09    0.05
  -7   0  -4   -0.03    0.08
   7   0  -4    0.06    0.07
  -7   0  -4   -0.08    0.10
   7   0  -4    0.12    0.08
   7   0  -5  141.68    8.18
  -7   0  -5  138.09    8.14
  -7   0  -5  143.46    8.20
  -7   0  -5  142.08    8.25
   7   0  -5  143.97    8.20
   7   0  -6    0.00    0.12
  -7   0  -6    0.05    0.14
  -7   0  -6    0.05    0.16
   7   0  -6    0.12    0.11
   7   0  -7   34.58    2.01
  -7   0  -7   31.56    2.05
  -7   0  -7   32.39    2.00
   7   0  -7   32.33    1.97
  -7   0  -8   -0.28    0.17
  -7   0  -8    0.24    0.19
   7   0  -8    0.03    0.18
   7   0  -8    0.04    0.13
  -7   0  -9    1.98    0.38
  -7   0  -9    1.07    0.27
   7   0  -9    2.11    0.27
   7   0  -9    2.32    0.35
  -7   0 -10   -0.04    0.25
  -7   0 -10   -0.18    0.21
  -7   0 -11    4.74    0.52
  -7   0 -11    3.27    0.55
  -7  -1   0    0.10    0.04
  -7   1   0    0.07    0.05
  -7   1   0    0.10    0.05
  -7  -1   0    0.03    0.05
  -7  -1   1   25.76    1.51
  -7   1  -1   25.68    1.54
  -7  -1   1   26.62    1.54
  -7   1  -1   25.94    1.54
  -7  -1  -1   25.57    1.54
  -7   1   1   27.28    1.54
  -7  -1  -1   26.05    1.54
  -7  -1  -1   25.97    1.54
  -7  -1   2   34.65    2.00
  -7   1  -2   36.16    2.03
  -7   1  -2   33.89    2.01
  -7   1  -2   33.66    2.01
  -7  -1  -2   33.13    2.01
  -7  -1  -2   35.20    2.03
  -7  -1  -2   33.71    2.01
  -7   1   2   33.98    2.00
  -7   1  -3    5.41    0.38
  -7   1  -3    4.74    0.33
  -7  -1   3    4.94    0.32
  -7   1  -3    5.17    0.35
   7   1  -3    4.94    0.33
  -7  -1  -3    4.81    0.33
  -7  -1  -3    5.15    0.35
  -7  -1  -3    5.06    0.38
  -7   1  -4    5.52    0.38
  -7  -1   4    5.14    0.32
  -7   1  -4    5.15    0.41
   7  -1  -4    6.02    0.36
  -7   1  -4    5.00    0.34
   7  -1  -4    5.13    0.37
  -7  -1  -4    5.69    0.38
  -7  -1  -4    5.09    0.34
   7   1  -4    4.64    0.36
  -7  -1  -4    4.63    0.40
   7   1  -4    5.44    0.37
  -7   1  -5    5.42    0.38
   7  -1  -5    4.89    0.35
  -7  -1   5    4.93    0.30
  -7   1  -5    4.34    0.41
   7  -1  -5    4.62    0.37
  -7   1  -5    4.48    0.30
   7   1  -5    5.04    0.37
  -7  -1  -5    4.80    0.31
  -7  -1  -5    4.84    0.37
   7   1  -5    5.61    0.37
  -7  -1  -5    4.62    0.41
   7  -1  -6   75.90    4.60
  -7   1  -6   82.14    4.64
   7  -1  -6   80.97    4.64
  -7   1  -6   75.35    4.68
   7   1  -6   76.69    4.63
  -7  -1  -6   78.88    4.69
   7   1  -6   79.19    4.62
  -7  -1  -6   84.69    4.64
  -7   1  -7   10.46    0.75
   7  -1  -7   10.44    0.65
  -7   1  -7    9.09    0.68
   7  -1  -7    9.28    0.69
  -7  -1  -7    9.91    0.76
   7   1  -7    8.85    0.65
  -7  -1  -7   10.27    0.69
   7   1  -7    8.69    0.68
   7  -1  -8   50.94    3.03
  -7   1  -8   51.92    3.15
   7  -1  -8   49.62    3.08
  -7   1  -8   51.61    3.07
   7   1  -8   53.85    3.09
  -7  -1  -8   49.62    3.06
   7   1  -8   48.75    3.04
  -7  -1  -8   54.08    3.16
  -7   1  -9    0.26    0.26
   7  -1  -9    0.34    0.24
   7  -1  -9    0.54    0.17
  -7   1  -9    0.82    0.23
   7   1  -9    0.27    0.21
  -7  -1  -9    0.36    0.21
  -7  -1  -9    0.60    0.29
   7   1  -9    0.34    0.19
  -7   1 -10   22.54    1.57
   7  -1 -10   23.67    1.52
  -7   1 -10   22.09    1.48
   7   1 -10   21.05    1.43
  -7  -1 -10   22.87    1.57
  -7  -1 -10   23.23    1.48
  -7   1 -11    0.00    0.26
  -7   1 -11   -0.03    0.28
  -7  -1 -11    0.07    0.29
  -7  -1 -11   -0.40    0.22
  -7  -2   0    0.10    0.06
  -7   2   0    0.02    0.05
  -7   2   0    0.02    0.04
  -7  -2   0    0.00    0.03
  -7   2   0   -0.03    0.04
  -7   2  -1  216.39   12.78
  -7  -2   1  224.16   12.76
  -7   2  -1  224.41   12.76
  -7   2  -1  225.94   12.77
  -7  -2  -1  214.19   12.77
  -7   2   1  221.14   12.76
  -7  -2  -1  229.16   12.77
  -7   2  -2    0.51    0.09
  -7   2  -2    0.46    0.11
  -7   2  -2    0.65    0.09
  -7  -2   2    0.79    0.09
  -7  -2  -2    0.55    0.09
   7   2  -2    0.66    0.06
  -7  -2  -2    0.73    0.10
  -7  -2  -2    0.66    0.11
  -7   2  -3   19.15    1.12
  -7   2  -3   18.46    1.13
  -7  -2   3   18.58    1.10
  -7   2  -3   18.27    1.16
   7   2  -3   18.20    1.11
  -7  -2  -3   18.99    1.13
  -7  -2  -3   18.76    1.16
  -7  -2  -3   19.35    1.12
  -7   2  -4   32.00    1.96
   7  -2  -4   35.33    1.94
  -7   2  -4   32.42    1.93
  -7   2  -4   31.49    2.00
  -7  -2   4   32.25    1.92
   7   2  -4   33.72    1.95
  -7  -2  -4   33.47    1.96
   7   2  -4   33.26    1.95
  -7  -2  -4   34.10    2.01
  -7  -2  -4   32.46    1.93
   7  -2  -5    0.39    0.10
  -7   2  -5    0.45    0.16
  -7   2  -5    0.39    0.13
   7  -2  -5    0.73    0.15
  -7   2  -5    0.48    0.07
  -7  -2   5    0.61    0.07
  -7  -2  -5    0.89    0.15
  -7  -2  -5    0.54    0.08
   7   2  -5    0.82    0.14
  -7  -2  -5    0.56    0.17
   7   2  -5    0.57    0.12
  -7   2  -6   21.00    1.39
  -7   2  -6   22.58    1.34
   7  -2  -6   21.10    1.30
   7  -2  -6   21.09    1.34
  -7  -2  -6   22.19    1.39
   7   2  -6   21.49    1.34
  -7  -2  -6   20.82    1.32
   7   2  -6   21.77    1.32
  -7   2  -7    0.02    0.18
   7  -2  -7    0.04    0.17
   7  -2  -7    0.21    0.12
  -7   2  -7    0.03    0.14
   7   2  -7   -0.01    0.16
  -7  -2  -7    0.26    0.19
   7   2  -7    0.40    0.15
  -7  -2  -7   -0.10    0.14
  -7   2  -8    0.10    0.24
   7  -2  -8    0.13    0.14
   7  -2  -8   -0.15    0.17
  -7   2  -8    0.28    0.20
  -7  -2  -8   -0.10    0.23
  -7  -2  -8   -0.03    0.15
   7   2  -8    0.03    0.18
   7   2  -8    0.10    0.15
  -7   2  -9    0.26    0.20
   7  -2  -9    0.15    0.22
  -7   2  -9    0.20    0.24
  -7  -2  -9    0.23    0.21
   7   2  -9    0.51    0.19
  -7  -2  -9    0.26    0.24
  -7   2 -10    0.16    0.30
  -7   2 -10    0.43    0.24
   7  -2 -10    0.62    0.30
  -7  -2 -10    0.25    0.23
   7   2 -10    0.77    0.24
  -7  -2 -10    0.50    0.29
  -7   2 -11    0.20    0.27
  -7   2 -11    0.15    0.29
  -7  -2 -11    0.35    0.31
  -7  -2 -11   -0.08    0.24
   7   2 -11    0.52    0.24
  -7   3   0    0.02    0.05
  -7  -3   0    0.02    0.04
  -7  -3   0   -0.01    0.05
  -7   3   0    0.08    0.05
  -7   3   0    0.09    0.04
  -7   3  -1   62.26    3.71
  -7   3  -1   63.28    3.68
  -7  -3   1   65.20    3.69
  -7   3  -1   62.18    3.69
  -7  -3  -1   64.71    3.69
  -7  -3  -1   68.55    3.69
   7   3  -1   59.32    3.65
  -7   3  -2   80.58    4.80
  -7  -3   2   82.85    4.76
  -7   3  -2   79.96    4.77
  -7   3  -2   81.22    4.77
  -7  -3  -2   87.02    4.79
   7   3  -2   85.20    4.74
  -7  -3  -2   81.78    4.77
  -7  -3  -2   80.46    4.77
  -7   3  -3   15.38    1.00
  -7   3  -3   15.61    0.97
  -7  -3   3   16.14    0.94
  -7   3  -3   16.13    0.95
  -7  -3  -3   14.90    0.95
  -7  -3  -3   16.59    0.96
   7   3  -3   15.32    0.94
  -7  -3  -3   15.56    0.99
  -7   3  -4   19.50    1.17
  -7   3  -4   18.51    1.24
  -7   3  -4   19.63    1.21
  -7  -3   4   19.78    1.17
   7   3  -4   20.70    1.19
  -7  -3  -4   19.99    1.20
  -7  -3  -4   20.49    1.25
   7   3  -4   20.39    1.20
  -7  -3  -4   18.87    1.18
  -7   3  -5    4.26    0.37
   7  -3  -5    4.04    0.29
  -7   3  -5    4.05    0.33
  -7  -3   5    4.21    0.26
  -7   3  -5    3.73    0.26
  -7  -3  -5    3.60    0.31
  -7  -3  -5    4.06    0.37
   7   3  -5    3.80    0.31
   7   3  -5    4.12    0.32
  -7  -3  -5    3.56    0.27
  -7   3  -6   26.92    1.64
   7  -3  -6   27.57    1.60
  -7   3  -6   27.06    1.70
  -7  -3  -6   25.77    1.69
   7   3  -6   25.93    1.62
  -7  -3  -6   27.32    1.63
   7   3  -6   26.40    1.63
  -7   3  -7    6.86    0.62
   7  -3  -7    7.96    0.60
  -7   3  -7    7.38    0.58
   7  -3  -7    7.26    0.52
  -7  -3  -7    8.44    0.57
   7   3  -7    8.04    0.58
  -7  -3  -7    7.29    0.63
   7   3  -7    7.88    0.57
   7  -3  -8   56.23    3.38
  -7   3  -8   56.72    3.43
  -7   3  -8   55.82    3.36
   7   3  -8   56.06    3.34
  -7  -3  -8   55.49    3.43
   7   3  -8   58.37    3.37
  -7  -3  -8   54.48    3.34
  -7   3  -9    0.23    0.24
   7  -3  -9    0.32    0.24
  -7   3  -9    0.24    0.21
  -7  -3  -9    0.48    0.26
   7   3  -9    0.06    0.20
  -7  -3  -9    0.14    0.18
   7  -3 -10   20.36    1.36
  -7   3 -10   20.68    1.35
  -7   3 -10   16.47    1.38
  -7  -3 -10   21.20    1.33
   7   3 -10   20.19    1.31
  -7  -3 -10   20.61    1.43
  -7  -4   0   -0.05    0.07
  -7   4   0    0.10    0.05
  -7   4   0   -0.09    0.06
  -7   4   0    0.03    0.07
  -7  -4   1   11.16    0.69
  -7   4  -1   10.78    0.71
  -7   4  -1   11.20    0.67
  -7   4  -1   10.93    0.68
   7   4  -1    9.51    0.67
  -7   4   1   11.41    0.65
  -7  -4  -1   11.26    0.69
  -7  -4  -1   11.60    0.68
  -7   4  -2   -0.12    0.06
  -7   4  -2    0.01    0.07
  -7   4  -2    0.04    0.06
  -7  -4   2   -0.02    0.06
  -7  -4  -2    0.29    0.08
  -7  -4  -2   -0.06    0.06
   7   4  -2    0.03    0.04
  -7  -4  -2    0.12    0.08
  -7  -4   3    8.42    0.52
  -7   4  -3    8.39    0.53
  -7   4  -3    7.77    0.58
  -7   4  -3    8.61    0.55
  -7  -4  -3    7.96    0.57
   7   4  -3    8.82    0.52
  -7  -4  -3    7.87    0.53
  -7  -4  -3    8.36    0.54
  -7   4  -4    0.48    0.12
  -7  -4   4    0.37    0.08
  -7   4  -4    0.36    0.08
  -7   4  -4    0.71    0.16
  -7  -4  -4    0.43    0.14
  -7  -4  -4    0.36    0.10
  -7  -4  -4    0.25    0.09
   7   4  -4    0.35    0.11
   7   4  -4    0.41    0.10
  -7   4  -5    0.33    0.07
  -7   4  -5    0.44    0.15
   7  -4  -5    0.24    0.08
  -7   4  -5    0.33    0.17
  -7  -4   5    0.35    0.08
  -7  -4  -5    0.46    0.13
   7   4  -5    0.25    0.12
   7   4  -5    0.35    0.12
  -7  -4  -5    0.23    0.08
  -7  -4  -5    0.47    0.16
  -7   4  -6   -0.02    0.15
  -7   4  -6    0.12    0.14
   7  -4  -6    0.11    0.09
  -7  -4  -6   -0.03    0.15
  -7  -4  -6    0.15    0.12
   7   4  -6    0.18    0.12
   7   4  -6    0.04    0.12
  -7   4  -7    1.80    0.31
  -7   4  -7    1.49    0.25
  -7  -4  -7    1.56    0.23
   7   4  -7    1.59    0.24
  -7  -4  -7    1.12    0.27
   7   4  -7    1.43    0.24
  -7   4  -8    0.34    0.20
  -7   4  -8    0.34    0.22
   7   4  -8    0.28    0.22
   7   4  -8    0.06    0.16
  -7  -4  -8   -0.01    0.20
  -7  -4  -8    0.15    0.17
  -7   4  -9    3.74    0.53
  -7   4  -9    5.04    0.48
  -7  -4  -9    4.73    0.45
  -7  -4  -9    4.49    0.54
   7   4  -9    3.88    0.44
  -7   4 -10    1.39    0.38
  -7   4 -10    1.01    0.28
  -7  -4 -10    1.63    0.33
  -7  -4 -10    1.31    0.36
   7   4 -10    1.58    0.29
  -7   5   0    0.11    0.05
  -7  -5   0   -0.12    0.06
  -7   5   0    0.01    0.10
  -7   5  -1    1.59    0.15
  -7   5  -1    1.37    0.19
  -7   5  -1    1.36    0.16
  -7  -5   1    1.85    0.18
   7   5  -1    1.26    0.17
  -7   5   1    1.22    0.26
  -7   5   1    1.77    0.12
  -7  -5  -1    1.89    0.18
  -7  -5   2    2.66    0.22
  -7   5  -2    2.87    0.23
  -7   5  -2    2.40    0.22
  -7   5  -2    2.41    0.27
  -7  -5  -2    3.07    0.23
  -7   5   2    2.84    0.18
   7   5  -2    3.05    0.20
  -7  -5  -2    2.78    0.24
  -7  -5  -2    2.54    0.25
  -7   5  -3   34.78    2.17
  -7   5  -3   35.29    2.12
  -7   5  -3   36.89    2.14
  -7  -5   3   36.60    2.12
  -7  -5  -3   38.15    2.17
   7   5  -3   34.44    2.11
  -7  -5  -3   37.59    2.13
  -7  -5  -3   35.72    2.13
  -7  -5   4    1.83    0.18
  -7   5  -4    2.13    0.18
  -7   5  -4    1.85    0.22
  -7   5  -4    1.76    0.25
  -7  -5  -4    1.84    0.24
  -7  -5  -4    2.17    0.20
   7   5  -4    1.77    0.19
  -7  -5  -4    1.68    0.19
   7   5  -4    2.02    0.21
  -7  -5   5    2.79    0.22
  -7   5  -5    2.53    0.28
  -7   5  -5    2.75    0.33
  -7   5  -5    2.99    0.21
   7  -5  -5    2.61    0.21
  -7  -5  -5    3.07    0.35
  -7  -5  -5    3.08    0.27
   7   5  -5    2.85    0.27
  -7  -5  -5    2.40    0.22
   7   5  -5    2.80    0.28
  -7   5  -6    0.15    0.17
  -7   5  -6    0.06    0.15
  -7  -5  -6    0.26    0.18
   7   5  -6    0.12    0.13
   7   5  -6    0.13    0.13
  -7  -5  -6    0.41    0.13
  -7   5  -7    1.08    0.26
  -7   5  -7    0.84    0.21
  -7  -5  -7    1.02    0.26
  -7  -5  -7    1.25    0.22
   7   5  -7    1.18    0.22
   7   5  -7    1.50    0.23
  -7   5  -8    2.89    0.44
  -7   5  -8    3.56    0.40
   7   5  -8    3.71    0.39
  -7  -5  -8    3.64    0.46
  -7  -5  -8    3.38    0.36
  -7   5  -9   -0.09    0.22
  -7   5  -9    0.11    0.25
  -7  -5  -9   -0.03    0.19
  -7  -5  -9    0.33    0.27
   7   5  -9   -0.06    0.18
  -7   5 -10    1.12    0.30
  -7   5 -10    1.49    0.36
   7   5 -10    1.04    0.27
  -7  -5 -10    1.91    0.42
  -7   6   0    0.05    0.05
  -7  -6   0   -0.02    0.07
  -7   6   0    0.08    0.11
  -7   6  -1  158.21    9.22
  -7   6  -1  160.46    9.14
  -7  -6   1  161.81    9.16
  -7   6  -1  153.34    9.15
  -7   6   1  158.59    9.11
  -7  -6  -1  160.69    9.16
  -7  -6   2   56.57    3.28
  -7   6  -2   54.67    3.33
  -7   6  -2   55.49    3.28
  -7   6  -2   55.80    3.28
  -7   6   2   55.15    3.23
  -7   6   2   59.09    3.54
   7   6  -2   56.11    3.27
  -7  -6  -2   58.30    3.29
  -7   6  -3    3.22    0.34
  -7   6  -3    3.41    0.27
  -7   6  -3    3.83    0.29
  -7  -6   3    3.80    0.28
  -7  -6  -3    3.91    0.28
  -7  -6  -3    3.79    0.32
  -7  -6  -3    3.44    0.29
   7   6  -3    3.53    0.27
  -7   6  -4    4.35    0.37
  -7   6  -4    4.79    0.33
  -7   6  -4    5.01    0.40
  -7  -6   4    4.58    0.33
   7   6  -4    4.67    0.34
   7   6  -4    4.40    0.35
  -7  -6  -4    4.13    0.33
  -7  -6  -4    3.82    0.37
  -7  -6  -4    4.70    0.34
  -7  -6   5   10.16    0.66
  -7   6  -5   10.71    0.71
  -7   6  -5   10.16    0.75
  -7   6  -5   10.50    0.65
   7   6  -5   10.73    0.69
  -7  -6  -5   10.88    0.67
  -7  -6  -5    9.86    0.74
   7   6  -5   11.36    0.71
  -7  -6  -5    9.80    0.68
  -7   6  -6    0.34    0.18
  -7   6  -6    0.57    0.18
  -7  -6  -6    0.50    0.15
   7   6  -6    0.41    0.15
  -7  -6  -6    0.20    0.17
   7   6  -6    0.53    0.16
  -7   6  -7    2.29    0.31
  -7   6  -7    1.65    0.32
   7   6  -7    2.41    0.29
   7   6  -7    2.64    0.36
  -7  -6  -7    2.32    0.36
  -7  -6  -7    2.28    0.27
  -7   6  -8    3.48    0.46
  -7   6  -8    3.51    0.42
  -7  -6  -8    3.66    0.47
   7   6  -8    3.90    0.40
  -7  -6  -8    3.50    0.37
  -7   6  -9    1.23    0.35
  -7   6  -9    1.69    0.31
  -7  -6  -9    1.92    0.38
   7   6  -9    1.92    0.32
  -7   6 -10    3.14    0.49
  -7   6 -10    2.59    0.41
  -7  -6 -10    2.89    0.47
   7   6 -10    3.47    0.43
  -7   7   0    0.07    0.06
  -7   7   0    0.15    0.15
  -7  -7   0    0.14    0.09
  -7   7  -1   20.24    1.17
  -7   7  -1   19.73    1.26
  -7  -7   1   19.82    1.19
  -7   7   1   16.11    1.36
  -7  -7  -1   20.60    1.20
   7   7  -1   16.99    1.24
  -7   7   1   20.33    1.14
  -7   7  -2    0.95    0.14
  -7  -7   2    1.22    0.16
  -7   7  -2    1.30    0.20
  -7   7  -2    1.12    0.15
  -7  -7  -2    1.00    0.15
  -7   7   2    1.35    0.36
   7   7  -2    1.22    0.15
  -7   7  -3   16.25    1.01
  -7  -7   3   16.32    1.00
  -7   7  -3   15.98    0.99
  -7   7  -3   15.40    1.05
  -7  -7  -3   16.81    0.99
   7   7  -3   15.88    0.99
  -7  -7  -3   16.51    1.01
  -7   7  -4   61.32    3.76
  -7   7  -4   65.56    3.73
  -7  -7   4   64.35    3.74
  -7   7  -4   64.32    3.81
  -7  -7  -4   64.19    3.74
  -7  -7  -4   63.92    3.79
  -7  -7  -4   65.36    3.75
   7   7  -4   63.92    3.76
   7   7  -4   64.05    3.75
  -7   7  -5    3.15    0.38
  -7   7  -5    3.25    0.25
  -7  -7   5    3.18    0.27
  -7   7  -5    2.49    0.30
  -7  -7  -5    3.50    0.38
  -7  -7  -5    3.27    0.27
  -7  -7  -5    3.26    0.29
   7   7  -5    2.91    0.30
   7   7  -5    2.97    0.30
  -7   7  -6   14.14    0.90
  -7   7  -6   13.52    0.94
  -7  -7  -6   12.99    0.93
  -7  -7  -6   12.53    0.85
   7   7  -6   12.83    0.87
   7   7  -6   13.35    0.88
  -7   7  -7    3.37    0.44
  -7   7  -7    3.38    0.38
  -7  -7  -7    3.26    0.33
   7   7  -7    3.09    0.34
  -7  -7  -7    3.32    0.42
  -7   7  -8   16.68    1.20
  -7   7  -8   17.94    1.16
  -7  -7  -8   16.83    1.20
   7   7  -8   16.61    1.12
  -7   7  -9   -0.10    0.23
  -7   7  -9    0.01    0.23
   7   7  -9    0.15    0.20
  -7  -7  -9   -0.19    0.24
  -7   7 -10    8.64    0.83
  -7   7 -10    9.77    0.81
   7   7 -10    9.38    0.75
  -7  -7 -10   10.28    0.86
  -7  -8   0   -0.05    0.09
  -7   8   0    0.00    0.06
  -7   8   0    0.16    0.17
  -7   8  -1   24.74    1.52
  -7  -8   1   25.34    1.44
  -7   8  -1   24.62    1.40
  -7   8   1   21.37    1.63
  -7  -8  -1   24.00    1.43
  -7   8   1   23.97    1.37
   7   8  -1   19.17    1.47
  -7  -8   2    0.94    0.16
  -7   8  -2    0.99    0.15
  -7   8  -2    0.64    0.17
  -7   8  -2    1.04    0.14
  -7   8   2    0.75    0.33
  -7  -8  -2    1.00    0.17
   7   8  -2    1.27    0.18
  -7  -8   3   40.30    2.40
  -7   8  -3   41.20    2.47
  -7   8  -3   40.43    2.41
  -7   8  -3   40.58    2.40
   7   8  -3   42.58    2.40
  -7  -8  -3   38.86    2.39
  -7  -8  -3   40.35    2.41
  -7  -8   4   14.61    0.95
  -7   8  -4   15.13    1.02
  -7   8  -4   14.36    0.97
  -7   8  -4   15.29    0.94
   7   8  -4   16.16    0.96
  -7  -8  -4   15.23    0.96
  -7  -8  -4   15.41    0.94
   7   8  -4   15.14    0.97
  -7   8  -5    6.00    0.43
  -7  -8   5    6.42    0.45
  -7   8  -5    5.65    0.48
  -7   8  -5    5.90    0.52
  -7  -8  -5    6.75    0.45
   7   8  -5    6.77    0.47
  -7  -8  -5    6.30    0.45
  -7  -8  -5    5.72    0.51
   7   8  -5    5.84    0.47
  -7   8  -6    0.19    0.19
  -7   8  -6    0.10    0.19
  -7  -8  -6    0.24    0.20
   7   8  -6    0.19    0.15
   7   8  -6    0.14    0.17
  -7  -8  -6    0.13    0.13
  -7   8  -7    8.91    0.71
  -7   8  -7    8.09    0.63
   7   8  -7    6.88    0.60
  -7  -8  -7    8.94    0.63
  -7  -8  -7    7.74    0.67
  -7   8  -8    5.56    0.51
  -7   8  -8    5.07    0.57
  -7  -8  -8    4.16    0.53
   7   8  -8    4.53    0.46
  -7   8  -9    2.54    0.44
  -7   8  -9    2.49    0.37
  -7  -8  -9    2.79    0.43
   7   8  -9    1.76    0.33
  -7   8 -10    0.28    0.26
  -7   8 -10    0.61    0.31
  -7  -8 -10    0.40    0.34
   7   8 -10    0.39    0.25
  -7   9   0   -0.01    0.07
  -7  -9   0    0.02    0.10
  -7   9   0   -0.03    0.16
   7   9   0   -0.11    0.16
  -7   9  -1    0.05    0.08
  -7   9  -1    0.03    0.12
  -7  -9   1    0.04    0.10
  -7   9   1    0.05    0.20
  -7   9   1    0.04    0.04
   7   9  -1   -0.03    0.12
  -7  -9  -1    0.08    0.10
  -7   9  -2   33.74    1.99
  -7  -9   2   31.74    2.01
  -7   9  -2   34.97    2.09
  -7  -9  -2   34.46    2.02
  -7   9   2   32.51    2.33
   7   9  -2   33.46    2.03
  -7   9  -3    1.99    0.29
  -7  -9   3    2.39    0.26
  -7   9  -3    2.13    0.25
  -7   9  -3    2.50    0.25
   7   9  -3    2.24    0.24
  -7  -9  -3    2.83    0.27
  -7  -9  -3    2.61    0.24
  -7   9  -4   38.85    2.41
  -7  -9   4   40.70    2.40
  -7   9  -4   39.80    2.38
  -7   9  -4   41.27    2.47
  -7  -9  -4   40.09    2.38
  -7  -9  -4   41.75    2.40
   7   9  -4   39.90    2.40
  -7   9  -5    0.95    0.21
  -7   9  -5    0.94    0.20
  -7   9  -5    0.84    0.22
  -7  -9   5    0.65    0.16
   7   9  -5    0.76    0.17
  -7  -9  -5    1.18    0.17
   7   9  -5    0.74    0.16
  -7  -9  -5    1.08    0.18
  -7   9  -6    8.03    0.65
  -7   9  -6    6.70    0.58
   7   9  -6    8.07    0.59
  -7  -9  -6    7.75    0.54
  -7   9  -7   -0.08    0.18
  -7   9  -7    0.04    0.18
   7   9  -7   -0.18    0.14
  -7  -9  -7    0.02    0.20
  -7   9  -8   12.20    0.95
  -7   9  -8   12.54    0.90
   7   9  -8   11.45    0.87
  -7  -9  -8   13.10    0.96
  -7   9  -9   -0.35    0.20
  -7   9  -9   -0.06    0.26
  -7  -9  -9    0.30    0.26
   7   9  -9   -0.02    0.20
  -7   9 -10   11.81    0.99
  -7  10   0   -0.08    0.17
  -7  10   0    0.06    0.07
  -7 -10   0   -0.11    0.10
   7  10   0   -0.01    0.16
  -7 -10   1  165.99    9.48
  -7  10  -1  175.65    9.62
  -7  10  -1  169.74    9.43
  -7 -10  -1  168.88    9.48
  -7  10   1  157.13    9.40
  -7  10   1  158.85    9.76
   7  10  -1  149.76    9.56
  -7  10  -2    3.65    0.40
  -7 -10   2    2.66    0.29
  -7  10  -2    2.62    0.26
  -7 -10  -2    2.54    0.28
  -7  10   2    2.61    0.55
   7  10  -2    2.81    0.32
  -7 -10   3   52.35    3.18
  -7  10  -3   54.43    3.17
  -7  10  -3   55.51    3.17
  -7  10  -3   57.34    3.26
  -7 -10  -3   54.24    3.18
  -7 -10  -3   51.00    3.15
   7  10  -3   52.56    3.18
  -7  10  -4    5.03    0.40
  -7  10  -4    5.40    0.50
  -7  10  -4    4.98    0.44
  -7 -10   4    5.13    0.42
  -7 -10  -4    5.51    0.39
   7  10  -4    6.14    0.43
  -7 -10  -4    5.17    0.42
  -7 -10   5   11.82    0.75
  -7  10  -5   11.90    0.78
  -7  10  -5   11.02    0.83
  -7 -10  -5   11.23    0.74
   7  10  -5   11.15    0.90
  -7 -10  -5   11.22    0.73
   7  10  -5    9.86    0.75
  -7  10  -6    0.28    0.19
  -7  10  -6    0.41    0.21
   7  10  -6    0.51    0.18
  -7  10  -7    5.89    0.61
  -7  10  -7    4.48    0.50
   7  10  -7    6.29    0.50
  -7  10  -8    4.07    0.52
  -7  10  -8    3.95    0.44
   7  10  -8    3.08    0.40
  -7  10  -9    0.84    0.31
  -7  10  -9    0.74    0.31
   7  10  -9    0.96    0.27
  -7 -11   0    0.04    0.12
  -7  11   0    0.15    0.21
  -7  11   0   -0.07    0.07
   7  11   0    0.05    0.18
  -7 -11   1    0.27    0.13
  -7  11  -1    0.10    0.16
  -7  11  -1    0.09    0.10
   7  11  -1   -0.14    0.14
  -7 -11  -1   -0.02    0.12
  -7  11   1    0.02    0.20
  -7  11  -2    0.92    0.16
  -7 -11   2    1.13    0.19
  -7  11  -2    0.74    0.22
  -7  11   2    0.97    0.38
  -7 -11  -2    1.03    0.18
   7  11  -2    0.92    0.21
  -7  11  -3    0.60    0.15
  -7  11  -3    0.83    0.22
  -7  11  -3    0.47    0.13
  -7 -11   3    0.72    0.17
  -7 -11  -3    0.34    0.15
  -7  11   3    1.19    0.42
   7  11  -3    0.60    0.15
  -7 -11  -3    0.63    0.13
  -7 -11   4    0.62    0.18
  -7  11  -4    0.36    0.19
  -7  11  -4    1.03    0.19
  -7  11  -4    0.85    0.16
  -7 -11  -4    0.64    0.17
  -7 -11  -4    0.79    0.14
   7  11  -4    0.74    0.17
  -7 -11   5    2.63    0.30
  -7  11  -5    2.24    0.31
  -7  11  -5    2.06    0.34
  -7 -11  -5    2.75    0.29
  -7  11  -6    6.59    0.60
  -7  11  -6    6.40    0.54
   7  11  -6    6.39    0.53
  -7  11  -7    1.49    0.34
  -7  11  -7    1.43    0.28
   7  11  -7    1.58    0.27
  -7  11  -8   33.46    2.19
  -7  11  -8   32.68    2.11
   7  11  -8   34.60    2.10
  -7  11  -9   -0.28    0.25
  -7  11  -9    0.28    0.27
   7  11  -9    0.05    0.22
  -7  12   0    0.07    0.23
   7  12   0    0.20    0.22
  -7 -12   0    0.00    0.13
  -7  12  -1   99.42    5.16
  -7 -12   1   82.28    4.95
  -7  12  -1   83.17    4.90
  -7  12   1   81.04    5.28
  -7 -12  -1   84.70    4.95
   7  12  -1   77.35    5.06
  -7  12  -2   10.35    0.71
  -7  12  -2   11.86    0.86
  -7 -12   2   10.85    0.75
  -7 -12  -2   10.61    0.74
   7  12  -2   10.99    0.80
  -7  12   2    9.26    1.16
  -7 -12   3   13.94    0.93
  -7  12  -3   14.21    0.91
  -7  12  -3   13.56    1.00
  -7  12  -3   13.30    0.90
  -7 -12  -3   13.46    0.92
   7  12  -3   15.71    0.95
  -7  12   3   14.85    1.33
  -7 -12  -3   12.41    0.87
  -7 -12   4    4.64    0.44
  -7  12  -4    4.47    0.43
  -7  12  -4    5.04    0.40
  -7  12  -4    3.82    0.48
  -7 -12  -4    5.17    0.45
   7  12  -4    5.38    0.54
  -7 -12   5    2.62    0.31
  -7  12  -5    1.92    0.30
  -7  12  -5    1.95    0.34
  -7 -12  -5    2.84    0.30
  -7  12  -6    1.39    0.27
  -7  12  -6    1.44    0.32
   7  12  -6    1.22    0.25
  -7  12  -7   -0.16    0.19
  -7  12  -7    0.18    0.23
   7  12  -7    0.08    0.19
  -7  12  -8    1.46    0.31
  -7  12  -8    1.63    0.37
   7  12  -8    1.30    0.29
  -7  12  -9    0.19    0.26
  -7  12  -9    0.25    0.30
   7  12  -9    0.11    0.23
  -7 -13   0    0.13    0.15
  -7  13   0   -0.13    0.25
   7  13   0   -0.11    0.23
  -7 -13   1   -0.03    0.16
  -7  13  -1    0.42    0.26
  -7  13  -1    0.10    0.11
   7  13   1    0.14    0.26
   7  13  -1   -0.20    0.18
  -7  13   1    0.39    0.35
  -7 -13  -1    0.02    0.15
  -7 -13   2    6.59    0.54
  -7  13  -2    6.06    0.48
  -7  13  -2    7.66    0.66
  -7  13   2    5.47    0.90
   7  13  -2    7.27    0.60
  -7 -13  -2    6.09    0.52
  -7  13  -3    0.88    0.20
  -7 -13   3    0.77    0.21
  -7  13  -3    0.63    0.19
  -7  13  -3    1.16    0.28
  -7  13   3    1.30    0.51
   7  13  -3    0.90    0.21
  -7 -13  -3    1.28    0.21
  -7  13  -4    4.71    0.44
  -7  13  -4    5.58    0.59
  -7 -13   4    4.42    0.46
  -7  13  -4    6.12    0.45
  -7 -13  -4    4.92    0.47
  -7  13   4    4.24    0.81
  -7  13  -5    3.29    0.44
  -7 -13   5    2.62    0.34
  -7  13  -5    2.22    0.32
  -7 -13  -5    2.94    0.33
  -7  13  -6    3.62    0.48
  -7  13  -6    2.87    0.39
  -7  13  -7    1.78    0.32
  -7  13  -7    2.23    0.42
   7  13  -7    1.82    0.31
  -7  13  -8    5.61    0.56
  -7  13  -8    4.36    0.59
   7  13  -8    4.36    0.49
  -7 -14   0    0.06    0.16
   7  14   0   -0.09    0.25
  -7  14   0    0.30    0.30
  -7  14  -1    5.24    0.66
   7  14   1    3.14    0.59
  -7 -14   1    4.01    0.42
  -7 -14  -1    4.50    0.44
  -7  14   1    5.90    0.84
   7  14  -1    4.01    0.57
  -7 -14   2    6.29    0.53
  -7  14  -2    6.99    0.50
  -7  14  -2    6.43    0.71
  -7  14   2    5.97    0.97
  -7 -14  -2    5.87    0.56
   7  14  -2    7.15    0.62
  -7  14  -3    6.89    0.65
  -7 -14   3    7.47    0.56
  -7  14  -3    7.29    0.54
  -7  14   3    6.40    1.04
   7  14  -3    6.08    0.80
  -7 -14  -3    6.26    0.54
  -7  14  -4    0.23    0.22
  -7  14  -4    0.51    0.19
  -7 -14   4    0.42    0.21
  -7  14  -4    0.35    0.21
  -7 -14  -4    0.24    0.19
  -7  14   4    0.03    0.33
  -7 -14   5    7.90    0.63
  -7  14  -5    7.02    0.60
  -7  14  -5    8.05    0.70
  -7 -14  -5    7.88    0.60
  -7  14  -6    1.28    0.30
  -7  14  -6    1.64    0.35
  -7  14  -7   11.25    0.92
  -7  14  -7   10.21    0.84
  -7  14  -8    0.66    0.34
  -7  14  -8    0.58    0.28
   7  14  -8   -0.08    0.23
  -7 -15   0    0.17    0.18
   7  15   0    0.16    0.28
  -7  15   0    0.15    0.30
   7  15   1    1.85    0.51
  -7  15  -1    3.91    0.58
  -7 -15   1    2.63    0.36
  -7  15   1    4.49    0.77
  -7 -15  -1    3.07    0.36
   7  15  -1    4.29    0.57
   7  15   2    0.19    0.32
  -7 -15   2    0.63    0.23
  -7  15  -2    0.37    0.26
   7  15  -2    0.07    0.20
  -7 -15  -2    0.31    0.20
  -7  15   2    0.67    0.44
  -7  15  -3    4.71    0.43
  -7 -15   3    4.39    0.47
  -7  15  -3    5.22    0.63
  -7 -15  -3    4.53    0.46
  -7  15   3    4.35    0.88
  -7  15  -4    7.53    0.68
  -7  15  -4    7.27    0.56
  -7 -15   4    6.08    0.56
  -7  15  -4    7.48    0.58
  -7  15   4    5.29    0.97
  -7 -15  -4    6.50    0.57
  -7  15  -5    0.21    0.22
  -7 -15   5    0.38    0.22
  -7  15  -5    0.17    0.22
  -7 -15  -5    0.43    0.21
  -7  15   5    0.73    0.47
  -7  15  -6    2.76    0.44
  -7  15  -6    1.93    0.32
  -7  15  -7    0.55    0.25
  -7  15  -7    0.35    0.28
  -7  16   0   -0.05    0.36
  -7 -16   0   -0.07    0.19
   7  16   0    0.21    0.39
   7  16   1    0.41    0.43
  -7 -16   1    0.13    0.19
  -7  16  -1    0.13    0.31
  -7  16   1   -0.20    0.39
  -7 -16  -1    0.28    0.20
   7  16  -1    0.56    0.31
  -7 -16   2    0.35    0.23
   7  16   2   -0.14    0.33
  -7  16  -2    0.25    0.27
  -7 -16  -2    0.27    0.22
  -7  16   2    0.19    0.36
  -7  16  -3    0.09    0.25
  -7 -16   3    0.38    0.22
  -7 -16  -3    0.39    0.21
  -7  16   3    0.62    0.53
  -7  16  -4    5.44    0.66
  -7 -16   4    5.52    0.56
  -7  16  -4    6.76    0.53
  -7  16  -4    5.34    0.51
  -7  16   4    4.29    0.90
  -7 -16  -4    5.65    0.55
  -7  16  -5    2.36    0.36
  -7 -16   5    2.99    0.39
  -7  16  -5    2.56    0.47
  -7  16   5    2.49    0.71
  -7 -16  -5    3.19    0.53
  -7  16  -6   -0.02    0.21
  -7  16  -6   -0.38    0.24
  -7  16  -7    0.39    0.31
  -7  16  -7    0.48    0.26
   7  17   0   -0.02    0.32
  -7  17   0    0.35    0.40
  -7 -17   0    0.06    0.20
  -7  17  -1    1.91    0.51
  -7 -17   1    1.22    0.29
   7  17   1    0.71    0.44
  -7  17   1    2.49    0.66
   7  17  -1    1.10    0.40
  -7 -17  -1    1.40    0.32
  -7  17  -2    3.48    0.55
  -7 -17   2    3.02    0.41
   7  17   2    2.92    0.64
  -7 -17  -2    2.92    0.38
  -7  17   2    2.34    0.70
   7  17   3    1.84    0.57
  -7  17  -3    0.93    0.33
  -7 -17   3    1.43    0.29
  -7 -17  -3    1.12    0.28
  -7  17   3    0.68    0.47
  -7  17  -4    3.23    0.53
  -7 -17   4    3.52    0.43
  -7  17   4    2.64    0.78
  -7 -17  -4    3.56    0.42
  -7  17  -5    1.46    0.39
  -7  17  -5    1.77    0.31
  -7 -17   5    2.26    0.37
  -7  17   5    0.98    0.59
  -7  17  -6    1.27    0.32
  -7  17  -6    0.74    0.35
  -7 -17   6    1.95    0.47
  -7  17   6    0.83    0.57
   7  18   0   -0.21    0.31
  -7 -18   0   -0.22    0.22
  -7  18   0    0.76    0.46
  -7 -18   1   18.80    1.31
   7  18   1   15.27    1.57
  -7  18  -1   25.24    1.65
  -7 -18  -1   18.73    1.32
  -7  18   1   21.64    1.77
  -7 -18   2    1.81    0.35
   7  18   2    2.43    0.63
  -7  18  -2    2.43    0.54
  -7  18   2    1.72    0.64
  -7 -18  -2    2.46    0.37
   7  18   3    9.21    1.23
  -7 -18   3    8.29    0.75
  -7  18  -3   10.79    0.94
  -7 -18  -3    9.02    0.74
  -7  18   3    8.00    1.25
  -7 -18   4   -0.01    0.22
  -7  18  -4   -0.04    0.24
  -7 -18  -4   -0.12    0.20
  -7  18   4   -0.26    0.41
  -7 -18   5    0.75    0.28
  -7  18  -5    0.92    0.35
  -7  18   5   -0.19    0.41
   7  19   0    0.64    0.53
  -7  19   0   -0.52    0.31
  -7 -19   0    0.08    0.27
   7  19   1    5.70    0.91
  -7 -19   1    6.15    0.65
  -7  19  -1    8.18    0.97
  -7  19   1    9.21    1.18
  -7 -19  -1    6.91    0.67
  -7 -19   2    0.62    0.27
  -7  19  -2   -0.18    0.34
   7  19   2   -0.22    0.40
  -7 -19  -2    0.07    0.22
  -7  19   2    0.09    0.50
  -7  19  -3    0.11    0.29
   7  19   3    0.54    0.51
  -7 -19   3    0.65    0.27
  -7 -19  -3    0.11    0.21
  -7  19   3   -0.09    0.44
  -7 -19   4    5.52    0.59
  -7  19  -4    5.58    0.72
   7  19   4    4.85    0.93
  -7  19   4    4.19    0.94
  -7  20   0   -0.08    0.48
  -7 -20   0   -0.43    0.26
  -7  20  -1   72.74    4.08
  -7 -20   1   57.16    3.71
   7  20   1   50.34    3.99
  -7 -20  -1   58.29    3.71
  -7  20   1   74.99    4.29
  -7 -20   2    3.14    0.48
  -7  20  -2    5.07    0.76
   7  20   2    2.44    0.70
  -7 -20  -2    3.60    0.48
  -7  20   2    4.77    0.94
  -7  20  -3   18.28    1.45
   7  20   3   15.77    1.76
  -7  20   3   18.89    2.01
  -8   0   0   19.04    1.10
  -8   0   0   17.81    1.11
  -8   0   1    0.02    0.05
  -8   0  -1   -0.03    0.05
  -8   0   1    0.02    0.03
  -8   0  -1    0.07    0.06
  -8   0  -1    0.14    0.06
  -8   0  -2   44.22    2.57
  -8   0  -2   41.62    2.55
  -8   0  -2   42.56    2.54
  -8   0   2   45.64    2.54
  -8   0  -3   -0.03    0.06
  -8   0  -3    0.03    0.10
  -8   0   3    0.02    0.06
  -8   0  -3    0.10    0.08
  -8   0  -4    8.36    0.60
  -8   0  -4    7.89    0.53
  -8   0  -4    8.50    0.56
  -8   0   4    8.70    0.51
   8   0  -4    8.41    0.55
   8   0  -5    0.08    0.10
  -8   0  -5    0.00    0.05
   8   0  -5   -0.07    0.09
  -8   0  -5    0.07    0.13
  -8   0  -5    0.10    0.11
   8   0  -6    0.25    0.13
  -8   0  -6    0.02    0.12
  -8   0  -6    0.26    0.17
   8   0  -6    0.41    0.12
  -8   0  -7    0.02    0.14
   8   0  -7   -0.04    0.14
   8   0  -7   -0.06    0.12
  -8   0  -7    0.01    0.20
   8   0  -8   -0.20    0.14
  -8   0  -8    0.24    0.19
  -8   0  -8   -0.25    0.21
   8   0  -8   -0.08    0.17
  -8   0  -9   -0.14    0.18
   8   0  -9    0.09    0.17
   8   0  -9   -0.25    0.22
  -8   0  -9   -0.16    0.21
  -8   0 -10    0.84    0.31
  -8   0 -10    0.39    0.23
  -8   0 -11   -0.05    0.29
  -8   1   0    0.28    0.07
  -8   1   0    0.52    0.08
  -8  -1   0    0.35    0.06
  -8  -1   0    0.35    0.08
  -8  -1   1   49.45    2.78
  -8  -1   1   49.11    2.81
  -8   1  -1   49.60    2.81
  -8   1  -1   47.58    2.82
  -8   1  -1   47.23    2.82
  -8  -1  -1   50.46    2.82
  -8  -1  -1   46.29    2.82
  -8   1   1   48.00    2.81
  -8  -1  -1   47.25    2.82
  -8  -1   2    9.15    0.55
  -8   1  -2    8.57    0.56
  -8   1  -2    8.42    0.56
  -8  -1  -2    9.10    0.56
  -8  -1  -2    8.50    0.56
  -8   1   2    8.44    0.55
  -8  -1  -2    9.10    0.58
  -8   1  -3    9.00    0.62
  -8  -1   3    8.58    0.56
  -8   1  -3    9.14    0.59
  -8   1  -3   10.19    0.58
  -8  -1  -3    8.97    0.58
  -8  -1  -3    9.12    0.62
  -8  -1  -3    9.95    0.60
   8   1  -3    8.99    0.56
  -8   1  -4   31.63    1.88
  -8   1  -4   29.83    1.91
  -8  -1   4   31.67    1.84
  -8   1  -4   31.52    1.85
   8   1  -4   32.35    1.86
  -8  -1  -4   33.33    1.89
  -8  -1  -4   30.86    1.92
  -8  -1  -4   31.14    1.85
  -8  -1   5    0.35    0.07
   8  -1  -5    0.23    0.12
  -8   1  -5    0.44    0.13
  -8   1  -5    0.32    0.07
  -8   1  -5    0.41    0.16
   8  -1  -5    0.28    0.10
  -8  -1  -5    0.39    0.14
  -8  -1  -5    0.37    0.08
   8   1  -5    0.25    0.10
   8   1  -5    0.31    0.11
  -8  -1  -5    0.15    0.13
   8  -1  -6   20.97    1.34
  -8   1  -6   22.51    1.40
  -8   1  -6   21.63    1.34
   8  -1  -6   22.11    1.31
  -8  -1  -6   20.94    1.39
   8   1  -6   21.69    1.32
   8   1  -6   20.73    1.33
  -8  -1  -6   22.05    1.34
   8  -1  -7   59.95    3.62
  -8   1  -7   61.29    3.66
   8  -1  -7   63.82    3.67
  -8   1  -7   61.02    3.73
   8   1  -7   60.17    3.66
  -8  -1  -7   63.81    3.66
   8   1  -7   61.79    3.64
  -8  -1  -7   62.96    3.73
  -8   1  -8    7.25    0.57
  -8   1  -8    6.40    0.62
   8  -1  -8    6.89    0.58
   8  -1  -8    6.98    0.52
   8   1  -8    7.40    0.55
  -8  -1  -8    7.12    0.56
  -8  -1  -8    6.64    0.62
   8   1  -8    7.47    0.58
  -8   1  -9    4.74    0.46
  -8   1  -9    3.71    0.50
   8  -1  -9    4.57    0.47
   8   1  -9    3.87    0.40
  -8  -1  -9    4.51    0.53
  -8  -1  -9    3.63    0.43
  -8   1 -10    0.57    0.24
  -8   1 -10    0.34    0.26
  -8  -1 -10    0.55    0.23
  -8  -1 -10   -0.15    0.27
   8   1 -10    0.65    0.23
  -8   2   0    7.58    0.51
  -8  -2   0    7.71    0.48
  -8   2   0    8.07    0.50
  -8  -2   0    8.45    0.51
  -8   2   0    8.30    0.51
  -8   2  -1   79.21    4.65
  -8   2  -1   79.05    4.66
  -8  -2   1   79.55    4.65
  -8   2  -1   80.70    4.66
  -8  -2  -1   84.63    4.65
  -8   2   1   78.18    4.65
  -8  -2  -1   81.82    4.66
  -8   2  -2    9.24    0.61
  -8   2  -2    9.73    0.59
  -8  -2   2    9.31    0.58
  -8   2  -2    9.09    0.59
  -8  -2  -2    9.13    0.60
  -8  -2  -2    9.45    0.59
  -8  -2  -2    9.03    0.59
  -8   2  -3   43.67    2.58
  -8  -2   3   43.67    2.57
  -8   2  -3   44.26    2.59
  -8   2  -3   43.47    2.62
  -8  -2  -3   45.12    2.62
  -8  -2  -3   45.36    2.58
   8   2  -3   43.53    2.56
  -8  -2  -3   44.46    2.59
  -8  -2   4   19.03    1.12
  -8   2  -4   19.86    1.13
  -8   2  -4   18.85    1.20
  -8   2  -4   18.72    1.16
   8   2  -4   19.89    1.14
  -8  -2  -4   18.21    1.13
  -8  -2  -4   17.99    1.15
  -8  -2  -4   18.26    1.20
   8  -2  -5   44.19    2.50
  -8  -2   5   41.84    2.47
  -8   2  -5   43.09    2.53
  -8   2  -5   43.59    2.58
  -8   2  -5   42.27    2.47
   8   2  -5   41.25    2.51
  -8  -2  -5   42.16    2.52
  -8  -2  -5   41.95    2.57
   8   2  -5   43.79    2.52
  -8  -2  -5   42.04    2.48
   8  -2  -6   12.12    0.80
  -8   2  -6   11.98    0.80
  -8   2  -6   13.31    0.87
   8  -2  -6   11.43    0.76
  -8  -2  -6   10.19    0.83
   8   2  -6   11.79    0.79
  -8  -2  -6   13.36    0.80
   8   2  -6   11.83    0.78
  -8   2  -7    2.45    0.37
   8  -2  -7    2.72    0.33
  -8   2  -7    3.18    0.34
   8  -2  -7    3.41    0.29
   8   2  -7    2.56    0.28
   8   2  -7    2.77    0.32
  -8  -2  -7    2.74    0.32
  -8  -2  -7    2.46    0.36
   8  -2  -8    0.03    0.20
   8  -2  -8    0.11    0.14
  -8   2  -8   -0.06    0.19
  -8   2  -8   -0.10    0.22
  -8  -2  -8   -0.28    0.19
  -8  -2  -8    0.04    0.16
   8   2  -8   -0.07    0.16
   8   2  -8   -0.02    0.14
  -8   2  -9    7.68    0.72
   8  -2  -9    7.00    0.64
  -8   2  -9    6.88    0.62
  -8  -2  -9    8.62    0.74
   8   2  -9    7.74    0.59
  -8  -2  -9    8.61    0.64
  -8   2 -10   -0.49    0.20
  -8   2 -10   -0.07    0.28
   8   2 -10    0.11    0.20
  -8  -2 -10    0.16    0.23
  -8  -2 -10   -0.24    0.24
  -8  -3   0    2.56    0.17
  -8   3   0    2.48    0.18
  -8   3   0    2.35    0.20
  -8  -3   0    2.41    0.20
  -8   3   0    2.46    0.22
  -8   3  -1    5.54    0.35
  -8  -3   1    4.85    0.35
  -8   3  -1    5.22    0.34
  -8   3  -1    4.97    0.37
  -8  -3  -1    5.79    0.36
  -8   3   1    4.65    0.34
  -8  -3  -1    5.66    0.35
  -8   3   1    3.88    0.40
  -8   3  -2    2.82    0.25
  -8   3  -2    2.95    0.23
  -8   3  -2    2.60    0.22
  -8  -3   2    2.65    0.21
  -8  -3  -2    2.64    0.22
  -8  -3  -2    3.18    0.23
   8   3  -2    2.86    0.18
  -8  -3  -2    2.87    0.24
  -8   3  -3    0.72    0.13
  -8   3  -3    0.73    0.11
  -8   3  -3    0.82    0.16
  -8  -3   3    0.71    0.10
  -8  -3  -3    0.83    0.12
  -8  -3  -3    0.68    0.14
   8   3  -3    0.79    0.09
  -8  -3  -3    0.72    0.11
  -8  -3   4   16.22    1.00
  -8   3  -4   18.08    1.01
  -8   3  -4   17.25    1.04
  -8   3  -4   17.33    1.08
   8   3  -4   15.54    1.01
  -8  -3  -4   16.71    1.01
   8   3  -4   17.42    1.03
  -8  -3  -4   17.05    1.03
  -8  -3  -4   15.22    1.06
  -8   3  -5    6.77    0.53
  -8   3  -5    7.50    0.47
  -8  -3   5    7.52    0.46
  -8   3  -5    7.80    0.57
   8   3  -5    7.83    0.51
   8   3  -5    7.37    0.51
  -8  -3  -5    8.04    0.53
  -8  -3  -5    6.88    0.47
  -8  -3  -5    6.77    0.56
   8  -3  -6    3.75    0.32
  -8   3  -6    4.60    0.46
  -8   3  -6    4.35    0.40
  -8  -3  -6    4.79    0.47
  -8  -3  -6    4.39    0.37
   8   3  -6    4.77    0.38
   8   3  -6    5.01    0.38
   8  -3  -7    0.06    0.13
  -8   3  -7    0.40    0.17
  -8   3  -7    0.32    0.21
   8   3  -7    0.38    0.15
  -8  -3  -7    0.37    0.17
  -8  -3  -7    0.64    0.23
   8   3  -7    0.18    0.15
  -8   3  -8    5.54    0.49
  -8   3  -8    4.57    0.52
   8   3  -8    4.50    0.43
  -8  -3  -8    4.68    0.53
  -8  -3  -8    3.70    0.41
  -8   3  -9    4.74    0.48
  -8   3  -9    4.68    0.55
  -8  -3  -9    4.05    0.53
  -8  -3  -9    3.99    0.43
   8   3  -9    4.52    0.43
  -8   3 -10    2.23    0.43
  -8   3 -10    2.42    0.38
  -8  -3 -10    2.44    0.37
  -8  -3 -10    2.77    0.46
   8   3 -10    2.52    0.34
  -8   4   0   14.19    0.87
  -8  -4   0   13.94    0.87
  -8   4   0   13.69    0.91
  -8   4   0   14.78    0.85
  -8   4  -1   41.77    2.38
  -8  -4   1   42.41    2.38
  -8   4  -1   41.23    2.41
  -8   4  -1   41.27    2.37
   8   4  -1   33.71    2.36
  -8   4   1   40.93    2.35
  -8  -4  -1   42.13    2.38
  -8  -4  -1   42.30    2.39
  -8   4  -2    7.97    0.52
  -8   4  -2    7.97    0.56
  -8   4  -2    8.09    0.53
  -8  -4   2    8.03    0.52
  -8  -4  -2    8.64    0.55
   8   4  -2    8.02    0.49
  -8  -4  -2    8.45    0.54
  -8  -4  -2    8.00    0.53
  -8   4  -3    0.17    0.08
  -8  -4   3    0.28    0.08
  -8   4  -3    0.05    0.11
  -8   4  -3    0.08    0.09
  -8  -4  -3    0.02    0.10
   8   4  -3    0.22    0.06
  -8  -4  -3    0.21    0.09
  -8  -4  -3    0.15    0.09
  -8   4  -4   12.46    0.78
  -8  -4   4   12.43    0.75
  -8   4  -4   12.42    0.75
  -8   4  -4   11.11    0.81
  -8  -4  -4   11.37    0.81
   8   4  -4   11.92    0.75
  -8  -4  -4   12.91    0.76
  -8  -4  -4   12.14    0.77
  -8   4  -5   25.79    1.45
  -8   4  -5   25.13    1.55
  -8  -4   5   24.12    1.45
  -8   4  -5   22.94    1.50
  -8  -4  -5   24.18    1.54
   8   4  -5   23.88    1.48
  -8  -4  -5   23.93    1.48
   8   4  -5   24.85    1.49
  -8  -4  -5   25.14    1.46
  -8   4  -6    0.26    0.14
  -8   4  -6    0.23    0.17
   8  -4  -6    0.17    0.10
  -8  -4  -6    0.20    0.17
   8   4  -6    0.23    0.13
  -8  -4  -6    0.19    0.12
   8   4  -6    0.07    0.11
  -8   4  -7   35.68    2.15
  -8   4  -7   34.16    2.20
   8   4  -7   35.34    2.14
  -8  -4  -7   34.26    2.12
  -8  -4  -7   37.29    2.22
   8   4  -7   34.43    2.12
  -8   4  -8   -0.34    0.17
  -8   4  -8    0.04    0.17
   8   4  -8    0.26    0.18
  -8  -4  -8    0.39    0.25
  -8  -4  -8    0.39    0.17
  -8   4  -9   12.82    0.92
  -8   4  -9   11.33    0.97
  -8  -4  -9   13.37    1.00
   8   4  -9   13.42    0.90
  -8  -4  -9   12.70    0.90
  -8   4 -10    2.27    0.45
  -8   4 -10    2.27    0.38
  -8  -4 -10    2.90    0.50
   8   4 -10    2.53    0.36
  -8  -4 -10    2.88    0.39
  -8   5   0    0.89    0.18
  -8   5   0    0.96    0.10
  -8  -5   0    0.83    0.13
  -8  -5   1    4.45    0.32
  -8   5  -1    3.94    0.29
  -8   5  -1    4.32    0.34
  -8   5  -1    4.45    0.31
   8   5  -1    3.52    0.30
  -8   5   1    4.70    0.27
  -8   5   1    3.44    0.44
  -8  -5  -1    4.05    0.31
  -8  -5   2  163.34    8.93
  -8   5  -2  156.58    8.93
  -8   5  -2  154.32    8.97
  -8   5  -2  157.55    8.93
  -8  -5  -2  155.43    8.93
  -8   5   2  155.89    9.14
  -8  -5  -2  147.10    8.94
  -8   5   2  150.74    8.89
  -8  -5  -2  153.93    8.94
   8   5  -2  154.66    8.90
  -8  -5   3   44.28    2.57
  -8   5  -3   44.07    2.57
  -8   5  -3   43.91    2.58
  -8   5  -3   42.28    2.62
  -8  -5  -3   45.20    2.58
  -8  -5  -3   41.69    2.60
   8   5  -3   44.52    2.55
  -8  -5  -3   44.63    2.58
  -8   5  -4   66.75    4.03
  -8  -5   4   68.59    4.00
  -8   5  -4   68.02    4.08
  -8   5  -4   70.05    4.01
  -8  -5  -4   71.16    4.07
  -8  -5  -4   69.54    4.01
   8   5  -4   68.59    4.01
  -8  -5  -4   69.00    4.02
  -8   5  -5   -0.20    0.11
  -8   5  -5   -0.01    0.07
  -8   5  -5   -0.01    0.15
  -8  -5   5    0.02    0.07
  -8  -5  -5   -0.11    0.15
   8   5  -5    0.23    0.12
   8   5  -5    0.04    0.10
  -8  -5  -5   -0.08    0.08
  -8  -5  -5    0.15    0.12
  -8   5  -6    7.70    0.65
  -8   5  -6    7.97    0.61
  -8  -5  -6    8.59    0.65
   8   5  -6    7.82    0.57
   8   5  -6    8.96    0.60
  -8  -5  -6    8.61    0.59
  -8   5  -7    0.26    0.20
  -8   5  -7    0.50    0.19
  -8  -5  -7    0.42    0.24
   8   5  -7    0.96    0.19
  -8  -5  -7    0.52    0.16
  -8   5  -8    0.38    0.21
  -8   5  -8    0.95    0.27
  -8  -5  -8    0.74    0.21
   8   5  -8    0.51    0.19
  -8  -5  -8    0.77    0.27
  -8   5  -9    5.24    0.63
  -8   5  -9    6.03    0.58
  -8  -5  -9    5.33    0.53
  -8  -5  -9    7.02    0.68
   8   5  -9    6.19    0.54
  -8   5 -10   -0.49    0.19
  -8   5 -10    0.06    0.25
  -8  -5 -10   -0.15    0.25
   8   5 -10    0.15    0.23
  -8   6   0    5.03    0.32
  -8  -6   0    5.11    0.37
  -8   6   0    4.67    0.43
  -8   6  -1   14.37    0.86
  -8   6  -1   14.18    0.84
  -8   6  -1   14.47    0.92
  -8  -6   1   15.13    0.87
  -8   6   1   11.95    0.99
  -8   6   1   13.53    0.81
  -8  -6  -1   15.11    0.87
   8   6  -1   10.91    0.87
  -8  -6   2    2.16    0.21
  -8   6  -2    2.00    0.20
  -8   6  -2    2.02    0.25
  -8   6  -2    2.30    0.21
  -8  -6  -2    1.94    0.21
  -8   6   2    2.21    0.14
  -8   6   2    1.63    0.41
   8   6  -2    2.10    0.18
  -8  -6  -2    2.24    0.23
  -8   6  -3   29.58    1.83
  -8  -6   3   31.71    1.77
  -8   6  -3   29.01    1.78
  -8   6  -3   29.51    1.77
   8   6  -3   29.81    1.75
  -8  -6  -3   28.80    1.80
  -8  -6  -3   28.74    1.77
  -8  -6  -3   30.94    1.78
  -8   6  -4   14.17    0.86
  -8   6  -4   12.87    0.88
  -8   6  -4   14.04    0.93
  -8  -6   4   13.32    0.85
  -8  -6  -4   14.33    0.87
   8   6  -4   13.68    0.85
  -8  -6  -4   13.50    0.91
  -8  -6  -4   14.29    0.87
  -8   6  -5   58.55    3.43
  -8   6  -5   55.83    3.47
  -8  -6   5   58.41    3.38
  -8   6  -5   59.49    3.38
   8   6  -5   57.95    3.42
  -8  -6  -5   55.14    3.40
  -8  -6  -5   60.56    3.47
  -8  -6  -5   58.05    3.39
   8   6  -5   57.79    3.40
  -8   6  -6    0.91    0.20
  -8   6  -6    0.52    0.20
  -8  -6  -6    0.54    0.15
   8   6  -6    0.66    0.17
  -8  -6  -6    0.50    0.21
   8   6  -6    0.50    0.16
  -8   6  -7   20.91    1.43
  -8   6  -7   22.98    1.39
   8   6  -7   22.35    1.36
  -8  -6  -7   20.85    1.43
  -8  -6  -7   20.73    1.34
  -8   6  -8    0.24    0.24
  -8   6  -8    0.11    0.19
   8   6  -8    0.31    0.18
  -8  -6  -8    0.31    0.17
  -8  -6  -8    0.15    0.22
  -8   6  -9    8.44    0.71
  -8   6  -9    8.64    0.80
  -8  -6  -9    9.84    0.80
   8   6  -9    8.60    0.68
  -8   6 -10    0.21    0.29
  -8   6 -10    0.44    0.26
   8   6 -10   -0.17    0.20
  -8  -6 -10    0.39    0.29
  -8  -7   0   36.04    2.15
  -8   7   0   35.48    2.11
  -8   7   0   37.48    2.27
  -8  -7   1    1.31    0.18
  -8   7  -1    1.17    0.15
  -8   7  -1    1.82    0.25
  -8   7  -1    1.56    0.18
  -8   7   1    1.13    0.33
  -8   7   1    1.44    0.12
   8   7  -1    1.19    0.21
  -8  -7  -1    1.56    0.19
  -8   7  -2   43.67    2.47
  -8  -7   2   42.56    2.47
  -8   7  -2   42.95    2.46
  -8   7  -2   40.88    2.51
  -8   7   2   41.99    2.40
  -8  -7  -2   42.62    2.47
  -8   7   2   35.92    2.69
   8   7  -2   40.90    2.45
  -8  -7   3    6.06    0.44
  -8   7  -3    6.22    0.49
  -8   7  -3    6.68    0.44
  -8   7  -3    6.00    0.44
  -8  -7  -3    6.11    0.43
   8   7  -3    6.74    0.42
  -8  -7  -3    6.27    0.47
  -8  -7  -3    5.69    0.44
  -8   7  -4   20.68    1.36
  -8   7  -4   21.34    1.29
  -8   7  -4   22.63    1.33
  -8  -7   4   20.99    1.29
   8   7  -4   20.95    1.29
  -8  -7  -4   21.64    1.30
  -8  -7  -4   20.82    1.34
  -8  -7  -4   21.57    1.30
  -8   7  -5    2.69    0.23
  -8   7  -5    2.90    0.34
  -8   7  -5    2.37    0.28
  -8  -7   5    2.26    0.24
   8   7  -5    2.80    0.26
  -8  -7  -5    2.11    0.25
  -8  -7  -5    2.54    0.25
   8   7  -5    2.61    0.28
  -8  -7  -5    2.71    0.34
  -8   7  -6   55.64    3.46
  -8   7  -6   59.59    3.41
  -8  -7  -6   58.00    3.37
   8   7  -6   56.35    3.39
  -8  -7  -6   56.56    3.45
  -8   7  -7    0.71    0.21
  -8   7  -7    0.50    0.22
  -8  -7  -7    0.44    0.17
   8   7  -7    0.60    0.18
  -8  -7  -7    0.39    0.22
  -8   7  -8    2.93    0.38
  -8   7  -8    3.35    0.47
  -8  -7  -8    3.33    0.35
  -8  -7  -8    2.55    0.41
   8   7  -8    2.62    0.34
  -8   7  -9    0.38    0.26
  -8   7  -9    0.25    0.23
  -8  -7  -9    0.35    0.28
   8   7  -9    0.29    0.23
  -8   7 -10    3.34    0.50
  -8   7 -10    3.05    0.46
  -8  -7 -10    3.15    0.51
   8   7 -10    3.28    0.41
  -8   8   0   71.39    4.19
  -8  -8   0   70.76    4.24
  -8   8   0   76.54    4.40
  -8   8  -1    9.91    0.63
  -8   8  -1   10.45    0.74
  -8  -8   1   10.94    0.67
  -8   8   1    9.72    0.59
  -8  -8  -1   10.18    0.66
  -8   8   1    9.19    0.84
   8   8  -1    8.97    0.71
  -8  -8   2   58.81    3.37
  -8   8  -2   56.52    3.43
  -8   8  -2   59.13    3.35
  -8   8  -2   56.74    3.36
  -8   8   2   55.42    3.66
  -8  -8  -2   57.44    3.37
   8   8  -2   56.55    3.36
  -8   8  -3   11.60    0.74
  -8  -8   3   11.06    0.75
  -8   8  -3   12.56    0.76
  -8   8  -3   11.60    0.81
  -8  -8  -3   11.50    0.74
   8   8  -3   11.28    0.73
  -8  -8  -3   11.87    0.76
  -8   8  -4   22.27    1.45
  -8   8  -4   21.79    1.40
  -8  -8   4   22.90    1.38
  -8   8  -4   24.04    1.38
  -8  -8  -4   21.90    1.39
  -8  -8  -4   23.09    1.38
   8   8  -4   22.68    1.38
  -8   8  -5   10.11    0.72
  -8  -8   5   10.87    0.68
  -8   8  -5   10.70    0.67
  -8   8  -5   10.52    0.77
  -8  -8  -5   10.42    0.69
  -8  -8  -5   10.09    0.75
   8   8  -5    9.68    0.70
  -8  -8  -5   10.57    0.69
   8   8  -5   10.25    0.71
  -8   8  -6   12.33    0.88
  -8   8  -6   11.19    0.81
  -8  -8  -6   12.32    0.77
   8   8  -6   11.78    0.80
  -8  -8  -6   10.16    0.83
  -8   8  -7    5.81    0.53
  -8   8  -7    5.78    0.60
  -8  -8  -7    4.88    0.56
  -8  -8  -7    6.41    0.47
   8   8  -7    5.68    0.48
  -8   8  -8   -0.07    0.19
  -8   8  -8    0.05    0.21
  -8  -8  -8    0.08    0.23
   8   8  -8    0.23    0.19
  -8   8  -9   -0.09    0.22
  -8   8  -9   -0.08    0.22
  -8  -8  -9   -0.01    0.25
   8   8  -9   -0.21    0.18
  -8   8 -10    0.29    0.26
  -8   8 -10    0.36    0.28
  -8  -8 -10    0.18    0.33
   8   8 -10   -0.01    0.21
  -8   9   0    1.02    0.26
   8   9   0    0.82    0.24
  -8   9   0    0.74    0.11
  -8  -9   0    0.66    0.15
  -8  -9   1    0.12    0.11
  -8   9  -1    0.31    0.16
  -8   9  -1    0.12    0.09
   8   9  -1   -0.02    0.12
  -8  -9  -1    0.08    0.11
  -8   9   1    0.24    0.22
  -8   9   1    0.13    0.05
  -8   9  -2   10.76    0.69
  -8   9  -2   10.71    0.76
  -8   9  -2    9.44    0.66
  -8  -9   2    9.82    0.68
   8   9  -2   11.22    0.70
  -8  -9  -2   10.73    0.70
  -8   9   2    8.27    1.03
  -8   9  -3    0.45    0.17
  -8   9  -3    0.39    0.14
  -8  -9   3    0.70    0.15
  -8   9  -3    0.57    0.14
  -8  -9  -3    0.92    0.15
  -8   9   3    0.78    0.32
   8   9  -3    0.54    0.12
  -8  -9  -3    0.71    0.16
  -8   9  -4   21.09    1.40
  -8  -9   4   22.48    1.40
  -8   9  -4   23.40    1.39
  -8   9  -4   24.33    1.48
  -8  -9  -4   22.75    1.39
  -8  -9  -4   22.81    1.40
   8   9  -4   22.94    1.39
  -8   9  -5   24.87    1.68
  -8   9  -5   26.20    1.63
  -8   9  -5   26.90    1.59
  -8  -9   5   25.72    1.59
  -8  -9  -5   26.31    1.59
  -8  -9  -5   27.00    1.60
  -8   9  -6    9.28    0.72
  -8   9  -6    9.61    0.78
   8   9  -6   10.57    0.73
  -8  -9  -6   10.24    0.68
  -8  -9  -6   10.10    0.76
  -8   9  -7    3.54    0.41
  -8   9  -7    3.98    0.48
   8   9  -7    3.59    0.38
  -8  -9  -7    3.65    0.45
  -8   9  -8    0.29    0.24
  -8   9  -8    0.28    0.24
  -8  -9  -8   -0.12    0.22
   8   9  -8    0.36    0.20
  -8   9  -9    3.78    0.46
  -8   9  -9    3.27    0.50
  -8  -9  -9    3.53    0.51
   8   9  -9    3.63    0.43
  -8  10   0   16.33    0.94
  -8 -10   0   15.70    1.00
  -8  10   0   17.10    1.19
   8  10   0   12.42    1.11
  -8  10  -1    1.46    0.17
  -8  10  -1    2.06    0.33
  -8 -10   1    1.34    0.22
   8  10  -1    1.93    0.32
  -8  10   1    1.64    0.15
  -8 -10  -1    1.34    0.21
  -8  10   1    1.47    0.39
  -8 -10   2    1.45    0.21
  -8  10  -2    1.33    0.19
  -8  10  -2    1.43    0.26
  -8  10  -2    1.48    0.19
   8  10  -2    1.30    0.21
  -8  10   2    1.35    0.42
  -8 -10  -2    1.64    0.22
  -8  10  -3    0.78    0.20
  -8 -10   3    0.71    0.17
  -8  10  -3    0.65    0.15
  -8  10  -3    0.66    0.14
  -8 -10  -3    0.72    0.16
  -8  10   3    1.04    0.41
  -8 -10  -3    0.63    0.13
   8  10  -3    0.95    0.16
  -8  10  -4   16.64    1.02
  -8  10  -4   16.18    1.08
  -8 -10   4   15.11    1.00
  -8  10  -4   15.90    0.99
  -8 -10  -4   15.15    1.00
   8  10  -4   15.26    1.00
  -8 -10  -4   15.18    0.98
  -8 -10   5   16.55    1.07
  -8  10  -5   16.98    1.15
  -8  10  -5   17.19    1.09
  -8 -10  -5   16.34    1.06
  -8 -10  -5   16.46    1.05
  -8  10  -6   -0.18    0.15
  -8  10  -6    0.01    0.18
   8  10  -6    0.07    0.15
  -8  10  -7   -0.23    0.18
  -8  10  -7    0.09    0.21
   8  10  -7    0.19    0.19
  -8  10  -8    0.17    0.24
  -8  10  -8    0.18    0.21
   8  10  -8    0.36    0.21
  -8  10  -9    0.28    0.29
  -8  10  -9    0.82    0.29
   8  10  -9    0.61    0.25
  -8  11   0    6.13    0.68
   8  11   0    3.59    0.56
  -8 -11   0    4.67    0.41
  -8  11   0    4.86    0.33
  -8  11  -1    6.86    0.46
  -8  11  -1    8.01    0.65
  -8 -11   1    6.51    0.50
  -8  11   1    7.29    0.87
  -8 -11  -1    5.91    0.50
   8  11  -1    5.56    0.63
  -8  11  -2   -0.05    0.11
  -8 -11   2    0.09    0.14
  -8  11  -2    0.17    0.15
  -8  11   2    0.35    0.30
  -8 -11  -2    0.05    0.13
   8  11  -2    0.55    0.16
  -8  11  -3    7.93    0.62
  -8  11  -3    9.94    0.64
  -8 -11   3    9.40    0.65
  -8  11  -3    8.85    0.71
  -8 -11  -3    8.85    0.61
  -8 -11  -3    9.46    0.65
  -8  11   3    7.73    1.05
   8  11  -3    9.26    0.64
  -8  11  -4    1.60    0.25
  -8  11  -4    1.52    0.29
  -8 -11   4    1.49    0.23
  -8  11  -4    2.09    0.24
  -8 -11  -4    1.77    0.24
  -8 -11  -4    1.60    0.20
  -8  11  -5   31.30    1.96
  -8  11  -5   29.42    2.02
  -8 -11   5   32.59    1.95
  -8 -11  -5   33.93    1.94
  -8  11  -6    0.90    0.27
  -8  11  -6    1.14    0.26
  -8  11  -7    5.29    0.57
  -8  11  -7    3.30    0.43
   8  11  -7    4.52    0.45
  -8  11  -8    1.58    0.32
  -8  11  -8    2.40    0.43
   8  11  -8    1.42    0.30
  -8  11  -9    1.03    0.35
  -8  11  -9    1.20    0.30
   8  11  -9    1.35    0.30
   8  12   0   23.99    1.93
  -8 -12   0   29.07    1.79
  -8  12   0   36.59    2.10
  -8  12  -1    5.21    0.60
  -8 -12   1    3.58    0.41
  -8  12  -1    4.32    0.34
  -8 -12  -1    5.07    0.41
   8  12  -1    5.13    0.58
  -8  12   1    4.77    0.73
  -8  12  -2   24.05    1.52
  -8  12  -2   23.39    1.36
  -8 -12   2   21.28    1.39
   8  12  -2   21.77    1.43
  -8  12   2   17.64    1.69
  -8 -12  -2   22.32    1.39
  -8  12  -3    4.14    0.48
  -8  12  -3    4.72    0.39
  -8 -12   3    4.25    0.41
  -8  12  -3    4.17    0.39
  -8  12   3    3.20    0.69
  -8 -12  -3    3.52    0.35
  -8 -12  -3    4.01    0.40
   8  12  -3    4.01    0.38
  -8  12  -4    8.60    0.70
  -8  12  -4    8.90    0.62
  -8  12  -4    8.30    0.60
  -8 -12   4    7.45    0.62
  -8 -12  -4    8.67    0.62
  -8  12   4    7.75    1.06
  -8 -12   5    3.99    0.39
  -8  12  -5    4.60    0.42
  -8  12  -5    3.53    0.46
  -8 -12  -5    3.14    0.36
  -8  12  -6    7.27    0.67
  -8  12  -6    7.28    0.59
  -8  12  -7    9.71    0.82
  -8  12  -7   10.17    0.75
   8  12  -7    8.76    0.72
  -8  12  -8    0.71    0.27
  -8  12  -8    0.96    0.34
   8  12  -8    0.25    0.24
  -8 -13   0  114.87    7.14
  -8  13   0  133.12    7.44
  -8 -13   1    0.72    0.20
   8  13   1   -0.07    0.36
  -8  13  -1   -0.04    0.26
   8  13  -1    0.06    0.26
  -8  13   1    0.93    0.39
  -8 -13  -1    0.40    0.17
  -8  13  -2   37.26    2.21
  -8  13  -2   40.25    2.40
  -8 -13   2   34.48    2.25
  -8  13   2   34.69    2.66
   8  13  -2   37.97    2.32
  -8 -13  -2   37.28    2.26
  -8  13  -3    2.30    0.28
  -8  13  -3    2.69    0.40
  -8 -13   3    1.83    0.27
  -8  13  -3    1.73    0.25
  -8  13   3    1.20    0.48
  -8 -13  -3    1.35    0.25
  -8  13  -4   27.18    1.76
  -8 -13   4   27.42    1.67
  -8  13  -4   26.61    1.64
  -8  13  -4   27.62    1.66
  -8 -13  -4   25.66    1.66
  -8  13   4   22.98    2.08
  -8 -13   5    0.14    0.18
  -8  13  -5    0.11    0.20
  -8  13  -5   -0.10    0.18
  -8 -13  -5   -0.16    0.16
  -8  13  -6   15.83    1.13
  -8  13  -6   18.10    1.25
  -8  13  -7    6.16    0.70
  -8  13  -7    6.13    0.60
  -8  13  -8    0.96    0.31
  -8  13  -8    1.29    0.37
  -8 -14   0    0.16    0.17
   8  14   0    0.67    0.33
  -8  14   0    0.36    0.31
  -8 -14   1    8.31    0.68
  -8  14  -1    9.57    0.86
   8  14   1    6.87    0.91
  -8 -14  -1    9.65    0.69
  -8  14   1    9.23    1.10
   8  14  -1    9.21    0.82
  -8 -14   2    2.46    0.35
  -8  14  -2    2.51    0.29
  -8  14  -2    2.99    0.48
  -8  14   2    2.83    0.67
  -8 -14  -2    2.71    0.35
   8  14  -2    3.99    0.47
  -8  14  -3   10.00    0.74
  -8  14  -3   10.61    0.89
  -8 -14   3   10.90    0.78
  -8  14  -3   12.89    0.79
  -8 -14  -3    9.88    0.77
  -8  14   3   10.50    1.34
  -8  14  -4    3.36    0.36
  -8 -14   4    3.11    0.38
  -8  14  -4    2.76    0.43
  -8  14  -4    3.02    0.36
  -8 -14  -4    3.41    0.38
  -8  14   4    2.40    0.70
  -8  14  -5    6.08    0.59
  -8  14  -5    7.73    0.69
  -8 -14   5    8.10    0.62
  -8  14   5    6.62    1.07
  -8 -14  -5    7.58    0.59
  -8  14  -6    0.23    0.23
  -8  14  -6    0.04    0.21
  -8  14  -7   32.87    2.07
  -8  14  -7   32.88    2.18
  -8  14  -8    1.05    0.31
  -8  14  -8    1.49    0.41
  -8 -15   0   85.21    4.61
   8  15   0   68.09    4.78
  -8  15  -1    0.76    0.34
  -8 -15   1    0.37    0.20
   8  15   1    0.22    0.31
   8  15  -1    0.30    0.27
  -8 -15  -1    0.60    0.23
  -8  15   1    0.33    0.38
   8  15   2   24.15    1.88
  -8  15  -2   28.43    1.78
  -8 -15   2   24.08    1.58
  -8 -15  -2   24.03    1.58
  -8  15   2   23.59    2.00
  -8 -15   3    0.26    0.18
  -8  15  -3    0.03    0.17
  -8  15  -3    0.40    0.25
  -8  15  -3   -0.05    0.15
  -8 -15  -3   -0.07    0.20
  -8  15   3    0.53    0.46
  -8 -15   4   57.97    3.52
  -8  15  -4   60.84    3.49
  -8  15  -4   64.22    3.51
  -8  15  -4   58.97    3.63
  -8  15   4   48.19    3.94
  -8 -15  -4   56.37    3.50
  -8  15  -5    4.82    0.58
  -8  15  -5    4.19    0.46
  -8 -15   5    4.98    0.51
  -8 -15  -5    5.33    0.49
  -8  15   5    4.00    0.83
  -8  15  -6    9.81    0.86
  -8  15  -6    9.12    0.76
  -8  15  -7    0.85    0.32
  -8  15  -7    0.58    0.26
   8  16   0   10.52    1.09
  -8 -16   0    9.12    0.75
  -8  16   0    9.81    1.11
  -8  16  -1    8.06    0.87
   8  16   1    5.61    0.85
  -8 -16   1    6.12    0.58
  -8 -16  -1    5.86    0.57
   8  16  -1    6.90    0.84
  -8  16   1    6.74    0.98
   8  16   2    2.85    0.64
  -8 -16   2    3.28    0.42
  -8  16  -2    4.49    0.60
  -8  16   2    3.79    0.78
  -8 -16  -2    3.18    0.41
  -8  16  -3   19.12    1.17
  -8 -16   3   16.43    1.15
  -8  16  -3   17.88    1.29
  -8  16   3   13.98    1.71
  -8 -16  -3   15.84    1.14
  -8  16  -4   -0.17    0.22
  -8  16  -4    0.00    0.18
  -8 -16   4    0.02    0.22
  -8  16  -4   -0.14    0.18
  -8 -16  -4    0.19    0.20
  -8  16   4   -0.50    0.36
  -8 -16   5    7.44    0.68
  -8  16  -5    8.40    0.67
  -8  16  -5    8.47    0.77
  -8 -16  -5    7.70    0.75
  -8  16   5    8.35    1.23
  -8  16  -6    3.92    0.45
  -8  16  -6    4.15    0.57
  -8  16   6    2.45    0.76
   8  17   0   37.64    2.78
  -8  17   0   52.25    3.01
  -8 -17   0   39.20    2.56
  -8 -17   1    2.50    0.36
  -8  17  -1    3.42    0.59
   8  17   1    1.59    0.53
  -8 -17  -1    2.13    0.37
  -8  17   1    2.86    0.72
  -8 -17   2    8.24    0.70
  -8  17  -2   10.78    0.90
   8  17   2    6.73    0.97
  -8  17   2    8.73    1.21
  -8 -17  -2    7.57    0.67
  -8  17  -3    1.06    0.29
  -8  17  -3    0.55    0.30
  -8 -17   3    0.95    0.27
  -8  17   3    0.76    0.53
  -8 -17  -3    1.08    0.29
  -8 -17   4   19.42    1.37
  -8  17  -4   23.33    1.58
  -8  17  -4   21.59    1.51
  -8 -17  -4   20.28    1.36
  -8  17   4   17.01    1.98
  -8  17  -5    2.77    0.48
  -8 -17   5    2.65    0.40
  -8  17  -5    3.10    0.41
  -8  17   5    2.66    0.75
  -8  17  -6    2.52    0.47
  -8  17  -6    2.63    0.38
  -8  17   6    1.26    0.64
  -8 -18   0    0.01    0.24
  -8  18   0    0.12    0.37
  -8 -18   1    0.21    0.23
   8  18   1   -0.19    0.31
  -8  18  -1    0.54    0.37
  -8 -18  -1   -0.14    0.21
  -8  18   1    0.14    0.39
   8  18   2    5.76    0.98
  -8  18  -2   10.09    1.03
  -8 -18   2    9.03    0.75
  -8 -18  -2   10.95    0.78
  -8  18   2   11.25    1.37
  -8  18  -3    2.81    0.54
  -8  18  -3    1.61    0.34
   8  18   3    1.52    0.59
  -8 -18   3    1.61    0.32
  -8  18   3    1.29    0.61
  -8 -18  -3    1.30    0.34
  -8 -18   4    1.27    0.32
  -8  18  -4    2.37    0.47
  -8  18   4    0.95    0.61
  -8 -18  -4    2.38    0.35
  -8 -18   5    5.45    0.56
  -8  18  -5    4.36    0.64
  -8  18   5    3.49    0.89
  -8 -19   0    8.76    0.81
  -8  19   0   15.51    1.28
  -8  19  -1   -0.25    0.34
   8  19   1    0.09    0.44
  -8 -19   1    0.18    0.26
  -8 -19  -1    0.14    0.25
  -8  19   1    0.04    0.43
  -8  19  -2    2.17    0.53
   8  19   2    1.79    0.63
  -8 -19   2    1.01    0.34
  -8 -19  -2    1.52    0.33
  -8  19   2    1.39    0.63
   8  19   3    1.11    0.56
  -8  19  -3    2.04    0.39
  -8 -19   3    2.04    0.39
  -8  19  -3    1.99    0.47
  -8  19   3    1.40    0.65
  -8 -19  -3    1.59    0.36
   8  19   4    0.70    0.50
  -8  19  -4    1.10    0.39
  -8 -19   4    1.36    0.33
  -8 -19  -4    1.09    0.31
  -8  19   4    0.91    0.58
  -8  20   0    1.35    0.54
  -8 -20   0    0.74    0.31
  -8 -20   1    2.67    0.44
  -8  20  -1    3.40    0.68
  -8  20   1    3.34    0.82
  -8 -20  -1    3.03    0.44
  -8 -20   2    7.13    0.70
   8  20   2    4.94    0.92
  -8  20  -2    9.75    1.03
  -8  20   2    8.98    1.27
  -8 -20  -2    6.72    0.67
  -9   0   0    0.00    0.04
  -9   0   0    0.08    0.06
  -9   0  -1  135.08    7.94
  -9   0  -1  136.04    7.95
  -9   0   1  133.39    7.92
  -9   0   1  140.92    7.94
  -9   0  -1  143.88    7.95
  -9   0   2   -0.01    0.05
  -9   0  -2   -0.06    0.06
  -9   0  -2   -0.01    0.06
  -9   0  -2   -0.03    0.07
  -9   0  -3    7.17    0.47
  -9   0  -3    7.49    0.48
  -9   0   3    7.04    0.45
  -9   0  -3    6.94    0.51
  -9   0   4   -0.03    0.06
  -9   0  -4    0.23    0.11
  -9   0  -4    0.08    0.07
  -9   0  -4    0.17    0.12
  -9   0   5    9.52    0.59
  -9   0  -5    9.53    0.65
  -9   0  -5    9.63    0.60
  -9   0  -5    9.16    0.69
   9   0  -5   10.04    0.64
   9   0  -6   -0.08    0.11
  -9   0  -6    0.09    0.16
  -9   0  -6   -0.04    0.12
   9   0  -6    0.02    0.11
  -9   0  -7   -0.03    0.17
   9   0  -7   -0.32    0.13
  -9   0  -7    0.09    0.15
   9   0  -7    0.05    0.13
  -9   0  -8   -0.19    0.22
   9   0  -8   -0.05    0.13
  -9   0  -8   -0.24    0.15
   9   0  -8   -0.37    0.16
  -9   0  -9    0.06    0.23
   9   0  -9   -0.02    0.17
  -9   0  -9    0.09    0.22
  -9   0 -10    0.01    0.25
  -9   0 -10   -0.40    0.18
  -9  -1   0   -0.05    0.05
  -9   1   0   -0.10    0.06
  -9   1   0    0.02    0.04
  -9  -1   0   -0.04    0.04
  -9  -1   1    6.07    0.35
  -9   1  -1    5.64    0.39
  -9  -1   1    5.65    0.38
  -9   1  -1    5.87    0.39
  -9   1  -1    5.22    0.38
  -9  -1  -1    5.94    0.39
  -9  -1  -1    6.22    0.39
  -9   1   1    5.52    0.38
  -9   1   1    5.54    0.39
  -9  -1  -1    5.86    0.38
  -9  -1   2   86.44    4.89
  -9   1  -2   85.40    4.90
  -9   1  -2   84.38    4.90
  -9   1   2   87.85    4.90
  -9  -1  -2   83.01    4.90
  -9  -1  -2   85.95    4.92
  -9  -1  -2   86.64    4.91
  -9   1   2   77.14    4.96
  -9   1  -3   17.88    1.05
  -9  -1   3   17.09    1.02
  -9   1  -3   15.87    1.07
  -9   1  -3   17.63    1.03
  -9  -1  -3   16.63    1.03
  -9  -1  -3   17.07    1.04
  -9  -1  -3   17.44    1.07
  -9   1   3   16.69    1.02
  -9  -1   4   30.68    1.80
  -9   1  -4   30.28    1.82
  -9   1  -4   31.49    1.89
  -9   1  -4   30.22    1.85
  -9  -1  -4   28.54    1.87
  -9  -1  -4   32.56    1.85
   9   1  -4   31.06    1.82
  -9  -1  -4   31.81    1.82
  -9   1  -5    0.01    0.13
  -9   1  -5    0.14    0.12
  -9   1  -5    0.00    0.06
  -9  -1   5    0.08    0.06
   9   1  -5    0.00    0.09
  -9  -1  -5    0.08    0.11
  -9  -1  -5    0.23    0.08
   9   1  -5    0.12    0.09
  -9  -1  -5    0.08    0.14
  -9   1  -6   16.36    1.08
  -9   1  -6   17.38    1.14
   9  -1  -6   17.47    1.08
   9  -1  -6   16.28    1.04
  -9  -1  -6   17.69    1.08
   9   1  -6   16.67    1.06
  -9  -1  -6   17.49    1.14
   9   1  -6   15.91    1.05
  -9   1  -7    5.24    0.47
   9  -1  -7    5.24    0.43
  -9   1  -7    4.36    0.49
   9  -1  -7    4.39    0.39
   9   1  -7    4.92    0.41
  -9  -1  -7    4.81    0.45
  -9  -1  -7    4.76    0.50
   9   1  -7    4.67    0.41
   9  -1  -8   43.84    2.64
  -9   1  -8   44.01    2.76
  -9   1  -8   44.87    2.69
   9  -1  -8   44.90    2.69
  -9  -1  -8   43.46    2.76
  -9  -1  -8   44.92    2.69
   9   1  -8   44.61    2.66
  -9   1  -9    0.28    0.27
  -9   1  -9   -0.25    0.20
  -9  -1  -9   -0.23    0.16
  -9  -1  -9   -0.05    0.22
   9   1  -9   -0.05    0.17
  -9   1 -10   22.19    1.35
  -9   1 -10   18.95    1.40
   9   1 -10   18.07    1.31
  -9  -1 -10   18.50    1.32
  -9  -1 -10   21.04    1.44
  -9   2   0   -0.01    0.05
  -9  -2   0   -0.05    0.04
  -9   2   0   -0.06    0.05
  -9   2   0    0.16    0.07
  -9  -2   0    0.00    0.07
  -9   2  -1   62.27    3.59
  -9  -2   1   61.61    3.59
  -9   2  -1   62.85    3.58
  -9   2  -1   63.52    3.60
  -9   2   1   61.97    3.59
  -9   2   1   52.47    3.62
  -9  -2  -1   66.04    3.59
  -9  -2  -1   62.95    3.59
  -9   2  -2    6.72    0.45
  -9  -2   2    6.70    0.44
  -9   2  -2    6.60    0.47
  -9   2  -2    6.82    0.45
  -9  -2  -2    7.37    0.47
  -9  -2  -2    6.83    0.46
  -9   2   2    7.43    0.45
  -9   2   2    6.06    0.53
  -9  -2  -2    6.88    0.46
  -9  -2   3   81.66    4.73
  -9   2  -3   82.35    4.75
  -9   2  -3   81.43    4.74
  -9   2  -3   79.10    4.78
   9   2  -3   84.84    4.72
  -9  -2  -3   83.37    4.78
  -9  -2  -3   78.05    4.74
  -9  -2  -3   83.68    4.75
  -9   2  -4    0.20    0.11
  -9  -2   4    0.20    0.07
  -9   2  -4    0.16    0.08
  -9   2  -4    0.36    0.14
  -9  -2  -4    0.11    0.08
  -9  -2  -4    0.21    0.10
   9   2  -4    0.21    0.08
  -9  -2  -4   -0.03    0.12
  -9   2  -5   28.62    1.69
  -9   2  -5   28.46    1.74
  -9  -2   5   28.57    1.63
  -9   2  -5   27.45    1.63
   9   2  -5   27.23    1.66
   9   2  -5   28.09    1.67
  -9  -2  -5   27.11    1.68
  -9  -2  -5   27.38    1.73
  -9  -2  -5   26.69    1.63
  -9   2  -6    9.70    0.71
   9  -2  -6    8.24    0.61
  -9   2  -6    9.84    0.67
   9   2  -6    9.25    0.63
  -9  -2  -6   10.77    0.74
   9   2  -6    9.75    0.65
  -9  -2  -6    9.33    0.66
   9  -2  -7    4.99    0.38
  -9   2  -7    4.22    0.49
  -9   2  -7    4.88    0.46
  -9  -2  -7    4.96    0.51
   9   2  -7    4.85    0.41
   9   2  -7    4.61    0.41
  -9  -2  -7    4.60    0.44
  -9   2  -8    0.66    0.21
  -9   2  -8    0.30    0.26
   9  -2  -8    0.60    0.22
  -9  -2  -8    0.71    0.27
  -9  -2  -8    0.49    0.19
   9   2  -8    0.62    0.18
   9  -2  -9    1.19    0.29
  -9   2  -9    1.19    0.28
  -9   2  -9    0.98    0.30
  -9  -2  -9    0.85    0.32
  -9  -2  -9    1.71    0.29
   9   2  -9    1.60    0.26
  -9   2 -10   -0.13    0.21
  -9   2 -10   -0.24    0.26
  -9  -2 -10   -0.04    0.23
  -9  -2 -10   -0.02    0.26
   9   2 -10    0.26    0.21
  -9  -3   0   -0.01    0.04
  -9   3   0    0.01    0.05
  -9  -3   0    0.04    0.07
  -9   3   0    0.03    0.06
  -9   3   0   -0.04    0.07
  -9  -3   1   63.26    3.52
  -9   3  -1   61.35    3.53
  -9   3  -1   61.45    3.52
  -9   3  -1   60.98    3.51
  -9  -3  -1   60.95    3.52
  -9   3   1   53.27    3.57
  -9  -3  -1   62.20    3.51
  -9   3   1   59.12    3.51
  -9   3  -2    3.51    0.26
  -9  -3   2    3.14    0.25
  -9   3  -2    3.35    0.25
  -9   3  -2    3.15    0.28
  -9  -3  -2    3.44    0.26
  -9  -3  -2    3.02    0.27
  -9  -3  -2    3.18    0.26
  -9   3   2    2.58    0.37
  -9   3  -3    8.58    0.54
  -9  -3   3    8.58    0.53
  -9   3  -3    8.15    0.58
  -9   3  -3    8.07    0.55
  -9  -3  -3    8.18    0.55
  -9  -3  -3    8.23    0.54
   9   3  -3    7.92    0.50
  -9  -3  -3    8.91    0.58
  -9   3  -4   26.56    1.52
  -9   3  -4   25.67    1.55
  -9  -3   4   24.62    1.51
  -9   3  -4   25.15    1.59
  -9  -3  -4   26.14    1.55
  -9  -3  -4   26.76    1.59
   9   3  -4   25.48    1.52
  -9  -3  -4   24.87    1.52
  -9   3  -5   28.64    1.71
  -9   3  -5   27.31    1.74
  -9  -3   5   28.05    1.64
  -9   3  -5   28.26    1.65
  -9  -3  -5   26.45    1.74
   9   3  -5   28.99    1.69
   9   3  -5   26.93    1.67
  -9  -3  -5   28.41    1.69
  -9  -3  -5   28.54    1.66
  -9   3  -6    0.32    0.15
  -9   3  -6    0.17    0.17
  -9  -3  -6    0.13    0.12
  -9  -3  -6   -0.15    0.14
   9   3  -6    0.26    0.13
   9   3  -6    0.18    0.12
  -9   3  -7   14.29    1.00
   9  -3  -7   13.27    0.91
  -9   3  -7   14.70    0.94
  -9  -3  -7   12.91    0.98
  -9  -3  -7   14.47    0.92
   9   3  -7   13.37    0.90
  -9   3  -8    0.03    0.17
  -9   3  -8    0.19    0.23
  -9  -3  -8    0.17    0.23
   9   3  -8   -0.10    0.14
  -9  -3  -8    0.33    0.18
  -9   3  -9    0.07    0.21
  -9   3  -9    0.12    0.23
  -9  -3  -9    0.11    0.21
   9   3  -9    0.05    0.17
  -9  -3  -9    0.42    0.27
  -9   3 -10    0.98    0.29
  -9   3 -10    1.32    0.38
  -9  -3 -10    0.66    0.25
  -9  -3 -10    1.05    0.35
   9   3 -10    1.22    0.27
  -9   4   0    0.00    0.07
  -9  -4   0   -0.05    0.07
  -9   4   0    0.01    0.08
  -9   4   0    0.07    0.06
  -9   4  -1    0.77    0.13
  -9  -4   1    0.91    0.13
  -9   4  -1    0.78    0.12
  -9   4  -1    0.76    0.11
  -9   4   1    0.68    0.18
  -9   4   1    0.79    0.09
  -9  -4  -1    0.80    0.12
   9   4  -1    0.71    0.09
  -9  -4  -1    0.72    0.11
  -9   4  -2   17.46    1.01
  -9  -4   2   16.62    1.01
  -9   4  -2   17.54    1.01
  -9   4  -2   17.08    1.05
   9   4  -2   16.44    0.96
  -9   4   2   14.64    1.16
  -9  -4  -2   15.27    1.02
  -9  -4  -2   16.32    1.01
  -9  -4  -2   17.10    1.02
  -9   4  -3    0.03    0.09
  -9   4  -3    0.23    0.11
  -9   4  -3    0.27    0.09
  -9  -4   3    0.13    0.08
  -9  -4  -3    0.24    0.09
  -9  -4  -3    0.13    0.08
  -9  -4  -3    0.20    0.11
   9   4  -3    0.17    0.06
  -9   4  -4   21.47    1.32
  -9   4  -4   21.46    1.29
  -9   4  -4   21.38    1.36
  -9  -4   4   21.83    1.29
  -9  -4  -4   21.36    1.35
   9   4  -4   22.13    1.29
  -9  -4  -4   22.12    1.32
  -9  -4  -4   20.60    1.30
  -9   4  -5    4.48    0.37
  -9   4  -5    4.34    0.41
  -9   4  -5    4.22    0.31
  -9  -4   5    4.52    0.32
   9   4  -5    4.61    0.36
  -9  -4  -5    4.86    0.33
   9   4  -5    4.29    0.34
  -9  -4  -5    4.51    0.41
  -9  -4  -5    4.37    0.36
  -9   4  -6   14.91    1.00
  -9   4  -6   13.79    1.04
  -9  -4  -6   15.89    1.06
   9   4  -6   15.92    0.99
   9   4  -6   17.12    1.00
  -9  -4  -6   15.02    0.99
  -9   4  -7    0.47    0.20
  -9   4  -7    0.23    0.20
  -9  -4  -7    0.55    0.18
   9   4  -7    0.38    0.18
  -9  -4  -7    0.44    0.23
  -9   4  -8    6.41    0.53
  -9   4  -8    6.12    0.63
  -9  -4  -8    5.96    0.53
  -9  -4  -8    5.74    0.61
   9   4  -8    5.66    0.49
  -9   4  -9    1.01    0.32
  -9   4  -9    0.99    0.29
   9   4  -9    1.12    0.26
  -9  -4  -9    1.42    0.35
  -9  -4  -9    1.25    0.26
  -9   4 -10    7.23    0.68
  -9   4 -10    7.90    0.79
  -9  -4 -10    7.17    0.65
  -9  -4 -10    7.92    0.80
   9   4 -10    6.99    0.64
  -9   5   0    0.00    0.05
  -9   5   0   -0.04    0.07
  -9  -5   0   -0.03    0.08
  -9   5   0   -0.04    0.08
  -9   5  -1   68.36    3.92
  -9   5  -1   68.89    3.93
  -9   5  -1   68.97    3.97
  -9  -5   1   71.82    3.94
  -9   5   1   67.70    3.90
  -9  -5  -1   68.37    3.92
  -9   5   1   55.66    4.03
  -9  -5  -1   68.66    3.94
  -9   5  -2   49.36    2.77
  -9  -5   2   49.12    2.78
  -9   5  -2   47.20    2.77
  -9   5  -2   47.42    2.81
  -9  -5  -2   47.77    2.78
  -9  -5  -2   46.11    2.78
  -9   5   2   46.85    2.73
  -9  -5  -2   51.62    2.79
  -9   5   2   39.95    2.95
   9   5  -2   45.78    2.73
  -9   5  -3   17.59    1.05
  -9  -5   3   17.29    1.05
  -9   5  -3   16.23    1.10
  -9   5  -3   17.59    1.06
  -9  -5  -3   17.37    1.06
   9   5  -3   17.74    1.02
  -9  -5  -3   17.87    1.06
  -9  -5  -3   15.89    1.08
  -9   5  -4    1.28    0.16
  -9   5  -4    1.16    0.21
  -9   5  -4    1.25    0.19
  -9  -5   4    1.60    0.17
  -9  -5  -4    1.66    0.24
   9   5  -4    1.32    0.15
  -9  -5  -4    1.06    0.16
  -9  -5  -4    1.49    0.18
  -9  -5   5   14.91    0.90
  -9   5  -5   15.45    0.90
  -9   5  -5   16.05    0.96
  -9   5  -5   14.46    1.00
  -9  -5  -5   14.54    0.98
  -9  -5  -5   14.14    0.90
  -9  -5  -5   14.30    0.93
   9   5  -5   13.47    0.91
  -9   5  -6    0.16    0.15
  -9   5  -6    0.39    0.19
   9   5  -6    0.19    0.15
  -9  -5  -6    0.14    0.13
  -9  -5  -6    0.15    0.17
  -9   5  -7    6.34    0.58
  -9   5  -7    6.62    0.54
   9   5  -7    6.33    0.50
  -9  -5  -7    6.04    0.50
  -9  -5  -7    7.04    0.60
  -9   5  -8    2.14    0.31
  -9   5  -8    1.44    0.32
   9   5  -8    1.92    0.27
  -9  -5  -8    1.85    0.28
  -9  -5  -8    1.19    0.31
  -9   5  -9    0.09    0.23
  -9   5  -9    0.04    0.21
  -9  -5  -9   -0.04    0.23
   9   5  -9   -0.12    0.19
  -9  -5  -9   -0.10    0.16
  -9   5 -10   -0.21    0.24
  -9   5 -10   -0.02    0.23
  -9  -5 -10    0.01    0.27
   9   5 -10    0.06    0.20
  -9   6   0   -0.01    0.11
  -9  -6   0    0.06    0.08
  -9   6   0    0.03    0.06
  -9   6  -1    7.03    0.52
  -9  -6   1    7.10    0.47
  -9   6  -1    6.37    0.44
  -9   6  -1    7.33    0.46
   9   6  -1    5.23    0.49
  -9  -6  -1    7.19    0.47
  -9   6   1    6.87    0.42
  -9   6   1    6.35    0.67
  -9   6  -2   24.10    1.50
  -9   6  -2   23.83    1.45
  -9   6  -2   23.54    1.44
  -9  -6   2   25.38    1.46
  -9  -6  -2   24.89    1.46
  -9  -6  -2   25.37    1.47
   9   6  -2   24.34    1.42
  -9   6   2   24.46    1.40
  -9   6   2   18.45    1.62
  -9   6  -3    3.22    0.34
  -9  -6   3    3.32    0.28
  -9   6  -3    3.45    0.28
  -9   6  -3    3.24    0.28
  -9  -6  -3    3.45    0.32
  -9  -6  -3    3.82    0.29
  -9  -6  -3    3.61    0.29
   9   6  -3    3.21    0.24
  -9   6  -4   14.41    0.94
  -9  -6   4   13.81    0.86
  -9   6  -4   13.28    0.89
  -9   6  -4   13.63    0.86
  -9  -6  -4   15.35    0.93
  -9  -6  -4   13.64    0.87
   9   6  -4   13.41    0.85
  -9  -6  -4   13.56    0.87
  -9   6  -5    0.22    0.16
  -9   6  -5    0.05    0.08
  -9  -6   5    0.12    0.09
  -9   6  -5    0.08    0.13
  -9  -6  -5    0.08    0.10
  -9  -6  -5   -0.07    0.16
   9   6  -5    0.07    0.10
  -9  -6  -5    0.33    0.13
  -9   6  -6    2.19    0.29
  -9   6  -6    2.18    0.33
   9   6  -6    2.07    0.28
  -9  -6  -6    2.58    0.34
  -9  -6  -6    2.39    0.27
  -9   6  -7    2.55    0.35
  -9   6  -7    3.16    0.42
   9   6  -7    3.58    0.36
  -9  -6  -7    3.06    0.32
  -9  -6  -7    2.86    0.40
  -9   6  -8    4.22    0.46
  -9   6  -8    4.69    0.54
   9   6  -8    3.83    0.41
  -9  -6  -8    4.55    0.43
  -9  -6  -8    4.29    0.53
  -9   6  -9    0.69    0.28
  -9   6  -9    0.66    0.28
  -9  -6  -9    0.50    0.24
   9   6  -9    0.99    0.26
  -9  -6  -9    0.79    0.31
  -9   6 -10   12.62    1.05
  -9   6 -10   13.78    0.99
   9   6 -10   12.99    0.94
  -9  -6 -10   13.15    1.05
  -9   7   0    0.06    0.12
  -9  -7   0   -0.11    0.09
  -9   7   0   -0.02    0.06
  -9   7  -1    0.19    0.09
  -9   7  -1    0.37    0.09
  -9  -7   1    0.29    0.11
  -9   7  -1    0.25    0.13
  -9   7   1    0.33    0.20
   9   7  -1    0.28    0.12
  -9   7   1    0.29    0.06
  -9  -7  -1    0.23    0.11
  -9  -7   2    0.06    0.09
  -9   7  -2    0.08    0.09
  -9   7  -2   -0.10    0.12
  -9   7  -2    0.11    0.10
   9   7  -2    0.08    0.07
  -9   7   2   -0.24    0.19
  -9   7   2    0.15    0.04
  -9  -7  -2    0.20    0.11
  -9   7  -3   62.47    3.63
  -9  -7   3   62.28    3.63
  -9   7  -3   62.51    3.69
  -9   7  -3   60.28    3.62
  -9  -7  -3   64.37    3.66
  -9  -7  -3   62.38    3.64
   9   7  -3   60.02    3.60
  -9  -7  -3   62.36    3.63
  -9  -7   4    5.43    0.41
  -9   7  -4    5.78    0.48
  -9   7  -4    5.68    0.41
  -9   7  -4    5.42    0.44
   9   7  -4    5.82    0.40
  -9  -7  -4    6.00    0.42
  -9  -7  -4    5.62    0.46
  -9  -7  -4    5.90    0.43
  -9  -7   5   22.15    1.38
  -9   7  -5   22.39    1.42
  -9   7  -5   21.39    1.47
  -9   7  -5   23.89    1.38
  -9  -7  -5   22.69    1.46
  -9  -7  -5   24.60    1.41
  -9  -7  -5   22.63    1.39
  -9   7  -6    1.25    0.24
  -9   7  -6    1.59    0.31
  -9  -7  -6    1.63    0.21
  -9  -7  -6    1.36    0.28
   9   7  -6    1.33    0.22
  -9   7  -7   -0.08    0.18
  -9   7  -7   -0.12    0.19
  -9  -7  -7    0.07    0.19
  -9  -7  -7    0.00    0.15
   9   7  -7   -0.11    0.14
  -9   7  -8   14.84    1.01
  -9   7  -8   14.84    1.08
  -9  -7  -8   14.48    0.96
  -9  -7  -8   13.94    1.05
   9   7  -8   13.96    0.98
  -9   7  -9    0.18    0.24
  -9   7  -9    0.39    0.28
   9   7  -9    0.49    0.22
  -9  -7  -9    0.50    0.29
  -9   7 -10    4.22    0.57
  -9   7 -10    4.10    0.51
  -9  -7 -10    2.89    0.53
   9   7 -10    3.87    0.45
  -9   8   0    0.14    0.15
  -9   8   0    0.00    0.07
  -9  -8   0   -0.10    0.09
  -9   8  -1  232.59   12.99
  -9   8  -1  216.35   12.89
  -9  -8   1  228.27   12.90
  -9   8  -1  229.42   12.87
  -9   8   1  220.88   12.84
  -9   8   1  199.97   13.09
  -9  -8  -1  236.31   12.91
  -9   8  -2   43.34    2.52
  -9  -8   2   43.71    2.52
  -9   8  -2   42.09    2.50
  -9   8  -2   44.86    2.58
  -9   8   2   36.43    2.77
  -9   8   2   40.43    2.44
   9   8  -2   44.00    2.51
  -9  -8  -2   43.04    2.53
  -9   8  -3    4.33    0.33
  -9  -8   3    4.41    0.35
  -9   8  -3    4.21    0.39
  -9   8  -3    3.75    0.35
  -9  -8  -3    4.35    0.35
   9   8  -3    3.69    0.30
  -9  -8  -3    4.35    0.33
  -9   8   3    4.26    0.66
  -9   8  -4    0.56    0.13
  -9   8  -4    0.49    0.16
  -9  -8   4    0.57    0.15
  -9   8  -4    0.88    0.22
   9   8  -4    0.85    0.14
  -9  -8  -4    0.75    0.16
  -9  -8  -4    0.80    0.19
  -9  -8  -4    0.60    0.13
  -9   8  -5    0.13    0.16
  -9   8  -5   -0.07    0.13
  -9   8  -5    0.06    0.10
  -9  -8   5    0.04    0.11
  -9  -8  -5    0.00    0.17
  -9  -8  -5    0.20    0.12
  -9  -8  -5   -0.04    0.09
  -9   8  -6    5.76    0.57
  -9   8  -6    4.88    0.47
  -9  -8  -6    4.34    0.50
   9   8  -6    5.05    0.45
  -9  -8  -6    5.32    0.41
  -9   8  -7    2.03    0.36
  -9   8  -7    1.87    0.30
   9   8  -7    2.10    0.31
  -9  -8  -7    2.18    0.36
  -9  -8  -7    2.31    0.28
  -9   8  -8    4.57    0.50
  -9   8  -8    4.87    0.57
  -9  -8  -8    4.97    0.56
   9   8  -8    5.13    0.48
  -9   8  -9    1.41    0.37
  -9   8  -9    0.79    0.27
   9   8  -9    1.18    0.27
  -9  -8  -9    0.62    0.31
  -9   8 -10    4.35    0.60
  -9   8 -10    3.29    0.48
  -9  -8 -10    4.13    0.57
   9   8 -10    3.76    0.46
  -9  -9   0   -0.17    0.11
  -9   9   0    0.02    0.07
  -9   9   0   -0.15    0.16
   9   9   0    0.07    0.16
  -9   9  -1    0.64    0.20
  -9  -9   1    0.49    0.14
  -9   9  -1    0.35    0.11
  -9   9   1    0.61    0.08
  -9  -9  -1    0.37    0.15
  -9   9   1    0.13    0.24
   9   9  -1    1.10    0.22
  -9  -9   2    0.11    0.12
  -9   9  -2    0.03    0.10
  -9   9  -2    0.07    0.12
  -9   9  -2    0.17    0.10
  -9  -9  -2   -0.01    0.10
  -9   9   2    0.14    0.23
   9   9  -2    0.08    0.09
  -9   9  -3    0.15    0.15
  -9  -9   3    0.18    0.12
  -9   9  -3    0.09    0.10
  -9   9  -3   -0.08    0.10
  -9  -9  -3    0.06    0.12
   9   9  -3    0.19    0.09
  -9   9   3   -0.26    0.21
  -9  -9  -3    0.06    0.10
  -9  -9   4    5.23    0.40
  -9   9  -4    5.34    0.38
  -9   9  -4    5.50    0.47
  -9   9  -4    4.32    0.40
  -9  -9  -4    4.42    0.38
  -9  -9  -4    4.78    0.40
  -9   9  -5    6.30    0.51
  -9   9  -5    6.55    0.56
  -9  -9   5    6.64    0.48
  -9   9  -5    6.35    0.46
  -9  -9  -5    6.12    0.48
  -9  -9  -5    6.55    0.48
  -9   9  -6   41.34    2.59
  -9   9  -6   40.95    2.52
  -9  -9  -6   41.05    2.49
  -9  -9  -6   43.20    2.57
  -9   9  -7    1.79    0.31
  -9   9  -7    2.40    0.38
   9   9  -7    1.87    0.29
  -9  -9  -7    2.46    0.37
  -9   9  -8   27.24    1.74
  -9   9  -8   26.85    1.83
  -9  -9  -8   27.24    1.80
   9   9  -8   27.68    1.73
  -9   9  -9    0.01    0.27
  -9   9  -9    0.35    0.24
   9   9  -9   -0.01    0.20
  -9  -9  -9    0.35    0.29
  -9  10   0   -0.03    0.18
   9  10   0    0.04    0.18
  -9 -10   0   -0.14    0.11
  -9  10   0    0.11    0.08
  -9  10  -1  118.49    6.32
  -9 -10   1  105.74    6.19
  -9  10  -1  109.62    6.14
  -9  10   1  103.26    6.45
  -9 -10  -1  106.94    6.19
   9  10  -1   92.94    6.25
  -9  10  -2   10.51    0.79
  -9  10  -2   10.65    0.71
  -9  10  -2   10.34    0.69
  -9 -10   2   10.46    0.72
   9  10  -2   10.63    0.72
  -9  10   2    8.68    1.08
  -9 -10  -2   11.05    0.72
  -9  10  -3   14.01    0.92
  -9  10  -3   14.34    0.92
  -9 -10   3   13.98    0.93
  -9  10  -3   14.99    1.00
  -9 -10  -3   14.46    0.94
  -9  10   3   13.80    1.28
  -9 -10  -3   13.81    0.91
   9  10  -3   14.94    0.92
  -9 -10   4    2.20    0.26
  -9  10  -4    1.41    0.27
  -9  10  -4    2.17    0.24
  -9  10  -4    1.49    0.23
  -9 -10  -4    2.07    0.23
  -9 -10  -4    1.73    0.24
  -9  10  -5    4.52    0.51
  -9  10  -5    4.50    0.50
  -9 -10   5    4.23    0.39
  -9  10  -5    5.33    0.46
  -9 -10  -5    4.81    0.38
  -9 -10  -5    5.06    0.40
  -9  10  -6   10.07    0.80
  -9  10  -6    9.91    0.73
  -9  10  -7   13.18    0.95
  -9  10  -7   14.05    1.03
   9  10  -7   13.68    0.94
  -9  10  -8    0.13    0.25
  -9  10  -8    0.12    0.24
   9  10  -8   -0.01    0.21
  -9  10  -9    1.19    0.34
  -9  10  -9    1.44    0.36
   9  10  -9    1.32    0.30
  -9  11   0   -0.05    0.08
   9  11   0    0.04    0.20
  -9 -11   0   -0.17    0.14
  -9  11   0   -0.04    0.19
  -9  11  -1   10.37    0.69
  -9  11  -1   11.93    0.88
  -9 -11   1   10.67    0.74
   9  11  -1   10.11    0.83
  -9  11   1   11.75    1.03
  -9 -11  -1   11.24    0.75
  -9  11  -2   23.99    1.47
  -9 -11   2   24.93    1.51
  -9  11  -2   24.11    1.50
  -9  11  -2   25.02    1.60
   9  11  -2   24.13    1.52
  -9 -11  -2   24.48    1.51
  -9  11   2   21.14    1.81
  -9 -11   3   14.29    0.92
  -9  11  -3   14.23    0.89
  -9  11  -3   15.24    1.00
  -9  11  -3   13.16    0.89
  -9  11   3   11.41    1.34
  -9 -11  -3   13.48    0.91
  -9 -11  -3   12.89    0.88
  -9  11  -4    0.30    0.16
  -9 -11   4    0.43    0.18
  -9  11  -4    0.41    0.15
  -9  11  -4    0.77    0.22
  -9  11   4    0.39    0.37
  -9 -11  -4    0.25    0.16
  -9 -11  -4    0.41    0.13
  -9 -11   5   -0.01    0.15
  -9  11  -5    0.05    0.20
  -9  11  -5    0.15    0.18
  -9 -11  -5    0.10    0.15
  -9 -11  -5    0.09    0.14
  -9  11  -6    6.92    0.56
  -9  11  -6    6.31    0.66
  -9  11  -7    0.27    0.23
  -9  11  -7   -0.03    0.24
  -9  11  -8    2.98    0.42
  -9  11  -8    4.18    0.56
  -9  11  -9    0.00    0.27
  -9  11  -9    0.35    0.29
   9  11  -9   -0.23    0.24
   9  12   0   -0.12    0.19
  -9 -12   0   -0.04    0.14
  -9  12   0    0.05    0.23
  -9 -12   1    7.80    0.62
  -9  12  -1    8.91    0.57
  -9  12  -1    8.83    0.76
  -9  12   1    9.38    1.06
  -9 -12  -1    8.12    0.62
   9  12  -1    8.26    0.72
  -9  12  -2   35.13    2.07
  -9 -12   2   34.44    2.12
  -9  12  -2   35.26    2.22
  -9  12   2   30.66    2.45
  -9 -12  -2   34.77    2.12
   9  12  -2   35.61    2.15
  -9 -12   3    0.27    0.17
  -9  12  -3   -0.12    0.13
  -9  12  -3    0.28    0.15
  -9  12  -3    0.30    0.19
  -9 -12  -3    0.19    0.12
  -9  12   3    0.22    0.35
  -9 -12  -3    0.22    0.16
  -9  12  -4   16.66    1.08
  -9  12  -4   17.94    1.19
  -9 -12   4   17.76    1.11
  -9  12  -4   17.12    1.08
  -9 -12  -4   15.14    1.08
  -9 -12  -4   16.86    1.06
  -9  12   4   14.70    1.47
  -9 -12   5    4.48    0.44
  -9  12  -5    4.15    0.51
  -9  12  -5    4.70    0.46
  -9 -12  -5    4.72    0.43
  -9  12  -6    3.99    0.44
  -9  12  -6    4.85    0.56
  -9  12  -7    1.20    0.35
  -9  12  -7    1.11    0.30
  -9  12  -8    8.52    0.72
  -9  12  -8    8.42    0.85
  -9 -13   0    0.12    0.16
   9  13   0   -0.17    0.26
  -9  13   0    0.18    0.31
  -9 -13   1   41.06    2.53
  -9  13  -1   49.40    2.76
   9  13   1   40.68    2.77
   9  13  -1   40.07    2.65
  -9 -13  -1   39.32    2.53
  -9  13   1   42.68    2.89
  -9 -13   2    0.25    0.16
  -9  13  -2   -0.30    0.12
  -9  13  -2   -0.07    0.18
  -9  13   2    0.04    0.30
  -9 -13  -2    0.40    0.18
  -9 -13   3    5.50    0.45
  -9  13  -3    4.87    0.40
  -9  13  -3    3.34    0.37
  -9  13  -3    4.42    0.52
  -9  13   3    3.65    0.77
  -9 -13  -3    4.02    0.42
  -9  13  -4    0.12    0.21
  -9  13  -4    0.16    0.15
  -9 -13   4    0.06    0.15
  -9  13  -4   -0.30    0.16
  -9 -13  -4    0.32    0.18
  -9  13   4    0.21    0.35
  -9  13  -5    1.26    0.32
  -9 -13   5    1.02    0.23
  -9  13  -5    1.43    0.28
  -9 -13  -5    1.53    0.26
  -9  13  -6   -0.03    0.23
  -9  13  -6    0.13    0.23
  -9  13  -7    0.69    0.29
  -9  13  -7    0.41    0.29
  -9  13  -8    4.47    0.60
  -9  13  -8    4.71    0.53
  -9  14   0    0.24    0.33
  -9 -14   0   -0.24    0.16
   9  14   0    0.11    0.26
  -9  14  -1   30.64    1.86
   9  14   1   21.80    1.83
  -9 -14   1   24.80    1.62
  -9  14   1   28.04    2.01
   9  14  -1   23.67    1.73
  -9 -14  -1   25.89    1.62
  -9  14  -2   21.14    1.37
  -9 -14   2   18.12    1.21
  -9  14   2   16.59    1.58
  -9 -14  -2   17.29    1.21
  -9 -14   3   27.02    1.68
  -9  14  -3   25.60    1.63
  -9  14  -3   29.05    1.67
  -9  14  -3   27.81    1.79
  -9  14   3   21.99    2.08
  -9 -14  -3   24.82    1.65
  -9  14  -4   16.49    1.19
  -9 -14   4   15.78    1.10
  -9  14  -4   17.61    1.08
  -9  14  -4   16.62    1.08
  -9 -14  -4   16.57    1.10
  -9  14   4   10.58    1.52
  -9  14  -5    3.00    0.46
  -9 -14   5    3.12    0.39
  -9  14  -5    3.28    0.39
  -9  14   5    2.43    0.66
  -9 -14  -5    3.68    0.40
  -9  14  -6    2.50    0.44
  -9  14  -6    2.74    0.37
  -9  14  -7    0.86    0.27
  -9  14  -7    0.65    0.29
   9  15   0   -0.03    0.27
  -9 -15   0   -0.11    0.19
  -9  15   0   -0.22    0.25
  -9 -15   1   47.24    3.00
  -9  15  -1   58.64    3.27
  -9  15   1   49.44    3.39
  -9 -15  -1   46.64    3.00
  -9  15  -2    1.08    0.35
  -9 -15   2    1.35    0.28
  -9 -15  -2    1.10    0.26
  -9  15   2    2.68    0.71
  -9  15  -3    5.68    0.66
  -9  15  -3    6.05    0.50
  -9 -15   3    5.31    0.54
  -9  15   3    6.47    1.07
  -9 -15  -3    4.90    0.51
  -9  15  -4    0.79    0.23
  -9 -15   4    0.59    0.23
  -9  15  -4    0.86    0.29
  -9  15  -4    0.77    0.22
  -9 -15  -4    0.43    0.20
  -9  15   4    1.31    0.59
  -9  15  -5    1.79    0.38
  -9 -15   5    2.00    0.32
  -9  15  -5    2.31    0.34
  -9  15   5    2.23    0.66
  -9 -15  -5    2.38    0.33
  -9  15  -6    0.70    0.26
  -9  15  -6    0.44    0.28
  -9  15   6    0.61    0.51
  -9  15  -7    3.83    0.57
  -9  15  -7    3.85    0.47
  -9  16   0    0.22    0.34
  -9 -16   0   -0.54    0.19
   9  16   0   -0.21    0.28
  -9  16  -1   25.76    1.62
  -9 -16   1   21.12    1.34
   9  16   1   14.99    1.52
  -9 -16  -1   18.30    1.32
  -9  16   1   22.54    1.75
  -9 -16   2    4.23    0.48
  -9  16  -2    5.31    0.67
   9  16   2    3.07    0.66
  -9 -16  -2    4.22    0.46
  -9  16   2    4.40    0.86
  -9 -16   3    0.40    0.22
  -9  16  -3    0.67    0.30
  -9  16  -3    0.35    0.20
  -9 -16  -3    0.53    0.24
  -9  16   3    0.64    0.55
  -9  16  -4   15.30    1.14
  -9  16  -4   16.80    1.03
  -9 -16   4   14.29    1.03
  -9  16   4   10.08    1.48
  -9 -16  -4   13.37    1.00
  -9  16  -5    1.43    0.37
  -9 -16   5    1.00    0.29
  -9  16  -5    1.50    0.29
  -9  16   5    0.87    0.52
  -9 -16  -5    1.03    0.30
  -9  16  -6    4.13    0.59
  -9  16  -6    3.83    0.44
  -9  16   6    3.24    0.82
  -9 -17   0    0.25    0.23
  -9  17   0   -0.04    0.36
  -9 -17   1    7.64    0.66
  -9  17  -1    9.17    0.98
   9  17   1    6.52    0.93
  -9  17   1   10.94    1.24
  -9 -17  -1    7.54    0.66
  -9  17  -2    4.23    0.63
   9  17   2    1.89    0.58
  -9 -17   2    2.72    0.41
  -9 -17  -2    3.24    0.42
  -9  17   2    3.27    0.77
  -9 -17   3   12.52    0.99
  -9  17  -3   15.66    1.18
  -9  17  -3   15.21    1.02
  -9  17   3   11.01    1.55
  -9 -17  -3   13.93    0.99
  -9  17  -4    0.65    0.30
  -9  17  -4    0.83    0.32
  -9 -17   4    0.88    0.27
  -9  17   4    1.36    0.65
  -9 -17  -4    0.93    0.28
  -9 -17   5    3.01    0.42
  -9  17  -5    1.77    0.42
  -9  17   5    1.51    0.63
  -9  17  -6    2.08    0.36
  -9  17  -6    1.75    0.45
  -9  17   6    2.21    0.76
  -9  18   0   -0.07    0.33
  -9 -18   0    0.27    0.23
  -9  18  -1   30.59    2.12
  -9 -18   1   26.90    1.84
  -9  18   1   33.05    2.33
  -9 -18  -1   27.44    1.85
   9  18   2    1.97    0.60
  -9  18  -2    3.97    0.63
  -9 -18   2    3.07    0.43
  -9  18   2    3.19    0.78
  -9 -18  -2    2.79    0.43
   9  18   3   11.93    1.44
  -9  18  -3   15.62    1.23
  -9  18  -3   16.66    1.07
  -9 -18   3   12.64    1.02
  -9  18   3   15.06    1.77
  -9 -18  -3   14.03    1.03
  -9 -18   4    6.94    0.63
  -9  18  -4    6.51    0.77
  -9 -18  -4    5.46    0.59
  -9  18   4    5.08    1.04
  -9 -18   5    1.99    0.38
  -9  18  -5    0.99    0.40
  -9  18   5    1.52    0.62
  -9  19   0   -0.11    0.37
  -9 -19   0   -0.20    0.25
  -9 -19   1    1.18    0.34
  -9  19  -1    1.33    0.49
  -9  19   1    1.91    0.65
  -9 -19  -1    1.35    0.35
  -9 -19   2    6.09    0.60
   9  19   2    2.93    0.73
  -9  19  -2    6.65    0.82
  -9  19   2    4.82    0.93
  -9 -19  -2    5.43    0.58
  -9 -19   3    0.30    0.25
  -9  19  -3    0.42    0.28
  -9  19  -3    0.68    0.36
   9  19   3    0.41    0.44
  -9 -19  -3    0.04    0.24
  -9  19   3    0.42    0.61
  -9  19  -4   -0.04    0.30
   9  19   4   -0.03    0.47
  -9  19   4   -0.09    0.48
  -9 -20   0    0.34    0.26
  -9  20   0   -0.17    0.43
  -9  20  -1    4.60    0.80
  -9 -20   1    4.43    0.52
  -9  20   1    4.88    0.90
  -9 -20  -1    2.54    0.46
  -9  20  -2    1.01    0.45
  -9 -20   2    1.33    0.38
  -9  20   2    1.62    0.74
  -9 -20  -2    0.70    0.30
 -10   0   0   97.05    5.47
 -10   0   0   92.43    5.49
 -10   0  -1   -0.07    0.06
 -10   0  -1   -0.01    0.06
 -10   0   1    0.01    0.04
 -10   0   1   -0.02    0.06
 -10   0  -1    0.09    0.07
 -10   0  -2   22.00    1.27
 -10   0  -2   20.32    1.25
 -10   0   2   20.61    1.24
 -10   0  -2   19.98    1.25
 -10   0  -3    0.08    0.08
 -10   0  -3    0.16    0.09
 -10   0  -3   -0.13    0.10
 -10   0   3   -0.05    0.06
 -10   0  -4  161.04    9.39
 -10   0  -4  158.33    9.45
 -10   0  -4  169.08    9.42
 -10   0   4  163.61    9.38
 -10   0  -5    0.03    0.07
 -10   0   5    0.00    0.07
 -10   0  -5   -0.06    0.11
 -10   0  -5    0.12    0.15
 -10   0  -6   44.99    2.73
 -10   0  -6   46.79    2.79
  10   0  -6   45.58    2.72
  10   0  -7    0.02    0.13
 -10   0  -7    0.12    0.21
 -10   0  -7    0.05    0.15
  10   0  -7    0.14    0.15
 -10   0  -8    1.97    0.38
 -10   0  -8    2.23    0.33
  10   0  -8    2.39    0.28
 -10   0  -9   -0.13    0.20
  10   0  -9   -0.16    0.16
 -10   0  -9    0.09    0.27
 -10   0 -10    0.00    0.22
 -10   0 -10   -0.12    0.24
 -10   1   0   11.36    0.73
 -10  -1   0   11.28    0.73
 -10  -1   0   12.51    0.71
 -10   1   0   11.67    0.72
 -10   1  -1    5.01    0.35
 -10   1  -1    4.41    0.34
 -10  -1   1    5.28    0.30
 -10  -1   1    4.68    0.34
 -10   1  -1    4.88    0.34
 -10   1   1    4.56    0.34
 -10  -1  -1    4.95    0.34
 -10  -1  -1    5.14    0.35
 -10  -1  -1    5.16    0.35
 -10   1   1    4.52    0.34
 -10   1  -2   10.52    0.64
 -10   1  -2   10.19    0.63
 -10  -1   2   10.53    0.62
 -10   1  -2    9.80    0.65
 -10  -1  -2   10.80    0.64
 -10   1   2    9.66    0.62
 -10  -1  -2   10.72    0.64
 -10   1   2    7.15    0.65
 -10  -1  -2    9.74    0.64
 -10   1  -3    1.06    0.13
 -10  -1   3    0.94    0.12
 -10   1  -3    0.84    0.16
 -10   1  -3    0.91    0.14
 -10  -1  -3    1.20    0.18
 -10  -1  -3    1.41    0.15
 -10  -1  -3    1.04    0.16
 -10   1   3    1.15    0.13
 -10  -1   4    0.36    0.08
 -10   1  -4    0.59    0.16
 -10   1  -4    0.31    0.09
 -10   1  -4    0.28    0.12
 -10   1   4    0.16    0.07
 -10  -1  -4    0.32    0.10
 -10  -1  -4    0.27    0.11
 -10  -1  -4    0.14    0.14
 -10  -1   5   25.47    1.49
 -10   1  -5   25.68    1.59
 -10   1  -5   24.07    1.54
 -10   1  -5   25.37    1.50
 -10  -1  -5   22.93    1.58
 -10   1   5   25.69    1.49
 -10  -1  -5   25.83    1.50
 -10  -1  -5   26.12    1.55
  10   1  -5   25.43    1.52
 -10   1  -6    1.03    0.24
 -10   1  -6    0.58    0.17
 -10  -1  -6    1.65    0.27
 -10  -1  -6    1.12    0.20
  10   1  -6    0.76    0.17
 -10   1  -7   22.18    1.50
  10  -1  -7   24.54    1.51
 -10   1  -7   24.88    1.58
  10   1  -7   23.86    1.55
 -10  -1  -7   25.58    1.59
  10   1  -7   24.59    1.48
 -10  -1  -7   22.79    1.50
 -10   1  -8    0.10    0.18
  10  -1  -8   -0.04    0.15
 -10   1  -8    0.11    0.22
  10  -1  -8    0.04    0.23
 -10  -1  -8   -0.24    0.15
  10   1  -8    0.14    0.16
 -10  -1  -8   -0.07    0.19
 -10   1  -9   16.66    1.15
 -10   1  -9   16.72    1.23
 -10  -1  -9   17.34    1.14
 -10  -1  -9   16.72    1.21
  10   1  -9   16.15    1.08
 -10   1 -10   -0.08    0.24
 -10   1 -10    0.13    0.26
 -10  -1 -10   -0.24    0.28
 -10  -1 -10    0.21    0.25
 -10  -2   0   40.39    2.30
 -10   2   0   39.42    2.33
 -10   2   0   38.71    2.32
 -10  -2   0   40.85    2.34
 -10   2   0   39.02    2.33
 -10   2  -1   29.58    1.77
 -10   2  -1   30.64    1.78
 -10  -2   1   29.87    1.77
 -10   2  -1   28.54    1.76
 -10  -2  -1   29.43    1.77
 -10   2   1   28.82    1.79
 -10  -2  -1   32.61    1.77
 -10   2   1   29.05    1.77
 -10   2  -2  103.61    5.95
 -10   2  -2  102.56    5.93
 -10  -2   2  103.33    5.92
 -10   2  -2  101.77    5.93
 -10  -2  -2  101.41    5.93
 -10   2   2  104.47    5.92
 -10  -2  -2  102.54    5.93
 -10  -2  -2  100.26    5.94
 -10   2  -3    1.60    0.19
 -10   2  -3    1.66    0.22
 -10  -2   3    1.49    0.16
 -10   2  -3    2.11    0.19
 -10  -2  -3    1.83    0.22
 -10   2   3    1.84    0.17
 -10  -2  -3    1.59    0.19
 -10  -2  -3    2.12    0.20
 -10   2  -4   49.89    2.87
 -10  -2   4   48.82    2.85
 -10   2  -4   50.27    2.93
 -10   2  -4   49.64    2.89
 -10  -2  -4   49.18    2.89
 -10  -2  -4   47.23    2.92
 -10  -2  -4   47.35    2.87
  10   2  -4   49.60    2.85
 -10   2  -5   14.24    0.92
 -10  -2   5   14.56    0.86
 -10   2  -5   14.61    0.87
 -10   2  -5   13.29    0.96
  10   2  -5   14.58    0.89
 -10  -2  -5   15.06    0.92
 -10  -2  -5   13.49    0.96
 -10  -2  -5   13.60    0.87
 -10   2  -6    3.70    0.41
 -10   2  -6    3.46    0.35
  10   2  -6    3.33    0.31
 -10  -2  -6    3.80    0.41
 -10  -2  -6    3.23    0.34
 -10   2  -7    0.23    0.20
 -10   2  -7    0.16    0.16
  10   2  -7    0.42    0.17
 -10  -2  -7   -0.29    0.18
 -10  -2  -7    0.02    0.14
 -10   2  -8    1.23    0.31
 -10   2  -8    0.89    0.23
  10   2  -8    0.78    0.21
 -10  -2  -8    1.47    0.31
 -10  -2  -8    1.10    0.23
 -10   2  -9    1.03    0.29
 -10   2  -9    1.04    0.31
  10   2  -9    1.00    0.22
 -10  -2  -9    1.02    0.25
 -10  -2  -9    0.90    0.34
 -10   2 -10   -0.13    0.24
 -10   2 -10   -0.03    0.21
 -10  -2 -10    0.29    0.29
  10   2 -10    0.42    0.21
 -10  -2 -10    0.23    0.22
 -10   3   0   29.15    1.73
 -10  -3   0   28.63    1.71
 -10   3   0   30.20    1.75
 -10   3   0   29.56    1.76
 -10  -3   0   29.68    1.75
 -10   3  -1    6.92    0.43
 -10  -3   1    6.22    0.43
 -10   3  -1    6.47    0.44
 -10   3  -1    6.63    0.45
 -10   3   1    6.12    0.43
 -10  -3  -1    6.43    0.44
 -10   3   1    5.60    0.47
 -10  -3  -1    6.71    0.43
 -10  -3   2   11.59    0.71
 -10   3  -2   11.68    0.75
 -10   3  -2   11.63    0.72
 -10   3  -2   11.35    0.72
 -10   3   2    9.32    0.81
 -10  -3  -2   11.40    0.72
 -10  -3  -2   11.80    0.72
 -10  -3  -2   11.07    0.73
 -10   3   2   11.71    0.71
 -10   3  -3    1.40    0.16
 -10  -3   3    1.56    0.16
 -10   3  -3    1.74    0.19
 -10   3  -3    1.45    0.21
 -10  -3  -3    1.50    0.21
  10   3  -3    1.51    0.12
 -10  -3  -3    1.60    0.18
 -10  -3  -3    1.08    0.16
 -10   3  -4    4.01    0.34
 -10   3  -4    4.90    0.32
 -10  -3   4    4.22    0.30
 -10   3  -4    3.85    0.37
 -10  -3  -4    4.11    0.38
 -10  -3  -4    3.96    0.32
  10   3  -4    4.21    0.30
 -10  -3  -4    4.39    0.34
 -10   3  -5   14.10    1.00
 -10  -3   5   15.03    0.89
 -10   3  -5   14.34    0.95
 -10   3  -5   15.40    0.90
 -10  -3  -5   14.64    0.99
 -10  -3  -5   14.45    0.90
 -10  -3  -5   14.48    0.94
  10   3  -5   14.66    0.91
 -10   3  -6    0.33    0.16
 -10   3  -6    0.38    0.19
 -10  -3  -6    0.27    0.16
 -10  -3  -6    0.30    0.18
 -10   3  -7   35.59    2.03
 -10   3  -7   31.55    2.07
 -10  -3  -7   31.18    2.07
 -10  -3  -7   34.88    2.01
  10   3  -7   30.83    1.98
 -10   3  -8    6.01    0.56
 -10   3  -8    5.64    0.60
  10   3  -8    6.66    0.51
 -10  -3  -8    5.75    0.61
 -10  -3  -8    5.63    0.53
 -10   3  -9    5.19    0.56
 -10   3  -9    6.58    0.69
  10   3  -9    6.58    0.52
 -10  -3  -9    5.69    0.65
 -10  -3  -9    6.47    0.55
 -10   3 -10    0.19    0.23
 -10   3 -10    1.04    0.35
 -10  -3 -10    0.37    0.29
 -10  -3 -10    0.46    0.23
  10   3 -10    0.91    0.25
 -10   4   0   23.66    1.50
 -10   4   0   24.14    1.46
 -10  -4   0   24.60    1.47
 -10   4   0   25.15    1.44
 -10  -4   1   37.88    2.17
 -10   4  -1   37.35    2.16
 -10   4  -1   37.49    2.20
 -10   4  -1   36.09    2.17
 -10  -4  -1   38.71    2.16
 -10  -4  -1   36.65    2.18
 -10   4   1   36.49    2.14
 -10   4   1   36.29    2.17
 -10   4   1   33.10    2.24
 -10   4  -2   22.40    1.38
 -10   4  -2   24.87    1.39
 -10  -4   2   23.04    1.38
 -10   4  -2   22.09    1.41
 -10  -4  -2   23.11    1.39
 -10  -4  -2   23.00    1.39
 -10  -4  -2   25.51    1.40
 -10   4   2   18.10    1.50
 -10   4  -3    6.92    0.52
 -10   4  -3    7.14    0.48
 -10   4  -3    6.88    0.49
 -10  -4   3    6.96    0.47
 -10  -4  -3    7.01    0.51
  10   4  -3    7.09    0.43
 -10  -4  -3    7.82    0.49
 -10  -4  -3    7.37    0.49
 -10   4  -4    7.14    0.56
 -10   4  -4    8.43    0.54
 -10  -4   4    8.27    0.53
 -10   4  -4    9.09    0.62
 -10  -4  -4    8.47    0.56
 -10  -4  -4    8.43    0.54
  10   4  -4    7.65    0.51
 -10  -4  -4    8.17    0.59
 -10   4  -5   36.94    2.35
 -10   4  -5   38.36    2.31
 -10  -4   5   39.18    2.26
 -10   4  -5   38.59    2.26
 -10  -4  -5   38.21    2.35
  10   4  -5   38.98    2.27
 -10  -4  -5   37.86    2.26
 -10  -4  -5   38.90    2.30
 -10   4  -6    0.09    0.16
 -10   4  -6    0.48    0.16
 -10  -4  -6    0.17    0.17
 -10  -4  -6    0.24    0.15
 -10   4  -7    5.81    0.57
 -10   4  -7    6.74    0.53
  10   4  -7    6.84    0.50
 -10  -4  -7    5.37    0.58
 -10  -4  -7    6.23    0.50
 -10   4  -8    0.07    0.21
 -10   4  -8   -0.02    0.17
 -10  -4  -8    0.07    0.16
 -10  -4  -8    0.12    0.22
  10   4  -8    0.09    0.16
 -10   4  -9    3.65    0.52
 -10   4  -9    4.09    0.49
 -10  -4  -9    5.72    0.50
  10   4  -9    4.64    0.46
 -10  -4  -9    5.04    0.58
 -10   4 -10    0.18    0.27
 -10   4 -10    0.13    0.24
 -10  -4 -10    0.54    0.35
  10   4 -10    0.24    0.20
 -10  -4 -10    0.62    0.25
 -10   5   0  105.71    6.16
 -10  -5   0  111.48    6.20
 -10   5   0  103.40    6.25
 -10   5   0  106.68    6.19
 -10   5  -1   26.43    1.49
 -10   5  -1   26.37    1.51
 -10  -5   1   25.15    1.51
 -10   5  -1   24.57    1.54
 -10   5   1   21.41    1.60
 -10  -5  -1   25.97    1.52
 -10  -5  -1   24.46    1.49
 -10   5   1   25.06    1.47
 -10   5  -2  109.36    6.47
 -10   5  -2  109.80    6.43
 -10   5  -2  110.48    6.44
 -10  -5   2  117.09    6.44
 -10  -5  -2  109.31    6.44
 -10   5   2  109.11    6.40
 -10  -5  -2  111.84    6.45
  10   5  -2  109.13    6.38
 -10  -5  -2  115.30    6.45
 -10  -5   3   13.56    0.81
 -10   5  -3   12.87    0.81
 -10   5  -3   12.58    0.82
 -10   5  -3   12.68    0.86
 -10  -5  -3   13.17    0.85
 -10  -5  -3   12.90    0.82
 -10  -5  -3   13.06    0.82
  10   5  -3   12.50    0.77
 -10   5  -4   46.87    2.69
 -10  -5   4   44.63    2.66
 -10   5  -4   45.42    2.66
 -10   5  -4   45.43    2.73
 -10  -5  -4   44.96    2.67
  10   5  -4   44.54    2.64
 -10  -5  -4   45.20    2.67
 -10  -5  -4   45.44    2.72
 -10   5  -5    0.26    0.17
 -10   5  -5    0.20    0.09
 -10  -5   5    0.24    0.10
 -10   5  -5    0.34    0.15
 -10  -5  -5    0.04    0.11
 -10  -5  -5    0.15    0.10
 -10  -5  -5    0.18    0.16
 -10   5  -6    9.68    0.75
 -10   5  -6    8.76    0.69
 -10  -5  -6   10.53    0.75
 -10  -5  -6   10.33    0.69
 -10   5  -7    4.32    0.42
 -10   5  -7    3.33    0.44
 -10  -5  -7    3.72    0.38
 -10  -5  -7    4.20    0.49
  10   5  -7    2.86    0.35
 -10   5  -8    0.96    0.27
 -10   5  -8    0.49    0.25
  10   5  -8    1.01    0.22
 -10  -5  -8    0.95    0.31
 -10  -5  -8    0.85    0.21
 -10   5  -9   -0.07    0.20
 -10   5  -9    0.11    0.23
 -10  -5  -9    0.20    0.26
 -10  -5  -9   -0.23    0.19
  10   5  -9   -0.02    0.18
 -10   5 -10    0.20    0.26
 -10   5 -10    0.12    0.30
 -10  -5 -10    0.33    0.30
  10   5 -10   -0.08    0.21
 -10  -6   0  103.81    6.10
 -10   6   0  109.88    6.18
 -10   6   0  101.14    6.09
 -10   6   0  106.11    6.06
 -10  -6   1    3.28    0.26
 -10   6  -1    2.89    0.23
 -10   6  -1    3.06    0.25
 -10   6  -1    2.36    0.29
 -10   6   1    2.93    0.21
 -10  -6  -1    2.73    0.27
 -10   6   1    2.81    0.40
  10   6  -1    2.71    0.27
 -10   6  -2   37.14    2.19
 -10  -6   2   39.24    2.20
 -10   6  -2   37.03    2.24
 -10   6  -2   37.36    2.19
 -10  -6  -2   36.61    2.20
 -10  -6  -2   39.37    2.21
 -10   6   2   36.03    2.14
  10   6  -2   37.65    2.15
 -10   6   2   30.14    2.37
 -10   6  -3   15.12    1.00
 -10   6  -3   15.17    0.95
 -10   6  -3   14.97    0.96
 -10  -6   3   14.41    0.95
 -10  -6  -3   15.70    0.98
  10   6  -3   15.22    0.91
 -10  -6  -3   15.61    0.96
 -10  -6  -3   16.23    0.96
 -10   6  -4    0.15    0.09
 -10   6  -4    0.13    0.14
 -10   6  -4   -0.27    0.12
 -10  -6   4    0.56    0.12
  10   6  -4    0.29    0.10
 -10  -6  -4    0.14    0.13
 -10  -6  -4    0.04    0.10
 -10  -6  -4    0.26    0.11
 -10   6  -5   23.90    1.52
 -10   6  -5   22.19    1.46
 -10  -6   5   23.40    1.42
 -10   6  -5   23.98    1.42
 -10  -6  -5   23.25    1.50
 -10  -6  -5   23.52    1.43
 -10  -6  -5   24.12    1.45
 -10   6  -6    0.88    0.24
 -10   6  -6    1.07    0.22
 -10  -6  -6    0.78    0.18
 -10  -6  -6    1.12    0.25
 -10   6  -7   11.45    0.84
 -10   6  -7   11.05    0.78
 -10  -6  -7   10.84    0.83
 -10  -6  -7   10.62    0.75
  10   6  -7    9.67    0.74
 -10   6  -8    2.61    0.37
 -10   6  -8    2.37    0.41
 -10  -6  -8    2.90    0.34
 -10  -6  -8    2.02    0.39
  10   6  -8    1.98    0.30
 -10   6  -9    1.38    0.37
 -10   6  -9    1.07    0.31
  10   6  -9    0.91    0.24
 -10  -6  -9    0.90    0.26
 -10  -6  -9    0.76    0.31
 -10   6 -10    1.26    0.35
 -10   6 -10    1.19    0.36
 -10  -6 -10    1.47    0.40
  10   6 -10    0.92    0.29
 -10   7   0   35.02    2.22
 -10   7   0   35.36    2.08
 -10  -7   0   36.30    2.13
 -10   7  -1    0.33    0.14
 -10  -7   1   -0.04    0.11
 -10   7  -1    0.12    0.08
 -10   7  -1    0.20    0.10
 -10  -7  -1    0.16    0.11
  10   7  -1    0.10    0.11
 -10   7   1    0.12    0.18
 -10   7   1    0.17    0.06
 -10   7  -2   30.37    1.72
 -10   7  -2   29.27    1.71
 -10   7  -2   28.31    1.77
 -10  -7   2   28.30    1.72
 -10   7   2   29.67    1.66
 -10  -7  -2   29.18    1.73
  10   7  -2   28.98    1.69
 -10   7   2   21.19    1.90
 -10   7  -3    0.26    0.10
 -10   7  -3    0.48    0.16
 -10   7  -3    0.32    0.12
 -10  -7   3    0.16    0.12
 -10   7   3    0.63    0.32
  10   7  -3    0.37    0.08
 -10  -7  -3    0.37    0.14
 -10  -7  -3    0.47    0.12
 -10  -7  -3    0.45    0.14
 -10   7  -4    7.43    0.59
 -10  -7   4    7.95    0.52
 -10   7  -4    7.48    0.52
 -10   7  -4    7.00    0.54
 -10  -7  -4    7.38    0.52
 -10  -7  -4    7.81    0.53
 -10  -7  -4    7.46    0.57
 -10   7  -5    7.55    0.61
 -10   7  -5    7.64    0.56
 -10   7  -5    8.06    0.52
 -10  -7   5    7.35    0.52
 -10  -7  -5    6.99    0.53
 -10  -7  -5    7.89    0.53
 -10  -7  -5    7.07    0.58
 -10   7  -6    0.87    0.24
 -10   7  -6    0.74    0.23
 -10  -7  -6    0.82    0.24
 -10  -7  -6    0.97    0.19
 -10   7  -7    5.16    0.50
 -10   7  -7    5.26    0.57
 -10  -7  -7    6.04    0.54
 -10  -7  -7    5.28    0.44
  10   7  -7    4.95    0.47
 -10   7  -8    1.06    0.29
 -10   7  -8    1.03    0.26
 -10  -7  -8    0.82    0.28
  10   7  -8    0.42    0.20
 -10  -7  -8    0.70    0.22
 -10   7  -9    6.75    0.65
 -10   7  -9    6.70    0.73
  10   7  -9    6.34    0.59
 -10  -7  -9    7.06    0.73
 -10   7 -10   -0.07    0.25
 -10   7 -10   -0.23    0.24
  10   7 -10    0.15    0.26
 -10  -7 -10   -0.38    0.29
 -10  -8   0   31.28    1.84
 -10   8   0   29.70    1.79
 -10   8   0   30.69    1.96
 -10  -8   1    0.08    0.11
 -10   8  -1    0.20    0.11
 -10   8  -1    0.05    0.08
 -10   8  -1    0.23    0.14
 -10  -8  -1    0.30    0.13
 -10   8   1    0.27    0.07
  10   8  -1    0.11    0.12
 -10   8   1    0.07    0.18
 -10  -8   2   33.48    1.94
 -10   8  -2   33.22    2.00
 -10   8  -2   32.50    1.92
 -10   8  -2   33.03    1.94
  10   8  -2   32.41    1.91
 -10   8   2   30.33    2.20
 -10  -8  -2   34.46    1.95
 -10   8   2   29.32    1.87
 -10   8  -3   16.51    1.02
 -10   8  -3   16.87    1.02
 -10   8  -3   16.76    1.08
 -10  -8   3   17.01    1.03
 -10  -8  -3   15.35    1.01
 -10  -8  -3   15.35    1.02
  10   8  -3   15.91    0.99
 -10   8   3   15.72    1.34
 -10   8  -4    9.29    0.71
 -10   8  -4    8.65    0.64
 -10  -8   4    8.38    0.62
 -10   8  -4    9.67    0.62
 -10  -8  -4    9.19    0.67
 -10  -8  -4    9.90    0.64
 -10  -8  -4    9.52    0.62
 -10   8  -5    0.62    0.19
 -10   8  -5    1.39    0.18
 -10   8  -5    1.14    0.25
 -10  -8   5    1.33    0.19
 -10  -8  -5    1.23    0.19
 -10  -8  -5    1.37    0.25
 -10  -8  -5    1.35    0.20
 -10   8  -6    3.47    0.45
 -10   8  -6    3.89    0.41
 -10  -8  -6    4.82    0.39
 -10  -8  -6    4.97    0.49
 -10   8  -7    7.29    0.59
 -10   8  -7    7.15    0.64
 -10  -8  -7    6.78    0.54
 -10  -8  -7    6.98    0.63
 -10   8  -8    0.89    0.27
 -10   8  -8    0.97    0.32
  10   8  -8    0.78    0.23
 -10  -8  -8    1.00    0.31
 -10   8  -9    0.20    0.24
 -10   8  -9    0.02    0.24
 -10  -8  -9   -0.03    0.25
  10   8  -9    0.06    0.22
 -10   9   0   31.26    1.90
 -10  -9   0   31.76    1.96
 -10   9   0   35.16    2.11
 -10   9  -1   -0.07    0.12
 -10  -9   1    0.12    0.12
 -10   9  -1    0.10    0.11
 -10   9  -1   -0.02    0.09
 -10   9   1    0.12    0.23
 -10  -9  -1   -0.14    0.11
  10   9  -1    0.12    0.12
 -10   9   1    0.00    0.06
 -10   9  -2    0.97    0.17
 -10   9  -2    0.90    0.16
 -10  -9   2    0.93    0.19
 -10   9  -2    0.93    0.21
  10   9  -2    1.18    0.16
 -10   9   2    0.87    0.35
 -10  -9  -2    0.99    0.18
 -10   9  -3   20.51    1.24
 -10  -9   3   20.66    1.25
 -10   9  -3   19.13    1.23
 -10   9  -3   20.16    1.31
 -10  -9  -3   18.76    1.23
 -10   9   3   19.44    1.58
 -10  -9  -3   20.64    1.25
 -10   9  -4    4.93    0.36
 -10   9  -4    4.80    0.41
 -10  -9   4    4.00    0.37
 -10   9  -4    3.86    0.45
 -10  -9  -4    4.78    0.39
 -10  -9  -4    3.97    0.34
 -10   9  -5   10.90    0.81
 -10   9  -5   12.45    0.89
 -10  -9   5   12.12    0.79
 -10   9  -5   11.71    0.78
 -10  -9  -5   12.36    0.80
 -10  -9  -5   12.37    0.80
 -10   9  -6    0.77    0.25
 -10   9  -6    1.11    0.25
 -10  -9  -6    0.69    0.24
 -10  -9  -6    0.83    0.19
 -10   9  -7   17.45    1.16
 -10   9  -7   14.75    1.07
 -10  -9  -7   15.30    1.12
 -10   9  -8    1.40    0.30
 -10   9  -8    1.55    0.38
 -10  -9  -8    1.06    0.34
 -10   9  -9    9.15    0.83
 -10   9  -9    8.70    0.76
  10   9  -9    9.21    0.74
 -10  -9  -9   10.66    0.85
 -10  10   0  163.10    8.37
 -10  10   0  139.33    8.09
 -10 -10   0  144.44    8.16
  10  10   0  117.26    8.25
 -10  10  -1    5.68    0.53
 -10  10  -1    5.72    0.40
 -10 -10   1    4.82    0.43
  10  10  -1    5.15    0.49
 -10  10   1    6.73    0.77
 -10 -10  -1    5.55    0.45
 -10  10  -2   74.39    4.35
 -10  10  -2   75.50    4.37
 -10  10  -2   79.84    4.47
 -10 -10   2   72.78    4.38
  10  10  -2   76.62    4.38
 -10 -10  -2   76.14    4.39
 -10  10   2   63.19    4.66
 -10  10  -3    6.55    0.51
 -10  10  -3    6.41    0.50
 -10  10  -3    6.97    0.58
 -10 -10   3    6.97    0.51
 -10 -10  -3    7.54    0.51
 -10 -10  -3    6.82    0.52
 -10  10   3    6.28    0.90
 -10  10  -4   14.84    0.97
 -10  10  -4   14.19    0.95
 -10 -10   4   15.53    0.97
 -10  10  -4   16.29    1.05
 -10 -10  -4   13.92    0.94
 -10 -10  -4   14.16    0.96
 -10  10   4   15.95    1.37
 -10 -10   5    0.03    0.13
 -10  10  -5    0.25    0.14
 -10  10  -5   -0.21    0.17
 -10  10  -5   -0.17    0.16
 -10 -10  -5    0.11    0.13
 -10 -10  -5    0.06    0.13
 -10  10  -6   10.05    0.73
 -10  10  -6    8.96    0.79
 -10 -10  -6   10.09    0.69
 -10  10  -7    3.02    0.39
 -10  10  -7    2.13    0.40
 -10  10  -8   -0.26    0.21
 -10  10  -8   -0.50    0.22
 -10  10  -9    0.04    0.26
 -10  10  -9    0.17    0.26
 -10 -11   0   37.51    2.36
 -10  11   0   41.85    2.57
 -10 -11   1   -0.06    0.13
 -10  11  -1    0.10    0.11
 -10  11  -1   -0.24    0.14
 -10  11   1    0.09    0.24
  10  11  -1   -0.09    0.15
 -10 -11  -1   -0.06    0.14
 -10  11  -2    0.46    0.20
 -10 -11   2    0.17    0.16
 -10  11  -2    0.15    0.13
 -10  11  -2    0.41    0.16
 -10  11   2    0.62    0.35
 -10 -11  -2   -0.07    0.14
 -10  11  -3    0.02    0.16
 -10  11  -3    0.30    0.16
 -10 -11   3    0.36    0.18
 -10  11  -3    0.01    0.13
 -10 -11  -3    0.17    0.15
 -10 -11  -3    0.43    0.14
 -10  11   3    0.80    0.38
 -10  11  -4   29.69    1.90
 -10  11  -4   30.79    1.81
 -10 -11   4   29.55    1.82
 -10  11  -4   30.06    1.83
 -10 -11  -4   28.72    1.79
 -10 -11  -4   30.47    1.83
 -10  11   4   27.04    2.21
 -10  11  -5   10.12    0.74
 -10  11  -5    8.53    0.77
 -10 -11   5   10.70    0.72
 -10 -11  -5   10.36    0.71
 -10 -11  -5    9.88    0.68
 -10  11  -6    2.06    0.36
 -10  11  -6    2.35    0.33
 -10  11  -7   62.93    3.66
 -10  11  -7   58.59    3.73
 -10  11  -8    5.02    0.63
 -10  11  -8    4.46    0.51
 -10  11  -9    7.87    0.83
 -10  11  -9    7.28    0.70
 -10  12   0  107.88    6.14
 -10 -12   0   95.40    5.89
 -10  12  -1    0.59    0.27
 -10 -12   1    0.67    0.19
 -10  12  -1    0.68    0.14
  10  12  -1    0.17    0.21
 -10  12   1    1.06    0.40
 -10 -12  -1    0.54    0.20
 -10  12  -2    9.89    0.83
 -10  12  -2   10.37    0.73
 -10  12  -2   10.17    0.69
 -10 -12   2   10.34    0.73
 -10  12   2    9.91    1.20
 -10 -12  -2   11.03    0.75
 -10  12  -3    3.99    0.36
 -10 -12   3    3.38    0.36
 -10  12  -3    3.79    0.46
 -10  12  -3    3.74    0.36
 -10 -12  -3    2.86    0.32
 -10  12   3    2.51    0.62
 -10 -12  -3    4.23    0.41
 -10  12  -4    0.14    0.17
 -10  12  -4    0.18    0.19
 -10  12  -4    0.15    0.15
 -10 -12   4    0.00    0.16
 -10 -12  -4    0.15    0.13
 -10 -12  -4    0.33    0.17
 -10  12   4   -0.19    0.34
 -10 -12   5    9.26    0.71
 -10  12  -5    9.39    0.72
 -10  12  -5    9.33    0.80
 -10 -12  -5   11.41    0.72
 -10  12  -6    0.09    0.22
 -10  12  -6   -0.25    0.18
 -10  12  -7   16.40    1.24
 -10  12  -7   16.51    1.15
 -10  12  -8    0.17    0.28
 -10  12  -8   -0.13    0.25
 -10  13   0   20.80    1.45
 -10 -13   0   19.93    1.20
  10  13   0   14.09    1.31
  10  13   1   -0.28    0.22
 -10 -13   1    0.14    0.17
 -10  13  -1    0.02    0.21
 -10  13   1    0.10    0.28
 -10 -13  -1   -0.23    0.17
 -10  13  -2   69.46    4.02
 -10 -13   2   66.13    4.06
 -10  13  -2   72.23    4.07
 -10  13  -2   71.17    4.20
 -10 -13  -2   66.92    4.07
 -10  13   2   63.41    4.45
 -10  13  -3    0.17    0.17
 -10  13  -3   -0.01    0.14
 -10 -13   3    0.43    0.19
 -10  13  -3    0.26    0.21
 -10  13   3   -0.18    0.35
 -10 -13  -3    0.14    0.19
 -10 -13   4   55.22    3.24
 -10  13  -4   54.17    3.22
 -10  13  -4   53.62    3.33
 -10  13  -4   54.38    3.22
 -10  13   4   45.04    3.64
 -10 -13  -4   57.55    3.24
 -10 -13   5    4.17    0.43
 -10  13  -5    4.94    0.56
 -10  13  -5    2.98    0.38
 -10 -13  -5    4.67    0.43
 -10  13   5    2.18    0.64
 -10  13  -6   31.78    2.00
 -10  13  -6   31.81    2.09
 -10  13  -7    8.32    0.72
 -10  13  -7    8.77    0.80
 -10  13  -8    0.79    0.29
 -10  13  -8    0.90    0.34
 -10  14   0    1.06    0.39
  10  14   0    0.53    0.31
 -10 -14   0    1.03    0.24
 -10 -14   1    0.28    0.19
 -10  14  -1    0.69    0.31
  10  14   1    0.34    0.28
 -10  14   1    0.71    0.42
 -10 -14  -1    0.42    0.21
 -10  14  -2    1.21    0.33
 -10  14  -2    1.08    0.24
 -10 -14   2    0.81    0.23
 -10  14   2    0.71    0.46
 -10 -14  -2    0.72    0.22
 -10  14  -3    9.78    0.69
 -10  14  -3    8.97    0.79
 -10 -14   3    9.36    0.71
 -10  14  -3    8.04    0.65
 -10  14   3    8.61    1.24
 -10 -14  -3    9.29    0.70
 -10  14  -4   12.35    1.01
 -10 -14   4   13.24    0.92
 -10  14  -4   14.90    0.92
 -10  14  -4   12.80    0.91
 -10  14   4    8.92    1.34
 -10 -14  -4   13.86    0.93
 -10  14  -5    1.42    0.34
 -10  14  -5    0.83    0.24
 -10 -14   5    1.11    0.25
 -10  14   5    0.70    0.53
 -10 -14  -5    0.92    0.25
 -10  14  -6    0.45    0.27
 -10  14  -6    0.96    0.25
 -10  14   6    0.76    0.50
 -10  14  -7    5.94    0.60
 -10  14  -7    5.69    0.68
 -10 -15   0    0.86    0.26
 -10  15   0    1.17    0.44
  10  15   1    0.10    0.32
 -10  15  -1    0.56    0.33
 -10 -15   1    0.39    0.20
 -10  15   1    0.42    0.43
 -10 -15  -1   -0.02    0.19
 -10  15  -2    2.05    0.41
 -10 -15   2    1.40    0.28
 -10  15   2    2.34    0.66
 -10 -15  -2    1.58    0.29
 -10 -15   3    2.16    0.35
 -10  15  -3    2.40    0.45
 -10  15  -3    2.19    0.32
 -10  15   3    1.80    0.63
 -10 -15  -3    2.50    0.35
 -10  15  -4    6.73    0.56
 -10  15  -4    7.56    0.58
 -10  15  -4    6.90    0.73
 -10 -15   4    7.52    0.61
 -10 -15  -4    6.82    0.60
 -10  15   4    5.06    0.99
 -10  15  -5    0.17    0.25
 -10 -15   5    0.09    0.19
 -10  15  -5   -0.31    0.17
 -10 -15  -5   -0.33    0.18
 -10  15   5    0.07    0.43
 -10  15  -6    1.14    0.35
 -10  15  -6    0.70    0.28
 -10  15   6    0.46    0.45
 -10  15  -7    2.90    0.50
 -10  15  -7    3.18    0.44
 -10 -16   0    8.32    0.70
 -10  16   0   10.81    1.12
  10  16   1    1.73    0.52
 -10 -16   1    3.80    0.41
 -10  16  -1    2.50    0.54
 -10 -16  -1    2.71    0.38
 -10  16   1    1.91    0.59
 -10  16  -2    0.76    0.34
  10  16   2    0.66    0.44
 -10 -16   2    0.70    0.24
 -10 -16  -2    0.40    0.23
 -10  16   2    0.61    0.47
 -10 -16   3    1.05    0.28
 -10  16  -3    1.73    0.39
 -10  16  -3    0.91    0.26
 -10 -16  -3    1.14    0.26
 -10  16   3    0.53    0.47
 -10 -16   4    0.20    0.21
 -10  16  -4   -0.16    0.19
 -10  16  -4    0.28    0.26
 -10  16   4   -0.41    0.35
 -10 -16  -4   -0.02    0.19
 -10 -16   5    0.85    0.27
 -10  16  -5    0.29    0.27
 -10  16  -5    0.05    0.20
 -10  16   5    0.14    0.49
 -10 -16  -5    0.62    0.26
 -10  16  -6    2.39    0.38
 -10  16  -6    2.02    0.44
 -10  16   6    1.72    0.68
 -10 -17   0    1.49    0.31
 -10  17   0    1.71    0.57
 -10  17  -1    3.11    0.58
 -10 -17   1    2.29    0.37
 -10 -17  -1    2.02    0.35
 -10  17   1    2.34    0.63
  10  17   2    3.21    0.67
 -10  17  -2    3.43    0.59
 -10 -17   2    2.53    0.39
 -10 -17  -2    3.30    0.43
 -10  17   2    3.44    0.78
 -10  17  -3    2.28    0.35
 -10  17  -3    1.96    0.45
 -10 -17   3    2.04    0.36
 -10  17   3    2.15    0.68
 -10 -17  -3    1.10    0.29
 -10  17  -4    8.58    0.88
 -10  17  -4    9.55    0.72
 -10 -17   4    8.00    0.71
 -10 -17  -4    7.79    0.67
 -10  17   4    5.95    1.13
 -10  17  -5    1.53    0.39
 -10 -17   5    1.44    0.31
 -10  17   5    1.60    0.66
 -10  18   0    7.99    1.01
 -10 -18   0    7.07    0.69
 -10  18  -1    0.32    0.36
 -10 -18   1    0.20    0.26
 -10  18   1    1.03    0.54
 -10 -18  -1    0.42    0.26
 -10 -18   2    3.75    0.47
  10  18   2    2.25    0.78
 -10  18  -2    4.14    0.66
 -10  18   2    4.29    0.91
 -10 -18  -2    3.85    0.47
 -10  18  -3    0.46    0.29
 -10  18  -3    0.38    0.32
 -10 -18   3    0.39    0.27
  10  18   3    0.11    0.46
 -10 -18  -3   -0.03    0.25
 -10  18   3   -0.13    0.47
 -10  18  -4    9.37    0.95
 -10 -18   4    8.99    0.76
 -10 -18  -4    8.15    0.70
 -10  18   4    6.97    1.21
 -10 -19   0    1.19    0.31
 -10  19   0    1.09    0.52
 -10 -19   1    0.96    0.30
 -10  19  -1    0.82    0.43
 -10 -19  -1    0.34    0.29
 -10  19   1    0.39    0.51
 -10  19  -2   -0.15    0.34
 -10 -19   2   -0.05    0.23
 -10  19   2   -0.09    0.47
 -10 -19  -2   -0.21    0.27
  10  19   3    1.44    0.61
 -10 -19   3    2.10    0.40
 -10  19  -3    2.43    0.53
 -10  19  -3    2.50    0.43
 -10 -19  -3    2.08    0.39
 -10  19   3    3.16    0.82
 -10 -20   0   33.30    2.35
 -10  20   0   45.28    2.82
 -10 -20   1    0.24    0.30
 -10  20  -1    0.77    0.47
 -10 -20  -1    0.53    0.28
 -10  20   1    0.70    0.55
 -11   0  -1   40.68    2.47
 -11   0  -1   44.35    2.47
 -11   0   1   41.30    2.47
 -11   0   1   41.13    2.44
 -11   0  -1   43.05    2.47
 -11   0  -2    0.05    0.10
 -11   0  -2    0.09    0.08
 -11   0   2    0.07    0.08
 -11   0  -2   -0.04    0.07
 -11   0   2   -0.04    0.06
 -11   0   3    0.30    0.09
 -11   0  -3    0.14    0.09
 -11   0  -3    0.31    0.10
 -11   0  -3    0.46    0.13
 -11   0  -4    0.14    0.11
 -11   0  -4    0.01    0.08
 -11   0  -4   -0.03    0.12
 -11   0   4   -0.05    0.07
 -11   0   5    2.22    0.20
 -11   0  -5    2.22    0.22
 -11   0  -5    2.18    0.30
 -11   0  -5    2.20    0.26
 -11   0  -6   -0.16    0.17
 -11   0  -6    0.35    0.15
 -11   0  -7    1.77    0.32
 -11   0  -7    2.37    0.31
 -11   0  -8    0.04    0.18
 -11   0  -8   -0.05    0.20
 -11   0  -9    2.23    0.41
 -11   0  -9    2.92    0.38
 -11   0 -10   -0.13    0.28
 -11   0 -10    0.01    0.22
 -11   1   0   -0.12    0.06
 -11   1   0    0.04    0.07
 -11  -1   0   -0.06    0.07
 -11   1   0   -0.03    0.06
 -11  -1   0    0.04    0.05
 -11  -1   1   32.97    1.80
 -11   1  -1   31.27    1.84
 -11   1  -1   30.55    1.84
 -11   1  -1   30.26    1.83
 -11  -1   1   31.24    1.84
 -11   1   1   30.29    1.83
 -11  -1  -1   30.00    1.84
 -11  -1  -1   30.85    1.84
 -11  -1  -1   32.12    1.83
 -11   1   1   29.29    1.82
 -11   1  -2   64.36    3.72
 -11  -1   2   58.83    3.66
 -11   1  -2   63.22    3.70
 -11  -1   2   61.85    3.69
 -11   1  -2   64.46    3.70
 -11  -1  -2   66.73    3.72
 -11   1   2   62.51    3.69
 -11  -1  -2   64.95    3.71
 -11  -1  -2   64.66    3.71
 -11  -1   3   25.68    1.55
 -11   1  -3   26.10    1.57
 -11   1  -3   25.93    1.56
 -11   1  -3   25.92    1.60
 -11  -1  -3   24.93    1.59
 -11   1   3   26.45    1.55
 -11  -1  -3   27.23    1.57
 -11  -1  -3   26.33    1.56
 -11   1  -4    6.35    0.50
 -11   1  -4    5.87    0.43
 -11  -1   4    6.06    0.41
 -11   1  -4    6.21    0.45
 -11  -1  -4    6.60    0.50
 -11  -1  -4    6.57    0.43
 -11  -1  -4    5.19    0.44
 -11   1   4    6.45    0.41
 -11   1  -5   25.63    1.59
 -11   1  -5   26.30    1.64
 -11   1  -5   26.05    1.55
 -11  -1   5   26.26    1.53
 -11  -1  -5   25.48    1.55
 -11   1   5   25.89    1.53
 -11  -1  -5   24.81    1.58
 -11  -1  -5   26.92    1.64
 -11   1  -6    0.25    0.16
 -11   1  -6    0.14    0.17
  11   1  -6   -0.07    0.12
 -11  -1  -6    0.24    0.17
 -11  -1  -6    0.17    0.14
 -11   1  -7    0.18    0.20
 -11   1  -7    0.36    0.19
 -11  -1  -7    0.33    0.19
 -11  -1  -7    0.35    0.21
 -11   1  -8   13.33    0.89
 -11   1  -8   12.85    0.98
 -11  -1  -8   12.51    0.88
 -11  -1  -8   11.61    0.94
 -11   1  -9    0.01    0.23
 -11   1  -9   -0.11    0.22
  11   1  -9   -0.20    0.17
 -11  -1  -9   -0.14    0.22
 -11  -1  -9    0.32    0.28
 -11   1 -10    4.97    0.63
 -11   1 -10    4.76    0.54
 -11  -1 -10    4.20    0.60
 -11  -1 -10    6.14    0.58
 -11   2   0    0.00    0.07
 -11   2   0   -0.01    0.06
 -11  -2   0    0.05    0.05
 -11   2   0    0.00    0.06
 -11  -2   0    0.09    0.08
 -11  -2   1  108.55    6.30
 -11   2  -1  110.32    6.30
 -11  -2   1  109.96    6.25
 -11   2  -1  111.19    6.31
 -11   2  -1  106.91    6.31
 -11   2   1  110.06    6.30
 -11   2   1  101.49    6.31
 -11  -2  -1  109.28    6.29
 -11  -2  -1  112.78    6.31
 -11  -2   2   63.57    3.70
 -11   2  -2   64.79    3.71
 -11   2  -2   61.81    3.71
 -11   2  -2   62.49    3.73
 -11  -2  -2   63.79    3.71
 -11  -2  -2   63.87    3.71
 -11  -2  -2   65.03    3.72
 -11   2   2   63.40    3.70
 -11  -2   3    1.00    0.13
 -11   2  -3    1.21    0.16
 -11   2  -3    1.29    0.19
 -11   2  -3    1.17    0.16
 -11  -2  -3    1.00    0.15
 -11  -2  -3    1.52    0.20
 -11   2   3    1.07    0.14
 -11  -2  -3    1.34    0.17
 -11  -2   4    0.37    0.09
 -11   2  -4    0.37    0.16
 -11   2  -4    0.25    0.12
 -11   2  -4    0.37    0.10
 -11  -2  -4    0.12    0.13
 -11  -2  -4    0.44    0.13
 -11   2   4    0.19    0.08
 -11  -2  -4    0.25    0.10
 -11   2  -5    0.49    0.15
 -11  -2   5    0.21    0.09
 -11   2  -5    0.38    0.17
 -11   2  -5    0.18    0.09
 -11  -2  -5    0.20    0.10
  11   2  -5    0.20    0.10
 -11  -2  -5    0.30    0.16
 -11  -2  -5    0.00    0.12
 -11   2  -6    2.80    0.31
 -11   2  -6    2.24    0.33
 -11  -2  -6    2.68    0.30
 -11  -2  -6    2.15    0.33
 -11   2  -7    1.59    0.31
 -11   2  -7    1.10    0.24
 -11  -2  -7    1.89    0.32
 -11  -2  -7    1.58    0.26
 -11   2  -8   13.41    1.00
 -11   2  -8   14.14    0.94
 -11  -2  -8   12.33    0.92
 -11  -2  -8   12.84    0.99
 -11   2  -9    2.12    0.39
 -11   2  -9    1.44    0.30
  11   2  -9    1.90    0.30
 -11  -2  -9    1.86    0.40
 -11  -2  -9    2.24    0.34
 -11   2 -10    0.82    0.30
 -11   2 -10    0.28    0.29
  11   2 -10    0.39    0.23
 -11  -2 -10    0.82    0.32
 -11  -2 -10    0.81    0.26
 -11   3   0   -0.04    0.07
 -11   3   0   -0.02    0.07
 -11   3   0    0.05    0.07
 -11  -3   0   -0.02    0.05
 -11  -3   0   -0.06    0.07
 -11   3  -1   70.68    4.02
 -11   3  -1   66.07    3.99
 -11  -3   1   71.26    4.01
 -11   3  -1   69.61    4.01
 -11  -3  -1   69.25    4.01
 -11   3   1   63.45    4.04
 -11  -3  -1   72.62    4.00
 -11   3   1   67.28    4.00
 -11   3  -2   15.43    0.97
 -11  -3   2   14.63    0.93
 -11   3  -2   13.98    0.93
 -11   3  -2   15.22    0.94
 -11  -3  -2   14.87    0.94
 -11  -3  -2   17.16    0.96
 -11  -3  -2   15.33    0.95
 -11   3   2   14.79    0.93
 -11   3  -3    9.64    0.63
 -11  -3   3    9.90    0.63
 -11   3  -3    9.97    0.68
 -11   3  -3   10.54    0.66
 -11  -3  -3    9.96    0.65
 -11  -3  -3    9.29    0.64
 -11  -3  -3    9.40    0.66
 -11   3   3   10.09    0.63
 -11  -3   4    9.84    0.64
 -11   3  -4    9.33    0.71
 -11   3  -4   11.81    0.66
 -11   3  -4    9.87    0.68
 -11  -3  -4   10.31    0.67
  11   3  -4    9.94    0.62
 -11  -3  -4   10.10    0.66
 -11  -3  -4    9.69    0.70
 -11   3  -5   16.35    1.15
 -11   3  -5   18.95    1.12
 -11   3  -5   17.50    1.21
 -11  -3   5   19.37    1.11
 -11  -3  -5   16.71    1.19
 -11  -3  -5   20.12    1.16
 -11  -3  -5   18.73    1.12
 -11   3  -6    1.67    0.29
 -11   3  -6    1.17    0.22
 -11  -3  -6    1.33    0.26
 -11  -3  -6    1.42    0.22
 -11   3  -7    5.25    0.54
 -11   3  -7    4.04    0.44
 -11  -3  -7    5.30    0.55
 -11  -3  -7    5.11    0.46
 -11   3  -8    0.58    0.21
 -11   3  -8    0.23    0.22
 -11  -3  -8    0.11    0.23
  11   3  -8    0.51    0.18
 -11  -3  -8    0.37    0.21
 -11   3  -9   -0.13    0.20
 -11   3  -9    0.39    0.27
 -11  -3  -9    0.38    0.27
  11   3  -9    0.40    0.19
 -11  -3  -9    0.10    0.19
 -11   3 -10   -0.13    0.24
 -11   3 -10    0.11    0.25
 -11  -3 -10   -0.01    0.20
  11   3 -10   -0.32    0.20
 -11  -3 -10   -0.07    0.28
 -11   4   0    0.00    0.08
 -11   4   0    0.04    0.08
 -11  -4   0    0.02    0.08
 -11   4   0    0.12    0.07
 -11   4  -1   26.10    1.51
 -11   4  -1   24.58    1.53
 -11  -4   1   25.12    1.51
 -11   4  -1   24.52    1.49
 -11  -4  -1   24.53    1.49
 -11   4   1   25.25    1.48
 -11   4   1   24.92    1.58
 -11  -4  -1   25.11    1.52
 -11   4   1   25.74    1.51
 -11   4  -2   36.81    2.13
 -11  -4   2   35.59    2.13
 -11   4  -2   35.33    2.16
 -11   4  -2   35.37    2.12
 -11   4   2   35.34    2.12
 -11  -4  -2   34.92    2.13
 -11  -4  -2   37.30    2.14
 -11  -4  -2   37.02    2.14
 -11   4  -3    4.75    0.37
 -11  -4   3    4.68    0.36
 -11   4  -3    5.29    0.37
 -11   4  -3    4.88    0.41
  11   4  -3    5.14    0.30
 -11  -4  -3    4.42    0.36
 -11  -4  -3    4.69    0.39
 -11  -4  -3    4.98    0.37
 -11   4  -4   44.53    2.49
 -11   4  -4   43.28    2.56
 -11  -4   4   43.41    2.48
 -11   4  -4   40.37    2.51
 -11  -4  -4   42.95    2.50
 -11  -4  -4   42.83    2.55
 -11  -4  -4   42.07    2.51
  11   4  -4   39.16    2.46
 -11   4  -5   14.71    0.89
 -11   4  -5   14.15    0.93
 -11   4  -5   13.85    0.98
 -11  -4   5   14.58    0.88
 -11  -4  -5   14.21    0.90
 -11  -4  -5   13.63    0.97
 -11  -4  -5   14.44    0.93
 -11   4  -6   13.89    0.93
 -11   4  -6   12.26    0.85
 -11  -4  -6   12.22    0.84
 -11  -4  -6   12.14    0.91
 -11   4  -7    0.38    0.18
 -11   4  -7   -0.02    0.19
 -11  -4  -7    0.42    0.22
 -11  -4  -7    0.15    0.17
 -11   4  -8   15.33    1.11
 -11   4  -8   16.20    1.05
 -11  -4  -8   14.50    1.02
 -11  -4  -8   14.19    1.09
 -11   4  -9   -0.24    0.22
 -11   4  -9    0.11    0.23
 -11  -4  -9   -0.11    0.25
 -11  -4  -9   -0.02    0.20
  11   4  -9   -0.19    0.19
 -11   4 -10    6.20    0.61
 -11   4 -10    4.97    0.65
 -11  -4 -10    5.09    0.65
  11   4 -10    4.98    0.51
 -11  -4 -10    5.01    0.53
 -11   5   0   -0.12    0.10
 -11   5   0    0.05    0.07
 -11   5   0   -0.04    0.09
 -11  -5   0   -0.11    0.09
 -11  -5   1  104.91    5.69
 -11   5  -1   96.71    5.72
 -11   5  -1   98.54    5.69
 -11   5  -1  100.45    5.67
 -11   5   1   97.01    5.65
 -11   5   1   98.33    5.69
 -11   5   1   88.19    5.77
 -11  -5  -1   94.04    5.67
 -11  -5  -1  102.93    5.70
 -11   5  -2   11.44    0.74
 -11   5  -2   11.15    0.73
 -11   5  -2   12.77    0.78
 -11  -5   2   11.45    0.74
 -11  -5  -2   11.03    0.74
 -11  -5  -2   12.19    0.74
 -11   5   2   11.34    0.69
 -11  -5  -2   11.68    0.75
 -11   5   2    9.45    0.86
 -11  -5   3  108.39    6.14
 -11   5  -3  107.82    6.19
 -11   5  -3  103.51    6.14
 -11   5  -3  108.88    6.14
 -11  -5  -3  108.11    6.15
 -11  -5  -3  108.90    6.15
  11   5  -3   98.83    6.08
 -11   5   3  105.41    6.38
 -11  -5  -3  104.11    6.16
 -11   5  -4    0.40    0.15
 -11   5  -4    0.56    0.12
 -11  -5   4    0.42    0.12
 -11   5  -4    0.33    0.16
 -11  -5  -4    0.40    0.13
 -11  -5  -4    0.50    0.13
 -11  -5  -4    0.61    0.17
 -11  -5   5   68.91    4.03
 -11   5  -5   70.44    4.07
 -11   5  -5   71.44    4.03
 -11   5  -5   67.32    4.12
 -11  -5  -5   69.31    4.04
 -11  -5  -5   67.63    4.11
 -11  -5  -5   68.52    4.06
 -11   5  -6   -0.15    0.15
 -11   5  -6    0.13    0.16
 -11  -5  -6   -0.09    0.18
 -11  -5  -6    0.00    0.14
 -11   5  -7   25.11    1.65
 -11   5  -7   25.67    1.72
 -11  -5  -7   26.49    1.64
 -11  -5  -7   27.97    1.73
 -11   5  -8    1.22    0.32
 -11   5  -8    1.21    0.27
 -11  -5  -8    1.38    0.25
 -11  -5  -8    1.37    0.34
 -11   5  -9    0.71    0.26
 -11   5  -9    0.93    0.31
  11   5  -9    0.61    0.22
 -11  -5  -9    0.76    0.26
 -11  -5  -9    0.65    0.30
 -11   5 -10    2.26    0.39
 -11   5 -10    2.26    0.46
 -11  -5 -10    2.77    0.38
 -11  -5 -10    2.98    0.50
  11   5 -10    2.53    0.36
 -11   6   0   -0.01    0.11
 -11  -6   0   -0.08    0.09
 -11   6   0   -0.04    0.07
 -11   6   0    0.00    0.09
 -11   6  -1   25.76    1.60
 -11   6  -1   27.73    1.67
 -11   6  -1   27.02    1.63
 -11  -6   1   26.66    1.63
 -11  -6  -1   28.28    1.64
 -11   6   1   27.77    1.58
 -11   6   1   25.00    1.74
 -11   6  -2   20.65    1.22
 -11   6  -2   19.46    1.25
 -11  -6   2   20.71    1.22
 -11   6  -2   20.07    1.20
 -11   6   2   15.51    1.37
 -11   6   2   19.19    1.16
 -11  -6  -2   20.32    1.22
  11   6  -2   20.08    1.15
 -11  -6  -2   19.47    1.21
 -11  -6   3    5.87    0.46
 -11   6  -3    6.55    0.47
 -11   6  -3    6.88    0.52
 -11   6  -3    6.38    0.45
 -11  -6  -3    7.19    0.47
 -11  -6  -3    6.30    0.46
 -11  -6  -3    6.45    0.49
 -11   6   3    6.61    0.77
 -11  -6   4   93.38    5.48
 -11   6  -4   94.69    5.48
 -11   6  -4   93.32    5.55
 -11   6  -4   93.99    5.50
 -11  -6  -4   97.22    5.50
 -11  -6  -4   93.28    5.53
 -11  -6  -4   94.55    5.49
 -11  -6   5    1.28    0.17
 -11   6  -5    0.93    0.23
 -11   6  -5    1.21    0.21
 -11   6  -5    1.22    0.17
 -11  -6  -5    1.56    0.20
 -11  -6  -5    0.78    0.17
 -11  -6  -5    1.45    0.26
 -11   6  -6   12.66    0.87
 -11   6  -6   12.03    0.91
 -11  -6  -6   12.37    0.91
 -11  -6  -6   13.25    0.85
 -11   6  -7    0.45    0.21
 -11   6  -7    0.44    0.22
 -11  -6  -7    0.25    0.22
 -11  -6  -7    0.39    0.19
 -11   6  -8   20.27    1.52
 -11   6  -8   22.00    1.47
 -11  -6  -8   24.28    1.54
 -11  -6  -8   23.32    1.44
 -11   6  -9   -0.05    0.20
 -11   6  -9    0.19    0.24
 -11  -6  -9    0.07    0.21
 -11  -6  -9    0.03    0.27
 -11   6 -10   20.01    1.46
 -11   6 -10   19.60    1.37
 -11  -6 -10   20.33    1.46
 -11   7   0   -0.09    0.10
 -11   7   0   -0.04    0.07
 -11   7   0   -0.08    0.08
 -11  -7   0    0.01    0.10
 -11   7  -1   26.25    1.59
 -11  -7   1   28.25    1.63
 -11   7  -1   25.57    1.62
 -11   7  -1   26.94    1.68
 -11  -7  -1   27.54    1.63
 -11   7   1   26.91    1.57
 -11   7   1   25.47    1.77
 -11   7  -2    0.31    0.14
 -11   7  -2    0.51    0.12
 -11   7  -2    0.38    0.13
 -11  -7   2    0.34    0.12
  11   7  -2    0.30    0.07
 -11  -7  -2    0.39    0.13
 -11   7   2    0.74    0.28
 -11   7   2    0.37    0.07
 -11   7  -3   28.24    1.79
 -11  -7   3   29.21    1.74
 -11   7  -3   28.82    1.73
 -11   7  -3   26.58    1.73
 -11  -7  -3   29.19    1.76
 -11  -7  -3   30.29    1.74
 -11   7   3   27.02    2.02
 -11  -7  -3   29.88    1.75
 -11   7  -4    0.64    0.14
 -11   7  -4    0.68    0.20
 -11  -7   4    0.74    0.15
 -11   7  -4    0.57    0.16
 -11  -7  -4    0.61    0.19
 -11  -7  -4    0.50    0.14
 -11  -7  -4    0.52    0.14
 -11  -7   5   12.55    0.78
 -11   7  -5   11.72    0.82
 -11   7  -5   12.35    0.78
 -11   7  -5   11.74    0.87
 -11  -7  -5   12.07    0.79
 -11  -7  -5   11.39    0.84
 -11  -7  -5   12.16    0.80
 -11   7  -6    0.07    0.17
 -11   7  -6    0.00    0.16
 -11  -7  -6    0.15    0.19
 -11  -7  -6   -0.09    0.12
 -11   7  -7    8.13    0.73
 -11   7  -7    9.57    0.70
 -11  -7  -7    9.19    0.66
 -11  -7  -7    8.95    0.75
 -11   7  -8   -0.01    0.22
 -11   7  -8   -0.22    0.18
 -11  -7  -8    0.27    0.20
 -11  -7  -8    0.13    0.24
 -11   7  -9    0.09    0.26
 -11   7  -9   -0.03    0.24
 -11  -7  -9    0.22    0.28
 -11   7 -10    1.10    0.38
 -11   8   0   -0.04    0.13
 -11   8   0    0.03    0.07
 -11  -8   0   -0.03    0.11
 -11   8  -1    8.49    0.63
 -11   8  -1    8.75    0.57
 -11  -8   1    7.93    0.56
 -11   8  -1    8.18    0.53
 -11  -8  -1    8.27    0.57
 -11   8   1    8.10    0.50
  11   8  -1    6.06    0.56
 -11   8   1    8.35    0.73
 -11   8  -2    9.98    0.66
 -11  -8   2   10.21    0.67
 -11   8  -2   10.22    0.65
 -11   8  -2   10.64    0.73
 -11  -8  -2    9.89    0.68
 -11   8   2    7.87    0.93
  11   8  -2    9.20    0.62
 -11   8  -3    0.08    0.11
 -11   8  -3   -0.02    0.12
 -11  -8   3    0.00    0.12
 -11   8  -3   -0.06    0.13
 -11   8   3    0.04    0.26
 -11  -8  -3    0.04    0.11
 -11  -8  -3   -0.07    0.09
 -11   8  -4    4.57    0.46
 -11  -8   4    3.84    0.35
 -11   8  -4    3.64    0.37
 -11   8  -4    4.94    0.35
 -11  -8  -4    3.94    0.34
 -11  -8  -4    4.67    0.42
 -11  -8  -4    4.09    0.37
 -11   8  -5    1.49    0.29
 -11   8  -5    2.10    0.22
 -11   8  -5    1.53    0.25
 -11  -8   5    1.73    0.22
 -11  -8  -5    1.58    0.23
 -11  -8  -5    1.39    0.28
 -11  -8  -5    1.66    0.23
 -11   8  -6    9.43    0.71
 -11   8  -6    8.63    0.74
 -11  -8  -6   10.03    0.74
 -11  -8  -6    9.26    0.66
 -11   8  -7    0.51    0.24
 -11   8  -7    0.22    0.19
 -11  -8  -7    0.28    0.23
 -11  -8  -7    0.34    0.19
 -11   8  -8    7.27    0.66
 -11   8  -8    6.13    0.60
 -11  -8  -8    5.80    0.64
 -11   8  -9    0.01    0.25
 -11   8  -9    0.29    0.25
 -11  -8  -9   -0.18    0.24
 -11   9   0    0.06    0.15
 -11   9   0   -0.04    0.08
 -11  -9   0   -0.16    0.10
 -11   9  -1    4.87    0.47
 -11  -9   1    3.05    0.32
 -11   9  -1    3.23    0.27
 -11   9  -1    2.95    0.32
 -11   9   1    4.02    0.57
 -11  -9  -1    2.93    0.32
 -11   9   1    3.30    0.24
  11   9  -1    2.76    0.35
 -11   9  -2    3.54    0.29
 -11  -9   2    2.84    0.29
 -11   9  -2    3.03    0.30
 -11   9  -2    2.52    0.34
 -11   9   2    2.48    0.53
 -11  -9  -2    2.53    0.29
 -11   9  -3    6.29    0.54
 -11   9  -3    6.96    0.48
 -11   9  -3    5.95    0.47
 -11  -9   3    6.84    0.50
 -11   9   3    5.76    0.83
 -11  -9  -3    6.09    0.47
 -11  -9  -3    6.70    0.49
 -11   9  -4   11.60    0.73
 -11   9  -4   11.52    0.79
 -11   9  -4   10.36    0.69
 -11  -9   4   10.16    0.70
 -11  -9  -4    9.53    0.69
 -11  -9  -4    9.65    0.71
 -11   9   4    9.42    1.10
 -11  -9   5    1.67    0.24
 -11   9  -5    2.19    0.24
 -11   9  -5    1.99    0.33
 -11   9  -5    2.03    0.29
 -11  -9  -5    1.53    0.23
 -11  -9  -5    2.15    0.26
 -11  -9  -5    1.93    0.30
 -11   9  -6    7.16    0.65
 -11   9  -6    7.03    0.59
 -11  -9  -6    7.71    0.57
 -11  -9  -6    7.86    0.64
 -11   9  -7    0.61    0.26
 -11   9  -7    0.87    0.28
 -11  -9  -7    0.89    0.28
 -11  -9  -7    0.60    0.20
 -11   9  -8    1.03    0.35
 -11   9  -8    0.88    0.27
 -11  -9  -8    1.13    0.34
 -11   9  -9    1.35    0.32
 -11   9  -9    0.83    0.32
 -11  -9  -9    1.01    0.36
 -11  10   0    0.00    0.09
  11  10   0   -0.17    0.15
 -11 -10   0   -0.08    0.13
 -11  10   0    0.17    0.21
 -11  10  -1   60.07    3.32
 -11  10  -1   53.09    3.14
 -11 -10   1   50.95    3.19
 -11  10  -1   55.11    3.19
 -11 -10  -1   56.89    3.20
 -11  10   1   55.60    3.45
  11  10  -1   46.25    3.23
 -11  10  -2    0.17    0.13
 -11 -10   2    0.21    0.13
 -11  10  -2    0.23    0.14
 -11  10  -2    0.09    0.15
 -11 -10  -2    0.23    0.15
 -11  10   2    0.07    0.24
 -11 -10   3    5.68    0.47
 -11  10  -3    5.80    0.46
 -11  10  -3    5.72    0.52
 -11  10  -3    5.82    0.45
 -11 -10  -3    6.15    0.48
 -11  10   3    4.78    0.80
 -11 -10  -3    5.74    0.45
 -11  10  -4    0.30    0.18
 -11 -10   4    0.07    0.15
 -11  10  -4    0.27    0.14
 -11  10  -4    0.38    0.19
 -11 -10  -4   -0.06    0.14
 -11  10   4    0.04    0.35
 -11 -10  -4    0.31    0.13
 -11  10  -5    6.61    0.57
 -11  10  -5    7.35    0.55
 -11 -10   5    7.86    0.56
 -11  10  -5    7.87    0.65
 -11 -10  -5    7.66    0.56
 -11 -10  -5    7.21    0.54
 -11  10  -6    1.46    0.29
 -11  10  -6    1.11    0.29
 -11 -10  -6    1.69    0.26
 -11  10  -7    8.21    0.74
 -11  10  -7    8.52    0.70
 -11  10  -8    0.71    0.31
 -11  10  -8    0.41    0.25
 -11 -10  -8    0.75    0.30
 -11  10  -9    1.47    0.37
 -11  10  -9    0.83    0.30
 -11 -10  -9    0.53    0.33
 -11  11   0    0.16    0.21
  11  11   0    0.06    0.18
 -11 -11   0   -0.23    0.14
 -11  11  -1    1.03    0.28
 -11 -11   1    0.80    0.20
 -11  11  -1    1.02    0.16
 -11  11   1    1.05    0.34
  11  11  -1    0.84    0.28
 -11 -11  -1    0.81    0.21
 -11  11  -2    2.43    0.30
 -11 -11   2    2.39    0.30
 -11  11  -2    2.54    0.27
 -11  11  -2    2.74    0.38
 -11 -11  -2    2.46    0.30
 -11  11   2    2.37    0.53
 -11  11  -3    0.45    0.17
 -11  11  -3    0.43    0.20
 -11  11  -3    0.50    0.15
 -11 -11   3    0.10    0.14
 -11  11   3    0.18    0.39
 -11 -11  -3    0.46    0.18
 -11 -11  -3    0.34    0.14
 -11  11  -4    3.61    0.35
 -11 -11   4    3.43    0.37
 -11  11  -4    3.54    0.36
 -11  11  -4    3.51    0.45
 -11 -11  -4    3.16    0.33
 -11  11   4    2.94    0.67
 -11 -11  -4    3.70    0.38
 -11  11  -5    0.45    0.25
 -11 -11   5    0.44    0.17
 -11  11  -5    0.12    0.17
 -11 -11  -5    0.44    0.17
 -11 -11  -5    0.27    0.15
 -11  11  -6    1.42    0.34
 -11  11  -6    1.34    0.27
 -11  11  -7    0.55    0.27
 -11  11  -7    0.77    0.29
 -11  11  -8    0.03    0.28
 -11  11  -8    0.08    0.23
  11  12   0   -0.01    0.24
 -11  12   0    0.15    0.26
 -11 -12   0   -0.15    0.16
 -11  12  -1    5.01    0.61
 -11 -12   1    4.29    0.43
 -11 -12  -1    3.80    0.41
 -11  12   1    5.46    0.77
 -11  12  -2   14.84    1.01
 -11  12  -2   11.85    0.85
 -11 -12   2   12.91    0.89
 -11  12  -2   13.59    0.88
 -11  12   2   13.38    1.24
 -11 -12  -2   12.50    0.89
 -11  12  -3    0.13    0.20
 -11  12  -3    0.08    0.14
 -11 -12   3    0.34    0.17
 -11  12  -3    0.54    0.17
 -11 -12  -3    0.35    0.18
 -11 -12  -3    0.36    0.15
 -11  12   3    0.07    0.33
 -11  12  -4    0.56    0.23
 -11  12  -4    0.36    0.16
 -11  12  -4    0.51    0.20
 -11 -12   4    0.44    0.19
 -11  12   4    0.79    0.47
 -11 -12  -4    0.68    0.17
 -11 -12  -4    0.61    0.21
 -11  12  -5    2.72    0.41
 -11  12  -5    1.64    0.29
 -11 -12   5    2.33    0.31
 -11 -12  -5    2.53    0.31
 -11  12   5    2.77    0.72
 -11  12  -6    3.40    0.42
 -11  12  -6    3.19    0.47
 -11  12  -7    1.00    0.30
 -11  12  -7    0.51    0.29
 -11  12  -8    2.09    0.43
 -11  12  -8    1.79    0.35
 -11  13   0    0.33    0.28
  11  13   0    0.05    0.24
 -11 -13   0    0.05    0.16
 -11 -13   1   90.62    5.72
  11  13   1   92.05    5.93
 -11  13  -1  107.74    5.92
 -11 -13  -1   90.18    5.72
 -11  13   1  113.12    6.12
 -11  13  -2    0.90    0.19
 -11 -13   2    1.35    0.25
 -11  13  -2    0.66    0.26
 -11  13  -2    1.10    0.22
 -11 -13  -2    1.01    0.24
 -11  13   2    1.17    0.48
 -11  13  -3    2.27    0.29
 -11  13  -3    1.53    0.25
 -11  13  -3    1.97    0.36
 -11 -13   3    2.55    0.31
 -11  13   3    1.66    0.55
 -11 -13  -3    2.32    0.28
 -11 -13  -3    2.32    0.33
 -11  13  -4    5.54    0.49
 -11  13  -4    5.14    0.46
 -11  13  -4    5.48    0.59
 -11 -13   4    5.12    0.49
 -11  13   4    3.33    0.79
 -11 -13  -4    5.05    0.49
 -11  13  -5   27.30    1.73
 -11 -13   5   27.68    1.73
 -11  13  -5   26.46    1.82
 -11  13   5   26.77    2.20
 -11 -13  -5   28.17    1.72
 -11  13  -6    0.71    0.25
 -11  13  -6    0.60    0.29
 -11  13  -7   15.03    1.08
 -11  13  -7   14.97    1.16
 -11  13  -8    0.10    0.26
 -11  13  -8    0.23    0.27
 -11  14   0    0.22    0.27
 -11 -14   0   -0.20    0.16
 -11 -14   1    2.95    0.38
 -11  14  -1    5.10    0.62
  11  14   1    2.92    0.55
 -11 -14  -1    2.86    0.38
 -11  14   1    4.83    0.75
 -11  14  -2    4.72    0.45
 -11  14  -2    4.57    0.58
 -11 -14   2    4.26    0.46
 -11  14   2    5.10    0.83
 -11 -14  -2    3.64    0.44
 -11  14  -3   15.87    1.09
 -11 -14   3   16.21    1.11
 -11  14  -3   15.96    1.06
 -11  14  -3   18.81    1.24
 -11 -14  -3   15.65    1.10
 -11  14   3   14.50    1.72
 -11  14  -4    7.15    0.55
 -11  14  -4    6.07    0.68
 -11 -14   4    5.68    0.56
 -11  14  -4    6.25    0.56
 -11 -14  -4    6.88    0.57
 -11  14   4    5.43    0.98
 -11  14  -5    8.10    0.77
 -11  14  -5    8.59    0.70
 -11 -14   5    9.73    0.70
 -11 -14  -5    9.07    0.69
 -11  14   5    7.15    1.17
 -11  14  -6   28.76    1.79
 -11  14  -6   24.42    1.65
 -11  14   6   22.41    2.07
 -11  14  -7    2.88    0.43
 -11  14  -7    2.67    0.48
 -11 -15   0   -0.08    0.18
 -11  15   0    0.09    0.33
 -11 -15   1   13.55    1.04
  11  15   1   12.59    1.48
 -11  15  -1   20.03    1.32
 -11 -15  -1   14.53    1.06
 -11  15   1   17.29    1.44
 -11 -15   2    0.86    0.26
 -11  15  -2    0.74    0.25
 -11  15  -2    0.96    0.32
 -11 -15  -2    0.48    0.24
 -11  15   2    0.48    0.45
 -11  15  -3    1.25    0.36
 -11 -15   3    1.99    0.31
 -11  15  -3    1.48    0.28
 -11  15   3    1.82    0.62
 -11 -15  -3    1.39    0.31
 -11  15  -4    0.58    0.24
 -11 -15   4    0.72    0.27
 -11  15  -4    0.91    0.30
 -11  15  -4    0.66    0.23
 -11 -15  -4    0.90    0.25
 -11  15   4    0.67    0.56
 -11  15  -5   11.51    0.93
 -11  15  -5   10.55    0.82
 -11 -15   5   11.14    0.82
 -11 -15  -5   10.82    0.81
 -11  15   5   10.37    1.40
 -11  15  -6    0.45    0.28
 -11  15  -6    0.63    0.28
 -11  15   6    0.43    0.54
 -11  15  -7    1.30    0.35
 -11  15  -7    1.64    0.41
 -11  15   7    2.18    0.68
 -11  16   0    0.02    0.31
 -11 -16   0   -0.37    0.17
 -11 -16   1    6.29    0.60
 -11  16  -1    5.27    0.74
 -11  16   1    7.05    0.97
 -11 -16  -1    5.93    0.58
 -11 -16   2   33.99    2.31
 -11  16  -2   40.10    2.33
  11  16   2   30.95    2.56
 -11  16  -2   43.73    2.54
 -11 -16  -2   35.87    2.31
 -11  16   2   40.60    2.83
 -11  16  -3    3.91    0.45
 -11 -16   3    3.30    0.45
 -11  16  -3    4.38    0.59
 -11 -16  -3    3.92    0.45
 -11  16   3    3.78    0.83
 -11 -16   4    4.03    0.47
 -11  16  -4    3.83    0.56
 -11  16  -4    4.13    0.47
 -11  16   4    4.84    0.98
 -11 -16  -4    4.02    0.46
 -11  16  -5   -0.19    0.24
 -11  16  -5   -0.14    0.20
 -11 -16   5   -0.09    0.20
 -11  16   5    0.07    0.44
 -11 -16  -5    0.05    0.23
 -11  16  -6    7.39    0.63
 -11  16  -6    5.92    0.73
 -11  16   6    5.01    1.02
 -11  17   0   -0.04    0.37
 -11 -17   0   -0.33    0.22
 -11 -17   1    3.67    0.45
 -11  17  -1    4.38    0.70
 -11  17   1    3.32    0.71
 -11 -17  -1    3.68    0.46
 -11  17  -2    0.09    0.22
 -11  17  -2    0.83    0.36
 -11 -17   2    0.28    0.24
 -11 -17  -2    0.77    0.26
 -11  17   2    1.14    0.58
 -11  17  -3   26.24    1.65
 -11 -17   3   25.52    1.64
 -11  17  -3   25.12    1.78
 -11 -17  -3   22.69    1.62
 -11  17   3   26.76    2.21
 -11  17  -4    0.69    0.28
 -11 -17   4    0.74    0.26
 -11  17  -4    0.47    0.34
 -11 -17  -4    0.45    0.28
 -11  17   4    0.93    0.66
 -11  17  -5    6.96    0.77
 -11 -17   5    6.42    0.62
 -11  17   5    3.18    0.94
 -11  18   0   -0.08    0.38
 -11 -18   0   -0.37    0.23
 -11 -18   1    3.25    0.46
 -11  18  -1    4.91    0.78
 -11 -18  -1    4.33    0.51
 -11  18   1    3.58    0.77
 -11 -18   2    2.51    0.41
 -11  18  -2    3.26    0.45
 -11  18  -2    3.63    0.61
 -11  18   2    3.04    0.79
 -11 -18  -2    2.36    0.38
 -11  18  -3    3.24    0.44
  11  18   3    3.01    0.81
 -11  18  -3    3.57    0.58
 -11 -18   3    3.01    0.45
 -11 -18  -3    3.34    0.44
 -11  18   3    2.45    0.77
 -11 -18   4    2.42    0.39
 -11  18  -4    2.91    0.52
 -11 -18  -4    2.68    0.41
 -11  18   4    2.15    0.79
 -11  19   0    0.24    0.44
 -11 -19   0   -0.14    0.23
 -11 -19   1   10.20    0.89
 -11  19  -1   14.98    1.26
 -11 -19  -1   10.82    0.89
 -11  19   1   12.32    1.42
 -11  19  -2   -0.18    0.24
 -11  19  -2    0.05    0.33
 -11 -19   2   -0.73    0.19
 -11 -19  -2   -0.31    0.26
 -11  19   2    0.24    0.51
 -11  19  -3    0.49    0.42
 -11  19  -3    1.45    0.36
 -11 -19   3    1.25    0.37
 -11  19   3    0.76    0.60
 -11 -19  -3    1.35    0.34
 -12   0   0  673.45   38.42
 -12   0   0  666.60   38.44
 -12   0  -1   -0.07    0.08
 -12   0   1   -0.31    0.06
 -12   0   1   -0.03    0.06
 -12   0  -1   -0.22    0.07
 -12   0  -1   -0.07    0.08
 -12   0  -2  171.40    9.54
 -12   0   2  149.93    9.52
 -12   0   2  165.78    9.54
 -12   0  -2  166.46    9.55
 -12   0  -2  173.99    9.56
 -12   0  -3    0.00    0.09
 -12   0  -3    0.01    0.08
 -12   0   3    0.11    0.08
 -12   0  -3   -0.13    0.09
 -12   0  -4   55.97    3.27
 -12   0  -4   53.80    3.32
 -12   0  -4   57.22    3.29
 -12   0   4   56.25    3.25
 -12   0  -5   -0.24    0.13
 -12   0  -5    0.14    0.13
 -12   0   5   -0.02    0.08
 -12   0  -5    0.01    0.09
 -12   0  -6   18.95    1.25
 -12   0  -6   20.29    1.31
 -12   0  -7   -0.23    0.16
 -12   0  -7   -0.08    0.20
 -12   0  -8    0.28    0.19
 -12   0  -8    0.17    0.22
 -12   0  -9    0.10    0.23
 -12   0  -9   -0.23    0.22
 -12   0 -10    0.00    0.23
 -12   0 -10   -0.11    0.25
 -12   1   0   20.99    1.32
 -12   1   0   22.83    1.31
 -12  -1   0   21.20    1.32
 -12  -1   0   22.54    1.30
 -12   1   0   21.30    1.31
 -12  -1   1   35.69    2.17
 -12   1  -1   36.84    2.18
 -12  -1   1   37.90    2.13
 -12   1  -1   38.26    2.18
 -12   1  -1   35.52    2.17
 -12   1   1   36.29    2.16
 -12  -1  -1   36.63    2.18
 -12  -1  -1   36.95    2.18
 -12  -1  -1   38.22    2.17
 -12   1   1   35.19    2.17
 -12   1  -2   29.26    1.69
 -12   1  -2   28.16    1.67
 -12  -1   2   28.95    1.67
 -12  -1   2   28.88    1.62
 -12   1  -2   27.99    1.67
 -12   1   2   22.87    1.67
 -12   1   2   27.77    1.66
 -12  -1  -2   27.86    1.68
 -12  -1  -2   28.76    1.67
 -12  -1  -2   28.25    1.67
 -12   1  -3    0.53    0.12
 -12   1  -3    0.23    0.11
 -12  -1   3    0.78    0.12
 -12   1  -3    0.40    0.14
 -12   1   3    0.43    0.10
 -12  -1  -3    0.43    0.11
 -12  -1  -3    0.66    0.15
 -12   1   3    0.78    0.19
 -12  -1  -3    0.34    0.12
 -12   1  -4    0.37    0.13
 -12   1  -4    0.17    0.16
 -12  -1   4    0.01    0.08
 -12   1  -4    0.08    0.09
 -12  -1  -4   -0.06    0.10
 -12  -1  -4    0.10    0.13
 -12   1   4    0.15    0.08
 -12  -1  -4    0.20    0.10
 -12   1  -5   40.23    2.52
 -12   1  -5   41.92    2.48
 -12   1  -5   41.69    2.44
 -12  -1   5   41.58    2.42
 -12   1   5   42.75    2.43
 -12  -1  -5   39.39    2.51
 -12  -1  -5   40.99    2.44
 -12  -1  -5   41.86    2.48
 -12   1  -6    3.85    0.45
 -12   1  -6    4.69    0.43
 -12  -1  -6    4.60    0.42
 -12  -1  -6    4.41    0.47
 -12   1  -7   53.83    3.17
 -12   1  -7   52.50    3.23
 -12  -1  -7   52.13    3.23
 -12  -1  -7   52.77    3.17
 -12   1  -8   -0.05    0.20
 -12   1  -8   -0.21    0.16
 -12  -1  -8    0.25    0.19
 -12  -1  -8    0.15    0.22
 -12   1  -9   26.33    1.89
 -12   1  -9   29.58    1.83
 -12  -1  -9   28.34    1.90
 -12  -1  -9   30.08    1.83
 -12   1 -10    0.87    0.32
 -12   1 -10    0.95    0.30
 -12  -1 -10    1.06    0.35
 -12  -1 -10    1.31    0.30
 -12   2   0  387.06   22.63
 -12   2   0  401.50   22.64
 -12  -2   0  385.70   22.61
 -12   2   0  393.45   22.64
 -12  -2   0  403.51   22.65
 -12   2  -1    0.68    0.13
 -12  -2   1    0.41    0.12
 -12   2  -1    0.71    0.13
 -12  -2   1    0.65    0.06
 -12   2  -1    0.86    0.12
 -12  -2  -1    0.47    0.12
 -12   2   1    0.81    0.13
 -12  -2  -1    0.78    0.12
 -12   2   1    0.58    0.12
 -12   2  -2  146.52    8.77
 -12   2  -2  154.12    8.79
 -12   2  -2  150.65    8.77
 -12  -2   2  152.02    8.76
 -12  -2  -2  155.31    8.78
 -12   2   2  156.49    8.76
 -12  -2  -2  150.59    8.77
 -12  -2  -2  149.07    8.77
 -12   2  -3    1.41    0.18
 -12  -2   3    1.28    0.14
 -12   2  -3    1.14    0.17
 -12   2  -3    1.17    0.20
 -12  -2   3    1.09    0.15
 -12  -2  -3    1.26    0.17
 -12  -2  -3    1.32    0.20
 -12  -2  -3    1.15    0.17
 -12   2   3    1.32    0.27
 -12   2   3    1.32    0.16
 -12   2  -4   38.51    2.31
 -12   2  -4   38.95    2.37
 -12  -2   4   39.28    2.30
 -12   2  -4   40.74    2.34
 -12   2   4   37.68    2.30
 -12  -2  -4   37.99    2.37
 -12  -2  -4   39.54    2.34
 -12  -2  -4   40.66    2.32
 -12   2  -5    1.26    0.16
 -12   2  -5    0.71    0.21
 -12  -2   5    1.20    0.15
 -12   2  -5    1.00    0.19
 -12  -2  -5    0.83    0.21
 -12  -2  -5    1.13    0.19
 -12   2   5    1.15    0.15
 -12  -2  -5    1.15    0.16
 -12   2  -6    9.83    0.76
 -12   2  -6   10.00    0.70
 -12  -2  -6    9.32    0.68
 -12  -2  -6    9.86    0.76
 -12   2  -7    5.06    0.55
 -12   2  -7    5.07    0.46
 -12  -2  -7    4.03    0.49
 -12  -2  -7    4.09    0.43
 -12   2  -8    1.71    0.30
 -12   2  -8    1.27    0.33
 -12  -2  -8    1.84    0.35
 -12  -2  -8    2.14    0.31
 -12   2  -9    0.58    0.24
 -12   2  -9    0.46    0.27
 -12  -2  -9    0.13    0.27
 -12  -2  -9    0.67    0.25
 -12   2 -10    2.47    0.40
 -12   2 -10    2.67    0.49
 -12  -2 -10    2.25    0.38
 -12  -2 -10    2.17    0.43
 -12   3   0   31.39    1.82
 -12   3   0   31.40    1.79
 -12  -3   0   30.54    1.81
 -12   3   0   31.25    1.81
 -12  -3   0   27.29    1.76
 -12  -3   1   10.98    0.74
 -12   3  -1   13.07    0.77
 -12   3  -1   11.79    0.75
 -12   3  -1   11.38    0.73
 -12   3   1   10.12    0.77
 -12  -3  -1   12.10    0.73
 -12   3   1   12.34    0.75
 -12  -3  -1   11.56    0.75
 -12   3   1   11.91    0.73
 -12   3  -2    0.58    0.12
 -12   3  -2    0.56    0.14
 -12   3  -2    0.51    0.12
 -12  -3   2    0.57    0.12
 -12  -3  -2    0.47    0.13
 -12  -3  -2    0.44    0.13
 -12  -3  -2    0.36    0.11
 -12   3   2    0.35    0.10
 -12   3   2    0.75    0.18
 -12   3  -3    0.78    0.15
 -12   3  -3    0.84    0.17
 -12   3  -3    0.59    0.12
 -12  -3   3    0.80    0.13
 -12   3   3    0.51    0.11
 -12  -3  -3    0.65    0.13
 -12   3   3    0.55    0.23
 -12  -3  -3    0.65    0.16
 -12  -3  -3    0.45    0.12
 -12  -3   4   15.99    0.98
 -12   3  -4   16.14    1.05
 -12   3  -4   16.16    1.01
 -12   3  -4   16.29    0.99
 -12  -3  -4   15.39    1.00
 -12  -3  -4   16.10    1.04
 -12   3   4   15.30    0.97
 -12  -3  -4   15.38    0.99
 -12  -3   5    7.42    0.48
 -12   3  -5    6.52    0.53
 -12   3  -5    7.57    0.49
 -12   3  -5    6.97    0.57
 -12  -3  -5    7.00    0.49
 -12  -3  -5    7.05    0.53
 -12  -3  -5    7.19    0.57
 -12   3  -6    1.33    0.28
 -12   3  -6    1.68    0.26
 -12  -3  -6    1.83    0.26
 -12  -3  -6    1.56    0.29
 -12   3  -7    8.01    0.64
 -12   3  -7    8.38    0.70
 -12  -3  -7    8.57    0.63
 -12  -3  -7    8.61    0.72
 -12   3  -8    4.61    0.53
 -12   3  -8    3.88    0.45
 -12  -3  -8    3.74    0.43
 -12  -3  -8    3.79    0.49
 -12   3  -9    8.76    0.75
 -12   3  -9   10.52    0.87
 -12  -3  -9   10.56    0.75
 -12  -3  -9    8.86    0.82
 -12   3 -10    0.00    0.23
 -12   3 -10    0.29    0.29
 -12  -3 -10    0.42    0.24
 -12  -3 -10    0.02    0.28
 -12   4   0    1.33    0.18
 -12  -4   0    1.25    0.17
 -12   4   0    0.98    0.15
 -12   4   0    1.11    0.14
 -12  -4   0    1.30    0.13
 -12   4  -1   15.09    0.94
 -12   4  -1   15.69    0.93
 -12  -4   1   16.78    0.95
 -12   4  -1   14.49    0.96
 -12  -4  -1   14.40    0.94
 -12  -4  -1   14.58    0.92
 -12   4   1   15.21    0.94
 -12   4   1   14.78    0.99
 -12   4   1   14.47    0.91
 -12   4  -2    2.68    0.28
 -12   4  -2    2.19    0.23
 -12   4  -2    3.27    0.28
 -12  -4   2    2.66    0.24
 -12  -4  -2    3.11    0.28
 -12  -4  -2    2.79    0.25
 -12  -4  -2    2.38    0.25
 -12   4   2    1.81    0.33
 -12   4   2    2.10    0.23
 -12   4  -3    9.92    0.66
 -12   4  -3    8.93    0.61
 -12  -4   3    8.54    0.59
 -12   4  -3    8.90    0.60
 -12  -4  -3    8.79    0.63
 -12   4   3    8.91    0.59
 -12  -4  -3    8.60    0.60
 -12  -4  -3    9.52    0.61
 -12   4   3    8.85    0.77
 -12   4  -4   10.53    0.74
 -12   4  -4   11.32    0.79
 -12   4  -4   11.37    0.72
 -12  -4   4   11.76    0.71
 -12  -4  -4   10.59    0.73
 -12  -4  -4   11.83    0.78
 -12  -4  -4   10.41    0.72
 -12   4  -5    7.04    0.47
 -12  -4   5    6.78    0.46
 -12   4  -5    6.23    0.55
 -12   4  -5    6.01    0.50
 -12  -4  -5    6.65    0.55
 -12  -4  -5    6.90    0.50
 -12  -4  -5    6.46    0.47
 -12   4  -6    4.21    0.49
 -12   4  -6    4.07    0.42
 -12  -4  -6    5.13    0.44
 -12  -4  -6    4.50    0.48
 -12   4  -7    2.84    0.42
 -12   4  -7    4.38    0.43
 -12  -4  -7    3.42    0.43
 -12  -4  -7    3.15    0.36
 -12   4  -8    0.18    0.22
 -12   4  -8    0.05    0.19
 -12  -4  -8    0.47    0.25
 -12  -4  -8   -0.06    0.16
 -12   4  -9    0.49    0.25
 -12   4  -9    0.39    0.30
 -12  -4  -9    0.62    0.24
 -12  -4  -9    0.61    0.29
 -12   4 -10    0.04    0.26
 -12   4 -10    0.04    0.24
 -12  -4 -10    0.00    0.22
 -12  -4 -10    0.32    0.31
 -12   5   0    2.35    0.19
 -12  -5   0    1.84    0.22
 -12   5   0    1.84    0.22
 -12   5   0    2.08    0.26
 -12  -5   1    0.34    0.12
 -12   5  -1    0.47    0.13
 -12   5  -1    0.46    0.11
 -12   5  -1    0.45    0.13
 -12   5   1    0.55    0.13
 -12   5   1    0.64    0.19
 -12   5   1    0.56    0.09
 -12  -5  -1    0.68    0.12
 -12  -5  -1    0.45    0.13
  12   5  -1    0.51    0.09
 -12   5  -2    0.76    0.13
 -12  -5   2    0.84    0.14
 -12   5  -2    0.61    0.15
 -12   5  -2    0.46    0.12
 -12  -5  -2    0.70    0.14
 -12   5   2    0.64    0.10
 -12   5   2    0.62    0.25
 -12   5   2    0.60    0.13
 -12  -5  -2    0.77    0.15
 -12  -5  -2    0.63    0.14
 -12   5  -3   29.56    1.75
 -12   5  -3   28.83    1.75
 -12  -5   3   29.39    1.74
 -12   5  -3   29.07    1.79
 -12  -5  -3   28.80    1.77
 -12  -5  -3   29.94    1.75
 -12  -5  -3   29.62    1.75
 -12   5   3   25.42    1.94
 -12   5  -4    2.72    0.27
 -12   5  -4    3.20    0.31
 -12  -5   4    3.40    0.29
 -12   5  -4    3.34    0.36
 -12  -5  -4    2.54    0.27
 -12  -5  -4    3.17    0.34
 -12  -5  -4    2.45    0.28
 -12   5  -5    0.62    0.13
 -12   5  -5    0.55    0.18
 -12   5  -5    0.36    0.18
 -12  -5   5    0.52    0.13
 -12  -5  -5    0.32    0.13
 -12  -5  -5    0.54    0.19
 -12  -5  -5    0.37    0.14
 -12   5  -6    0.79    0.23
 -12   5  -6    0.39    0.18
 -12  -5  -6    0.69    0.18
 -12  -5  -6    0.56    0.22
 -12   5  -7    1.98    0.35
 -12   5  -7    1.61    0.28
 -12  -5  -7    1.49    0.33
 -12  -5  -7    1.97    0.29
 -12   5  -8    0.92    0.29
 -12   5  -8    1.22    0.29
 -12  -5  -8    1.04    0.30
 -12  -5  -8    0.56    0.21
 -12   5  -9    0.10    0.25
 -12   5  -9   -0.13    0.24
 -12  -5  -9    0.20    0.23
 -12  -5  -9    0.57    0.28
 -12   5 -10    0.58    0.31
 -12   5 -10    0.36    0.27
 -12  -5 -10    0.64    0.36
 -12  -5 -10    0.17    0.27
 -12  -6   0    2.07    0.24
 -12   6   0    2.13    0.23
 -12   6   0    2.07    0.28
 -12   6   0    1.98    0.19
 -12   6  -1    0.46    0.14
 -12   6  -1    0.36    0.12
 -12  -6   1    0.33    0.12
 -12   6  -1    0.43    0.11
  12   6  -1    0.51    0.11
 -12   6   1    0.68    0.14
 -12   6   1    0.69    0.21
 -12   6   1    0.54    0.09
 -12  -6  -1    0.46    0.14
 -12  -6   2    1.80    0.22
 -12   6  -2    1.73    0.20
 -12   6  -2    2.14    0.26
 -12   6  -2    2.22    0.23
 -12   6   2    1.61    0.35
 -12   6   2    1.79    0.16
 -12  -6  -2    1.83    0.23
 -12  -6  -2    1.94    0.22
 -12   6  -3    1.38    0.18
 -12   6  -3    1.16    0.18
 -12   6  -3    1.57    0.24
 -12  -6   3    1.04    0.17
 -12   6   3    1.00    0.30
 -12  -6  -3    1.34    0.21
 -12  -6  -3    1.52    0.20
 -12  -6  -3    1.07    0.17
 -12   6  -4    0.17    0.11
 -12   6  -4    0.14    0.15
 -12  -6   4    0.19    0.12
 -12   6  -4    0.08    0.16
 -12  -6  -4    0.30    0.16
 -12  -6  -4   -0.03    0.10
 -12  -6  -4    0.25    0.13
 -12   6  -5    4.16    0.45
 -12   6  -5    4.30    0.34
 -12  -6   5    4.29    0.34
 -12   6  -5    3.72    0.38
 -12  -6  -5    4.22    0.35
 -12  -6  -5    3.68    0.37
 -12  -6  -5    4.41    0.44
 -12   6  -6    0.14    0.17
 -12   6  -6    0.64    0.25
 -12  -6  -6    0.09    0.16
 -12  -6  -6    0.13    0.21
 -12   6  -7    0.20    0.22
 -12   6  -7    0.50    0.20
 -12  -6  -7    0.68    0.21
 -12  -6  -7    0.34    0.22
 -12   6  -8    0.58    0.24
 -12   6  -8    0.50    0.26
 -12  -6  -8    0.68    0.30
 -12  -6  -8    0.48    0.22
 -12   6  -9    0.05    0.24
 -12   6  -9   -0.01    0.21
 -12  -6  -9    0.28    0.23
 -12  -6  -9    0.20    0.30
 -12   6 -10    1.62    0.42
 -12   6 -10    0.87    0.35
 -12  -6 -10    0.85    0.35
 -12   7   0    5.02    0.35
 -12   7   0    5.22    0.39
 -12  -7   0    4.99    0.39
 -12   7   0    4.70    0.46
 -12   7  -1    0.86    0.19
 -12   7  -1    0.74    0.13
 -12   7  -1    0.46    0.14
 -12  -7   1    0.47    0.15
 -12  -7  -1    0.52    0.14
  12   7  -1    0.54    0.13
 -12   7   1    0.67    0.10
 -12   7   1    0.72    0.23
 -12  -7   2    9.85    0.66
 -12   7  -2   10.30    0.65
 -12   7  -2    9.74    0.70
 -12   7  -2    9.62    0.65
 -12  -7  -2   10.07    0.67
 -12   7   2    8.12    0.82
 -12   7   2    9.78    0.59
 -12  -7   3   -0.15    0.11
 -12   7  -3   -0.06    0.11
 -12   7  -3    0.03    0.13
 -12   7  -3    0.18    0.10
 -12  -7  -3    0.04    0.13
 -12   7   3    0.25    0.23
 -12  -7  -3   -0.11    0.11
 -12  -7  -3    0.01    0.11
 -12   7  -4    0.58    0.19
 -12   7  -4    0.73    0.14
 -12  -7   4    0.78    0.16
 -12   7  -4    0.90    0.18
 -12  -7  -4    0.81    0.16
 -12  -7  -4    0.53    0.15
 -12  -7  -4    0.50    0.17
 -12   7  -5   26.79    1.57
 -12   7  -5   25.16    1.61
 -12   7  -5   25.58    1.67
 -12  -7   5   24.74    1.57
 -12  -7  -5   25.65    1.65
 -12  -7  -5   26.70    1.59
 -12  -7  -5   26.77    1.60
 -12   7  -6    9.97    0.75
 -12   7  -6    9.38    0.80
 -12  -7  -6   10.40    0.79
 -12  -7  -6   11.97    0.75
 -12   7  -7    1.40    0.31
 -12   7  -7    0.92    0.26
 -12  -7  -7    1.04    0.23
 -12  -7  -7    0.91    0.30
 -12   7  -8    1.89    0.32
 -12   7  -8    1.86    0.37
 -12  -7  -8    1.64    0.36
 -12  -7  -8    1.57    0.29
 -12   7  -9    8.07    0.72
 -12   7  -9    7.54    0.80
 -12  -7  -9    7.77    0.78
 -12  -8   0    0.61    0.15
 -12   8   0    0.82    0.12
 -12   8   0    0.50    0.18
 -12   8   0    0.67    0.15
 -12   8  -1    0.54    0.15
 -12   8  -1    0.42    0.16
 -12  -8   1    0.32    0.13
 -12   8  -1    0.53    0.12
 -12   8   1    0.51    0.09
 -12   8   1    0.47    0.23
 -12  -8  -1    0.32    0.14
  12   8  -1    0.34    0.13
 -12  -8   2  104.58    5.99
 -12   8  -2  105.73    5.99
 -12   8  -2  102.77    6.04
 -12   8  -2  105.16    5.97
 -12   8   2   93.29    6.22
 -12  -8  -2  103.07    6.00
 -12   8  -3    2.80    0.29
 -12   8  -3    3.31    0.37
 -12  -8   3    2.88    0.28
 -12   8  -3    2.72    0.28
 -12  -8  -3    2.74    0.29
 -12   8   3    2.39    0.55
 -12  -8  -3    2.58    0.28
 -12   8  -4   55.34    3.30
 -12   8  -4   54.75    3.36
 -12   8  -4   57.05    3.29
 -12  -8   4   56.95    3.29
 -12  -8  -4   57.29    3.30
 -12   8   4   60.56    3.70
 -12  -8  -4   53.74    3.29
 -12  -8  -4   52.64    3.32
 -12   8  -5   -0.07    0.16
 -12   8  -5    0.07    0.12
 -12   8  -5    0.02    0.17
 -12  -8   5    0.27    0.13
 -12  -8  -5    0.12    0.13
 -12  -8  -5   -0.09    0.18
 -12  -8  -5    0.15    0.14
 -12   8  -6   20.26    1.26
 -12   8  -6   18.27    1.31
 -12  -8  -6   20.08    1.23
 -12  -8  -6   17.81    1.28
 -12   8  -7    0.11    0.20
 -12   8  -7    0.14    0.21
 -12  -8  -7    0.36    0.19
 -12  -8  -7    0.09    0.23
 -12   8  -8    1.36    0.31
 -12   8  -8    2.37    0.42
 -12  -8  -8    1.79    0.31
 -12  -8  -8    2.01    0.38
 -12   8  -9   -0.16    0.25
 -12   8  -9   -0.23    0.22
 -12  -8  -9   -0.34    0.25
 -12   9   0    1.68    0.23
 -12   9   0    1.99    0.19
 -12  -9   0    1.29    0.22
 -12   9   0    1.81    0.32
 -12   9  -1    0.36    0.12
 -12  -9   1    0.14    0.14
 -12   9  -1    0.18    0.12
 -12   9  -1    0.33    0.16
 -12   9   1    0.27    0.23
 -12  -9  -1    0.51    0.16
 -12  -9   2    1.51    0.22
 -12   9  -2    1.62    0.22
 -12   9  -2    0.91    0.18
 -12   9  -2    1.77    0.27
 -12  -9  -2    1.69    0.24
 -12   9   2    1.29    0.40
 -12  -9   3    4.39    0.40
 -12   9  -3    4.53    0.38
 -12   9  -3    5.36    0.48
 -12   9  -3    4.89    0.40
 -12   9   3    4.48    0.73
 -12  -9  -3    4.67    0.38
 -12  -9  -3    5.00    0.42
 -12   9  -4    0.63    0.17
 -12   9  -4    0.53    0.22
 -12   9  -4    0.27    0.14
 -12  -9   4    0.53    0.15
 -12   9   4    0.79    0.41
 -12  -9  -4    0.30    0.13
 -12  -9  -4    0.51    0.17
 -12   9  -5   14.14    0.98
 -12   9  -5   12.13    0.89
 -12   9  -5   13.60    0.86
 -12  -9   5   12.04    0.86
 -12  -9  -5   13.56    0.88
 -12  -9  -5   12.75    0.87
 -12  -9  -5   14.28    0.94
 -12   9  -6    0.29    0.19
 -12   9  -6    0.40    0.22
 -12  -9  -6    0.41    0.18
 -12  -9  -6    0.39    0.22
 -12   9  -7   34.80    2.22
 -12   9  -7   33.79    2.13
 -12  -9  -7   34.51    2.10
 -12  -9  -7   33.90    2.18
 -12   9  -8   -0.08    0.20
 -12   9  -8    0.03    0.25
 -12  -9  -8    0.19    0.29
 -12   9  -9   27.81    1.93
 -12   9  -9   28.21    1.85
 -12  -9  -9   29.36    1.92
  12  10   0   53.85    3.82
 -12 -10   0   65.31    3.74
 -12  10   0   65.16    3.67
 -12  10   0   68.03    3.90
 -12  10  -1    0.71    0.14
 -12 -10   1    0.48    0.17
 -12  10  -1    0.58    0.16
 -12  10  -1    0.42    0.19
 -12  10   1    0.82    0.32
 -12 -10  -1    0.81    0.19
 -12 -10   2   90.89    5.26
 -12  10  -2   90.11    5.23
 -12  10  -2   91.80    5.34
 -12  10  -2   92.57    5.26
 -12 -10  -2   89.06    5.27
 -12  10   2   82.21    5.55
 -12  10  -3    5.47    0.52
 -12  10  -3    6.04    0.45
 -12  10  -3    6.39    0.46
 -12 -10   3    5.80    0.47
 -12  10   3    4.70    0.78
 -12 -10  -3    5.40    0.44
 -12 -10  -3    5.53    0.46
 -12 -10   4   21.05    1.30
 -12  10  -4   21.02    1.29
 -12  10  -4   20.48    1.38
 -12  10  -4   20.72    1.31
 -12 -10  -4   19.21    1.29
 -12 -10  -4   21.58    1.31
 -12  10   4   18.97    1.69
 -12 -10   5    2.25    0.28
 -12  10  -5    1.68    0.27
 -12  10  -5    1.63    0.24
 -12  10  -5    1.91    0.34
 -12 -10  -5    2.76    0.30
 -12 -10  -5    2.31    0.28
 -12  10  -6    8.50    0.66
 -12  10  -6    8.91    0.75
 -12 -10  -6    8.01    0.63
 -12  10  -7    3.10    0.45
 -12  10  -7    2.41    0.39
 -12 -10  -7    2.70    0.41
 -12  10  -8    1.14    0.33
 -12  10  -8    1.41    0.31
 -12 -10  -8    1.13    0.32
 -12  10  -9    0.44    0.30
 -12  10  -9    0.41    0.28
 -12 -10  -9   -0.07    0.27
 -12  11   0    4.28    0.55
  12  11   0    2.75    0.46
 -12 -11   0    3.80    0.38
 -12  11  -1    2.92    0.42
 -12  11  -1    2.46    0.30
 -12 -11   1    2.48    0.30
 -12  11  -1    2.43    0.25
 -12 -11  -1    2.15    0.31
 -12  11   1    2.56    0.48
 -12  11  -2    2.09    0.27
 -12  11  -2    2.22    0.36
 -12  11  -2    2.34    0.26
 -12 -11   2    2.26    0.30
 -12 -11  -2    2.17    0.29
 -12  11   2    2.19    0.55
 -12 -11   3    1.79    0.26
 -12  11  -3    2.46    0.29
 -12  11  -3    2.03    0.33
 -12  11  -3    2.08    0.27
 -12  11   3    1.63    0.51
 -12 -11  -3    1.98    0.28
 -12 -11  -3    1.87    0.25
 -12  11  -4    4.60    0.43
 -12  11  -4    4.36    0.51
 -12  11  -4    4.82    0.39
 -12 -11   4    5.08    0.43
 -12  11   4    4.21    0.82
 -12 -11  -4    4.10    0.42
 -12 -11  -4    4.78    0.42
 -12  11  -5    0.97    0.27
 -12  11  -5    0.83    0.24
 -12 -11   5    0.79    0.20
 -12 -11  -5    1.00    0.22
 -12  11   5    0.90    0.50
 -12 -11  -5    1.00    0.20
 -12  11  -6    8.76    0.72
 -12  11  -6    7.00    0.63
 -12  11  -7   31.49    1.90
 -12  11  -7   27.69    1.95
 -12  11  -8    1.56    0.37
 -12  11  -8    1.91    0.37
 -12 -12   0   19.73    1.34
 -12  12   0   23.28    1.56
 -12 -12   1   -0.05    0.15
 -12  12  -1   -0.04    0.19
 -12  12  -1    0.26    0.16
 -12 -12  -1    0.04    0.16
 -12  12   1    0.15    0.28
 -12  12  -2    0.27    0.16
 -12  12  -2    0.31    0.20
 -12 -12   2    0.28    0.18
 -12  12  -2    0.34    0.18
 -12  12   2    0.08    0.32
 -12 -12  -2    0.24    0.18
 -12  12  -3   -0.25    0.12
 -12 -12   3    0.23    0.16
 -12  12  -3    0.32    0.17
 -12  12  -3   -0.15    0.16
 -12  12   3   -0.04    0.31
 -12 -12  -3   -0.11    0.12
 -12 -12  -3    0.04    0.16
 -12  12  -4   -0.06    0.19
 -12  12  -4    0.01    0.16
 -12 -12   4    0.16    0.18
 -12  12  -4    0.12    0.15
 -12 -12  -4    0.18    0.13
 -12  12   4    0.61    0.48
 -12 -12  -4   -0.04    0.18
 -12  12  -5    4.51    0.45
 -12 -12   5    3.99    0.43
 -12  12  -5    4.80    0.55
 -12  12   5    3.37    0.76
 -12 -12  -5    5.27    0.47
 -12  12  -6    0.07    0.22
 -12  12  -6   -0.19    0.22
 -12  12  -7    0.47    0.27
 -12  12  -7    0.31    0.29
 -12  12  -8    1.09    0.36
 -12  12  -8    1.26    0.32
 -12  13   0    2.09    0.47
 -12 -13   0    1.37    0.26
 -12  13  -1    0.70    0.21
 -12 -13   1    0.54    0.21
 -12  13  -1    0.83    0.33
 -12  13   1    1.04    0.40
 -12 -13  -1    0.70    0.24
 -12 -13   2    2.57    0.34
 -12  13  -2    2.87    0.45
 -12  13  -2    2.74    0.33
 -12  13   2    2.51    0.60
 -12 -13  -2    2.61    0.35
 -12  13  -3    9.71    0.72
 -12 -13   3   10.32    0.76
 -12  13  -3   11.73    0.88
 -12  13  -3    9.47    0.73
 -12 -13  -3   10.54    0.73
 -12  13   3    8.74    1.20
 -12 -13  -3   10.70    0.77
 -12  13  -4   34.15    1.96
 -12 -13   4   31.83    1.97
 -12  13  -4   30.08    1.94
 -12  13  -4   34.56    2.08
 -12 -13  -4   32.25    1.97
 -12 -13  -4   29.65    1.93
 -12  13   4   26.88    2.41
 -12 -13   5   10.84    0.77
 -12  13  -5    9.60    0.84
 -12  13  -5   10.07    0.75
 -12 -13  -5   10.49    0.76
 -12  13   5    8.90    1.25
 -12  13  -6    1.87    0.32
 -12  13  -6    1.45    0.35
 -12  13   6    2.04    0.64
 -12  13  -7   11.10    0.85
 -12  13  -7   10.80    0.93
 -12 -14   0   20.20    1.38
 -12  14   0   22.29    1.62
 -12 -14   1    2.48    0.36
 -12  14  -1    3.21    0.52
 -12 -14  -1    2.20    0.35
 -12  14   1    2.23    0.55
 -12  14  -2   10.91    0.94
 -12 -14   2   11.59    0.82
 -12  14  -2   10.99    0.81
 -12 -14  -2   11.08    0.83
 -12  14   2   12.25    1.37
 -12 -14   3    0.70    0.23
 -12  14  -3    0.45    0.22
 -12  14  -3    0.44    0.24
 -12 -14  -3    0.57    0.22
 -12 -14  -3    0.68    0.19
 -12  14   3    0.62    0.53
 -12 -14   4   18.97    1.33
 -12  14  -4   20.40    1.30
 -12  14  -4   20.91    1.32
 -12  14  -4   21.34    1.45
 -12 -14  -4   19.97    1.33
 -12  14   4   17.76    1.96
 -12 -14   5    7.79    0.63
 -12  14  -5    6.55    0.62
 -12  14  -5    7.83    0.78
 -12  14   5    4.50    0.98
 -12 -14  -5    8.12    0.61
 -12  14  -6    2.76    0.46
 -12  14  -6    2.99    0.39
 -12  14   6    2.38    0.71
 -12  14  -7    0.69    0.27
 -12  14  -7    0.68    0.35
 -12  14   7    0.50    0.49
 -12 -15   0    0.33    0.22
 -12  15   0    0.57    0.36
 -12 -15   1    1.95    0.34
 -12  15  -1    2.24    0.49
 -12 -15  -1    1.84    0.33
 -12  15   1    2.18    0.56
 -12  15  -2    1.46    0.39
 -12 -15   2    0.79    0.24
 -12  15  -2    0.94    0.28
 -12  15   2    2.78    0.68
 -12 -15  -2    0.65    0.24
 -12  15  -3    2.44    0.36
 -12 -15   3    2.56    0.37
 -12  15  -3    3.63    0.52
 -12 -15  -3    2.21    0.34
 -12  15   3    2.03    0.65
 -12  15  -4    7.10    0.84
 -12  15  -4    8.85    0.65
 -12 -15   4    8.43    0.66
 -12  15  -4    7.93    0.75
 -12  15   4    5.99    1.10
 -12 -15  -4    7.28    0.63
 -12 -15   5    2.16    0.35
 -12  15  -5    1.85    0.33
 -12  15  -5    1.58    0.38
 -12  15   5    1.51    0.61
 -12 -15  -5    1.46    0.31
 -12  15  -6    0.03    0.26
 -12  15  -6   -0.18    0.23
 -12  15   6    0.20    0.48
 -12 -16   0    1.10    0.29
 -12  16   0    2.91    0.59
 -12  16  -1    3.10    0.56
 -12 -16   1    2.01    0.35
 -12 -16  -1    2.21    0.36
 -12  16   1    2.67    0.64
 -12  16  -2    0.35    0.23
 -12  16  -2    0.31    0.29
 -12 -16   2    0.42    0.22
 -12 -16  -2   -0.19    0.19
 -12  16   2    0.44    0.42
 -12 -16   3    0.73    0.26
 -12  16  -3    0.57    0.29
 -12  16  -3    0.06    0.20
 -12  16   3    0.48    0.55
 -12 -16  -3    0.04    0.24
 -12 -16   4    2.25    0.35
 -12  16  -4    1.56    0.39
 -12  16  -4    2.29    0.32
 -12 -16  -4    1.56    0.32
 -12  16   4    1.72    0.63
 -12  16  -5   -0.15    0.27
 -12 -16   5    0.02    0.25
 -12  16   5    0.16    0.47
 -12 -16  -5    0.22    0.22
 -12  16  -6    3.46    0.45
 -12  16  -6    5.33    0.66
 -12  16   6    3.51    0.84
 -12  17   0    1.09    0.46
 -12 -17   0    1.37    0.31
 -12 -17   1   -0.15    0.20
 -12  17  -1   -0.32    0.31
 -12  17   1   -0.04    0.39
 -12 -17  -1   -0.18    0.24
 -12  17  -2   -0.06    0.21
 -12 -17   2    0.12    0.25
 -12  17  -2    0.18    0.31
 -12  17   2    0.10    0.42
 -12 -17  -2   -0.14    0.20
 -12 -17   3    3.64    0.46
 -12  17  -3    3.19    0.58
 -12  17  -3    3.77    0.46
 -12 -17  -3    3.59    0.46
 -12  17   3    4.51    0.92
 -12  17  -4    3.07    0.54
 -12 -17   4    3.35    0.46
 -12  17  -4    4.43    0.49
 -12 -17  -4    3.07    0.42
 -12  17   4    3.54    0.86
 -12  17  -5    7.09    0.82
 -12 -17   5    6.86    0.66
 -12  17   5    6.75    1.15
 -12  18   0    7.71    0.98
 -12 -18   0    6.25    0.64
 -12  18  -1    0.13    0.35
 -12 -18   1    0.51    0.26
 -12  18   1    0.54    0.48
 -12 -18  -1   -0.35    0.27
 -12  18  -2   14.71    1.02
 -12  18  -2   13.82    1.17
 -12 -18   2   11.21    0.96
 -12  18   2   14.21    1.59
 -12 -18  -2   11.74    0.96
 -12 -18   3    0.58    0.30
 -12  18  -3    0.14    0.35
 -12  18  -3    0.73    0.29
 -12 -18  -3    0.52    0.27
 -12  18   3    0.16    0.60
 -12 -18   4   21.73    1.59
 -12  18  -4   26.51    1.78
 -12  18   4   22.58    2.13
 -12 -18  -4   25.62    1.62
 -12  19   0    0.77    0.51
 -12 -19   0    0.53    0.30
 -12 -19   1    0.89    0.31
 -12  19  -1    0.70    0.42
 -12  19   1    1.16    0.53
 -12 -19  -1    0.92    0.31
 -12  19  -2    0.69    0.43
 -12  19  -2    0.96    0.35
 -12 -19   2    0.47    0.28
 -12 -19  -2    0.04    0.25
 -12  19   2    0.06    0.47
 -13   0  -1    2.23    0.23
 -13   0  -1    2.34    0.23
 -13   0   1    1.81    0.17
 -13   0   1    2.28    0.22
 -13   0  -1    2.21    0.22
 -13   0  -2    0.08    0.09
 -13   0  -2    0.37    0.12
 -13   0  -2    0.04    0.09
 -13   0   2    0.16    0.10
 -13   0   2    0.05    0.06
 -13   0  -3    0.06    0.10
 -13   0  -3    0.00    0.10
 -13   0   3    0.11    0.10
 -13   0   3    0.02    0.08
 -13   0  -3    0.26    0.12
 -13   0  -4    0.10    0.13
 -13   0   4    0.01    0.09
 -13   0  -4    0.16    0.10
 -13   0  -4   -0.05    0.10
 -13   0  -5    5.62    0.41
 -13   0  -5    5.79    0.49
 -13   0   5    5.27    0.39
 -13   0  -5    5.85    0.45
 -13   0  -6    0.07    0.15
 -13   0  -6   -0.08    0.18
 -13   0  -7    1.09    0.24
 -13   0  -7    1.23    0.29
 -13   0  -8   -0.18    0.21
 -13   0  -8   -0.18    0.16
 -13   0  -9    0.07    0.22
 -13   0  -9    0.33    0.27
 -13   0 -10    0.02    0.25
 -13   0 -10    0.03    0.23
 -13   1   0    0.01    0.09
 -13  -1   0   -0.01    0.07
 -13  -1   0   -0.14    0.08
 -13   1   0   -0.08    0.08
 -13   1   0   -0.01    0.09
 -13  -1   1   13.86    0.78
 -13   1  -1   13.01    0.83
 -13   1  -1   12.58    0.83
 -13   1  -1   12.65    0.82
 -13  -1   1   12.52    0.82
 -13   1   1   13.14    0.82
 -13   1   1   12.71    0.80
 -13  -1  -1   12.62    0.83
 -13  -1  -1   12.51    0.83
 -13  -1  -1   13.64    0.82
 -13   1  -2   12.81    0.82
 -13  -1   2   13.18    0.75
 -13   1  -2   12.59    0.83
 -13   1  -2   13.13    0.81
 -13  -1   2   13.64    0.81
 -13   1   2   13.12    0.81
 -13   1   2   12.69    0.81
 -13  -1  -2   12.24    0.82
 -13  -1  -2   12.32    0.82
 -13  -1  -2   11.80    0.81
 -13  -1   3    3.56    0.27
 -13   1  -3    2.82    0.28
 -13   1  -3    3.46    0.27
 -13  -1   3    2.19    0.24
 -13   1  -3    3.52    0.31
 -13  -1  -3    3.50    0.28
 -13  -1  -3    3.82    0.32
 -13   1   3    3.29    0.26
 -13   1   3    2.64    0.34
 -13  -1  -3    2.90    0.29
 -13   1  -4    1.16    0.23
 -13   1  -4    1.12    0.16
 -13   1  -4    1.21    0.19
 -13  -1   4    1.40    0.17
 -13   1   4    1.23    0.16
 -13  -1  -4    0.85    0.17
 -13  -1  -4    1.31    0.18
 -13  -1  -4    1.07    0.22
 -13  -1   5    7.26    0.53
 -13   1  -5    7.58    0.60
 -13   1  -5    8.98    0.56
 -13   1  -5    8.09    0.64
 -13  -1  -5    8.38    0.63
 -13  -1  -5    8.03    0.55
 -13  -1  -5    8.20    0.59
 -13   1   5    8.60    0.54
 -13   1  -6    2.21    0.30
 -13   1  -6    2.75    0.36
 -13  -1  -6    2.68    0.33
 -13  -1  -6    2.28    0.34
 -13   1  -7    0.27    0.18
 -13   1  -7    0.51    0.24
 -13  -1  -7    0.40    0.19
 -13  -1  -7    0.25    0.22
 -13   1  -8    7.14    0.73
 -13   1  -8    6.74    0.61
 -13  -1  -8    8.72    0.71
 -13  -1  -8    7.79    0.62
 -13   1  -9   -0.15    0.22
 -13   1  -9   -0.05    0.21
 -13  -1  -9    0.41    0.30
 -13  -1  -9   -0.05    0.19
 -13   1 -10    0.20    0.27
 -13   1 -10    0.02    0.27
 -13  -1 -10   -0.28    0.25
 -13  -1 -10    0.04    0.23
 -13   2   0   -0.11    0.07
 -13   2   0    0.13    0.08
 -13  -2   0    0.05    0.08
 -13   2   0   -0.05    0.07
 -13  -2   0    0.04    0.07
 -13   2  -1    0.62    0.12
 -13  -2   1    0.87    0.08
 -13  -2   1    0.50    0.13
 -13   2  -1    0.90    0.15
 -13   2  -1    0.68    0.14
 -13   2   1    0.96    0.15
 -13  -2  -1    0.72    0.12
 -13  -2  -1    0.86    0.15
 -13   2   1    0.90    0.13
 -13   2  -2   43.77    2.49
 -13  -2   2   44.12    2.46
 -13   2  -2   44.16    2.47
 -13   2  -2   42.04    2.46
 -13   2   2   42.39    2.46
 -13  -2  -2   41.63    2.47
 -13  -2  -2   39.14    2.46
 -13   2   2   35.61    2.48
 -13  -2  -2   41.81    2.47
 -13   2  -3    4.97    0.40
 -13  -2   3    4.43    0.35
 -13   2  -3    4.81    0.37
 -13  -2   3    4.57    0.29
 -13   2  -3    4.99    0.37
 -13   2   3    4.55    0.35
 -13  -2  -3    4.81    0.39
 -13  -2  -3    5.29    0.37
 -13  -2  -3    5.43    0.38
 -13   2   3    4.45    0.49
 -13   2  -4    1.45    0.23
 -13   2  -4    1.10    0.20
 -13   2  -4    1.52    0.18
 -13  -2   4    1.34    0.17
 -13  -2  -4    1.25    0.18
 -13  -2  -4    1.15    0.19
 -13   2   4    1.39    0.17
 -13  -2  -4    0.90    0.19
 -13   2  -5    3.25    0.38
 -13  -2   5    3.37    0.27
 -13   2  -5    3.13    0.33
 -13   2  -5    3.47    0.28
 -13  -2  -5    2.57    0.35
 -13  -2  -5    3.09    0.29
 -13   2   5    3.52    0.28
 -13  -2  -5    2.91    0.32
 -13   2  -6    0.25    0.19
 -13   2  -6    0.62    0.20
 -13  -2  -6    0.26    0.19
 -13  -2  -6    0.44    0.17
 -13   2  -7    0.97    0.24
 -13   2  -7    0.85    0.27
 -13  -2  -7    1.49    0.25
 -13  -2  -7    1.30    0.29
 -13   2  -8    6.51    0.68
 -13   2  -8    6.03    0.58
 -13  -2  -8    5.97    0.57
 -13  -2  -8    7.04    0.63
 -13   2  -9    0.28    0.23
 -13   2  -9    0.27    0.30
 -13  -2  -9    0.22    0.26
 -13  -2  -9    0.65    0.25
 -13   2 -10    0.81    0.30
 -13   2 -10    0.89    0.34
 -13  -2 -10    1.67    0.34
 -13  -2 -10    1.24    0.38
 -13   3   0   -0.19    0.07
 -13   3   0    0.04    0.08
 -13   3   0    0.10    0.07
 -13  -3   0   -0.02    0.06
 -13  -3   0    0.07    0.09
 -13   3  -1   39.66    2.34
 -13   3  -1   40.40    2.37
 -13  -3   1   39.68    2.36
 -13   3  -1   39.96    2.36
 -13  -3  -1   40.81    2.37
 -13   3   1   37.66    2.37
 -13   3   1   39.88    2.34
 -13   3   1   39.66    2.36
 -13  -3  -1   40.23    2.34
 -13   3  -2    0.67    0.15
 -13   3  -2    0.61    0.15
 -13   3  -2    0.85    0.15
 -13  -3   2    0.97    0.15
 -13  -3  -2    0.91    0.15
 -13  -3  -2    0.57    0.14
 -13   3   2    1.07    0.21
 -13  -3  -2    1.17    0.17
 -13   3   2    0.78    0.14
 -13   3  -3   37.17    2.30
 -13   3  -3   37.08    2.29
 -13   3  -3   38.82    2.33
 -13  -3   3   40.12    2.29
 -13  -3  -3   38.00    2.30
 -13  -3  -3   40.54    2.32
 -13   3   3   38.52    2.28
 -13  -3  -3   38.26    2.30
 -13   3  -4    0.85    0.20
 -13   3  -4    1.24    0.17
 -13  -3   4    1.03    0.15
 -13   3  -4    0.87    0.18
 -13  -3  -4    1.02    0.20
 -13   3   4    1.14    0.16
 -13  -3  -4    1.30    0.18
 -13  -3  -4    0.94    0.17
 -13   3  -5   30.10    1.73
 -13   3  -5   26.49    1.76
 -13  -3   5   28.05    1.72
 -13   3  -5   27.88    1.81
 -13  -3  -5   28.44    1.73
 -13   3   5   29.86    1.72
 -13  -3  -5   30.25    1.77
 -13  -3  -5   29.06    1.81
 -13   3  -6    3.83    0.40
 -13   3  -6    3.51    0.43
 -13  -3  -6    3.31    0.36
 -13  -3  -6    3.74    0.43
 -13   3  -7    0.23    0.21
 -13   3  -7    0.14    0.20
 -13  -3  -7    0.07    0.18
 -13  -3  -7   -0.27    0.17
 -13   3  -8    5.61    0.55
 -13   3  -8    5.00    0.60
 -13  -3  -8    6.15    0.55
 -13  -3  -8    6.21    0.65
 -13   3  -9   -0.04    0.20
 -13   3  -9    0.47    0.27
 -13  -3  -9    0.16    0.30
 -13  -3  -9   -0.51    0.20
 -13   3 -10    0.24    0.29
 -13   3 -10    0.92    0.35
 -13  -3 -10    0.52    0.35
 -13  -3 -10    0.44    0.29
 -13  -4   0    0.17    0.11
 -13   4   0   -0.06    0.07
 -13  -4   0    0.01    0.06
 -13   4   0    0.14    0.10
 -13   4   0    0.05    0.09
 -13  -4   1    7.36    0.51
 -13   4  -1    8.34    0.50
 -13   4  -1    6.51    0.51
 -13   4  -1    7.66    0.51
 -13   4   1    7.85    0.56
 -13   4   1    6.93    0.48
 -13  -4  -1    6.34    0.48
 -13   4   1    7.76    0.51
 -13  -4  -1    8.54    0.53
 -13   4  -2   29.04    1.72
 -13  -4   2   29.27    1.71
 -13   4  -2   29.40    1.74
 -13   4  -2   29.03    1.71
 -13  -4  -2   29.12    1.72
 -13  -4  -2   28.91    1.72
 -13  -4  -2   27.85    1.71
 -13   4   2   28.34    1.71
 -13   4   2   23.68    1.79
 -13  -4   3    8.60    0.57
 -13   4  -3    9.28    0.58
 -13   4  -3    8.95    0.62
 -13   4  -3    8.09    0.58
 -13  -4  -3    9.15    0.59
 -13  -4  -3    8.64    0.60
 -13   4   3    7.02    0.56
 -13  -4  -3    9.36    0.60
 -13   4   3    6.56    0.76
 -13   4  -4   25.21    1.56
 -13  -4   4   26.05    1.54
 -13   4  -4   25.45    1.61
 -13   4  -4   25.20    1.54
 -13   4   4   24.41    1.53
 -13  -4  -4   25.99    1.60
 -13  -4  -4   25.47    1.55
 -13  -4  -4   25.92    1.56
 -13  -4   5    1.54    0.20
 -13   4  -5    1.87    0.21
 -13   4  -5    1.53    0.29
 -13   4  -5    2.11    0.27
 -13  -4  -5    1.75    0.24
 -13  -4  -5    2.06    0.23
 -13  -4  -5    2.03    0.30
 -13   4  -6   11.67    0.86
 -13   4  -6   10.68    0.79
 -13  -4  -6   11.47    0.85
 -13  -4  -6   11.75    0.79
 -13   4  -7    0.02    0.17
 -13   4  -7    0.01    0.20
 -13  -4  -7   -0.22    0.18
 -13  -4  -7   -0.22    0.14
 -13   4  -8   12.75    0.96
 -13   4  -8   13.65    1.04
 -13  -4  -8   14.55    0.96
 -13  -4  -8   13.70    1.03
 -13   4  -9   -0.12    0.21
 -13   4  -9   -0.03    0.24
 -13  -4  -9   -0.14    0.19
 -13  -4  -9   -0.07    0.28
 -13   4 -10   13.05    1.12
 -13   4 -10   14.19    1.08
 -13  -4 -10   15.07    1.15
 -13  -4 -10   15.20    1.06
 -13   5   0    0.00    0.08
 -13  -5   0   -0.12    0.10
 -13   5   0   -0.04    0.10
 -13   5   0    0.10    0.10
 -13  -5   1  104.68    6.01
 -13   5  -1  103.70    6.01
 -13   5  -1  104.97    5.99
 -13   5  -1  101.88    6.03
 -13  -5  -1  105.70    5.99
 -13  -5  -1  100.05    6.01
 -13   5   1  103.22    6.01
 -13   5   1  101.79    5.97
 -13   5   1  104.81    6.08
 -13   5  -2    8.72    0.59
 -13  -5   2    7.36    0.54
 -13   5  -2    8.88    0.56
 -13   5  -2    7.69    0.54
 -13   5   2    7.86    0.54
 -13   5   2    5.92    0.64
 -13  -5  -2    8.50    0.57
 -13  -5  -2    8.41    0.55
 -13  -5  -2    7.92    0.56
 -13   5   2    7.99    0.51
 -13   5  -3   99.06    5.77
 -13   5  -3  103.77    5.77
 -13   5  -3  101.74    5.81
 -13  -5   3  100.83    5.76
 -13  -5  -3  104.33    5.78
 -13  -5  -3   99.99    5.77
 -13   5   3   97.77    5.76
 -13  -5  -3   99.26    5.78
 -13   5   3   82.47    5.94
 -13  -5   4    0.09    0.11
 -13   5  -4   -0.05    0.12
 -13   5  -4    0.11    0.11
 -13   5  -4   -0.23    0.13
 -13  -5  -4    0.05    0.11
 -13  -5  -4   -0.06    0.14
 -13  -5  -4   -0.07    0.11
 -13   5  -5   28.24    1.70
 -13   5  -5   26.10    1.73
 -13  -5   5   28.13    1.70
 -13   5  -5   30.12    1.80
 -13  -5  -5   28.76    1.71
 -13  -5  -5   27.61    1.77
 -13  -5  -5   28.55    1.73
 -13   5  -6    0.19    0.18
 -13   5  -6   -0.24    0.16
 -13  -5  -6   -0.32    0.16
 -13  -5  -6    0.25    0.15
 -13   5  -7   24.83    1.57
 -13   5  -7   23.09    1.62
 -13  -5  -7   24.50    1.62
 -13  -5  -7   25.44    1.55
 -13   5  -8    2.22    0.39
 -13   5  -8    2.54    0.36
 -13  -5  -8    2.16    0.39
 -13  -5  -8    2.07    0.33
 -13   5  -9    6.69    0.66
 -13   5  -9    7.27    0.76
 -13  -5  -9    6.45    0.72
 -13  -5  -9    7.16    0.60
 -13   5 -10    0.50    0.28
 -13   5 -10    0.04    0.31
 -13  -5 -10    0.88    0.30
 -13  -5 -10    0.49    0.32
 -13   6   0   -0.07    0.07
 -13   6   0    0.08    0.10
 -13  -6   0   -0.04    0.10
 -13   6   0    0.02    0.11
 -13   6  -1    2.68    0.24
 -13   6  -1    3.21    0.30
 -13  -6   1    2.99    0.30
 -13   6  -1    3.64    0.35
  13   6  -1    2.42    0.24
 -13   6   1    3.35    0.39
 -13   6   1    3.89    0.30
 -13  -6  -1    2.69    0.29
 -13   6   1    3.35    0.24
 -13   6  -2   13.85    0.89
 -13   6  -2   14.50    0.91
 -13  -6   2   14.81    0.91
 -13   6  -2   13.99    0.94
 -13  -6  -2   16.06    0.91
 -13   6   2   11.34    1.03
 -13   6   2   14.14    0.90
 -13  -6  -2   14.64    0.92
 -13   6   2   13.14    0.85
 -13   6  -3    8.59    0.62
 -13  -6   3    7.68    0.56
 -13   6  -3    8.19    0.57
 -13   6  -3    7.94    0.57
 -13  -6  -3    7.51    0.56
 -13  -6  -3    9.25    0.60
 -13  -6  -3    8.46    0.58
 -13   6   3    7.98    0.51
 -13   6   3    7.24    0.83
 -13   6  -4   51.72    3.11
 -13  -6   4   49.00    3.04
 -13   6  -4   49.75    3.06
 -13   6  -4   51.82    3.04
 -13  -6  -4   50.85    3.05
 -13  -6  -4   51.60    3.05
 -13  -6  -4   55.39    3.09
 -13   6   4   52.98    3.36
 -13   6  -5    5.16    0.49
 -13   6  -5    5.17    0.40
 -13   6  -5    4.70    0.45
 -13  -6   5    5.06    0.40
 -13  -6  -5    5.25    0.47
 -13  -6  -5    4.95    0.45
 -13  -6  -5    5.31    0.41
 -13   6  -6   24.74    1.60
 -13   6  -6   23.35    1.53
 -13  -6  -6   26.60    1.53
 -13  -6  -6   22.15    1.56
 -13   6  -7   -0.01    0.20
 -13   6  -7    0.23    0.19
 -13  -6  -7    0.10    0.20
 -13  -6  -7   -0.14    0.16
 -13   6  -8    4.70    0.57
 -13   6  -8    4.54    0.50
 -13  -6  -8    4.69    0.55
 -13  -6  -8    4.76    0.47
 -13   6  -9    0.52    0.28
 -13   6  -9   -0.30    0.23
 -13  -6  -9    0.18    0.28
 -13  -6  -9    0.09    0.20
 -13   7   0    0.20    0.08
 -13   7   0    0.04    0.10
 -13  -7   0    0.01    0.11
 -13   7   0   -0.10    0.12
 -13   7  -1   26.89    1.67
 -13   7  -1   28.36    1.65
 -13  -7   1   28.44    1.68
 -13   7  -1   27.72    1.72
 -13  -7  -1   26.24    1.68
 -13   7   1   27.60    1.62
 -13   7   1   27.08    1.67
 -13   7   1   27.84    1.80
 -13  -7   2    6.78    0.52
 -13   7  -2    7.61    0.53
 -13   7  -2    7.60    0.58
 -13   7  -2    7.10    0.50
 -13   7   2    7.46    0.46
 -13   7   2    7.48    0.71
 -13  -7  -2    7.14    0.53
 -13   7  -3   10.30    0.68
 -13   7  -3    9.76    0.72
 -13   7  -3    9.65    0.67
 -13  -7   3   10.98    0.68
 -13  -7  -3    9.36    0.69
 -13   7   3    9.13    1.03
 -13  -7  -3    9.54    0.68
 -13  -7  -3   10.20    0.69
 -13   7  -4    1.02    0.21
 -13   7  -4    1.77    0.28
 -13   7  -4    1.77    0.22
 -13  -7   4    1.77    0.22
 -13  -7  -4    1.25    0.21
 -13  -7  -4    1.57    0.25
 -13  -7  -4    1.81    0.23
 -13   7   4    1.40    0.43
 -13  -7   5    8.20    0.58
 -13   7  -5    8.25    0.62
 -13   7  -5    7.95    0.68
 -13   7  -5    8.90    0.58
 -13  -7  -5    8.70    0.60
 -13  -7  -5    7.53    0.65
 -13  -7  -5    7.91    0.58
 -13   7  -6    0.57    0.20
 -13   7  -6    0.94    0.27
 -13  -7  -6    0.77    0.24
 -13  -7  -6    0.59    0.19
 -13   7  -7    7.71    0.66
 -13   7  -7    8.38    0.73
 -13  -7  -7    7.94    0.70
 -13  -7  -7    9.51    0.66
 -13   7  -8    0.09    0.21
 -13   7  -8    0.10    0.23
 -13  -7  -8   -0.06    0.17
 -13  -7  -8    0.20    0.26
 -13   7  -9    0.71    0.31
 -13   7  -9    0.68    0.30
 -13  -7  -9    1.17    0.28
 -13  -7  -9    0.33    0.29
 -13   8   0    0.10    0.14
 -13   8   0   -0.11    0.11
 -13   8   0    0.11    0.08
 -13  -8   0   -0.23    0.12
 -13   8  -1    1.62    0.23
 -13   8  -1    1.23    0.18
 -13  -8   1    1.61    0.23
 -13   8  -1    1.82    0.27
 -13   8   1    1.79    0.23
 -13   8   1    1.33    0.15
 -13   8   1    1.86    0.33
 -13  -8  -1    1.31    0.22
 -13   8  -2    1.39    0.21
 -13   8  -2    1.44    0.25
 -13   8  -2    1.66    0.20
 -13  -8   2    1.61    0.22
 -13  -8  -2    1.39    0.22
 -13   8   2    1.43    0.37
 -13  -8   3    0.32    0.15
 -13   8  -3    0.45    0.16
 -13   8  -3    0.54    0.15
 -13   8  -3    0.42    0.17
 -13  -8  -3    0.44    0.15
 -13  -8  -3    0.67    0.15
 -13   8   3    0.43    0.31
 -13   8  -4    4.33    0.41
 -13   8  -4    4.28    0.46
 -13  -8   4    4.68    0.39
 -13   8  -4    4.45    0.37
 -13  -8  -4    4.29    0.37
 -13   8   4    4.07    0.71
 -13  -8  -4    3.88    0.41
 -13  -8  -4    4.45    0.41
 -13   8  -5    0.80    0.25
 -13  -8   5    1.18    0.20
 -13   8  -5    1.02    0.22
 -13   8  -5    1.05    0.18
 -13  -8  -5    1.13    0.21
 -13  -8  -5    1.14    0.21
 -13  -8  -5    0.88    0.25
 -13   8  -6    8.01    0.60
 -13   8  -6    6.65    0.63
 -13  -8  -6    7.29    0.56
 -13  -8  -6    7.20    0.62
 -13   8  -7    1.29    0.32
 -13   8  -7    1.38    0.29
 -13  -8  -7    1.04    0.25
 -13  -8  -7    1.28    0.32
 -13   8  -8    1.59    0.37
 -13   8  -8    1.40    0.33
 -13  -8  -8    1.44    0.35
 -13  -8  -8    1.90    0.29
 -13   8  -9    0.66    0.31
 -13   8  -9    0.19    0.27
 -13  -8  -9    1.17    0.37
 -13   9   0   -0.07    0.11
 -13   9   0   -0.05    0.15
 -13   9   0   -0.06    0.09
 -13  -9   0   -0.24    0.12
 -13   9  -1   34.49    2.10
 -13   9  -1   33.31    2.02
 -13   9  -1   32.81    1.98
 -13  -9   1   31.86    2.01
 -13   9   1   35.38    2.22
 -13  -9  -1   32.55    2.02
 -13   9  -2    5.15    0.44
 -13   9  -2    5.28    0.50
 -13  -9   2    5.19    0.45
 -13   9  -2    5.52    0.42
 -13  -9  -2    5.71    0.45
 -13   9   2    5.68    0.73
 -13   9  -3   10.83    0.80
 -13   9  -3    9.49    0.73
 -13   9  -3   11.36    0.74
 -13  -9   3   12.22    0.76
 -13   9   3    9.15    1.11
 -13  -9  -3   10.67    0.74
 -13  -9  -3   11.33    0.76
 -13  -9   4    1.10    0.20
 -13   9  -4    0.74    0.20
 -13   9  -4    1.02    0.25
 -13   9  -4    1.05    0.19
 -13   9   4    1.08    0.42
 -13  -9  -4    1.08    0.20
 -13  -9  -4    1.00    0.20
 -13   9  -5    0.47    0.16
 -13  -9   5    0.70    0.18
 -13   9  -5    0.00    0.19
 -13   9  -5    0.53    0.22
 -13  -9  -5    0.43    0.17
 -13  -9  -5    0.47    0.17
 -13   9   5    0.73    0.38
 -13  -9  -5    0.40    0.21
 -13   9  -6    5.33    0.60
 -13   9  -6    5.13    0.51
 -13  -9  -6    4.69    0.54
 -13  -9  -6    6.80    0.50
 -13   9  -7    0.63    0.27
 -13   9  -7    0.27    0.23
 -13  -9  -7    0.55    0.26
 -13  -9  -7    0.52    0.21
 -13   9  -8   -0.11    0.21
 -13   9  -8    0.00    0.23
 -13  -9  -8    0.12    0.26
 -13   9  -9    0.06    0.27
 -13   9  -9    0.01    0.26
 -13  -9  -9    0.39    0.29
 -13  10   0    0.11    0.12
 -13  10   0    0.11    0.18
 -13 -10   0   -0.10    0.15
 -13  10   0   -0.18    0.12
 -13  10  -1    0.13    0.12
 -13  10  -1    0.07    0.17
 -13 -10   1    0.04    0.15
 -13  10  -1    0.11    0.14
 -13 -10  -1    0.06    0.14
 -13  10   1    0.34    0.25
 -13  10  -2    5.45    0.42
 -13 -10   2    4.86    0.47
 -13  10  -2    4.96    0.53
 -13  10  -2    5.89    0.44
 -13  10   2    5.83    0.77
 -13 -10  -2    4.88    0.44
 -13 -10   3    5.87    0.47
 -13  10  -3    5.86    0.53
 -13  10  -3    5.33    0.44
 -13  10  -3    4.89    0.47
 -13 -10  -3    6.49    0.47
 -13  10   3    5.38    0.83
 -13 -10  -3    5.53    0.47
 -13  10  -4    2.15    0.26
 -13 -10   4    1.76    0.25
 -13  10  -4    2.04    0.34
 -13  10  -4    1.63    0.26
 -13  10   4    2.55    0.61
 -13 -10  -4    1.83    0.26
 -13 -10  -4    1.55    0.23
 -13  10  -5    3.52    0.38
 -13  10  -5    3.62    0.36
 -13  10  -5    3.51    0.45
 -13 -10   5    3.44    0.36
 -13 -10  -5    3.78    0.38
 -13 -10  -5    3.73    0.37
 -13  10   5    3.47    0.70
 -13  10  -6    6.76    0.61
 -13  10  -6    7.27    0.73
 -13 -10  -6    8.56    0.60
 -13  10  -7    0.94    0.30
 -13  10  -7    0.93    0.27
 -13 -10  -7    0.88    0.28
 -13  10  -8    0.39    0.29
 -13  10  -8    0.43    0.29
 -13 -10  -8    0.61    0.28
 -13  11   0    0.13    0.22
 -13 -11   0   -0.09    0.14
 -13  11  -1   -0.09    0.21
 -13  11  -1   -0.14    0.11
 -13 -11   1    0.10    0.16
 -13  11  -1    0.12    0.14
 -13 -11  -1    0.10    0.16
 -13  11   1    0.32    0.30
 -13 -11   2    9.61    0.70
 -13  11  -2    9.41    0.69
 -13  11  -2   10.51    0.78
 -13  11  -2    9.54    0.66
 -13  11   2   11.20    1.16
 -13 -11  -2    9.01    0.70
 -13  11  -3    0.44    0.21
 -13  11  -3    0.52    0.18
 -13 -11   3    0.45    0.19
 -13  11  -3    0.95    0.21
 -13 -11  -3    0.61    0.21
 -13  11   3    1.03    0.44
 -13 -11  -3    0.52    0.17
 -13  11  -4    2.42    0.30
 -13 -11   4    2.08    0.29
 -13  11  -4    2.30    0.29
 -13  11  -4    2.40    0.37
 -13  11   4    2.09    0.61
 -13 -11  -4    2.66    0.29
 -13 -11  -4    1.97    0.30
 -13  11  -5    0.40    0.22
 -13  11  -5   -0.10    0.21
 -13 -11   5    0.22    0.18
 -13  11  -5    0.06    0.23
 -13 -11  -5    0.48    0.19
 -13  11   5    0.31    0.45
 -13 -11  -5   -0.08    0.14
 -13  11  -6    7.71    0.72
 -13  11  -6    8.08    0.66
 -13 -11  -6    8.44    0.69
 -13  11  -7    0.12    0.23
 -13  11  -7    0.30    0.23
 -13  11  -8    1.38    0.37
 -13  11  -8    1.41    0.32
 -13 -12   0   -0.17    0.15
 -13  12   0   -0.09    0.21
 -13  12  -1    0.87    0.22
 -13 -12   1    0.76    0.21
 -13  12  -1    0.44    0.27
 -13  12   1    1.00    0.37
 -13 -12  -1    0.86    0.22
 -13 -12   2   14.44    1.04
 -13  12  -2   15.14    1.00
 -13  12  -2   15.62    1.03
 -13  12  -2   17.24    1.16
 -13  12   2   15.92    1.41
 -13 -12  -2   15.70    1.06
 -13 -12   3    0.20    0.19
 -13  12  -3    0.05    0.18
 -13  12  -3   -0.09    0.15
 -13  12  -3    0.08    0.15
 -13  12   3    0.40    0.34
 -13 -12  -3    0.06    0.17
 -13 -12  -3    0.30    0.15
 -13  12  -4    4.97    0.58
 -13 -12   4    6.21    0.53
 -13  12  -4    5.38    0.46
 -13  12  -4    5.25    0.50
 -13 -12  -4    5.14    0.45
 -13 -12  -4    5.99    0.51
 -13  12   4    5.04    0.90
 -13  12  -5    0.87    0.29
 -13 -12   5    1.23    0.26
 -13  12  -5    1.70    0.29
 -13 -12  -5    1.58    0.27
 -13 -12  -5    1.48    0.24
 -13  12   5    2.12    0.64
 -13  12  -6    7.04    0.64
 -13  12  -6    7.33    0.74
 -13  12   6    6.20    1.02
 -13  12  -7   -0.40    0.20
 -13  12  -7   -0.03    0.24
 -13  12  -8    5.66    0.60
 -13  12  -8    5.30    0.67
 -13  13   0   -0.14    0.24
 -13 -13   0    0.01    0.17
 -13  13  -1   41.04    2.53
 -13 -13   1   38.74    2.52
 -13  13  -1   45.09    2.70
 -13  13   1   47.65    2.88
 -13 -13  -1   38.56    2.52
 -13  13  -2    0.60    0.22
 -13  13  -2    1.15    0.31
 -13 -13   2    0.70    0.24
 -13 -13  -2    1.01    0.25
 -13  13   2    0.74    0.44
 -13  13  -3   41.16    2.49
 -13 -13   3   42.07    2.53
 -13  13  -3   42.13    2.52
 -13  13  -3   43.32    2.64
 -13 -13  -3   40.32    2.50
 -13 -13  -3   41.29    2.53
 -13  13   3   38.43    2.98
 -13  13  -4    0.68    0.24
 -13  13  -4    1.31    0.25
 -13  13  -4    0.65    0.30
 -13 -13   4    1.03    0.25
 -13  13   4    0.91    0.49
 -13 -13  -4    0.98    0.25
 -13 -13  -4    0.64    0.19
 -13  13  -5   32.99    1.99
 -13  13  -5   29.48    2.08
 -13 -13   5   33.15    2.00
 -13  13   5   27.49    2.42
 -13 -13  -5   34.35    2.00
 -13  13  -6    0.82    0.27
 -13  13  -6    0.62    0.28
 -13  13   6    0.02    0.42
 -13  13  -7   32.37    2.15
 -13  13  -7   33.56    2.04
 -13  13   7   27.79    2.44
 -13 -14   0    0.16    0.20
 -13  14   0   -0.33    0.28
 -13  14  -1    2.16    0.47
 -13  14  -1    2.10    0.34
 -13 -14   1    2.53    0.35
 -13 -14  -1    1.75    0.31
 -13  14   1    2.82    0.62
 -13  14  -2   10.33    0.80
 -13  14  -2   11.45    0.93
 -13 -14   2   11.34    0.82
 -13  14   2   12.78    1.37
 -13 -14  -2   10.26    0.80
 -13  14  -3   -0.03    0.18
 -13 -14   3   -0.17    0.19
 -13  14  -3    0.03    0.22
 -13 -14  -3    0.25    0.17
 -13 -14  -3    0.09    0.21
 -13  14   3   -0.03    0.37
 -13 -14   4   12.87    0.94
 -13  14  -4   14.13    1.06
 -13  14  -4   13.92    0.94
 -13  14  -4   13.37    0.94
 -13 -14  -4   13.62    0.96
 -13  14   4   11.46    1.51
 -13 -14   5    1.43    0.30
 -13  14  -5    1.16    0.28
 -13  14  -5    0.98    0.35
 -13  14   5    1.99    0.64
 -13 -14  -5    1.23    0.27
 -13  14  -6   16.48    1.24
 -13  14  -6   16.37    1.11
 -13  14   6   13.85    1.66
 -13  14  -7    0.15    0.26
 -13  14  -7    0.43    0.31
 -13  14   7    1.05    0.54
 -13 -15   0    0.22    0.21
 -13  15   0   -0.14    0.31
 -13 -15   1    0.42    0.24
 -13  15  -1    0.89    0.37
 -13  15  -1    1.11    0.28
 -13  15   1    1.20    0.47
 -13 -15  -1    0.12    0.22
 -13  15  -2    0.59    0.23
 -13 -15   2    0.19    0.24
 -13  15  -2    0.75    0.30
 -13 -15  -2    0.62    0.26
 -13  15   2    0.61    0.51
 -13  15  -3   34.39    2.17
 -13 -15   3   32.00    2.04
 -13  15  -3   32.82    2.03
 -13 -15  -3   30.06    2.03
 -13  15   3   33.80    2.55
 -13  15  -4    1.22    0.36
 -13 -15   4    0.94    0.29
 -13  15  -4    1.40    0.28
 -13 -15  -4    1.08    0.29
 -13  15   4    0.38    0.55
 -13 -15   5   10.68    0.84
 -13  15  -5   12.58    0.86
 -13  15  -5   10.66    0.95
 -13  15   5    8.35    1.31
 -13 -15  -5   12.17    0.84
 -13  15  -6    0.36    0.27
 -13  15  -6    0.04    0.27
 -13  15   6    0.25    0.51
 -13  16   0    0.03    0.32
 -13 -16   0   -0.01    0.21
 -13  16  -1    0.84    0.29
 -13  16  -1    0.96    0.38
 -13 -16   1    1.03    0.28
 -13  16   1    1.78    0.52
 -13 -16  -1    1.24    0.29
 -13 -16   2    5.70    0.59
 -13  16  -2    5.95    0.73
 -13  16  -2    6.01    0.60
 -13 -16  -2    5.39    0.56
 -13  16   2    5.94    1.01
 -13  16  -3    0.40    0.25
 -13 -16   3    0.69    0.27
 -13  16  -3    0.90    0.34
 -13  16   3    0.58    0.47
 -13 -16  -3    0.68    0.28
 -13  16  -4   31.32    1.85
 -13  16  -4   28.50    1.98
 -13 -16   4   28.24    1.85
 -13 -16  -4   27.22    1.83
 -13  16   4   27.20    2.34
 -13  16  -5    1.15    0.37
 -13 -16   5    0.60    0.28
 -13  16   5    0.58    0.53
 -13 -16  -5    1.26    0.32
 -13  17   0    0.27    0.37
 -13 -17   0   -0.36    0.20
 -13  17  -1    9.97    1.06
 -13  17  -1    9.27    0.76
 -13 -17   1    7.64    0.72
 -13 -17  -1    9.30    0.76
 -13  17   1    8.11    1.10
 -13  17  -2    0.14    0.26
 -13  17  -2    0.52    0.33
 -13 -17   2    0.52    0.26
 -13  17   2    0.88    0.55
 -13 -17  -2    0.79    0.27
 -13 -17   3   44.38    2.77
 -13  17  -3   47.91    2.94
 -13  17  -3   45.06    2.77
 -13 -17  -3   40.63    2.75
 -13  17   3   48.10    3.35
 -13  17  -4    0.76    0.35
 -13 -17   4    0.87    0.31
 -13  17  -4    1.12    0.31
 -13 -17  -4    0.50    0.28
 -13  17   4    0.85    0.60
 -13  17  -5   11.42    0.98
 -13  17   5    8.51    1.33
 -13 -18   0   -0.23    0.23
 -13  18   0    0.27    0.37
 -13  18  -1    0.41    0.27
 -13 -18   1    0.16    0.25
 -13  18  -1    0.07    0.33
 -13 -18  -1   -0.10    0.26
 -13  18   1    0.42    0.53
 -13 -18   2    1.58    0.36
 -13  18  -2    1.98    0.39
 -13  18  -2    2.25    0.53
 -13  18   2    1.84    0.68
 -13 -18  -2    1.54    0.37
 -13  18  -3    2.66    0.53
 -13 -18   3    3.09    0.45
 -13  18  -3    3.68    0.47
 -13 -18  -3    1.77    0.37
 -13  18   3    2.97    0.78
 -13  19   0   -0.66    0.36
 -13 -19   0   -0.17    0.24
 -13  19  -1    6.51    0.89
 -13 -19   1    5.28    0.62
 -13  19  -1    7.85    0.73
 -13 -19  -1    5.45    0.65
 -13  19   1    9.43    1.17
 -13  19  -2   -0.10    0.33
 -13 -19   2   -0.13    0.24
 -13  19   2   -0.40    0.49
 -13 -19  -2   -0.15    0.27
 -14   0   0  108.80    6.28
 -14   0   0  108.36    6.30
 -14   0  -1   -0.05    0.08
 -14   0  -1    0.11    0.10
 -14   0   1    0.06    0.10
 -14   0  -1    0.11    0.09
 -14   0   1    0.01    0.06
 -14   0  -2  363.68   21.00
 -14   0   2  365.29   20.99
 -14   0  -2  372.19   20.99
 -14   0  -2  361.85   21.00
 -14   0   2  362.74   20.95
 -14   0   3    0.02    0.08
 -14   0  -3   -0.15    0.09
 -14   0  -3   -0.02    0.11
 -14   0  -3    0.02    0.10
 -14   0   3    0.01    0.09
 -14   0   4    8.35    0.53
 -14   0  -4    7.77    0.54
 -14   0  -4    8.05    0.56
 -14   0  -4    7.02    0.58
 -14   0  -5    0.10    0.10
 -14   0  -5   -0.06    0.15
 -14   0   5   -0.08    0.09
 -14   0  -5   -0.03    0.13
 -14   0  -6    1.33    0.26
 -14   0  -6    2.87    0.38
 -14   0  -7   -0.08    0.22
 -14   0  -7   -0.16    0.16
 -14   0  -8    1.68    0.30
 -14   0  -8    1.42    0.36
 -14   0  -9   -0.13    0.24
 -14   0  -9    0.06    0.25
 -14   0 -10    8.57    0.83
 -14   0 -10    9.50    0.78
 -14  -1   0    6.79    0.44
 -14  -1   0    6.41    0.48
 -14   1   0    6.36    0.45
 -14   1   0    6.70    0.48
 -14   1   0    7.38    0.47
 -14  -1   1    0.71    0.13
 -14   1  -1    0.66    0.13
 -14   1  -1    0.38    0.11
 -14   1  -1    0.53    0.13
 -14  -1  -1    0.58    0.13
 -14   1   1    0.42    0.09
 -14  -1  -1    0.75    0.13
 -14  -1  -1    0.58    0.13
 -14   1   1    0.31    0.12
 -14   1  -2    0.25    0.12
 -14  -1   2    0.35    0.06
 -14   1  -2    0.22    0.11
 -14  -1   2    0.42    0.11
 -14   1  -2    0.17    0.11
 -14   1   2    0.54    0.13
 -14  -1  -2    0.13    0.11
 -14  -1  -2    0.41    0.13
 -14   1   2    0.46    0.11
 -14  -1  -2    0.22    0.12
 -14   1  -3    0.00    0.10
 -14  -1   3    0.35    0.11
 -14   1  -3    0.04    0.10
 -14  -1   3    0.06    0.06
 -14   1  -3    0.14    0.14
 -14  -1  -3    0.00    0.09
 -14   1   3    0.27    0.11
 -14  -1  -3   -0.09    0.12
 -14   1   3    0.11    0.11
 -14  -1  -3    0.17    0.11
 -14   1  -4   -0.03    0.10
 -14   1  -4    0.08    0.13
 -14   1  -4    0.00    0.12
 -14  -1   4    0.12    0.10
 -14   1   4   -0.05    0.08
 -14  -1  -4    0.04    0.10
 -14  -1  -4    0.07    0.12
 -14  -1  -4   -0.08    0.14
 -14   1  -5    9.35    0.71
 -14  -1   5    9.08    0.62
 -14   1  -5    9.50    0.67
 -14   1  -5    9.65    0.64
 -14  -1  -5   10.05    0.67
 -14   1   5    9.94    0.63
 -14  -1  -5    9.08    0.71
 -14  -1  -5    9.03    0.63
 -14   1  -6    0.87    0.21
 -14   1  -6    0.87    0.25
 -14  -1  -6    0.48    0.22
 -14  -1  -6    0.86    0.21
 -14   1  -7   24.47    1.70
 -14   1  -7   26.12    1.65
 -14  -1  -7   24.86    1.71
 -14  -1  -7   28.86    1.67
 -14   1  -8    0.30    0.24
 -14   1  -8    0.97    0.25
 -14  -1  -8    0.35    0.22
 -14  -1  -8    0.79    0.28
 -14   1  -9   11.55    0.97
 -14   1  -9   11.84    0.90
 -14  -1  -9   11.49    0.96
 -14  -1  -9   13.13    0.92
 -14   1 -10    0.44    0.27
 -14   1 -10   -0.07    0.26
 -14  -1 -10   -0.10    0.29
 -14  -1 -10    0.00    0.23
 -14   2   0   19.46    1.18
 -14   2   0   18.36    1.18
 -14   2   0   18.97    1.19
 -14  -2   0   19.93    1.20
 -14  -2   0   19.89    1.15
 -14  -2   1   14.74    0.81
 -14  -2   1   13.24    0.88
 -14   2  -1   12.62    0.86
 -14   2  -1   13.89    0.88
 -14   2  -1   13.75    0.88
 -14  -2  -1   14.19    0.89
 -14  -2  -1   13.99    0.86
 -14   2   1   13.55    0.88
 -14   2   1   14.21    0.87
 -14  -2  -1   13.47    0.89
 -14   2  -2   83.36    4.87
 -14  -2   2   81.24    4.86
 -14   2  -2   84.97    4.87
 -14   2  -2   83.06    4.89
 -14   2   2   81.42    4.89
 -14  -2  -2   89.62    4.88
 -14   2   2   82.48    4.86
 -14  -2  -2   82.19    4.87
 -14  -2  -2   83.73    4.88
 -14  -2   3    0.73    0.14
 -14   2  -3    0.37    0.13
 -14   2  -3    0.46    0.14
 -14   2  -3    0.46    0.16
 -14  -2  -3    0.54    0.14
 -14  -2  -3    0.67    0.15
 -14   2   3    0.27    0.15
 -14  -2  -3    0.61    0.16
 -14   2   3    0.38    0.12
 -14   2  -4   14.96    0.95
 -14   2  -4   13.99    0.97
 -14  -2   4   15.10    0.94
 -14   2  -4   15.48    1.02
 -14  -2  -4   15.10    1.01
 -14   2   4   15.40    0.94
 -14  -2  -4   15.70    0.96
 -14  -2  -4   14.86    0.97
 -14  -2   5    1.46    0.19
 -14   2  -5    2.00    0.30
 -14   2  -5    1.77    0.21
 -14   2  -5    1.91    0.27
 -14  -2  -5    2.24    0.23
 -14  -2  -5    1.66    0.28
 -14  -2  -5    1.87    0.25
 -14   2   5    1.80    0.20
 -14   2  -6   16.70    1.10
 -14   2  -6   17.48    1.17
 -14  -2  -6   16.86    1.16
 -14  -2  -6   15.83    1.09
 -14   2  -7    0.67    0.25
 -14   2  -7    0.23    0.21
 -14  -2  -7    0.80    0.21
 -14  -2  -7    0.52    0.24
 -14   2  -8    1.83    0.38
 -14   2  -8    1.78    0.32
 -14  -2  -8    1.35    0.29
 -14  -2  -8    1.26    0.32
 -14   2  -9    2.11    0.36
 -14   2  -9    2.19    0.42
 -14  -2  -9    2.24    0.43
 -14  -2  -9    2.25    0.35
 -14   2 -10    0.38    0.27
 -14   2 -10    0.16    0.29
 -14  -2 -10    0.09    0.33
 -14  -2 -10    0.29    0.29
 -14  -3   0   24.61    1.39
 -14   3   0   23.33    1.44
 -14   3   0   23.29    1.42
 -14   3   0   23.55    1.44
 -14  -3   0   22.71    1.44
 -14   3  -1    0.17    0.11
 -14  -3   1    0.01    0.09
 -14   3  -1    0.20    0.11
 -14   3  -1    0.01    0.09
 -14   3   1    0.24    0.12
 -14   3   1    0.23    0.11
 -14   3   1    0.14    0.09
 -14  -3  -1    0.04    0.10
 -14  -3  -1    0.10    0.09
 -14   3  -2    3.27    0.29
 -14   3  -2    2.78    0.27
 -14  -3   2    2.82    0.28
 -14   3  -2    3.18    0.27
 -14   3   2    3.19    0.35
 -14  -3  -2    2.77    0.29
 -14  -3  -2    2.77    0.28
 -14   3   2    2.66    0.27
 -14  -3  -2    3.12    0.29
 -14   3  -3   38.61    2.29
 -14   3  -3   39.68    2.28
 -14  -3   3   35.96    2.26
 -14   3  -3   38.43    2.32
 -14  -3  -3   39.63    2.29
 -14  -3  -3   38.75    2.30
 -14  -3  -3   37.68    2.28
 -14   3   3   37.04    2.26
 -14  -3   4    0.31    0.12
 -14   3  -4    0.10    0.14
 -14   3  -4    0.13    0.15
 -14   3  -4    0.15    0.11
 -14  -3  -4    0.01    0.11
 -14   3   4    0.21    0.20
 -14  -3  -4    0.23    0.16
 -14   3   4    0.07    0.10
 -14  -3  -4    0.04    0.11
 -14   3  -5   36.57    2.23
 -14   3  -5   34.86    2.26
 -14  -3   5   37.19    2.18
 -14   3  -5   36.86    2.19
 -14  -3  -5   36.64    2.19
 -14  -3  -5   37.30    2.23
 -14   3   5   37.39    2.18
 -14  -3  -5   36.31    2.26
 -14   3  -6   11.83    0.85
 -14   3  -6   11.52    0.91
 -14  -3  -6   12.87    0.90
 -14  -3  -6   12.77    0.85
 -14   3  -7    3.47    0.38
 -14   3  -7    2.12    0.38
 -14  -3  -7    2.59    0.40
 -14  -3  -7    2.57    0.34
 -14   3  -8    3.38    0.48
 -14   3  -8    3.14    0.40
 -14  -3  -8    2.93    0.45
 -14  -3  -8    3.66    0.42
 -14   3  -9    4.48    0.51
 -14   3  -9    3.52    0.54
 -14  -3  -9    4.03    0.47
 -14  -3  -9    5.08    0.60
 -14   3 -10    0.02    0.26
 -14   3 -10    0.03    0.26
 -14  -3 -10   -0.02    0.27
 -14  -3 -10    0.32    0.25
 -14  -4   0    4.08    0.28
 -14   4   0    4.78    0.34
 -14   4   0    3.61    0.33
 -14   4   0    3.72    0.30
 -14  -4   0    4.75    0.35
 -14   4  -1   22.87    1.34
 -14   4  -1   21.17    1.32
 -14   4  -1   22.90    1.31
 -14  -4   1   21.72    1.33
 -14   4   1   20.78    1.32
 -14   4   1   21.06    1.35
 -14   4   1   21.16    1.29
 -14  -4  -1   20.23    1.29
 -14  -4  -1   21.94    1.33
 -14   4  -2    1.92    0.22
 -14   4  -2    1.65    0.24
 -14   4  -2    1.97    0.23
 -14  -4   2    2.29    0.24
 -14  -4  -2    2.31    0.25
 -14  -4  -2    1.58    0.21
 -14  -4  -2    1.88    0.23
 -14   4   2    1.56    0.20
 -14   4   2    2.16    0.31
 -14   4  -3   15.81    0.99
 -14   4  -3   15.59    0.94
 -14   4  -3   14.75    0.94
 -14  -4   3   14.83    0.93
 -14   4   3   14.92    0.93
 -14  -4  -3   13.98    0.95
 -14  -4  -3   16.14    0.95
 -14   4   3   10.81    1.04
 -14  -4  -3   14.26    0.94
 -14   4  -4    3.67    0.36
 -14  -4   4    4.03    0.33
 -14   4  -4    4.23    0.34
 -14   4  -4    3.82    0.41
 -14   4   4    4.60    0.58
 -14  -4  -4    3.76    0.36
 -14   4   4    4.14    0.33
 -14  -4  -4    3.50    0.39
 -14  -4  -4    3.76    0.33
 -14  -4   5    3.87    0.34
 -14   4  -5    4.36    0.34
 -14   4  -5    4.28    0.41
 -14   4  -5    4.06    0.45
 -14  -4  -5    4.35    0.45
 -14  -4  -5    3.83    0.39
 -14   4   5    4.28    0.35
 -14  -4  -5    4.12    0.35
 -14   4  -6    3.76    0.40
 -14   4  -6    3.48    0.44
 -14  -4  -6    4.10    0.46
 -14  -4  -6    3.81    0.39
 -14   4  -7   -0.09    0.20
 -14   4  -7    0.02    0.18
 -14  -4  -7    0.30    0.18
 -14  -4  -7    0.06    0.21
 -14   4  -8    0.07    0.22
 -14   4  -8    0.34    0.22
 -14  -4  -8   -0.02    0.23
 -14  -4  -8    0.25    0.20
 -14   4  -9    5.56    0.66
 -14   4  -9    6.58    0.62
 -14  -4  -9    6.82    0.62
 -14  -4  -9    5.35    0.66
 -14   5   0   26.95    1.62
 -14   5   0   26.38    1.65
 -14   5   0   26.95    1.59
 -14  -5   0   26.27    1.62
 -14  -5   1    0.16    0.13
 -14   5  -1    0.33    0.12
 -14   5  -1    0.18    0.11
 -14   5  -1    0.21    0.12
 -14   5   1    0.18    0.11
 -14  -5  -1    0.26    0.10
 -14   5   1    0.29    0.14
 -14  -5  -1    0.12    0.12
 -14   5   1    0.37    0.09
 -14   5  -2   39.97    2.47
 -14  -5   2   41.83    2.45
 -14   5  -2   39.55    2.43
 -14   5  -2   42.54    2.45
 -14   5   2   39.69    2.56
 -14  -5  -2   42.27    2.46
 -14   5   2   41.41    2.44
 -14  -5  -2   39.38    2.44
 -14   5   2   40.01    2.40
 -14  -5  -2   44.42    2.47
 -14  -5   3    8.70    0.58
 -14   5  -3    8.39    0.58
 -14   5  -3    8.02    0.57
 -14   5  -3    7.17    0.60
 -14   5   3    7.29    0.80
 -14   5   3    8.32    0.57
 -14  -5  -3    7.67    0.57
 -14  -5  -3    8.60    0.60
 -14  -5  -3    8.68    0.59
 -14   5  -4    6.08    0.51
 -14  -5   4    5.68    0.43
 -14   5  -4    5.32    0.45
 -14   5  -4    5.97    0.44
 -14   5   4    5.74    0.74
 -14  -5  -4    5.69    0.45
 -14  -5  -4    6.11    0.45
 -14   5   4    5.23    0.43
 -14  -5  -4    5.85    0.49
 -14   5  -5    1.13    0.18
 -14   5  -5    1.15    0.23
 -14   5  -5    0.93    0.24
 -14  -5   5    0.99    0.17
 -14  -5  -5    0.90    0.21
 -14  -5  -5    1.18    0.19
 -14  -5  -5    0.69    0.21
 -14   5  -6    8.31    0.59
 -14   5  -6    6.70    0.62
 -14  -5  -6    6.81    0.63
 -14  -5  -6    7.29    0.57
 -14   5  -7    0.28    0.26
 -14   5  -7    0.46    0.21
 -14  -5  -7    0.38    0.24
 -14  -5  -7    0.84    0.22
 -14   5  -8    0.82    0.30
 -14   5  -8    0.83    0.24
 -14  -5  -8    0.76    0.32
 -14  -5  -8    1.46    0.27
 -14   5  -9    0.05    0.23
 -14   5  -9    0.12    0.27
 -14  -5  -9    0.11    0.27
 -14  -5  -9    0.22    0.25
 -14  -6   0   -0.06    0.10
 -14   6   0    0.23    0.13
 -14   6   0   -0.01    0.10
 -14   6   0    0.02    0.08
 -14  -6   1    0.47    0.14
 -14   6  -1    0.38    0.13
 -14   6  -1    0.56    0.13
 -14   6  -1    0.35    0.14
 -14   6   1    0.41    0.10
 -14  -6  -1    0.49    0.15
 -14   6   1    0.57    0.17
 -14   6   1    0.72    0.15
 -14  -6   2   10.44    0.69
 -14   6  -2    9.65    0.72
 -14   6  -2   10.68    0.68
 -14   6  -2   10.34    0.69
 -14   6   2   10.25    0.69
 -14  -6  -2   10.30    0.68
 -14   6   2    9.93    0.63
 -14   6   2    8.80    0.81
 -14  -6  -2   11.25    0.71
 -14  -6   3    7.91    0.55
 -14   6  -3    7.52    0.55
 -14   6  -3    7.37    0.54
 -14   6  -3    8.21    0.61
 -14  -6  -3    8.06    0.56
 -14   6   3    5.41    0.73
 -14   6   3    6.67    0.50
 -14  -6  -3    7.89    0.56
 -14  -6  -3    8.26    0.56
 -14   6   3    7.83    0.54
 -14   6  -4   47.07    2.88
 -14   6  -4   48.23    2.95
 -14  -6   4   49.59    2.88
 -14   6  -4   48.54    2.90
 -14  -6  -4   50.14    2.89
 -14  -6  -4   48.33    2.92
 -14   6   4   43.89    3.14
 -14  -6  -4   51.16    2.90
 -14   6  -5   -0.12    0.14
 -14   6  -5    0.11    0.13
 -14   6  -5    0.29    0.19
 -14  -6   5    0.06    0.11
 -14  -6  -5    0.04    0.13
 -14  -6  -5   -0.14    0.17
 -14  -6  -5    0.00    0.12
 -14   6  -6   36.00    2.15
 -14   6  -6   34.73    2.21
 -14  -6  -6   33.60    2.13
 -14  -6  -6   34.61    2.18
 -14   6  -7    1.91    0.36
 -14   6  -7    1.50    0.31
 -14  -6  -7    2.25    0.31
 -14  -6  -7    2.08    0.38
 -14   6  -8    0.41    0.30
 -14   6  -8    0.42    0.26
 -14  -6  -8    0.17    0.24
 -14  -6  -8    0.13    0.21
 -14   6  -9    5.39    0.65
 -14   6  -9    4.91    0.55
 -14  -6  -9    6.17    0.58
 -14  -6  -9    4.27    0.60
 -14   7   0   26.59    1.62
 -14   7   0   28.01    1.73
 -14  -7   0   28.34    1.67
 -14   7   0   26.03    1.66
 -14   7  -1    2.14    0.26
 -14   7  -1    1.82    0.27
 -14  -7   1    2.49    0.28
 -14   7  -1    2.59    0.24
 -14   7   1    2.48    0.21
 -14   7   1    2.41    0.26
 -14   7   1    2.92    0.39
 -14  -7  -1    2.49    0.29
 -14   7  -2   13.17    0.82
 -14  -7   2   12.96    0.84
 -14   7  -2   12.71    0.83
 -14   7  -2   12.99    0.88
 -14   7   2   11.55    0.99
 -14  -7  -2   11.97    0.85
 -14   7   2   13.04    0.83
 -14   7   2   12.81    0.77
 -14  -7  -2   12.50    0.82
 -14   7  -3    0.18    0.12
 -14   7  -3    0.01    0.14
 -14   7  -3    0.15    0.15
 -14  -7   3    0.09    0.13
 -14  -7  -3    0.36    0.15
 -14   7   3   -0.18    0.18
 -14  -7  -3   -0.03    0.11
 -14  -7  -3   -0.08    0.12
 -14   7  -4    8.81    0.70
 -14   7  -4    9.18    0.65
 -14  -7   4    9.13    0.63
 -14   7  -4    9.19    0.63
 -14  -7  -4    9.62    0.65
 -14  -7  -4    8.31    0.65
 -14  -7  -4    9.33    0.65
 -14   7   4    7.72    0.96
 -14  -7   5    5.34    0.42
 -14   7  -5    5.67    0.42
 -14   7  -5    5.64    0.55
 -14   7  -5    4.83    0.46
 -14  -7  -5    4.80    0.43
 -14  -7  -5    4.54    0.50
 -14  -7  -5    5.45    0.45
 -14   7  -6    0.27    0.19
 -14   7  -6    0.29    0.23
 -14  -7  -6   -0.06    0.18
 -14  -7  -6   -0.07    0.16
 -14   7  -7    1.73    0.30
 -14   7  -7    1.30    0.33
 -14  -7  -7    1.36    0.31
 -14  -7  -7    1.57    0.28
 -14   7  -8    0.85    0.31
 -14   7  -8    0.95    0.29
 -14  -7  -8    0.88    0.31
 -14  -7  -8    0.98    0.26
 -14   7  -9   10.09    0.80
 -14   7  -9    9.33    0.86
 -14  -7  -9    8.38    0.75
 -14  -7  -9   10.75    0.90
 -14   8   0   49.71    2.92
 -14  -8   0   47.71    2.93
 -14   8   0   48.71    2.87
 -14   8   0   50.55    3.01
 -14   8  -1    0.06    0.11
 -14   8  -1    0.03    0.12
 -14  -8   1    0.05    0.14
 -14   8  -1   -0.15    0.11
 -14   8   1    0.18    0.13
 -14  -8  -1    0.07    0.13
 -14   8   1    0.16    0.08
 -14   8   1    0.65    0.22
 -14   8  -2   57.28    3.45
 -14  -8   2   57.08    3.45
 -14   8  -2   59.26    3.43
 -14   8  -2   60.55    3.51
 -14  -8  -2   59.73    3.47
 -14   8   2   55.80    3.66
 -14   8  -3    9.98    0.67
 -14   8  -3    9.13    0.71
 -14  -8   3   10.48    0.68
 -14   8  -3    8.39    0.65
 -14  -8  -3    9.69    0.68
 -14   8   3    7.50    0.96
 -14  -8  -3   10.78    0.68
 -14  -8  -3    9.44    0.67
 -14   8  -4   22.87    1.45
 -14   8  -4   24.67    1.54
 -14  -8   4   23.78    1.45
 -14   8  -4   22.70    1.46
 -14   8   4   19.35    1.75
 -14  -8  -4   23.80    1.47
 -14  -8  -4   23.48    1.49
 -14  -8  -4   24.55    1.47
 -14  -8   5    0.68    0.18
 -14   8  -5    0.79    0.25
 -14   8  -5    0.81    0.22
 -14   8  -5    0.72    0.17
 -14  -8  -5    1.04    0.20
 -14  -8  -5    1.00    0.20
 -14  -8  -5    0.84    0.25
 -14   8   5    0.99    0.43
 -14   8  -6    0.90    0.27
 -14   8  -6    0.54    0.22
 -14  -8  -6    0.43    0.18
 -14  -8  -6    0.28    0.22
 -14   8  -7    6.98    0.68
 -14   8  -7    7.16    0.66
 -14  -8  -7    7.38    0.70
 -14  -8  -7    8.33    0.62
 -14   8  -8    4.60    0.53
 -14   8  -8    4.42    0.59
 -14  -8  -8    5.63    0.54
 -14  -8  -8    6.35    0.66
 -14   8  -9    0.02    0.25
 -14   8  -9    0.12    0.27
 -14  -8  -9   -0.37    0.29
 -14   9   0    0.08    0.13
 -14   9   0    0.38    0.18
 -14   9   0    0.01    0.10
 -14  -9   0   -0.11    0.13
 -14  -9   1    3.40    0.36
 -14   9  -1    3.51    0.32
 -14   9  -1    3.93    0.44
 -14   9  -1    3.61    0.36
 -14   9   1    3.12    0.34
 -14   9   1    4.19    0.53
 -14  -9  -1    3.90    0.38
 -14   9  -2    0.03    0.13
 -14   9  -2    0.24    0.16
 -14  -9   2   -0.06    0.14
 -14   9  -2    0.14    0.15
 -14  -9  -2   -0.01    0.15
 -14   9   2    0.06    0.25
 -14   9  -3   12.34    0.90
 -14  -9   3   13.00    0.85
 -14   9  -3   13.26    0.85
 -14   9  -3   12.29    0.83
 -14  -9  -3   13.66    0.87
 -14  -9  -3   12.24    0.84
 -14   9   3    8.29    1.13
 -14   9  -4   -0.08    0.17
 -14   9  -4   -0.25    0.15
 -14   9  -4    0.01    0.13
 -14  -9   4   -0.14    0.14
 -14   9   4    0.14    0.34
 -14  -9  -4    0.06    0.14
 -14  -9  -4   -0.09    0.12
 -14  -9   5   16.61    1.06
 -14   9  -5   16.14    1.05
 -14   9  -5   15.93    1.09
 -14   9  -5   14.38    1.14
 -14  -9  -5   16.44    1.07
 -14   9   5   15.48    1.44
 -14  -9  -5   16.70    1.11
 -14  -9  -5   17.67    1.08
 -14   9  -6    0.89    0.25
 -14   9  -6    0.68    0.26
 -14  -9  -6    0.72    0.20
 -14  -9  -6    0.67    0.26
 -14   9  -7   26.42    1.89
 -14   9  -7   27.64    1.83
 -14  -9  -7   29.75    1.90
 -14  -9  -7   31.37    1.82
 -14   9  -8   -0.08    0.24
 -14   9  -8   -0.19    0.25
 -14  -9  -8    0.02    0.25
 -14   9  -9   26.07    1.81
 -14 -10   0   67.74    4.17
 -14  10   0   76.27    4.32
 -14  10   0   68.79    4.16
 -14  10  -1    2.18    0.29
 -14 -10   1    2.85    0.33
 -14  10  -1    2.30    0.36
 -14  10  -1    2.82    0.27
 -14 -10  -1    3.20    0.34
 -14  10   1    3.54    0.51
 -14  10  -2   21.10    1.31
 -14 -10   2   19.88    1.34
 -14  10  -2   20.94    1.41
 -14  10  -2   21.26    1.33
 -14  10   2   21.44    1.62
 -14 -10  -2   21.94    1.35
 -14  10  -3    6.89    0.54
 -14 -10   3    7.15    0.54
 -14  10  -3    6.88    0.54
 -14  10  -3    7.90    0.62
 -14  10   3    6.45    0.91
 -14 -10  -3    6.79    0.53
 -14 -10  -3    6.86    0.56
 -14  10  -4   43.82    2.65
 -14 -10   4   44.36    2.66
 -14  10  -4   45.13    2.75
 -14  10  -4   46.08    2.67
 -14 -10  -4   44.59    2.66
 -14  10   4   35.83    2.99
 -14 -10  -4   46.39    2.68
 -14  10  -5    0.82    0.23
 -14 -10   5    1.17    0.23
 -14  10  -5    1.23    0.21
 -14  10  -5    0.82    0.27
 -14 -10  -5    0.72    0.22
 -14  10   5    0.56    0.46
 -14 -10  -5    0.64    0.19
 -14  10  -6    5.62    0.52
 -14  10  -6    3.33    0.51
 -14 -10  -6    5.70    0.49
 -14  10  -7    0.13    0.23
 -14  10  -7    0.25    0.23
 -14 -10  -7    0.00    0.25
 -14 -10  -7    0.05    0.23
 -14  10  -8    6.48    0.73
 -14  10  -8    6.13    0.62
 -14 -10  -8    6.45    0.70
 -14  11   0    0.54    0.18
 -14  11   0    1.32    0.34
 -14 -11   0    0.87    0.21
 -14  11  -1    0.61    0.18
 -14 -11   1    0.76    0.20
 -14  11  -1    0.54    0.18
 -14  11  -1    0.78    0.24
 -14 -11  -1    1.10    0.23
 -14  11   1    1.09    0.35
 -14  11  -2    2.85    0.31
 -14 -11   2    2.13    0.30
 -14  11  -2    1.31    0.31
 -14  11  -2    2.83    0.28
 -14  11   2    2.29    0.50
 -14 -11  -2    1.96    0.30
 -14  11  -3   13.33    0.89
 -14 -11   3   13.94    0.92
 -14  11  -3   12.31    0.88
 -14  11  -3   13.56    0.98
 -14 -11  -3   12.74    0.89
 -14 -11  -3   14.16    0.93
 -14  11   3   11.68    1.35
 -14  11  -4    0.86    0.23
 -14  11  -4    0.45    0.18
 -14 -11   4    0.75    0.22
 -14  11  -4    0.82    0.26
 -14  11   4    1.18    0.50
 -14 -11  -4    0.87    0.19
 -14 -11  -4    0.49    0.20
 -14  11  -5   23.79    1.64
 -14  11  -5   25.27    1.61
 -14 -11   5   25.12    1.55
 -14  11  -5   23.77    1.55
 -14  11   5   23.05    1.99
 -14 -11  -5   23.38    1.53
 -14 -11  -5   25.63    1.55
 -14  11  -6    0.36    0.25
 -14  11  -6    0.18    0.22
 -14 -11  -6    0.49    0.21
 -14  11   6    0.57    0.41
 -14  11  -7   18.75    1.32
 -14  11  -7   20.44    1.43
 -14  11  -8    0.69    0.28
 -14  11  -8    0.33    0.31
 -14 -12   0    9.06    0.73
 -14  12   0   11.16    0.92
 -14  12   0   10.52    0.74
 -14  12  -1    5.53    0.47
 -14 -12   1    5.19    0.51
 -14  12  -1    4.85    0.60
 -14  12   1    7.26    0.82
 -14 -12  -1    5.18    0.51
 -14  12  -2    0.72    0.18
 -14  12  -2    0.48    0.19
 -14  12  -2    0.73    0.26
 -14 -12   2    0.63    0.22
 -14  12   2    1.08    0.41
 -14 -12  -2    0.73    0.22
 -14 -12   3   17.69    1.14
 -14  12  -3   18.36    1.14
 -14  12  -3   16.50    1.10
 -14  12  -3   17.19    1.22
 -14  12   3   16.39    1.51
 -14 -12  -3   15.34    1.10
 -14 -12  -3   17.77    1.16
 -14  12  -4    6.75    0.50
 -14  12  -4    5.71    0.62
 -14  12  -4    4.94    0.49
 -14 -12   4    5.88    0.52
 -14 -12  -4    6.57    0.56
 -14  12   4    3.99    0.82
 -14 -12  -4    5.49    0.48
 -14  12  -5    2.95    0.45
 -14 -12   5    3.12    0.37
 -14  12  -5    2.82    0.38
 -14 -12  -5    3.36    0.36
 -14  12   5    2.22    0.69
 -14 -12  -5    2.87    0.36
 -14  12  -6    1.17    0.31
 -14  12  -6    1.19    0.28
 -14  12   6    0.42    0.42
 -14  12  -7    1.25    0.37
 -14  12  -7    0.71    0.30
 -14  12   7    1.17    0.56
 -14 -13   0    2.61    0.36
 -14  13   0    2.32    0.34
 -14  13   0    3.45    0.53
 -14  13  -1    0.87    0.24
 -14 -13   1    0.60    0.24
 -14  13  -1    1.14    0.32
 -14  13   1    0.99    0.40
 -14 -13  -1    0.64    0.22
 -14  13  -2    1.73    0.29
 -14  13  -2    1.08    0.32
 -14 -13   2    1.90    0.31
 -14  13   2    1.99    0.60
 -14 -13  -2    1.59    0.29
 -14 -13   3    3.64    0.41
 -14  13  -3    3.66    0.40
 -14  13  -3    3.10    0.46
 -14  13  -3    2.81    0.33
 -14 -13  -3    2.41    0.37
 -14  13   3    3.70    0.76
 -14 -13  -3    3.02    0.35
 -14  13  -4   10.37    0.87
 -14  13  -4   11.07    0.77
 -14 -13   4   10.17    0.78
 -14  13  -4   11.34    0.78
 -14 -13  -4   10.95    0.79
 -14 -13  -4    9.83    0.75
 -14  13   4   10.67    1.37
 -14  13  -5    1.70    0.30
 -14 -13   5    1.44    0.30
 -14  13  -5    1.86    0.38
 -14  13   5    0.70    0.51
 -14 -13  -5    1.90    0.31
 -14  13  -6    1.89    0.42
 -14  13  -6    2.48    0.37
 -14  13   6    1.56    0.66
 -14  13  -7   10.31    0.85
 -14  13  -7   10.91    0.93
 -14  13   7    9.79    1.32
 -14  14   0   16.07    1.22
 -14 -14   0   12.55    0.96
 -14  14  -1    0.66    0.23
 -14  14  -1    1.39    0.37
 -14 -14   1    0.76    0.23
 -14  14   1    1.37    0.46
 -14 -14  -1    0.87    0.26
 -14 -14   2   17.06    1.21
 -14  14  -2   18.45    1.22
 -14  14  -2   20.25    1.36
 -14  14   2   18.96    1.61
 -14 -14  -2   17.08    1.22
 -14  14  -3    8.08    0.66
 -14 -14   3    8.32    0.69
 -14  14  -3    9.02    0.78
 -14 -14  -3    9.01    0.69
 -14  14   3    8.95    1.18
 -14 -14  -3    7.82    0.64
 -14 -14   4    4.41    0.47
 -14  14  -4    4.05    0.43
 -14  14  -4    4.17    0.56
 -14  14  -4    4.20    0.44
 -14 -14  -4    4.65    0.48
 -14  14   4    2.93    0.78
 -14  14  -5    0.93    0.28
 -14  14  -5    0.71    0.32
 -14 -14   5    1.26    0.28
 -14 -14  -5    0.77    0.26
 -14  14   5    1.32    0.59
 -14  14  -6    1.01    0.31
 -14  14  -6    0.97    0.36
 -14  14   6    1.14    0.61
 -14  15   0   12.44    1.10
 -14 -15   0   10.12    0.82
 -14 -15   1    0.85    0.26
 -14  15  -1    1.01    0.28
 -14  15  -1    1.22    0.39
 -14 -15  -1    0.76    0.26
 -14  15   1    1.26    0.46
 -14  15  -2    0.90    0.33
 -14 -15   2    1.24    0.31
 -14  15  -2    0.95    0.28
 -14 -15  -2    1.35    0.31
 -14  15   2    1.94    0.64
 -14  15  -3    4.44    0.46
 -14 -15   3    3.36    0.43
 -14  15  -3    3.38    0.53
 -14  15   3    3.97    0.83
 -14 -15  -3    3.09    0.43
 -14  15  -4    9.36    0.83
 -14 -15   4    8.70    0.73
 -14  15  -4    8.91    0.71
 -14 -15  -4    8.81    0.73
 -14  15   4    8.53    1.30
 -14  15  -5    0.26    0.28
 -14  15  -5    0.07    0.23
 -14 -15   5   -0.02    0.21
 -14  15   5    0.48    0.49
 -14 -15  -5    0.37    0.23
 -14  15  -6    0.04    0.27
 -14  15  -6    0.05    0.22
 -14  15   6   -0.24    0.40
 -14 -16   0   -0.02    0.21
 -14  16   0    0.60    0.37
 -14  16  -1   -0.25    0.22
 -14 -16   1    0.12    0.23
 -14  16  -1    0.22    0.29
 -14  16   1   -0.33    0.30
 -14 -16  -1   -0.11    0.21
 -14 -16   2    0.02    0.23
 -14  16  -2   -0.02    0.22
 -14  16  -2   -0.06    0.26
 -14 -16  -2   -0.06    0.21
 -14  16   2   -0.07    0.39
 -14  16  -3    0.97    0.29
 -14 -16   3    1.74    0.33
 -14  16  -3    1.14    0.35
 -14 -16  -3    0.72    0.29
 -14  16   3    1.51    0.61
 -14  16  -4   -0.14    0.24
 -14 -16   4    0.07    0.25
 -14  16  -4   -0.05    0.21
 -14 -16  -4   -0.32    0.20
 -14  16   4    0.62    0.54
 -14  16  -5    1.53    0.41
 -14 -16   5    1.39    0.32
 -14  16   5    2.22    0.70
 -14 -16  -5    1.85    0.33
 -14  17   0    2.87    0.61
 -14 -17   0    2.22    0.38
 -14 -17   1    1.01    0.29
 -14  17  -1    1.31    0.32
 -14  17  -1    1.49    0.50
 -14 -17  -1    1.01    0.32
 -14  17   1    1.49    0.55
 -14  17  -2    0.09    0.30
 -14 -17   2   -0.09    0.25
 -14  17  -2    0.23    0.26
 -14  17   2   -0.10    0.41
 -14 -17  -2   -0.12    0.22
 -14 -17   3    0.37    0.27
 -14  17  -3    0.92    0.28
 -14  17  -3    1.07    0.38
 -14  17   3    0.56    0.56
 -14 -17  -3    0.92    0.29
 -14  17  -4    6.62    0.77
 -14 -17   4    6.00    0.62
 -14  17  -4    5.85    0.62
 -14  17   4    4.47    0.99
 -14 -17  -4    5.11    0.58
 -14  18   0    2.91    0.66
 -14 -18   0    2.69    0.44
 -14 -18   1   -0.14    0.23
 -14  18  -1   -0.13    0.32
 -14  18  -1   -0.08    0.28
 -14 -18  -1   -0.09    0.26
 -14  18   1    0.36    0.45
 -14  18  -2    9.17    0.79
 -14  18  -2   11.04    0.99
 -14 -18   2    8.06    0.81
 -14 -18  -2    8.75    0.77
 -14  18   2    9.82    1.28
 -14 -18   3    1.42    0.37
 -14  18  -3    1.33    0.46
 -14  18  -3    1.47    0.37
 -14  18   3    1.58    0.65
 -14 -18  -3    1.48    0.34
 -14 -19   0    0.42    0.31
 -14  19   0    0.72    0.51
 -14  19  -1    0.64    0.44
 -14 -19   1    0.74    0.33
 -14 -19  -1    0.42    0.32
 -14  19   1    0.24    0.50
 -15   0  -1   13.44    0.86
 -15   0   1   14.09    0.83
 -15   0   1   14.03    0.87
 -15   0  -1   13.15    0.87
 -15   0  -1   13.34    0.88
 -15   0   2    0.02    0.06
 -15   0  -2    0.00    0.10
 -15   0  -2    0.18    0.10
 -15   0   2   -0.01    0.09
 -15   0  -2    0.04    0.10
 -15   0  -3   26.90    1.60
 -15   0  -3   27.64    1.63
 -15   0   3   26.90    1.59
 -15   0   3   22.87    1.57
 -15   0  -3   27.92    1.61
 -15   0  -4    0.13    0.10
 -15   0  -4   -0.01    0.13
 -15   0  -4   -0.01    0.12
 -15   0   4    0.02    0.10
 -15   0   5   23.01    1.38
 -15   0  -5   21.07    1.42
 -15   0  -5   24.19    1.40
 -15   0  -5   21.79    1.46
 -15   0  -6    0.25    0.19
 -15   0  -6   -0.04    0.15
 -15   0  -7   -0.14    0.16
 -15   0  -7   -0.23    0.21
 -15   0  -8    0.19    0.22
 -15   0  -8    0.19    0.20
 -15   0  -9    0.25    0.27
 -15   0  -9    0.51    0.27
 -15   0 -10    0.05    0.24
 -15   0 -10   -0.03    0.27
 -15  -1   0   -0.17    0.10
 -15   1   0    0.08    0.10
 -15   1   0   -0.07    0.08
 -15  -1   0    0.07    0.08
 -15   1   0    0.03    0.08
 -15  -1   1    8.29    0.56
 -15   1  -1    7.66    0.55
 -15  -1   1    8.26    0.50
 -15   1  -1    8.74    0.56
 -15   1  -1    8.48    0.57
 -15   1   1    7.82    0.56
 -15  -1  -1    7.66    0.54
 -15  -1  -1    8.62    0.57
 -15  -1  -1    7.61    0.56
 -15   1   1    8.05    0.53
 -15   1  -2   11.14    0.76
 -15  -1   2   12.33    0.76
 -15  -1   2   11.90    0.68
 -15   1  -2   11.60    0.75
 -15   1  -2   11.60    0.76
 -15   1   2   10.22    0.74
 -15   1   2   10.81    0.72
 -15  -1  -2   11.91    0.76
 -15  -1  -2   11.77    0.76
 -15  -1  -2   11.42    0.76
 -15   1  -3    0.46    0.13
 -15   1  -3    0.27    0.16
 -15  -1   3    0.44    0.13
 -15   1  -3    0.49    0.14
 -15  -1  -3    0.42    0.13
 -15   1   3    0.70    0.14
 -15   1   3    0.36    0.13
 -15  -1  -3    0.44    0.13
 -15  -1  -3    0.50    0.16
 -15   1  -4    8.27    0.59
 -15  -1   4    8.01    0.57
 -15   1  -4    7.76    0.60
 -15   1  -4    9.18    0.66
 -15   1   4    6.92    0.66
 -15   1   4    8.73    0.58
 -15  -1  -4    8.98    0.59
 -15  -1  -4    9.46    0.62
 -15  -1  -4    9.00    0.65
 -15   1  -5    0.09    0.12
 -15   1  -5   -0.12    0.17
 -15  -1   5   -0.10    0.10
 -15   1  -5   -0.01    0.14
 -15   1   5    0.10    0.11
 -15  -1  -5   -0.06    0.15
 -15  -1  -5    0.06    0.14
 -15  -1  -5   -0.12    0.10
 -15   1  -6   10.68    0.73
 -15   1  -6   10.21    0.78
 -15  -1  -6    9.30    0.76
 -15  -1  -6    9.76    0.73
 -15   1  -7    0.45    0.24
 -15   1  -7    0.61    0.21
 -15  -1  -7    0.22    0.24
 -15  -1  -7    0.21    0.18
 -15   1  -8    2.42    0.42
 -15   1  -8    3.36    0.42
 -15  -1  -8    2.66    0.37
 -15  -1  -8    2.91    0.46
 -15   1  -9    0.93    0.30
 -15   1  -9    0.90    0.35
 -15  -1  -9    1.00    0.33
 -15  -1  -9    1.08    0.31
 -15   1 -10    6.34    0.74
 -15  -1 -10    6.50    0.74
 -15   2   0    0.16    0.08
 -15  -2   0    0.04    0.07
 -15  -2   0    0.17    0.11
 -15   2   0    0.07    0.08
 -15   2   0    0.19    0.12
 -15  -2   1   24.36    1.37
 -15   2  -1   22.84    1.43
 -15   2  -1   22.41    1.42
 -15   2  -1   23.43    1.44
 -15  -2   1   22.69    1.43
 -15   2   1   23.13    1.43
 -15  -2  -1   24.46    1.45
 -15  -2  -1   23.42    1.44
 -15  -2  -1   23.94    1.42
 -15   2   1   23.44    1.42
 -15   2  -2   -0.09    0.12
 -15   2  -2    0.00    0.11
 -15   2  -2    0.04    0.10
 -15  -2   2    0.20    0.10
 -15   2   2    0.03    0.09
 -15  -2  -2   -0.07    0.10
 -15   2   2    0.08    0.11
 -15  -2  -2    0.15    0.11
 -15  -2  -2    0.17    0.12
 -15   2  -3   24.64    1.48
 -15   2  -3   22.78    1.50
 -15  -2   3   23.76    1.46
 -15   2  -3   24.85    1.47
 -15   2   3   23.08    1.45
 -15  -2  -3   22.97    1.47
 -15  -2  -3   26.02    1.50
 -15  -2  -3   23.81    1.48
 -15   2  -4    0.19    0.15
 -15   2  -4    0.22    0.11
 -15   2  -4    0.09    0.15
 -15  -2   4    0.34    0.13
 -15   2   4    0.08    0.11
 -15  -2  -4    0.14    0.13
 -15  -2  -4   -0.12    0.12
 -15   2   4   -0.02    0.15
 -15  -2  -4    0.26    0.12
 -15  -2   5    0.18    0.11
 -15   2  -5    0.00    0.14
 -15   2  -5    0.05    0.11
 -15   2  -5   -0.17    0.17
 -15  -2  -5    0.03    0.13
 -15   2   5    0.25    0.12
 -15  -2  -5    0.20    0.18
 -15  -2  -5   -0.09    0.11
 -15   2  -6    3.85    0.40
 -15   2  -6    3.55    0.44
 -15  -2  -6    3.50    0.43
 -15  -2  -6    3.29    0.38
 -15   2  -7    6.28    0.63
 -15   2  -7    5.57    0.55
 -15  -2  -7    6.26    0.64
 -15  -2  -7    6.29    0.57
 -15   2  -8    3.68    0.52
 -15   2  -8    4.38    0.47
 -15  -2  -8    3.51    0.50
 -15  -2  -8    3.76    0.45
 -15   2  -9    0.70    0.32
 -15   2  -9    0.45    0.27
 -15  -2  -9    0.86    0.34
 -15  -2  -9    1.06    0.30
 -15  -3   0   -0.08    0.06
 -15   3   0    0.06    0.09
 -15   3   0   -0.06    0.09
 -15  -3   0   -0.04    0.10
 -15   3   0   -0.13    0.08
 -15   3  -1   15.56    0.97
 -15   3  -1   15.09    0.97
 -15  -3   1   14.54    0.96
 -15   3  -1   15.50    0.95
 -15   3   1   15.59    0.96
 -15   3   1   14.65    0.94
 -15   3   1   15.53    0.96
 -15  -3  -1   15.26    0.97
 -15  -3  -1   14.50    0.93
 -15   3  -2    5.87    0.46
 -15  -3   2    6.25    0.47
 -15   3  -2    6.84    0.49
 -15   3  -2    7.12    0.48
 -15   3   2    5.79    0.49
 -15   3   2    6.28    0.47
 -15  -3  -2    7.07    0.48
 -15  -3  -2    7.25    0.49
 -15  -3  -2    5.82    0.47
 -15  -3   3   19.16    1.11
 -15   3  -3   17.43    1.11
 -15   3  -3   17.64    1.11
 -15   3  -3   17.24    1.15
 -15  -3  -3   18.17    1.12
 -15  -3  -3   16.89    1.12
 -15   3   3   17.10    1.10
 -15  -3  -3   17.34    1.12
 -15  -3   4    0.74    0.16
 -15   3  -4    0.66    0.17
 -15   3  -4    0.72    0.20
 -15   3  -4    0.78    0.16
 -15   3   4    0.45    0.14
 -15  -3  -4    0.99    0.19
 -15  -3  -4    0.56    0.18
 -15   3   4    0.90    0.28
 -15  -3  -4    0.76    0.16
 -15   3  -5   20.89    1.33
 -15   3  -5   19.21    1.27
 -15  -3   5   20.56    1.23
 -15   3  -5   19.88    1.24
 -15  -3  -5   20.73    1.28
 -15  -3  -5   20.25    1.32
 -15   3   5   19.52    1.23
 -15  -3  -5   18.63    1.24
 -15   3  -6    4.95    0.53
 -15   3  -6    5.74    0.51
 -15  -3  -6    4.49    0.46
 -15  -3  -6    4.97    0.53
 -15   3  -7    5.16    0.57
 -15   3  -7    5.82    0.55
 -15  -3  -7    5.19    0.57
 -15  -3  -7    5.73    0.53
 -15   3  -8    0.20    0.24
 -15   3  -8    0.09    0.20
 -15  -3  -8    0.10    0.27
 -15  -3  -8    0.36    0.25
 -15   3  -9    0.40    0.26
 -15   3  -9    0.67    0.31
 -15  -3  -9    0.68    0.34
 -15  -3  -9    0.86    0.27
 -15   4   0    0.11    0.10
 -15   4   0   -0.04    0.10
 -15   4   0    0.00    0.08
 -15  -4   0   -0.13    0.06
 -15  -4   0    0.14    0.11
 -15   4  -1   25.93    1.59
 -15   4  -1   25.47    1.57
 -15   4  -1   24.68    1.56
 -15  -4   1   25.74    1.58
 -15  -4  -1   25.90    1.58
 -15   4   1   26.02    1.57
 -15   4   1   25.98    1.54
 -15  -4  -1   27.28    1.55
 -15   4   1   25.25    1.60
 -15   4  -2   14.02    0.94
 -15   4  -2   14.77    0.97
 -15  -4   2   14.78    0.94
 -15   4  -2   15.16    0.94
 -15   4   2   14.72    0.94
 -15  -4  -2   14.85    0.96
 -15   4   2   14.92    1.01
 -15  -4  -2   14.76    0.95
 -15  -4  -2   14.73    0.94
 -15   4  -3    0.10    0.13
 -15   4  -3    0.34    0.16
 -15  -4   3    0.57    0.14
 -15   4  -3    0.38    0.14
 -15  -4  -3    0.32    0.13
 -15   4   3    0.16    0.13
 -15  -4  -3    0.16    0.13
 -15   4   3    0.35    0.18
 -15  -4  -3    0.42    0.16
 -15   4  -4   34.56    2.06
 -15  -4   4   33.69    2.05
 -15   4  -4   34.79    2.12
 -15   4  -4   35.39    2.08
 -15   4   4   28.43    2.21
 -15   4   4   35.85    2.05
 -15  -4  -4   35.82    2.10
 -15  -4  -4   32.82    2.06
 -15  -4  -4   34.91    2.08
 -15   4  -5   18.04    1.09
 -15   4  -5   17.07    1.18
 -15  -4   5   16.58    1.09
 -15   4  -5   17.05    1.14
 -15  -4  -5   17.92    1.17
 -15  -4  -5   17.32    1.10
 -15  -4  -5   16.69    1.12
 -15   4   5   17.92    1.09
 -15   4  -6    0.67    0.26
 -15   4  -6    0.42    0.21
 -15  -4  -6    0.42    0.23
 -15  -4  -6    1.08    0.24
 -15   4  -7    0.07    0.19
 -15   4  -7    0.33    0.23
 -15  -4  -7    0.25    0.23
 -15  -4  -7    0.25    0.18
 -15   4  -8    0.80    0.28
 -15   4  -8    1.35    0.29
 -15  -4  -8    1.08    0.32
 -15  -4  -8    0.84    0.26
 -15   4  -9    0.83    0.32
 -15   4  -9    1.16    0.32
 -15  -4  -9    0.47    0.34
 -15  -4  -9    1.32    0.32
 -15   5   0    0.07    0.10
 -15   5   0    0.06    0.11
 -15  -5   0   -0.19    0.11
 -15   5   0   -0.08    0.09
 -15  -5   1   12.84    0.87
 -15   5  -1   14.32    0.87
 -15   5  -1   13.23    0.88
 -15   5  -1   12.47    0.84
 -15  -5  -1   14.11    0.88
 -15   5   1   13.16    0.91
 -15   5   1   13.38    0.87
 -15  -5  -1   13.57    0.83
 -15   5   1   13.14    0.83
 -15   5  -2    0.65    0.16
 -15  -5   2    0.92    0.17
 -15   5  -2    0.61    0.15
 -15   5  -2    0.55    0.15
 -15  -5  -2    0.78    0.17
 -15  -5  -2    0.60    0.15
 -15   5   2    0.43    0.14
 -15  -5  -2    0.80    0.17
 -15   5   2    1.01    0.12
 -15   5   2    0.66    0.21
 -15   5  -3  100.72    5.76
 -15  -5   3   97.50    5.75
 -15   5  -3  100.12    5.76
 -15   5  -3  101.62    5.81
 -15  -5  -3   99.00    5.77
 -15  -5  -3   97.99    5.76
 -15   5   3   96.53    5.75
 -15  -5  -3   96.99    5.77
 -15   5  -4    5.97    0.45
 -15  -5   4    6.13    0.46
 -15   5  -4    6.80    0.53
 -15   5  -4    6.12    0.48
 -15  -5  -4    4.89    0.48
 -15   5   4    6.04    0.45
 -15  -5  -4    6.71    0.48
 -15  -5  -4    6.14    0.47
 -15   5   4    4.90    0.69
 -15  -5   5   36.65    2.23
 -15   5  -5   37.31    2.27
 -15   5  -5   39.03    2.24
 -15   5  -5   36.28    2.32
 -15   5   5   36.28    2.22
 -15  -5  -5   38.01    2.26
 -15  -5  -5   37.58    2.24
 -15  -5  -5   36.71    2.30
 -15   5  -6   10.62    0.83
 -15   5  -6    9.92    0.75
 -15  -5  -6   10.48    0.74
 -15  -5  -6   10.19    0.79
 -15   5  -7    5.51    0.54
 -15   5  -7    5.22    0.59
 -15  -5  -7    4.52    0.54
 -15  -5  -7    5.60    0.52
 -15   5  -8    6.14    0.68
 -15   5  -8    6.81    0.60
 -15  -5  -8    5.11    0.61
 -15  -5  -8    5.38    0.55
 -15   5  -9    1.27    0.37
 -15   5  -9    1.33    0.33
 -15  -5  -9    0.68    0.33
 -15  -5  -9    1.19    0.32
 -15   6   0   -0.04    0.12
 -15   6   0    0.11    0.11
 -15   6   0   -0.08    0.08
 -15  -6   0   -0.06    0.10
 -15  -6   1    0.45    0.15
 -15   6  -1    0.56    0.14
 -15   6  -1    0.87    0.17
 -15   6  -1    0.76    0.17
 -15   6   1    0.69    0.12
 -15   6   1    0.62    0.18
 -15  -6  -1    0.47    0.15
 -15   6   1    0.56    0.16
 -15   6  -2    0.64    0.16
 -15   6  -2    0.62    0.18
 -15   6  -2    0.44    0.15
 -15  -6   2    0.90    0.18
 -15   6   2    0.61    0.11
 -15  -6  -2    0.85    0.18
 -15  -6  -2    0.75    0.18
 -15   6   2    0.55    0.23
 -15  -6  -2    0.61    0.15
 -15   6   2    0.56    0.15
 -15   6  -3    8.01    0.58
 -15   6  -3    7.54    0.58
 -15  -6   3    8.16    0.58
 -15   6  -3    8.16    0.62
 -15   6   3    7.61    0.82
 -15  -6  -3    8.77    0.60
 -15  -6  -3    8.24    0.59
 -15  -6  -3    7.77    0.59
 -15   6   3    8.01    0.58
 -15  -6   4   19.35    1.20
 -15   6  -4   18.82    1.20
 -15   6  -4   17.28    1.25
 -15   6  -4   20.48    1.22
 -15  -6  -4   19.08    1.22
 -15   6   4   19.76    1.20
 -15  -6  -4   19.72    1.24
 -15   6   4   15.40    1.42
 -15  -6  -4   19.67    1.21
 -15   6  -5    0.32    0.18
 -15   6  -5    0.50    0.21
 -15  -6   5    0.29    0.16
 -15   6  -5    0.26    0.14
 -15  -6  -5    0.25    0.15
 -15  -6  -5    0.33    0.21
 -15  -6  -5    0.40    0.17
 -15   6   5    0.63    0.33
 -15   6  -6    2.15    0.38
 -15   6  -6    3.48    0.38
 -15  -6  -6    2.97    0.41
 -15  -6  -6    2.89    0.34
 -15   6  -7    3.03    0.39
 -15   6  -7    3.09    0.45
 -15  -6  -7    3.22    0.38
 -15  -6  -7    2.39    0.40
 -15   6  -8    3.23    0.43
 -15   6  -8    3.15    0.49
 -15  -6  -8    4.10    0.46
 -15  -6  -8    3.93    0.51
 -15   6  -9    0.13    0.26
 -15   6  -9    0.24    0.27
 -15  -6  -9    0.58    0.27
 -15  -6  -9    0.15    0.28
 -15  -7   0    0.05    0.15
 -15   7   0   -0.02    0.09
 -15   7   0    0.06    0.14
 -15   7   0   -0.22    0.11
 -15  -7   1   29.78    1.86
 -15   7  -1   29.15    1.85
 -15   7  -1   30.58    1.90
 -15   7  -1   30.42    1.83
 -15   7   1   30.12    1.86
 -15  -7  -1   30.64    1.87
 -15   7   1   30.91    1.81
 -15   7   1   33.03    1.97
 -15   7  -2    7.02    0.51
 -15  -7   2    6.61    0.51
 -15   7  -2    6.01    0.47
 -15   7  -2    6.82    0.54
 -15   7   2    6.23    0.69
 -15  -7  -2    6.23    0.51
 -15  -7  -2    6.59    0.48
 -15   7   2    6.79    0.50
 -15   7  -3   21.20    1.33
 -15   7  -3   20.99    1.38
 -15  -7   3   21.72    1.34
 -15   7  -3   21.38    1.33
 -15  -7  -3   21.03    1.34
 -15   7   3   21.17    1.33
 -15  -7  -3   22.12    1.35
 -15   7   3   19.55    1.56
 -15  -7  -3   21.72    1.35
 -15   7  -4    3.01    0.31
 -15  -7   4    2.84    0.32
 -15   7  -4    2.90    0.37
 -15   7  -4    3.06    0.33
 -15  -7  -4    2.71    0.33
 -15   7   4    2.09    0.51
 -15  -7  -4    3.08    0.32
 -15  -7  -4    2.77    0.32
 -15  -7   5    0.01    0.14
 -15   7  -5    0.11    0.13
 -15   7  -5    0.36    0.18
 -15   7  -5    0.00    0.18
 -15  -7  -5    0.28    0.16
 -15  -7  -5    0.24    0.16
 -15  -7  -5   -0.06    0.16
 -15   7   5    0.02    0.32
 -15   7  -6    7.40    0.63
 -15   7  -6    5.22    0.55
 -15  -7  -6    6.70    0.53
 -15  -7  -6    6.40    0.60
 -15   7  -7    0.84    0.29
 -15   7  -7    0.72    0.25
 -15  -7  -7    1.33    0.33
 -15  -7  -7    1.09    0.24
 -15   7  -8    8.40    0.78
 -15   7  -8    8.57    0.77
 -15  -7  -8    8.66    0.71
 -15  -7  -8    9.06    0.80
 -15   7  -9    0.85    0.30
 -15   7  -9    0.95    0.33
 -15  -7  -9    1.50    0.38
 -15  -7  -9    1.39    0.32
 -15  -8   0    0.06    0.15
 -15   8   0    0.03    0.15
 -15   8   0   -0.12    0.09
 -15   8   0   -0.13    0.13
 -15   8  -1   15.44    1.01
 -15  -8   1   16.58    1.06
 -15   8  -1   16.38    1.06
 -15   8  -1   16.85    1.11
 -15   8   1   15.68    0.99
 -15   8   1   15.87    1.05
 -15   8   1   19.07    1.21
 -15  -8  -1   16.21    1.07
 -15   8  -2    0.27    0.16
 -15  -8   2   -0.01    0.14
 -15   8  -2   -0.14    0.12
 -15   8  -2    0.01    0.11
 -15  -8  -2   -0.08    0.16
 -15   8   2    0.05    0.19
 -15   8   2    0.02    0.13
 -15   8  -3   49.07    2.89
 -15  -8   3   49.73    2.89
 -15   8  -3   46.56    2.88
 -15   8  -3   48.19    2.95
 -15   8   3   41.75    3.13
 -15  -8  -3   49.68    2.90
 -15  -8  -3   50.81    2.90
 -15  -8  -3   49.03    2.90
 -15   8  -4   27.58    1.85
 -15   8  -4   30.71    1.80
 -15   8  -4   30.48    1.79
 -15  -8   4   29.02    1.79
 -15  -8  -4   30.59    1.82
 -15  -8  -4   29.99    1.80
 -15   8   4   21.30    2.03
 -15  -8  -4   29.88    1.80
 -15   8  -5   12.76    0.87
 -15   8  -5   12.48    0.82
 -15  -8   5   12.96    0.83
 -15   8  -5   11.96    0.92
 -15   8   5   13.36    1.37
 -15  -8  -5   11.40    0.83
 -15  -8  -5   10.89    0.87
 -15  -8  -5   13.13    0.84
 -15   8  -6   13.23    0.92
 -15   8  -6   12.38    0.98
 -15  -8  -6   12.97    0.97
 -15  -8  -6   13.73    0.92
 -15   8  -7    2.45    0.42
 -15   8  -7    2.88    0.40
 -15  -8  -7    3.04    0.43
 -15  -8  -7    3.59    0.41
 -15   8  -8    4.99    0.64
 -15   8  -8    6.42    0.60
 -15  -8  -8    6.41    0.59
 -15  -8  -8    4.99    0.61
 -15   8  -9    0.22    0.27
 -15   8  -9    0.29    0.30
 -15  -8  -9    0.21    0.31
 -15   9   0   -0.24    0.12
 -15  -9   0   -0.05    0.14
 -15   9   0    0.19    0.17
 -15   9   0    0.07    0.10
 -15   9  -1    2.01    0.28
 -15   9  -1    2.30    0.34
 -15  -9   1    2.73    0.31
 -15   9  -1    2.06    0.24
 -15   9   1    2.45    0.30
 -15  -9  -1    2.07    0.30
 -15   9   1    3.31    0.45
 -15   9  -2   11.18    0.77
 -15  -9   2    8.87    0.67
 -15   9  -2   10.36    0.69
 -15   9  -2    9.17    0.65
 -15  -9  -2    9.79    0.69
 -15   9   2    8.54    0.67
 -15   9   2    9.33    0.87
 -15   9  -3    2.94    0.32
 -15  -9   3    2.35    0.29
 -15   9  -3    2.67    0.37
 -15   9  -3    2.53    0.31
 -15  -9  -3    2.60    0.32
 -15  -9  -3    2.97    0.33
 -15   9   3    2.93    0.57
 -15   9  -4   50.67    2.94
 -15   9  -4   50.58    2.95
 -15   9  -4   51.15    3.03
 -15  -9   4   49.83    2.94
 -15   9   4   42.98    3.28
 -15  -9  -4   47.43    2.94
 -15  -9  -4   49.48    2.96
 -15   9  -5    4.65    0.46
 -15  -9   5    4.91    0.45
 -15   9  -5    5.41    0.57
 -15   9  -5    5.16    0.43
 -15  -9  -5    4.08    0.43
 -15   9   5    4.59    0.79
 -15  -9  -5    5.73    0.53
 -15  -9  -5    4.27    0.45
 -15   9  -6   29.60    1.96
 -15   9  -6   30.35    1.88
 -15  -9  -6   28.98    1.86
 -15   9   6   30.06    2.26
 -15  -9  -6   30.35    1.92
 -15   9  -7    1.37    0.31
 -15   9  -7    1.36    0.34
 -15  -9  -7    1.69    0.35
 -15  -9  -7    1.66    0.30
 -15   9  -8    9.35    0.73
 -15   9  -8    7.33    0.80
 -15  -9  -8    7.93    0.80
 -15  10   0    0.59    0.25
 -15  10   0   -0.18    0.13
 -15 -10   0    0.09    0.15
 -15  10  -1   54.49    3.23
 -15 -10   1   51.46    3.14
 -15  10  -1   50.90    3.09
 -15  10  -1   51.25    3.14
 -15  10   1   50.90    3.13
 -15  10   1   56.76    3.35
 -15 -10  -1   53.44    3.15
 -15  10  -2   14.06    0.86
 -15 -10   2   11.49    0.88
 -15  10  -2   12.04    0.94
 -15  10  -2   13.52    0.88
 -15 -10  -2   13.44    0.90
 -15  10   2   13.22    1.13
 -15  10  -3    6.29    0.52
 -15 -10   3    6.61    0.53
 -15  10  -3    6.65    0.51
 -15  10  -3    6.29    0.58
 -15 -10  -3    6.48    0.53
 -15 -10  -3    7.10    0.54
 -15  10   3    6.45    0.93
 -15  10  -4   14.41    0.95
 -15  10  -4   14.98    1.02
 -15  10  -4   13.85    0.92
 -15 -10   4   13.12    0.93
 -15 -10  -4   13.55    0.95
 -15  10   4   13.25    1.46
 -15 -10  -4   13.49    0.93
 -15  10  -5    5.19    0.57
 -15  10  -5    4.84    0.48
 -15  10  -5    5.04    0.43
 -15 -10   5    4.21    0.44
 -15 -10  -5    5.02    0.47
 -15  10   5    5.82    0.91
 -15 -10  -5    5.74    0.49
 -15  10  -6    0.19    0.21
 -15  10  -6    0.10    0.22
 -15  10   6    0.47    0.37
 -15 -10  -6    0.55    0.25
 -15 -10  -6    0.02    0.18
 -15  10  -7    0.36    0.26
 -15  10  -7    0.29    0.24
 -15 -10  -7    0.64    0.28
 -15 -10  -7    0.26    0.20
 -15  10  -8   -0.02    0.24
 -15  10  -8    0.43    0.28
 -15 -10  -8    0.26    0.28
 -15  11   0    0.08    0.23
 -15  11   0    0.01    0.15
 -15 -11   0   -0.14    0.14
 -15  11  -1    3.59    0.38
 -15 -11   1    3.62    0.39
 -15  11  -1    3.42    0.46
 -15 -11  -1    3.19    0.39
 -15  11   1    3.11    0.37
 -15  11   1    4.89    0.63
 -15  11  -2    3.47    0.37
 -15  11  -2    3.07    0.43
 -15  11  -2    3.53    0.34
 -15 -11   2    3.81    0.39
 -15  11   2    2.59    0.57
 -15 -11  -2    3.62    0.40
 -15  11  -3    0.41    0.22
 -15  11  -3    0.48    0.19
 -15 -11   3    0.39    0.19
 -15  11  -3    0.61    0.18
 -15 -11  -3    0.71    0.19
 -15  11   3    0.27    0.33
 -15 -11  -3    0.62    0.22
 -15  11  -4    3.86    0.49
 -15  11  -4    3.45    0.40
 -15  11  -4    3.78    0.40
 -15 -11   4    4.04    0.41
 -15  11   4    3.56    0.75
 -15 -11  -4    3.61    0.38
 -15 -11  -4    3.78    0.42
 -15  11  -5    1.49    0.36
 -15 -11   5    1.00    0.24
 -15  11  -5    1.09    0.27
 -15  11  -5    0.71    0.27
 -15 -11  -5    0.95    0.25
 -15  11   5    0.28    0.44
 -15 -11  -5    0.77    0.21
 -15  11  -6   18.71    1.20
 -15  11  -6   17.15    1.26
 -15  11   6   14.34    1.64
 -15 -11  -6   17.05    1.14
 -15  11  -7    1.69    0.38
 -15  11  -7    1.78    0.33
 -15  11   7    0.99    0.52
 -15  11  -8   13.30    1.03
 -15  11  -8   13.50    1.09
 -15 -12   0    0.06    0.17
 -15  12   0    0.18    0.23
 -15  12   0    0.06    0.18
 -15  12  -1   12.54    0.98
 -15  12  -1   11.83    0.86
 -15 -12   1   11.15    0.87
 -15 -12  -1   12.64    0.89
 -15  12   1   15.13    1.15
 -15 -12   2    2.25    0.33
 -15  12  -2    2.77    0.41
 -15  12  -2    1.71    0.28
 -15 -12  -2    2.30    0.33
 -15  12   2    2.65    0.60
 -15  12  -3   40.33    2.48
 -15 -12   3   39.90    2.49
 -15  12  -3   40.90    2.58
 -15  12  -3   41.57    2.46
 -15 -12  -3   39.97    2.48
 -15  12   3   42.23    2.94
 -15 -12  -3   41.50    2.51
 -15  12  -4    1.55    0.28
 -15  12  -4    1.55    0.34
 -15 -12   4    1.38    0.28
 -15  12  -4    2.15    0.29
 -15  12   4    1.64    0.57
 -15 -12  -4    1.71    0.28
 -15 -12  -4    1.76    0.31
 -15  12  -5    4.14    0.46
 -15  12  -5    4.32    0.55
 -15 -12   5    4.53    0.46
 -15  12   5    4.51    0.85
 -15 -12  -5    4.91    0.48
 -15 -12  -5    3.86    0.43
 -15  12  -6    8.01    0.72
 -15  12  -6    7.60    0.63
 -15  12   6    4.30    0.90
 -15  12  -7    0.30    0.27
 -15  12  -7    0.15    0.24
 -15  12   7   -0.07    0.37
 -15  13   0    0.26    0.28
 -15 -13   0   -0.24    0.16
 -15  13   0   -0.29    0.17
 -15  13  -1    7.98    0.84
 -15  13  -1    7.89    0.65
 -15 -13   1    7.74    0.67
 -15 -13  -1    9.36    0.67
 -15  13   1    8.43    0.97
 -15  13  -2   10.43    0.77
 -15 -13   2   10.09    0.78
 -15  13  -2   11.95    0.89
 -15 -13  -2    8.19    0.75
 -15  13   2   14.12    1.19
 -15  13  -3    2.03    0.38
 -15 -13   3    2.15    0.34
 -15  13  -3    2.42    0.32
 -15 -13  -3    2.63    0.32
 -15 -13  -3    1.62    0.32
 -15  13   3    2.64    0.68
 -15  13  -4    0.40    0.20
 -15 -13   4    0.46    0.21
 -15  13  -4    0.00    0.17
 -15  13  -4    0.63    0.29
 -15 -13  -4    0.13    0.22
 -15  13   4    0.36    0.42
 -15 -13  -4    0.46    0.19
 -15 -13   5   11.50    0.85
 -15  13  -5   12.38    0.96
 -15  13  -5   11.16    0.85
 -15  13   5   11.27    1.42
 -15 -13  -5   11.48    0.85
 -15  13  -6    1.11    0.36
 -15  13  -6    0.87    0.27
 -15  13   6    1.46    0.60
 -15  13  -7   10.43    0.80
 -15  13  -7   10.21    0.90
 -15  13   7    7.45    1.20
 -15  14   0    0.19    0.29
 -15 -14   0   -0.01    0.19
 -15  14   0   -0.06    0.18
 -15 -14   1   -0.21    0.17
 -15  14  -1   -0.03    0.24
 -15  14  -1   -0.03    0.17
 -15 -14  -1    0.00    0.20
 -15  14   1    0.10    0.38
 -15 -14   2    7.10    0.60
 -15  14  -2    5.36    0.68
 -15  14  -2    6.50    0.56
 -15 -14  -2    5.64    0.58
 -15  14   2    8.01    1.01
 -15  14  -3    5.63    0.68
 -15  14  -3    5.69    0.57
 -15 -14   3    6.85    0.61
 -15 -14  -3    5.94    0.55
 -15 -14  -3    5.53    0.57
 -15  14   3    6.99    1.04
 -15 -14   4    1.11    0.27
 -15  14  -4    0.91    0.24
 -15  14  -4    0.71    0.36
 -15  14  -4    0.85    0.31
 -15 -14  -4    0.51    0.24
 -15  14   4    0.97    0.58
 -15  14  -5    2.47    0.46
 -15  14  -5    3.22    0.39
 -15 -14   5    2.30    0.38
 -15 -14  -5    3.04    0.40
 -15  14   5    2.46    0.73
 -15  14  -6   11.46    0.95
 -15  14  -6    9.91    0.81
 -15  14   6    8.30    1.29
 -15  15   0    0.42    0.32
 -15  15   0   -0.42    0.17
 -15 -15   0    0.04    0.21
 -15 -15   1   18.49    1.27
 -15  15  -1   20.10    1.45
 -15  15  -1   18.77    1.27
 -15  15   1   21.27    1.62
 -15 -15  -1   15.95    1.24
 -15  15  -2    1.36    0.29
 -15 -15   2    1.00    0.26
 -15  15  -2    1.27    0.36
 -15  15   2    1.70    0.58
 -15 -15  -2    0.67    0.29
 -15  15  -3   10.56    0.81
 -15  15  -3   10.81    0.95
 -15 -15   3   11.20    0.82
 -15 -15  -3   10.14    0.81
 -15 -15  -3   10.31    0.83
 -15  15   3   10.09    1.30
 -15  15  -4    1.15    0.37
 -15 -15   4    1.54    0.33
 -15  15  -4    1.33    0.29
 -15  15   4    1.69    0.66
 -15 -15  -4    1.15    0.29
 -15 -15   5    4.40    0.50
 -15  15  -5    5.43    0.66
 -15  15   5    3.31    0.82
 -15 -15  -5    4.71    0.52
 -15  15  -6    1.05    0.31
 -15  15  -6    0.78    0.34
 -15  15   6    0.98    0.55
 -15  16   0    0.25    0.33
 -15 -16   0    0.02    0.22
 -15  16   0   -0.11    0.21
 -15 -16   1   -0.07    0.24
 -15  16  -1   -0.39    0.21
 -15  16  -1   -0.16    0.29
 -15 -16  -1    0.08    0.25
 -15  16   1   -0.33    0.36
 -15  16  -2    1.30    0.30
 -15  16  -2    0.89    0.36
 -15 -16   2    1.33    0.31
 -15 -16  -2    1.24    0.32
 -15  16   2    1.12    0.53
 -15  16  -3    3.53    0.57
 -15 -16   3    4.22    0.50
 -15  16  -3    3.30    0.45
 -15 -16  -3    3.21    0.45
 -15  16   3    4.14    0.87
 -15  16  -4    2.93    0.41
 -15  16  -4    2.44    0.51
 -15 -16   4    2.88    0.42
 -15 -16  -4    2.29    0.38
 -15  16   4    2.52    0.76
 -15  16  -5    0.36    0.32
 -15 -16   5    0.41    0.28
 -15  16   5    0.14    0.52
 -15 -16  -5   -0.14    0.22
 -15  17   0   -0.28    0.38
 -15  17   0   -0.32    0.25
 -15 -17   0    0.16    0.27
 -15  17  -1    7.88    0.93
 -15  17  -1    7.31    0.68
 -15 -17   1    5.42    0.63
 -15 -17  -1    5.88    0.64
 -15  17   1   10.26    1.16
 -15  17  -2    0.19    0.30
 -15 -17   2    0.16    0.27
 -15  17  -2   -0.25    0.22
 -15  17   2    0.09    0.48
 -15 -17  -2    0.28    0.24
 -15  17  -3    5.35    0.57
 -15  17  -3    5.09    0.68
 -15 -17   3    4.06    0.52
 -15 -17  -3    4.30    0.53
 -15  17   3    4.27    0.92
 -15 -17   4    3.49    0.49
 -15  17  -4    2.93    0.54
 -15  17  -4    4.89    0.56
 -15 -17  -4    2.73    0.43
 -15  17   4    4.17    0.97
 -15 -18   0    0.19    0.25
 -15  18   0    0.19    0.27
 -15  18   0    0.08    0.45
 -15  18  -1    8.93    0.81
 -15 -18   1    7.10    0.76
 -15  18  -1    8.21    1.00
 -15  18   1    9.63    1.16
 -15 -18  -1    7.82    0.76
 -15  18  -2    1.36    0.44
 -15 -18   2    1.22    0.34
 -15  18  -2    1.61    0.39
 -15  18   2    2.88    0.76
 -15 -18  -2    1.32    0.34
 -16   0   0   91.24    5.37
 -16   0   0   93.02    5.34
 -16   0  -2    6.92    0.54
 -16   0  -2    7.43    0.54
 -16   0   2    7.59    0.48
 -16   0  -2    7.63    0.54
 -16   0   2    8.00    0.53
 -16   0  -3    0.07    0.12
 -16   0  -3   -0.09    0.13
 -16   0  -3    0.04    0.12
 -16   0   3    0.12    0.11
 -16   0  -4   48.18    2.92
 -16   0  -4   48.93    2.97
 -16   0   4   50.84    2.91
 -16   0  -4   48.60    2.94
 -16   0  -5    0.09    0.12
 -16   0  -5   -0.16    0.13
 -16   0   5    0.10    0.11
 -16   0  -5    0.04    0.17
 -16   0  -6   52.57    3.20
 -16   0  -6   53.86    3.25
 -16   0  -7   -0.02    0.23
 -16   0  -7    0.01    0.18
 -16   0  -8    5.51    0.63
 -16   0  -8    6.33    0.59
 -16   0  -9   -0.26    0.23
 -16   0  -9    0.31    0.24
 -16  -1   0    0.83    0.12
 -16  -1   0    0.36    0.15
 -16   1   0    0.63    0.14
 -16   1   0    0.38    0.14
 -16   1   0    0.84    0.14
 -16  -1   1    0.40    0.13
 -16   1  -1    0.17    0.11
 -16   1  -1    0.34    0.12
 -16  -1   1    0.30    0.07
 -16   1  -1    0.12    0.12
 -16  -1  -1    0.35    0.14
 -16  -1  -1    0.14    0.11
 -16   1   1    0.26    0.13
 -16  -1  -1    0.14    0.11
 -16   1   1    0.24    0.08
 -16  -1   2   11.21    0.71
 -16   1  -2   10.52    0.72
 -16   1  -2   10.25    0.70
 -16   1  -2    9.41    0.71
 -16  -1  -2   10.93    0.72
 -16  -1  -2   11.34    0.72
 -16  -1  -2    9.62    0.71
 -16   1   2   10.57    0.70
 -16   1   2   11.03    0.67
 -16   1  -3    5.00    0.41
 -16   1  -3    5.18    0.44
 -16   1  -3    4.86    0.40
 -16  -1   3    5.68    0.40
 -16  -1  -3    5.00    0.40
 -16  -1  -3    4.83    0.42
 -16   1   3    4.41    0.39
 -16  -1  -3    5.10    0.40
 -16   1   3    5.08    0.39
 -16   1  -4   -0.05    0.12
 -16   1  -4   -0.19    0.12
 -16   1  -4    0.11    0.16
 -16  -1   4   -0.07    0.11
 -16  -1  -4   -0.02    0.16
 -16  -1  -4   -0.18    0.11
 -16  -1  -4    0.27    0.13
 -16   1   4   -0.04    0.11
 -16  -1   5    5.35    0.38
 -16   1  -5    4.29    0.47
 -16   1  -5    3.55    0.40
 -16   1  -5    4.74    0.38
 -16  -1  -5    4.33    0.37
 -16  -1  -5    4.30    0.43
 -16   1   5    4.51    0.36
 -16  -1  -5    4.54    0.47
 -16   1  -6    2.97    0.35
 -16   1  -6    2.26    0.36
 -16  -1  -6    2.00    0.30
 -16  -1  -6    2.92    0.39
 -16   1  -7   16.21    1.16
 -16   1  -7   17.86    1.24
 -16  -1  -7   17.22    1.17
 -16  -1  -7   18.42    1.24
 -16   1  -8    0.13    0.24
 -16   1  -8    0.14    0.23
 -16  -1  -8   -0.09    0.26
 -16  -1  -8    0.12    0.20
 -16   1  -9    5.24    0.66
 -16   1  -9    6.69    0.64
 -16  -1  -9    5.35    0.67
 -16  -1  -9    6.31    0.63
 -16   2   0   30.04    1.82
 -16   2   0   31.61    1.80
 -16   2   0   31.20    1.80
 -16  -2   0   29.00    1.77
 -16  -2   0   28.25    1.81
 -16   2  -1   19.81    1.22
 -16   2  -1   19.34    1.21
 -16  -2   1   21.07    1.23
 -16  -2   1   18.36    1.16
 -16   2  -1   19.69    1.22
 -16  -2  -1   20.50    1.20
 -16  -2  -1   21.76    1.24
 -16  -2  -1   18.24    1.22
 -16   2   1   18.72    1.20
 -16   2   1   19.77    1.22
 -16  -2   2   24.15    1.57
 -16   2  -2   26.21    1.57
 -16   2  -2   25.48    1.58
 -16   2  -2   28.11    1.60
 -16   2   2   26.11    1.57
 -16  -2  -2   24.91    1.58
 -16  -2  -2   26.64    1.58
 -16  -2  -2   23.85    1.57
 -16   2   2   26.26    1.57
 -16   2  -3   33.27    1.91
 -16  -2   3   31.57    1.86
 -16   2  -3   30.42    1.87
 -16   2  -3   30.58    1.87
 -16   2   3   27.76    1.89
 -16  -2  -3   31.43    1.89
 -16  -2  -3   30.94    1.87
 -16  -2  -3   31.41    1.88
 -16   2   3   29.97    1.85
 -16   2  -4   51.21    2.96
 -16   2  -4   49.72    3.00
 -16  -2   4   49.37    2.93
 -16   2  -4   49.74    2.94
 -16  -2  -4   48.19    2.98
 -16  -2  -4   49.76    2.96
 -16   2   4   50.02    2.93
 -16  -2  -4   48.87    2.94
 -16   2  -5    1.41    0.28
 -16   2  -5    1.23    0.20
 -16  -2   5    1.50    0.20
 -16   2  -5    1.23    0.23
 -16  -2  -5    1.46    0.27
 -16   2   5    1.25    0.19
 -16  -2  -5    1.53    0.22
 -16  -2  -5    1.43    0.23
 -16   2  -6    0.86    0.24
 -16   2  -6    0.87    0.26
 -16  -2  -6    1.01    0.26
 -16  -2  -6    1.09    0.24
 -16   2  -7    3.99    0.44
 -16   2  -7    3.82    0.51
 -16  -2  -7    4.55    0.53
 -16  -2  -7    4.03    0.45
 -16   2  -8    0.73    0.26
 -16   2  -8    1.10    0.34
 -16  -2  -8    0.32    0.24
 -16  -2  -8    0.23    0.26
 -16   2  -9    1.74    0.40
 -16   2  -9    2.11    0.37
 -16  -2  -9    1.69    0.43
 -16  -2  -9    2.21    0.39
 -16  -3   0   18.42    1.18
 -16   3   0   18.56    1.17
 -16   3   0   19.19    1.18
 -16  -3   0   19.19    1.12
 -16   3   0   18.29    1.15
 -16  -3   1    0.15    0.11
 -16   3  -1    0.08    0.11
 -16   3  -1    0.14    0.12
 -16   3  -1    0.07    0.11
 -16  -3  -1   -0.06    0.12
 -16  -3  -1    0.12    0.10
 -16   3   1    0.10    0.11
 -16   3   1    0.11    0.09
 -16   3   1    0.25    0.11
 -16   3  -2   68.30    4.08
 -16   3  -2   71.80    4.07
 -16  -3   2   68.24    4.06
 -16   3  -2   68.46    4.06
 -16  -3  -2   70.17    4.07
 -16  -3  -2   73.08    4.08
 -16  -3  -2   65.98    4.06
 -16   3   2   67.67    4.08
 -16   3   2   70.40    4.06
 -16  -3   3    2.53    0.26
 -16   3  -3    2.04    0.25
 -16   3  -3    1.94    0.27
 -16   3  -3    2.24    0.27
 -16  -3  -3    1.87    0.25
 -16  -3  -3    2.29    0.27
 -16   3   3    1.93    0.24
 -16   3   3    1.78    0.30
 -16  -3  -3    1.85    0.26
 -16   3  -4   12.94    0.87
 -16   3  -4   13.16    0.89
 -16  -3   4   14.03    0.87
 -16   3  -4   14.16    0.94
 -16   3   4   13.59    0.87
 -16  -3  -4   12.53    0.88
 -16  -3  -4   13.07    0.89
 -16  -3  -4   13.61    0.92
 -16  -3   5   -0.19    0.12
 -16   3  -5   -0.08    0.18
 -16   3  -5    0.14    0.13
 -16   3  -5    0.12    0.16
 -16  -3  -5   -0.04    0.13
 -16  -3  -5    0.15    0.17
 -16   3   5    0.17    0.13
 -16  -3  -5    0.00    0.18
 -16   3  -6   18.21    1.19
 -16   3  -6   19.03    1.25
 -16  -3  -6   17.66    1.19
 -16  -3  -6   17.25    1.23
 -16   3  -7    4.30    0.53
 -16   3  -7    4.20    0.47
 -16  -3  -7    4.40    0.53
 -16  -3  -7    5.19    0.50
 -16   3  -8    0.23    0.25
 -16   3  -8    0.11    0.21
 -16  -3  -8    0.61    0.31
 -16  -3  -8    0.28    0.23
 -16   3  -9    3.94    0.55
 -16   3  -9    4.16    0.50
 -16  -3  -9    3.50    0.53
 -16  -3  -9    3.94    0.47
 -16   4   0   12.62    0.84
 -16   4   0   11.97    0.83
 -16  -4   0   13.90    0.78
 -16  -4   0   11.26    0.83
 -16   4   0   13.21    0.81
 -16   4  -1    2.29    0.25
 -16   4  -1    2.00    0.25
 -16  -4   1    2.02    0.25
 -16   4  -1    2.36    0.26
 -16   4   1    2.62    0.27
 -16   4   1    2.46    0.26
 -16  -4  -1    2.34    0.27
 -16   4   1    1.97    0.21
 -16  -4  -1    2.18    0.22
 -16   4  -2    0.63    0.16
 -16   4  -2    0.50    0.14
 -16  -4   2    0.59    0.15
 -16   4  -2    0.48    0.17
 -16  -4  -2    0.21    0.13
 -16   4   2    0.35    0.13
 -16  -4  -2    0.90    0.18
 -16  -4  -2    0.56    0.15
 -16   4   2    0.53    0.17
 -16  -4   3   48.04    2.74
 -16   4  -3   46.11    2.74
 -16   4  -3   48.61    2.79
 -16   4  -3   45.38    2.74
 -16  -4  -3   46.29    2.75
 -16  -4  -3   47.99    2.75
 -16  -4  -3   47.49    2.75
 -16   4   3   45.62    2.73
 -16   4   3   37.74    2.82
 -16  -4   4    2.12    0.26
 -16   4  -4    2.54    0.35
 -16   4  -4    2.64    0.29
 -16   4  -4    2.57    0.30
 -16  -4  -4    2.50    0.30
 -16  -4  -4    2.43    0.27
 -16   4   4    2.62    0.28
 -16   4   4    2.22    0.41
 -16  -4  -4    2.11    0.31
 -16   4  -5   20.71    1.24
 -16  -4   5   20.29    1.23
 -16   4  -5   19.55    1.27
 -16   4  -5   19.70    1.32
 -16  -4  -5   19.14    1.24
 -16  -4  -5   20.50    1.32
 -16   4   5   19.51    1.23
 -16   4   5   16.66    1.54
 -16  -4  -5   19.80    1.27
 -16   4  -6    3.32    0.38
 -16   4  -6    3.08    0.42
 -16  -4  -6    2.82    0.42
 -16  -4  -6    3.40    0.37
 -16   4  -7    0.38    0.24
 -16   4  -7    0.14    0.20
 -16  -4  -7    0.56    0.22
 -16  -4  -7    0.25    0.24
 -16   4  -8   -0.30    0.21
 -16   4  -8   -0.15    0.20
 -16  -4  -8   -0.33    0.22
 -16  -4  -8   -0.09    0.19
 -16   4  -9   15.58    1.13
 -16   4  -9   14.20    1.17
 -16  -4  -9   16.38    1.13
 -16  -4  -9   15.10    1.17
 -16   5   0   41.76    2.42
 -16   5   0   39.94    2.44
 -16  -5   0   40.08    2.43
 -16   5   0   40.03    2.39
 -16  -5   1   -0.07    0.11
 -16   5  -1    0.35    0.15
 -16   5  -1    0.02    0.13
 -16   5  -1   -0.08    0.08
 -16  -5  -1   -0.04    0.09
 -16   5   1    0.05    0.10
 -16   5   1   -0.03    0.08
 -16   5   1   -0.07    0.11
 -16  -5  -1    0.01    0.12
 -16   5  -2   41.26    2.51
 -16   5  -2   44.07    2.53
 -16   5  -2   43.49    2.55
 -16  -5   2   40.28    2.52
 -16  -5  -2   41.25    2.50
 -16   5   2   41.29    2.47
 -16  -5  -2   43.65    2.54
 -16   5   2   39.71    2.51
 -16  -5  -2   42.56    2.53
 -16   5   2   44.64    2.61
 -16   5  -3    1.52    0.24
 -16   5  -3    1.86    0.25
 -16  -5   3    2.28    0.26
 -16   5  -3    2.56    0.33
 -16  -5  -3    2.17    0.27
 -16  -5  -3    1.93    0.27
 -16  -5  -3    1.83    0.25
 -16   5   3    1.97    0.37
 -16   5   3    2.27    0.26
 -16   5  -4   10.99    0.75
 -16   5  -4   11.46    0.74
 -16   5  -4   10.98    0.81
 -16  -5   4   10.36    0.73
 -16   5   4    8.55    0.89
 -16  -5  -4   10.62    0.77
 -16   5   4   10.74    0.73
 -16  -5  -4   10.99    0.76
 -16  -5  -4   11.17    0.74
 -16  -5   5   20.30    1.25
 -16   5  -5   20.85    1.25
 -16   5  -5   19.95    1.35
 -16   5  -5   19.26    1.28
 -16  -5  -5   19.03    1.27
 -16  -5  -5   19.38    1.31
 -16   5   5   20.60    1.25
 -16   5   5   18.20    1.49
 -16  -5  -5   20.20    1.26
 -16   5  -6    1.83    0.29
 -16   5  -6    1.62    0.33
 -16  -5  -6    1.35    0.29
 -16  -5  -6    1.71    0.28
 -16   5  -7   -0.19    0.18
 -16   5  -7   -0.18    0.19
 -16  -5  -7    0.07    0.21
 -16  -5  -7   -0.34    0.22
 -16   5  -8    3.63    0.45
 -16   5  -8    3.30    0.49
 -16  -5  -8    3.78    0.53
 -16  -5  -8    4.37    0.47
 -16   5  -9    0.07    0.24
 -16   5  -9   -0.15    0.27
 -16  -5  -9   -0.32    0.30
 -16  -5  -9    0.12    0.25
 -16   6   0    0.28    0.15
 -16   6   0    0.10    0.14
 -16  -6   0   -0.08    0.12
 -16   6   0    0.14    0.10
 -16   6  -1    5.89    0.46
 -16  -6   1    5.40    0.45
 -16   6  -1    5.27    0.41
 -16   6  -1    5.11    0.44
 -16   6   1    5.18    0.44
 -16  -6  -1    5.48    0.45
 -16  -6  -1    5.57    0.39
 -16   6   1    5.73    0.49
 -16   6   1    5.32    0.39
 -16   6  -2   16.97    1.09
 -16   6  -2   18.27    1.11
 -16  -6   2   16.12    1.10
 -16   6  -2   17.96    1.15
 -16  -6  -2   18.90    1.10
 -16  -6  -2   17.75    1.13
 -16   6   2   16.60    1.05
 -16  -6  -2   16.09    1.12
 -16   6   2   16.50    1.10
 -16   6   2   18.63    1.22
 -16   6  -3   31.23    1.84
 -16   6  -3   29.83    1.89
 -16  -6   3   29.13    1.84
 -16   6  -3   29.73    1.84
 -16   6   3   31.36    1.84
 -16   6   3   26.91    2.00
 -16  -6  -3   30.82    1.86
 -16  -6  -3   31.26    1.86
 -16  -6  -3   30.56    1.85
 -16   6  -4    0.01    0.11
 -16   6  -4    0.29    0.18
 -16   6  -4    0.29    0.21
 -16  -6   4    0.15    0.15
 -16   6   4    0.25    0.14
 -16  -6  -4    0.19    0.17
 -16   6   4    0.24    0.27
 -16  -6  -4   -0.16    0.12
 -16  -6  -4    0.14    0.14
 -16   6  -5   66.38    3.71
 -16  -6   5   66.05    3.71
 -16   6  -5   62.22    3.79
 -16   6  -5   63.20    3.74
 -16  -6  -5   66.91    3.74
 -16   6   5   51.91    3.96
 -16   6   5   58.82    3.70
 -16  -6  -5   63.55    3.77
 -16  -6  -5   63.21    3.71
 -16   6  -6    0.24    0.23
 -16   6  -6    0.49    0.23
 -16  -6  -6    0.20    0.21
 -16  -6  -6    0.37    0.20
 -16   6  -7    3.26    0.46
 -16   6  -7    2.26    0.36
 -16  -6  -7    3.50    0.46
 -16  -6  -7    2.80    0.38
 -16   6  -8    0.40    0.24
 -16   6  -8    0.86    0.30
 -16  -6  -8    0.43    0.29
 -16  -6  -8    0.72    0.25
 -16   6  -9    4.99    0.57
 -16   6  -9    3.68    0.57
 -16  -6  -9    5.77    0.67
 -16  -6  -9    5.15    0.56
 -16   7   0   57.18    3.44
 -16   7   0   60.39    3.50
 -16   7   0   58.66    3.40
 -16  -7   0   56.26    3.45
 -16   7  -1    0.27    0.14
 -16   7  -1    0.35    0.13
 -16  -7   1    0.17    0.14
 -16   7  -1    0.37    0.15
 -16   7   1    0.15    0.16
 -16  -7  -1    0.23    0.16
 -16   7   1    0.60    0.16
 -16   7   1    0.26    0.10
 -16   7  -2   33.29    2.09
 -16   7  -2   34.32    2.13
 -16  -7   2   33.75    2.09
 -16   7  -2   34.30    2.07
 -16  -7  -2   34.53    2.10
 -16  -7  -2   36.55    2.08
 -16   7   2   34.95    2.24
 -16   7   2   33.72    2.08
 -16   7  -3    0.55    0.20
 -16   7  -3    0.54    0.18
 -16   7  -3    0.94    0.20
 -16  -7   3    0.56    0.17
 -16   7   3    0.69    0.17
 -16   7   3    0.10    0.24
 -16  -7  -3    1.00    0.21
 -16  -7  -3    0.55    0.18
 -16  -7  -3    0.71    0.18
 -16  -7   4   32.65    1.93
 -16   7  -4   31.63    1.99
 -16   7  -4   30.76    1.94
 -16   7  -4   30.85    1.92
 -16  -7  -4   35.04    1.97
 -16  -7  -4   33.04    1.94
 -16   7   4   31.24    1.92
 -16   7   4   23.30    2.12
 -16  -7  -4   32.49    1.94
 -16   7  -5    0.54    0.26
 -16   7  -5    0.64    0.17
 -16  -7   5    0.89    0.19
 -16   7  -5    1.00    0.23
 -16  -7  -5    1.00    0.26
 -16   7   5    0.42    0.35
 -16  -7  -5    0.61    0.19
 -16  -7  -5    0.82    0.20
 -16   7  -6    0.02    0.20
 -16   7  -6   -0.16    0.18
 -16  -7  -6    0.01    0.19
 -16  -7  -6   -0.06    0.15
 -16   7  -7    0.06    0.22
 -16   7  -7    0.46    0.24
 -16  -7  -7    0.22    0.23
 -16  -7  -7    0.56    0.22
 -16   7  -8   14.34    1.13
 -16   7  -8   14.17    1.06
 -16  -7  -8   15.10    1.06
 -16  -7  -8   14.95    1.11
 -16   7  -9    1.61    0.36
 -16   7  -9    1.24    0.36
 -16  -7  -9    1.72    0.43
 -16  -7  -9    1.23    0.35
 -16   8   0   11.97    0.82
 -16   8   0   10.08    0.74
 -16   8   0   10.73    0.69
 -16  -8   0   10.29    0.75
 -16   8  -1    4.44    0.40
 -16  -8   1    4.49    0.42
 -16   8  -1    4.01    0.34
 -16   8  -1    4.38    0.45
 -16   8   1    4.14    0.50
 -16   8   1    3.76    0.39
 -16  -8  -1    3.86    0.40
 -16   8  -2   22.00    1.36
 -16   8  -2   22.04    1.43
 -16   8  -2   20.88    1.38
 -16  -8   2   21.48    1.38
 -16   8   2   23.74    1.58
 -16   8   2   21.44    1.38
 -16  -8  -2   22.75    1.39
 -16   8  -3   12.32    0.83
 -16   8  -3   12.18    0.83
 -16   8  -3   12.05    0.88
 -16  -8   3   12.19    0.83
 -16  -8  -3   11.59    0.83
 -16   8   3   12.34    1.08
 -16  -8  -3   12.74    0.85
 -16   8   3   12.42    0.83
 -16  -8  -3   12.01    0.83
 -16   8  -4   14.24    0.93
 -16   8  -4   14.69    0.95
 -16  -8   4   14.85    0.94
 -16   8  -4   13.30    1.00
 -16  -8  -4   14.23    0.96
 -16   8   4   11.65    1.31
 -16  -8  -4   13.32    0.93
 -16  -8  -4   13.67    0.94
 -16  -8   5   11.82    0.81
 -16   8  -5   11.09    0.89
 -16   8  -5   10.96    0.83
 -16   8  -5   12.45    0.81
 -16  -8  -5   12.40    0.83
 -16   8   5   10.10    1.22
 -16  -8  -5   11.99    0.82
 -16  -8  -5   11.89    0.87
 -16   8  -6    9.66    0.73
 -16   8  -6    9.67    0.81
 -16  -8  -6    8.86    0.75
 -16  -8  -6    9.48    0.72
 -16   8   6    9.03    1.11
 -16   8  -7    2.26    0.42
 -16   8  -7    1.59    0.34
 -16  -8  -7    1.27    0.35
 -16  -8  -7    1.52    0.29
 -16   8  -8    2.01    0.37
 -16   8  -8    1.97    0.39
 -16  -8  -8    1.16    0.29
 -16  -8  -8    1.42    0.38
 -16   9   0   20.11    1.32
 -16   9   0   21.49    1.42
 -16  -9   0   20.52    1.33
 -16   9   0   20.91    1.27
 -16   9  -1    0.28    0.14
 -16   9  -1   -0.04    0.16
 -16  -9   1    0.11    0.16
 -16   9  -1    0.26    0.15
 -16   9   1    0.32    0.22
 -16  -9  -1   -0.01    0.14
 -16   9   1   -0.15    0.14
 -16   9  -2   -0.29    0.13
 -16   9  -2    0.23    0.16
 -16   9  -2   -0.16    0.13
 -16  -9   2    0.16    0.16
 -16  -9  -2    0.14    0.17
 -16   9   2   -0.18    0.14
 -16   9   2    0.14    0.22
 -16   9  -3    2.23    0.34
 -16   9  -3    2.43    0.29
 -16  -9   3    2.47    0.31
 -16   9  -3    2.47    0.29
 -16  -9  -3    2.26    0.30
 -16  -9  -3    2.16    0.29
 -16   9   3    1.35    0.42
 -16  -9   4   10.96    0.76
 -16   9  -4   11.45    0.78
 -16   9  -4   11.05    0.84
 -16   9  -4   11.03    0.76
 -16  -9  -4   11.33    0.78
 -16  -9  -4   11.31    0.77
 -16   9   4    9.41    1.14
 -16  -9  -4    9.87    0.78
 -16   9  -5   13.81    1.00
 -16   9  -5   15.89    0.99
 -16  -9   5   15.62    0.99
 -16   9  -5   15.43    1.09
 -16  -9  -5   13.05    1.02
 -16  -9  -5   14.78    0.99
 -16  -9  -5   15.95    1.00
 -16   9   5   11.84    1.40
 -16   9  -6    0.62    0.24
 -16   9  -6    0.60    0.28
 -16  -9  -6    0.64    0.25
 -16  -9  -6    0.36    0.21
 -16   9   6    0.10    0.36
 -16   9  -7    2.50    0.39
 -16   9  -7    1.74    0.39
 -16  -9  -7    2.27    0.34
 -16  -9  -7    1.96    0.40
 -16   9  -8    0.91    0.33
 -16   9  -8    0.66    0.29
 -16  -9  -8    0.40    0.30
 -16  -9  -8    0.85    0.28
 -16  10   0   21.63    1.45
 -16 -10   0   22.83    1.47
 -16  10   0   24.89    1.58
 -16  10  -1    0.36    0.21
 -16  10  -1    0.10    0.16
 -16  10  -1    0.25    0.14
 -16 -10   1    0.08    0.16
 -16 -10  -1   -0.04    0.17
 -16  10   1    0.21    0.17
 -16  10   1    0.76    0.29
 -16 -10   2    1.90    0.28
 -16  10  -2    2.08    0.26
 -16  10  -2    2.08    0.28
 -16  10  -2    1.75    0.33
 -16  10   2    2.47    0.49
 -16 -10  -2    2.17    0.30
 -16  10   2    2.20    0.30
 -16 -10   3    2.70    0.33
 -16  10  -3    2.21    0.36
 -16  10  -3    2.51    0.30
 -16  10  -3    2.52    0.31
 -16  10   3    2.31    0.52
 -16 -10  -3    2.33    0.31
 -16 -10  -3    1.74    0.28
 -16  10  -4    2.36    0.32
 -16  10  -4    2.11    0.28
 -16 -10   4    2.49    0.32
 -16  10  -4    1.73    0.34
 -16 -10  -4    2.43    0.30
 -16 -10  -4    2.35    0.32
 -16  10   4    2.19    0.56
 -16  10  -5    3.47    0.35
 -16  10  -5    3.47    0.40
 -16  10  -5    2.58    0.41
 -16 -10   5    2.29    0.33
 -16 -10  -5    2.93    0.36
 -16 -10  -5    2.61    0.33
 -16  10   5    1.90    0.57
 -16  10  -6    1.07    0.29
 -16  10  -6    0.88    0.31
 -16  10   6    1.27    0.51
 -16 -10  -6    0.91    0.25
 -16 -10  -6    0.88    0.30
 -16  10  -7    1.50    0.36
 -16  10  -7    1.06    0.32
 -16 -10  -7    0.93    0.33
 -16  10   7    1.51    0.56
 -16 -10  -7    0.59    0.25
 -16  10  -8    0.73    0.31
 -16  10  -8    0.55    0.27
 -16 -10  -8    0.28    0.28
 -16  11   0   14.05    0.99
 -16  11   0   17.46    1.16
 -16 -11   0   13.77    1.00
 -16  11  -1    0.42    0.22
 -16 -11   1    0.28    0.20
 -16  11  -1    0.39    0.20
 -16  11   1    0.78    0.31
 -16 -11  -1    0.64    0.21
 -16  11   1    0.54    0.19
 -16  11  -2    4.87    0.53
 -16  11  -2    3.53    0.40
 -16  11  -2    4.53    0.39
 -16 -11   2    3.21    0.39
 -16 -11  -2    3.71    0.42
 -16  11   2    4.87    0.71
 -16  11  -3    0.90    0.27
 -16  11  -3    1.44    0.24
 -16  11  -3    0.98    0.21
 -16 -11   3    0.95    0.23
 -16  11   3    1.28    0.46
 -16 -11  -3    1.14    0.23
 -16 -11  -3    0.95    0.25
 -16  11  -4    0.63    0.19
 -16 -11   4    0.55    0.22
 -16  11  -4    0.57    0.25
 -16  11  -4    0.76    0.23
 -16 -11  -4    0.46    0.17
 -16 -11  -4    0.20    0.22
 -16  11   4    0.49    0.45
 -16  11  -5    5.14    0.54
 -16  11  -5    5.58    0.64
 -16  11  -5    7.27    0.69
 -16 -11   5    6.91    0.54
 -16 -11  -5    6.12    0.54
 -16  11   5    4.65    0.89
 -16 -11  -5    6.17    0.56
 -16  11  -6    0.87    0.31
 -16  11  -6    0.66    0.26
 -16  11   6    0.87    0.48
 -16 -11  -6    0.75    0.22
 -16  11  -7   13.03    0.92
 -16  11  -7   11.63    0.96
 -16  11   7    8.42    1.25
 -16 -12   0    0.98    0.24
 -16  12   0    1.49    0.36
 -16  12   0    1.30    0.25
 -16 -12   1    1.13    0.26
 -16  12  -1    1.85    0.36
 -16  12  -1    1.27    0.27
 -16  12   1    1.51    0.40
 -16 -12  -1    1.82    0.31
 -16  12   1    1.19    0.25
 -16  12  -2    8.84    0.76
 -16 -12   2    8.18    0.64
 -16  12  -2    8.22    0.63
 -16 -12  -2    6.76    0.63
 -16  12   2   10.32    1.08
 -16 -12   3   -0.46    0.17
 -16  12  -3   -0.21    0.19
 -16  12  -3   -0.07    0.17
 -16  12  -3    0.28    0.19
 -16 -12  -3   -0.14    0.19
 -16 -12  -3    0.00    0.16
 -16  12   3    0.10    0.39
 -16 -12   4   -0.05    0.20
 -16  12  -4    0.41    0.23
 -16  12  -4   -0.22    0.16
 -16  12  -4   -0.03    0.16
 -16  12   4    0.00    0.41
 -16 -12  -4   -0.01    0.19
 -16 -12  -4   -0.07    0.14
 -16  12  -5    1.84    0.31
 -16 -12   5    2.01    0.30
 -16  12  -5    1.62    0.35
 -16 -12  -5    2.47    0.35
 -16  12   5    2.07    0.63
 -16 -12  -5    1.80    0.28
 -16  12  -6    0.61    0.28
 -16  12  -6    0.32    0.25
 -16  12   6    0.85    0.49
 -16  12  -7    1.00    0.31
 -16  12  -7    0.95    0.32
 -16  12   7    1.08    0.53
 -16 -13   0   12.12    0.97
 -16  13   0   14.63    0.99
 -16  13   0   16.25    1.20
 -16 -13   1    3.00    0.38
 -16  13  -1    4.40    0.57
 -16  13  -1    2.59    0.37
 -16  13   1    3.73    0.41
 -16 -13  -1    2.47    0.37
 -16  13   1    4.09    0.63
 -16  13  -2    4.95    0.60
 -16 -13   2    4.90    0.50
 -16  13  -2    4.66    0.49
 -16 -13  -2    4.91    0.50
 -16  13   2    5.94    0.84
 -16  13  -3    1.50    0.28
 -16  13  -3    0.46    0.26
 -16 -13   3    1.26    0.26
 -16 -13  -3    0.83    0.28
 -16 -13  -3    1.38    0.26
 -16  13   3    1.41    0.53
 -16  13  -4    5.69    0.51
 -16  13  -4    5.07    0.61
 -16 -13   4    5.53    0.53
 -16  13  -4    5.18    0.51
 -16 -13  -4    4.87    0.49
 -16  13   4    4.58    0.92
 -16 -13  -4    5.86    0.56
 -16  13  -5   -0.12    0.21
 -16  13  -5    0.15    0.24
 -16 -13   5   -0.37    0.18
 -16  13   5   -0.53    0.40
 -16 -13  -5    0.17    0.22
 -16  13  -6    2.42    0.47
 -16  13  -6    3.37    0.44
 -16  13   6    2.29    0.71
 -16  14   0    1.59    0.45
 -16  14   0    0.62    0.24
 -16 -14   0    1.32    0.29
 -16  14  -1    6.40    0.61
 -16 -14   1    7.47    0.63
 -16  14  -1    6.64    0.76
 -16 -14  -1    6.66    0.59
 -16  14   1    7.33    0.93
 -16  14   1    5.45    0.59
 -16  14  -2    2.14    0.33
 -16 -14   2    1.97    0.34
 -16  14  -2    3.01    0.47
 -16 -14  -2    2.31    0.36
 -16  14   2    3.10    0.65
 -16  14  -3   13.70    0.94
 -16 -14   3   12.88    0.94
 -16  14  -3   13.56    1.05
 -16 -14  -3   11.70    0.90
 -16 -14  -3   12.57    0.94
 -16  14   3   16.67    1.64
 -16 -14   4    0.10    0.22
 -16  14  -4    0.29    0.25
 -16  14  -4   -0.13    0.19
 -16 -14  -4   -0.10    0.15
 -16 -14  -4    0.06    0.21
 -16  14   4    0.32    0.44
 -16  14  -5    1.91    0.32
 -16 -14   5    1.07    0.31
 -16  14  -5    1.77    0.39
 -16 -14  -5    2.25    0.36
 -16  14   5    2.36    0.72
 -16  14  -6    0.59    0.29
 -16  14  -6    0.17    0.32
 -16  14   6    0.51    0.54
 -16  15   0   14.14    1.04
 -16  15   0   18.30    1.31
 -16 -15   0   12.75    1.04
 -16 -15   1    1.14    0.28
 -16  15  -1    0.84    0.39
 -16  15  -1    0.92    0.29
 -16 -15  -1    0.62    0.26
 -16  15   1    1.20    0.43
 -16 -15   2   18.76    1.33
 -16  15  -2   19.88    1.34
 -16  15  -2   20.98    1.48
 -16 -15  -2   18.32    1.33
 -16  15   2   24.80    1.82
 -16  15  -3   -0.05    0.24
 -16  15  -3   -0.19    0.18
 -16 -15   3   -0.20    0.22
 -16  15   3    0.09    0.39
 -16 -15  -3   -0.41    0.22
 -16 -15  -3   -0.21    0.13
 -16 -15   4   13.39    1.02
 -16  15  -4   14.42    1.01
 -16  15  -4   14.53    1.14
 -16  15   4   14.05    1.64
 -16 -15  -4   14.98    1.04
 -16  15  -5    0.54    0.34
 -16 -15   5    0.50    0.25
 -16 -15  -5    0.68    0.27
 -16  15   5   -0.18    0.48
 -16  16   0    1.42    0.31
 -16  16   0    1.80    0.49
 -16 -16   0    0.79    0.30
 -16  16  -1    1.81    0.36
 -16 -16   1    1.71    0.35
 -16  16  -1    2.10    0.51
 -16  16   1    1.78    0.54
 -16 -16  -1    2.08    0.37
 -16  16  -2    0.00    0.24
 -16  16  -2    0.79    0.34
 -16 -16   2   -0.16    0.24
 -16 -16  -2    0.21    0.24
 -16  16   2    0.02    0.38
 -16 -16   3    8.06    0.76
 -16  16  -3    7.81    0.88
 -16  16  -3    9.28    0.73
 -16  16   3   10.60    1.32
 -16 -16  -3    6.99    0.73
 -16  16  -4    0.09    0.21
 -16 -16   4    0.24    0.25
 -16  16  -4   -0.09    0.28
 -16 -16  -4    0.08    0.23
 -16  16   4    0.07    0.47
 -16 -17   0    1.06    0.32
 -16  17   0    1.45    0.36
 -16  17   0    3.09    0.63
 -16  17  -1   -0.61    0.27
 -16  17  -1    0.00    0.26
 -16 -17   1   -0.10    0.25
 -16  17   1   -0.50    0.34
 -16 -17  -1    0.19    0.26
 -16 -17   2    6.95    0.73
 -16  17  -2    8.95    0.96
 -16  17  -2    8.85    0.77
 -16 -17  -2    7.95    0.78
 -16  17   2   12.13    1.35
 -16 -17   3    0.98    0.32
 -16  17  -3    0.84    0.29
 -16  17  -3    1.27    0.42
 -16  17   3    0.85    0.58
 -16 -17  -3    1.10    0.34
 -16 -18   0    3.18    0.49
 -16  18   0    3.53    0.49
 -16  18   0    3.61    0.71
 -16  18  -1    2.17    0.56
 -16 -18   1    1.49    0.36
 -16  18  -1    1.40    0.36
 -16 -18  -1    1.71    0.40
 -16  18   1    2.64    0.71
 -17   0   0    0.38    0.12
 -17   0   0    0.21    0.14
 -17   0   1  118.65    7.04
 -17   0  -1  122.24    7.04
 -17   0  -1  120.78    7.05
 -17   0  -1  120.91    7.03
 -17   0   1  123.28    6.99
 -17   0  -2    0.00    0.11
 -17   0   2    0.08    0.12
 -17   0  -2    0.06    0.11
 -17   0  -2   -0.07    0.10
 -17   0   3  116.75    6.79
 -17   0  -3  117.11    6.80
 -17   0  -3  117.60    6.80
 -17   0  -3  115.90    6.82
 -17   0  -4    0.21    0.16
 -17   0  -4    0.30    0.15
 -17   0  -4   -0.09    0.11
 -17   0   4   -0.09    0.11
 -17   0   5   16.52    1.02
 -17   0  -5   16.27    1.11
 -17   0  -5   15.50    1.06
 -17   0  -5   15.34    1.02
 -17   0  -6    0.07    0.20
 -17   0  -6    0.04    0.17
 -17   0  -7    6.06    0.65
 -17   0  -7    6.57    0.60
 -17   0  -8    0.18    0.25
 -17   0  -8    0.35    0.23
 -17   0  -9    0.39    0.30
 -17   0  -9    0.62    0.30
 -17  -1   0    0.29    0.09
 -17   1   0    0.26    0.11
 -17  -1   0    0.32    0.14
 -17   1   0    0.20    0.12
 -17   1  -1    1.44    0.21
 -17   1  -1    1.21    0.20
 -17  -1   1    1.15    0.20
 -17   1  -1    1.45    0.20
 -17  -1   1    0.88    0.18
 -17   1   1    1.63    0.17
 -17  -1  -1    1.36    0.19
 -17  -1  -1    1.69    0.22
 -17   1   1    1.07    0.20
 -17  -1  -1    1.01    0.19
 -17   1  -2    4.77    0.39
 -17   1  -2    4.38    0.37
 -17  -1   2    4.47    0.38
 -17   1  -2    4.75    0.39
 -17   1   2    3.72    0.38
 -17   1   2    4.67    0.33
 -17  -1  -2    4.16    0.38
 -17  -1  -2    4.52    0.38
 -17  -1  -2    4.57    0.38
 -17  -1   3    3.90    0.32
 -17   1  -3    3.49    0.37
 -17   1  -3    2.91    0.32
 -17   1  -3    2.53    0.31
 -17   1   3    3.15    0.31
 -17  -1  -3    2.95    0.34
 -17  -1  -3    3.01    0.32
 -17  -1  -3    2.97    0.32
 -17   1  -4   23.82    1.51
 -17   1  -4   23.58    1.48
 -17  -1   4   24.52    1.46
 -17   1  -4   24.90    1.47
 -17  -1  -4   23.42    1.47
 -17   1   4   22.46    1.45
 -17  -1  -4   22.88    1.50
 -17  -1  -4   23.76    1.48
 -17   1  -5    0.87    0.21
 -17   1  -5    0.86    0.26
 -17   1  -5    1.04    0.19
 -17  -1   5    1.33    0.19
 -17  -1  -5    1.09    0.25
 -17  -1  -5    1.01    0.22
 -17   1   5    0.89    0.18
 -17  -1  -5    1.25    0.21
 -17   1  -6   17.86    1.24
 -17   1  -6   16.53    1.17
 -17  -1  -6   18.22    1.23
 -17  -1  -6   17.93    1.17
 -17   1  -7    5.61    0.60
 -17   1  -7    4.40    0.50
 -17  -1  -7    5.42    0.53
 -17  -1  -7    4.98    0.58
 -17   1  -8   34.91    2.19
 -17   1  -8   35.46    2.27
 -17  -1  -8   33.84    2.17
 -17  -1  -8   34.23    2.25
 -17   1  -9    0.12    0.27
 -17   1  -9    0.36    0.32
 -17  -1  -9    0.09    0.30
 -17  -1  -9   -0.25    0.26
 -17  -2   0   -0.05    0.10
 -17   2   0    0.02    0.12
 -17   2   0   -0.02    0.10
 -17   2   0    0.16    0.10
 -17  -2   0   -0.01    0.08
 -17   2  -1   54.95    3.22
 -17  -2   1   54.78    3.24
 -17   2  -1   55.09    3.23
 -17   2  -1   56.46    3.24
 -17  -2  -1   56.80    3.25
 -17  -2  -1   53.60    3.24
 -17   2   1   54.07    3.23
 -17   2   1   54.23    3.21
 -17  -2  -1   52.56    3.20
 -17  -2   2    0.47    0.15
 -17   2  -2    0.38    0.15
 -17   2  -2    0.36    0.13
 -17   2  -2    0.59    0.15
 -17   2   2    0.41    0.14
 -17  -2  -2    0.27    0.14
 -17   2   2    0.36    0.11
 -17  -2  -2    0.41    0.15
 -17  -2  -2    0.42    0.15
 -17  -2   3   47.98    2.83
 -17   2  -3   49.09    2.88
 -17   2  -3   47.43    2.85
 -17   2  -3   48.08    2.85
 -17   2   3   48.57    2.84
 -17  -2  -3   45.08    2.85
 -17  -2  -3   47.13    2.85
 -17  -2  -3   48.65    2.86
 -17   2  -4    0.36    0.16
 -17   2  -4    0.34    0.15
 -17   2  -4    0.20    0.17
 -17  -2   4    0.54    0.16
 -17  -2  -4    0.26    0.16
 -17  -2  -4    0.19    0.15
 -17  -2  -4    0.04    0.17
 -17   2   4    0.49    0.15
 -17   2  -5    9.98    0.78
 -17   2  -5   10.78    0.76
 -17   2  -5    9.65    0.70
 -17  -2   5   10.78    0.70
 -17  -2  -5    9.94    0.74
 -17  -2  -5   11.37    0.79
 -17  -2  -5    9.76    0.70
 -17   2   5   10.05    0.69
 -17   2  -6    3.28    0.40
 -17   2  -6    3.99    0.48
 -17  -2  -6    3.70    0.41
 -17  -2  -6    3.84    0.46
 -17   2  -7    0.02    0.20
 -17   2  -7    0.01    0.22
 -17  -2  -7    0.00    0.24
 -17  -2  -7   -0.16    0.18
 -17   2  -8    0.27    0.24
 -17   2  -8    0.45    0.28
 -17  -2  -8    0.10    0.21
 -17  -2  -8    0.24    0.27
 -17   2  -9    0.05    0.24
 -17   2  -9   -0.12    0.23
 -17  -2  -9   -0.16    0.25
 -17  -2  -9   -0.08    0.23
 -17  -3   0    0.01    0.09
 -17   3   0    0.23    0.10
 -17  -3   0    0.01    0.11
 -17   3   0    0.00    0.11
 -17   3   0    0.07    0.11
 -17   3  -1    3.98    0.35
 -17  -3   1    3.54    0.35
 -17   3  -1    4.10    0.33
 -17   3  -1    3.63    0.36
 -17  -3  -1    3.79    0.37
 -17   3   1    4.09    0.33
 -17  -3  -1    4.74    0.33
 -17   3   1    3.21    0.30
 -17   3   1    4.09    0.35
 -17   3  -2    0.37    0.13
 -17   3  -2    0.29    0.15
 -17  -3   2    0.24    0.13
 -17   3  -2   -0.06    0.13
 -17   3   2   -0.04    0.12
 -17  -3  -2    0.10    0.13
 -17   3   2   -0.02    0.10
 -17  -3  -2    0.01    0.12
 -17  -3  -2    0.07    0.11
 -17   3  -3    0.14    0.14
 -17  -3   3    0.15    0.14
 -17   3  -3    0.09    0.16
 -17   3  -3    0.16    0.13
 -17  -3  -3    0.10    0.13
 -17  -3  -3    0.10    0.15
 -17  -3  -3    0.17    0.13
 -17   3   3    0.23    0.14
 -17   3   3    0.15    0.14
 -17  -3   4   80.80    4.55
 -17   3  -4   78.71    4.58
 -17   3  -4   76.15    4.61
 -17   3  -4   76.84    4.56
 -17  -3  -4   77.68    4.57
 -17   3   4   76.10    4.55
 -17  -3  -4   79.65    4.60
 -17  -3  -4   75.74    4.58
 -17   3  -5    1.80    0.33
 -17   3  -5    1.90    0.25
 -17  -3   5    2.22    0.26
 -17   3  -5    1.64    0.28
 -17  -3  -5    2.23    0.27
 -17  -3  -5    2.11    0.33
 -17  -3  -5    1.81    0.29
 -17   3   5    1.83    0.24
 -17   3  -6   12.19    0.96
 -17   3  -6   13.75    0.93
 -17  -3  -6   13.66    0.93
 -17  -3  -6   13.25    0.96
 -17   3  -7    7.96    0.74
 -17   3  -7    8.86    0.69
 -17  -3  -7    8.03    0.67
 -17  -3  -7    9.89    0.78
 -17   3  -8    7.35    0.66
 -17   3  -8    7.05    0.73
 -17  -3  -8    6.04    0.62
 -17  -3  -8    6.46    0.71
 -17   3  -9   -0.23    0.23
 -17   3  -9    0.20    0.27
 -17  -3  -9   -0.08    0.22
 -17  -3  -9   -0.54    0.24
 -17   4   0    0.00    0.10
 -17   4   0    0.02    0.10
 -17  -4   0    0.04    0.12
 -17   4   0   -0.04    0.14
 -17   4  -1   14.44    0.92
 -17   4  -1   14.57    0.92
 -17   4  -1   14.01    0.90
 -17  -4   1   14.07    0.92
 -17  -4  -1   12.33    0.87
 -17  -4  -1   15.09    0.94
 -17   4   1   13.71    0.88
 -17   4   1   14.13    0.92
 -17   4   1   14.86    0.92
 -17   4  -2    0.12    0.14
 -17   4  -2    0.27    0.14
 -17   4  -2    0.34    0.14
 -17  -4   2    0.23    0.13
 -17  -4  -2    0.24    0.13
 -17  -4  -2    0.05    0.12
 -17  -4  -2    0.21    0.14
 -17   4   2    0.13    0.13
 -17   4   2    0.09    0.10
 -17   4   2    0.29    0.15
 -17  -4   3   25.38    1.54
 -17   4  -3   24.67    1.55
 -17   4  -3   25.85    1.59
 -17   4  -3   23.64    1.55
 -17  -4  -3   26.18    1.57
 -17   4   3   25.98    1.64
 -17  -4  -3   22.73    1.54
 -17  -4  -3   26.48    1.57
 -17   4   3   24.91    1.54
 -17   4  -4   11.18    0.79
 -17  -4   4   10.73    0.75
 -17   4  -4   11.32    0.83
 -17   4  -4   11.35    0.76
 -17  -4  -4   10.98    0.76
 -17   4   4    7.97    0.86
 -17  -4  -4   11.98    0.78
 -17   4   4   12.95    0.76
 -17  -4  -4   10.81    0.80
 -17  -4   5    2.42    0.27
 -17   4  -5    2.31    0.26
 -17   4  -5    1.78    0.28
 -17   4  -5    1.27    0.28
 -17   4   5    2.19    0.26
 -17  -4  -5    2.06    0.29
 -17  -4  -5    1.70    0.25
 -17  -4  -5    1.41    0.30
 -17   4  -6    0.25    0.19
 -17   4  -6   -0.32    0.18
 -17  -4  -6    0.03    0.23
 -17  -4  -6    0.00    0.17
 -17   4  -7    5.25    0.55
 -17   4  -7    3.96    0.46
 -17  -4  -7    3.90    0.45
 -17  -4  -7    2.93    0.45
 -17   4  -8    1.40    0.31
 -17   4  -8    0.87    0.33
 -17  -4  -8    0.21    0.28
 -17  -4  -8    0.54    0.24
 -17   4  -9    1.98    0.41
 -17   4  -9    2.83    0.51
 -17  -4  -9    1.89    0.43
 -17  -4  -9    3.04    0.42
 -17   5   0   -0.08    0.11
 -17   5   0   -0.06    0.10
 -17   5   0    0.07    0.11
 -17  -5   0    0.01    0.12
 -17   5  -1    8.57    0.61
 -17  -5   1    8.71    0.63
 -17   5  -1    9.75    0.66
 -17   5  -1    8.57    0.63
 -17  -5  -1    9.47    0.60
 -17   5   1    8.89    0.63
 -17  -5  -1    9.94    0.65
 -17   5   1    8.44    0.65
 -17   5   1    8.51    0.59
 -17   5  -2    4.68    0.40
 -17   5  -2    5.24    0.43
 -17   5  -2    5.32    0.43
 -17  -5   2    4.46    0.43
 -17   5   2    5.05    0.36
 -17   5   2    4.74    0.45
 -17  -5  -2    5.46    0.43
 -17   5   2    4.47    0.41
 -17  -5  -2    4.69    0.39
 -17  -5  -2    4.69    0.42
 -17   5  -3    2.86    0.30
 -17  -5   3    2.64    0.29
 -17   5  -3    2.85    0.35
 -17   5  -3    2.46    0.28
 -17   5   3    2.31    0.29
 -17  -5  -3    2.72    0.31
 -17   5   3    1.45    0.33
 -17  -5  -3    2.34    0.29
 -17  -5  -3    2.19    0.29
 -17   5  -4    1.34    0.25
 -17   5  -4    1.56    0.23
 -17  -5   4    1.97    0.25
 -17   5  -4    1.90    0.30
 -17   5   4    1.70    0.39
 -17   5   4    1.87    0.25
 -17  -5  -4    2.30    0.29
 -17  -5  -4    1.56    0.27
 -17  -5  -4    1.65    0.25
 -17   5  -5    5.52    0.58
 -17  -5   5    5.81    0.46
 -17   5  -5    5.56    0.51
 -17   5  -5    5.64    0.46
 -17  -5  -5    5.40    0.51
 -17  -5  -5    5.67    0.46
 -17  -5  -5    5.54    0.53
 -17   5   5    5.13    0.45
 -17   5  -6    0.12    0.18
 -17   5  -6   -0.09    0.19
 -17  -5  -6   -0.15    0.21
 -17  -5  -6   -0.07    0.17
 -17   5  -7    0.13    0.21
 -17   5  -7    0.06    0.23
 -17  -5  -7    0.10    0.23
 -17  -5  -7    0.18    0.19
 -17   5  -8   -0.10    0.22
 -17   5  -8   -0.14    0.22
 -17  -5  -8    0.15    0.24
 -17  -5  -8    0.15    0.31
 -17   5  -9    0.26    0.27
 -17   5  -9    0.62    0.31
 -17  -5  -9    0.34    0.31
 -17  -5  -9    0.01    0.26
 -17   6   0    0.01    0.11
 -17   6   0   -0.06    0.11
 -17  -6   0   -0.31    0.13
 -17   6   0   -0.16    0.11
 -17   6  -1    0.38    0.15
 -17   6  -1    0.27    0.15
 -17   6  -1    0.14    0.12
 -17  -6   1    0.35    0.15
 -17   6   1    0.19    0.14
 -17   6   1    0.28    0.15
 -17  -6  -1    0.37    0.15
 -17   6   1    0.18    0.10
 -17   6  -2    1.54    0.25
 -17   6  -2    1.31    0.20
 -17  -6   2    1.64    0.23
 -17   6  -2    1.80    0.24
 -17  -6  -2    1.63    0.25
 -17  -6  -2    1.33    0.24
 -17   6   2    1.16    0.21
 -17   6   2    1.72    0.29
 -17   6   2    1.31    0.16
 -17  -6  -2    1.23    0.20
 -17   6  -3    9.91    0.67
 -17   6  -3    8.53    0.65
 -17   6  -3    8.27    0.69
 -17  -6   3    8.64    0.65
 -17  -6  -3    8.75    0.66
 -17  -6  -3   10.35    0.68
 -17   6   3    9.37    0.65
 -17   6   3    9.75    0.83
 -17  -6  -3    9.68    0.67
 -17   6  -4    0.71    0.23
 -17   6  -4    0.83    0.23
 -17   6  -4    0.88    0.19
 -17  -6   4    1.24    0.22
 -17  -6  -4    1.12    0.21
 -17   6   4    0.78    0.34
 -17  -6  -4    0.81    0.21
 -17  -6  -4    0.91    0.23
 -17   6   4    1.00    0.19
 -17   6  -5   12.83    0.90
 -17   6  -5   14.06    0.87
 -17   6  -5   11.77    0.94
 -17  -6   5   13.85    0.87
 -17   6   5   14.14    0.87
 -17  -6  -5   13.73    0.90
 -17   6   5    8.93    1.13
 -17  -6  -5   12.23    0.91
 -17  -6  -5   12.48    0.87
 -17   6  -6    1.65    0.31
 -17   6  -6    1.39    0.32
 -17  -6  -6    2.13    0.32
 -17  -6  -6    1.49    0.33
 -17   6  -7    0.30    0.23
 -17   6  -7    0.13    0.24
 -17  -6  -7    0.04    0.26
 -17  -6  -7   -0.07    0.16
 -17   6  -8    5.70    0.68
 -17   6  -8    5.09    0.57
 -17  -6  -8    5.34    0.63
 -17  -6  -8    6.32    0.60
 -17   6  -9   -0.01    0.28
 -17   6  -9   -0.26    0.26
 -17  -6  -9    0.02    0.26
 -17  -6  -9    0.28    0.28
 -17   7   0   -0.17    0.10
 -17   7   0   -0.12    0.13
 -17  -7   0   -0.19    0.14
 -17   7   0   -0.02    0.10
 -17   7  -1    4.40    0.37
 -17  -7   1    4.27    0.42
 -17   7  -1    4.38    0.39
 -17   7  -1    5.05    0.44
 -17   7   1    4.49    0.35
 -17  -7  -1    4.09    0.43
 -17   7   1    4.51    0.43
 -17   7   1    5.30    0.48
 -17   7  -2    0.05    0.14
 -17   7  -2    0.10    0.16
 -17   7  -2   -0.01    0.16
 -17  -7   2    0.02    0.15
 -17   7   2    0.32    0.20
 -17  -7  -2    0.36    0.17
 -17   7   2    0.15    0.16
 -17  -7  -2    0.00    0.13
 -17  -7  -2    0.15    0.15
 -17   7  -3    4.80    0.43
 -17  -7   3    4.73    0.43
 -17   7  -3    4.71    0.42
 -17   7  -3    4.14    0.46
 -17   7   3    4.80    0.41
 -17  -7  -3    4.59    0.43
 -17  -7  -3    4.17    0.40
 -17   7   3    4.49    0.62
 -17  -7  -3    4.03    0.41
 -17   7  -4    6.52    0.52
 -17  -7   4    6.33    0.52
 -17   7  -4    6.54    0.53
 -17   7  -4    6.96    0.59
 -17  -7  -4    7.32    0.54
 -17  -7  -4    6.54    0.53
 -17   7   4    7.72    0.54
 -17  -7  -4    6.31    0.54
 -17   7   4    4.22    0.71
 -17   7  -5    8.71    0.62
 -17   7  -5    7.56    0.69
 -17   7  -5    7.95    0.66
 -17  -7   5    8.75    0.62
 -17  -7  -5    8.27    0.63
 -17  -7  -5    9.32    0.64
 -17   7   5    5.95    0.87
 -17   7   5    7.84    0.61
 -17  -7  -5    8.61    0.67
 -17   7  -6   26.61    1.73
 -17   7  -6   27.18    1.67
 -17  -7  -6   25.49    1.65
 -17  -7  -6   24.77    1.68
 -17   7  -7    0.99    0.29
 -17   7  -7    1.60    0.36
 -17  -7  -7    1.17    0.27
 -17  -7  -7    1.50    0.33
 -17   7  -8    2.74    0.42
 -17   7  -8    2.87    0.48
 -17  -7  -8    3.71    0.44
 -17  -7  -8    2.78    0.45
 -17  -8   0    0.09    0.16
 -17   8   0    0.00    0.13
 -17   8   0    0.02    0.14
 -17   8   0    0.06    0.10
 -17   8  -1   36.87    2.27
 -17   8  -1   37.39    2.18
 -17   8  -1   37.17    2.22
 -17  -8   1   34.67    2.22
 -17  -8  -1   37.47    2.23
 -17   8   1   36.61    2.31
 -17   8   1   35.16    2.21
 -17   8  -2    9.38    0.67
 -17   8  -2   10.07    0.73
 -17   8  -2    9.55    0.69
 -17  -8   2    9.56    0.70
 -17  -8  -2    9.84    0.71
 -17   8   2    9.76    0.84
 -17   8   2    9.15    0.68
 -17   8  -3    8.60    0.69
 -17  -8   3    7.91    0.64
 -17   8  -3    9.02    0.65
 -17   8  -3    9.40    0.64
 -17  -8  -3    8.78    0.66
 -17   8   3    9.54    0.98
 -17  -8  -3    9.00    0.65
 -17   8   3    9.11    0.64
 -17  -8  -3    8.09    0.64
 -17   8  -4    0.03    0.17
 -17   8  -4    0.09    0.18
 -17   8  -4    0.21    0.16
 -17  -8   4    0.19    0.17
 -17  -8  -4    0.08    0.16
 -17   8   4    0.35    0.17
 -17  -8  -4    0.12    0.17
 -17  -8  -4   -0.07    0.14
 -17   8   4    0.08    0.31
 -17  -8   5    1.36    0.24
 -17   8  -5    2.05    0.26
 -17   8  -5    1.57    0.29
 -17   8  -5    1.59    0.32
 -17  -8  -5    1.46    0.25
 -17   8   5    1.33    0.24
 -17  -8  -5    1.10    0.24
 -17   8   5    1.16    0.46
 -17  -8  -5    1.16    0.28
 -17   8  -6   10.13    0.83
 -17   8  -6    9.09    0.74
 -17  -8  -6   10.08    0.74
 -17   8   6    8.97    1.15
 -17  -8  -6    9.01    0.76
 -17   8  -7    0.17    0.25
 -17   8  -7    0.07    0.24
 -17  -8  -7    0.08    0.23
 -17  -8  -7    0.11    0.22
 -17   8  -8    6.37    0.66
 -17   8  -8    6.43    0.71
 -17  -8  -8    5.85    0.68
 -17  -8  -8    6.59    0.64
 -17   9   0   -0.11    0.14
 -17   9   0    0.07    0.17
 -17  -9   0    0.11    0.17
 -17   9  -1   -0.30    0.13
 -17   9  -1    0.03    0.16
 -17  -9   1   -0.06    0.16
 -17   9  -1   -0.15    0.12
 -17  -9  -1   -0.06    0.15
 -17   9   1   -0.20    0.16
 -17   9   1   -0.15    0.16
 -17   9  -2   14.86    1.01
 -17   9  -2   16.42    1.09
 -17   9  -2   15.09    0.99
 -17  -9   2   15.59    1.03
 -17  -9  -2   14.26    1.02
 -17   9   2   14.18    1.00
 -17   9   2   17.47    1.23
 -17   9  -3    0.16    0.16
 -17   9  -3    0.09    0.18
 -17  -9   3    0.04    0.18
 -17   9  -3   -0.02    0.16
 -17   9   3    0.26    0.16
 -17   9   3   -0.32    0.25
 -17  -9  -3    0.19    0.16
 -17  -9  -3   -0.02    0.17
 -17   9  -4    0.68    0.24
 -17   9  -4    0.60    0.21
 -17   9  -4    0.81    0.21
 -17  -9   4    0.91    0.21
 -17   9   4    0.68    0.35
 -17  -9  -4    0.87    0.24
 -17   9   4    0.69    0.21
 -17  -9  -4    0.45    0.18
 -17  -9  -4    0.54    0.19
 -17   9  -5    0.15    0.19
 -17   9  -5   -0.18    0.18
 -17  -9   5    0.03    0.17
 -17   9  -5    0.24    0.16
 -17  -9  -5   -0.17    0.20
 -17  -9  -5   -0.08    0.17
 -17  -9  -5   -0.14    0.17
 -17   9   5    0.07    0.33
 -17   9  -6   46.57    2.71
 -17   9  -6   42.17    2.77
 -17  -9  -6   44.32    2.68
 -17  -9  -6   45.83    2.74
 -17   9   6   38.39    3.01
 -17   9  -7    0.12    0.24
 -17   9  -7   -0.25    0.21
 -17  -9  -7    0.10    0.20
 -17  -9  -7   -0.08    0.24
 -17   9  -8   10.71    0.94
 -17   9  -8   12.42    0.89
 -17  -9  -8   11.29    0.87
 -17  -9  -8    9.82    0.90
 -17  10   0    0.04    0.18
 -17  10   0   -0.12    0.16
 -17 -10   0   -0.14    0.14
 -17  10  -1   56.72    3.38
 -17  10  -1   55.38    3.37
 -17 -10   1   54.05    3.38
 -17  10  -1   57.87    3.46
 -17 -10  -1   53.47    3.38
 -17  10   1   53.91    3.37
 -17  10   1   66.32    3.57
 -17  10  -2    0.91    0.19
 -17 -10   2    0.96    0.22
 -17  10  -2    0.82    0.20
 -17  10  -2    1.29    0.28
 -17 -10  -2    1.07    0.24
 -17  10   2    1.23    0.23
 -17  10   2    0.83    0.36
 -17  10  -3   32.13    1.94
 -17 -10   3   31.82    1.95
 -17  10  -3   30.05    1.92
 -17  10  -3   29.94    2.00
 -17 -10  -3   31.19    1.95
 -17 -10  -3   30.01    1.95
 -17  10   3   34.17    2.27
 -17  10   3   32.85    1.95
 -17  10  -4    1.30    0.25
 -17  10  -4    1.57    0.33
 -17  10  -4    1.49    0.25
 -17 -10   4    0.97    0.23
 -17 -10  -4    1.44    0.25
 -17 -10  -4    1.66    0.29
 -17  10   4    1.37    0.52
 -17  10  -5    8.77    0.76
 -17  10  -5    7.20    0.65
 -17  10  -5    9.49    0.65
 -17 -10   5    8.89    0.66
 -17 -10  -5    8.71    0.66
 -17  10   5    5.57    0.97
 -17 -10  -5    8.84    0.67
 -17  10  -6    0.81    0.29
 -17  10  -6    0.59    0.25
 -17  10   6    1.04    0.51
 -17 -10  -6    0.29    0.21
 -17 -10  -6    0.79    0.30
 -17  10  -7    0.20    0.26
 -17  10  -7    0.13    0.27
 -17 -10  -7   -0.01    0.26
 -17 -10  -7   -0.24    0.19
 -17  10  -8    2.36    0.44
 -17  11   0    0.04    0.20
 -17 -11   0   -0.09    0.16
 -17  11   0    0.02    0.17
 -17  11  -1    0.06    0.20
 -17  11  -1    0.35    0.22
 -17 -11   1    0.02    0.17
 -17 -11  -1    0.34    0.20
 -17  11   1   -0.08    0.15
 -17  11   1    0.38    0.30
 -17  11  -2    1.83    0.35
 -17  11  -2    2.46    0.29
 -17 -11   2    2.37    0.32
 -17  11  -2    1.98    0.30
 -17  11   2    2.18    0.32
 -17 -11  -2    2.69    0.34
 -17  11   2    2.54    0.54
 -17  11  -3    3.11    0.44
 -17 -11   3    3.48    0.41
 -17  11  -3    3.84    0.41
 -17  11  -3    2.94    0.36
 -17 -11  -3    4.57    0.43
 -17  11   3    3.07    0.65
 -17 -11  -3    3.17    0.41
 -17  11  -4    1.83    0.29
 -17  11  -4    1.79    0.28
 -17  11  -4    1.63    0.36
 -17 -11   4    2.37    0.33
 -17  11   4    1.94    0.55
 -17 -11  -4    2.23    0.33
 -17 -11  -4    1.19    0.26
 -17  11  -5    0.49    0.31
 -17 -11   5    0.70    0.24
 -17  11  -5    0.39    0.27
 -17  11  -5    0.88    0.24
 -17 -11  -5    0.44    0.23
 -17  11   5    0.60    0.43
 -17 -11  -5    0.76    0.21
 -17  11  -6   13.70    1.06
 -17  11  -6   13.70    0.97
 -17 -11  -6   15.37    0.97
 -17  11   6    8.18    1.29
 -17  11  -7   -0.15    0.26
 -17  11  -7   -0.04    0.24
 -17  11   7    0.08    0.39
 -17  12   0   -0.27    0.17
 -17 -12   0    0.18    0.19
 -17  12   0   -0.30    0.22
 -17 -12   1   21.19    1.42
 -17  12  -1   21.49    1.42
 -17  12  -1   23.12    1.53
 -17 -12  -1   19.54    1.41
 -17  12   1   20.64    1.41
 -17  12   1   27.63    1.68
 -17  12  -2    7.02    0.62
 -17 -12   2    6.94    0.63
 -17  12  -2    8.37    0.71
 -17  12   2    8.89    0.98
 -17  12   2    7.77    0.62
 -17 -12  -2    8.09    0.65
 -17  12  -3   22.19    1.47
 -17 -12   3   22.09    1.50
 -17  12  -3   24.12    1.59
 -17  12  -3   23.57    1.49
 -17  12   3   26.01    1.90
 -17 -12  -3   22.32    1.49
 -17 -12  -3   23.62    1.51
 -17  12  -4    0.42    0.21
 -17 -12   4    0.84    0.25
 -17  12  -4    0.89    0.29
 -17  12  -4    1.03    0.24
 -17  12   4    1.15    0.53
 -17 -12  -4    0.92    0.22
 -17 -12  -4    0.73    0.25
 -17  12  -5   17.07    1.24
 -17 -12   5   16.35    1.14
 -17  12  -5   17.53    1.16
 -17 -12  -5   17.36    1.15
 -17  12   5   13.64    1.63
 -17 -12  -5   16.81    1.13
 -17  12  -6   -0.33    0.23
 -17  12  -6   -0.25    0.22
 -17  12   6   -0.36    0.40
 -17  12  -7    1.89    0.40
 -17  12  -7    2.02    0.40
 -17  12   7    1.68    0.62
 -17  13   0    0.19    0.20
 -17 -13   0   -0.41    0.19
 -17  13   0   -0.03    0.27
 -17  13  -1    9.52    0.82
 -17  13  -1    9.25    0.71
 -17 -13   1    8.58    0.71
 -17  13   1   10.25    1.05
 -17  13   1    8.45    0.70
 -17 -13  -1    8.26    0.72
 -17 -13   2    0.13    0.21
 -17  13  -2    0.44    0.21
 -17  13  -2   -0.10    0.19
 -17  13   2   -0.01    0.35
 -17 -13  -2   -0.05    0.21
 -17  13   2    0.11    0.21
 -17  13  -3    3.50    0.50
 -17 -13   3    3.87    0.46
 -17  13  -3    3.88    0.43
 -17 -13  -3    3.83    0.47
 -17  13   3    6.29    0.92
 -17 -13  -3    3.58    0.42
 -17  13  -4    0.30    0.20
 -17  13  -4    0.17    0.22
 -17 -13   4    0.24    0.23
 -17  13  -4    0.12    0.24
 -17 -13  -4    0.37    0.19
 -17  13   4    0.11    0.43
 -17 -13  -4   -0.01    0.20
 -17 -13   5    2.53    0.35
 -17  13  -5    2.19    0.45
 -17  13  -5    2.01    0.33
 -17 -13  -5    2.37    0.37
 -17  13   5    1.81    0.69
 -17 -13  -5    2.65    0.35
 -17  13  -6    6.31    0.72
 -17  13  -6    7.04    0.63
 -17  13   6    4.29    0.94
 -17  14   0    0.19    0.23
 -17 -14   0    0.12    0.21
 -17  14   0    0.10    0.27
 -17  14  -1   -0.13    0.19
 -17  14  -1    0.25    0.27
 -17 -14   1    0.10    0.22
 -17  14   1    0.24    0.22
 -17  14   1    0.66    0.37
 -17 -14  -1   -0.11    0.18
 -17 -14   2    2.35    0.39
 -17  14  -2    2.85    0.48
 -17  14  -2    3.07    0.40
 -17 -14  -2    3.00    0.43
 -17  14   2    4.59    0.77
 -17  14  -3    1.42    0.35
 -17 -14   3    1.32    0.32
 -17  14  -3    1.43    0.30
 -17 -14  -3    2.18    0.37
 -17 -14  -3    1.66    0.28
 -17  14   3    0.99    0.52
 -17 -14   4    7.88    0.69
 -17  14  -4    8.07    0.77
 -17  14  -4    8.29    0.67
 -17 -14  -4    7.71    0.64
 -17  14   4    8.62    1.19
 -17 -14  -4    8.54    0.71
 -17  14  -5   -0.06    0.27
 -17 -14   5    0.41    0.23
 -17  14  -5    0.24    0.25
 -17 -14  -5    0.52    0.25
 -17  14   5   -0.40    0.45
 -17  14  -6    0.06    0.26
 -17  14  -6    0.20    0.25
 -17  14   6   -0.31    0.39
 -17  15   0   -0.04    0.19
 -17  15   0   -0.10    0.27
 -17 -15   0   -0.21    0.20
 -17  15  -1    9.64    0.80
 -17 -15   1   10.43    0.81
 -17  15  -1   10.40    0.94
 -17  15   1    9.21    0.80
 -17  15   1   11.55    1.18
 -17 -15  -1    9.31    0.78
 -17  15  -2    0.73    0.26
 -17  15  -2    1.07    0.38
 -17 -15   2    0.71    0.26
 -17  15   2    1.14    0.53
 -17 -15  -2    0.96    0.29
 -17  15  -3    0.65    0.27
 -17  15  -3    0.87    0.34
 -17 -15   3    0.68    0.26
 -17 -15  -3    0.91    0.23
 -17  15   3    1.23    0.57
 -17 -15  -3    0.35    0.25
 -17  15  -4    0.87    0.27
 -17 -15   4    0.51    0.29
 -17  15  -4    0.68    0.33
 -17 -15  -4    0.46    0.29
 -17  15   4    0.90    0.57
 -17  15  -5    1.63    0.39
 -17 -15   5    1.03    0.32
 -17 -15  -5    2.04    0.36
 -17  15   5    1.45    0.61
 -17  16   0    0.35    0.37
 -17 -16   0    0.15    0.25
 -17  16   0    0.59    0.26
 -17  16  -1    2.67    0.53
 -17 -16   1    1.71    0.37
 -17  16  -1    1.45    0.33
 -17 -16  -1    1.72    0.36
 -17  16   1    1.53    0.52
 -17  16   1    1.85    0.35
 -17  16  -2    1.99    0.46
 -17  16  -2    2.12    0.39
 -17 -16   2    1.78    0.36
 -17 -16  -2    2.29    0.39
 -17  16   2    3.05    0.72
 -17 -16   3    0.71    0.30
 -17  16  -3    1.24    0.32
 -17  16  -3    1.15    0.36
 -17 -16  -3    0.88    0.30
 -17  16   3    1.13    0.58
 -17  16  -4    4.37    0.48
 -17 -16   4    4.43    0.53
 -17  16  -4    3.27    0.58
 -17 -16  -4    4.44    0.52
 -17  16   4    3.44    0.82
 -17  17   0    0.28    0.37
 -17  17   0    0.30    0.27
 -17 -17   0   -0.10    0.26
 -17  17  -1    1.70    0.48
 -17  17  -1    1.45    0.36
 -17 -17   1    1.10    0.32
 -17  17   1    1.74    0.56
 -17  17   1    1.43    0.34
 -17 -17  -1    0.93    0.33
 -17  17  -2    0.35    0.25
 -17 -17   2    0.23    0.27
 -17  17  -2    0.07    0.32
 -17 -17  -2    0.05    0.27
 -17  17   2   -0.32    0.39
 -17  17  -3    0.85    0.38
 -17 -17   3    0.75    0.33
 -17 -17  -3    0.87    0.30
 -17  17   3    1.44    0.62
 -18   0   0   17.94    1.19
 -18   0   0   20.16    1.15
 -18   0   0   17.62    1.18
 -18   0   2    0.67    0.17
 -18   0  -2    0.99    0.19
 -18   0  -2    0.75    0.18
 -18   0  -2    1.01    0.19
 -18   0  -3   -0.03    0.13
 -18   0   3    0.19    0.14
 -18   0  -3    0.09    0.16
 -18   0  -3    0.07    0.13
 -18   0  -4   11.62    0.80
 -18   0  -4   11.97    0.81
 -18   0   4   12.15    0.79
 -18   0  -4   11.15    0.83
 -18   0  -5   -0.01    0.16
 -18   0  -5    0.05    0.13
 -18   0   5   -0.23    0.13
 -18   0  -5    0.01    0.17
 -18   0  -6   18.46    1.21
 -18   0  -6   17.60    1.25
 -18   0  -7    0.10    0.19
 -18   0  -7   -0.01    0.22
 -18   0  -8    3.70    0.55
 -18   0  -8    4.12    0.50
 -18   0  -9   -0.12    0.25
 -18   0  -9   -0.11    0.24
 -18  -1   0   20.12    1.19
 -18  -1   0   18.85    1.23
 -18   1   0   20.61    1.24
 -18   1   0   19.10    1.20
 -18   1   0   18.99    1.22
 -18   1  -1    0.33    0.14
 -18   1  -1    0.10    0.11
 -18   1  -1    0.32    0.13
 -18  -1   1    0.20    0.14
 -18  -1  -1    0.08    0.12
 -18   1   1   -0.05    0.11
 -18  -1  -1    0.50    0.14
 -18  -1  -1    0.24    0.12
 -18   1   1    0.12    0.10
 -18   1  -2    4.81    0.41
 -18   1  -2    5.88    0.43
 -18   1  -2    5.08    0.43
 -18  -1   2    4.32    0.41
 -18   1   2    5.21    0.42
 -18  -1  -2    4.86    0.43
 -18  -1  -2    4.95    0.41
 -18  -1  -2    5.42    0.42
 -18   1  -3    6.91    0.53
 -18   1  -3    7.03    0.56
 -18   1  -3    6.90    0.52
 -18  -1   3    7.12    0.53
 -18  -1  -3    6.52    0.53
 -18  -1  -3    7.31    0.55
 -18  -1  -3    6.67    0.53
 -18   1   3    7.36    0.53
 -18   1  -4    4.69    0.46
 -18   1  -4    4.96    0.42
 -18   1  -4    4.85    0.45
 -18  -1   4    5.66    0.42
 -18  -1  -4    4.88    0.47
 -18   1   4    4.81    0.40
 -18  -1  -4    4.73    0.42
 -18  -1  -4    4.28    0.44
 -18  -1   5    2.08    0.26
 -18   1  -5    2.30    0.35
 -18   1  -5    2.17    0.30
 -18   1  -5    2.23    0.27
 -18  -1  -5    1.96    0.34
 -18   1   5    2.67    0.28
 -18  -1  -5    1.92    0.29
 -18  -1  -5    2.09    0.27
 -18   1  -6    3.77    0.44
 -18   1  -6    3.19    0.45
 -18  -1  -6    4.16    0.44
 -18  -1  -6    4.59    0.51
 -18   1  -7    0.56    0.25
 -18   1  -7    0.90    0.31
 -18  -1  -7    0.30    0.22
 -18  -1  -7    0.76    0.30
 -18   1  -8    4.03    0.55
 -18   1  -8    4.26    0.50
 -18  -1  -8    5.21    0.53
 -18  -1  -8    4.80    0.59
 -18   1  -9    0.28    0.31
 -18   1  -9    0.70    0.29
 -18  -1  -9    0.16    0.31
 -18  -1  -9    0.25    0.27
 -18   2   0    0.16    0.13
 -18   2   0    0.30    0.15
 -18   2   0    0.27    0.12
 -18  -2   0    0.09    0.14
 -18  -2   1   25.36    1.55
 -18   2  -1   23.33    1.52
 -18   2  -1   24.55    1.53
 -18   2  -1   25.25    1.55
 -18   2   1   27.20    1.54
 -18  -2  -1   26.70    1.51
 -18   2   1   24.21    1.51
 -18  -2  -1   24.59    1.55
 -18  -2  -1   26.14    1.55
 -18   2   1   21.97    1.53
 -18   2  -2    0.22    0.13
 -18  -2   2    0.31    0.14
 -18   2  -2    0.12    0.14
 -18   2  -2    0.25    0.14
 -18   2   2    0.25    0.14
 -18  -2  -2    0.22    0.14
 -18  -2  -2    0.36    0.13
 -18  -2  -2    0.62    0.17
 -18   2   2    0.18    0.12
 -18  -2   3   31.79    1.86
 -18   2  -3   30.81    1.87
 -18   2  -3   30.23    1.89
 -18   2  -3   31.27    1.87
 -18  -2  -3   31.41    1.87
 -18  -2  -3   30.89    1.87
 -18   2   3   28.95    1.85
 -18  -2  -3   28.87    1.87
 -18   2  -4    1.99    0.24
 -18  -2   4    2.03    0.25
 -18   2  -4    1.91    0.27
 -18   2  -4    1.51    0.27
 -18   2   4    1.59    0.22
 -18  -2  -4    1.21    0.23
 -18  -2  -4    1.49    0.27
 -18  -2  -4    1.28    0.22
 -18  -2   5    0.20    0.15
 -18   2  -5    0.20    0.21
 -18   2  -5   -0.07    0.15
 -18   2  -5   -0.07    0.13
 -18   2   5    0.20    0.14
 -18  -2  -5   -0.07    0.16
 -18  -2  -5   -0.07    0.19
 -18  -2  -5    0.01    0.14
 -18   2  -6    0.43    0.25
 -18   2  -6    0.59    0.22
 -18  -2  -6    0.36    0.26
 -18  -2  -6    0.68    0.23
 -18   2  -7    3.90    0.51
 -18   2  -7    4.19    0.46
 -18  -2  -7    2.98    0.42
 -18  -2  -7    3.75    0.49
 -18   2  -8    0.60    0.30
 -18   2  -8    0.78    0.31
 -18  -2  -8    0.76    0.31
 -18  -2  -8    0.95    0.27
 -18   2  -9   11.19    0.88
 -18   2  -9   10.94    0.97
 -18  -2  -9   10.20    0.86
 -18  -2  -9   11.20    0.98
 -18   3   0   57.48    3.18
 -18   3   0   52.26    3.14
 -18   3   0   53.00    3.15
 -18  -3   0   50.79    3.17
 -18   3  -1    0.20    0.13
 -18   3  -1    0.10    0.13
 -18  -3   1   -0.02    0.11
 -18   3  -1   -0.05    0.12
 -18  -3  -1    0.17    0.15
 -18  -3  -1    0.11    0.11
 -18   3   1    0.03    0.10
 -18   3   1    0.04    0.11
 -18  -3  -1   -0.09    0.13
 -18   3   1    0.07    0.11
 -18  -3   2   41.78    2.51
 -18   3  -2   40.79    2.51
 -18   3  -2   42.20    2.52
 -18   3  -2   39.19    2.49
 -18   3   2   41.65    2.50
 -18  -3  -2   43.79    2.52
 -18   3   2   42.12    2.50
 -18  -3  -2   43.18    2.50
 -18  -3  -2   40.92    2.51
 -18   3  -3    4.64    0.42
 -18   3  -3    4.42    0.41
 -18   3  -3    3.95    0.40
 -18  -3   3    4.46    0.39
 -18  -3  -3    4.82    0.43
 -18  -3  -3    4.05    0.41
 -18  -3  -3    4.15    0.41
 -18   3   3    4.53    0.39
 -18   3  -4   15.99    1.01
 -18  -3   4   15.67    1.00
 -18   3  -4   13.83    1.04
 -18   3  -4   14.81    1.02
 -18  -3  -4   14.48    1.03
 -18   3   4   15.99    1.00
 -18  -3  -4   16.11    1.03
 -18  -3  -4   16.26    1.01
 -18   3  -5    4.50    0.45
 -18   3  -5    4.71    0.40
 -18   3  -5    4.72    0.51
 -18  -3   5    4.47    0.39
 -18   3   5    3.92    0.39
 -18  -3  -5    4.70    0.46
 -18  -3  -5    4.84    0.43
 -18  -3  -5    3.70    0.47
 -18   3  -6    8.17    0.72
 -18   3  -6    8.19    0.66
 -18  -3  -6    8.32    0.71
 -18  -3  -6    8.13    0.65
 -18   3  -7    4.95    0.59
 -18   3  -7    5.06    0.53
 -18  -3  -7    5.29    0.60
 -18  -3  -7    6.10    0.57
 -18   3  -8    2.33    0.42
 -18   3  -8    1.28    0.31
 -18  -3  -8    1.08    0.34
 -18  -3  -8    2.13    0.35
 -18   3  -9    0.24    0.33
 -18   3  -9    0.68    0.32
 -18  -3  -9    0.09    0.29
 -18  -3  -9    0.09    0.29
 -18   4   0   38.28    2.43
 -18   4   0   42.85    2.44
 -18  -4   0   40.82    2.45
 -18   4   0   40.26    2.41
 -18   4  -1   29.42    1.81
 -18  -4   1   30.11    1.84
 -18   4  -1   31.26    1.84
 -18   4  -1   31.21    1.84
 -18  -4  -1   25.62    1.84
 -18  -4  -1   30.63    1.84
 -18   4   1   29.56    1.83
 -18   4   1   30.29    1.80
 -18   4   1   31.69    1.84
 -18   4  -2    0.95    0.19
 -18   4  -2    1.37    0.22
 -18   4  -2    0.64    0.18
 -18  -4   2    0.91    0.19
 -18  -4  -2    1.06    0.20
 -18   4   2    1.05    0.19
 -18  -4  -2    0.95    0.19
 -18   4   2    1.10    0.20
 -18   4   2    1.07    0.16
 -18  -4  -2    0.95    0.20
 -18   4  -3   55.85    3.37
 -18   4  -3   56.57    3.41
 -18  -4   3   56.52    3.37
 -18   4  -3   57.87    3.38
 -18  -4  -3   55.96    3.38
 -18  -4  -3   56.66    3.39
 -18   4   3   57.17    3.44
 -18  -4  -3   56.68    3.38
 -18   4   3   58.22    3.37
 -18   4  -4    5.61    0.45
 -18  -4   4    4.99    0.43
 -18   4  -4    4.60    0.47
 -18   4  -4    4.89    0.52
 -18   4   4    5.87    0.45
 -18  -4  -4    5.76    0.46
 -18  -4  -4    5.33    0.49
 -18  -4  -4    5.27    0.45
 -18   4  -5   26.62    1.68
 -18   4  -5   24.24    1.59
 -18   4  -5   27.82    1.65
 -18  -4   5   26.73    1.59
 -18  -4  -5   25.34    1.60
 -18   4   5   25.38    1.59
 -18  -4  -5   26.73    1.63
 -18  -4  -5   23.91    1.65
 -18   4  -6    2.06    0.38
 -18   4  -6    1.80    0.32
 -18  -4  -6    2.32    0.38
 -18  -4  -6    1.62    0.31
 -18   4  -7   29.16    2.01
 -18   4  -7   31.79    1.97
 -18  -4  -7   31.27    2.01
 -18  -4  -7   31.20    1.96
 -18   4  -8    2.05    0.45
 -18   4  -8    3.22    0.44
 -18  -4  -8    3.49    0.46
 -18  -4  -8    3.03    0.46
 -18   4  -9   13.63    0.97
 -18   4  -9   10.50    0.99
 -18  -4  -9   12.11    1.01
 -18  -4  -9   11.84    0.92
 -18   5   0   55.30    3.32
 -18   5   0   58.34    3.37
 -18   5   0   55.75    3.35
 -18  -5   0   56.56    3.36
 -18  -5   1    2.88    0.35
 -18   5  -1    3.39    0.36
 -18   5  -1    4.39    0.34
 -18   5  -1    4.51    0.36
 -18   5   1    3.58    0.36
 -18   5   1    4.05    0.39
 -18   5   1    3.47    0.30
 -18  -5  -1    3.43    0.36
 -18  -5   2   50.75    3.09
 -18   5  -2   51.19    3.11
 -18   5  -2   52.80    3.08
 -18   5  -2   51.78    3.09
 -18  -5  -2   52.08    3.10
 -18   5   2   49.69    3.08
 -18   5   2   55.64    3.14
 -18  -5  -2   53.82    3.07
 -18  -5  -2   52.66    3.11
 -18   5   2   48.55    3.04
 -18   5  -3    0.06    0.12
 -18  -5   3   -0.04    0.12
 -18   5  -3    0.21    0.16
 -18   5  -3   -0.12    0.14
 -18  -5  -3   -0.15    0.13
 -18   5   3   -0.02    0.14
 -18  -5  -3   -0.02    0.13
 -18   5   3    0.10    0.17
 -18  -5  -3    0.01    0.16
 -18   5  -4    7.54    0.65
 -18  -5   4    7.60    0.58
 -18   5  -4    8.39    0.59
 -18   5  -4    8.33    0.61
 -18  -5  -4    7.76    0.60
 -18   5   4    7.19    0.58
 -18  -5  -4    7.59    0.62
 -18  -5  -4    7.88    0.60
 -18   5  -5    0.15    0.14
 -18   5  -5   -0.06    0.20
 -18  -5   5   -0.11    0.13
 -18   5  -5   -0.16    0.16
 -18  -5  -5    0.04    0.17
 -18  -5  -5   -0.10    0.15
 -18   5   5   -0.04    0.15
 -18  -5  -5   -0.12    0.18
 -18   5  -6   13.60    0.96
 -18   5  -6   13.90    1.02
 -18  -5  -6   13.55    0.96
 -18  -5  -6   13.15    1.00
 -18   5  -7   -0.08    0.26
 -18   5  -7    0.33    0.23
 -18  -5  -7   -0.22    0.19
 -18  -5  -7   -0.03    0.23
 -18   5  -8   11.43    0.88
 -18   5  -8   10.11    0.94
 -18  -5  -8   11.84    0.96
 -18  -5  -8   11.36    0.87
 -18   6   0   17.27    1.17
 -18   6   0   19.42    1.21
 -18  -6   0   18.99    1.19
 -18   6   0   17.87    1.14
 -18   6  -1    1.86    0.28
 -18   6  -1    2.22    0.26
 -18  -6   1    2.05    0.28
 -18   6  -1    2.61    0.30
 -18  -6  -1    2.29    0.31
 -18   6   1    2.58    0.24
 -18   6   1    3.71    0.37
 -18   6   1    2.09    0.28
 -18  -6   2    0.17    0.15
 -18   6  -2    0.16    0.14
 -18   6  -2    0.14    0.15
 -18   6  -2    0.16    0.17
 -18  -6  -2    0.30    0.17
 -18   6   2    0.35    0.11
 -18  -6  -2    0.40    0.17
 -18   6   2    0.11    0.17
 -18   6   2    0.36    0.16
 -18  -6  -2    0.07    0.14
 -18   6  -3   14.68    1.08
 -18   6  -3   15.74    1.05
 -18   6  -3   13.96    1.03
 -18  -6   3   16.57    1.05
 -18   6   3   16.41    1.19
 -18  -6  -3   16.71    1.05
 -18   6   3   17.03    1.05
 -18  -6  -3   15.60    1.05
 -18  -6  -3   17.49    1.07
 -18   6  -4   28.42    1.66
 -18  -6   4   25.40    1.62
 -18   6  -4   28.51    1.64
 -18   6  -4   25.27    1.69
 -18  -6  -4   25.84    1.64
 -18  -6  -4   28.77    1.65
 -18   6   4   20.63    1.78
 -18   6   4   26.41    1.63
 -18  -6  -4   25.25    1.65
 -18   6  -5   35.21    2.06
 -18  -6   5   32.66    2.05
 -18   6  -5   33.00    2.09
 -18   6  -5   33.33    2.14
 -18   6   5   32.83    2.05
 -18  -6  -5   33.09    2.09
 -18  -6  -5   34.60    2.07
 -18  -6  -5   35.16    2.12
 -18   6  -6    2.46    0.41
 -18   6  -6    2.97    0.40
 -18  -6  -6    3.00    0.43
 -18  -6  -6    3.06    0.38
 -18   6  -7    9.81    0.77
 -18   6  -7    8.91    0.81
 -18  -6  -7    9.38    0.74
 -18  -6  -7    9.92    0.82
 -18   6  -8    0.69    0.31
 -18   6  -8    0.91    0.31
 -18  -6  -8    1.44    0.36
 -18  -6  -8    0.83    0.27
 -18   7   0   76.64    4.47
 -18   7   0   75.08    4.42
 -18   7   0   77.33    4.51
 -18  -7   0   74.22    4.47
 -18  -7   1    0.28    0.17
 -18   7  -1    0.55    0.17
 -18   7  -1    0.33    0.15
 -18   7  -1    0.52    0.20
 -18   7   1    0.56    0.19
 -18  -7  -1    0.71    0.20
 -18   7   1    0.78    0.19
 -18   7   1    0.53    0.13
 -18  -7   2   16.29    1.12
 -18   7  -2   17.65    1.11
 -18   7  -2   17.19    1.16
 -18   7  -2   17.34    1.12
 -18  -7  -2   16.23    1.13
 -18   7   2   19.51    1.25
 -18   7   2   17.56    1.13
 -18  -7  -2   17.01    1.14
 -18   7  -3   10.49    0.76
 -18   7  -3    9.60    0.69
 -18  -7   3    9.24    0.70
 -18   7  -3   10.31    0.70
 -18  -7  -3    9.73    0.70
 -18   7   3   11.05    0.88
 -18  -7  -3    9.46    0.71
 -18  -7  -3    9.46    0.70
 -18   7   3    9.14    0.69
 -18   7  -4    4.64    0.44
 -18  -7   4    5.16    0.46
 -18   7  -4    5.10    0.46
 -18   7  -4    4.35    0.51
 -18   7   4    4.94    0.46
 -18  -7  -4    4.79    0.46
 -18  -7  -4    5.13    0.44
 -18  -7  -4    4.82    0.46
 -18   7   4    4.33    0.66
 -18  -7   5   -0.09    0.15
 -18   7  -5    0.16    0.15
 -18   7  -5    0.32    0.22
 -18   7  -5    0.17    0.20
 -18  -7  -5    0.41    0.20
 -18   7   5    0.16    0.16
 -18  -7  -5    0.27    0.17
 -18  -7  -5    0.43    0.19
 -18   7  -6   13.93    1.05
 -18   7  -6   13.99    0.99
 -18  -7  -6   13.92    0.98
 -18  -7  -6   13.95    1.03
 -18   7  -7    0.25    0.25
 -18   7  -7   -0.25    0.20
 -18  -7  -7    0.42    0.28
 -18  -7  -7   -0.24    0.17
 -18   7  -8    4.32    0.54
 -18   7  -8    3.77    0.56
 -18  -7  -8    5.23    0.60
 -18  -7  -8    3.94    0.49
 -18   8   0   20.94    1.29
 -18  -8   0   20.49    1.35
 -18   8   0   20.63    1.34
 -18   8   0   21.91    1.40
 -18  -8   1   -0.10    0.16
 -18   8  -1    0.21    0.14
 -18   8  -1    0.44    0.19
 -18   8  -1    0.30    0.19
 -18   8   1   -0.01    0.16
 -18   8   1    0.51    0.20
 -18  -8  -1    0.13    0.16
 -18   8  -2    0.30    0.15
 -18   8  -2    0.16    0.18
 -18  -8   2    0.08    0.14
 -18   8  -2    0.44    0.18
 -18   8   2    0.08    0.18
 -18  -8  -2    0.47    0.20
 -18   8   2   -0.18    0.12
 -18  -8   3    0.26    0.16
 -18   8  -3    0.15    0.18
 -18   8  -3    0.35    0.18
 -18   8  -3    0.14    0.18
 -18  -8  -3    0.32    0.17
 -18  -8  -3    0.23    0.16
 -18   8   3    0.13    0.16
 -18   8   3    0.85    0.33
 -18  -8  -3    0.18    0.18
 -18  -8   4    0.96    0.21
 -18   8  -4    0.71    0.25
 -18   8  -4    0.62    0.22
 -18   8  -4    0.95    0.22
 -18  -8  -4    1.02    0.23
 -18  -8  -4    0.75    0.21
 -18   8   4    0.86    0.20
 -18   8   4    0.54    0.34
 -18  -8  -4    0.63    0.22
 -18  -8   5    1.04    0.23
 -18   8  -5    0.93    0.30
 -18   8  -5    1.38    0.24
 -18   8  -5    0.75    0.25
 -18  -8  -5    0.36    0.24
 -18   8   5    0.92    0.22
 -18  -8  -5    1.10    0.25
 -18   8   5    0.73    0.35
 -18  -8  -5    0.97    0.23
 -18   8  -6    2.01    0.33
 -18   8  -6    1.91    0.39
 -18  -8  -6    2.39    0.34
 -18  -8  -6    2.19    0.38
 -18   8  -7    3.22    0.44
 -18   8  -7    2.65    0.45
 -18  -8  -7    2.41    0.38
 -18  -8  -7    2.64    0.42
 -18   8  -8    0.86    0.32
 -18   8  -8    1.00    0.32
 -18  -8  -8    0.60    0.31
 -18  -8  -8    0.83    0.29
 -18   9   0   25.45    1.57
 -18   9   0   21.79    1.48
 -18  -9   0   23.05    1.49
 -18   9  -1    0.16    0.14
 -18  -9   1   -0.03    0.17
 -18   9  -1    0.25    0.18
 -18   9  -1    0.22    0.16
 -18   9   1    0.03    0.15
 -18   9   1    0.11    0.19
 -18  -9  -1    0.04    0.16
 -18  -9   2    5.90    0.51
 -18   9  -2    6.03    0.50
 -18   9  -2    5.52    0.46
 -18   9  -2    6.31    0.55
 -18  -9  -2    5.27    0.52
 -18   9   2    6.74    0.71
 -18   9   2    5.45    0.52
 -18   9  -3    8.42    0.70
 -18  -9   3    8.89    0.66
 -18   9  -3    8.47    0.64
 -18   9  -3    8.06    0.64
 -18  -9  -3    8.10    0.66
 -18   9   3    9.24    0.67
 -18  -9  -3    8.86    0.66
 -18   9   3   10.10    1.02
 -18  -9   4    4.91    0.49
 -18   9  -4    6.12    0.53
 -18   9  -4    5.55    0.58
 -18   9  -4    5.71    0.48
 -18  -9  -4    5.11    0.50
 -18  -9  -4    5.73    0.52
 -18   9   4    5.70    0.82
 -18  -9  -4    6.05    0.51
 -18   9   4    5.21    0.47
 -18  -9   5    0.67    0.21
 -18   9  -5    0.83    0.21
 -18   9  -5    0.51    0.25
 -18   9  -5    0.59    0.28
 -18  -9  -5    0.70    0.23
 -18   9   5    0.30    0.38
 -18   9   5    0.67    0.20
 -18  -9  -5    0.52    0.20
 -18  -9  -5    0.70    0.26
 -18   9  -6    7.97    0.71
 -18   9  -6    6.76    0.67
 -18  -9  -6    7.22    0.68
 -18  -9  -6    7.43    0.61
 -18   9  -7    0.90    0.31
 -18   9  -7    1.16    0.33
 -18  -9  -7    0.99    0.32
 -18  -9  -7    1.07    0.28
 -18   9  -8    0.17    0.26
 -18   9  -8    0.23    0.27
 -18  -9  -8   -0.08    0.27
 -18  -9  -8    0.38    0.27
 -18  10   0    0.50    0.20
 -18  10   0    0.93    0.28
 -18 -10   0    0.64    0.22
 -18 -10   1    2.75    0.37
 -18  10  -1    2.77    0.40
 -18  10  -1    2.20    0.32
 -18  10   1    2.83    0.43
 -18 -10  -1    2.57    0.35
 -18  10   1    2.23    0.33
 -18  10  -2    2.75    0.33
 -18  10  -2    2.04    0.27
 -18  10  -2    2.12    0.34
 -18 -10   2    1.78    0.29
 -18  10   2    1.52    0.28
 -18 -10  -2    2.21    0.31
 -18  10   2    1.97    0.42
 -18 -10   3    0.58    0.23
 -18  10  -3    0.30    0.20
 -18  10  -3    0.45    0.19
 -18  10  -3    0.45    0.22
 -18 -10  -3    0.63    0.20
 -18  10   3    0.44    0.21
 -18  10   3    1.31    0.46
 -18 -10  -3    0.41    0.20
 -18  10  -4    0.14    0.20
 -18 -10   4   -0.11    0.16
 -18  10  -4   -0.12    0.18
 -18  10  -4    0.35    0.19
 -18  10   4    0.42    0.18
 -18  10   4    0.58    0.40
 -18 -10  -4    0.01    0.17
 -18 -10  -4    0.41    0.20
 -18  10  -5    2.98    0.39
 -18  10  -5    2.51    0.32
 -18 -10   5    2.66    0.34
 -18  10  -5    2.79    0.43
 -18  10   5    2.43    0.33
 -18  10   5    1.80    0.57
 -18 -10  -5    2.73    0.36
 -18 -10  -5    2.88    0.37
 -18  10  -6    0.81    0.30
 -18  10  -6    0.78    0.26
 -18 -10  -6    0.57    0.25
 -18 -10  -6    0.50    0.22
 -18  10   6    0.59    0.49
 -18  10  -7    1.28    0.35
 -18  10  -7    1.70    0.37
 -18 -10  -7    1.55    0.33
 -18 -10  -7    1.11    0.33
 -18  11   0   25.75    1.66
 -18 -11   0   26.68    1.68
 -18  11   0   26.11    1.77
 -18  11  -1    3.56    0.41
 -18  11  -1    4.03    0.49
 -18 -11   1    3.20    0.39
 -18 -11  -1    2.45    0.36
 -18  11   1    3.51    0.41
 -18  11   1    3.54    0.52
 -18 -11   2    2.95    0.39
 -18  11  -2    4.18    0.43
 -18  11  -2    4.05    0.49
 -18 -11  -2    4.17    0.45
 -18  11   2    3.27    0.40
 -18  11   2    4.29    0.63
 -18  11  -3    1.76    0.34
 -18  11  -3    1.84    0.28
 -18  11  -3    1.72    0.28
 -18 -11   3    1.31    0.28
 -18  11   3    1.97    0.30
 -18 -11  -3    1.29    0.28
 -18 -11  -3    1.85    0.30
 -18  11   3    2.08    0.50
 -18  11  -4    1.02    0.30
 -18  11  -4    0.58    0.22
 -18  11  -4    0.92    0.25
 -18 -11   4    1.01    0.26
 -18  11   4    0.65    0.23
 -18 -11  -4    0.87    0.24
 -18 -11  -4    0.72    0.21
 -18  11   4    0.63    0.40
 -18 -11   5    0.60    0.23
 -18  11  -5    0.43    0.22
 -18  11  -5    0.61    0.28
 -18 -11  -5    0.08    0.18
 -18  11   5   -0.03    0.33
 -18 -11  -5    0.74    0.25
 -18  11  -6    0.10    0.24
 -18  11  -6   -0.38    0.23
 -18 -11  -6   -0.10    0.20
 -18  11   6   -0.02    0.42
 -18  11  -7    0.27    0.29
 -18  11  -7    0.67    0.31
 -18 -12   0    0.17    0.22
 -18  12   0    0.02    0.21
 -18  12   0    0.40    0.24
 -18  12  -1    2.81    0.38
 -18 -12   1    3.10    0.40
 -18  12  -1    2.78    0.45
 -18 -12  -1    2.56    0.37
 -18  12   1    2.44    0.36
 -18  12   1    3.29    0.55
 -18  12  -2    1.78    0.31
 -18 -12   2    1.29    0.28
 -18  12  -2    1.60    0.34
 -18  12   2    1.65    0.48
 -18  12   2    1.07    0.26
 -18 -12  -2    1.58    0.30
 -18  12  -3    3.79    0.52
 -18  12  -3    5.20    0.49
 -18 -12   3    4.57    0.47
 -18  12   3    3.79    0.44
 -18 -12  -3    4.70    0.48
 -18 -12  -3    3.23    0.45
 -18  12   3    6.94    0.89
 -18  12  -4    2.63    0.35
 -18  12  -4    2.40    0.43
 -18  12  -4    2.46    0.35
 -18 -12   4    1.91    0.32
 -18 -12  -4    2.91    0.37
 -18  12   4    2.01    0.62
 -18 -12  -4    2.25    0.37
 -18  12  -5    5.41    0.52
 -18 -12   5    3.21    0.44
 -18  12  -5    4.19    0.56
 -18 -12  -5    4.82    0.48
 -18  12   5    3.19    0.75
 -18 -12  -5    4.20    0.47
 -18  12  -6    0.89    0.30
 -18  12  -6    0.66    0.32
 -18  12   6    0.48    0.49
 -18 -12  -6    0.23    0.23
 -18  13   0   46.01    2.68
 -18 -13   0   38.75    2.48
 -18  13   0   37.10    2.47
 -18  13  -1    0.84    0.27
 -18  13  -1    1.71    0.39
 -18 -13   1    1.14    0.29
 -18  13   1    2.39    0.51
 -18 -13  -1    1.21    0.29
 -18  13   1    1.46    0.28
 -18  13  -2    9.30    0.76
 -18 -13   2    9.42    0.76
 -18  13  -2   10.44    0.87
 -18  13   2   10.78    1.13
 -18  13   2    9.53    0.75
 -18 -13  -2    9.45    0.76
 -18 -13   3    0.47    0.24
 -18  13  -3    0.22    0.24
 -18  13  -3    0.55    0.23
 -18  13   3    0.64    0.42
 -18 -13  -3    0.11    0.21
 -18 -13  -3    0.43    0.22
 -18  13   3    0.07    0.22
 -18 -13   4    9.03    0.73
 -18  13  -4    9.56    0.72
 -18  13  -4    8.14    0.87
 -18  13  -4    9.36    0.83
 -18  13   4    9.39    1.21
 -18 -13  -4    9.09    0.71
 -18 -13  -4    8.29    0.73
 -18 -13   5    1.62    0.32
 -18  13  -5    1.52    0.38
 -18  13  -5    1.87    0.33
 -18 -13  -5    2.21    0.36
 -18 -13  -5    1.62    0.30
 -18  13   5    1.56    0.59
 -18  13  -6    7.18    0.75
 -18  13  -6    6.07    0.60
 -18  13   6    3.60    0.84
 -18  14   0    0.49    0.30
 -18  14   0    0.77    0.28
 -18 -14   0    0.26    0.23
 -18  14  -1   13.31    1.01
 -18  14  -1   11.27    0.84
 -18 -14   1    9.59    0.83
 -18  14   1   10.61    0.84
 -18  14   1   13.86    1.14
 -18 -14  -1   10.03    0.85
 -18  14  -2    0.08    0.28
 -18  14  -2    0.04    0.24
 -18 -14   2    0.40    0.23
 -18 -14  -2    0.22    0.21
 -18  14   2    0.86    0.43
 -18  14   2    0.32    0.24
 -18  14  -3   15.89    1.14
 -18 -14   3   17.04    1.17
 -18  14  -3   18.09    1.28
 -18 -14  -3   15.08    1.13
 -18  14   3   22.46    1.65
 -18 -14  -3   15.69    1.16
 -18  14  -4    0.84    0.33
 -18 -14   4    1.09    0.30
 -18  14  -4    1.02    0.28
 -18 -14  -4    0.99    0.24
 -18  14   4    1.10    0.61
 -18 -14  -4    0.59    0.29
 -18 -14   5    4.63    0.52
 -18  14  -5    4.27    0.59
 -18 -14  -5    4.06    0.50
 -18  14   5    4.23    0.87
 -18  15   0   29.62    1.98
 -18  15   0   28.13    1.76
 -18 -15   0   24.04    1.74
 -18 -15   1    1.76    0.35
 -18  15  -1    2.12    0.38
 -18  15  -1    2.19    0.47
 -18 -15  -1    2.36    0.40
 -18  15   1    2.89    0.59
 -18  15   1    2.89    0.40
 -18  15  -2   18.16    1.21
 -18  15  -2   19.07    1.36
 -18 -15   2   15.54    1.19
 -18  15   2   15.86    1.19
 -18 -15  -2   14.81    1.17
 -18  15   2   21.44    1.62
 -18 -15   3   -0.23    0.20
 -18  15  -3   -0.32    0.21
 -18  15  -3   -0.08    0.25
 -18 -15  -3   -0.11    0.26
 -18 -15  -3    0.11    0.17
 -18  15   3    1.05    0.57
 -18  15  -4   23.11    1.61
 -18  15  -4   21.79    1.47
 -18 -15   4   20.49    1.47
 -18 -15  -4   21.46    1.48
 -18  15   4   28.01    2.09
 -18  16   0    1.94    0.50
 -18 -16   0    1.43    0.34
 -18  16   0    0.80    0.29
 -18  16  -1    2.25    0.38
 -18 -16   1    1.50    0.34
 -18  16  -1    2.19    0.50
 -18  16   1    2.49    0.41
 -18 -16  -1    1.93    0.37
 -18  16   1    2.62    0.61
 -18 -16   2   -0.17    0.20
 -18  16  -2   -0.08    0.23
 -18  16  -2    0.39    0.30
 -18  16   2   -0.20    0.43
 -18  16   2   -0.17    0.26
 -18 -16  -2   -0.20    0.26
 -18  16  -3   15.28    1.20
 -18  16  -3   13.92    1.05
 -18 -16   3   13.46    1.04
 -18 -16  -3   13.82    1.07
 -18  16   3   17.57    1.54
 -18  17   0   21.25    1.49
 -18  17   0   15.67    1.18
 -18 -17   0   13.95    1.17
 -18  17  -1    0.75    0.40
 -18  17  -1    2.24    0.39
 -18 -17   1    1.81    0.37
 -18  17   1    1.31    0.35
 -18  17   1    1.87    0.59
 -18 -17  -1    1.49    0.39
 -18  17  -2   20.50    1.52
 -18 -17   2   18.35    1.35
 -18  17  -2   20.59    1.37
 -18 -17  -2   17.46    1.33
 -18  17   2   17.73    1.33
 -18  17   2   22.72    1.78
 -19   0   0    0.46    0.16
 -19   0  -1  109.46    6.40
 -19   0  -1  111.76    6.39
 -19   0  -1  106.57    6.41
 -19   0   1  111.28    6.41
 -19   0  -2    0.03    0.14
 -19   0  -2    0.04    0.12
 -19   0  -2   -0.03    0.13
 -19   0   2    0.34    0.14
 -19   0  -3   12.23    0.85
 -19   0  -3   12.65    0.85
 -19   0   3   12.43    0.84
 -19   0  -3   12.40    0.86
 -19   0  -4   -0.09    0.16
 -19   0  -4   -0.20    0.13
 -19   0  -4   -0.18    0.12
 -19   0   4    0.09    0.14
 -19   0  -5   17.45    1.16
 -19   0  -5   18.05    1.13
 -19   0  -5   16.74    1.19
 -19   0   5   17.55    1.12
 -19   0  -6    0.12    0.25
 -19   0  -6   -0.02    0.19
 -19   0  -7   -0.07    0.21
 -19   0  -7    0.43    0.22
 -19   0  -8    0.01    0.26
 -19   0  -8    0.43    0.25
 -19   0  -9    4.61    0.65
 -19   0  -9    6.93    0.66
 -19   1   0    0.33    0.14
 -19   1   0    0.21    0.14
 -19  -1   0    0.35    0.15
 -19   1   0    0.19    0.12
 -19   1  -1    8.29    0.58
 -19   1  -1    9.07    0.60
 -19  -1   1    7.34    0.58
 -19   1  -1    8.87    0.61
 -19   1   1    8.29    0.59
 -19  -1  -1    7.53    0.59
 -19  -1  -1    7.71    0.56
 -19  -1  -1    7.50    0.58
 -19  -1   2    3.91    0.38
 -19   1  -2    3.59    0.36
 -19   1  -2    4.21    0.37
 -19   1  -2    3.62    0.37
 -19  -1  -2    3.63    0.38
 -19  -1  -2    3.80    0.37
 -19  -1  -2    3.98    0.39
 -19   1   2    4.07    0.37
 -19   1  -3    7.80    0.61
 -19   1  -3    7.67    0.59
 -19  -1   3    7.64    0.57
 -19   1  -3    7.21    0.59
 -19   1   3    7.53    0.58
 -19  -1  -3    8.31    0.59
 -19  -1  -3    8.28    0.60
 -19  -1  -3    8.68    0.62
 -19   1  -4    0.62    0.19
 -19  -1   4    0.32    0.16
 -19   1  -4    0.56    0.18
 -19   1  -4    0.52    0.20
 -19  -1  -4    0.49    0.21
 -19  -1  -4    0.61    0.17
 -19  -1  -4    0.48    0.18
 -19   1   4    0.55    0.16
 -19   1  -5    1.11    0.21
 -19   1  -5    1.11    0.27
 -19  -1   5    0.90    0.20
 -19   1  -5    1.13    0.24
 -19   1   5    1.52    0.23
 -19  -1  -5    0.94    0.23
 -19  -1  -5    1.11    0.26
 -19  -1  -5    1.27    0.23
 -19   1  -6   62.45    3.71
 -19   1  -6   58.42    3.75
 -19  -1  -6   62.42    3.71
 -19  -1  -6   63.45    3.75
 -19   1  -7    0.73    0.25
 -19   1  -7    0.74    0.29
 -19  -1  -7    0.85    0.26
 -19  -1  -7    1.00    0.31
 -19   1  -8   32.65    2.09
 -19   1  -8   32.14    2.15
 -19  -1  -8   33.34    2.09
 -19  -1  -8   32.49    2.15
 -19   1  -9    2.72    0.45
 -19   1  -9    2.51    0.48
 -19  -1  -9    2.76    0.49
 -19  -1  -9    3.62    0.50
 -19  -2   0    0.05    0.14
 -19   2   0    0.08    0.12
 -19   2   0    0.25    0.13
 -19   2   0    0.09    0.13
 -19   2  -1   40.69    2.50
 -19   2  -1   42.51    2.50
 -19  -2   1   39.09    2.50
 -19   2  -1   41.06    2.49
 -19  -2  -1   43.36    2.52
 -19  -2  -1   41.83    2.47
 -19   2   1   41.30    2.50
 -19   2   1   41.54    2.47
 -19  -2  -1   41.71    2.51
 -19   2   1   42.83    2.49
 -19  -2   2    3.88    0.37
 -19   2  -2    4.39    0.37
 -19   2  -2    2.78    0.34
 -19   2  -2    3.46    0.38
 -19  -2  -2    3.49    0.37
 -19   2   2    3.15    0.35
 -19  -2  -2    5.40    0.39
 -19  -2  -2    3.95    0.34
 -19   2  -3   16.18    1.07
 -19   2  -3   15.81    1.04
 -19   2  -3   16.94    1.05
 -19  -2   3   16.00    1.03
 -19  -2  -3   14.89    1.03
 -19  -2  -3   16.13    1.05
 -19  -2  -3   15.24    1.04
 -19   2   3   15.67    1.02
 -19   2  -4    0.54    0.18
 -19  -2   4    0.52    0.17
 -19   2  -4    0.55    0.23
 -19   2  -4    0.29    0.18
 -19  -2  -4    0.35    0.20
 -19  -2  -4    0.64    0.19
 -19  -2  -4    0.21    0.14
 -19   2   4    0.32    0.16
 -19   2  -5   17.26    1.11
 -19   2  -5   17.87    1.17
 -19   2  -5   15.63    1.07
 -19  -2   5   16.96    1.07
 -19  -2  -5   16.38    1.13
 -19   2   5   15.66    1.06
 -19  -2  -5   15.94    1.07
 -19  -2  -5   16.10    1.10
 -19   2  -6    5.01    0.57
 -19   2  -6    5.27    0.54
 -19  -2  -6    5.78    0.59
 -19  -2  -6    5.37    0.53
 -19   2  -7    2.04    0.33
 -19   2  -7    1.65    0.35
 -19  -2  -7    1.05    0.32
 -19  -2  -7    2.10    0.34
 -19   2  -8   11.47    0.83
 -19   2  -8   10.24    0.90
 -19  -2  -8    9.39    0.85
 -19  -2  -8    9.16    0.79
 -19   2  -9    1.20    0.37
 -19   2  -9    0.44    0.32
 -19  -2  -9    0.58    0.38
 -19  -2  -9    0.45    0.32
 -19   3   0    0.11    0.12
 -19   3   0    0.35    0.15
 -19  -3   1    0.76    0.17
 -19   3  -1    0.81    0.18
 -19   3  -1    0.82    0.20
 -19   3  -1    0.63    0.17
 -19   3   1    0.80    0.15
 -19   3   1    0.62    0.14
 -19   3   1    0.45    0.18
 -19  -3  -1    0.85    0.21
 -19  -3  -1    0.66    0.19
 -19  -3   2    0.99    0.20
 -19   3  -2    0.77    0.18
 -19   3  -2    0.98    0.20
 -19   3  -2    1.36    0.22
 -19  -3  -2    1.24    0.20
 -19   3   2    0.89    0.19
 -19  -3  -2    0.96    0.21
 -19  -3  -2    0.80    0.20
 -19   3  -3   -0.11    0.12
 -19   3  -3   -0.03    0.14
 -19  -3   3    0.01    0.14
 -19   3  -3    0.14    0.16
 -19  -3  -3    0.01    0.15
 -19   3   3    0.07    0.15
 -19  -3  -3    0.05    0.14
 -19  -3  -3   -0.12    0.13
 -19  -3   4    0.54    0.16
 -19   3  -4    0.15    0.20
 -19   3  -4    0.55    0.17
 -19   3  -4    0.26    0.20
 -19  -3  -4    0.27    0.19
 -19  -3  -4    0.08    0.15
 -19   3   4    0.16    0.16
 -19  -3  -4    0.56    0.19
 -19   3  -5    1.11    0.22
 -19   3  -5    1.45    0.26
 -19   3  -5    1.08    0.29
 -19  -3   5    1.32    0.22
 -19  -3  -5    1.06    0.24
 -19   3   5    1.08    0.21
 -19  -3  -5    1.26    0.23
 -19  -3  -5    0.69    0.25
 -19   3  -6   24.42    1.64
 -19   3  -6   24.03    1.57
 -19  -3  -6   23.56    1.62
 -19  -3  -6   25.67    1.59
 -19   3  -7   -0.11    0.23
 -19   3  -7    0.15    0.22
 -19  -3  -7    0.03    0.24
 -19  -3  -7   -0.07    0.18
 -19   3  -8    5.01    0.62
 -19   3  -8    6.13    0.61
 -19  -3  -8    4.65    0.62
 -19  -3  -8    5.27    0.57
 -19   4   0    0.13    0.12
 -19   4   0   -0.02    0.15
 -19  -4   0    0.01    0.15
 -19   4   0    0.21    0.13
 -19   4  -1    2.66    0.29
 -19   4  -1    2.43    0.30
 -19   4  -1    2.98    0.33
 -19  -4   1    2.71    0.31
 -19   4   1    2.40    0.26
 -19   4   1    2.44    0.30
 -19  -4  -1    2.50    0.31
 -19   4   1    3.16    0.31
 -19  -4   2    2.75    0.32
 -19   4  -2    3.27    0.36
 -19   4  -2    3.49    0.34
 -19   4  -2    2.99    0.33
 -19  -4  -2    3.32    0.31
 -19  -4  -2    3.07    0.35
 -19   4   2    3.11    0.33
 -19   4   2    2.77    0.28
 -19  -4  -2    3.20    0.34
 -19   4   2    2.49    0.31
 -19  -4   3    0.80    0.18
 -19   4  -3    0.09    0.15
 -19   4  -3    0.41    0.18
 -19   4  -3    0.62    0.17
 -19  -4  -3    0.72    0.19
 -19  -4  -3    0.77    0.19
 -19   4   3    0.38    0.16
 -19  -4  -3    0.33    0.18
 -19   4  -4    1.52    0.27
 -19   4  -4    1.50    0.23
 -19  -4   4    1.63    0.25
 -19   4  -4    1.42    0.30
 -19   4   4    1.31    0.23
 -19  -4  -4    2.04    0.29
 -19  -4  -4    1.15    0.26
 -19  -4  -4    1.44    0.25
 -19   4  -5    0.04    0.20
 -19   4  -5   -0.10    0.17
 -19   4  -5    0.23    0.16
 -19  -4   5    0.19    0.14
 -19  -4  -5   -0.10    0.20
 -19  -4  -5   -0.17    0.13
 -19  -4  -5    0.05    0.18
 -19   4   5    0.23    0.16
 -19   4  -6    1.38    0.33
 -19   4  -6    0.77    0.25
 -19  -4  -6    1.05    0.25
 -19  -4  -6    0.54    0.28
 -19   4  -7    2.35    0.43
 -19   4  -7    2.51    0.38
 -19  -4  -7    2.72    0.43
 -19  -4  -7    2.62    0.37
 -19   4  -8    0.76    0.31
 -19   4  -8    0.52    0.30
 -19  -4  -8    0.22    0.24
 -19  -4  -8   -0.21    0.26
 -19   5   0    0.29    0.13
 -19   5   0    0.01    0.14
 -19  -5   0    0.04    0.17
 -19   5   0    0.09    0.13
 -19   5  -1   -0.10    0.12
 -19  -5   1   -0.18    0.13
 -19   5  -1    0.05    0.12
 -19   5  -1   -0.01    0.15
 -19  -5  -1   -0.02    0.14
 -19   5   1    0.12    0.13
 -19   5   1   -0.19    0.12
 -19   5   1    0.05    0.11
 -19   5  -2    7.88    0.62
 -19   5  -2    7.90    0.59
 -19  -5   2    7.62    0.59
 -19   5  -2    7.36    0.58
 -19   5   2    7.62    0.60
 -19   5   2    7.55    0.54
 -19  -5  -2    8.59    0.62
 -19  -5  -2    8.41    0.63
 -19   5   2    8.57    0.62
 -19  -5   3    0.33    0.16
 -19   5  -3    0.15    0.14
 -19   5  -3    0.22    0.15
 -19   5  -3    0.27    0.21
 -19  -5  -3    0.29    0.17
 -19  -5  -3    0.08    0.16
 -19   5   3    0.17    0.16
 -19  -5  -3    0.20    0.16
 -19   5   3    0.28    0.22
 -19   5  -4   16.08    1.09
 -19   5  -4   16.25    1.05
 -19  -5   4   14.88    1.02
 -19   5  -4   15.84    1.02
 -19  -5  -4   15.53    1.05
 -19  -5  -4   16.54    1.04
 -19   5   4   14.02    1.01
 -19  -5  -4   15.11    1.04
 -19   5  -5    0.46    0.24
 -19  -5   5    0.71    0.20
 -19   5  -5    0.35    0.17
 -19   5  -5    0.89    0.23
 -19  -5  -5    0.96    0.26
 -19   5   5    0.78    0.19
 -19  -5  -5    0.65    0.21
 -19  -5  -5    0.71    0.20
 -19   5  -6    0.62    0.24
 -19   5  -6    1.04    0.29
 -19  -5  -6    0.44    0.21
 -19  -5  -6    0.83    0.29
 -19   5  -7   -0.24    0.21
 -19   5  -7    0.02    0.21
 -19  -5  -7   -0.19    0.22
 -19  -5  -7    0.08    0.22
 -19   5  -8    0.61    0.30
 -19   5  -8   -0.02    0.25
 -19  -5  -8    0.13    0.24
 -19  -5  -8   -0.22    0.28
 -19   6   0    0.15    0.15
 -19  -6   0    0.06    0.14
 -19   6   0    0.09    0.16
 -19   6   0    0.10    0.12
 -19   6  -1   13.87    0.92
 -19  -6   1   12.98    0.91
 -19   6  -1   13.65    0.90
 -19   6  -1   12.54    0.87
 -19  -6  -1   14.04    0.92
 -19   6   1   13.36    0.85
 -19   6   1   12.78    0.90
 -19   6   1   13.49    0.93
 -19   6  -2    0.12    0.15
 -19   6  -2   -0.06    0.14
 -19   6  -2    0.12    0.16
 -19  -6   2   -0.17    0.14
 -19  -6  -2    0.05    0.14
 -19   6   2    0.11    0.16
 -19   6   2    0.22    0.16
 -19  -6  -2   -0.29    0.14
 -19  -6   3    1.30    0.23
 -19   6  -3    1.17    0.23
 -19   6  -3    1.39    0.24
 -19   6  -3    0.74    0.23
 -19   6   3    0.99    0.21
 -19  -6  -3    1.14    0.24
 -19  -6  -3    1.03    0.22
 -19  -6  -3    1.50    0.26
 -19   6   3    0.93    0.28
 -19   6  -4    0.20    0.18
 -19   6  -4    0.28    0.20
 -19  -6   4   -0.08    0.15
 -19   6  -4    0.18    0.16
 -19  -6  -4    0.10    0.16
 -19   6   4   -0.03    0.16
 -19  -6  -4    0.60    0.20
 -19  -6  -4    0.07    0.18
 -19  -6   5    0.09    0.16
 -19   6  -5   -0.12    0.21
 -19   6  -5   -0.02    0.19
 -19   6  -5    0.14    0.15
 -19  -6  -5    0.02    0.18
 -19   6   5   -0.14    0.13
 -19  -6  -5    0.13    0.17
 -19  -6  -5    0.43    0.18
 -19   6  -6    0.67    0.26
 -19   6  -6    0.81    0.29
 -19  -6  -6    0.96    0.25
 -19  -6  -6    0.81    0.29
 -19   6  -7    0.67    0.26
 -19   6  -7    0.99    0.33
 -19  -6  -7    0.53    0.24
 -19  -6  -7    0.85    0.33
 -19   6  -8    0.55    0.30
 -19   6  -8    0.47    0.33
 -19  -6  -8    0.41    0.28
 -19  -6  -8   -0.07    0.27
 -19   7   0   -0.19    0.13
 -19   7   0   -0.15    0.12
 -19  -7   0   -0.09    0.14
 -19   7   0    0.21    0.16
 -19   7  -1   23.11    1.46
 -19   7  -1   22.14    1.52
 -19  -7   1   25.30    1.51
 -19   7  -1   25.01    1.51
 -19  -7  -1   22.17    1.51
 -19   7   1   26.11    1.56
 -19   7   1   23.07    1.48
 -19   7   1   23.60    1.50
 -19   7  -2    1.52    0.25
 -19  -7   2    1.31    0.24
 -19   7  -2    1.71    0.26
 -19   7  -2    1.82    0.28
 -19   7   2    1.85    0.33
 -19  -7  -2    1.47    0.27
 -19  -7  -2    2.36    0.32
 -19   7   2    1.73    0.26
 -19   7  -3    3.34    0.41
 -19   7  -3    3.44    0.37
 -19  -7   3    3.79    0.40
 -19   7  -3    3.45    0.39
 -19  -7  -3    3.17    0.38
 -19   7   3    3.54    0.38
 -19   7   3    4.68    0.57
 -19  -7  -3    4.21    0.43
 -19   7  -4   43.99    2.53
 -19  -7   4   40.42    2.52
 -19   7  -4   40.46    2.59
 -19   7  -4   42.62    2.54
 -19  -7  -4   39.94    2.54
 -19   7   4   39.75    2.84
 -19  -7  -4   41.32    2.54
 -19   7   4   42.77    2.53
 -19  -7  -4   42.86    2.54
 -19  -7   5    0.15    0.17
 -19   7  -5    0.11    0.19
 -19   7  -5   -0.04    0.15
 -19   7  -5   -0.09    0.21
 -19   7   5    0.00    0.17
 -19  -7  -5    0.03    0.20
 -19  -7  -5    0.13    0.18
 -19  -7  -5    0.08    0.19
 -19   7  -6   15.43    1.07
 -19   7  -6   14.84    1.12
 -19  -7  -6   15.33    1.10
 -19  -7  -6   14.70    1.06
 -19   7  -7    2.64    0.39
 -19   7  -7    1.79    0.38
 -19  -7  -7    2.08    0.39
 -19  -7  -7    1.64    0.32
 -19   7  -8    7.01    0.70
 -19   7  -8    7.07    0.79
 -19  -7  -8    8.09    0.74
 -19  -7  -8    7.20    0.76
 -19  -8   0   -0.06    0.16
 -19   8   0   -0.11    0.14
 -19   8   0   -0.13    0.13
 -19   8   0    0.11    0.13
 -19   8  -1   47.72    2.85
 -19   8  -1   45.14    2.80
 -19   8  -1   49.76    2.90
 -19  -8   1   45.77    2.85
 -19   8   1   50.00    2.93
 -19   8   1   46.08    2.85
 -19  -8  -1   46.68    2.85
 -19  -8   2    0.56    0.20
 -19   8  -2    0.25    0.16
 -19   8  -2    0.38    0.20
 -19   8  -2    0.41    0.16
 -19   8   2    0.34    0.23
 -19  -8  -2    0.51    0.19
 -19  -8  -2    0.37    0.18
 -19   8   2    0.18    0.18
 -19   8  -3   48.11    2.98
 -19  -8   3   49.07    2.98
 -19   8  -3   48.03    2.96
 -19   8  -3   50.07    3.03
 -19   8   3   51.49    2.98
 -19  -8  -3   48.98    2.99
 -19   8   3   50.96    3.17
 -19  -8  -3   49.47    2.99
 -19   8  -4   -0.19    0.13
 -19   8  -4   -0.08    0.20
 -19  -8   4    0.32    0.18
 -19   8  -4    0.11    0.19
 -19   8   4    0.20    0.31
 -19  -8  -4    0.06    0.18
 -19  -8  -4   -0.05    0.18
 -19   8   4    0.04    0.16
 -19  -8  -4    0.20    0.16
 -19   8  -5    5.00    0.58
 -19   8  -5    5.69    0.48
 -19  -8   5    5.13    0.49
 -19   8  -5    5.62    0.54
 -19  -8  -5    6.12    0.54
 -19  -8  -5    4.40    0.53
 -19  -8  -5    5.62    0.53
 -19   8   5    5.70    0.49
 -19   8  -6    2.68    0.43
 -19   8  -6    2.34    0.37
 -19  -8  -6    2.92    0.38
 -19  -8  -6    2.61    0.41
 -19   8  -7    0.13    0.23
 -19   8  -7   -0.03    0.24
 -19  -8  -7    0.00    0.20
 -19  -8  -7    0.01    0.24
 -19   8  -8    0.14    0.28
 -19   8  -8   -0.07    0.25
 -19  -8  -8    0.03    0.25
 -19  -8  -8   -0.09    0.26
 -19  -9   0    0.10    0.16
 -19   9   0   -0.19    0.14
 -19   9   0   -0.02    0.19
 -19   9  -1    1.66    0.29
 -19  -9   1    1.22    0.26
 -19   9  -1    0.98    0.23
 -19   9  -1    1.39    0.22
 -19   9   1    1.10    0.26
 -19   9   1    1.22    0.30
 -19  -9  -1    1.17    0.26
 -19  -9   2    3.79    0.42
 -19   9  -2    4.34    0.43
 -19   9  -2    4.67    0.41
 -19   9  -2    4.18    0.49
 -19   9   2    4.68    0.59
 -19   9   2    4.71    0.45
 -19  -9  -2    3.97    0.44
 -19  -9   3    2.67    0.36
 -19   9  -3    2.97    0.33
 -19   9  -3    2.40    0.39
 -19   9  -3    3.26    0.37
 -19  -9  -3    2.81    0.35
 -19  -9  -3    2.99    0.36
 -19   9   3    2.33    0.33
 -19   9   3    2.73    0.49
 -19   9  -4    6.19    0.64
 -19   9  -4    6.88    0.53
 -19  -9   4    6.54    0.55
 -19   9  -4    6.15    0.58
 -19  -9  -4    6.47    0.55
 -19  -9  -4    6.77    0.56
 -19   9   4    5.46    0.81
 -19   9   4    6.12    0.54
 -19   9  -5    1.55    0.26
 -19   9  -5    1.56    0.32
 -19   9  -5    1.54    0.35
 -19  -9   5    1.88    0.30
 -19  -9  -5    1.59    0.28
 -19  -9  -5    1.28    0.28
 -19  -9  -5    1.48    0.32
 -19   9   5    1.76    0.29
 -19   9  -6   11.19    0.81
 -19   9  -6    9.19    0.82
 -19  -9  -6    8.86    0.74
 -19  -9  -6    9.69    0.81
 -19   9  -7   -0.12    0.26
 -19   9  -7   -0.12    0.22
 -19  -9  -7   -0.15    0.24
 -19  -9  -7    0.36    0.22
 -19 -10   0   -0.38    0.18
 -19  10   0   -0.03    0.16
 -19  10   0    0.06    0.19
 -19 -10   1   37.78    2.38
 -19  10  -1   43.01    2.46
 -19  10  -1   38.77    2.38
 -19  10   1   41.33    2.51
 -19 -10  -1   34.39    2.37
 -19  10   1   38.55    2.38
 -19  10  -2    1.51    0.32
 -19  10  -2    1.25    0.24
 -19  10  -2    1.56    0.26
 -19 -10   2    1.03    0.25
 -19  10   2    2.00    0.46
 -19 -10  -2    1.80    0.29
 -19  10   2    1.45    0.27
 -19  10  -3   38.76    2.43
 -19  10  -3   41.57    2.53
 -19  10  -3   38.14    2.44
 -19 -10   3   39.71    2.45
 -19 -10  -3   40.46    2.46
 -19  10   3   37.46    2.44
 -19 -10  -3   42.94    2.48
 -19  10   3   42.92    2.72
 -19  10  -4    0.31    0.19
 -19  10  -4    0.04    0.20
 -19 -10   4   -0.19    0.18
 -19  10  -4    0.02    0.21
 -19 -10  -4    0.04    0.16
 -19  10   4    0.14    0.18
 -19  10   4   -0.37    0.31
 -19 -10  -4   -0.09    0.19
 -19  10  -5   10.22    0.77
 -19  10  -5   11.21    0.89
 -19 -10   5   11.28    0.79
 -19  10  -5   10.22    0.81
 -19 -10  -5   11.37    0.80
 -19 -10  -5   10.19    0.79
 -19  10   5   10.77    0.79
 -19  10   5    7.23    1.08
 -19  10  -6    1.07    0.36
 -19  10  -6    1.10    0.29
 -19 -10  -6    1.59    0.33
 -19 -10  -6    1.37    0.31
 -19  10  -7    1.18    0.35
 -19  10  -7    0.95    0.34
 -19 -10  -7    0.68    0.29
 -19 -10  -7    0.82    0.31
 -19  11   0   -0.30    0.18
 -19 -11   0   -0.12    0.17
 -19  11   0   -0.18    0.23
 -19 -11   1    0.38    0.23
 -19  11  -1    0.21    0.22
 -19  11  -1    0.82    0.27
 -19  11   1    0.99    0.33
 -19  11   1    0.56    0.22
 -19 -11  -1    0.66    0.23
 -19 -11   2    4.84    0.50
 -19  11  -2    5.46    0.52
 -19 -11  -2    5.01    0.52
 -19  11   2    5.61    0.73
 -19  11   2    5.39    0.52
 -19  11  -3    0.49    0.25
 -19  11  -3    0.25    0.19
 -19 -11   3   -0.09    0.19
 -19  11  -3    0.24    0.19
 -19  11   3    0.14    0.17
 -19 -11  -3    0.21    0.20
 -19 -11  -3   -0.04    0.19
 -19  11   3   -0.02    0.32
 -19  11  -4    3.36    0.40
 -19  11  -4    2.66    0.44
 -19 -11   4    4.22    0.44
 -19  11  -4    3.12    0.39
 -19  11   4    5.47    0.84
 -19 -11  -4    3.18    0.39
 -19 -11  -4    2.77    0.41
 -19  11   4    3.15    0.40
 -19 -11   5   -0.10    0.20
 -19  11  -5    0.32    0.22
 -19  11  -5   -0.17    0.24
 -19  11   5    0.06    0.21
 -19  11   5   -0.26    0.37
 -19 -11  -5   -0.03    0.22
 -19 -11  -5    0.41    0.20
 -19  11  -6   12.00    0.99
 -19  11  -6   13.65    0.95
 -19  11   6   11.62    1.00
 -19 -11  -6   11.26    0.89
 -19  12   0   -0.25    0.21
 -19  12   0   -0.20    0.17
 -19 -12   0   -0.06    0.18
 -19 -12   1   39.46    2.51
 -19  12  -1   42.62    2.62
 -19  12  -1   40.42    2.51
 -19  12   1   40.90    2.51
 -19 -12  -1   37.14    2.50
 -19  12   1   44.54    2.70
 -19 -12   2    0.40    0.24
 -19  12  -2    0.04    0.18
 -19  12  -2    0.44    0.24
 -19  12   2    0.39    0.23
 -19  12   2    0.41    0.32
 -19 -12  -2    0.16    0.20
 -19  12  -3    8.50    0.76
 -19  12  -3    9.56    0.71
 -19 -12   3    8.59    0.69
 -19  12   3    9.96    1.10
 -19  12   3    9.16    0.70
 -19 -12  -3    8.36    0.69
 -19 -12  -3    7.78    0.69
 -19  12  -4    0.64    0.25
 -19  12  -4    0.40    0.29
 -19 -12   4    0.58    0.24
 -19  12  -4    1.07    0.26
 -19  12   4    0.76    0.23
 -19 -12  -4    0.54    0.20
 -19 -12  -4    0.46    0.25
 -19  12   4    1.05    0.52
 -19  12  -5   29.37    1.77
 -19 -12   5   24.89    1.73
 -19  12  -5   27.19    1.85
 -19 -12  -5   27.62    1.76
 -19  12   5   27.48    2.17
 -19 -12  -5   26.48    1.74
 -19  12   5   28.37    1.75
 -19  12  -6    0.33    0.28
 -19  12  -6   -0.20    0.28
 -19 -12  -6   -0.23    0.18
 -19  13   0   -0.31    0.21
 -19  13   0   -0.03    0.25
 -19 -13   0    0.38    0.25
 -19  13  -1    2.26    0.42
 -19  13  -1    1.85    0.33
 -19 -13   1    1.84    0.35
 -19  13   1    2.61    0.52
 -19  13   1    1.91    0.34
 -19 -13  -1    2.00    0.34
 -19  13  -2    0.06    0.23
 -19  13  -2   -0.13    0.19
 -19 -13   2    0.30    0.25
 -19  13   2   -0.05    0.21
 -19 -13  -2   -0.15    0.20
 -19  13   2    0.06    0.35
 -19  13  -3    0.76    0.26
 -19  13  -3    0.74    0.29
 -19 -13   3    0.86    0.28
 -19  13   3    0.43    0.23
 -19  13   3    1.05    0.47
 -19 -13  -3    0.91    0.23
 -19 -13  -3    0.42    0.24
 -19  13  -4    3.13    0.50
 -19 -13   4    4.40    0.48
 -19  13  -4    3.91    0.44
 -19 -13  -4    4.38    0.48
 -19  13   4    4.68    0.83
 -19 -13  -4    3.12    0.42
 -19  13   4    3.64    0.45
 -19 -13   5    1.33    0.30
 -19  13  -5    1.49    0.33
 -19  13  -5    1.15    0.38
 -19 -13  -5    0.96    0.27
 -19 -13  -5    1.44    0.32
 -19  13   5    0.71    0.50
 -19 -14   0    0.16    0.22
 -19  14   0   -0.01    0.27
 -19  14   0    0.20    0.24
 -19 -14   1    7.84    0.76
 -19  14  -1   10.52    0.92
 -19  14  -1   10.17    0.82
 -19 -14  -1   10.53    0.83
 -19  14   1   10.33    0.80
 -19  14   1   13.40    1.09
 -19  14  -2    0.19    0.22
 -19  14  -2    0.51    0.29
 -19 -14   2    0.76    0.26
 -19 -14  -2    0.33    0.23
 -19  14   2    0.10    0.22
 -19  14   2    0.28    0.35
 -19  14  -3    0.70    0.24
 -19  14  -3    1.00    0.33
 -19 -14   3    0.74    0.28
 -19 -14  -3    0.41    0.29
 -19  14   3    1.26    0.30
 -19  14   3    1.96    0.62
 -19 -14  -3    0.79    0.26
 -19 -14   4    0.00    0.24
 -19  14  -4    0.06    0.30
 -19  14  -4   -0.30    0.20
 -19 -14  -4   -0.19    0.23
 -19  14   4   -0.30    0.43
 -19  14   4   -0.20    0.20
 -19 -14  -4   -0.01    0.19
 -19  14  -5    0.32    0.33
 -19 -14   5    0.00    0.24
 -19  14   5    0.25    0.51
 -19 -14  -5   -0.14    0.24
 -19  15   0    0.34    0.34
 -19 -15   0   -0.14    0.22
 -19  15   0    0.07    0.22
 -19  15  -1    1.09    0.30
 -19 -15   1    0.82    0.29
 -19  15  -1    1.22    0.39
 -19 -15  -1    0.83    0.29
 -19  15   1    0.65    0.28
 -19  15   1    1.39    0.46
 -19  15  -2   -0.14    0.26
 -19 -15   2    0.14    0.28
 -19  15  -2   -0.22    0.20
 -19  15   2    0.29    0.45
 -19  15   2   -0.19    0.24
 -19 -15  -2    0.06    0.24
 -19  15  -3    2.26    0.36
 -19  15  -3    2.30    0.46
 -19 -15   3    2.89    0.41
 -19 -15  -3    1.73    0.36
 -19  15   3    1.49    0.36
 -19  15   3    2.74    0.68
 -19 -15  -3    2.00    0.33
 -19  15  -4    0.42    0.32
 -19 -15   4   -0.12    0.23
 -19  15  -4    0.86    0.27
 -19  15   4    0.09    0.47
 -19 -15  -4    0.06    0.27
 -19 -16   0   -0.17    0.23
 -19  16   0    0.13    0.24
 -19  16   0    0.23    0.37
 -19  16  -1    2.02    0.51
 -19 -16   1    1.12    0.32
 -19  16  -1    1.37    0.35
 -19  16   1    1.13    0.31
 -19  16   1    1.67    0.56
 -19 -16  -1    1.48    0.35
 -19  16  -2    0.18    0.32
 -19  16  -2    0.61    0.30
 -19 -16   2    0.02    0.24
 -19 -16  -2    0.06    0.27
 -19  16   2    0.40    0.26
 -19  16   2    0.08    0.42
 -19  16  -3    0.27    0.25
 -19 -16   3    0.25    0.25
 -19  16  -3    0.04    0.29
 -19  16   3    0.14    0.42
 -19 -16  -3    0.36    0.31
 -19  16   3   -0.50    0.24
 -19  17   0   -0.25    0.36
 -20   0   0   17.69    1.14
 -20   0   0   17.59    1.14
 -20   0   1    1.12    0.20
 -20   0  -1    0.69    0.17
 -20   0   2   10.35    0.72
 -20   0  -2   10.56    0.72
 -20   0  -2    8.77    0.70
 -20   0  -2   10.20    0.71
 -20   0  -3    0.51    0.18
 -20   0  -3    0.13    0.14
 -20   0  -3    0.27    0.16
 -20   0   4   16.50    1.04
 -20   0  -4   16.45    1.05
 -20   0  -4   14.88    1.06
 -20   0  -4   15.53    1.08
 -20   0  -5    0.36    0.24
 -20   0  -5   -0.12    0.17
 -20   0   5    0.14    0.15
 -20   0  -5    0.26    0.17
 -20   0  -6    3.52    0.42
 -20   0  -6    3.07    0.46
 -20   0  -7    0.04    0.21
 -20   0  -7   -0.07    0.24
 -20   0  -8    6.24    0.71
 -20   0  -8    6.95    0.67
 -20   1   0    9.15    0.62
 -20   1   0    8.53    0.64
 -20  -1   0    8.23    0.63
 -20   1  -1    1.22    0.20
 -20   1  -1    1.23    0.20
 -20   1  -1    0.99    0.20
 -20  -1   1    0.55    0.18
 -20  -1  -1    0.87    0.19
 -20   1   1    0.98    0.21
 -20  -1  -1    0.62    0.18
 -20  -1   2    0.34    0.18
 -20   1  -2    0.68    0.19
 -20   1  -2    0.72    0.18
 -20   1  -2    0.40    0.17
 -20   1   2    0.52    0.19
 -20  -1  -2    0.56    0.18
 -20  -1  -2    0.96    0.19
 -20  -1  -2    0.81    0.19
 -20   1  -3    0.40    0.17
 -20   1  -3    0.18    0.16
 -20  -1   3    0.37    0.17
 -20   1  -3    0.13    0.17
 -20   1   3    0.42    0.16
 -20  -1  -3    0.39    0.17
 -20  -1  -3    0.27    0.16
 -20  -1  -3    0.28    0.18
 -20   1  -4    3.39    0.37
 -20  -1   4    3.49    0.36
 -20   1  -4    3.28    0.39
 -20   1  -4    2.54    0.35
 -20  -1  -4    3.16    0.36
 -20  -1  -4    3.16    0.38
 -20  -1  -4    3.06    0.39
 -20   1   4    3.35    0.36
 -20   1  -5    0.18    0.21
 -20   1  -5    0.36    0.17
 -20   1  -5   -0.02    0.18
 -20  -1   5    0.42    0.17
 -20  -1  -5    0.37    0.20
 -20  -1  -5    0.36    0.19
 -20   1   5   -0.01    0.16
 -20  -1  -5    0.34    0.21
 -20   1  -6    1.29    0.33
 -20   1  -6    0.65    0.25
 -20  -1  -6    0.86    0.25
 -20  -1  -6    1.17    0.32
 -20   1  -7    4.19    0.55
 -20   1  -7    3.70    0.47
 -20  -1  -7    4.14    0.55
 -20  -1  -7    3.90    0.50
 -20   1  -8    3.51    0.47
 -20   1  -8    3.61    0.55
 -20  -1  -8    4.75    0.54
 -20  -1  -8    3.14    0.50
 -20   2   0    8.80    0.67
 -20   2   0    9.57    0.64
 -20  -2   0    9.52    0.67
 -20   2   0    8.94    0.65
 -20   2  -1   25.10    1.54
 -20   2  -1   25.88    1.53
 -20   2  -1   24.94    1.53
 -20  -2   1   23.91    1.54
 -20  -2  -1   22.96    1.54
 -20   2   1   25.27    1.54
 -20   2   1   23.32    1.51
 -20  -2  -1   24.91    1.55
 -20   2  -2   23.19    1.59
 -20   2  -2   26.00    1.62
 -20   2  -2   26.00    1.62
 -20  -2   2   27.04    1.61
 -20  -2  -2   26.98    1.63
 -20  -2  -2   26.05    1.60
 -20  -2  -2   27.18    1.62
 -20   2   2   24.31    1.61
 -20   2  -3   15.14    1.00
 -20   2  -3   15.71    1.03
 -20  -2   3   15.04    0.99
 -20   2  -3   13.26    0.98
 -20  -2  -3   15.46    1.00
 -20   2   3   14.12    0.98
 -20  -2  -3   15.45    1.01
 -20  -2  -3   15.06    1.00
 -20   2  -4    0.84    0.23
 -20   2  -4    0.93    0.21
 -20   2  -4    1.15    0.26
 -20  -2   4    0.92    0.21
 -20   2   4    1.50    0.22
 -20  -2  -4    1.06    0.25
 -20  -2  -4    0.75    0.21
 -20  -2  -4    0.83    0.20
 -20  -2   5    2.47    0.30
 -20   2  -5    2.79    0.40
 -20   2  -5    1.98    0.29
 -20   2  -5    1.87    0.33
 -20   2   5    2.51    0.31
 -20  -2  -5    2.78    0.32
 -20  -2  -5    2.39    0.33
 -20  -2  -5    2.94    0.41
 -20   2  -6    2.44    0.36
 -20   2  -6    2.78    0.43
 -20  -2  -6    2.46    0.40
 -20  -2  -6    2.60    0.38
 -20   2  -7   10.34    0.85
 -20   2  -7    9.39    0.76
 -20  -2  -7    9.33    0.76
 -20  -2  -7    8.95    0.80
 -20   2  -8    1.08    0.36
 -20   2  -8    1.24    0.34
 -20  -2  -8    0.58    0.30
 -20  -2  -8    1.27    0.40
 -20  -3   0   52.49    3.18
 -20   3   0   52.51    3.15
 -20   3   0   55.58    3.16
 -20   3   0   52.00    3.18
 -20   3  -1    0.21    0.15
 -20   3  -1    0.17    0.15
 -20  -3   1    0.47    0.16
 -20   3  -1    0.07    0.14
 -20   3   1    0.48    0.15
 -20   3   1    0.23    0.16
 -20   3   1    0.04    0.14
 -20  -3  -1   -0.12    0.15
 -20  -3  -1    0.15    0.16
 -20   3  -2    4.64    0.42
 -20   3  -2    3.75    0.39
 -20   3  -2    4.47    0.41
 -20  -3   2    3.53    0.39
 -20  -3  -2    3.74    0.40
 -20   3   2    4.05    0.40
 -20  -3  -2    3.92    0.42
 -20  -3  -2    4.63    0.45
 -20  -3   3    5.33    0.47
 -20   3  -3    4.82    0.47
 -20   3  -3    4.70    0.47
 -20   3  -3    5.44    0.48
 -20   3   3    5.71    0.47
 -20  -3  -3    6.05    0.49
 -20  -3  -3    5.43    0.50
 -20  -3  -3    5.99    0.48
 -20   3  -4   22.09    1.44
 -20   3  -4   23.10    1.49
 -20   3  -4   22.33    1.46
 -20  -3   4   23.06    1.44
 -20  -3  -4   22.69    1.45
 -20  -3  -4   22.67    1.47
 -20  -3  -4   23.60    1.47
 -20   3   4   22.52    1.43
 -20   3  -5    0.99    0.29
 -20   3  -5    1.06    0.27
 -20   3  -5    0.89    0.20
 -20  -3   5    0.84    0.21
 -20  -3  -5    0.53    0.25
 -20  -3  -5    0.89    0.21
 -20  -3  -5    0.96    0.25
 -20   3   5    0.74    0.20
 -20   3  -6    3.98    0.52
 -20   3  -6    3.65    0.44
 -20  -3  -6    4.42    0.47
 -20  -3  -6    3.83    0.48
 -20   3  -7    5.77    0.59
 -20   3  -7    5.47    0.64
 -20  -3  -7    7.08    0.62
 -20  -3  -7    5.37    0.63
 -20   3  -8    2.45    0.42
 -20   3  -8    2.04    0.44
 -20  -3  -8    2.52    0.47
 -20  -3  -8    2.66    0.41
 -20   4   0    5.78    0.46
 -20  -4   0    5.64    0.47
 -20   4   0    5.16    0.43
 -20   4   0    4.43    0.40
 -20  -4   1   11.26    0.81
 -20   4  -1    9.85    0.79
 -20   4  -1   10.65    0.77
 -20   4  -1   12.21    0.81
 -20  -4  -1   12.26    0.83
 -20   4   1   13.08    0.80
 -20   4   1   12.73    0.82
 -20  -4  -1   11.82    0.81
 -20   4   1   11.01    0.76
 -20  -4   2   10.79    0.78
 -20   4  -2   11.30    0.78
 -20   4  -2   10.12    0.79
 -20   4  -2   10.57    0.78
 -20   4   2   11.25    0.74
 -20   4   2   12.27    0.80
 -20  -4  -2   12.99    0.82
 -20  -4  -2   10.72    0.79
 -20   4  -3   24.41    1.55
 -20   4  -3   23.80    1.51
 -20  -4   3   23.93    1.51
 -20   4  -3   25.22    1.52
 -20  -4  -3   25.26    1.52
 -20  -4  -3   23.74    1.53
 -20  -4  -3   22.40    1.51
 -20   4   3   22.69    1.50
 -20   4  -4    0.02    0.16
 -20   4  -4   -0.15    0.14
 -20  -4   4    0.15    0.16
 -20   4  -4    0.20    0.19
 -20   4   4   -0.13    0.15
 -20  -4  -4   -0.35    0.16
 -20  -4  -4    0.20    0.18
 -20  -4  -4    0.07    0.16
 -20  -4   5   12.40    0.84
 -20   4  -5   12.92    0.85
 -20   4  -5   12.38    0.92
 -20   4  -5   13.43    0.91
 -20  -4  -5   11.82    0.85
 -20   4   5   12.11    0.84
 -20  -4  -5   11.15    0.87
 -20  -4  -5   11.67    0.89
 -20   4  -6   -0.22    0.23
 -20   4  -6    0.22    0.23
 -20  -4  -6   -0.07    0.21
 -20  -4  -6   -0.14    0.17
 -20   4  -7   12.33    1.02
 -20   4  -7   13.15    0.97
 -20  -4  -7   14.32    1.03
 -20  -4  -7   12.76    0.96
 -20   4  -8    0.17    0.25
 -20   4  -8    0.15    0.30
 -20  -4  -8    0.06    0.26
 -20  -4  -8    0.12    0.25
 -20   5   0   40.07    2.40
 -20  -5   0   39.37    2.41
 -20   5   0   38.08    2.36
 -20   5   0   40.73    2.40
 -20   5  -1    1.94    0.28
 -20   5  -1    1.78    0.28
 -20  -5   1    1.46    0.25
 -20   5  -1    1.75    0.23
 -20   5   1    1.52    0.25
 -20   5   1    1.74    0.22
 -20  -5  -1    1.91    0.28
 -20   5   1    1.93    0.26
 -20   5  -2   24.44    1.50
 -20   5  -2   25.45    1.52
 -20  -5   2   22.87    1.50
 -20   5  -2   24.88    1.53
 -20   5   2   22.77    1.50
 -20  -5  -2   25.61    1.54
 -20   5   2   23.95    1.53
 -20   5   2   22.86    1.45
 -20  -5  -2   23.13    1.52
 -20   5  -3    0.34    0.18
 -20   5  -3    0.62    0.18
 -20  -5   3    0.71    0.19
 -20   5  -3    0.62    0.23
 -20  -5  -3    0.16    0.17
 -20  -5  -3    0.65    0.22
 -20   5   3    0.45    0.18
 -20  -5  -3    0.47    0.19
 -20  -5   4   11.24    0.78
 -20   5  -4   10.77    0.83
 -20   5  -4   11.58    0.80
 -20   5  -4   11.64    0.79
 -20  -5  -4   10.53    0.79
 -20  -5  -4   11.39    0.78
 -20   5   4   11.24    0.77
 -20  -5  -4    9.39    0.79
 -20  -5   5    1.01    0.22
 -20   5  -5    0.75    0.24
 -20   5  -5    0.90    0.21
 -20   5  -5    1.18    0.30
 -20  -5  -5    0.67    0.23
 -20   5   5    0.78    0.21
 -20  -5  -5    1.31    0.26
 -20  -5  -5    0.96    0.22
 -20   5  -6    8.43    0.67
 -20   5  -6    7.80    0.71
 -20  -5  -6    7.64    0.70
 -20  -5  -6    7.80    0.65
 -20   5  -7    0.62    0.28
 -20   5  -7    0.44    0.27
 -20  -5  -7    0.47    0.32
 -20  -5  -7    0.39    0.26
 -20   5  -8    3.02    0.46
 -20   5  -8    3.10    0.51
 -20  -5  -8    2.87    0.51
 -20  -5  -8    3.67    0.47
 -20   6   0    2.46    0.28
 -20   6   0    2.99    0.35
 -20  -6   0    2.46    0.33
 -20   6   0    2.70    0.33
 -20   6  -1    1.91    0.27
 -20   6  -1    1.41    0.26
 -20   6  -1    1.23    0.22
 -20  -6   1    1.08    0.23
 -20   6   1    1.31    0.23
 -20   6   1    0.84    0.21
 -20   6   1    1.36    0.19
 -20  -6  -1    0.73    0.23
 -20  -6   2    4.30    0.44
 -20   6  -2    5.48    0.48
 -20   6  -2    5.11    0.45
 -20   6  -2    4.84    0.45
 -20   6   2    4.23    0.47
 -20  -6  -2    3.91    0.44
 -20  -6  -2    5.21    0.49
 -20   6   2    4.99    0.43
 -20   6  -3   11.49    0.89
 -20   6  -3   12.41    0.85
 -20  -6   3   12.25    0.86
 -20   6  -3   12.97    0.87
 -20  -6  -3   12.74    0.87
 -20   6   3   12.73    0.85
 -20  -6  -3   11.57    0.86
 -20   6  -4   14.98    0.94
 -20  -6   4   13.69    0.92
 -20   6  -4   13.92    0.99
 -20   6  -4   14.54    0.93
 -20  -6  -4   13.60    0.93
 -20   6   4   13.16    0.91
 -20  -6  -4   11.58    0.92
 -20  -6  -4   12.40    0.93
 -20   6  -5    6.59    0.63
 -20   6  -5    7.76    0.57
 -20   6  -5    7.76    0.62
 -20  -6   5    7.90    0.57
 -20   6   5    7.19    0.57
 -20  -6  -5    5.59    0.58
 -20  -6  -5    7.16    0.58
 -20  -6  -5    6.43    0.58
 -20   6  -6   -0.15    0.22
 -20   6  -6    0.12    0.22
 -20  -6  -6    0.43    0.27
 -20  -6  -6    0.29    0.21
 -20   6  -7   12.29    1.04
 -20   6  -7   12.64    0.97
 -20  -6  -7   14.11    0.98
 -20  -6  -7   13.28    1.03
 -20   6  -8    0.23    0.31
 -20   6  -8   -0.36    0.24
 -20  -6  -8    0.16    0.28
 -20  -6  -8    1.13    0.33
 -20   7   0   30.66    1.99
 -20  -7   0   31.60    2.00
 -20   7   0   34.28    2.03
 -20   7   0   32.63    1.95
 -20   7  -1    0.85    0.19
 -20  -7   1    1.70    0.28
 -20   7  -1    0.74    0.21
 -20   7  -1    0.62    0.20
 -20   7   1    1.16    0.23
 -20   7   1    1.37    0.26
 -20  -7  -1    1.45    0.26
 -20   7  -2   38.96    2.53
 -20   7  -2   42.90    2.58
 -20  -7   2   42.20    2.54
 -20   7  -2   42.60    2.52
 -20   7   2   42.98    2.61
 -20  -7  -2   40.76    2.56
 -20   7   2   41.77    2.54
 -20  -7  -2   42.35    2.55
 -20  -7   3   -0.16    0.14
 -20   7  -3   -0.03    0.18
 -20   7  -3   -0.21    0.14
 -20   7  -3    0.12    0.17
 -20   7   3    0.38    0.22
 -20  -7  -3    0.08    0.19
 -20   7   3    0.11    0.18
 -20  -7  -3    0.15    0.16
 -20   7  -4    7.57    0.61
 -20   7  -4    6.70    0.63
 -20  -7   4    7.07    0.59
 -20   7  -4    7.21    0.59
 -20  -7  -4    7.30    0.69
 -20  -7  -4    7.58    0.59
 -20  -7  -4    6.92    0.61
 -20   7   4    8.65    0.61
 -20   7  -5   -0.23    0.15
 -20   7  -5    0.12    0.20
 -20   7  -5   -0.21    0.19
 -20  -7   5    0.02    0.17
 -20  -7  -5    0.17    0.19
 -20  -7  -5   -0.07    0.16
 -20  -7  -5   -0.06    0.18
 -20   7   5   -0.30    0.14
 -20   7  -6   18.25    1.29
 -20   7  -6   16.20    1.21
 -20  -7  -6   18.35    1.26
 -20  -7  -6   18.53    1.23
 -20   7  -7    0.38    0.28
 -20   7  -7    0.07    0.24
 -20  -7  -7    0.23    0.27
 -20  -7  -7    0.04    0.21
 -20   7  -8    0.99    0.38
 -20   8   0    4.28    0.46
 -20  -8   0    3.93    0.44
 -20   8   0    4.71    0.45
 -20   8  -1    1.27    0.24
 -20   8  -1    0.76    0.19
 -20   8  -1    0.86    0.24
 -20  -8   1    1.16    0.25
 -20   8   1    1.36    0.28
 -20   8   1    0.90    0.22
 -20  -8  -1    0.98    0.25
 -20   8  -2    0.52    0.20
 -20   8  -2    0.43    0.20
 -20  -8   2    0.37    0.20
 -20   8  -2    0.56    0.19
 -20  -8  -2    0.64    0.21
 -20   8   2    0.73    0.21
 -20  -8  -2    0.59    0.21
 -20   8   2    1.03    0.27
 -20   8  -3    3.72    0.37
 -20   8  -3    3.11    0.42
 -20   8  -3    2.94    0.36
 -20  -8   3    2.41    0.35
 -20  -8  -3    2.84    0.37
 -20   8   3    3.09    0.36
 -20  -8  -3    2.57    0.37
 -20   8   3    3.28    0.50
 -20   8  -4    0.38    0.19
 -20   8  -4    0.05    0.18
 -20   8  -4    0.15    0.24
 -20  -8   4   -0.06    0.16
 -20   8   4    0.63    0.22
 -20  -8  -4    0.45    0.20
 -20  -8  -4   -0.07    0.18
 -20   8  -5    0.81    0.21
 -20   8  -5    0.66    0.29
 -20  -8   5    0.69    0.23
 -20   8  -5    0.43    0.24
 -20  -8  -5    0.83    0.24
 -20  -8  -5    0.42    0.26
 -20  -8  -5    0.63    0.22
 -20   8   5    0.52    0.22
 -20   8  -6    0.63    0.29
 -20   8  -6    0.59    0.28
 -20  -8  -6    0.45    0.28
 -20  -8  -6    0.46    0.23
 -20   8  -7    6.70    0.68
 -20   8  -7    6.98    0.75
 -20  -8  -7    6.61    0.70
 -20  -8  -7    7.76    0.69
 -20   9   0    1.09    0.27
 -20  -9   0    0.95    0.25
 -20   9   0    0.80    0.23
 -20   9  -1    0.75    0.23
 -20   9  -1    0.90    0.19
 -20  -9   1    0.70    0.22
 -20   9  -1    0.96    0.25
 -20  -9  -1    0.76    0.24
 -20   9   1    0.92    0.23
 -20   9   1    0.78    0.27
 -20   9  -2    1.60    0.31
 -20  -9   2    1.70    0.29
 -20   9  -2    2.09    0.27
 -20   9  -2    1.61    0.29
 -20  -9  -2    2.34    0.33
 -20  -9  -2    1.80    0.30
 -20   9   2    1.38    0.27
 -20   9   2    1.53    0.36
 -20   9  -3    0.16    0.20
 -20   9  -3    0.48    0.20
 -20  -9   3    0.53    0.21
 -20   9  -3    0.21    0.24
 -20   9   3    0.76    0.33
 -20   9   3    0.33    0.19
 -20  -9  -3    0.49    0.21
 -20  -9  -3    0.68    0.22
 -20  -9   4    6.28    0.57
 -20   9  -4    6.88    0.61
 -20   9  -4    6.82    0.56
 -20   9  -4    6.22    0.66
 -20   9   4    7.64    0.90
 -20  -9  -4    7.36    0.57
 -20  -9  -4    6.57    0.56
 -20   9   4    5.14    0.56
 -20   9  -5   14.75    1.03
 -20  -9   5   13.39    1.00
 -20   9  -5   16.68    1.01
 -20   9  -5   14.26    1.11
 -20  -9  -5   15.47    1.03
 -20  -9  -5   13.03    1.01
 -20   9   5   14.69    1.01
 -20   9  -6   17.29    1.23
 -20   9  -6   17.90    1.31
 -20  -9  -6   18.44    1.27
 -20  -9  -6   17.71    1.22
 -20   9  -7    5.34    0.59
 -20   9  -7    5.31    0.66
 -20  -9  -7    4.95    0.60
 -20  -9  -7    6.39    0.62
 -20 -10   0   59.94    3.77
 -20  10   0   61.13    3.76
 -20  10   0   68.09    3.86
 -20  10  -1    0.79    0.27
 -20 -10   1    0.55    0.23
 -20  10  -1    0.19    0.20
 -20  10   1    0.76    0.23
 -20 -10  -1    0.47    0.25
 -20  10   1    0.76    0.29
 -20  10  -2    8.21    0.65
 -20  10  -2    7.73    0.61
 -20  10  -2    8.58    0.71
 -20 -10   2    7.69    0.65
 -20  10   2   10.12    0.84
 -20 -10  -2    8.90    0.67
 -20  10   2    7.43    0.66
 -20  10  -3    2.62    0.33
 -20  10  -3    2.09    0.31
 -20 -10   3    2.17    0.33
 -20  10  -3    1.68    0.33
 -20  10   3    1.59    0.30
 -20 -10  -3    2.11    0.32
 -20 -10  -3    1.49    0.31
 -20  10   3    2.62    0.53
 -20  10  -4    9.05    0.74
 -20  10  -4   10.53    0.82
 -20  10  -4    9.02    0.71
 -20 -10   4    9.48    0.73
 -20 -10  -4    9.46    0.75
 -20  10   4   10.01    0.73
 -20  10   4   10.78    1.11
 -20 -10  -4    9.21    0.74
 -20  10  -5    0.40    0.21
 -20  10  -5    0.57    0.28
 -20  10  -5   -0.03    0.21
 -20 -10   5    0.37    0.22
 -20 -10  -5    0.48    0.23
 -20 -10  -5    0.29    0.23
 -20  10   5    0.38    0.22
 -20  10  -6    3.86    0.54
 -20  10  -6    4.94    0.53
 -20 -10  -6    4.92    0.59
 -20 -10  -6    4.40    0.51
 -20  10  -7    0.10    0.25
 -20  10  -7    0.24    0.27
 -20 -10  -7   -0.29    0.23
 -20  11   0    0.36    0.27
 -20  11   0    0.49    0.24
 -20 -11   0    0.25    0.22
 -20  11  -1    0.86    0.28
 -20 -11   1    0.68    0.24
 -20  11  -1    0.76    0.23
 -20  11   1    1.06    0.33
 -20  11   1    0.53    0.22
 -20 -11  -1    0.89    0.27
 -20 -11   2    3.02    0.40
 -20  11  -2    3.10    0.45
 -20  11  -2    2.20    0.36
 -20  11   2    3.40    0.41
 -20  11   2    3.16    0.52
 -20 -11  -2    2.99    0.40
 -20  11  -3    1.00    0.24
 -20  11  -3    0.98    0.25
 -20  11  -3    0.82    0.28
 -20 -11   3    0.52    0.23
 -20  11   3    0.77    0.38
 -20  11   3    0.79    0.24
 -20 -11  -3    0.50    0.21
 -20 -11  -3    0.77    0.25
 -20  11  -4   -0.18    0.18
 -20  11  -4    0.05    0.18
 -20  11  -4   -0.24    0.20
 -20 -11   4    0.02    0.19
 -20 -11  -4   -0.54    0.18
 -20  11   4    0.21    0.37
 -20 -11  -4    0.04    0.17
 -20  11   4   -0.21    0.16
 -20  11  -5    1.79    0.38
 -20  11  -5    1.98    0.34
 -20 -11   5    1.46    0.31
 -20  11   5    2.10    0.34
 -20 -11  -5    2.31    0.34
 -20 -11  -5    1.74    0.31
 -20  11  -6    0.16    0.27
 -20  11  -6    0.18    0.24
 -20 -11  -6   -0.02    0.19
 -20  12   0   33.24    2.05
 -20  12   0   29.25    1.91
 -20 -12   0   28.69    1.91
 -20  12  -1    4.92    0.59
 -20 -12   1    4.09    0.49
 -20  12  -1    4.41    0.49
 -20 -12  -1    3.67    0.47
 -20  12   1    4.89    0.51
 -20  12   1    6.79    0.73
 -20  12  -2    5.32    0.53
 -20 -12   2    4.12    0.50
 -20  12  -2    4.73    0.58
 -20  12   2    6.43    0.78
 -20 -12  -2    4.49    0.51
 -20  12   2    5.59    0.54
 -20  12  -3   21.49    1.37
 -20 -12   3   20.68    1.39
 -20  12  -3   20.85    1.45
 -20  12   3   20.84    1.38
 -20  12   3   22.24    1.69
 -20 -12  -3   19.42    1.36
 -20 -12  -3   19.83    1.38
 -20  12  -4    4.53    0.58
 -20  12  -4    4.90    0.50
 -20 -12   4    4.85    0.53
 -20  12  -4    4.87    0.52
 -20  12   4    4.86    0.51
 -20 -12  -4    5.35    0.53
 -20 -12  -4    5.35    0.54
 -20  12   4    7.74    0.99
 -20  12  -5    0.57    0.30
 -20 -12   5    0.85    0.28
 -20  12  -5    0.75    0.28
 -20 -12  -5    0.70    0.27
 -20 -12  -5    0.44    0.23
 -20  12   5    0.68    0.50
 -20  12   5    0.64    0.26
 -20  12  -6    0.06    0.27
 -20  12  -6    0.04    0.27
 -20 -12  -6    0.46    0.23
 -20  13   0   35.61    2.23
 -20  13   0   30.32    2.06
 -20 -13   0   32.39    2.07
 -20  13  -1    0.83    0.31
 -20 -13   1    0.86    0.29
 -20  13  -1    1.02    0.30
 -20  13   1    0.13    0.22
 -20  13   1    1.19    0.40
 -20 -13  -1    0.86    0.29
 -20  13  -2    9.74    0.79
 -20 -13   2    9.38    0.79
 -20  13  -2    9.68    0.88
 -20  13   2   10.13    0.79
 -20 -13  -2   10.13    0.80
 -20  13   2   11.29    1.02
 -20 -13   3    2.77    0.40
 -20  13  -3    2.63    0.46
 -20  13  -3    2.91    0.38
 -20  13   3    3.11    0.42
 -20 -13  -3    2.67    0.40
 -20 -13  -3    2.94    0.39
 -20  13   3    3.54    0.67
 -20  13  -4    1.12    0.28
 -20 -13   4    0.76    0.29
 -20  13  -4    1.26    0.36
 -20 -13  -4    0.02    0.26
 -20  13   4    1.32    0.29
 -20  13   4    1.30    0.56
 -20 -13  -4    0.73    0.24
 -20  13  -5   -0.17    0.26
 -20 -13   5   -0.12    0.23
 -20  13  -5    0.32    0.28
 -20 -13  -5   -0.20    0.22
 -20  13   5    0.27    0.25
 -20 -13  -5    0.42    0.21
 -20  13   5   -0.04    0.40
 -20  14   0    3.84    0.60
 -20  14   0    3.19    0.46
 -20 -14   0    3.27    0.45
 -20  14  -1    5.39    0.66
 -20 -14   1    4.13    0.51
 -20  14  -1    5.53    0.57
 -20  14   1    5.59    0.56
 -20 -14  -1    4.57    0.55
 -20  14   1    3.80    0.66
 -20  14  -2    1.53    0.36
 -20 -14   2    1.94    0.37
 -20  14  -2    2.32    0.45
 -20  14   2    2.48    0.38
 -20 -14  -2    2.77    0.40
 -20  14   2    2.03    0.53
 -20  14  -3    7.01    0.76
 -20 -14   3    6.46    0.66
 -20  14  -3    7.56    0.66
 -20 -14  -3    7.22    0.70
 -20  14   3    6.80    0.66
 -20  14   3    9.05    1.09
 -20 -14  -3    6.95    0.66
 -20 -14   4   10.12    0.80
 -20  14  -4   11.66    0.79
 -20  14  -4    9.16    0.86
 -20 -14  -4    9.89    0.80
 -20  14   4    8.86    1.20
 -20  14   4    8.80    0.78
 -20 -14  -4    7.13    0.75
 -20  15   0   69.08    4.23
 -20 -15   0   60.95    4.20
 -20  15   0   83.79    4.48
 -20  15  -1    0.60    0.29
 -20  15  -1    0.47    0.31
 -20 -15   1    0.40    0.28
 -20 -15  -1   -0.06    0.27
 -20  15   1    0.23    0.25
 -20  15   1    0.63    0.39
 -20  15  -2   40.72    2.48
 -20 -15   2   32.67    2.30
 -20  15  -2   38.04    2.34
 -20  15   2   32.53    2.30
 -20 -15  -2   35.01    2.32
 -20  15   2   47.46    2.73
 -20  15  -3    1.57    0.33
 -20 -15   3    1.29    0.32
 -20  15  -3    1.64    0.42
 -20 -15  -3    1.28    0.31
 -20  15   3    1.87    0.37
 -20 -15  -3    1.47    0.33
 -20  15   3    1.55    0.56
 -20 -16   0    2.00    0.38
 -20  16   0    2.99    0.61
 -20  16   0    1.65    0.39
 -20 -16   1   10.55    0.89
 -20  16  -1   10.06    0.87
 -20  16  -1   12.64    1.06
 -20 -16  -1   10.39    0.88
 -20  16   1    9.48    0.86
 -20  16   1   14.26    1.23
 -20 -16   2    4.61    0.57
 -20  16  -2    6.70    0.80
 -20  16   2    6.93    0.98
 -20 -16  -2    3.83    0.56
 -21   0   1   19.60    1.30
 -21   0  -1   20.37    1.31
 -21   0  -1   20.95    1.30
 -21   0  -2   -0.05    0.14
 -21   0   2    0.24    0.15
 -21   0  -2   -0.05    0.13
 -21   0  -2    0.14    0.15
 -21   0   3   90.19    5.36
 -21   0  -3   94.28    5.38
 -21   0  -3   90.53    5.38
 -21   0  -3   90.54    5.37
 -21   0   4    0.25    0.17
 -21   0  -4   -0.14    0.15
 -21   0  -4    0.17    0.16
 -21   0  -4    0.09    0.18
 -21   0  -5  101.02    5.91
 -21   0  -5  101.53    5.84
 -21   0  -5   99.17    5.88
 -21   0   5   96.75    5.83
 -21   0  -6   -0.05    0.23
 -21   0  -6    0.30    0.21
 -21   0  -7   18.11    1.30
 -21   0  -7   17.28    1.23
 -21   0  -8    0.14    0.29
 -21   0  -8   -0.33    0.24
 -21  -1   0    1.84    0.28
 -21   1  -1    5.44    0.48
 -21  -1   1    6.04    0.51
 -21   1  -1    6.45    0.48
 -21   1  -1    6.21    0.48
 -21  -1  -1    5.98    0.49
 -21   1   1    5.43    0.48
 -21  -1  -1    5.07    0.47
 -21  -1   2    1.44    0.24
 -21   1  -2    1.11    0.23
 -21  -1  -2    0.85    0.21
 -21  -1  -2    1.70    0.25
 -21   1   2    0.84    0.21
 -21  -1   3    0.61    0.20
 -21   1  -3    0.36    0.18
 -21   1  -3    0.50    0.19
 -21   1  -3    0.55    0.21
 -21   1   3    0.53    0.18
 -21  -1  -3    0.26    0.18
 -21  -1  -3    0.54    0.19
 -21  -1  -3    0.36    0.18
 -21   1  -4   36.95    2.22
 -21   1  -4   33.39    2.23
 -21  -1   4   36.19    2.19
 -21   1  -4   32.12    2.18
 -21  -1  -4   38.51    2.24
 -21  -1  -4   36.51    2.20
 -21   1   4   37.15    2.19
 -21  -1  -4   36.30    2.22
 -21   1  -5   19.77    1.31
 -21   1  -5   17.66    1.22
 -21   1  -5   19.16    1.27
 -21  -1   5   19.82    1.23
 -21   1   5   18.56    1.22
 -21  -1  -5   18.95    1.24
 -21  -1  -5   18.59    1.27
 -21  -1  -5   19.41    1.31
 -21   1  -6   24.24    1.62
 -21   1  -6   24.43    1.58
 -21  -1  -6   23.80    1.58
 -21  -1  -6   24.08    1.62
 -21   1  -7   19.33    1.36
 -21   1  -7   18.86    1.30
 -21  -1  -7   17.61    1.33
 -21  -1  -7   19.75    1.32
 -21   1  -8   22.70    1.55
 -21   1  -8   21.02    1.59
 -21  -1  -8   23.04    1.61
 -21  -1  -8   25.52    1.59
 -21  -2   0    0.35    0.17
 -21   2   0    0.62    0.17
 -21   2   0    0.06    0.13
 -21  -2   1    7.28    0.56
 -21   2  -1    6.66    0.54
 -21   2  -1    6.78    0.57
 -21   2  -1    7.14    0.55
 -21  -2  -1    7.44    0.57
 -21  -2  -1    7.11    0.58
 -21   2   1    7.67    0.54
 -21   2   1    7.46    0.57
 -21   2  -2    3.82    0.39
 -21   2  -2    3.13    0.37
 -21   2  -2    3.92    0.41
 -21  -2   2    3.85    0.39
 -21   2   2    4.22    0.41
 -21  -2  -2    4.43    0.42
 -21  -2  -2    4.25    0.42
 -21   2  -3   11.90    0.82
 -21   2  -3   11.58    0.83
 -21   2  -3   11.97    0.85
 -21  -2   3   11.49    0.82
 -21   2   3   11.23    0.81
 -21  -2  -3   12.46    0.84
 -21  -2  -3   11.99    0.83
 -21  -2  -3   11.00    0.82
 -21   2  -4    1.24    0.27
 -21   2  -4    0.96    0.26
 -21   2  -4    1.32    0.24
 -21  -2  -4    1.30    0.25
 -21  -2  -4    1.08    0.24
 -21   2   4    1.07    0.23
 -21   2  -5    0.08    0.23
 -21  -2   5    0.17    0.18
 -21   2  -5    0.07    0.18
 -21   2  -5   -0.18    0.16
 -21  -2  -5    0.15    0.20
 -21   2   5    0.16    0.17
 -21  -2  -5    0.09    0.19
 -21  -2  -5    0.17    0.16
 -21   2  -6    4.48    0.56
 -21   2  -6    5.32    0.54
 -21  -2  -6    5.72    0.60
 -21  -2  -6    4.47    0.51
 -21   2  -7   -0.05    0.24
 -21   2  -7    0.07    0.26
 -21  -2  -7    0.17    0.29
 -21  -2  -7    0.41    0.24
 -21   2  -8    1.54    0.36
 -21   2  -8    1.57    0.42
 -21  -2  -8    1.54    0.36
 -21  -2  -8    1.66    0.39
 -21   3   0    0.10    0.14
 -21   3   0    0.53    0.17
 -21   3   0    0.49    0.14
 -21  -3   0    0.30    0.16
 -21   3  -1    2.44    0.30
 -21   3  -1    2.03    0.30
 -21  -3   1    2.56    0.31
 -21   3  -1    2.68    0.29
 -21   3   1    2.29    0.28
 -21  -3  -1    2.58    0.33
 -21  -3  -1    3.09    0.34
 -21   3   1    1.75    0.28
 -21  -3   2   22.60    1.45
 -21   3  -2   20.35    1.44
 -21   3  -2   22.15    1.45
 -21   3  -2   22.69    1.44
 -21   3   2   23.23    1.42
 -21  -3  -2   24.33    1.47
 -21  -3  -2   25.31    1.47
 -21   3   2   22.26    1.44
 -21   3  -3    0.17    0.17
 -21   3  -3    0.12    0.18
 -21  -3   3    0.35    0.17
 -21   3  -3   -0.01    0.17
 -21  -3  -3    0.52    0.19
 -21  -3  -3    0.22    0.17
 -21  -3  -3    0.41    0.18
 -21   3   3    0.60    0.20
 -21   3  -4    0.42    0.23
 -21   3  -4    0.28    0.19
 -21   3  -4    0.35    0.17
 -21  -3   4    0.43    0.19
 -21   3   4    0.09    0.16
 -21  -3  -4    0.56    0.20
 -21  -3  -4    0.10    0.19
 -21  -3  -4    0.39    0.19
 -21  -3   5    5.58    0.50
 -21   3  -5    5.13    0.55
 -21   3  -5    5.89    0.60
 -21   3  -5    6.18    0.54
 -21  -3  -5    6.05    0.57
 -21   3   5    5.92    0.50
 -21  -3  -5    6.43    0.52
 -21  -3  -5    5.11    0.54
 -21   3  -6    2.99    0.41
 -21   3  -6    2.92    0.46
 -21  -3  -6    3.30    0.44
 -21  -3  -6    2.94    0.44
 -21   3  -7    3.69    0.47
 -21   3  -7    2.59    0.47
 -21  -3  -7    4.02    0.47
 -21  -3  -7    2.61    0.45
 -21   3  -8    7.99    0.78
 -21   3  -8    8.82    0.87
 -21  -3  -8    7.67    0.82
 -21  -3  -8    8.59    0.78
 -21   4   0    0.11    0.14
 -21   4   0   -0.01    0.15
 -21  -4   0    0.10    0.16
 -21   4   0   -0.10    0.13
 -21  -4   1    3.61    0.41
 -21   4  -1    4.07    0.41
 -21   4  -1    3.73    0.37
 -21   4  -1    3.51    0.39
 -21  -4  -1    5.02    0.46
 -21  -4  -1    3.21    0.38
 -21   4   1    3.55    0.39
 -21   4   1    4.27    0.35
 -21   4  -2    1.78    0.28
 -21   4  -2    1.56    0.27
 -21   4  -2    1.27    0.24
 -21  -4   2    2.16    0.29
 -21   4   2    1.90    0.28
 -21  -4  -2    2.17    0.29
 -21   4   2    1.65    0.22
 -21  -4  -2    2.07    0.30
 -21   4  -3   39.46    2.42
 -21  -4   3   39.38    2.42
 -21   4  -3   39.95    2.43
 -21   4  -3   39.32    2.46
 -21   4   3   41.84    2.42
 -21  -4  -3   38.90    2.43
 -21  -4  -3   39.72    2.44
 -21   4  -4    0.06    0.19
 -21  -4   4    0.31    0.17
 -21   4  -4   -0.08    0.17
 -21   4  -4   -0.10    0.16
 -21  -4  -4   -0.17    0.17
 -21  -4  -4    0.06    0.17
 -21   4   4    0.25    0.17
 -21  -4  -4    0.10    0.16
 -21  -4   5    2.38    0.32
 -21   4  -5    2.66    0.42
 -21   4  -5    2.36    0.38
 -21   4  -5    2.85    0.34
 -21   4   5    2.98    0.35
 -21  -4  -5    3.46    0.43
 -21  -4  -5    2.31    0.35
 -21  -4  -5    3.23    0.37
 -21   4  -6    3.50    0.49
 -21   4  -6    2.68    0.40
 -21  -4  -6    3.30    0.42
 -21  -4  -6    3.66    0.48
 -21   4  -7    0.06    0.25
 -21   4  -7    0.11    0.26
 -21  -4  -7    0.01    0.28
 -21  -4  -7   -0.14    0.22
 -21   4  -8   18.58    1.23
 -21   4  -8   18.28    1.31
 -21  -4  -8   16.87    1.21
 -21  -4  -8   14.08    1.24
 -21   5   0    0.03    0.12
 -21   5   0    0.11    0.15
 -21   5   0    0.29    0.19
 -21  -5   0   -0.21    0.14
 -21   5  -1   19.79    1.25
 -21  -5   1   20.18    1.25
 -21   5  -1   20.94    1.23
 -21   5  -1   18.82    1.24
 -21   5   1   17.37    1.23
 -21   5   1   18.44    1.23
 -21  -5  -1   17.71    1.24
 -21   5   1   19.53    1.20
 -21   5  -2    0.73    0.19
 -21  -5   2    0.98    0.22
 -21   5  -2    1.52    0.24
 -21   5  -2    0.80    0.22
 -21  -5  -2    0.89    0.22
 -21   5   2    0.86    0.21
 -21  -5  -2    0.68    0.22
 -21   5  -3    9.51    0.81
 -21   5  -3   10.63    0.78
 -21  -5   3   10.38    0.78
 -21   5  -3   10.73    0.78
 -21  -5  -3   13.37    0.83
 -21   5   3   11.62    0.78
 -21  -5  -3   11.44    0.80
 -21   5  -4    8.20    0.67
 -21  -5   4    7.15    0.57
 -21   5  -4    6.68    0.59
 -21   5  -4    7.59    0.59
 -21  -5  -4    6.06    0.57
 -21  -5  -4    6.85    0.60
 -21  -5  -4    8.28    0.62
 -21   5   4    7.72    0.59
 -21   5  -5   12.87    0.96
 -21   5  -5   12.41    0.87
 -21   5  -5   13.05    0.92
 -21  -5   5   12.28    0.87
 -21  -5  -5   12.53    0.88
 -21  -5  -5   12.28    0.90
 -21  -5  -5   11.41    0.91
 -21   5   5   12.21    0.85
 -21   5  -6    2.60    0.39
 -21   5  -6    2.72    0.43
 -21  -5  -6    3.35    0.44
 -21  -5  -6    3.18    0.44
 -21   5  -7    3.46    0.49
 -21   5  -7    2.22    0.40
 -21  -5  -7    2.47    0.40
 -21  -5  -7    2.16    0.43
 -21   5  -8    0.25    0.30
 -21   5  -8    0.83    0.35
 -21  -5  -8    0.40    0.27
 -21  -5  -8    1.22    0.37
 -21  -6   0    0.14    0.16
 -21   6   0    0.00    0.15
 -21   6   0   -0.19    0.14
 -21   6   0    0.12    0.15
 -21  -6   1    8.91    0.69
 -21   6  -1    8.70    0.69
 -21   6  -1    9.84    0.66
 -21   6  -1    9.04    0.69
 -21  -6  -1    7.37    0.66
 -21   6   1    8.46    0.66
 -21   6   1   10.04    0.69
 -21   6   1    9.32    0.62
 -21   6  -2    5.72    0.54
 -21   6  -2    6.05    0.50
 -21   6  -2    6.12    0.54
 -21  -6   2    5.80    0.50
 -21   6   2    5.49    0.49
 -21  -6  -2    6.11    0.53
 -21  -6  -2    6.42    0.53
 -21   6  -3   -0.50    0.16
 -21  -6   3    0.13    0.19
 -21   6  -3   -0.12    0.19
 -21   6  -3    0.04    0.16
 -21   6   3    0.20    0.18
 -21  -6  -3    0.07    0.17
 -21  -6  -3    0.14    0.19
 -21   6  -4    8.49    0.73
 -21  -6   4    8.55    0.68
 -21   6  -4    9.19    0.70
 -21   6  -4    8.42    0.68
 -21   6   4    9.21    0.70
 -21  -6  -4   10.71    0.74
 -21  -6  -4    9.88    0.71
 -21   6  -5    9.56    0.71
 -21   6  -5    8.83    0.67
 -21   6  -5    8.26    0.76
 -21  -6   5    8.92    0.67
 -21  -6  -5    9.34    0.73
 -21  -6  -5    8.14    0.68
 -21   6   5    8.75    0.67
 -21  -6  -5    7.96    0.68
 -21   6  -6    2.36    0.40
 -21   6  -6    1.77    0.33
 -21  -6  -6    1.27    0.30
 -21  -6  -6    1.60    0.34
 -21   6  -7    1.10    0.31
 -21   6  -7    0.86    0.36
 -21  -6  -7    1.36    0.34
 -21  -6  -7    1.22    0.33
 -21   7   0   -0.19    0.16
 -21  -7   0   -0.21    0.16
 -21   7   0    0.23    0.15
 -21   7   0    0.08    0.16
 -21   7  -1    3.05    0.35
 -21  -7   1    2.87    0.36
 -21   7  -1    2.51    0.30
 -21   7  -1    3.18    0.38
 -21  -7  -1    2.56    0.37
 -21   7   1    2.49    0.33
 -21   7   1    3.22    0.38
 -21  -7   2    0.07    0.19
 -21   7  -2    0.00    0.14
 -21   7  -2   -0.14    0.15
 -21   7  -2    0.10    0.18
 -21  -7  -2    0.28    0.20
 -21   7   2    0.10    0.17
 -21   7   2    0.06    0.17
 -21  -7  -2    0.21    0.19
 -21   7  -3    5.27    0.54
 -21   7  -3    5.10    0.48
 -21  -7   3    4.03    0.46
 -21   7  -3    5.24    0.48
 -21  -7  -3    4.45    0.48
 -21   7   3    5.38    0.49
 -21  -7  -3    4.79    0.49
 -21   7  -4   -0.06    0.18
 -21   7  -4   -0.44    0.15
 -21   7  -4   -0.21    0.19
 -21  -7   4   -0.02    0.18
 -21  -7  -4   -0.05    0.19
 -21  -7  -4    0.15    0.19
 -21   7   4    0.04    0.19
 -21   7  -5   14.94    1.06
 -21  -7   5   16.30    1.08
 -21   7  -5   16.99    1.12
 -21   7  -5   14.03    1.15
 -21   7   5   15.11    1.06
 -21  -7  -5   17.29    1.12
 -21  -7  -5   15.74    1.19
 -21  -7  -5   16.85    1.09
 -21   7  -6    8.69    0.79
 -21   7  -6    8.53    0.72
 -21  -7  -6    8.57    0.72
 -21  -7  -6    8.40    0.76
 -21   7  -7    3.29    0.48
 -21   7  -7    4.37    0.58
 -21  -7  -7    4.09    0.51
 -21  -7  -7    4.12    0.52
 -21  -8   0   -0.20    0.17
 -21   8   0    0.04    0.17
 -21   8   0   -0.08    0.15
 -21   8  -1   12.80    0.95
 -21  -8   1   13.89    0.94
 -21   8  -1   14.00    0.90
 -21   8  -1   12.28    0.93
 -21   8   1   13.29    0.93
 -21   8   1   14.39    0.99
 -21  -8  -1   12.99    0.94
 -21   8  -2    5.03    0.53
 -21   8  -2    4.72    0.49
 -21  -8   2    4.93    0.50
 -21   8  -2    4.96    0.47
 -21   8   2    5.04    0.51
 -21  -8  -2    6.28    0.56
 -21   8   2    6.35    0.56
 -21  -8  -2    5.11    0.52
 -21   8  -3   19.74    1.29
 -21   8  -3   19.62    1.30
 -21   8  -3   19.74    1.35
 -21  -8   3   18.73    1.29
 -21  -8  -3   18.67    1.30
 -21   8   3   19.33    1.30
 -21  -8  -3   24.12    1.35
 -21   8  -4    0.73    0.27
 -21   8  -4    0.86    0.25
 -21  -8   4    0.41    0.21
 -21   8  -4    0.81    0.23
 -21   8   4    0.30    0.21
 -21  -8  -4    0.55    0.21
 -21  -8  -4    0.60    0.22
 -21   8  -5    4.89    0.49
 -21   8  -5    4.83    0.52
 -21   8  -5    4.75    0.58
 -21  -8   5    4.92    0.51
 -21   8   5    4.87    0.51
 -21  -8  -5    6.93    0.54
 -21  -8  -5    5.88    0.56
 -21   8  -6    4.85    0.60
 -21   8  -6    4.94    0.53
 -21  -8  -6    5.74    0.56
 -21  -8  -6    3.54    0.48
 -21   8  -7    1.59    0.38
 -21   8  -7    1.54    0.39
 -21  -8  -7    1.89    0.37
 -21  -8  -7    2.09    0.41
 -21   9   0    0.08    0.20
 -21   9   0    0.14    0.20
 -21  -9   0   -0.15    0.19
 -21   9  -1    4.74    0.49
 -21  -9   1    5.54    0.53
 -21   9  -1    5.36    0.56
 -21   9   1    4.23    0.47
 -21   9   1    6.00    0.60
 -21  -9  -1    4.55    0.50
 -21  -9   2    2.31    0.35
 -21   9  -2    2.52    0.32
 -21   9  -2    2.79    0.39
 -21   9  -2    2.41    0.34
 -21   9   2    2.79    0.45
 -21  -9  -2    3.42    0.41
 -21   9   2    3.17    0.39
 -21  -9  -2    2.60    0.36
 -21  -9   3   -0.15    0.17
 -21   9  -3   -0.26    0.16
 -21   9  -3    0.24    0.20
 -21   9  -3   -0.15    0.19
 -21  -9  -3   -0.14    0.17
 -21   9   3    0.41    0.29
 -21   9   3   -0.19    0.18
 -21  -9  -3   -0.10    0.20
 -21   9  -4   11.02    0.75
 -21  -9   4    9.49    0.76
 -21   9  -4    9.65    0.81
 -21   9  -4    9.50    0.75
 -21  -9  -4   11.05    0.79
 -21   9   4    9.69    0.75
 -21  -9  -4    9.36    0.77
 -21   9  -5    0.67    0.28
 -21   9  -5    0.18    0.18
 -21  -9   5    0.39    0.22
 -21   9  -5    0.24    0.22
 -21  -9  -5    0.22    0.22
 -21   9   5    0.16    0.21
 -21  -9  -5    0.59    0.23
 -21   9  -6    7.70    0.76
 -21   9  -6   10.12    0.86
 -21  -9  -6    9.58    0.77
 -21   9  -7    0.34    0.30
 -21   9  -7    0.01    0.30
 -21  -9  -7   -0.05    0.30
 -21  -9  -7    0.13    0.24
 -21  10   0   -0.22    0.17
 -21  10   0    0.01    0.18
 -21 -10   0   -0.39    0.20
 -21 -10   1    7.25    0.62
 -21  10  -1    7.26    0.62
 -21  10  -1    7.99    0.69
 -21 -10  -1    7.74    0.63
 -21  10   1    8.08    0.73
 -21  10   1    7.25    0.64
 -21  10  -2    0.71    0.27
 -21  10  -2    0.47    0.23
 -21 -10   2    0.64    0.25
 -21  10   2    0.13    0.20
 -21  10   2    1.01    0.32
 -21 -10  -2    0.60    0.23
 -21 -10  -2    0.07    0.23
 -21  10  -3    9.67    0.76
 -21  10  -3    9.58    0.85
 -21 -10   3    9.82    0.78
 -21  10  -3   12.17    0.81
 -21 -10  -3   13.18    0.83
 -21  10   3   11.21    0.98
 -21  10   3    8.88    0.78
 -21 -10  -3    9.86    0.78
 -21  10  -4    1.49    0.29
 -21  10  -4    1.21    0.32
 -21 -10   4    1.18    0.29
 -21  10  -4    1.55    0.30
 -21 -10  -4    1.95    0.31
 -21 -10  -4    1.91    0.33
 -21  10   4    1.29    0.28
 -21  10  -5    6.57    0.73
 -21  10  -5    7.18    0.66
 -21  10  -5    7.38    0.73
 -21 -10   5    6.96    0.65
 -21 -10  -5    7.63    0.65
 -21 -10  -5    8.62    0.66
 -21  10   5    7.20    0.64
 -21  10  -6    1.26    0.35
 -21  10  -6    1.27    0.33
 -21 -10  -6    0.91    0.28
 -21  11   0    0.01    0.21
 -21  11   0    0.17    0.22
 -21 -11   0    0.05    0.23
 -21  11  -1    0.18    0.22
 -21 -11   1    0.14    0.24
 -21  11  -1    0.13    0.19
 -21 -11  -1   -0.40    0.18
 -21  11   1    0.24    0.24
 -21  11   1    0.02    0.19
 -21  11  -2    0.21    0.19
 -21  11  -2    0.32    0.23
 -21 -11   2    0.12    0.20
 -21 -11  -2    0.26    0.22
 -21  11   2    0.21    0.25
 -21  11   2    0.08    0.19
 -21  11  -3    0.97    0.31
 -21 -11   3    0.77    0.25
 -21  11  -3    1.02    0.26
 -21  11   3    1.27    0.29
 -21  11   3    1.29    0.42
 -21 -11  -3    0.83    0.25
 -21 -11  -3    0.80    0.26
 -21  11  -4   -0.26    0.21
 -21  11  -4    0.00    0.24
 -21 -11   4    0.28    0.23
 -21  11  -4    0.17    0.20
 -21 -11  -4    0.05    0.21
 -21 -11  -4    0.30    0.24
 -21  11   4    0.20    0.22
 -21  11   4    0.39    0.38
 -21  11  -5    0.56    0.31
 -21 -11   5    0.23    0.24
 -21  11  -5    0.69    0.25
 -21 -11  -5    0.56    0.25
 -21 -11  -5    0.50    0.22
 -21  11   5    0.30    0.24
 -21  11  -6    5.85    0.70
 -21  11  -6    6.01    0.61
 -21 -11  -6    6.17    0.62
 -21 -12   0   -0.08    0.23
 -21  12   0    0.16    0.27
 -21  12   0   -0.11    0.19
 -21  12  -1   29.36    1.83
 -21 -12   1   26.75    1.83
 -21  12  -1   29.32    1.91
 -21  12   1   30.76    1.98
 -21 -12  -1   27.29    1.83
 -21  12   1   27.99    1.83
 -21  12  -2    1.31    0.35
 -21 -12   2    1.73    0.33
 -21  12  -2    2.16    0.34
 -21  12   2    1.89    0.34
 -21 -12  -2    1.21    0.32
 -21  12   2    2.57    0.52
 -21 -12   3    4.94    0.50
 -21  12  -3    4.33    0.55
 -21  12  -3    5.46    0.52
 -21  12   3    4.59    0.72
 -21 -12  -3    4.36    0.50
 -21  12   3    3.43    0.46
 -21 -12  -3    4.24    0.49
 -21  12  -4    0.10    0.23
 -21  12  -4    0.34    0.26
 -21 -12   4    0.03    0.21
 -21 -12  -4    0.28    0.26
 -21 -12  -4   -0.11    0.19
 -21  12   4    0.23    0.42
 -21  12   4    0.26    0.24
 -21 -12   5    1.18    0.29
 -21  12  -5    0.90    0.32
 -21  12  -5    0.79    0.32
 -21 -12  -5    0.99    0.27
 -21 -12  -5    1.10    0.31
 -21  12   5    1.26    0.29
 -21  13   0    0.25    0.23
 -21 -13   0    0.03    0.22
 -21  13   0    0.50    0.33
 -21  13  -1   14.63    1.16
 -21 -13   1   16.16    1.18
 -21  13  -1   18.98    1.32
 -21  13   1   22.60    1.42
 -21 -13  -1   16.48    1.19
 -21  13   1   16.22    1.18
 -21  13  -2    0.43    0.24
 -21 -13   2    0.46    0.25
 -21  13  -2    0.33    0.27
 -21  13   2    0.47    0.36
 -21 -13  -2    0.25    0.26
 -21  13   2    0.55    0.25
 -21  13  -3    3.38    0.50
 -21 -13   3    2.64    0.39
 -21  13  -3    2.77    0.39
 -21 -13  -3    2.41    0.37
 -21  13   3    3.92    0.67
 -21  13   3    3.19    0.42
 -21 -13  -3    2.57    0.41
 -21  13  -4    0.19    0.27
 -21  13  -4    0.13    0.23
 -21 -13   4    0.19    0.21
 -21  13   4   -0.02    0.40
 -21  13   4    0.00    0.23
 -21 -13  -4   -0.13    0.19
 -21 -13  -4    0.09    0.23
 -21  14   0   -0.22    0.27
 -21 -14   0   -0.30    0.20
 -21  14   0    0.26    0.25
 -21  14  -1    1.63    0.33
 -21 -14   1    1.07    0.32
 -21  14  -1    1.17    0.41
 -21  14   1    0.91    0.32
 -21 -14  -1    0.98    0.31
 -21  14   1    1.15    0.41
 -21  14  -2    7.72    0.67
 -21 -14   2    6.96    0.70
 -21  14  -2    6.75    0.80
 -21  14   2    8.04    0.73
 -21 -14  -2    7.70    0.73
 -21  14   2    9.40    1.04
 -21  14  -3    1.60    0.43
 -21  14  -3    2.30    0.39
 -21 -14   3    2.44    0.39
 -21  14   3    2.52    0.64
 -21 -14  -3    2.31    0.37
 -21 -14  -3    2.10    0.37
 -21  14   3    1.61    0.34
 -21  14  -4    4.22    0.61
 -21 -14   4    4.63    0.53
 -21  14   4    6.03    0.95
 -21 -14  -4    4.92    0.56
 -21 -14  -4    4.17    0.49
 -21  15   0    0.49    0.34
 -21 -15   0   -0.13    0.23
 -21  15   0    0.06    0.29
 -21  15  -1    2.98    0.54
 -21  15  -1    3.09    0.45
 -21 -15   1    3.54    0.47
 -21  15   1    2.84    0.44
 -21  15   1    3.20    0.60
 -21 -15  -1    3.27    0.46
 -21 -15   2   -0.17    0.23
 -21  15  -2    0.21    0.24
 -21  15  -2   -0.06    0.32
 -21  15   2    0.10    0.26
 -21 -15  -2   -0.01    0.23
 -21  15   2    0.09    0.35
 -22   0   0   57.92    3.53
 -22   0   0   60.35    3.53
 -22   0  -1    1.31    0.23
 -22   0   1    0.61    0.18
 -22   0  -1    0.54    0.19
 -22   0  -2    0.37    0.20
 -22   0   2    0.22    0.17
 -22   0  -2    0.48    0.18
 -22   0  -3    0.05    0.16
 -22   0  -3    0.25    0.18
 -22   0   3    0.30    0.18
 -22   0  -3    0.07    0.16
 -22   0  -4   17.25    1.20
 -22   0  -4   17.20    1.18
 -22   0   4   19.19    1.19
 -22   0  -4   17.88    1.22
 -22   0   5    0.05    0.16
 -22   0  -5   -0.28    0.18
 -22   0  -5   -0.04    0.22
 -22   0  -5   -0.10    0.16
 -22   0  -6    0.34    0.23
 -22   0  -6    0.14    0.23
 -22   0  -7    0.15    0.25
 -22   0  -7    0.03    0.24
 -22   0  -8    0.13    0.29
 -22   0  -8   -0.35    0.28
 -22   1   0   33.47    2.03
 -22   1   0   32.22    2.05
 -22  -1   0   34.67    2.06
 -22  -1   0   32.38    2.05
 -22  -1   1    0.51    0.19
 -22   1  -1    0.17    0.17
 -22   1  -1    0.59    0.18
 -22  -1  -1    0.06    0.15
 -22   1   1    0.54    0.19
 -22  -1  -1    0.25    0.19
 -22   1   1    0.47    0.17
 -22  -1   2   23.69    1.50
 -22   1  -2   22.46    1.50
 -22   1  -2   22.86    1.49
 -22   1  -2   23.38    1.49
 -22  -1  -2   24.69    1.51
 -22  -1  -2   24.31    1.51
 -22   1   2   23.70    1.50
 -22  -1   3    3.14    0.37
 -22   1  -3    2.84    0.35
 -22   1  -3    3.73    0.40
 -22   1  -3    2.83    0.36
 -22   1   3    3.00    0.35
 -22  -1  -3    3.89    0.40
 -22  -1  -3    3.37    0.39
 -22  -1  -3    3.14    0.38
 -22   1  -4    6.32    0.55
 -22   1  -4    6.12    0.59
 -22   1  -4    6.68    0.56
 -22  -1   4    6.71    0.55
 -22   1   4    6.59    0.55
 -22  -1  -4    6.58    0.55
 -22  -1  -4    6.97    0.57
 -22  -1  -4    6.65    0.59
 -22   1  -5    4.97    0.54
 -22  -1   5    6.62    0.52
 -22   1  -5    6.27    0.61
 -22   1  -5    5.33    0.48
 -22  -1  -5    5.70    0.53
 -22  -1  -5    6.25    0.58
 -22   1   5    6.00    0.51
 -22  -1  -5    4.85    0.57
 -22   1  -6    0.91    0.31
 -22   1  -6    1.32    0.29
 -22  -1  -6    1.20    0.31
 -22  -1  -6    1.35    0.30
 -22   1  -7   21.75    1.42
 -22   1  -7   20.37    1.46
 -22  -1  -7   20.17    1.40
 -22  -1  -7   20.20    1.46
 -22   1  -8    0.89    0.31
 -22   1  -8    0.42    0.30
 -22  -1  -8    0.75    0.32
 -22  -1  -8    0.54    0.35
 -22   2   0    9.88    0.77
 -22  -2   0   11.21    0.78
 -22   2   0   11.11    0.75
 -22   2  -1    2.65    0.31
 -22   2  -1    2.68    0.34
 -22  -2   1    2.62    0.33
 -22   2   1    2.14    0.29
 -22   2   1    2.55    0.32
 -22  -2  -1    3.18    0.36
 -22  -2  -1    2.96    0.35
 -22   2  -2   13.24    0.94
 -22   2  -2   14.52    0.95
 -22   2  -2   15.98    0.96
 -22  -2   2   13.24    0.94
 -22  -2  -2   12.84    0.94
 -22   2   2   12.52    0.93
 -22  -2  -2   14.63    0.96
 -22   2  -3    6.79    0.55
 -22   2  -3    5.73    0.52
 -22  -2   3    6.28    0.53
 -22   2  -3    6.04    0.55
 -22  -2  -3    6.95    0.55
 -22  -2  -3    6.20    0.53
 -22   2   3    6.04    0.53
 -22   2  -4   69.67    4.11
 -22  -2   4   63.20    4.09
 -22   2  -4   69.41    4.12
 -22   2  -4   71.07    4.15
 -22  -2  -4   72.57    4.14
 -22  -2  -4   68.72    4.10
 -22   2   4   68.23    4.09
 -22  -2  -4   69.78    4.13
 -22   2  -5    0.74    0.24
 -22   2  -5    0.48    0.21
 -22   2  -5    0.65    0.26
 -22  -2   5    0.68    0.21
 -22  -2  -5    0.58    0.22
 -22   2   5    0.59    0.22
 -22  -2  -5    0.69    0.21
 -22  -2  -5    0.67    0.24
 -22   2  -6    6.75    0.69
 -22   2  -6    6.11    0.62
 -22  -2  -6    6.82    0.64
 -22  -2  -6    6.26    0.66
 -22   2  -7    0.25    0.29
 -22   2  -7    0.77    0.31
 -22  -2  -7    1.13    0.33
 -22  -2  -7    0.92    0.34
 -22   2  -8    1.40    0.42
 -22   2  -8    0.72    0.31
 -22  -2  -8    1.42    0.37
 -22  -2  -8    1.18    0.39
 -22   3   0   20.76    1.33
 -22   3   0   20.70    1.36
 -22  -3   0   21.58    1.36
 -22  -3   1    0.51    0.18
 -22   3  -1    0.28    0.17
 -22   3  -1    0.59    0.18
 -22   3   1    0.47    0.18
 -22  -3  -1    0.11    0.17
 -22   3   1    0.53    0.15
 -22   3  -2    2.00    0.29
 -22   3  -2    1.93    0.28
 -22  -3   2    1.74    0.28
 -22   3  -2    1.89    0.29
 -22  -3  -2    1.76    0.29
 -22   3   2    1.98    0.25
 -22   3   2    1.81    0.29
 -22  -3  -2    1.88    0.30
 -22   3  -3    7.65    0.64
 -22  -3   3    8.64    0.65
 -22   3  -3    8.81    0.66
 -22   3  -3    8.93    0.67
 -22  -3  -3    7.77    0.64
 -22   3   3    8.65    0.65
 -22  -3  -3    8.48    0.68
 -22   3  -4    4.24    0.43
 -22  -3   4    3.91    0.42
 -22   3  -4    3.93    0.44
 -22   3  -4    4.46    0.50
 -22  -3  -4    4.46    0.46
 -22  -3  -4    3.83    0.44
 -22   3   4    4.24    0.42
 -22  -3  -4    3.65    0.42
 -22   3  -5    7.68    0.71
 -22  -3   5    8.57    0.64
 -22   3  -5    8.05    0.72
 -22   3  -5    8.09    0.63
 -22   3   5    8.56    0.64
 -22  -3  -5    7.97    0.69
 -22  -3  -5    7.89    0.66
 -22  -3  -5    7.78    0.64
 -22   3  -6    2.27    0.36
 -22   3  -6    2.63    0.44
 -22  -3  -6    2.08    0.37
 -22  -3  -6    2.34    0.36
 -22   3  -7   11.08    0.84
 -22   3  -7    9.75    0.89
 -22  -3  -7   10.41    0.84
 -22  -3  -7    9.65    0.85
 -22   3  -8    4.57    0.62
 -22   3  -8    4.82    0.58
 -22  -3  -8    4.84    0.59
 -22  -3  -8    5.41    0.67
 -22  -4   0    0.07    0.16
 -22   4   0    0.33    0.15
 -22   4   0    0.22    0.16
 -22   4  -1    5.77    0.50
 -22   4  -1    5.56    0.47
 -22   4  -1    5.96    0.52
 -22  -4   1    5.71    0.50
 -22  -4  -1    5.45    0.50
 -22   4   1    5.76    0.46
 -22  -4  -1    7.30    0.55
 -22   4   1    5.88    0.54
 -22   4  -2    4.97    0.46
 -22   4  -2    4.91    0.48
 -22  -4   2    3.57    0.42
 -22   4  -2    4.71    0.44
 -22   4   2    4.10    0.43
 -22  -4  -2    5.97    0.51
 -22   4   2    4.57    0.38
 -22  -4  -2    3.92    0.44
 -22   4  -3    2.09    0.33
 -22  -4   3    1.60    0.27
 -22   4  -3    1.81    0.28
 -22   4  -3    1.42    0.27
 -22  -4  -3    1.23    0.27
 -22   4   3    1.66    0.28
 -22  -4  -3    1.70    0.29
 -22   4  -4    6.37    0.60
 -22   4  -4    6.17    0.58
 -22  -4   4    5.62    0.54
 -22   4  -4    6.33    0.53
 -22   4   4    6.29    0.52
 -22  -4  -4    6.75    0.56
 -22  -4  -4    6.24    0.53
 -22   4  -5    6.50    0.58
 -22   4  -5    5.46    0.64
 -22   4  -5    7.40    0.67
 -22  -4   5    8.06    0.59
 -22  -4  -5    7.50    0.65
 -22  -4  -5    7.15    0.65
 -22   4   5    7.56    0.59
 -22  -4  -5    7.25    0.59
 -22   4  -6    0.99    0.31
 -22   4  -6    1.28    0.30
 -22  -4  -6    1.30    0.30
 -22  -4  -6    1.03    0.32
 -22   4  -7    4.78    0.61
 -22   4  -7    5.95    0.61
 -22  -4  -7    5.20    0.58
 -22  -4  -7    5.84    0.65
 -22   5   0   47.10    2.80
 -22   5   0   46.25    2.84
 -22  -5   0   45.85    2.84
 -22   5   0   48.47    2.84
 -22  -5   1    9.63    0.72
 -22   5  -1    9.13    0.71
 -22   5  -1    9.45    0.69
 -22   5  -1    9.06    0.71
 -22  -5  -1    8.56    0.71
 -22  -5  -1   11.04    0.77
 -22   5   1   10.15    0.73
 -22   5   1   10.90    0.68
 -22   5  -2   20.28    1.34
 -22   5  -2   21.33    1.34
 -22  -5   2   20.59    1.36
 -22   5  -2   21.07    1.37
 -22  -5  -2   21.77    1.38
 -22   5   2   20.48    1.34
 -22  -5  -2   20.24    1.36
 -22   5  -3    0.01    0.17
 -22  -5   3   -0.04    0.15
 -22   5  -3   -0.07    0.16
 -22   5  -3    0.30    0.18
 -22  -5  -3    0.48    0.19
 -22   5   3   -0.49    0.15
 -22  -5  -3   -0.27    0.16
 -22   5  -4    6.61    0.63
 -22  -5   4    6.18    0.52
 -22   5  -4    5.02    0.51
 -22   5  -4    6.35    0.56
 -22  -5  -4    6.43    0.57
 -22  -5  -4    5.12    0.53
 -22   5   4    5.53    0.50
 -22   5  -5    1.51    0.28
 -22   5  -5    1.88    0.36
 -22   5  -5    1.28    0.31
 -22  -5   5    1.95    0.29
 -22  -5  -5    1.40    0.32
 -22  -5  -5    2.23    0.31
 -22   5   5    2.46    0.32
 -22  -5  -5    1.85    0.32
 -22   5  -6    0.95    0.28
 -22   5  -6    0.53    0.30
 -22  -5  -6    0.25    0.26
 -22  -5  -6    0.37    0.23
 -22   5  -7    0.62    0.28
 -22   5  -7    0.83    0.34
 -22  -5  -7    1.48    0.33
 -22  -5  -7    0.89    0.32
 -22   6   0    0.56    0.20
 -22   6   0    0.48    0.19
 -22  -6   0    0.69    0.22
 -22   6   0    0.61    0.18
 -22  -6   1    0.75    0.24
 -22   6  -1    1.08    0.22
 -22   6  -1    1.33    0.25
 -22   6  -1    1.46    0.27
 -22   6   1    1.12    0.24
 -22   6   1    1.25    0.38
 -22   6   1    1.42    0.20
 -22  -6  -1    0.86    0.24
 -22   6  -2    0.04    0.17
 -22   6  -2   -0.08    0.17
 -22  -6   2   -0.12    0.15
 -22   6  -2    0.07    0.19
 -22   6   2   -0.15    0.14
 -22  -6  -2    0.20    0.21
 -22  -6  -2   -0.01    0.19
 -22   6  -3    7.39    0.59
 -22   6  -3    6.98    0.61
 -22  -6   3    7.56    0.60
 -22   6  -3    6.53    0.58
 -22   6   3    7.15    0.59
 -22  -6  -3    6.59    0.58
 -22  -6  -3    6.72    0.59
 -22   6  -4    0.10    0.20
 -22   6  -4    0.21    0.21
 -22  -6   4    0.41    0.21
 -22   6  -4    0.18    0.18
 -22  -6  -4    0.02    0.19
 -22  -6  -4    0.30    0.20
 -22   6   4    0.25    0.20
 -22   6  -5    2.09    0.33
 -22   6  -5    2.58    0.41
 -22   6  -5    2.59    0.38
 -22  -6   5    3.00    0.36
 -22  -6  -5    3.41    0.38
 -22   6   5    1.96    0.32
 -22  -6  -5    1.97    0.34
 -22   6  -6   -0.41    0.24
 -22   6  -6    0.08    0.26
 -22  -6  -6    0.22    0.22
 -22  -6  -6   -0.53    0.22
 -22   6  -7    0.44    0.27
 -22   6  -7   -0.01    0.29
 -22  -6  -7    0.17    0.31
 -22  -6  -7   -0.13    0.22
 -22  -7   0   14.34    0.98
 -22   7   0   12.42    0.94
 -22   7   0   14.55    0.98
 -22   7   0   13.56    0.90
 -22   7  -1    0.35    0.20
 -22  -7   1    0.38    0.22
 -22   7  -1    0.49    0.18
 -22   7  -1    0.51    0.23
 -22  -7  -1    0.52    0.22
 -22   7   1    0.62    0.21
 -22   7   1    0.57    0.20
 -22   7  -2    5.00    0.47
 -22  -7   2    5.03    0.50
 -22   7  -2    5.29    0.50
 -22   7  -2    5.68    0.48
 -22   7   2    4.81    0.49
 -22  -7  -2    6.03    0.56
 -22  -7  -2    4.80    0.50
 -22   7  -3    0.98    0.25
 -22  -7   3    1.25    0.26
 -22   7  -3    0.56    0.22
 -22   7  -3    0.71    0.27
 -22  -7  -3    1.11    0.25
 -22   7   3    0.89    0.25
 -22  -7  -3    1.08    0.25
 -22   7  -4   13.86    0.93
 -22  -7   4   12.10    0.91
 -22   7  -4   12.76    1.00
 -22   7  -4   13.24    0.93
 -22   7   4   13.46    0.93
 -22  -7  -4   15.00    0.98
 -22  -7  -4   12.19    0.92
 -22   7  -5    0.59    0.25
 -22  -7   5    0.41    0.22
 -22   7  -5    0.19    0.24
 -22   7  -5    0.45    0.21
 -22  -7  -5    0.35    0.22
 -22  -7  -5    0.64    0.26
 -22   7   5    0.53    0.23
 -22   7  -6    0.20    0.26
 -22   7  -6   -0.29    0.20
 -22  -7  -6   -0.05    0.22
 -22   7  -7    0.85    0.33
 -22   7  -7    0.89    0.34
 -22  -7  -7    0.26    0.26
 -22  -7  -7    0.73    0.32
 -22  -8   0    7.56    0.62
 -22   8   0    7.63    0.63
 -22   8   0    7.41    0.64
 -22   8  -1    9.34    0.71
 -22   8  -1    9.14    0.67
 -22   8  -1    8.52    0.72
 -22  -8   1    9.31    0.71
 -22  -8  -1    9.79    0.73
 -22   8   1    9.88    0.75
 -22   8   1    9.45    0.71
 -22   8  -2   15.59    1.10
 -22  -8   2   15.47    1.07
 -22   8  -2   14.12    1.05
 -22   8  -2   15.99    1.05
 -22  -8  -2   15.56    1.09
 -22  -8  -2   16.68    1.08
 -22   8   2   15.27    1.07
 -22   8  -3    8.16    0.67
 -22  -8   3    6.96    0.65
 -22   8  -3    9.30    0.66
 -22   8  -3    8.72    0.70
 -22   8   3    7.41    0.64
 -22  -8  -3    9.15    0.68
 -22  -8  -3    7.89    0.68
 -22   8  -4    0.22    0.18
 -22  -8   4   -0.04    0.20
 -22   8  -4    0.16    0.22
 -22   8  -4    0.19    0.20
 -22   8   4   -0.01    0.20
 -22  -8  -4   -0.03    0.18
 -22  -8  -4    0.02    0.22
 -22   8  -5    3.05    0.38
 -22  -8   5    3.33    0.38
 -22   8  -5    2.52    0.39
 -22   8  -5    2.27    0.42
 -22  -8  -5    3.86    0.46
 -22  -8  -5    3.29    0.41
 -22   8   5    2.68    0.38
 -22   8  -6   -0.05    0.23
 -22   8  -6    0.39    0.29
 -22  -8  -6    0.49    0.26
 -22   8  -7    0.19    0.31
 -22   9   0   21.38    1.42
 -22  -9   0   19.77    1.39
 -22   9   0   21.66    1.38
 -22   9  -1    1.33    0.32
 -22  -9   1    1.63    0.30
 -22   9  -1    2.18    0.34
 -22  -9  -1    2.04    0.33
 -22   9   1    1.92    0.36
 -22   9   1    1.69    0.30
 -22   9  -2   23.95    1.62
 -22  -9   2   23.75    1.57
 -22   9  -2   22.96    1.54
 -22   9  -2   25.78    1.58
 -22  -9  -2   22.15    1.58
 -22   9   2   23.57    1.58
 -22   9   2   28.78    1.70
 -22  -9  -2   25.29    1.61
 -22   9  -3    0.90    0.23
 -22   9  -3    0.93    0.28
 -22  -9   3    0.78    0.26
 -22   9  -3    0.75    0.23
 -22  -9  -3    0.70    0.25
 -22  -9  -3    0.97    0.26
 -22   9   3    0.55    0.22
 -22   9  -4    9.61    0.74
 -22   9  -4    9.12    0.79
 -22  -9   4    9.20    0.74
 -22   9  -4    9.79    0.76
 -22  -9  -4   10.17    0.77
 -22   9   4    9.21    0.74
 -22  -9  -4    9.58    0.75
 -22   9  -5    2.96    0.44
 -22   9  -5    3.72    0.41
 -22  -9   5    3.18    0.42
 -22   9  -5    3.93    0.52
 -22  -9  -5    4.31    0.49
 -22  -9  -5    3.39    0.44
 -22   9   5    3.95    0.44
 -22   9  -6    8.49    0.79
 -22   9  -6    9.27    0.74
 -22  -9  -6    7.79    0.76
 -22 -10   0   39.96    2.62
 -22  10   0   45.31    2.69
 -22  10   0   42.73    2.62
 -22  10  -1    0.65    0.22
 -22  10  -1    0.32    0.25
 -22 -10   1    0.43    0.23
 -22  10   1    0.61    0.25
 -22  10   1    0.72    0.27
 -22 -10  -1    0.58    0.25
 -22  10  -2   40.70    2.63
 -22  10  -2   42.91    2.70
 -22 -10   2   42.26    2.65
 -22 -10  -2   45.80    2.69
 -22 -10  -2   39.46    2.65
 -22  10   2   50.41    2.80
 -22  10   2   42.12    2.65
 -22  10  -3    2.75    0.44
 -22 -10   3    2.27    0.36
 -22  10  -3    2.91    0.38
 -22  10  -3    3.73    0.40
 -22 -10  -3    2.96    0.41
 -22 -10  -3    3.10    0.42
 -22  10   3    2.63    0.38
 -22  10  -4    0.64    0.23
 -22  10  -4    0.36    0.26
 -22 -10   4    0.50    0.25
 -22  10  -4    0.20    0.21
 -22  10   4    0.26    0.24
 -22 -10  -4    0.14    0.20
 -22 -10  -4    0.33    0.21
 -22  10  -5    3.46    0.53
 -22  10  -5    3.50    0.46
 -22 -10   5    3.41    0.44
 -22  10   5    3.49    0.43
 -22 -10  -5    3.90    0.46
 -22 -10  -5    4.35    0.48
 -22  10  -6    9.12    0.72
 -22  10  -6    7.26    0.81
 -22 -10  -6    7.21    0.71
 -22 -11   0    0.13    0.25
 -22  11   0    0.39    0.25
 -22  11   0    0.29    0.24
 -22  11  -1    0.10    0.22
 -22 -11   1    0.05    0.21
 -22  11  -1    0.06    0.22
 -22 -11  -1    0.09    0.25
 -22  11   1   -0.21    0.24
 -22  11   1    0.13    0.20
 -22 -11   2    0.33    0.23
 -22  11  -2   -0.03    0.23
 -22  11  -2    1.06    0.32
 -22 -11  -2    0.49    0.24
 -22 -11  -2    0.77    0.28
 -22  11   2    0.68    0.25
 -22  11   2    1.02    0.34
 -22 -11   3    3.57    0.44
 -22  11  -3    2.74    0.44
 -22  11  -3    3.58    0.44
 -22  11   3    3.72    0.59
 -22 -11  -3    3.11    0.41
 -22 -11  -3    2.65    0.42
 -22  11   3    3.01    0.40
 -22  11  -4    1.37    0.32
 -22 -11   4    2.06    0.35
 -22  11  -4    1.88    0.39
 -22  11  -4    1.95    0.34
 -22 -11  -4    1.81    0.33
 -22 -11  -4    2.21    0.37
 -22  11   4    1.80    0.35
 -22  11  -5   10.96    0.91
 -22  11  -5    9.69    0.80
 -22 -11   5    8.94    0.76
 -22 -11  -5    9.76    0.79
 -22 -11  -5    9.76    0.77
 -22  11   5    9.30    0.76
 -22  12   0   24.31    1.67
 -22 -12   0   25.06    1.67
 -22  12   0   28.11    1.79
 -22 -12   1   -0.18    0.20
 -22  12  -1    0.37    0.26
 -22  12  -1    1.05    0.28
 -22  12   1    0.21    0.25
 -22  12   1    0.11    0.30
 -22 -12  -1    0.16    0.24
 -22 -12   2   16.90    1.25
 -22  12  -2   18.21    1.25
 -22  12  -2   18.64    1.33
 -22 -12  -2   17.81    1.26
 -22  12   2   17.99    1.27
 -22  12   2   22.51    1.49
 -22  12  -3    3.12    0.40
 -22 -12   3    2.77    0.40
 -22  12  -3    3.53    0.52
 -22  12   3    3.67    0.63
 -22  12   3    2.22    0.39
 -22 -12  -3    2.61    0.42
 -22 -12  -3    3.42    0.42
 -22  12  -4    5.96    0.58
 -22  12  -4    5.10    0.64
 -22 -12   4    6.03    0.60
 -22 -12  -4    6.53    0.63
 -22 -12  -4    5.63    0.58
 -22  12   4    5.62    0.58
 -22 -12   5    0.11    0.25
 -22  12  -5    0.03    0.28
 -22  12  -5   -0.02    0.25
 -22 -12  -5    0.13    0.23
 -22 -12  -5    0.27    0.27
 -22  12   5   -0.57    0.21
 -22  13   0   15.00    1.16
 -22 -13   0   17.49    1.20
 -22  13   0   17.83    1.32
 -22 -13   1    1.20    0.33
 -22  13  -1    1.08    0.37
 -22  13  -1    1.39    0.32
 -22 -13  -1    1.65    0.34
 -22  13   1    1.67    0.47
 -22  13   1    1.60    0.33
 -22  13  -2    7.06    0.77
 -22  13  -2    7.41    0.70
 -22 -13   2    6.17    0.66
 -22  13   2    6.92    0.68
 -22  13   2    8.75    0.93
 -22 -13  -2    7.62    0.70
 -22  13  -3    0.42    0.29
 -22  13  -3    0.50    0.23
 -22 -13   3    0.19    0.25
 -22 -13  -3    0.62    0.27
 -22  13   3    0.10    0.35
 -22 -13  -3    0.08    0.27
 -22  13   3    0.65    0.26
 -22 -13   4    0.25    0.26
 -22  13  -4    0.71    0.26
 -22  13  -4    0.46    0.30
 -22 -13  -4    0.35    0.24
 -22  13   4    0.28    0.26
 -22 -13  -4    0.56    0.26
 -22  14   0    0.48    0.37
 -22  14   0    0.54    0.27
 -22 -14   0    0.70    0.29
 -22 -14   1    1.35    0.33
 -22  14  -1    1.54    0.38
 -22  14  -1    1.58    0.36
 -22 -14  -1    1.66    0.34
 -22  14   1    1.57    0.44
 -22  14   1    1.28    0.33
 -22  14  -2    2.04    0.44
 -22 -14   2    1.39    0.35
 -22  14  -2    2.28    0.38
 -22  14   2    1.87    0.38
 -22  14   2    2.27    0.52
 -22 -14  -2    2.06    0.39
 -22 -14   3    3.51    0.45
 -22  14  -3    2.13    0.39
 -22  14  -3    2.45    0.49
 -22 -14  -3    1.96    0.36
 -22 -14  -3    2.28    0.40
 -22  14   3    4.04    0.75
 -22  14   3    2.21    0.41
 -22 -15   0   20.61    1.50
 -22  15   0   21.91    1.51
 -22  15   0   24.51    1.69
 -22  15  -1    0.74    0.28
 -22  15  -1    0.23    0.36
 -22 -15   1    0.37    0.28
 -22 -15  -1    0.61    0.31
 -22  15   1    0.44    0.30
 -22  15   1    1.30    0.46
 -23   0  -1   16.77    1.09
 -23   0  -1   15.36    1.06
 -23   0   1   15.46    1.07
 -23   0  -3    6.51    0.56
 -23   0  -3    6.70    0.66
 -23   0  -3    6.73    0.60
 -23   0   3    6.78    0.55
 -23   0  -4   -0.12    0.17
 -23   0  -4    0.38    0.20
 -23   0   4    0.68    0.21
 -23   0  -4    0.15    0.20
 -23   0  -5    3.78    0.47
 -23   0   5    3.61    0.40
 -23   0  -5    3.87    0.46
 -23   0  -5    3.72    0.42
 -23   0  -6    0.10    0.22
 -23   0  -6    0.01    0.23
 -23   0  -7    5.80    0.66
 -23   0  -7    8.26    0.72
 -23   1   0    0.55    0.19
 -23  -1   0    0.39    0.19
 -23  -1   0    0.27    0.19
 -23   1   0    0.42    0.18
 -23   1  -1    9.22    0.67
 -23   1  -1    8.42    0.69
 -23  -1   1    8.78    0.68
 -23  -1  -1   10.14    0.70
 -23   1   1    9.03    0.67
 -23  -1  -1    8.99    0.68
 -23   1   1    8.80    0.68
 -23   1  -2    0.55    0.22
 -23   1  -2    0.67    0.20
 -23  -1   2    0.91    0.25
 -23  -1  -2    0.89    0.22
 -23   1   2    0.68    0.21
 -23  -1  -2    0.84    0.22
 -23   1  -3    0.28    0.19
 -23   1  -3    0.30    0.20
 -23   1  -3    0.23    0.18
 -23  -1   3   -0.05    0.16
 -23  -1  -3    0.11    0.18
 -23   1   3    0.03    0.16
 -23  -1  -3    0.42    0.21
 -23   1  -4    0.44    0.22
 -23  -1   4    0.65    0.21
 -23   1  -4    0.18    0.22
 -23   1  -4    0.26    0.17
 -23  -1  -4    0.44    0.21
 -23   1   4    0.03    0.18
 -23  -1  -4    0.25    0.22
 -23  -1  -4    0.40    0.21
 -23   1  -5    1.28    0.32
 -23   1  -5    1.48    0.28
 -23   1  -5    1.34    0.30
 -23  -1   5    1.48    0.27
 -23   1   5    1.68    0.28
 -23  -1  -5    1.51    0.27
 -23  -1  -5    1.41    0.32
 -23  -1  -5    1.40    0.30
 -23   1  -6    9.00    0.76
 -23   1  -6    9.54    0.80
 -23  -1  -6    7.53    0.73
 -23  -1  -6    8.90    0.73
 -23   1  -7    0.34    0.27
 -23   1  -7    0.26    0.27
 -23  -1  -7    0.12    0.25
 -23  -1  -7   -0.05    0.29
 -23   2   0    0.47    0.18
 -23  -2   0    0.60    0.19
 -23  -2   0    0.67    0.22
 -23   2   0    0.34    0.16
 -23   2  -1    1.77    0.28
 -23   2  -1    1.69    0.26
 -23  -2   1    1.65    0.27
 -23  -2  -1    1.06    0.25
 -23   2   1    1.76    0.28
 -23  -2  -1    1.76    0.31
 -23   2   1    1.83    0.25
 -23  -2   2    0.60    0.22
 -23   2  -2    0.25    0.21
 -23   2  -2   -0.01    0.15
 -23   2  -2    0.34    0.20
 -23   2   2    0.41    0.19
 -23  -2  -2    0.89    0.21
 -23  -2  -2    0.15    0.20
 -23   2  -3    0.35    0.20
 -23   2  -3    0.13    0.17
 -23   2  -3    0.18    0.20
 -23  -2   3   -0.03    0.15
 -23  -2  -3   -0.31    0.17
 -23   2   3    0.07    0.17
 -23  -2  -3   -0.07    0.17
 -23   2  -4    2.32    0.34
 -23   2  -4    2.00    0.35
 -23  -2   4    1.59    0.28
 -23   2  -4    2.09    0.31
 -23   2   4    2.24    0.31
 -23  -2  -4    1.49    0.47
 -23  -2  -4    2.03    0.30
 -23  -2  -4    1.53    0.31
 -23  -2   5   -0.12    0.17
 -23   2  -5    0.05    0.19
 -23   2  -5    0.15    0.19
 -23   2  -5    0.10    0.25
 -23  -2  -5   -0.20    0.20
 -23  -2  -5   -0.10    0.20
 -23  -2  -5    0.06    0.18
 -23   2   5   -0.04    0.16
 -23   2  -6    6.63    0.68
 -23   2  -6    6.71    0.64
 -23  -2  -6    5.46    0.65
 -23  -2  -6    7.09    0.66
 -23   2  -7    1.55    0.36
 -23   2  -7    1.53    0.37
 -23  -2  -7    1.14    0.33
 -23  -2  -7    0.87    0.33
 -23   3   0    0.05    0.14
 -23  -3   0    0.08    0.17
 -23   3   0    0.24    0.18
 -23   3  -1   31.35    1.87
 -23  -3   1   29.56    1.90
 -23   3  -1   27.06    1.88
 -23   3   1   30.16    1.86
 -23  -3  -1   29.42    1.89
 -23   3   1   31.28    1.90
 -23  -3  -1   33.58    1.92
 -23   3  -2    0.90    0.23
 -23   3  -2    0.93    0.23
 -23   3  -2    0.77    0.23
 -23  -3   2    0.93    0.24
 -23   3   2    0.67    0.21
 -23  -3  -2    0.86    0.25
 -23   3   2    0.74    0.20
 -23  -3  -2    0.42    0.20
 -23   3  -3   17.58    1.17
 -23   3  -3   17.79    1.15
 -23   3  -3   16.36    1.14
 -23  -3   3   16.28    1.14
 -23  -3  -3   17.22    1.16
 -23  -3  -3   16.82    1.15
 -23   3   3   17.32    1.14
 -23   3  -4    0.35    0.24
 -23   3  -4    0.59    0.21
 -23   3  -4    0.30    0.24
 -23  -3   4    0.41    0.21
 -23   3   4    0.05    0.19
 -23  -3  -4    0.60    0.21
 -23  -3  -4    0.29    0.21
 -23   3  -5   14.50    1.12
 -23   3  -5   15.09    1.05
 -23  -3   5   15.06    1.04
 -23   3  -5   14.65    1.08
 -23   3   5   15.86    1.05
 -23  -3  -5   15.13    1.08
 -23  -3  -5   15.86    1.11
 -23  -3  -5   16.23    1.05
 -23   3  -6    0.53    0.26
 -23   3  -6    0.48    0.28
 -23  -3  -6    0.83    0.28
 -23  -3  -6    0.15    0.25
 -23   3  -7   16.75    1.20
 -23   3  -7   17.84    1.17
 -23  -3  -7   13.18    1.09
 -23  -3  -7   13.76    1.15
 -23  -4   0    0.05    0.20
 -23   4   0    0.17    0.17
 -23   4   0   -0.10    0.14
 -23   4  -1    1.98    0.34
 -23  -4   1    1.73    0.31
 -23   4  -1    2.17    0.31
 -23   4  -1    2.20    0.30
 -23  -4  -1    2.00    0.32
 -23  -4  -1    1.97    0.30
 -23   4   1    2.23    0.27
 -23   4   1    1.96    0.30
 -23   4  -2   10.73    0.75
 -23  -4   2    9.67    0.74
 -23   4  -2   10.41    0.77
 -23   4  -2   10.53    0.75
 -23   4   2   10.62    0.71
 -23  -4  -2    9.92    0.76
 -23   4   2    9.39    0.75
 -23  -4  -2    9.11    0.74
 -23   4  -3    0.63    0.23
 -23   4  -3    0.33    0.21
 -23  -4   3    0.58    0.21
 -23   4  -3    0.74    0.21
 -23  -4  -3    0.48    0.21
 -23   4   3    1.04    0.23
 -23  -4  -3    0.35    0.23
 -23   4  -4   18.00    1.24
 -23   4  -4   16.45    1.17
 -23  -4   4   17.32    1.18
 -23   4  -4   17.82    1.20
 -23   4   4   17.62    1.17
 -23  -4  -4   18.11    1.20
 -23  -4  -4   18.69    1.21
 -23   4  -5    0.07    0.21
 -23   4  -5    0.41    0.27
 -23  -4   5    0.08    0.19
 -23   4  -5    0.32    0.21
 -23   4   5   -0.07    0.19
 -23  -4  -5    0.17    0.21
 -23  -4  -5   -0.04    0.19
 -23   4  -6   11.60    0.94
 -23   4  -6   10.60    0.88
 -23  -4  -6   11.74    0.93
 -23  -4  -6   12.61    0.90
 -23   4  -7    0.22    0.27
 -23   4  -7    0.15    0.28
 -23  -4  -7    0.52    0.33
 -23  -4  -7    0.42    0.25
 -23   5   0   -0.17    0.16
 -23  -5   0   -0.32    0.16
 -23   5   0    0.34    0.16
 -23   5  -1    1.11    0.23
 -23   5  -1    1.26    0.25
 -23   5  -1    1.50    0.27
 -23  -5   1    1.82    0.30
 -23  -5  -1    0.97    0.27
 -23   5   1    1.15    0.25
 -23   5   1    1.55    0.23
 -23  -5  -1    2.28    0.34
 -23   5  -2    0.47    0.19
 -23   5  -2    0.46    0.20
 -23  -5   2    0.61    0.22
 -23   5  -2    0.51    0.23
 -23  -5  -2    0.39    0.22
 -23  -5  -2    0.47    0.21
 -23   5   2    0.31    0.20
 -23  -5   3   59.09    3.52
 -23   5  -3   58.13    3.55
 -23   5  -3   57.05    3.52
 -23   5  -3   59.36    3.52
 -23  -5  -3   61.00    3.54
 -23  -5  -3   58.38    3.54
 -23   5   3   57.66    3.52
 -23   5  -4    0.86    0.25
 -23   5  -4    0.83    0.29
 -23  -5   4    0.75    0.23
 -23   5  -4    1.25    0.27
 -23  -5  -4    0.88    0.24
 -23   5   4    1.30    0.25
 -23  -5  -4    1.05    0.26
 -23   5  -5   13.68    1.04
 -23   5  -5   14.32    1.07
 -23   5  -5   15.33    1.00
 -23  -5   5   15.00    1.01
 -23  -5  -5   14.30    1.01
 -23  -5  -5   15.15    1.04
 -23   5   5   13.14    0.98
 -23   5  -6    0.14    0.25
 -23   5  -6    0.69    0.28
 -23  -5  -6    0.18    0.28
 -23  -5  -6    0.06    0.22
 -23   5  -7    4.68    0.60
 -23   5  -7    4.43    0.56
 -23  -5  -7    4.09    0.56
 -23  -5  -7    3.70    0.51
 -23   6   0    0.05    0.16
 -23  -6   0   -0.20    0.16
 -23   6   0    0.02    0.18
 -23   6   0   -0.25    0.19
 -23  -6   1    3.83    0.45
 -23   6  -1    4.15    0.46
 -23   6  -1    4.76    0.47
 -23   6  -1    4.75    0.43
 -23  -6  -1    4.46    0.47
 -23   6   1    4.54    0.47
 -23   6  -2    4.57    0.46
 -23  -6   2    4.03    0.44
 -23   6  -2    4.14    0.42
 -23   6  -2    4.31    0.48
 -23   6   2    4.42    0.45
 -23  -6  -2    4.39    0.48
 -23  -6  -2    4.04    0.45
 -23   6  -3    0.52    0.23
 -23  -6   3    0.77    0.23
 -23   6  -3    0.48    0.21
 -23   6  -3    1.00    0.29
 -23  -6  -3    0.32    0.23
 -23   6   3    0.19    0.19
 -23  -6  -3    1.04    0.25
 -23  -6   4   22.00    1.48
 -23   6  -4   22.53    1.54
 -23   6  -4   22.66    1.48
 -23   6  -4   22.19    1.49
 -23   6   4   24.80    1.49
 -23  -6  -4   20.79    1.48
 -23  -6  -4   25.62    1.53
 -23   6  -5    0.55    0.29
 -23  -6   5    0.37    0.22
 -23   6  -5    0.25    0.23
 -23   6  -5    0.48    0.21
 -23   6   5    0.08    0.20
 -23  -6  -5    0.00    0.17
 -23  -6  -5    0.03    0.20
 -23   6  -6    5.10    0.62
 -23   6  -6    6.99    0.65
 -23  -6  -6    5.01    0.59
 -23   6  -7    0.65    0.30
 -23   6  -7    0.40    0.31
 -23  -6  -7    0.50    0.32
 -23  -6  -7    0.74    0.32
 -23  -7   0   -0.26    0.17
 -23   7   0    0.24    0.18
 -23   7   0    0.11    0.19
 -23   7  -1   16.26    1.08
 -23   7  -1   16.47    1.10
 -23   7  -1   16.09    1.05
 -23  -7   1   14.83    1.08
 -23   7   1   15.65    1.08
 -23  -7  -1   15.02    1.08
 -23   7  -2    1.90    0.30
 -23   7  -2    1.24    0.24
 -23  -7   2    1.44    0.28
 -23   7  -2    1.38    0.29
 -23   7   2    1.57    0.28
 -23  -7  -2    1.14    0.28
 -23  -7  -2    1.78    0.33
 -23  -7   3   23.32    1.56
 -23   7  -3   25.94    1.56
 -23   7  -3   22.70    1.55
 -23   7  -3   25.45    1.61
 -23  -7  -3   23.09    1.56
 -23   7   3   23.70    1.55
 -23  -7  -3   25.81    1.59
 -23   7  -4    1.00    0.23
 -23   7  -4    0.68    0.25
 -23  -7   4    0.72    0.24
 -23   7  -4    0.58    0.26
 -23  -7  -4    0.66    0.24
 -23   7   4    1.01    0.27
 -23  -7  -4    1.02    0.26
 -23   7  -5    9.78    0.77
 -23  -7   5    9.70    0.75
 -23   7  -5   10.62    0.84
 -23   7  -5    9.62    0.74
 -23  -7  -5    9.00    0.77
 -23   7   5   10.01    0.76
 -23  -7  -5    9.37    0.75
 -23   7  -6    2.80    0.43
 -23   7  -6    2.86    0.48
 -23  -7  -6    1.57    0.35
 -23   8   0    0.03    0.16
 -23   8   0   -0.25    0.18
 -23  -8   0   -0.45    0.20
 -23   8  -1    1.17    0.25
 -23   8  -1    0.90    0.25
 -23  -8   1    0.87    0.24
 -23   8  -1    1.07    0.28
 -23  -8  -1    1.35    0.29
 -23   8   1    1.53    0.36
 -23   8   1    1.19    0.26
 -23   8  -2    0.18    0.20
 -23  -8   2    0.30    0.21
 -23   8  -2   -0.19    0.20
 -23   8  -2    0.12    0.19
 -23  -8  -2    0.04    0.20
 -23  -8  -2   -0.07    0.19
 -23   8   2   -0.03    0.17
 -23   8  -3   23.94    1.54
 -23   8  -3   21.75    1.54
 -23  -8   3   22.91    1.55
 -23   8  -3   25.86    1.62
 -23  -8  -3   24.39    1.57
 -23   8   3   25.21    1.57
 -23  -8  -3   24.42    1.58
 -23   8  -4    9.15    0.68
 -23   8  -4    6.64    0.67
 -23   8  -4    7.77    0.73
 -23  -8   4    7.28    0.66
 -23   8   4    8.40    0.68
 -23  -8  -4    8.61    0.69
 -23  -8  -4    8.74    0.70
 -23   8  -5    3.19    0.44
 -23   8  -5    3.37    0.52
 -23   8  -5    3.69    0.43
 -23  -8   5    3.48    0.44
 -23   8   5    3.37    0.41
 -23  -8  -5    3.01    0.43
 -23  -8  -5    3.62    0.42
 -23   8  -6    2.75    0.46
 -23   8  -6    2.57    0.44
 -23  -8  -6    3.27    0.44
 -23   9   0    0.18    0.20
 -23   9   0   -0.18    0.19
 -23  -9   0   -0.37    0.20
 -23   9  -1    0.71    0.26
 -23  -9   1    0.62    0.24
 -23   9  -1    0.39    0.21
 -23   9   1    1.02    0.25
 -23  -9  -1    0.35    0.23
 -23   9   1    0.42    0.25
 -23   9  -2    2.45    0.39
 -23  -9   2    2.42    0.37
 -23   9  -2    2.07    0.32
 -23   9  -2    1.57    0.31
 -23  -9  -2    1.99    0.35
 -23  -9  -2    2.25    0.38
 -23   9   2    2.51    0.35
 -23  -9   3    2.35    0.35
 -23   9  -3    1.83    0.31
 -23   9  -3    1.84    0.37
 -23   9  -3    1.62    0.31
 -23  -9  -3    2.08    0.35
 -23   9   3    2.36    0.37
 -23  -9  -3    2.41    0.36
 -23  -9   4    3.04    0.41
 -23   9  -4    3.09    0.49
 -23   9  -4    4.18    0.45
 -23   9  -4    3.55    0.42
 -23   9   4    3.22    0.43
 -23  -9  -4    4.13    0.46
 -23  -9  -4    3.35    0.44
 -23   9  -5    4.59    0.58
 -23   9  -5    4.28    0.52
 -23   9  -5    4.93    0.50
 -23  -9   5    4.01    0.48
 -23  -9  -5    5.14    0.51
 -23  -9  -5    4.81    0.53
 -23   9   5    4.08    0.47
 -23   9  -6    1.64    0.37
 -23   9  -6    1.41    0.40
 -23  -9  -6    1.00    0.33
 -23 -10   0   -0.21    0.23
 -23  10   0    0.24    0.23
 -23  10   0    0.08    0.20
 -23  10  -1    1.32    0.31
 -23  10  -1    1.10    0.27
 -23 -10   1    1.85    0.31
 -23 -10  -1    1.03    0.28
 -23  10   1    1.08    0.27
 -23  10   1    1.07    0.29
 -23 -10   2   -0.19    0.20
 -23  10  -2    0.29    0.21
 -23  10  -2    0.19    0.22
 -23 -10  -2    0.10    0.23
 -23  10   2    0.48    0.24
 -23 -10  -2    0.36    0.23
 -23  10  -3    1.18    0.28
 -23  10  -3    1.84    0.29
 -23 -10   3    1.74    0.34
 -23  10  -3    1.90    0.37
 -23 -10  -3    1.74    0.33
 -23  10   3    1.83    0.32
 -23 -10  -3    1.97    0.34
 -23 -10   4    0.13    0.21
 -23  10  -4   -0.23    0.22
 -23  10  -4    0.00    0.20
 -23  10  -4    0.07    0.24
 -23  10   4    0.10    0.21
 -23 -10  -4    0.03    0.21
 -23 -10  -4    0.28    0.25
 -23  10  -5    1.76    0.39
 -23  10  -5    1.82    0.36
 -23 -10   5    1.49    0.33
 -23 -10  -5    1.17    0.32
 -23 -10  -5    1.88    0.35
 -23  10   5    1.61    0.34
 -23 -11   0    0.22    0.25
 -23  11   0   -0.33    0.22
 -23  11   0   -0.11    0.19
 -23  11  -1    3.05    0.46
 -23  11  -1    2.92    0.40
 -23 -11   1    3.41    0.43
 -23  11   1    3.75    0.52
 -23 -11  -1    3.04    0.44
 -23  11   1    3.06    0.41
 -23  11  -2    0.40    0.25
 -23 -11   2    0.40    0.24
 -23  11  -2    0.53    0.26
 -23  11   2    0.67    0.25
 -23 -11  -2    0.32    0.22
 -23  11   2    0.22    0.25
 -23 -11  -2    0.50    0.27
 -23  11  -3   -0.23    0.21
 -23  11  -3   -0.38    0.20
 -23 -11   3    0.03    0.23
 -23 -11  -3    0.44    0.26
 -23  11   3   -0.25    0.20
 -23 -11  -3   -0.12    0.22
 -23 -11   4    6.96    0.64
 -23  11  -4    6.05    0.60
 -23  11  -4    6.71    0.63
 -23  11  -4    6.23    0.69
 -23 -11  -4    5.91    0.62
 -23  11   4    6.55    0.62
 -23 -11  -4    5.81    0.61
 -23  11  -5    0.87    0.34
 -23  11  -5    1.00    0.33
 -23 -11   5    1.10    0.30
 -23 -11  -5    0.57    0.28
 -23 -11  -5    1.32    0.30
 -23  11   5    0.96    0.31
 -23 -12   0   -0.54    0.19
 -23  12   0    0.02    0.22
 -23  12   0    0.18    0.27
 -23 -12   1    4.96    0.56
 -23  12  -1    6.06    0.58
 -23  12  -1    4.64    0.59
 -23  12   1    4.94    0.64
 -23  12   1    4.82    0.55
 -23 -12  -1    4.87    0.55
 -23  12  -2    4.79    0.54
 -23 -12   2    4.22    0.52
 -23  12  -2    4.62    0.58
 -23  12   2    4.69    0.55
 -23 -12  -2    5.01    0.55
 -23  12   2    4.93    0.65
 -23 -12  -2    4.24    0.54
 -23 -12   3   13.05    0.98
 -23  12  -3   13.41    0.99
 -23  12  -3   12.91    1.07
 -23  12   3   13.15    1.00
 -23 -12  -3   15.35    1.03
 -23 -12  -3   12.91    0.99
 -23 -12   4    0.80    0.30
 -23  12  -4    0.65    0.28
 -23  12  -4    0.46    0.30
 -23 -12  -4    1.00    0.27
 -23 -12  -4    0.61    0.28
 -23  12   4    0.79    0.31
 -23 -13   0    0.10    0.25
 -23  13   0    0.01    0.29
 -23  13   0   -0.02    0.21
 -23 -13   1   14.61    1.10
 -23  13  -1   16.84    1.19
 -23  13  -1   15.99    1.10
 -23  13   1   13.50    1.08
 -23  13   1   15.36    1.22
 -23 -13  -1   13.99    1.08
 -23 -13   2    0.02    0.25
 -23  13  -2    0.09    0.24
 -23  13  -2    0.34    0.23
 -23  13   2   -0.34    0.24
 -23 -13  -2   -0.29    0.19
 -23 -13  -2   -0.45    0.23
 -23  13   2    0.02    0.35
 -23  13  -3    2.21    0.36
 -23  13  -3    1.89    0.43
 -23 -13   3    1.60    0.36
 -23  13   3    1.59    0.61
 -23 -13  -3    1.72    0.35
 -23  13   3    2.01    0.37
 -23 -13  -3    1.01    0.33
 -23  14   0   -0.02    0.26
 -23 -14   0   -0.48    0.23
 -23  14   0   -0.06    0.31
 -23 -14   1    0.73    0.30
 -23  14  -1    0.73    0.34
 -23  14  -1    1.04    0.32
 -23  14   1    0.87    0.30
 -23 -14  -1    0.67    0.28
 -23  14   1    0.80    0.43
 -23  14  -2    7.09    0.71
 -23  14  -2    8.49    0.86
 -23 -14   2    6.43    0.69
 -23  14   2    9.58    1.01
 -23 -14  -2    7.66    0.72
 -23 -14  -2    6.11    0.69
 -23  14   2    7.77    0.73
 -24   0   0   80.34    4.63
 -24   0   0   75.90    4.63
 -24   0  -1    0.08    0.17
 -24   0   1    0.25    0.18
 -24   0   1    0.32    0.18
 -24   0  -1    0.37    0.19
 -24   0  -2   88.42    5.21
 -24   0   2   86.69    5.20
 -24   0  -2   89.16    5.21
 -24   0   3    0.34    0.21
 -24   0  -3    0.26    0.20
 -24   0  -3    0.13    0.18
 -24   0   4   34.88    2.16
 -24   0  -4   34.53    2.22
 -24   0  -4   34.94    2.17
 -24   0  -4   35.11    2.19
 -24   0   5   -0.09    0.18
 -24   0  -5    0.10    0.25
 -24   0  -5   -0.10    0.18
 -24   0  -5   -0.22    0.22
 -24   0  -6   11.00    0.89
 -24   0  -6   10.78    0.86
 -24   0  -7   -0.20    0.24
 -24   0  -7    0.01    0.26
 -24   1   0    0.52    0.21
 -24   1   0    0.26    0.17
 -24  -1   0    0.31    0.19
 -24  -1   0    0.46    0.20
 -24   1  -1    2.12    0.29
 -24   1  -1    1.51    0.28
 -24  -1   1    1.98    0.31
 -24   1   1    1.34    0.26
 -24  -1  -1    1.33    0.26
 -24  -1  -1    1.68    0.27
 -24   1   1    1.27    0.25
 -24   1  -2    2.71    0.35
 -24   1  -2    2.89    0.36
 -24  -1   2    2.60    0.36
 -24  -1  -2    3.20    0.40
 -24   1   2    3.19    0.38
 -24  -1  -2    1.93    0.33
 -24   1  -3    1.41    0.26
 -24   1  -3    1.09    0.28
 -24  -1   3    1.33    0.26
 -24   1   3    1.16    0.25
 -24  -1  -3    1.81    0.31
 -24  -1  -3    1.13    0.27
 -24   1  -4   12.83    0.94
 -24   1  -4   13.35    0.96
 -24  -1   4   13.28    0.93
 -24   1  -4   13.79    0.94
 -24  -1  -4   12.52    0.94
 -24  -1  -4   13.26    0.94
 -24   1   4   12.32    0.92
 -24  -1   5   11.41    0.89
 -24   1  -5   13.82    0.92
 -24   1  -5   11.47    0.96
 -24   1  -5   13.34    0.96
 -24   1   5   13.82    0.91
 -24  -1  -5   11.69    0.94
 -24  -1  -5   12.99    0.94
 -24  -1  -5   13.46    0.91
 -24   1  -6    1.04    0.35
 -24   1  -6    1.19    0.31
 -24  -1  -6    1.22    0.31
 -24  -1  -6    1.15    0.32
 -24   1  -7   22.94    1.71
 -24   1  -7   25.63    1.70
 -24  -1  -7   27.11    1.72
 -24  -1  -7   25.78    1.75
 -24   2   0   12.90    0.88
 -24   2   0   11.55    0.89
 -24  -2   0   12.99    0.91
 -24  -2   0   13.86    0.93
 -24  -2   1    8.76    0.70
 -24   2  -1    8.85    0.69
 -24   2  -1    9.68    0.71
 -24  -2  -1   10.82    0.74
 -24  -2  -1    8.76    0.71
 -24   2   1    9.16    0.68
 -24   2   1    9.24    0.72
 -24  -2   2   13.81    0.92
 -24   2  -2   12.69    0.90
 -24   2  -2   12.99    0.92
 -24   2   2   12.09    0.89
 -24  -2  -2   10.54    0.89
 -24  -2  -2   16.50    0.97
 -24   2   2   12.83    0.92
 -24  -2   3    1.36    0.26
 -24   2  -3    1.61    0.30
 -24   2  -3    1.01    0.27
 -24   2  -3    0.94    0.24
 -24  -2  -3    1.54    0.30
 -24  -2  -3    1.01    0.25
 -24   2   3    1.12    0.24
 -24   2  -4    1.46    0.29
 -24  -2   4    1.59    0.28
 -24   2  -4    2.29    0.36
 -24   2  -4    1.79    0.31
 -24  -2  -4    1.84    0.34
 -24   2   4    1.49    0.28
 -24  -2  -4    1.75    0.30
 -24  -2   5    1.14    0.26
 -24   2  -5    0.90    0.31
 -24   2  -5    0.85    0.25
 -24   2  -5    1.02    0.27
 -24  -2  -5    1.26    0.26
 -24  -2  -5    0.88    0.28
 -24   2   5    1.40    0.27
 -24   2  -6   -0.04    0.23
 -24   2  -6    0.10    0.24
 -24  -2  -6    0.37    0.29
 -24  -2  -6    0.08    0.27
 -24   2  -7    0.52    0.32
 -24   2  -7    0.49    0.28
 -24  -2  -7   -0.13    0.26
 -24  -2  -7    0.69    0.32
 -24  -3   0    2.51    0.36
 -24   3   0    2.63    0.36
 -24   3   0    2.55    0.32
 -24   3  -1    6.66    0.59
 -24  -3   1    5.49    0.58
 -24   3  -1    8.33    0.59
 -24  -3  -1    6.62    0.58
 -24  -3  -1    8.30    0.62
 -24   3   1    6.28    0.57
 -24   3   1    7.67    0.56
 -24   3  -2    0.13    0.18
 -24  -3   2    0.27    0.18
 -24   3  -2   -0.25    0.14
 -24  -3  -2    0.01    0.18
 -24  -3  -2    0.06    0.17
 -24   3   2    0.25    0.18
 -24   3   2    0.21    0.17
 -24  -3   3    0.62    0.21
 -24   3  -3    0.44    0.20
 -24   3  -3    0.50    0.23
 -24   3  -3    0.31    0.22
 -24  -3  -3    0.05    0.18
 -24  -3  -3    0.50    0.21
 -24   3   3    0.38    0.20
 -24   3  -4   10.93    0.85
 -24   3  -4   11.45    0.87
 -24   3  -4   12.10    0.84
 -24  -3   4   11.42    0.84
 -24   3   4   10.83    0.84
 -24  -3  -4   10.83    0.85
 -24  -3  -4   12.44    0.86
 -24  -3   5    4.40    0.46
 -24   3  -5    4.30    0.46
 -24   3  -5    3.76    0.51
 -24   3  -5    3.69    0.46
 -24   3   5    4.17    0.46
 -24  -3  -5    3.69    0.47
 -24  -3  -5    3.99    0.45
 -24   3  -6    3.66    0.47
 -24   3  -6    2.24    0.42
 -24  -3  -6    2.93    0.44
 -24  -3  -6    3.26    0.46
 -24   3  -7    1.23    0.37
 -24   3  -7    1.11    0.37
 -24  -3  -7    0.83    0.33
 -24  -3  -7    0.65    0.36
 -24  -4   0    3.38    0.41
 -24   4   0    3.43    0.37
 -24   4   0    3.72    0.41
 -24   4  -1    0.05    0.19
 -24  -4   1   -0.04    0.18
 -24   4  -1   -0.23    0.13
 -24  -4  -1   -0.09    0.18
 -24  -4  -1    0.03    0.20
 -24   4   1    0.25    0.19
 -24   4   1    0.18    0.15
 -24   4  -2    8.23    0.65
 -24   4  -2    8.62    0.67
 -24   4  -2    7.18    0.63
 -24  -4   2    7.61    0.66
 -24   4   2    8.74    0.66
 -24  -4  -2    8.34    0.66
 -24  -4  -2    9.40    0.68
 -24   4   2    7.37    0.59
 -24   4  -3    0.79    0.27
 -24   4  -3    0.95    0.25
 -24  -4   3    1.14    0.25
 -24   4  -3    1.26    0.27
 -24  -4  -3    1.39    0.30
 -24  -4  -3    1.04    0.29
 -24   4   3    1.35    0.27
 -24  -4   4    4.17    0.44
 -24   4  -4    3.18    0.39
 -24   4  -4    3.49    0.43
 -24   4  -4    3.67    0.47
 -24  -4  -4    4.39    0.47
 -24  -4  -4    3.20    0.41
 -24   4   4    3.49    0.40
 -24   4  -5    1.23    0.27
 -24   4  -5    0.64    0.26
 -24  -4   5    1.50    0.29
 -24   4  -5    0.94    0.30
 -24   4   5    1.35    0.26
 -24  -4  -5    1.02    0.28
 -24  -4  -5    1.37    0.29
 -24   4  -6    0.04    0.28
 -24   4  -6   -0.01    0.28
 -24  -4  -6    0.47    0.27
 -24   4  -7    0.66    0.32
 -24   4  -7    0.35    0.32
 -24  -4  -7    0.05    0.30
 -24  -4  -7    0.47    0.28
 -24  -5   0    2.42    0.34
 -24   5   0    2.16    0.29
 -24   5   0    2.58    0.34
 -24  -5   1    3.65    0.41
 -24   5  -1    3.96    0.41
 -24   5   1    2.25    0.36
 -24  -5  -1    3.60    0.42
 -24   5  -2    0.42    0.23
 -24   5  -2    0.66    0.22
 -24  -5   2    0.49    0.24
 -24   5  -2    0.23    0.18
 -24  -5  -2    0.45    0.23
 -24   5   2    0.34    0.20
 -24  -5  -2    0.31    0.22
 -24  -5   3    0.71    0.22
 -24   5  -3    0.23    0.23
 -24   5  -3    0.49    0.22
 -24   5   3    0.82    0.22
 -24  -5  -3    0.81    0.25
 -24  -5  -3    0.04    0.19
 -24   5  -4    0.15    0.24
 -24   5  -4   -0.23    0.22
 -24  -5   4   -0.06    0.20
 -24   5  -4    0.23    0.20
 -24   5   4    0.18    0.19
 -24  -5  -4    0.07    0.19
 -24  -5  -4    0.17    0.23
 -24   5  -5    0.20    0.24
 -24   5  -5   -0.03    0.25
 -24  -5   5   -0.06    0.20
 -24   5  -5   -0.02    0.18
 -24  -5  -5    0.11    0.21
 -24  -5  -5    0.02    0.20
 -24   5   5    0.34    0.22
 -24   5  -6    0.21    0.25
 -24   5  -6   -0.01    0.25
 -24  -5  -6    0.34    0.24
 -24  -6   0   13.30    0.99
 -24   6   0   14.17    0.99
 -24   6   0   14.59    0.95
 -24   6  -1    6.60    0.61
 -24   6  -1    7.02    0.58
 -24  -6   1    6.57    0.61
 -24   6  -1    6.61    0.54
 -24  -6  -1    6.59    0.64
 -24   6   1    6.02    0.58
 -24  -6  -1    5.91    0.60
 -24  -6   2   -0.10    0.20
 -24   6  -2   -0.09    0.18
 -24   6  -2   -0.01    0.19
 -24   6  -2    0.27    0.20
 -24   6   2    0.05    0.18
 -24  -6  -2    0.41    0.22
 -24  -6  -2    0.02    0.20
 -24  -6   3    0.91    0.25
 -24   6  -3    0.88    0.24
 -24   6  -3    1.13    0.31
 -24   6  -3    0.91    0.24
 -24   6   3    0.82    0.24
 -24  -6  -3    1.01    0.26
 -24  -6  -3    0.88    0.26
 -24   6  -4    1.93    0.32
 -24  -6   4    2.55    0.34
 -24   6  -4    1.89    0.36
 -24   6  -4    1.86    0.33
 -24   6   4    2.07    0.33
 -24  -6  -4    1.85    0.33
 -24  -6  -4    2.36    0.37
 -24  -6   5    1.01    0.26
 -24   6  -5    1.20    0.31
 -24   6  -5    1.11    0.26
 -24   6  -5    1.10    0.35
 -24  -6  -5    1.64    0.30
 -24   6   5    1.76    0.32
 -24  -6  -5    1.49    0.34
 -24   6  -6    1.69    0.39
 -24   6  -6    1.48    0.40
 -24  -6  -6    1.12    0.33
 -24   7   0   16.82    1.15
 -24  -7   0   16.85    1.16
 -24  -7   1    0.81    0.24
 -24   7  -1    0.74    0.24
 -24   7  -1    0.73    0.21
 -24   7  -1    1.11    0.28
 -24  -7  -1    1.19    0.28
 -24   7   1    0.92    0.26
 -24  -7   2    1.29    0.28
 -24   7  -2    1.06    0.26
 -24   7  -2    1.08    0.29
 -24   7  -2    1.44    0.29
 -24  -7  -2    0.73    0.28
 -24  -7  -2    1.41    0.30
 -24   7   2    1.24    0.27
 -24   7  -3    3.71    0.46
 -24  -7   3    4.72    0.50
 -24   7  -3    4.89    0.50
 -24   7  -3    4.99    0.56
 -24  -7  -3    5.74    0.56
 -24   7   3    4.60    0.49
 -24  -7  -3    4.58    0.51
 -24   7  -4    0.34    0.23
 -24   7  -4   -0.11    0.20
 -24   7  -4   -0.07    0.18
 -24  -7   4   -0.20    0.17
 -24  -7  -4    0.03    0.20
 -24   7   4   -0.02    0.18
 -24  -7  -4   -0.35    0.18
 -24   7  -5    4.70    0.55
 -24   7  -5    5.77    0.55
 -24  -7   5    5.32    0.56
 -24   7  -5    6.24    0.67
 -24  -7  -5    6.79    0.59
 -24   7   5    4.81    0.53
 -24  -7  -5    5.23    0.58
 -24   7  -6    1.29    0.36
 -24   7  -6    0.83    0.31
 -24  -7  -6    0.75    0.29
 -24   8   0   12.00    0.92
 -24   8   0   13.64    0.97
 -24  -8   0   11.95    0.91
 -24   8  -1    0.91    0.26
 -24   8  -1    1.08    0.27
 -24  -8   1    0.81    0.26
 -24   8   1    1.04    0.28
 -24  -8  -1    0.65    0.27
 -24   8  -2   27.22    1.83
 -24   8  -2   28.79    1.81
 -24   8  -2   28.87    1.87
 -24  -8   2   28.23    1.85
 -24  -8  -2   32.06    1.89
 -24   8   2   29.05    1.85
 -24  -8  -2   28.87    1.85
 -24   8  -3   -0.17    0.18
 -24   8  -3   -0.01    0.20
 -24   8  -3    0.32    0.24
 -24  -8   3   -0.15    0.19
 -24  -8  -3    0.41    0.23
 -24   8   3    0.05    0.23
 -24  -8  -3    0.07    0.22
 -24  -8   4   38.54    2.39
 -24   8  -4   38.44    2.46
 -24   8  -4   40.71    2.40
 -24   8  -4   36.93    2.38
 -24  -8  -4   37.82    2.41
 -24   8   4   38.92    2.39
 -24  -8  -4   38.02    2.40
 -24   8  -5    0.14    0.28
 -24   8  -5   -0.08    0.25
 -24  -8   5   -0.06    0.23
 -24   8  -5   -0.59    0.19
 -24  -8  -5    0.04    0.21
 -24  -8  -5    0.24    0.22
 -24   8   5    0.00    0.22
 -24   8  -6    0.55    0.30
 -24   8  -6   -0.06    0.26
 -24  -8  -6    0.05    0.25
 -24   9   0   13.87    0.99
 -24   9   0   14.93    1.02
 -24  -9   0   11.69    0.97
 -24  -9   1    0.08    0.24
 -24   9  -1   -0.21    0.19
 -24   9  -1    0.14    0.19
 -24  -9  -1    0.18    0.24
 -24   9   1    0.44    0.24
 -24   9  -2    4.08    0.50
 -24  -9   2    4.36    0.49
 -24   9  -2    4.08    0.47
 -24  -9  -2    3.65    0.48
 -24  -9  -2    4.73    0.50
 -24   9   2    3.59    0.45
 -24  -9   3    4.91    0.52
 -24   9  -3    4.56    0.50
 -24   9  -3    3.44    0.49
 -24   9  -3    4.16    0.47
 -24  -9  -3    4.81    0.55
 -24   9   3    5.08    0.52
 -24  -9  -3    4.62    0.51
 -24   9  -4    0.86    0.26
 -24  -9   4    0.71    0.25
 -24   9  -4    0.48    0.24
 -24   9  -4    0.87    0.33
 -24   9   4    0.42    0.26
 -24  -9  -4    0.68    0.26
 -24  -9  -4    0.47    0.25
 -24   9  -5   13.27    0.96
 -24  -9   5   12.93    0.95
 -24   9  -5   11.70    1.05
 -24   9  -5   12.87    1.02
 -24  -9  -5   10.75    0.93
 -24  -9  -5   12.05    0.93
 -24   9   5   12.65    0.93
 -24  10   0   31.15    1.94
 -24  10   0   27.12    1.87
 -24 -10   0   30.19    1.90
 -24 -10   1    0.78    0.28
 -24  10  -1    1.24    0.31
 -24  10  -1    1.44    0.31
 -24 -10  -1    0.66    0.27
 -24  10   1    0.53    0.24
 -24  10   1    1.04    0.35
 -24  10  -2   24.68    1.74
 -24  10  -2   24.65    1.69
 -24 -10   2   25.75    1.70
 -24 -10  -2   29.44    1.75
 -24 -10  -2   25.80    1.71
 -24  10   2   27.44    1.71
 -24  10  -3    0.67    0.31
 -24  10  -3    1.38    0.31
 -24 -10   3    1.17    0.30
 -24  10   3    0.83    0.28
 -24 -10  -3    2.40    0.37
 -24 -10  -3    1.81    0.33
 -24  10  -4   20.99    1.40
 -24  10  -4   19.32    1.46
 -24 -10   4   19.80    1.41
 -24  10  -4   21.19    1.41
 -24 -10  -4   21.79    1.42
 -24 -10  -4   22.51    1.45
 -24  10   4   21.51    1.42
 -24 -10   5    0.02    0.23
 -24  10  -5    0.02    0.27
 -24  10  -5   -0.33    0.21
 -24  10   5    0.67    0.25
 -24 -10  -5    0.19    0.25
 -24 -10  -5    0.84    0.28
 -24  11   0    0.48    0.25
 -24  11   0    0.48    0.27
 -24 -11   0    0.44    0.28
 -24  11  -1    0.06    0.21
 -24 -11   1    0.00    0.25
 -24  11  -1   -0.09    0.22
 -24  11   1    0.20    0.22
 -24  11   1   -0.33    0.21
 -24 -11  -1    0.03    0.26
 -24  11  -2    1.42    0.34
 -24  11  -2    2.16    0.35
 -24 -11   2    1.38    0.32
 -24  11   2    1.15    0.31
 -24 -11  -2    1.11    0.31
 -24 -11  -2    1.79    0.36
 -24  11  -3    0.45    0.24
 -24 -11   3    0.38    0.24
 -24  11  -3    0.26    0.29
 -24 -11  -3    0.27    0.26
 -24 -11  -3    0.16    0.24
 -24  11   3   -0.01    0.24
 -24  11  -4    5.23    0.63
 -24 -11   4    6.42    0.61
 -24  11  -4    5.03    0.55
 -24 -11  -4    5.14    0.57
 -24 -11  -4    5.53    0.58
 -24  11   4    5.01    0.57
 -24 -12   0   36.78    2.40
 -24  12   0   37.44    2.40
 -24  12   0   40.50    2.49
 -24  12  -1    1.36    0.36
 -24 -12   1    1.20    0.33
 -24  12  -1    1.42    0.33
 -24  12   1    1.84    0.42
 -24 -12  -1    1.95    0.37
 -24  12   1    1.57    0.33
 -24  12  -2   17.48    1.24
 -24  12  -2   17.66    1.31
 -24 -12   2   17.40    1.24
 -24 -12  -2   18.30    1.27
 -24 -12  -2   17.11    1.26
 -24  12   2   18.88    1.27
 -24 -12   3    0.20    0.23
 -24  12  -3   -0.33    0.23
 -24  12  -3   -0.07    0.21
 -24  12   3   -0.07    0.25
 -24 -12  -3    0.09    0.23
 -24 -12  -3   -0.02    0.23
 -24  13   0   -0.06    0.29
 -24 -13   0   -0.50    0.20
 -24  13   0   -0.07    0.25
 -24 -13   1    0.30    0.30
 -24  13  -1    0.32    0.28
 -24  13  -1    0.08    0.23
 -24 -13  -1    0.40    0.26
 -24  13   1    0.45    0.35
 -24  13   1    0.38    0.27
 -24  13  -2    0.81    0.30
 -24  13  -2    0.77    0.34
 -24 -13   2    0.79    0.32
 -24 -13  -2    0.87    0.30
 -24  13   2    0.42    0.37
 -24  13   2    0.80    0.29
 -24 -13  -2    1.25    0.32
 -25   0  -1    2.07    0.35
 -25   0   1    2.75    0.35
 -25   0  -1    1.74    0.30
 -25   0   1    2.69    0.35
 -25   0  -2    1.28    0.26
 -25   0   2    0.70    0.22
 -25   0  -2    0.70    0.23
 -25   0  -3    0.48    0.24
 -25   0  -3    0.75    0.25
 -25   0   3    0.33    0.22
 -25   0  -4    0.37    0.24
 -25   0  -4   -0.19    0.18
 -25   0   4    0.50    0.23
 -25   0  -5   -0.14    0.27
 -25   0   5   -0.04    0.20
 -25   0  -5   -0.26    0.22
 -25   0  -5    0.01    0.19
 -25   0  -6    0.11    0.28
 -25   0  -6   -0.23    0.23
 -25   1   0    0.91    0.22
 -25   1   0    0.41    0.21
 -25  -1   0    0.59    0.22
 -25  -1   0    0.45    0.20
 -25   1  -1    6.94    0.57
 -25   1  -1    7.14    0.59
 -25  -1   1    6.54    0.58
 -25   1   1    6.72    0.60
 -25   1   1    6.84    0.56
 -25  -1  -1    7.76    0.60
 -25  -1  -1    5.98    0.60
 -25   1  -2    1.34    0.27
 -25   1  -2    0.18    0.19
 -25  -1   2    0.78    0.24
 -25  -1  -2    0.59    0.23
 -25  -1  -2    0.27    0.22
 -25   1   2    0.77    0.23
 -25   1  -3    0.70    0.24
 -25   1  -3    0.72    0.26
 -25  -1   3    0.86    0.24
 -25   1   3    0.43    0.22
 -25  -1  -3    0.67    0.22
 -25  -1  -3    0.37    0.22
 -25   1  -4    0.46    0.23
 -25  -1   4    0.23    0.20
 -25   1  -4    0.01    0.21
 -25  -1  -4   -0.07    0.22
 -25  -1  -4    0.21    0.19
 -25   1   4    0.58    0.23
 -25   1  -5   -0.17    0.20
 -25   1  -5   -0.12    0.16
 -25  -1   5    0.27    0.21
 -25   1  -5    0.10    0.26
 -25  -1  -5    0.48    0.24
 -25  -1  -5   -0.17    0.17
 -25   1   5    0.45    0.22
 -25   1  -6    0.04    0.27
 -25   1  -6   -0.06    0.24
 -25  -1  -6    0.11    0.27
 -25  -1  -6    0.35    0.30
 -25   2  -1    3.10    0.38
 -25   2  -1    2.67    0.37
 -25  -2   1    3.36    0.41
 -25  -2  -1    2.59    0.37
 -25   2   1    2.93    0.36
 -25   2   1    3.65    0.41
 -25  -2  -1    3.26    0.40
 -25  -2   2    8.49    0.67
 -25   2  -2    7.57    0.65
 -25   2   2    8.78    0.65
 -25   2   2    8.65    0.67
 -25  -2  -2    6.72    0.64
 -25  -2  -2    9.17    0.70
 -25   2  -3    2.63    0.36
 -25   2  -3    2.58    0.36
 -25  -2   3    2.30    0.35
 -25  -2  -3    2.49    0.35
 -25  -2  -3    1.93    0.34
 -25   2   3    2.01    0.32
 -25   2  -4    2.05    0.36
 -25  -2   4    2.15    0.33
 -25   2  -4    1.44    0.30
 -25   2  -4    1.67    0.32
 -25  -2  -4    1.64    0.32
 -25  -2  -4    1.51    0.30
 -25   2   4    1.58    0.29
 -25   2  -5    0.71    0.24
 -25  -2   5    0.30    0.21
 -25   2  -5    0.48    0.26
 -25   2  -5    0.46    0.30
 -25   2   5    0.28    0.23
 -25  -2  -5    0.38    0.20
 -25  -2  -5    0.48    0.25
 -25   2  -6    9.70    0.85
 -25   2  -6    8.56    0.83
 -25  -2  -6    9.65    0.80
 -25   3   0    0.27    0.16
 -25  -3   0    0.65    0.24
 -25  -3   0    0.46    0.24
 -25   3   0    0.25    0.20
 -25   3  -1   36.81    2.16
 -25   3  -1   33.69    2.17
 -25  -3   1   35.99    2.19
 -25   3   1   32.69    2.17
 -25  -3  -1   34.03    2.18
 -25   3   1   34.10    2.14
 -25  -3  -1   38.26    2.21
 -25   3  -2    1.41    0.28
 -25   3  -2    1.87    0.31
 -25  -3   2    1.90    0.30
 -25   3   2    1.67    0.29
 -25   3   2    1.32    0.24
 -25  -3  -2    1.67    0.32
 -25  -3  -2    1.87    0.32
 -25   3  -3   15.64    1.11
 -25  -3   3   15.49    1.11
 -25   3  -3   15.13    1.10
 -25  -3  -3   16.65    1.13
 -25  -3  -3   16.28    1.11
 -25   3   3   17.42    1.12
 -25   3  -4    0.99    0.25
 -25   3  -4    0.88    0.28
 -25   3  -4    0.84    0.26
 -25  -3   4    1.13    0.27
 -25  -3  -4    0.90    0.27
 -25   3   4    0.76    0.25
 -25  -3  -4    0.80    0.29
 -25   3  -5    9.90    0.83
 -25   3  -5    8.95    0.78
 -25   3  -5   10.43    0.78
 -25  -3   5    9.82    0.77
 -25  -3  -5    9.71    0.80
 -25  -3  -5    9.77    0.76
 -25   3   5   11.19    0.79
 -25   3  -6    1.33    0.36
 -25   3  -6    1.68    0.40
 -25  -3  -6    1.87    0.37
 -25   4   0   -0.17    0.19
 -25  -4   0   -0.03    0.21
 -25   4   0    0.24    0.18
 -25  -4   1    0.44    0.21
 -25   4  -1   -0.04    0.17
 -25   4  -1    0.24    0.19
 -25  -4  -1    0.69    0.23
 -25  -4  -1   -0.16    0.18
 -25   4   1    0.00    0.19
 -25   4   1    0.50    0.19
 -25   4  -2    8.44    0.67
 -25  -4   2    8.47    0.71
 -25   4  -2    9.94    0.72
 -25   4   2    8.22    0.68
 -25  -4  -2    8.32    0.70
 -25  -4  -2    9.26    0.74
 -25   4  -3   -0.18    0.20
 -25  -4   3   -0.25    0.17
 -25   4  -3   -0.02    0.19
 -25   4  -3    0.01    0.18
 -25  -4  -3    0.01    0.22
 -25  -4  -3    0.27    0.23
 -25   4   3    0.26    0.22
 -25   4  -4   17.77    1.23
 -25   4  -4   18.90    1.28
 -25   4  -4   16.04    1.21
 -25  -4   4   17.55    1.22
 -25   4   4   18.34    1.23
 -25  -4  -4   18.74    1.23
 -25  -4  -4   18.71    1.25
 -25   4  -5   -0.17    0.25
 -25   4  -5    0.12    0.18
 -25   4  -5   -0.28    0.20
 -25  -4   5    0.09    0.23
 -25  -4  -5    0.02    0.21
 -25   4   5    0.03    0.20
 -25  -4  -5   -0.23    0.19
 -25   4  -6   11.56    0.93
 -25   4  -6    9.82    0.87
 -25  -4  -6   12.22    0.92
 -25   5   0    0.06    0.17
 -25   5   0   -0.04    0.19
 -25  -5   0    0.11    0.19
 -25  -5   1   45.82    2.85
 -25   5  -1   47.08    2.85
 -25   5  -1   46.40    2.80
 -25   5   1   45.77    2.84
 -25   5   1   44.40    2.83
 -25  -5  -1   45.52    2.84
 -25  -5  -1   50.99    2.89
 -25   5  -2    0.71    0.24
 -25  -5   2    0.82    0.25
 -25   5  -2    1.05    0.24
 -25  -5  -2    0.62    0.25
 -25   5   2    0.60    0.26
 -25  -5  -2    1.00    0.29
 -25   5  -3   32.27    2.04
 -25   5  -3   32.47    2.05
 -25  -5   3   33.06    2.04
 -25   5  -3   32.20    2.07
 -25  -5  -3   34.38    2.09
 -25   5   3   31.74    2.03
 -25  -5  -3   31.45    2.04
 -25   5  -4    1.09    0.33
 -25   5  -4    0.82    0.25
 -25  -5   4    1.01    0.28
 -25   5  -4    1.26    0.30
 -25   5   4    1.06    0.26
 -25  -5  -4    0.82    0.27
 -25  -5  -4    0.92    0.29
 -25   5  -5   10.58    0.89
 -25   5  -5   10.96    0.80
 -25  -5   5   10.10    0.82
 -25   5  -5    9.12    0.81
 -25  -5  -5    9.17    0.82
 -25   5   5   11.07    0.81
 -25  -5  -5   12.17    0.83
 -25   5  -6    0.04    0.26
 -25   5  -6    0.27    0.28
 -25  -5  -6    0.37    0.25
 -25  -6   0    0.31    0.22
 -25   6   0    0.07    0.16
 -25   6   0   -0.06    0.18
 -25  -6   1   12.63    0.89
 -25   6  -1   11.74    0.89
 -25   6  -1   12.99    0.86
 -25   6   1   10.99    0.88
 -25  -6  -1   13.05    0.93
 -25  -6  -1   10.98    0.88
 -25   6  -2    5.27    0.54
 -25  -6   2    5.73    0.57
 -25   6  -2    5.83    0.54
 -25   6  -2    5.43    0.54
 -25   6   2    4.38    0.53
 -25  -6  -2    6.22    0.59
 -25  -6  -2    6.99    0.63
 -25  -6   3    1.39    0.30
 -25   6  -3    0.81    0.26
 -25   6  -3    0.97    0.27
 -25   6  -3    0.65    0.29
 -25  -6  -3    1.20    0.30
 -25   6   3    0.59    0.26
 -25  -6  -3    1.35    0.29
 -25   6  -4    8.99    0.76
 -25   6  -4    8.52    0.77
 -25  -6   4   10.37    0.76
 -25   6  -4    8.67    0.72
 -25   6   4    9.39    0.75
 -25  -6  -4   10.34    0.78
 -25  -6  -4    9.24    0.73
 -25   6  -5    3.74    0.47
 -25  -6   5    4.10    0.49
 -25   6  -5    4.21    0.46
 -25   6  -5    3.76    0.51
 -25   6   5    3.98    0.45
 -25  -6  -5    3.14    0.42
 -25  -6  -5    2.55    0.43
 -25   6  -6    7.03    0.76
 -25   6  -6    7.37    0.72
 -25  -6  -6    8.10    0.77
 -25  -7   0   -0.19    0.19
 -25   7   0   -0.20    0.18
 -25   7  -1    2.98    0.41
 -25  -7   1    3.27    0.44
 -25   7  -1    3.86    0.41
 -25   7   1    4.43    0.47
 -25  -7  -1    4.43    0.52
 -25  -7  -1    3.49    0.46
 -25   7  -2   -0.11    0.16
 -25   7  -2   -0.08    0.18
 -25   7  -2    0.04    0.22
 -25  -7   2    0.04    0.20
 -25   7   2   -0.23    0.18
 -25  -7  -2    0.25    0.23
 -25  -7  -2   -0.04    0.22
 -25  -7   3    7.33    0.67
 -25   7  -3    8.12    0.70
 -25   7  -3    7.12    0.64
 -25   7  -3    8.61    0.68
 -25   7   3    7.59    0.66
 -25  -7  -3    8.74    0.72
 -25  -7  -3    8.66    0.70
 -25   7  -4    0.40    0.25
 -25   7  -4    0.23    0.21
 -25  -7   4    0.13    0.23
 -25   7  -4    0.11    0.24
 -25   7   4    0.13    0.20
 -25  -7  -4    0.28    0.25
 -25  -7  -4    0.24    0.25
 -25   7  -5    3.99    0.55
 -25  -7   5    5.31    0.55
 -25   7  -5    4.75    0.54
 -25   7  -5    3.57    0.46
 -25   7   5    3.89    0.46
 -25  -7  -5    3.37    0.45
 -25  -7  -5    4.43    0.54
 -25  -8   0   -0.11    0.21
 -25   8   0   -0.03    0.19
 -25  -8   1    4.13    0.46
 -25   8  -1    2.84    0.43
 -25   8  -1    3.98    0.46
 -25   8   1    3.16    0.42
 -25  -8  -1    3.39    0.45
 -25   8  -2    2.45    0.36
 -25  -8   2    3.62    0.45
 -25   8  -2    2.59    0.41
 -25   8  -2    3.85    0.44
 -25  -8  -2    2.54    0.41
 -25   8   2    3.01    0.41
 -25  -8  -2    3.60    0.47
 -25   8  -3    0.28    0.21
 -25   8  -3    0.68    0.24
 -25  -8   3    0.12    0.21
 -25   8  -3    0.90    0.30
 -25  -8  -3    0.60    0.25
 -25   8   3    0.82    0.28
 -25  -8  -3    0.40    0.27
 -25   8  -4    1.87    0.34
 -25   8  -4    1.41    0.30
 -25   8  -4    1.77    0.38
 -25  -8   4    1.49    0.32
 -25   8   4    1.31    0.32
 -25  -8  -4    2.05    0.38
 -25  -8  -4    1.38    0.32
 -25   8  -5    3.78    0.51
 -25  -8   5    2.79    0.46
 -25   8  -5    2.38    0.40
 -25   8  -5    2.56    0.40
 -25  -8  -5    3.96    0.50
 -25  -8  -5    2.99    0.43
 -25   8   5    3.33    0.44
 -25  -9   0   -0.75    0.20
 -25   9   0   -0.08    0.19
 -25   9  -1    9.06    0.74
 -25  -9   1    8.52    0.73
 -25   9  -1    9.04    0.75
 -25  -9  -1    9.09    0.73
 -25   9   1    8.72    0.72
 -25  -9   2    0.59    0.28
 -25   9  -2    0.97    0.27
 -25   9  -2    0.87    0.28
 -25  -9  -2    0.93    0.28
 -25   9   2    0.98    0.30
 -25  -9  -2    1.04    0.29
 -25  -9   3    1.91    0.34
 -25   9  -3    1.65    0.32
 -25   9  -3    1.23    0.36
 -25   9  -3    1.84    0.33
 -25  -9  -3    1.78    0.35
 -25   9   3    2.18    0.36
 -25  -9  -3    1.93    0.35
 -25   9  -4    3.93    0.55
 -25   9  -4    4.45    0.50
 -25   9  -4    5.16    0.53
 -25  -9   4    4.54    0.52
 -25  -9  -4    5.25    0.57
 -25   9   4    3.85    0.48
 -25  -9  -4    4.07    0.50
 -25   9  -5    2.48    0.49
 -25   9  -5    3.13    0.46
 -25  -9  -5    2.62    0.42
 -25  -9  -5    2.19    0.40
 -25  10   0    0.02    0.24
 -25 -10   0    0.02    0.23
 -25  10   0    0.01    0.22
 -25  10  -1    3.35    0.48
 -25  10  -1    4.17    0.47
 -25 -10   1    3.23    0.45
 -25  10   1    3.89    0.47
 -25 -10  -1    3.73    0.47
 -25 -10   2   -0.23    0.24
 -25  10  -2   -0.13    0.21
 -25  10  -2    0.11    0.26
 -25 -10  -2    0.06    0.22
 -25 -10  -2    0.15    0.23
 -25  10   2    0.05    0.22
 -25  10  -3   -0.03    0.23
 -25 -10   3   -0.19    0.24
 -25  10  -3   -0.01    0.23
 -25  10   3    0.24    0.24
 -25 -10  -3   -0.03    0.23
 -25 -10  -3    0.16    0.23
 -25  10  -4    1.34    0.33
 -25 -10   4    1.73    0.34
 -25  10  -4    0.94    0.33
 -25  10  -4    1.27    0.35
 -25 -10  -4    1.21    0.31
 -25 -10  -4    1.51    0.32
 -25  10   4    1.42    0.35
 -25  11   0   -0.13    0.24
 -25  11   0    0.19    0.23
 -25 -11   0   -0.25    0.22
 -25  11  -1    0.39    0.27
 -25  11  -1    0.32    0.25
 -25 -11   1   -0.09    0.21
 -25 -11  -1    0.12    0.26
 -25  11   1    0.02    0.20
 -25 -11   2    0.80    0.29
 -25  11  -2    0.11    0.24
 -25  11  -2    0.65    0.31
 -25  11   2    0.80    0.28
 -25 -11  -2    0.93    0.28
 -25 -11  -2    0.40    0.30
 -25  11  -3    5.68    0.64
 -25  11  -3    5.25    0.55
 -25 -11   3    4.39    0.54
 -25 -11  -3    5.24    0.58
 -25 -11  -3    5.48    0.58
 -25  11   3    4.83    0.56
 -25  12   0    0.07    0.28
 -25 -12   0   -0.23    0.23
 -25  12   0   -0.10    0.25
 -25  12  -1    2.12    0.42
 -25  12  -1    2.70    0.43
 -25 -12   1    3.10    0.43
 -25  12   1    2.86    0.41
 -25 -12  -1    1.93    0.38
 -25  12  -2    0.24    0.27
 -25  12  -2   -0.04    0.19
 -25 -12   2    0.11    0.24
 -25 -12  -2   -0.23    0.25
 -25 -12  -2    0.48    0.26
 -25  12   2    0.22    0.27
 -25 -13   0   -0.11    0.24
 -25  13   0   -0.12    0.27
 -26   0   0  113.38    6.52
 -26   0   0  108.42    6.53
 -26   0   1    1.31    0.28
 -26   0   1    1.01    0.26
 -26   0  -1    1.36    0.29
 -26   0  -1    0.87    0.25
 -26   0  -2   21.62    1.36
 -26   0   2   19.92    1.36
 -26   0  -2   19.76    1.36
 -26   0  -3    0.56    0.23
 -26   0  -3    0.26    0.22
 -26   0   3    0.37    0.21
 -26   0  -4    1.01    0.27
 -26   0   4    1.03    0.26
 -26   0  -4    0.62    0.26
 -26   0  -5   -0.21    0.23
 -26   0  -5    0.15    0.22
 -26   0   5    0.20    0.20
 -26   0  -6    4.73    0.56
 -26   1   0    7.84    0.66
 -26  -1   0    7.77    0.67
 -26   1   0    8.09    0.68
 -26  -1   0    9.63    0.69
 -26  -1   1    0.41    0.23
 -26   1  -1    0.86    0.25
 -26  -1   1    0.43    0.22
 -26   1  -1   -0.03    0.21
 -26   1   1    0.56    0.22
 -26  -1  -1    0.58    0.26
 -26   1   1    0.37    0.22
 -26  -1  -1    0.66    0.24
 -26   1  -2    0.59    0.24
 -26  -1   2    0.73    0.25
 -26   1  -2    0.54    0.23
 -26  -1  -2    0.62    0.25
 -26   1   2    0.56    0.23
 -26   1   2    0.78    0.26
 -26  -1  -2    0.43    0.23
 -26   1  -3    7.77    0.64
 -26  -1   3    6.15    0.62
 -26   1  -3    6.97    0.64
 -26  -1  -3    7.73    0.63
 -26   1   3    5.99    0.61
 -26  -1  -3    7.31    0.61
 -26   1  -4    7.91    0.65
 -26  -1   4    7.28    0.65
 -26   1  -4    7.37    0.69
 -26  -1  -4    7.37    0.65
 -26  -1  -4    7.76    0.66
 -26   1   4    7.14    0.62
 -26  -1   5   12.68    0.96
 -26   1  -5   13.61    1.00
 -26   1  -5   14.21    0.98
 -26  -1  -5   12.74    0.99
 -26  -1  -5   13.24    0.96
 -26   1   5   13.31    0.96
 -26   1  -6    0.41    0.32
 -26   1  -6    0.02    0.28
 -26  -1  -6    0.18    0.29
 -26   2   0   78.70    4.96
 -26  -2   0   82.79    4.97
 -26   2   0   86.13    4.94
 -26  -2   0   86.82    4.98
 -26   2  -1    3.05    0.38
 -26   2  -1    2.75    0.36
 -26  -2   1    2.71    0.36
 -26  -2  -1    1.88    0.34
 -26   2   1    2.19    0.35
 -26   2   1    2.49    0.34
 -26  -2  -1    2.71    0.37
 -26   2  -2   37.84    2.31
 -26   2  -2   36.27    2.32
 -26  -2   2   36.37    2.31
 -26   2   2   37.95    2.32
 -26  -2  -2   39.91    2.34
 -26   2   2   34.64    2.27
 -26  -2  -2   38.30    2.33
 -26   2  -3    5.00    0.54
 -26  -2   3    6.05    0.58
 -26   2  -3    6.02    0.56
 -26  -2  -3    6.54    0.59
 -26   2   3    5.60    0.55
 -26  -2  -3    4.76    0.53
 -26  -2   4   14.38    0.98
 -26   2  -4   13.25    0.97
 -26   2  -4   13.17    0.96
 -26  -2  -4   12.96    0.96
 -26   2   4   11.99    0.94
 -26  -2  -4   13.31    0.98
 -26   2  -5   -0.01    0.18
 -26   2  -5    0.07    0.25
 -26   2  -5   -0.04    0.24
 -26  -2   5    0.34    0.21
 -26   2   5    0.01    0.19
 -26  -2  -5    0.22    0.27
 -26  -2  -5   -0.25    0.16
 -26   2  -6    0.97    0.33
 -26   2  -6    1.29    0.34
 -26  -2  -6    1.27    0.34
 -26  -3   0   13.44    0.95
 -26   3   0   11.39    0.89
 -26  -3   0   14.28    0.98
 -26   3   0   12.35    0.92
 -26   3  -1    3.04    0.37
 -26  -3   1    2.75    0.36
 -26  -3  -1    1.90    0.34
 -26   3   1    2.10    0.34
 -26   3  -2    8.03    0.63
 -26   3  -2    7.27    0.62
 -26  -3   2    7.20    0.64
 -26   3   2    6.70    0.57
 -26  -3  -2    7.87    0.64
 -26  -3  -2    7.62    0.63
 -26   3   2    5.77    0.61
 -26   3  -3    1.77    0.30
 -26   3  -3    1.16    0.28
 -26  -3   3    1.76    0.30
 -26  -3  -3    1.25    0.30
 -26  -3  -3    1.43    0.31
 -26   3   3    1.61    0.31
 -26  -3   4    4.97    0.55
 -26   3  -4    5.89    0.57
 -26   3  -4    5.26    0.56
 -26   3   4    5.64    0.56
 -26  -3  -4    6.35    0.59
 -26  -3  -4    5.64    0.59
 -26  -3   5    3.34    0.44
 -26   3  -5    3.14    0.48
 -26   3  -5    3.99    0.48
 -26   3  -5    3.18    0.42
 -26  -3  -5    3.66    0.47
 -26   3   5    4.36    0.46
 -26  -3  -5    2.48    0.39
 -26   3  -6    1.85    0.38
 -26   3  -6    1.66    0.39
 -26  -3  -6    2.09    0.39
 -26   4   0    0.37    0.22
 -26  -4   0    0.88    0.26
 -26  -4   0    1.21    0.30
 -26   4   0    0.98    0.24
 -26   4  -1    8.72    0.66
 -26  -4   1    8.11    0.69
 -26   4  -1    8.55    0.71
 -26  -4  -1    7.67    0.70
 -26   4   1    8.09    0.64
 -26  -4  -1   10.90    0.77
 -26   4   1    8.27    0.69
 -26   4  -2    1.25    0.30
 -26  -4   2    1.67    0.32
 -26   4  -2    1.87    0.31
 -26  -4  -2    1.98    0.35
 -26   4   2    1.66    0.31
 -26  -4  -2    1.47    0.32
 -26   4  -3    0.28    0.23
 -26   4  -3    0.17    0.21
 -26  -4   3    0.24    0.23
 -26  -4  -3   -0.01    0.22
 -26   4   3    0.12    0.23
 -26  -4  -3    0.20    0.24
 -26   4  -4    4.25    0.53
 -26  -4   4    4.58    0.48
 -26   4  -4    4.30    0.50
 -26   4  -4    4.55    0.48
 -26  -4  -4    5.07    0.54
 -26  -4  -4    4.33    0.50
 -26   4   4    3.59    0.46
 -26   4  -5    4.64    0.54
 -26   4  -5    5.78    0.54
 -26  -4   5    5.50    0.56
 -26   4  -5    3.55    0.54
 -26  -4  -5    4.70    0.52
 -26  -4  -5    4.08    0.54
 -26   4   5    4.41    0.50
 -26   4  -6    2.22    0.46
 -26   4  -6    2.04    0.39
 -26  -4  -6    2.73    0.44
 -26   5   0    9.00    0.72
 -26  -5   0    8.34    0.72
 -26   5   0    9.73    0.69
 -26   5  -1    6.67    0.55
 -26  -5   1    6.80    0.58
 -26   5  -1    4.68    0.55
 -26  -5  -1    4.55    0.55
 -26   5   1    7.11    0.63
 -26  -5  -1    9.24    0.68
 -26   5  -2    7.73    0.60
 -26   5  -2    6.69    0.64
 -26  -5   2    6.79    0.61
 -26  -5  -2    8.40    0.66
 -26  -5  -2    6.45    0.65
 -26   5   2    6.68    0.64
 -26  -5   3    0.39    0.23
 -26   5  -3    0.19    0.23
 -26   5  -3    0.60    0.25
 -26  -5  -3    0.28    0.22
 -26   5   3    0.25    0.24
 -26  -5  -3    0.37    0.21
 -26   5  -4    4.46    0.48
 -26  -5   4    3.24    0.45
 -26   5  -4    3.53    0.49
 -26   5  -4    3.74    0.45
 -26  -5  -4    3.30    0.46
 -26  -5  -4    3.66    0.46
 -26   5   4    3.06    0.43
 -26   5  -5    0.52    0.27
 -26  -5   5    0.10    0.25
 -26   5  -5    0.16    0.25
 -26   5  -5    0.30    0.21
 -26  -5  -5    0.26    0.25
 -26   5   5    0.20    0.20
 -26  -5  -5    0.14    0.25
 -26  -6   0    2.12    0.36
 -26   6   0    1.86    0.32
 -26  -6   1    0.18    0.22
 -26   6  -1    0.16    0.21
 -26   6  -1    0.04    0.17
 -26  -6  -1   -0.41    0.18
 -26   6   1   -0.46    0.20
 -26  -6  -1   -0.41    0.19
 -26  -6   2    8.94    0.72
 -26   6  -2    8.44    0.70
 -26   6  -2    8.02    0.71
 -26  -6  -2    9.04    0.74
 -26   6   2    9.15    0.73
 -26  -6  -2    9.52    0.78
 -26  -6   3    1.17    0.29
 -26   6  -3    1.13    0.31
 -26   6  -3    1.38    0.30
 -26   6  -3    1.64    0.32
 -26  -6  -3    1.22    0.30
 -26  -6  -3    1.51    0.33
 -26   6   3    1.87    0.33
 -26   6  -4    0.94    0.29
 -26   6  -4    1.15    0.27
 -26   6  -4    0.97    0.31
 -26  -6   4    1.82    0.32
 -26   6   4    1.48    0.33
 -26  -6  -4    1.04    0.29
 -26  -6  -4    1.60    0.33
 -26  -6   5    3.46    0.52
 -26   6  -5    2.58    0.42
 -26   6  -5    2.52    0.39
 -26   6  -5    3.57    0.49
 -26  -6  -5    3.59    0.45
 -26  -6  -5    3.64    0.48
 -26   6   5    2.91    0.43
 -26   7   0    1.19    0.30
 -26  -7   0    1.42    0.31
 -26  -7   1    1.52    0.31
 -26   7  -1    1.20    0.30
 -26  -7  -1    1.06    0.30
 -26  -7  -1    1.17    0.31
 -26   7   1    0.93    0.28
 -26  -7   2    2.27    0.38
 -26   7  -2    2.63    0.34
 -26   7  -2    1.73    0.32
 -26  -7  -2    3.18    0.44
 -26   7   2    2.10    0.35
 -26  -7  -2    1.66    0.34
 -26  -7   3    1.20    0.32
 -26   7  -3    0.63    0.27
 -26   7  -3    1.17    0.27
 -26   7  -3    0.91    0.32
 -26  -7  -3    0.85    0.29
 -26  -7  -3    1.07    0.29
 -26   7   3    1.32    0.31
 -26   7  -4    2.12    0.41
 -26  -7   4    2.35    0.38
 -26   7  -4    1.58    0.34
 -26   7  -4    1.06    0.31
 -26   7   4    1.30    0.31
 -26  -7  -4    2.27    0.41
 -26  -7  -4    2.39    0.38
 -26   7  -5    2.86    0.40
 -26   7  -5    2.37    0.46
 -26  -7   5    1.98    0.45
 -26   7  -5    2.44    0.41
 -26  -7  -5    2.40    0.40
 -26  -7  -5    2.67    0.43
 -26   7   5    2.61    0.38
 -26   8   0    1.66    0.33
 -26  -8   0    1.33    0.34
 -26  -8   1    0.78    0.27
 -26   8  -1    1.37    0.31
 -26  -8  -1    1.23    0.31
 -26   8   1    1.54    0.30
 -26  -8  -1    1.80    0.36
 -26  -8   2   12.63    0.95
 -26   8  -2   12.30    0.95
 -26   8  -2   13.07    0.99
 -26   8  -2   13.27    0.95
 -26  -8  -2   11.59    0.93
 -26  -8  -2   13.51    0.97
 -26   8   2   11.85    0.93
 -26  -8   3    0.96    0.27
 -26   8  -3    0.56    0.25
 -26   8  -3    0.31    0.22
 -26   8  -3    0.51    0.28
 -26   8   3    0.91    0.29
 -26  -8  -3    0.86    0.30
 -26  -8  -3    0.62    0.27
 -26  -8   4   23.03    1.59
 -26   8  -4   23.26    1.60
 -26   8  -4   23.08    1.65
 -26   8  -4   23.66    1.57
 -26  -8  -4   26.49    1.65
 -26  -8  -4   23.43    1.60
 -26   8   4   25.87    1.61
 -26   9   0    1.73    0.32
 -26  -9   0    1.66    0.35
 -26   9  -1    0.53    0.28
 -26  -9   1    0.55    0.27
 -26  -9  -1    0.46    0.28
 -26   9   1    0.35    0.25
 -26   9  -2    0.69    0.27
 -26  -9   2    0.71    0.30
 -26   9  -2    0.62    0.27
 -26  -9  -2    0.54    0.29
 -26   9   2    0.95    0.29
 -26  -9  -2    0.79    0.31
 -26   9  -3    1.46    0.35
 -26   9  -3    2.65    0.37
 -26  -9   3    2.55    0.38
 -26   9  -3    1.43    0.36
 -26  -9  -3    2.18    0.39
 -26  -9  -3    1.62    0.37
 -26   9   3    1.75    0.36
 -26   9  -4    1.49    0.38
 -26   9  -4    1.72    0.32
 -26   9  -4    1.65    0.37
 -26  -9   4    1.80    0.38
 -26  -9  -4    2.19    0.39
 -26   9   4    1.84    0.35
 -26  -9  -4    1.86    0.37
 -26  10   0   12.42    0.89
 -26 -10   0   10.56    0.88
 -26  10  -1   -0.14    0.21
 -26 -10   1   -0.44    0.23
 -26  10  -1    0.11    0.22
 -26 -10  -1    0.29    0.23
 -26  10   1    0.22    0.25
 -26  10  -2   11.81    0.97
 -26  10  -2   11.17    0.91
 -26 -10   2   12.13    0.95
 -26 -10  -2   11.82    0.94
 -26  10   2   11.27    0.91
 -26 -10  -2   15.18    0.99
 -26  10  -3    1.44    0.31
 -26 -10   3    0.82    0.30
 -26  10  -3    1.46    0.39
 -26  10   3    1.86    0.35
 -26 -10  -3    1.22    0.34
 -26 -10  -3    1.38    0.35
 -26  11   0    0.27    0.28
 -26 -11   0   -0.33    0.22
 -26  11  -1    1.63    0.39
 -26 -11   1    1.59    0.34
 -26  11  -1    1.71    0.34
 -26 -11  -1    2.27    0.39
 -26  11   1    2.16    0.38
 -26  11  -2    0.47    0.31
 -26 -11   2    0.63    0.28
 -26  11  -2    0.29    0.27
 -26 -11  -2    0.54    0.28
 -26 -11  -2    0.48    0.31
 -26  11   2    0.64    0.28
 -26 -12   0    6.07    0.68
 -26  12   0    7.64    0.70
 -27   0   0    3.20    0.39
 -27   0   1   21.63    1.46
 -27   0  -1   22.95    1.46
 -27   0  -1   23.18    1.47
 -27   0   1   20.85    1.46
 -27   0   2    0.46    0.26
 -27   0  -2    1.22    0.27
 -27   0  -2    0.57    0.23
 -27   0  -3   11.08    0.85
 -27   0   3   11.52    0.87
 -27   0  -3   11.01    0.88
 -27   0  -4    0.19    0.23
 -27   0   4   -0.19    0.21
 -27   0  -4    0.44    0.22
 -27   0   5    0.07    0.23
 -27   0  -5    0.21    0.23
 -27   0  -5   -0.02    0.27
 -27  -1   0    2.36    0.36
 -27   1   0    2.29    0.35
 -27  -1   1    0.72    0.25
 -27  -1   1    1.08    0.27
 -27   1  -1    0.66    0.26
 -27   1  -1    0.73    0.28
 -27   1   1    0.68    0.25
 -27  -1  -1    1.18    0.29
 -27   1   1    1.01    0.27
 -27  -1  -1    0.77    0.26
 -27   1  -2    3.51    0.44
 -27   1  -2    4.92    0.47
 -27  -1   2    3.35    0.43
 -27  -1  -2    3.00    0.43
 -27   1   2    4.00    0.45
 -27  -1  -2    3.38    0.44
 -27   1   2    3.44    0.41
 -27   1  -3    1.83    0.33
 -27  -1   3    2.33    0.35
 -27   1  -3    2.08    0.35
 -27   1   3    2.59    0.36
 -27  -1  -3    1.78    0.34
 -27  -1  -3    2.45    0.38
 -27  -1   4   -0.11    0.23
 -27   1  -4    0.69    0.27
 -27   1  -4   -0.31    0.21
 -27   1   4    0.41    0.26
 -27  -1  -4    0.25    0.25
 -27  -1  -4    0.01    0.20
 -27   1  -5    2.50    0.38
 -27   1  -5    2.63    0.42
 -27  -1   5    2.91    0.41
 -27  -1  -5    2.85    0.41
 -27   1   5    2.75    0.40
 -27  -1  -5    2.43    0.42
 -27  -2   0    1.06    0.27
 -27   2   0    0.52    0.24
 -27  -2   0    0.66    0.24
 -27   2   0    0.57    0.21
 -27   2  -1   16.23    1.12
 -27   2  -1   15.91    1.11
 -27  -2   1   15.27    1.12
 -27  -2  -1   14.25    1.11
 -27  -2  -1   18.32    1.15
 -27   2   1   17.46    1.10
 -27   2   1   15.30    1.11
 -27  -2   2   10.91    0.90
 -27   2  -2   12.43    0.91
 -27   2  -2   13.31    0.94
 -27   2   2   12.47    0.89
 -27   2   2   12.16    0.91
 -27  -2  -2   15.45    0.97
 -27  -2  -2   11.47    0.93
 -27   2  -3    1.96    0.33
 -27  -2   3    1.50    0.29
 -27   2  -3    1.03    0.29
 -27  -2  -3    1.51    0.32
 -27  -2  -3    1.43    0.31
 -27   2   3    1.74    0.34
 -27   2  -4    2.15    0.36
 -27   2  -4    2.04    0.38
 -27  -2   4    2.56    0.39
 -27  -2  -4    2.08    0.37
 -27   2   4    2.18    0.36
 -27  -2  -4    1.98    0.34
 -27   2  -5    0.22    0.26
 -27   2  -5    0.15    0.22
 -27  -2   5   -0.02    0.24
 -27  -2  -5   -0.22    0.22
 -27   2   5    0.03    0.21
 -27  -2  -5    0.10    0.19
 -27   3   0    0.26    0.19
 -27  -3   0    1.29    0.31
 -27  -3   0    0.15    0.23
 -27   3   0    0.30    0.22
 -27   3  -1   35.12    2.18
 -27  -3   1   33.21    2.20
 -27   3  -1   36.26    2.22
 -27  -3  -1   37.40    2.25
 -27   3   1   37.33    2.18
 -27  -3  -1   34.39    2.21
 -27   3   1   32.86    2.20
 -27   3  -2    0.63    0.24
 -27  -3   2    0.58    0.25
 -27   3  -2    0.62    0.23
 -27   3   2    0.75    0.25
 -27  -3  -2    0.47    0.24
 -27   3   2    0.58    0.22
 -27  -3  -2    0.95    0.29
 -27   3  -3    3.90    0.45
 -27  -3   3    3.90    0.45
 -27   3  -3    3.41    0.44
 -27   3   3    3.07    0.44
 -27  -3  -3    3.26    0.44
 -27  -3  -3    4.81    0.52
 -27  -3   4    4.41    0.49
 -27   3  -4    4.00    0.49
 -27   3  -4    4.00    0.49
 -27   3   4    4.72    0.50
 -27  -3  -4    4.99    0.56
 -27  -3  -4    4.52    0.52
 -27   3  -5    1.57    0.33
 -27  -3   5    1.78    0.34
 -27   3  -5    1.55    0.36
 -27   3   5    1.54    0.33
 -27  -3  -5    1.52    0.35
 -27  -3  -5    1.22    0.31
 -27   4   0    0.13    0.21
 -27  -4   0    0.20    0.22
 -27  -4   0    0.08    0.23
 -27   4   0    0.29    0.20
 -27   4  -1    9.37    0.74
 -27  -4   1   10.15    0.77
 -27   4  -1    9.16    0.75
 -27  -4  -1   11.29    0.81
 -27   4   1    9.22    0.77
 -27  -4  -1    8.28    0.75
 -27   4   1    9.64    0.72
 -27  -4   2    2.62    0.39
 -27   4  -2    2.64    0.38
 -27   4  -2    2.38    0.37
 -27   4   2    2.51    0.38
 -27  -4  -2    2.63    0.39
 -27  -4  -2    2.38    0.39
 -27  -4   3    0.71    0.28
 -27   4  -3    0.74    0.27
 -27   4  -3    1.23    0.27
 -27  -4  -3    0.35    0.25
 -27   4   3    0.67    0.24
 -27  -4  -3    0.80    0.29
 -27   4  -4    6.18    0.64
 -27   4  -4    6.60    0.64
 -27  -4   4    6.60    0.63
 -27  -4  -4    7.80    0.71
 -27   4   4    6.27    0.63
 -27  -4  -4    7.02    0.66
 -27   4  -5    0.73    0.30
 -27   4  -5    0.84    0.39
 -27   4  -5    0.27    0.25
 -27  -4   5    0.57    0.31
 -27   4   5    0.10    0.23
 -27  -4  -5    0.54    0.28
 -27  -4  -5    0.19    0.26
 -27   5   0    0.68    0.24
 -27   5   0    0.30    0.20
 -27  -5   0    0.35    0.22
 -27   5  -1   29.63    1.92
 -27  -5   1   30.24    1.93
 -27   5  -1   29.13    1.89
 -27   5   1   30.54    1.94
 -27  -5  -1   29.29    1.94
 -27  -5  -1   32.85    1.99
 -27   5  -2    0.56    0.21
 -27  -5   2    0.11    0.21
 -27   5  -2   -0.02    0.21
 -27  -5  -2    0.46    0.26
 -27   5   2    0.33    0.22
 -27  -5  -2   -0.07    0.25
 -27  -5   3   17.73    1.22
 -27   5  -3   16.15    1.20
 -27   5  -3   18.12    1.21
 -27  -5  -3   16.15    1.19
 -27   5   3   17.69    1.22
 -27  -5  -3   18.30    1.24
 -27  -5   4    1.51    0.33
 -27   5  -4    1.39    0.30
 -27   5  -4    1.29    0.34
 -27  -5  -4    0.60    0.30
 -27  -5  -4    0.66    0.28
 -27   5   4    0.71    0.29
 -27  -5   5    9.47    0.89
 -27   5  -5    8.02    0.70
 -27   5  -5    8.47    0.79
 -27   5  -5    7.25    0.77
 -27  -5  -5    8.72    0.80
 -27   5   5    8.45    0.73
 -27  -5  -5    8.08    0.71
 -27   6   0    0.19    0.22
 -27  -6   0   -0.14    0.24
 -27   6  -1    0.04    0.20
 -27  -6   1    0.37    0.25
 -27   6  -1   -0.12    0.19
 -27  -6  -1   -0.42    0.18
 -27  -6  -1   -0.16    0.21
 -27   6   1    0.23    0.24
 -27  -6   2   11.76    0.87
 -27   6  -2   10.45    0.84
 -27   6  -2   10.58    0.85
 -27  -6  -2   11.66    0.89
 -27   6   2   11.52    0.89
 -27  -6  -2   11.67    0.90
 -27   6  -3    0.13    0.22
 -27  -6   3   -0.08    0.20
 -27   6  -3   -0.08    0.21
 -27  -6  -3    0.26    0.24
 -27  -6  -3    0.17    0.24
 -27   6   3   -0.03    0.21
 -27  -6   4   15.75    1.18
 -27   6  -4   17.40    1.20
 -27   6  -4   16.54    1.19
 -27   6  -4   16.66    1.27
 -27  -6  -4   15.99    1.19
 -27  -6  -4   21.61    1.28
 -27   6   4   16.85    1.19
 -27   6  -5    0.13    0.30
 -27   6  -5    0.56    0.29
 -27  -7   0   -0.04    0.21
 -27   7   0    0.05    0.22
 -27   7  -1    8.71    0.74
 -27  -7   1    7.43    0.75
 -27  -7  -1    9.98    0.78
 -27   7   1    8.52    0.72
 -27  -7  -1    8.13    0.74
 -27   7  -2    0.24    0.22
 -27  -7   2    0.15    0.23
 -27   7  -2    0.22    0.24
 -27  -7  -2   -0.06    0.22
 -27  -7  -2    0.31    0.26
 -27   7   2    0.04    0.21
 -27  -7   3   12.74    0.98
 -27   7  -3   13.35    0.99
 -27   7  -3   13.73    0.98
 -27  -7  -3   13.17    0.99
 -27   7   3   13.93    1.00
 -27  -7  -3   13.31    1.01
 -27   7  -4    0.63    0.32
 -27   7  -4    0.29    0.25
 -27  -7   4    0.67    0.29
 -27   7  -4    0.84    0.31
 -27   7   4    0.43    0.28
 -27  -7  -4    0.67    0.29
 -27  -7  -4    0.39    0.29
 -27   8   0   -0.17    0.23
 -27  -8   0   -0.41    0.23
 -27   8  -1   10.51    0.81
 -27  -8   1    8.73    0.78
 -27  -8  -1    8.88    0.79
 -27   8   1    9.90    0.79
 -27  -8  -1   11.34    0.86
 -27  -8   2    5.96    0.63
 -27   8  -2    6.33    0.63
 -27   8   2    6.31    0.63
 -27  -8  -2    7.20    0.70
 -27  -8  -2    5.50    0.61
 -27   8  -3    8.78    0.71
 -27   8  -3    8.10    0.80
 -27  -8   3    7.80    0.69
 -27   8  -3    6.60    0.70
 -27  -8  -3    8.96    0.80
 -27  -8  -3    7.60    0.73
 -27   8   3    8.86    0.71
 -27   8  -4    3.79    0.48
 -27   8  -4    3.40    0.50
 -27   8  -4    3.74    0.47
 -27  -8   4    3.82    0.50
 -27  -8  -4    4.42    0.55
 -27  -8  -4    3.64    0.47
 -27   8   4    3.86    0.49
 -27  -9   0   -0.25    0.23
 -27   9   0    0.16    0.26
 -27   9  -1    0.12    0.25
 -27  -9   1    0.11    0.26
 -27  -9  -1   -0.08    0.22
 -27   9   1    0.49    0.27
 -27  -9  -1   -0.06    0.24
 -27   9  -2    1.73    0.35
 -27  -9   2    2.74    0.42
 -27  -9  -2    2.23    0.39
 -27  -9  -2    1.39    0.33
 -27   9   2    1.63    0.35
 -27   9  -3    0.61    0.27
 -27   9  -3    0.95    0.34
 -27  -9   3    1.49    0.33
 -27   9   3    1.11    0.31
 -27  -9  -3    0.74    0.28
 -27  -9  -3    0.96    0.31
 -27 -10   0    0.30    0.28
 -27  10   0   -0.35    0.18
 -27  10  -1   16.17    1.19
 -27 -10   1   18.41    1.22
 -27 -10  -1   16.38    1.23
 -27  10   1   15.85    1.18
 -27 -10  -1   16.50    1.21
 -27  10  -2    0.22    0.24
 -27  10  -2    0.20    0.34
 -27 -10   2   -0.01    0.25
 -27  10   2   -0.16    0.25
 -27 -10  -2    0.20    0.24
 -27 -10  -2    0.64    0.28
 -27 -11   0    0.21    0.26
 -28   0   0   47.60    2.80
 -28   0   0   42.90    2.77
 -28   0  -1    1.34    0.29
 -28   0   1    0.83    0.27
 -28   0   1    1.36    0.27
 -28   0  -1    1.74    0.33
 -28   0  -2   16.70    1.15
 -28   0   2   15.78    1.13
 -28   0   2   15.82    1.16
 -28   0  -2   17.12    1.17
 -28   0   3    0.08    0.24
 -28   0  -3   -0.04    0.22
 -28   0  -3    0.12    0.21
 -28   0  -4    5.06    0.59
 -28   0   4    6.58    0.62
 -28   0  -4    5.60    0.58
 -28   0  -5   -0.24    0.22
 -28   0   5   -0.11    0.20
 -28   0  -5   -0.37    0.22
 -28  -1   0   39.73    2.39
 -28   1   0   37.87    2.36
 -28  -1   0   36.41    2.37
 -28   1   0   38.27    2.39
 -28  -1   1    1.13    0.31
 -28   1  -1    1.58    0.31
 -28   1  -1    1.21    0.31
 -28  -1   1    1.10    0.32
 -28   1   1    1.55    0.30
 -28   1   1    1.40    0.31
 -28  -1  -1    1.33    0.29
 -28  -1  -1    2.54    0.35
 -28   1  -2    9.07    0.72
 -28  -1   2    8.17    0.72
 -28   1  -2    8.05    0.70
 -28  -1  -2    8.12    0.73
 -28   1   2    9.15    0.75
 -28   1   2    9.67    0.73
 -28  -1  -2    8.45    0.72
 -28   1  -3    1.18    0.32
 -28  -1   3    1.18    0.31
 -28   1  -3    1.07    0.32
 -28  -1  -3    0.69    0.29
 -28   1   3    1.18    0.31
 -28  -1  -3    1.75    0.36
 -28  -1   4    1.00    0.31
 -28   1  -4    0.87    0.30
 -28   1  -4    1.14    0.33
 -28  -1  -4    1.22    0.32
 -28  -1  -4    1.89    0.35
 -28   1   4    0.97    0.30
 -28   1  -5    6.27    0.63
 -28  -1   5    6.92    0.67
 -28   1  -5    6.52    0.70
 -28   1   5    7.23    0.67
 -28  -1  -5    6.99    0.66
 -28  -1  -5    6.40    0.68
 -28   2   0    3.26    0.43
 -28  -2   0    3.55    0.44
 -28  -2   0    2.76    0.40
 -28   2   0    2.59    0.38
 -28  -2   1    5.68    0.55
 -28   2  -1    4.87    0.48
 -28   2  -1    4.03    0.48
 -28  -2   1    4.55    0.50
 -28   2   1    4.16    0.45
 -28  -2  -1    3.85    0.49
 -28  -2  -1    5.39    0.54
 -28   2   1    3.38    0.46
 -28   2  -2   10.53    0.79
 -28   2  -2   10.56    0.82
 -28  -2   2    9.35    0.80
 -28   2   2    9.42    0.80
 -28   2   2   10.60    0.77
 -28  -2  -2   10.35    0.82
 -28  -2  -2    9.21    0.80
 -28   2  -3    1.43    0.30
 -28   2  -3    1.14    0.29
 -28  -2   3    1.19    0.29
 -28   2   3    1.48    0.31
 -28  -2  -3    1.08    0.31
 -28  -2  -3    1.64    0.33
 -28   2  -4    5.18    0.61
 -28   2  -4    6.82    0.65
 -28  -2   4    8.17    0.69
 -28   2   4    6.48    0.63
 -28  -2  -4    7.21    0.71
 -28  -2  -4    6.66    0.65
 -28   2  -5    0.67    0.32
 -28   2  -5    0.59    0.26
 -28  -2   5    0.81    0.29
 -28  -2  -5    0.64    0.26
 -28  -2  -5    0.77    0.30
 -28   2   5    0.33    0.25
 -28  -3   0    9.04    0.77
 -28  -3   0   10.68    0.81
 -28   3   0    9.45    0.77
 -28   3   0    8.67    0.70
 -28   3  -1    0.83    0.30
 -28   3  -1    1.00    0.25
 -28  -3   1    0.42    0.26
 -28  -3  -1    1.14    0.31
 -28   3   1    1.34    0.27
 -28  -3  -1    0.84    0.29
 -28   3   1    0.71    0.26
 -28  -3   2    5.11    0.54
 -28   3  -2    5.05    0.54
 -28   3  -2    4.28    0.49
 -28  -3  -2    4.92    0.55
 -28  -3  -2    5.16    0.56
 -28   3   2    4.62    0.51
 -28   3  -3    4.96    0.55
 -28  -3   3    4.71    0.54
 -28   3  -3    4.52    0.54
 -28  -3  -3    5.06    0.56
 -28  -3  -3    5.60    0.60
 -28   3   3    6.63    0.60
 -28  -3   4   12.64    0.92
 -28   3  -4   11.26    0.92
 -28   3  -4   11.91    0.90
 -28  -3  -4   11.23    0.90
 -28   3   4   11.78    0.92
 -28  -3  -4   13.29    0.98
 -28   3  -5    2.33    0.42
 -28  -3  -5    1.96    0.40
 -28   4   0    0.24    0.19
 -28  -4   0    0.08    0.27
 -28  -4   0   -0.17    0.21
 -28   4   0    0.35    0.26
 -28   4  -1    1.02    0.26
 -28   4  -1    0.66    0.26
 -28  -4   1    0.67    0.26
 -28   4   1    0.89    0.30
 -28  -4  -1    0.90    0.28
 -28  -4  -1    1.06    0.29
 -28   4  -2    2.98    0.39
 -28   4  -2    3.09    0.42
 -28  -4   2    3.16    0.42
 -28  -4  -2    2.21    0.39
 -28  -4  -2    2.16    0.40
 -28   4   2    2.75    0.40
 -28   4  -3   14.27    1.06
 -28  -4   3   13.25    1.04
 -28   4  -3   15.75    1.06
 -28   4   3   14.52    1.04
 -28  -4  -3   13.32    1.04
 -28  -4  -3   15.25    1.08
 -28   4  -4    1.92    0.33
 -28   4  -4    1.99    0.37
 -28  -4   4    1.41    0.35
 -28  -4  -4    1.86    0.39
 -28  -4  -4    1.95    0.37
 -28   4   4    1.91    0.35
 -28   5   0    9.90    0.81
 -28  -5   0    9.91    0.83
 -28   5   0    9.67    0.80
 -28  -5   0   10.07    0.82
 -28   5  -1    1.17    0.28
 -28   5  -1    1.00    0.29
 -28  -5   1    1.29    0.33
 -28  -5  -1    1.45    0.34
 -28   5   1    1.01    0.31
 -28  -5  -1    1.59    0.34
 -28   5  -2   10.44    0.84
 -28  -5   2   11.43    0.89
 -28   5  -2   10.73    0.86
 -28  -5  -2   11.82    0.89
 -28  -5  -2   12.66    0.92
 -28   5   2   10.39    0.87
 -28  -5   3    1.72    0.36
 -28   5  -3    2.03    0.37
 -28   5  -3    1.61    0.35
 -28  -5  -3    2.09    0.36
 -28   5   3    1.92    0.35
 -28  -5  -3    2.11    0.39
 -28   5  -4   16.70    1.22
 -28  -5   4   18.14    1.25
 -28   5  -4   16.49    1.24
 -28   5   4   18.32    1.25
 -28  -5  -4   19.76    1.29
 -28  -5  -4   16.24    1.23
 -28   6   0    2.70    0.40
 -28  -6   0    2.90    0.42
 -28   6  -1    1.70    0.35
 -28   6  -1    1.67    0.30
 -28  -6   1    2.13    0.37
 -28   6   1    1.55    0.32
 -28  -6  -1    1.72    0.37
 -28  -6  -1    1.11    0.34
 -28   6  -2    2.00    0.36
 -28  -6   2    2.01    0.38
 -28   6  -2    1.82    0.34
 -28  -6  -2    1.48    0.34
 -28  -6  -2    1.88    0.39
 -28   6   2    1.75    0.36
 -28   6  -3    5.17    0.54
 -28   6  -3    4.24    0.50
 -28  -6   3    3.87    0.52
 -28  -6  -3    4.59    0.53
 -28   6   3    5.43    0.57
 -28  -6  -3    4.79    0.60
 -28  -6   4    1.93    0.37
 -28   6  -4    1.38    0.36
 -28   6  -4    1.76    0.36
 -28  -6  -4    2.33    0.38
 -28   6   4    0.92    0.32
 -28  -6  -4    2.61    0.44
 -28   7   0   15.74    1.13
 -28  -7   0   15.08    1.13
 -28   7  -1    0.12    0.24
 -28  -7   1    0.34    0.27
 -28   7   1   -0.08    0.24
 -28  -7  -1   -0.02    0.21
 -28  -7  -1    0.20    0.24
 -28   7  -2    9.45    0.77
 -28   7  -2    9.06    0.75
 -28  -7   2    9.32    0.80
 -28  -7  -2   11.12    0.84
 -28   7   2    9.43    0.79
 -28  -7  -2    9.36    0.79
 -28   7  -3    0.49    0.25
 -28  -7   3    0.14    0.27
 -28   7  -3    0.04    0.23
 -28  -7  -3    0.03    0.23
 -28  -7  -3   -0.06    0.23
 -28   7   3   -0.13    0.21
 -28   8   0   13.57    1.04
 -28  -8   0   14.46    1.05
 -28   8  -1    6.22    0.62
 -28  -8   1    5.77    0.63
 -28  -8  -1    6.34    0.65
 -28  -8  -1    5.89    0.68
 -28   8   1    6.14    0.64
 -28   8  -2   10.81    0.86
 -28  -8   2    9.29    0.85
 -28  -8  -2   12.11    0.96
 -28  -8  -2   12.06    0.90
 -28   8   2   11.67    0.88
 -28   8  -3    3.08    0.42
 -28   8  -3    3.41    0.45
 -28  -8   3    3.19    0.47
 -28  -8  -3    3.73    0.48
 -28  -8  -3    3.46    0.50
 -28   8   3    3.09    0.43
 -28   9   0    0.86    0.30
 -28  -9   0    0.82    0.31
 -28   9  -1    0.13    0.26
 -28  -9   1    0.12    0.25
 -28  -9  -1    0.38    0.29
 -28  -9  -1    0.33    0.26
 -28   9   1    0.18    0.24
 -28   9  -2   -0.12    0.24
 -28  -9   2   -0.05    0.26
 -28   9   2   -0.36    0.23
 -28  -9  -2    0.17    0.26
 -28  -9  -2    0.03    0.24
 -29   0   0    0.53    0.25
 -29   0   0    0.08    0.25
 -29   0  -1   17.80    1.26
 -29   0   1   18.31    1.27
 -29   0  -1   19.21    1.26
 -29   0   1   17.09    1.23
 -29   0  -2    0.14    0.22
 -29   0   2    0.43    0.27
 -29   0  -2    0.24    0.23
 -29   0   2    0.31    0.24
 -29   0  -3    2.79    0.42
 -29   0  -3    3.64    0.46
 -29   0   3    2.93    0.43
 -29   0  -4   -0.01    0.22
 -29   0   4    0.05    0.27
 -29   0  -4    0.08    0.26
 -29  -1   0    0.44    0.23
 -29  -1   0    0.70    0.29
 -29   1   0    0.56    0.26
 -29   1   0    0.48    0.26
 -29   1  -1   14.11    0.99
 -29  -1   1   12.66    0.98
 -29   1  -1   13.05    0.96
 -29  -1   1   12.61    0.97
 -29   1   1   12.69    1.00
 -29  -1  -1   14.56    0.99
 -29   1   1   12.39    0.96
 -29  -1  -1   13.09    0.98
 -29   1  -2    5.56    0.59
 -29   1  -2    6.16    0.59
 -29  -1   2    5.52    0.58
 -29  -1  -2    5.41    0.60
 -29   1   2    5.89    0.56
 -29  -1  -2    4.40    0.55
 -29   1   2    6.48    0.62
 -29  -1   3    0.15    0.25
 -29   1  -3    0.53    0.26
 -29   1  -3    0.30    0.26
 -29  -1  -3    0.13    0.24
 -29   1   3    0.09    0.22
 -29   1   3    0.00    0.20
 -29  -1  -3    0.47    0.28
 -29   1  -4    2.15    0.39
 -29  -1   4    1.65    0.37
 -29   1  -4    1.76    0.36
 -29  -1  -4    2.24    0.41
 -29  -1  -4    1.44    0.35
 -29   1   4    1.57    0.33
 -29  -2   0   -0.21    0.24
 -29   2   0    0.25    0.22
 -29  -2   0    0.21    0.24
 -29   2   0    0.41    0.28
 -29   2  -1   32.16    2.12
 -29   2  -1   34.46    2.16
 -29  -2   1   34.25    2.17
 -29  -2   1   35.93    2.18
 -29  -2  -1   35.03    2.17
 -29   2   1   32.75    2.15
 -29   2   1   33.80    2.12
 -29  -2  -1   32.46    2.16
 -29   2  -2    1.07    0.28
 -29  -2   2    0.86    0.28
 -29   2  -2    0.91    0.29
 -29  -2  -2    1.00    0.33
 -29   2   2    0.98    0.24
 -29   2   2    1.49    0.31
 -29  -2  -2    1.02    0.32
 -29   2  -3   13.84    0.99
 -29  -2   3   14.59    0.99
 -29   2  -3   12.29    0.97
 -29  -2  -3   10.91    0.94
 -29  -2  -3   13.70    0.99
 -29   2   3   11.81    0.94
 -29   2  -4    0.08    0.25
 -29   2  -4    0.98    0.30
 -29  -2   4   -0.14    0.25
 -29   2   4    0.48    0.25
 -29  -2  -4    0.62    0.29
 -29  -2  -4    0.62    0.26
 -29   3   0    1.55    0.32
 -29  -3   0    1.18    0.30
 -29   3  -1    2.18    0.41
 -29  -3   1    2.34    0.40
 -29  -3   1    3.98    0.49
 -29   3  -1    2.93    0.39
 -29  -3  -1    3.40    0.46
 -29  -3  -1    3.24    0.44
 -29   3   1    2.48    0.40
 -29   3   1    2.46    0.35
 -29  -3   2    2.45    0.40
 -29   3  -2    2.17    0.37
 -29   3  -2    2.41    0.38
 -29   3   2    2.13    0.38
 -29  -3  -2    2.30    0.39
 -29  -3  -2    3.47    0.45
 -29  -3   3    0.12    0.25
 -29   3  -3    0.35    0.25
 -29   3  -3    0.16    0.23
 -29  -3  -3    0.23    0.25
 -29   3   3   -0.20    0.23
 -29  -3  -3    0.23    0.26
 -29  -3   4   12.84    0.92
 -29   3  -4   11.08    0.91
 -29   3  -4   13.01    0.96
 -29  -3  -4   12.71    0.96
 -29   3   4   10.62    0.90
 -29  -3  -4   10.58    0.91
 -29  -4   0   -0.13    0.20
 -29   4   0    0.04    0.22
 -29  -4   0   -0.05    0.25
 -29   4   0    0.02    0.18
 -29  -4   1    2.84    0.42
 -29   4  -1    2.67    0.42
 -29   4  -1    2.58    0.39
 -29  -4  -1    3.23    0.46
 -29  -4  -1    3.77    0.49
 -29   4   1    2.70    0.40
 -29   4  -2    6.02    0.57
 -29  -4   2    4.56    0.54
 -29   4  -2    4.84    0.55
 -29  -4  -2    5.00    0.58
 -29   4   2    4.89    0.55
 -29  -4  -2    4.29    0.53
 -29   4  -3    3.84    0.49
 -29  -4   3    4.18    0.51
 -29   4  -3    5.40    0.56
 -29  -4  -3    4.65    0.57
 -29  -4  -3    4.85    0.55
 -29   4   3    4.49    0.52
 -29   5   0    0.18    0.23
 -29  -5   0    0.22    0.25
 -29  -5   0    0.52    0.29
 -29   5  -1    5.59    0.57
 -29  -5   1    4.73    0.57
 -29   5  -1    5.83    0.54
 -29  -5  -1    4.86    0.56
 -29  -5  -1    5.19    0.60
 -29   5   1    4.24    0.53
 -29  -5   2    1.47    0.33
 -29   5  -2    1.36    0.33
 -29   5  -2    1.16    0.28
 -29   5   2    0.59    0.28
 -29  -5  -2    1.06    0.33
 -29  -5  -2    0.38    0.27
 -29   5  -3    1.54    0.35
 -29  -5   3    1.43    0.35
 -29   5  -3    1.56    0.33
 -29  -5  -3    1.28    0.34
 -29   5   3    1.34    0.34
 -29  -5  -3    2.17    0.40
 -29   6   0    0.11    0.25
 -29  -6   0    0.19    0.27
 -29  -6   0    0.23    0.29
 -29  -6   1    2.83    0.44
 -29   6  -1    3.15    0.44
 -29  -6  -1    3.46    0.47
 -29   6   1    3.01    0.43
 -29  -6  -1    3.13    0.47
 -29  -6   2    1.24    0.31
 -29   6  -2    0.96    0.28
 -29   6  -2    1.39    0.29
 -29   6   2    1.35    0.32
 -29  -6  -2    0.57    0.28
 -29  -6  -2    1.44    0.36
 -29   6  -3    0.98    0.31
 -29  -6   3    1.37    0.34
 -29   6  -3    1.60    0.35
 -29   6   3    0.57    0.30
 -29  -6  -3    0.56    0.28
 -29  -6  -3    0.71    0.31
 -29  -7   0    0.27    0.26
 -29   7   0    0.73    0.29
 -29  -7   1    6.01    0.67
 -29   7  -1    6.02    0.65
 -29   7   1    7.44    0.70
 -29  -7  -1    6.95    0.68
 -29  -7  -1    7.45    0.75
 -29   7  -2    0.11    0.26
 -29  -7   2    0.50    0.27
 -29  -7  -2   -0.07    0.24
 -29   7   2    0.15    0.28
 -29  -7  -2   -0.02    0.25
 -29   8   0    0.07    0.26
 -29  -8   0   -0.13    0.23
 -29   8  -1    7.06    0.71
 -29  -8   1    7.72    0.75
 -29  -8  -1    7.82    0.76
 -29  -8  -1    8.74    0.82
 -29   8   1    7.52    0.74
 -30   0   0    1.55    0.38
 -30   0   0    2.39    0.39
 -30   0   1    2.64    0.41
 -30   0  -1    4.63    0.50
 -30   0  -2    3.13    0.43
 -30   0   2    2.61    0.39
 -30   0   2    2.51    0.41
 -30   0  -2    2.28    0.42
 -30   0  -3   -0.33    0.23
 -30   0  -3    0.12    0.25
 -30   0   3   -0.24    0.24
 -30   1   0    4.47    0.50
 -30   1   0    3.69    0.50
 -30  -1   0    4.27    0.53
 -30  -1   0    4.40    0.53
 -30   1  -1    2.40    0.39
 -30  -1   1    2.13    0.37
 -30   1  -1    1.64    0.35
 -30  -1   1    1.97    0.36
 -30  -1  -1    1.78    0.36
 -30   1   1    2.16    0.40
 -30   1   1    1.68    0.34
 -30  -1  -1    2.26    0.40
 -30  -1   2    0.45    0.26
 -30   1  -2    0.27    0.25
 -30   1  -2    0.08    0.25
 -30  -1   2    0.15    0.24
 -30  -1  -2    0.05    0.27
 -30   1   2    0.07    0.23
 -30  -1  -2   -0.19    0.22
 -30   1   2   -0.11    0.23
 -30  -1   3    3.48    0.48
 -30   1  -3    3.43    0.47
 -30   1  -3    2.93    0.43
 -30   1   3    2.84    0.46
 -30  -1  -3    3.20    0.46
 -30  -1  -3    3.99    0.52
 -30   2   0    2.19    0.40
 -30  -2   0    2.05    0.39
 -30  -2   0    2.23    0.40
 -30   2   0    2.09    0.36
 -30  -2   1    1.68    0.36
 -30  -2   1    2.45    0.42
 -30   2  -1    2.20    0.38
 -30   2  -1    1.77    0.33
 -30  -2  -1    2.39    0.39
 -30  -2  -1    2.05    0.37
 -30   2   1    2.21    0.39
 -30   2   1    1.69    0.32
 -30   2  -2    1.37    0.34
 -30  -2   2    1.83    0.35
 -30   2  -2    1.75    0.36
 -30   2   2    2.22    0.39
 -30  -2  -2    1.57    0.36
 -30  -2  -2    1.70    0.37
 -30  -2   3    2.20    0.39
 -30   2  -3    1.43    0.35
 -30   2  -3    2.26    0.38
 -30  -2  -3    1.65    0.34
 -30   2   3    2.09    0.40
 -30  -2  -3    2.70    0.43
 -30  -3   0   43.07    2.61
 -30   3   0   39.54    2.53
 -30   3   0   41.85    2.60
 -30  -3   0   40.38    2.59
 -30  -3   1    2.76    0.42
 -30   3  -1    2.46    0.41
 -30  -3   1    2.81    0.44
 -30   3  -1    3.34    0.42
 -30  -3  -1    2.75    0.44
 -30   3   1    2.97    0.43
 -30   3   1    2.47    0.44
 -30  -3  -1    3.45    0.49
 -30  -3   2   17.64    1.26
 -30   3  -2   19.17    1.27
 -30   3  -2   17.60    1.26
 -30  -3  -2   17.52    1.26
 -30  -3  -2   18.66    1.30
 -30   3   2   17.08    1.25
 -30   3  -3    0.26    0.28
 -30  -3   3    0.44    0.26
 -30   3  -3    0.89    0.28
 -30  -3  -3    0.70    0.30
 -30  -3  -3    0.31    0.28
 -30   3   3    0.47    0.27
 -30  -4   0   -0.57    0.19
 -30  -4   0    0.05    0.25
 -30   4   0    0.11    0.26
 -30   4   0    0.32    0.24
 -30  -4   1    1.30    0.35
 -30   4  -1    1.93    0.35
 -30  -4   1    1.32    0.33
 -30   4  -1    1.83    0.36
 -30   4   1    1.79    0.34
 -30  -4  -1    1.96    0.39
 -30  -4  -1    1.96    0.39
 -30  -4   2    1.05    0.34
 -30   4  -2    1.25    0.33
 -30   4  -2    1.19    0.32
 -30  -4  -2    1.20    0.35
 -30  -4  -2    1.17    0.33
 -30   4   2    0.90    0.30
 -30   5   0    2.35    0.39
 -30  -5   0    2.48    0.44
 -30  -5   0    1.61    0.36
 -30  -5   1    0.89    0.33
 -30   5  -1    0.87    0.26
 -30   5  -1    1.20    0.31
 -30  -5  -1    1.10    0.34
 -30  -5  -1    0.19    0.28
 -30   5   1    0.98    0.30
 -30   5  -2   12.29    0.97
 -30   5  -2   13.18    1.02
 -30  -5   2   12.16    0.99
 -30  -5  -2   14.24    1.01
 -30  -5  -2   14.05    1.04
 -30   5   2   12.15    0.99
 -30  -6   0   -0.16    0.22
 -30   6   0    0.06    0.26
 -30  -6   0    0.31    0.29
 -30   6  -1    0.33    0.25
 -30  -6   1   -0.54    0.24
 -30   6   1    0.23    0.24
 -30  -6  -1   -0.10    0.29
 -30  -6  -1    0.26    0.28
 -31   0   0    1.78    0.36
 -31   0   0    1.33    0.33
 -31   0   1   64.91    3.93
 -31   0  -1   65.12    3.92
 -31   0   1   64.88    3.91
 -31   0  -1   63.34    3.93
 -31   0   2    0.05    0.25
 -31   0   2    0.14    0.24
 -31   0  -2    0.14    0.27
 -31   0  -2   -0.07    0.24
 -31  -1   0    0.34    0.28
 -31  -1   0    0.27    0.25
 -31   1   0    0.62    0.26
 -31   1   0    0.57    0.27
 -31  -1   1    1.88    0.38
 -31  -1   1    1.31    0.33
 -31   1  -1    1.11    0.32
 -31   1  -1    1.44    0.33
 -31   1   1    1.46    0.35
 -31  -1  -1    1.70    0.39
 -31   1   1    1.22    0.31
 -31  -1  -1    1.56    0.36
 -31   1  -2    0.68    0.31
 -31  -1   2    0.28    0.28
 -31  -1   2    0.03    0.29
 -31   1  -2    0.21    0.26
 -31   1   2    0.63    0.25
 -31   1   2    0.84    0.32
 -31  -1  -2    0.40    0.28
 -31  -1  -2    0.71    0.33
 -31  -2   0    0.83    0.29
 -31  -2   0    0.16    0.27
 -31   2   0    0.12    0.25
 -31   2   0    0.35    0.26
 -31  -2   1   11.33    0.87
 -31   2  -1   11.32    0.86
 -31  -2   1    9.74    0.86
 -31   2  -1   10.14    0.84
 -31  -2  -1   11.11    0.90
 -31   2   1   10.50    0.82
 -31  -2  -1   11.17    0.87
 -31   2   1    7.79    0.85
 -31  -3   0    0.66    0.29
 -31   3   0    0.59    0.28
 -31  -3   0    0.40    0.29
 -31   3   0    0.44    0.26
 -31   3  -1    0.13    0.25
 -31  -3   1    0.43    0.31
 -31  -3   1    0.22    0.31
 -31   3  -1    0.19    0.26
 -31   3   1    0.19    0.29
 -31  -3  -1    0.20    0.26
 -31  -3  -1    0.12    0.29
 -31  -4   0    0.11    0.28
   0   0   0    0.00    0.00
;
_shelx_hkl_checksum              990
loop_
_space_group_symop_operation_xyz
'x, y, z'
'x, -y+1/2, -z+1/2'
'-x+1/2, y+1/2, -z+1/2'
'-x+1/2, -y, z'
'-x, -y, -z'
'-x, y-1/2, z-1/2'
'x-1/2, -y-1/2, z-1/2'
'x-1/2, y, -z'
loop_
_atom_site_type_symbol
_atom_site_label
_atom_site_fract_x
_atom_site_fract_y
_atom_site_fract_z
_atom_site_U_iso_or_equiv
_atom_site_adp_type
_atom_site_calc_flag
_atom_site_refinement_flags_adp
_atom_site_refinement_flags_occupancy
_atom_site_refinement_flags_posn
_atom_site_occupancy
Ni Ni1 0.45905(2) 0.04945(2) 0.22404(3) 0.01448(16) Uani d . . . 1
O O6 0.31382(6) 0.18069(9) 0.65960(17) 0.0217(4) Uani d . . . 1
O O7 0.17397(6) 0.17908(11) 0.67085(18) 0.0289(4) Uani d . . . 1
O O1 0.45736(5) -0.04965(8) 0.3401(2) 0.0181(4) Uani d . . . 1
O O4 0.45873(6) 0.13058(10) 0.07204(19) 0.0197(4) Uani d . . D 1
H H26A 0.4778(11) 0.1169(15) 0.015(3) 0.03 Uiso d U . . 1
H H26B 0.4267(11) 0.1257(15) 0.032(3) 0.03 Uiso d U . . 1
O O3 0.38749(5) 0.01689(9) 0.15450(17) 0.0203(4) Uani d . . . 1
O O5 0.36400(6) 0.10516(10) -0.00024(19) 0.0298(4) Uani d . . . 1
N N1 0.42369(7) 0.10877(10) 0.3809(2) 0.0192(4) Uani d . . . 1
O O2 0.48598(6) -0.05509(8) 0.12391(18) 0.0178(4) Uani d . . . 1
C C1 0.39352(9) 0.16660(13) 0.3476(3) 0.0238(6) Uani d . . . 1
H H1 0.3975 0.1889 0.2575 0.029 Uiso calc U . R 1
C C2 0.35697(9) 0.19598(13) 0.4355(3) 0.0242(6) Uani d . . . 1
H H2 0.337 0.2378 0.4074 0.029 Uiso calc U . R 1
C C3 0.35019(8) 0.16240(13) 0.5667(2) 0.0181(5) Uani d . . . 1
C C4 0.27769(8) 0.23797(13) 0.6202(2) 0.0185(5) Uani d . . . 1
H H4A 0.2569 0.221 0.5395 0.022 Uiso calc U . R 1
H H4B 0.2952 0.2851 0.5939 0.022 Uiso calc U . R 1
C C5 0.24468(12) 0.25 0.75 0.0158(7) Uani d T P S 1
C C6 0.21150(9) 0.18116(14) 0.7795(2) 0.0204(5) Uani d . . . 1
H H6B 0.2321 0.1347 0.7779 0.024 Uiso calc U . R 1
H H6A 0.1953 0.1856 0.873 0.024 Uiso calc U . R 1
C C7 0.12856(8) 0.14618(14) 0.6981(2) 0.0211(5) Uani d . . . 1
C C8 0.11905(8) 0.09623(14) 0.8071(3) 0.0221(5) Uani d . . . 1
H H8 0.1449 0.083 0.872 0.027 Uiso calc U . R 1
C C9 0.07079(8) 0.06614(14) 0.8187(3) 0.0212(5) Uani d . . . 1
H H9 0.0643 0.0318 0.8931 0.025 Uiso calc U . R 1
N N2 0.03278(7) 0.08295(12) 0.7306(2) 0.0180(5) Uani d . . . 1
C C10 0.04296(9) 0.13200(16) 0.6267(3) 0.0250(6) Uani d . . . 1
H H10 0.0164 0.1453 0.5643 0.03 Uiso calc U . R 1
C C11 0.08963(9) 0.16403(15) 0.6058(3) 0.0281(6) Uani d . . . 1
H H11 0.0952 0.1977 0.5297 0.034 Uiso calc U . R 1
C C12 0.38245(8) 0.10432(13) 0.6059(2) 0.0183(5) Uani d . . . 1
H H12 0.38 0.0824 0.6967 0.022 Uiso calc U . R 1
C C13 0.41812(8) 0.07893(13) 0.5114(2) 0.0185(5) Uani d . . . 1
H H13 0.4397 0.0388 0.5388 0.022 Uiso calc U . R 1
C C14 0.47102(9) -0.08772(14) 0.2346(2) 0.0171(5) Uani d . . . 1
C C15 0.46930(9) -0.17079(14) 0.2410(2) 0.0163(5) Uani d . . . 1
C C16 0.42198(9) -0.21004(13) 0.2452(2) 0.0182(5) Uani d . . . 1
C C17 0.37529(9) -0.17079(14) 0.2375(3) 0.0240(6) Uani d . . . 1
H H17 0.3749 -0.1176 0.2281 0.029 Uiso calc U . DR 1
C C18 0.33047(10) -0.21054(15) 0.2437(3) 0.0333(7) Uani d . . . 1
H H18 0.2992 -0.1843 0.2395 0.04 Uiso calc U . R 1
C C19 0.51408(9) -0.21083(14) 0.2444(3) 0.0196(5) Uani d . . . 1
H H19 0.5454 -0.1847 0.2391 0.024 Uiso calc U . R 1
C C20 0.35516(9) 0.05123(12) 0.0805(3) 0.0191(5) Uani d . . . 1
C C21 0.30095(8) 0.02374(13) 0.0883(2) 0.0186(5) Uani d . . . 1
C C22 0.27641(9) 0.00939(14) 0.2202(2) 0.0198(5) Uani d . . . 1
C C23 0.30155(9) 0.01601(15) 0.3514(3) 0.0288(6) Uani d . . . 1
H H23 0.3367 0.027 0.353 0.035 Uiso calc U . R 1
C C24 0.27626(11) 0.00697(19) 0.4756(3) 0.0409(8) Uani d . . . 1
H H24 0.2941 0.0101 0.5621 0.049 Uiso calc U . R 1
C C25 0.27500(8) 0.01360(13) -0.0352(2) 0.0196(5) Uani d . . . 1
H H25 0.291 0.0251 -0.122 0.023 Uiso calc U . R 1
loop_
_atom_site_aniso_label
_atom_site_aniso_U_11
_atom_site_aniso_U_22
_atom_site_aniso_U_33
_atom_site_aniso_U_12
_atom_site_aniso_U_13
_atom_site_aniso_U_23
Ni1 0.0100(2) 0.0118(2) 0.0216(2) -0.00006(10) 0.00178(10) -0.00051(11)
O6 0.0178(8) 0.0230(9) 0.0242(9) 0.0060(7) 0.0047(7) 0.0017(7)
O7 0.0181(8) 0.0470(11) 0.0215(9) -0.0188(8) -0.0036(7) 0.0037(8)
O1 0.0199(9) 0.0133(9) 0.0212(10) 0.0020(6) 0.0011(6) -0.0020(7)
O4 0.0138(8) 0.0218(10) 0.0235(10) 0.0002(6) 0.0044(7) 0.0018(8)
O3 0.0131(8) 0.0181(9) 0.0297(9) -0.0005(6) -0.0020(7) 0.0017(7)
O5 0.0169(8) 0.0340(10) 0.0386(11) -0.0012(7) -0.0019(8) 0.0164(8)
N1 0.0153(9) 0.0146(10) 0.0278(11) 0.0005(7) 0.0024(8) -0.0021(8)
O2 0.0179(9) 0.0122(9) 0.0231(9) 0.0000(6) 0.0032(7) 0.0011(6)
C1 0.0270(13) 0.0158(12) 0.0286(14) 0.0042(10) 0.0073(10) 0.0042(10)
C2 0.0243(12) 0.0169(12) 0.0312(14) 0.0065(9) 0.0077(11) 0.0053(11)
C3 0.0123(10) 0.0168(12) 0.0252(12) -0.0029(8) 0.0031(9) -0.0029(10)
C4 0.0122(11) 0.0183(12) 0.0249(13) 0.0038(9) 0.0009(9) 0.0005(10)
C5 0.0099(15) 0.0180(18) 0.0194(15) 0 0 0.0004(13)
C6 0.0129(11) 0.0258(14) 0.0225(13) -0.0053(10) -0.0033(9) 0.0024(10)
C7 0.0163(11) 0.0264(14) 0.0204(12) -0.0084(10) -0.0005(10) -0.0057(10)
C8 0.0115(11) 0.0239(14) 0.0310(13) -0.0002(9) -0.0036(10) 0.0024(11)
C9 0.0159(11) 0.0180(12) 0.0297(14) -0.0002(9) 0.0004(11) 0.0029(11)
N2 0.0130(10) 0.0167(12) 0.0243(12) -0.0009(8) -0.0014(8) -0.0010(8)
C10 0.0206(13) 0.0353(16) 0.0192(13) -0.0077(10) -0.0044(9) 0.0033(11)
C11 0.0251(13) 0.0399(16) 0.0192(13) -0.0125(11) -0.0035(10) 0.0043(11)
C12 0.0162(11) 0.0170(12) 0.0216(12) -0.0002(9) -0.0008(9) 0.0010(10)
C13 0.0138(11) 0.0179(12) 0.0238(12) 0.0010(9) -0.0032(9) -0.0022(10)
C14 0.0090(10) 0.0195(14) 0.0228(13) -0.0007(10) -0.0024(9) 0.0000(10)
C15 0.0211(12) 0.0158(13) 0.0121(10) -0.0024(10) 0.0009(9) -0.0012(9)
C16 0.0215(13) 0.0175(13) 0.0155(11) -0.0009(10) 0.0004(9) 0.0002(9)
C17 0.0209(13) 0.0157(13) 0.0354(14) 0.0016(10) 0.0013(10) 0.0011(10)
C18 0.0171(13) 0.0240(15) 0.0590(19) 0.0042(11) -0.0014(12) 0.0036(13)
C19 0.0176(12) 0.0177(13) 0.0236(12) -0.0019(10) -0.0007(9) 0.0005(10)
C20 0.0148(11) 0.0197(13) 0.0227(13) 0.0005(8) 0.0020(10) -0.0021(10)
C21 0.0141(11) 0.0159(12) 0.0259(13) 0.0024(9) 0.0008(10) 0.0016(10)
C22 0.0166(12) 0.0199(13) 0.0228(13) -0.0038(10) -0.0006(9) 0.0000(10)
C23 0.0189(12) 0.0417(17) 0.0259(14) -0.0148(11) -0.0027(11) 0.0050(12)
C24 0.0368(15) 0.064(2) 0.0216(14) -0.0292(15) -0.0054(12) 0.0029(14)
C25 0.0152(11) 0.0215(13) 0.0220(12) 0.0027(9) 0.0036(10) 0.0021(10)
loop_
_atom_type_symbol
_atom_type_description
_atom_type_scat_dispersion_real
_atom_type_scat_dispersion_imag
_atom_type_scat_source
C C 0.0033 0.0016 'International Tables Vol C Tables 4.2.6.8 and 6.1.1.4'
H H 0.0000 0.0000 'International Tables Vol C Tables 4.2.6.8 and 6.1.1.4'
N N 0.0061 0.0033 'International Tables Vol C Tables 4.2.6.8 and 6.1.1.4'
O O 0.0106 0.0060 'International Tables Vol C Tables 4.2.6.8 and 6.1.1.4'
Ni Ni 0.3393 1.1124 'International Tables Vol C Tables 4.2.6.8 and 6.1.1.4'
loop_
_geom_angle_atom_site_label_1
_geom_angle_atom_site_label_2
_geom_angle_atom_site_label_3
_geom_angle_site_symmetry_1
_geom_angle_site_symmetry_3
_geom_angle
O4 Ni1 N1 . . 98.59(7)
O4 Ni1 O1 . . 166.93(7)
N1 Ni1 O1 . . 92.30(7)
O4 Ni1 N2 . 8_656 87.04(7)
N1 Ni1 N2 . 8_656 97.38(8)
O1 Ni1 N2 . 8_656 98.78(7)
O4 Ni1 O3 . . 88.17(6)
N1 Ni1 O3 . . 87.72(7)
O1 Ni1 O3 . . 85.03(6)
N2 Ni1 O3 8_656 . 173.47(7)
O4 Ni1 O2 . . 106.94(7)
N1 Ni1 O2 . . 153.33(7)
O1 Ni1 O2 . . 61.44(6)
N2 Ni1 O2 8_656 . 91.64(7)
O3 Ni1 O2 . . 85.51(6)
C3 O6 C4 . . 118.18(18)
C7 O7 C6 . . 118.98(18)
C14 O1 Ni1 . . 91.52(15)
Ni1 O4 H26A . . 106.(2)
Ni1 O4 H26B . . 103.1(16)
H26A O4 H26B . . 106.(3)
C20 O3 Ni1 . . 130.94(15)
C1 N1 C13 . . 116.9(2)
C1 N1 Ni1 . . 119.60(16)
C13 N1 Ni1 . . 120.85(15)
C14 O2 Ni1 . . 85.80(14)
N1 C1 C2 . . 124.4(2)
N1 C1 H1 . . 117.8
C2 C1 H1 . . 117.8
C1 C2 C3 . . 118.0(2)
C1 C2 H2 . . 121.0
C3 C2 H2 . . 121.0
O6 C3 C12 . . 116.3(2)
O6 C3 C2 . . 125.1(2)
C12 C3 C2 . . 118.6(2)
O6 C4 C5 . . 105.45(17)
O6 C4 H4A . . 110.7
C5 C4 H4A . . 110.7
O6 C4 H4B . . 110.7
C5 C4 H4B . . 110.7
H4A C4 H4B . . 108.8
C4 C5 C4 . 2_556 110.3(3)
C4 C5 C6 . . 111.30(13)
C4 C5 C6 2_556 . 106.92(12)
C4 C5 C6 . 2_556 106.92(12)
C4 C5 C6 2_556 2_556 111.30(13)
C6 C5 C6 . 2_556 110.2(3)
O7 C6 C5 . . 106.54(17)
O7 C6 H6B . . 110.4
C5 C6 H6B . . 110.4
O7 C6 H6A . . 110.4
C5 C6 H6A . . 110.4
H6B C6 H6A . . 108.6
O7 C7 C8 . . 125.3(2)
O7 C7 C11 . . 115.8(2)
C8 C7 C11 . . 118.9(2)
C9 C8 C7 . . 118.2(2)
C9 C8 H8 . . 120.9
C7 C8 H8 . . 120.9
N2 C9 C8 . . 123.5(2)
N2 C9 H9 . . 118.2
C8 C9 H9 . . 118.2
C9 N2 C10 . . 116.9(2)
C9 N2 Ni1 . 8_556 120.48(16)
C10 N2 Ni1 . 8_556 121.66(16)
N2 C10 C11 . . 123.7(2)
N2 C10 H10 . . 118.1
C11 C10 H10 . . 118.1
C10 C11 C7 . . 118.6(2)
C10 C11 H11 . . 120.7
C7 C11 H11 . . 120.7
C13 C12 C3 . . 119.2(2)
C13 C12 H12 . . 120.4
C3 C12 H12 . . 120.4
N1 C13 C12 . . 122.8(2)
N1 C13 H13 . . 118.6
C12 C13 H13 . . 118.6
O1 C14 O2 . . 120.3(2)
O1 C14 C15 . . 119.6(2)
O2 C14 C15 . . 120.1(2)
C19 C15 C16 . . 119.7(2)
C19 C15 C14 . . 119.3(2)
C16 C15 C14 . . 121.0(2)
C17 C16 C16 . 2_545 119.60(14)
C17 C16 C15 . . 121.2(2)
C16 C16 C15 2_545 . 119.20(14)
C18 C17 C16 . . 119.5(2)
C18 C17 H17 . . 120.3
C16 C17 H17 . . 120.3
C17 C18 C18 . 2_545 120.91(15)
C17 C18 H18 . . 119.5
C18 C18 H18 2_545 . 119.5
C15 C19 C19 . 2_545 121.05(15)
C15 C19 H19 . . 119.5
C19 C19 H19 2_545 . 119.5
O5 C20 O3 . . 125.9(2)
O5 C20 C21 . . 117.0(2)
O3 C20 C21 . . 117.1(2)
C25 C21 C22 . . 119.9(2)
C25 C21 C20 . . 118.3(2)
C22 C21 C20 . . 121.8(2)
C23 C22 C21 . . 122.9(2)
C23 C22 C22 . 4 118.34(14)
C21 C22 C22 . 4 118.75(13)
C24 C23 C22 . . 121.4(2)
C24 C23 H23 . . 119.3
C22 C23 H23 . . 119.3
C23 C24 C24 . 4 120.16(15)
C23 C24 H24 . . 119.9
C24 C24 H24 4 . 119.9
C21 C25 C25 . 4 120.98(13)
C21 C25 H25 . . 119.5
C25 C25 H25 4 . 119.5
loop_
_geom_bond_atom_site_label_1
_geom_bond_atom_site_label_2
_geom_bond_site_symmetry_2
_geom_bond_distance
Ni1 O4 . 2.0427(17)
Ni1 N1 . 2.0527(19)
Ni1 O1 . 2.0802(16)
Ni1 N2 8_656 2.083(2)
Ni1 O3 . 2.0860(15)
Ni1 O2 . 2.2071(15)
O6 C3 . 1.345(3)
O6 C4 . 1.446(3)
O7 C7 . 1.361(3)
O7 C6 . 1.433(3)
O1 C14 . 1.263(3)
O4 H26A . 0.78(3)
O4 H26B . 0.93(3)
O3 C20 . 1.264(3)
O5 C20 . 1.251(3)
N1 C1 . 1.340(3)
N1 C13 . 1.357(3)
O2 C14 . 1.265(3)
C1 C2 . 1.380(3)
C1 H1 . 0.95
C2 C3 . 1.395(3)
C2 H2 . 0.95
C3 C12 . 1.391(3)
C4 C5 . 1.527(3)
C4 H4A . 0.99
C4 H4B . 0.99
C5 C4 2_556 1.527(3)
C5 C6 . 1.532(3)
C5 C6 2_556 1.532(3)
C6 H6B . 0.99
C6 H6A . 0.99
C7 C8 . 1.388(4)
C7 C11 . 1.390(3)
C8 C9 . 1.388(3)
C8 H8 . 0.95
C9 N2 . 1.342(3)
C9 H9 . 0.95
N2 C10 . 1.345(3)
N2 Ni1 8_556 2.083(2)
C10 C11 . 1.373(3)
C10 H10 . 0.95
C11 H11 . 0.95
C12 C13 . 1.379(3)
C12 H12 . 0.95
C13 H13 . 0.95
C14 C15 . 1.480(3)
C15 C19 . 1.382(3)
C15 C16 . 1.433(3)
C16 C17 . 1.420(3)
C16 C16 2_545 1.425(5)
C17 C18 . 1.381(4)
C17 H17 . 0.95
C18 C18 2_545 1.409(5)
C18 H18 . 0.95
C19 C19 2_545 1.397(5)
C19 H19 . 0.95
C20 C21 . 1.516(3)
C21 C25 . 1.372(3)
C21 C22 . 1.435(3)
C22 C23 . 1.419(3)
C22 C22 4 1.436(5)
C23 C24 . 1.366(3)
C23 H23 . 0.95
C24 C24 4 1.410(5)
C24 H24 . 0.95
C25 C25 4 1.408(4)
C25 H25 . 0.95
loop_
_geom_torsion_atom_site_label_1
_geom_torsion_atom_site_label_2
_geom_torsion_atom_site_label_3
_geom_torsion_atom_site_label_4
_geom_torsion_site_symmetry_1
_geom_torsion_site_symmetry_4
_geom_torsion
C13 N1 C1 C2 . . -1.5(4)
Ni1 N1 C1 C2 . . 160.1(2)
N1 C1 C2 C3 . . -1.4(4)
C4 O6 C3 C12 . . -176.70(19)
C4 O6 C3 C2 . . 2.0(3)
C1 C2 C3 O6 . . -174.8(2)
C1 C2 C3 C12 . . 3.9(3)
C3 O6 C4 C5 . . -175.65(18)
O6 C4 C5 C4 . 2_556 50.02(12)
O6 C4 C5 C6 . . -68.5(2)
O6 C4 C5 C6 . 2_556 171.17(17)
C7 O7 C6 C5 . . -152.8(2)
C4 C5 C6 O7 . . -70.7(2)
C4 C5 C6 O7 2_556 . 168.74(19)
C6 C5 C6 O7 2_556 . 47.67(13)
C6 O7 C7 C8 . . -18.7(4)
C6 O7 C7 C11 . . 162.6(2)
O7 C7 C8 C9 . . -178.5(2)
C11 C7 C8 C9 . . 0.1(4)
C7 C8 C9 N2 . . -0.2(4)
C8 C9 N2 C10 . . -0.3(4)
C8 C9 N2 Ni1 . 8_556 -169.60(19)
C9 N2 C10 C11 . . 1.1(4)
Ni1 N2 C10 C11 8_556 . 170.2(2)
N2 C10 C11 C7 . . -1.2(4)
O7 C7 C11 C10 . . 179.3(2)
C8 C7 C11 C10 . . 0.6(4)
O6 C3 C12 C13 . . 175.2(2)
C2 C3 C12 C13 . . -3.6(3)
C1 N1 C13 C12 . . 1.8(3)
Ni1 N1 C13 C12 . . -159.49(18)
C3 C12 C13 N1 . . 0.7(3)
Ni1 O1 C14 O2 . . 10.0(2)
Ni1 O1 C14 C15 . . -169.84(19)
Ni1 O2 C14 O1 . . -9.4(2)
Ni1 O2 C14 C15 . . 170.4(2)
O1 C14 C15 C19 . . -110.1(3)
O2 C14 C15 C19 . . 70.0(3)
O1 C14 C15 C16 . . 69.2(3)
O2 C14 C15 C16 . . -110.6(3)
C19 C15 C16 C17 . . -178.0(2)
C14 C15 C16 C17 . . 2.7(3)
C19 C15 C16 C16 . 2_545 0.8(4)
C14 C15 C16 C16 . 2_545 -178.5(3)
C16 C16 C17 C18 2_545 . 2.0(4)
C15 C16 C17 C18 . . -179.2(2)
C16 C17 C18 C18 . 2_545 -0.6(5)
C16 C15 C19 C19 . 2_545 -1.6(4)
C14 C15 C19 C19 . 2_545 177.7(3)
Ni1 O3 C20 O5 . . 21.0(4)
Ni1 O3 C20 C21 . . -160.21(15)
O5 C20 C21 C25 . . 45.9(3)
O3 C20 C21 C25 . . -133.0(2)
O5 C20 C21 C22 . . -133.2(2)
O3 C20 C21 C22 . . 47.9(3)
C25 C21 C22 C23 . . 177.6(2)
C20 C21 C22 C23 . . -3.3(4)
C25 C21 C22 C22 . 4 -5.1(4)
C20 C21 C22 C22 . 4 173.9(3)
C21 C22 C23 C24 . . 175.5(3)
C22 C22 C23 C24 4 . -1.8(5)
C22 C23 C24 C24 . 4 -2.0(6)
C22 C21 C25 C25 . 4 -2.5(4)
C20 C21 C25 C25 . 4 178.4(3)
