#------------------------------------------------------------------------------
#$Date: 2019-11-10 00:56:00 +0200 (Sun, 10 Nov 2019) $
#$Revision: 225476 $
#$URL: file:///home/coder/svn-repositories/cod/cif/4/51/53/4515310.cif $
#------------------------------------------------------------------------------
#
# This file is available in the Crystallography Open Database (COD),
# http://www.crystallography.net/
#
# All data on this site have been placed in the public domain by the
# contributors.
#
data_4515310
loop_
_publ_author_name
'Zhang, Jindan'
'Ouyang, Jun'
'Ye, Yingxiang'
'Li, Ziyin'
'Lin, Quanjie'
'Chen, Ting'
'Zhang, Zhangjing'
'Xiang, Shengchang'
_publ_section_title
;
 Mixed-Valence Cobalt(II/III) Metal-Organic Framework for Ammonia Sensing
 with Naked-Eye Color Switching.
;
_journal_issue                   32
_journal_name_full               'ACS applied materials &amp; interfaces'
_journal_page_first              27465
_journal_page_last               27471
_journal_paper_doi               10.1021/acsami.8b07770
_journal_volume                  10
_journal_year                    2018
_chemical_formula_moiety         'C21 H12 Co1 N13'
_chemical_formula_sum            'C21 H12 Co N13'
_chemical_formula_weight         505.37
_space_group_crystal_system      hexagonal
_space_group_IT_number           194
_space_group_name_Hall           '-P 6c 2c'
_space_group_name_H-M_alt        'P 63/m m c'
_atom_sites_solution_hydrogens   geom
_audit_creation_method           SHELXL-2014/7
_cell_angle_alpha                90
_cell_angle_beta                 90
_cell_angle_gamma                120
_cell_formula_units_Z            2
_cell_length_a                   16.2883(10)
_cell_length_b                   16.2883(10)
_cell_length_c                   7.4885(7)
_cell_measurement_reflns_used    973
_cell_measurement_temperature    150(2)
_cell_measurement_theta_max      73.3300
_cell_measurement_theta_min      5.4530
_cell_volume                     1720.6(2)
_computing_structure_refinement  'SHELXL-2014/7 (Sheldrick, 2014)'
_diffrn_ambient_temperature      150(2)
_diffrn_measured_fraction_theta_full 0.989
_diffrn_measured_fraction_theta_max 0.977
_diffrn_measurement_device_type  'SuperNova, Dual, Cu at zero, Atlas'
_diffrn_radiation_type           CuK\a
_diffrn_radiation_wavelength     1.54184
_diffrn_reflns_av_R_equivalents  0.0613
_diffrn_reflns_av_unetI/netI     0.0366
_diffrn_reflns_Laue_measured_fraction_full 0.989
_diffrn_reflns_Laue_measured_fraction_max 0.977
_diffrn_reflns_limit_h_max       13
_diffrn_reflns_limit_h_min       -20
_diffrn_reflns_limit_k_max       18
_diffrn_reflns_limit_k_min       -19
_diffrn_reflns_limit_l_max       9
_diffrn_reflns_limit_l_min       -6
_diffrn_reflns_number            4054
_diffrn_reflns_point_group_measured_fraction_full 0.989
_diffrn_reflns_point_group_measured_fraction_max 0.977
_diffrn_reflns_theta_full        67.684
_diffrn_reflns_theta_max         74.385
_diffrn_reflns_theta_min         5.432
_exptl_absorpt_coefficient_mu    4.132
_exptl_crystal_density_diffrn    0.975
_exptl_crystal_description       flake
_exptl_crystal_F_000             512
_refine_diff_density_max         1.428
_refine_diff_density_min         -0.335
_refine_diff_density_rms         0.065
_refine_ls_extinction_method     none
_refine_ls_goodness_of_fit_ref   1.091
_refine_ls_hydrogen_treatment    constr
_refine_ls_matrix_type           full
_refine_ls_number_parameters     55
_refine_ls_number_reflns         691
_refine_ls_number_restraints     24
_refine_ls_restrained_S_all      1.129
_refine_ls_R_factor_all          0.0730
_refine_ls_R_factor_gt           0.0616
_refine_ls_shift/su_max          0.000
_refine_ls_shift/su_mean         0.000
_refine_ls_structure_factor_coef Fsqd
_refine_ls_weighting_details
'w=1/[\s^2^(Fo^2^)+(0.1203P)^2^+0.1912P] where P=(Fo^2^+2Fc^2^)/3'
_refine_ls_weighting_scheme      calc
_refine_ls_wR_factor_gt          0.1691
_refine_ls_wR_factor_ref         0.1805
_reflns_Friedel_coverage         0.000
_reflns_number_gt                554
_reflns_number_total             691
_reflns_threshold_expression     'I > 2\s(I)'
_cod_data_source_file            am8b07770_si_002.cif
_cod_data_source_block           FJU-56a
_cod_original_cell_volume        1720.6(3)
_cod_database_code               4515310
_shelx_space_group_comment
;
The symmetry employed for this shelxl refinement is uniquely defined
by the following loop, which should always be used as a source of
symmetry information in preference to the above space-group names.
They are only intended as comments.
;
_olex2_refinement_description
;
1. Fixed Uiso
 At 1.2 times of:
  All C(H) groups
2. Uiso/Uaniso restraints and constraints
C4 \\sim C4A: within 1.7A with sigma of 0.04 and sigma for terminal atoms of
0.08
Co1: within 1.7A with sigma of 0.06 and sigma for terminal atoms of 0.12
Uanis(C4) \\sim Ueq, Uanis(C3) \\sim Ueq: with sigma of 0.01 and sigma for
terminal atoms of 0.02
Uanis(C4) \\sim Ueq: with sigma of 0.004 and sigma for terminal atoms of 0.008
Uanis(Co1) \\sim Ueq: with sigma of 1 and sigma for terminal atoms of 2
3. Others
 Sof(C3A)=Sof(H3A)=0.5*(1-FVAR(2))
 Sof(C3)=Sof(H3)=0.5*FVAR(2)
 Sof(C4A)=Sof(H4A)=0.5*(1-FVAR(3))
 Sof(C4)=Sof(H4)=0.5*FVAR(3)
4.a Aromatic/amide H refined with riding coordinates:
 C4(H4), C3(H3), C3A(H3A), C4A(H4A)
;
_shelx_res_file
;
    FJU-56a.res created by SHELXL-2014/7

TITL FJU-56a in P63/mmc #194
REM reset to P63/mmc #194
CELL 1.54184 16.288298 16.288298 7.488531 90 90 120
ZERR 2 0.001035 0.001035 0.000652 0 0 0
LATT 1
SYMM -Y+X,+X,0.5+Z
SYMM -Y,+X-Y,+Z
SYMM -X,-Y,0.5+Z
SYMM +Y-X,-X,+Z
SYMM +Y,-X+Y,0.5+Z
SYMM -Y+X,-Y,-Z
SYMM -X,-X+Y,-Z
SYMM +Y,+X,-Z
SYMM -Y,-X,0.5-Z
SYMM +Y-X,+Y,0.5-Z
SYMM +X,+X-Y,0.5-Z
SFAC C H Co N
UNIT 42 24 2 26
SIMU 0.04 0.08 1.7 C4 C4A
SIMU 0.06 0.12 1.7 Co1
ISOR 0.01 0.02 C4 C3
ISOR 0.004 0.008 C4
ISOR 1 2 Co1

L.S. 5 0 3
PLAN  5
BOND
ABIN
fmap 2
acta
OMIT 0 0 2
OMIT 0 7 1
OMIT -1 3 3
OMIT 0 2 3
OMIT -2 7 1
OMIT -1 5 0
REM <olex2.extras>
REM <HklSrc "%.\\FJU-56a.hkl">
REM </olex2.extras>

WGHT    0.120300    0.191200
FVAR       7.71972   0.60266   0.64861
PART 3
CO1   3    0.000000    0.000000    0.500000    10.08333    0.02493    0.02493 =
         0.04368    0.00000    0.00000    0.01247
PART 0
N1    4    0.061482    0.122965    0.336883    10.50000    0.03101    0.02886 =
         0.04932   -0.00013   -0.00006    0.01443
C1    1    0.131846    0.263692    0.250000    10.25000    0.03635    0.03375 =
         0.05044    0.00000    0.00000    0.01687
N3    4    0.333333    0.666667    0.250000    10.08333    0.02329    0.02329 =
         0.20012    0.00000    0.00000    0.01164
N2    4    0.105464    0.210927    0.396996    10.50000    0.03959    0.03006 =
         0.05411   -0.00183   -0.00091    0.01503
C2    1    0.183828    0.367656    0.250000    10.25000    0.03596    0.02996 =
         0.06741    0.00000    0.00000    0.01498
C5    1    0.283118    0.566236    0.250000    10.25000    0.03038    0.03193 =
         0.10921    0.00000    0.00000    0.01596
PART 1
C4    1    0.258507    0.517013    0.402533    30.50000    0.11315    0.08947 =
         0.10011   -0.00415   -0.00208    0.04474
AFIX  43
H4    2    0.274885    0.549770    0.510309    30.50000   -1.20000
AFIX   0
C3    1    0.208561    0.417123    0.405418    20.50000    0.13183    0.04685 =
         0.07254   -0.00099   -0.00050    0.02343
AFIX  43
H3    2    0.192535    0.385071    0.513944    20.50000   -1.20000
AFIX   0
PART 0
PART 2
C3A   1    0.280570    0.419091    0.250000   -20.50000    0.05562    0.03586 =
         0.15602    0.00000    0.00000    0.02278
AFIX  43
H3A   2    0.314967    0.387580    0.250000   -20.50000   -1.20000
AFIX   0
C4A   1    0.328069    0.516452    0.250000   -30.50000    0.04864    0.01946 =
         0.16100    0.00000    0.00000    0.01235
AFIX  43
H4A   2    0.393996    0.548975    0.250000   -30.50000   -1.20000
AFIX   0
HKLF 4

REM  FJU-56a in P63/mmc #194
REM R1 =  0.0616 for     554 Fo > 4sig(Fo)  and  0.0730 for all     691 data
REM     55 parameters refined using     24 restraints

END

WGHT      0.1199      0.2013

REM Highest difference peak  1.428,  deepest hole -0.335,  1-sigma level  0.065
Q1    1   0.0000  0.0000  0.3744  10.16667  0.05    1.43
Q2    1   0.2207  0.5173  0.3854  11.00000  0.05    0.44
Q3    1   0.2479  0.4174  0.3798  11.00000  0.05    0.33
Q4    1   0.1095  0.2191  0.5041  10.50000  0.05    0.32
Q5    1   0.0577  0.1154  0.4567  10.50000  0.05    0.31
;
_shelx_res_checksum              68431
_shelx_hkl_file
;
   0   0  -5-372.017 2173.63   1
   0   0  -4 20355.8 2745.77   1
   0   0   1 132.295 264.923   4
   0   0   1 128.873 189.691   3
   0   0   2 402543. 3604.81   3
   0   0   2 416412. 4641.07   4
   0   0   3 48.1441 450.112   4
   0   0   4 18253.3 1610.53   4
   0   0   6 6870.37 1239.81   5
   0   0   7 648.685 1067.33   5
   0   0   8 24078.5 1623.15   5
  -1   1  -5 3759.79 3119.97   1
   0   1  -5 8342.38 3278.05   1
   1  -1  -5 4668.12 2103.35   1
   1   0  -5 6860.68 2823.47   1
   0  -1  -4 3160.19 1128.11   1
  -1   0  -4 3769.03 1388.06   1
   1   0  -4 5115.80 1659.56   1
   1  -1  -4 4248.63 1417.20   1
   1   0  -3 2000.63 1002.34   1
   0  -1  -3 1953.88 841.828   1
   1  -1  -3 1963.70 957.872   1
   1  -1  -2 51530.5 2410.50   1
   0  -1  -2 48990.4 2139.19   1
   0  -1  -1 567214. 4002.52   1
   1  -1  -1 574162. 5248.98   1
   0   1   1 567179. 5150.69   3
  -1   1   1 562303. 5364.68   4
  -1   0   1 561885. 5656.22   4
  -1   0   2 50062.4 2086.71   4
  -1   1   2 54071.8 1711.14   3
  -1   1   2 52075.5 2075.93   4
   0   1   2 53741.9 1849.06   3
   1  -1   2 53531.5 1585.77   4
   1   0   2 49882.1 1454.87   4
  -1   1   3 1824.86 492.731   3
   1  -1   3 1530.57 479.151   4
   0   1   3 2099.27 582.706   3
  -1   0   3 2581.35 716.075   4
   0  -1   3 2345.37 720.935   4
  -1   1   3 1572.85 621.913   4
   0  -1   4 6692.25 1100.07   4
  -1   0   4 3913.47 969.216   4
  -1   0   6 24622.8 1844.65   5
   0   1   6 25642.8 1944.53   5
  -1   1   6 25694.7 1900.79   5
   1   0   6 29198.3 2084.02   5
   0  -1   6 27379.5 1892.43   5
   1  -1   6 28120.4 2075.56   5
   0  -1   7 3961.50 1138.66   5
   0   1   7 2492.79 1185.60   5
   1   0   7 3647.75 1335.36   5
   1  -1   7 2726.58 1224.21   5
  -1   0   7 3127.96 1149.00   5
  -1   1   7 3292.44 1113.12   5
  -1   0   8 4836.89 971.788   5
   0  -1   8 4564.51 1061.16   5
  -1   1   8 4640.73 940.140   5
   0   1   8 3879.34 937.988   5
   1   0   8 6220.81 1120.86   5
   1  -1   8 5912.34 1131.66   5
   1   1  -6 39139.5 5909.02   1
   2  -1  -5-1291.87 1747.95   1
   1   1  -5 1736.82 2446.40   1
  -1   2  -5-348.430 2689.22   1
  -1  -1  -4 6501.10 1410.80   1
   2  -1  -4 8786.63 1785.19   1
   1   1  -4 12075.9 2597.61   1
   1  -2  -4 10272.6 1814.73   1
   1  -2  -3 9021.11 1346.94   1
  -1  -1  -3 7260.66 1143.75   1
   2  -1  -3 7940.88 1462.54   1
  -1  -1  -2 47518.2 1808.82   1
   2  -1  -2 48677.0 2483.64   1
   1  -2  -2 47469.0 2200.16   1
   2  -1  -1 1849.55 616.739   1
   1   1   0 999999. 6707.80   3
   1  -2   0 995934. 6246.23   2
  -2   1   0 986013. 5894.51   4
   1   1   1 1873.27 606.210   3
  -2   1   1 1419.94 584.604   4
   1   1   2 46822.3 2077.98   3
  -1   2   2 48939.8 2115.00   3
  -1  -1   2 52256.6 2323.07   4
  -2   1   2 50223.8 2246.44   4
  -1  -1   3 9497.35 1331.21   4
  -2   1   3 7685.83 1096.49   4
  -1   2   3 9902.51 1080.32   3
  -2   1   3 7897.26 721.898   3
   1  -2   3 9333.35 1158.00   4
  -1  -1   4 9646.21 1481.00   4
  -2   1   4 8709.71 1348.20   4
   2  -1   6 33908.6 2226.24   5
  -2   1   6 35212.4 2046.86   5
  -1  -1   6 27458.9 1841.81   5
   1  -2   6 32163.5 2069.47   5
  -1   2   6 32252.2 2098.49   5
   1   1   6 32911.3 2153.15   5
  -1  -1   7 939.332 928.147   5
  -1   2   7-794.420 1000.91   5
   1   1   7 103.291 1119.87   5
   1  -2   7 772.331 1116.32   5
   2  -1   7-770.742 1203.62   5
  -2   1   7 56.3985 941.649   5
  -1   2   8 237.547 688.971   5
   1  -2   8 1460.87 878.105   5
  -1  -1   8 2324.74 884.544   5
   2  -1   8 2503.12 987.287   5
   1   1   8 70.9000 910.744   5
  -2   1   8 1199.97 735.487   5
   1  -2   9 202.948 505.362   5
   0   2  -6 66999.5 7136.19   1
   2   0  -6 82630.1 9025.69   1
   0   2  -5 2036.10 2376.76   1
   2   0  -5 1794.08 2393.65   1
  -2   2  -5 569.936 2822.91   1
  -2   0  -4 5032.88 1798.15   1
   2   0  -4 5705.34 1735.13   1
   0  -2  -4 3489.72 1196.15   1
   2  -2  -4 4907.11 1422.39   1
   0  -2  -3 26124.2 1835.64   1
   2  -2  -3 24683.6 2189.19   1
   2   0  -3 23898.9 2370.21   1
   2  -2  -2 198384. 4733.42   1
   2   0  -2 193886. 5241.54   1
   0   2  -1 108685. 2022.61   3
   2   0  -1 118075. 3197.24   1
  -2   0   0 10095.8 823.239   4
   0   2   0 25128.3 1291.67   3
  -2   0   1 105035. 3011.31   4
   0   2   1 105222. 2977.83   3
   2  -2   2 191640. 2874.23   4
  -2   2   2 183811. 4317.11   4
  -2   0   2 189043. 4499.64   4
   0   2   2 192162. 4048.85   3
   0   2   3 26490.0 1741.44   3
  -2   2   3 23456.6 1739.92   4
  -2   2   3 27490.2 1693.86   3
   2  -2   3 25606.9 1183.95   4
  -2   0   3 27565.7 2016.11   4
   0  -2   4 4994.42 1163.33   4
  -2   0   4 4739.35 1228.78   4
  -2   0   6 65528.9 2652.11   5
  -2   2   6 67160.5 2847.95   5
   2  -2   6 68851.6 3070.92   5
   0  -2   6 61703.5 2676.22   5
   2   0   6 70921.5 3143.37   5
   0   2   6 69189.5 2953.50   5
   2   0   7 4089.50 1431.80   5
   2  -2   7 4409.00 1360.43   5
  -2   0   7 3597.68 1024.97   5
   0  -2   7 3072.89 1049.20   5
  -2   2   7 3104.98 1068.72   5
   0   2   7 4729.10 1267.82   5
   2   0   8-550.047 911.453   5
   2  -2   8 112.801 926.386   5
   0  -2   8-1062.93 854.526   5
   0   2   8-1125.94 877.599   5
  -2   0   8-993.285 799.260   5
  -2   2   8-34.3602 700.913   5
   0  -2   9-588.572 506.168   5
   1   2  -6 13328.1 3675.29   1
   2   1  -6 18132.1 4456.18   1
   1   2  -5 1817.33 2318.18   1
   2   1  -5-1155.20 1999.31   1
   3  -1  -5-1280.47 2026.82   1
   2   1  -4 37365.1 3859.07   1
   3  -1  -4 32717.8 3168.33   1
   3  -2  -4 33409.4 3161.64   1
  -2  -1  -3 4355.89 722.210   1
   3  -1  -3 3699.11 1198.30   1
   3  -2  -3 4895.36 1321.84   1
  -1   3  -2 53613.3 1347.71   3
  -2  -1  -2 51290.8 1427.60   1
   3  -1  -2 55023.3 2829.62   1
  -3   1  -1 144329. 2335.43   4
   3  -1  -1 144423. 3560.10   1
  -3   2   0 355596. 4705.79   4
   2  -3   0 341916. 4766.59   2
  -3   1   0 339600. 4606.22   4
   2   1   0 352721. 4000.08   1
   1   2   0 345491. 5143.84   3
  -3   1   1 157304. 3958.91   4
   2   1   1 138966. 3706.17   3
  -3   2   1 154248. 3695.59   4
   1   2   1 141162. 3812.18   3
   3  -1   1 155361. 2886.05   2
  -1   3   1 144118. 3804.17   3
  -3   1   2 59716.8 2678.10   4
   2   1   2 62366.3 2628.52   3
  -2  -1   2 64467.7 2833.60   4
   1   2   2 61756.3 2631.06   3
  -1  -2   2 61836.1 2691.09   4
  -1   3   2 60793.9 2610.08   3
  -3   2   2 58565.5 2639.48   4
  -2   3   2 60313.3 2620.20   3
  -3   1   3 5134.06 714.228   3
   1   2   3 4995.25 1024.39   3
  -3   2   3 5285.40 934.146   3
  -2   3   3 6707.76 1166.95   3
   2  -3   3 5706.55 926.895   4
  -1  -2   3 6047.70 1304.74   4
  -3   2   3 2896.72 1005.87   4
  -2  -1   3 5687.25 1241.65   4
  -1   3   3 6194.10 1089.93   3
  -3   1   3 4791.31 1107.15   4
   1  -3   3 6005.79 1033.26   4
  -3   2   4 26241.7 2256.51   4
  -1  -2   4 32408.4 2558.16   4
  -3   1   4 28444.5 2383.56   4
  -2  -1   4 31138.4 2596.37   4
   1  -3   4 35567.6 2487.10   4
   2   1   5 847.333 862.429   5
   3  -2   5-96.1911 844.186   5
   1  -3   5 324.474 812.355   5
   2  -3   5-179.200 874.594   5
   3  -1   5 312.572 763.089   5
  -3   1   5 742.295 1076.53   4
   1   2   5-83.8841 798.011   5
  -2  -1   5 301.335 1099.39   4
  -1  -2   6 15273.7 1444.33   5
  -3   2   6 16050.1 1536.41   5
   1   2   6 17637.6 1738.28   5
  -3   1   6 18237.5 1565.22   5
   2   1   6 19030.4 1851.73   5
   2  -3   6 13885.9 1623.20   5
  -2  -1   6 12984.2 1324.84   5
   3  -1   6 17200.6 1794.03   5
  -1   3   6 20306.0 1755.74   5
   3  -2   6 16666.3 1833.25   5
  -2   3   6 19409.7 1713.03   5
   1  -3   6 15501.5 1583.94   5
   1   2   7 179.790 1062.84   5
  -2  -1   7 2683.12 1000.11   5
  -2   3   7 459.686 871.408   5
  -3   2   7 2150.58 1026.10   5
  -3   1   7 1572.77 913.261   5
   3  -1   7 1113.90 1310.12   5
  -1   3   7-533.989 1057.98   5
   2   1   7 868.594 1227.27   5
   3  -2   7 3530.60 1505.95   5
   1  -3   7 1118.91 1047.67   5
  -1  -2   7 609.320 921.007   5
   2  -3   7 3233.88 1235.27   5
  -1  -2   8 2940.60 960.035   5
   1  -3   8 4438.77 1042.67   5
  -2  -1   8 3958.61 935.762   5
   3  -1   8 2536.47 1034.85   5
   2   1   8 793.522 861.208   5
   3  -2   8 4484.87 1177.27   5
  -3   1   8 988.394 667.798   5
   2  -3   8 3229.95 1030.48   5
   1  -3   9-774.726 522.244   5
   2  -3   9-823.339 547.834   5
   3   0  -6 50042.0 7084.16   1
   0   3  -6 33662.8 5188.47   1
   0   3  -5 5949.80 2985.68   1
   3   0  -5 5197.51 2798.94   1
   3   0  -4 59833.0 4458.71   1
   3   0  -3 11304.2 1916.64   1
   3   0  -2 50551.9 2922.63   1
   0   3  -2 51787.0 1403.00   3
   3   0  -1 25856.3 1717.50   1
   0   3  -1 25275.3 1391.94   3
  -3   0   0 51569.2 2073.48   4
   3  -3   0 50365.2 2199.13   2
   0   3   0 47151.6 2252.40   3
  -3   0   1 19901.8 1543.14   4
   0   3   1 23492.6 1738.48   3
  -3   3   2 48181.0 2563.52   4
  -3   0   2 47967.3 2647.31   4
   0   3   2 48510.3 2502.00   3
  -3   0   3 13179.7 1658.16   4
   0   3   3 13189.9 1541.95   3
   3  -3   3 11107.5 794.377   4
  -3   3   3 14910.7 1510.66   3
   0  -3   3 12878.8 1538.24   4
   0   3   4 68948.0 3482.00   3
   0  -3   4 67684.9 3544.54   4
  -3   0   4 65047.6 3671.12   4
   0   3   5 7094.63 1162.96   5
   3  -3   5 5810.54 1171.55   5
   0  -3   5 6650.63 1075.61   5
  -3   0   5 6491.46 1711.32   4
   3   0   5 6859.06 1105.12   5
   0   3   6 35642.1 2293.85   5
   3  -3   6 36619.5 2504.79   5
  -3   0   6 40644.5 2061.35   5
   0  -3   6 33168.5 2027.16   5
  -3   3   6 38199.2 2115.31   5
   3   0   6 37394.9 2402.18   5
   3   0   7 985.806 1244.82   5
  -3   0   7 79.3136 839.174   5
   3  -3   7 1282.20 1299.01   5
   0   3   7-683.896 1060.42   5
   0  -3   7 895.680 920.286   5
  -3   3   7-345.700 948.390   5
   3   0   8 22.9782 970.551   5
  -3   0   8 1133.54 718.961   5
   3  -3   8 1272.60 939.630   5
   0  -3   8 1941.58 927.562   5
   3  -3   9-799.972 496.012   5
   0  -3   9-653.402 486.298   5
   2   2  -6-271.616 2530.68   1
   2   2  -5 1437.13 2344.80   1
   2   2  -4 138009. 7131.75   1
   4  -2  -4 129718. 6239.03   1
   4  -2  -3 1712.74 1188.79   1
   4  -2  -2 2450.14 1051.26   1
   2  -4  -1 643.812 635.005   2
   2   2   0 454312. 6678.28   3
  -4   2   0 480371. 5706.03   4
   4  -2   1 502.836 513.229   2
   2   2   1 91.9673 785.494   3
  -4   2   1 902.834 897.804   4
  -4   2   2 3034.39 999.724   4
   2   2   2 2623.88 915.024   3
  -2  -2   2 3917.30 1144.54   4
  -2   4   2 3513.07 1078.23   3
  -2   4   3 2524.00 1005.52   3
  -4   2   3 785.332 822.992   4
   2  -4   3 2183.93 736.489   4
  -2  -2   3 2028.90 1047.53   4
  -2   4   4 134706. 4921.63   3
  -2  -2   4 128793. 5246.58   4
  -4   2   4 117620. 5024.57   4
  -2  -2   5 110.362 1088.37   4
   2  -4   5-228.642 876.649   5
  -2  -2   5 740.351 699.627   5
   2   2   5-405.572 820.424   5
  -2   4   5-609.158 874.599   5
   4  -2   5-283.988 885.491   5
  -2   4   6 1768.66 956.811   5
  -2  -2   6 219.887 820.338   5
   2   2   6 1222.63 1063.87   5
   2  -4   6 340.139 977.658   5
   4  -2   6 576.258 1204.72   5
  -2   4   7 372.434 868.202   5
   2   2   7-1187.49 1207.36   5
   4  -2   7-1264.12 1338.62   5
   2  -4   7-23.7656 934.057   5
  -2  -2   7 644.042 932.229   5
   4  -2   8 9773.99 1358.59   5
  -2  -2   8 11856.7 1261.20   5
   2  -4   8 10827.2 1360.08   5
   2  -4   9-1053.67 536.242   5
   1   3  -6 9100.59 3291.63   1
  -1   4  -6 12862.6 2964.79   1
   3   1  -6 15158.8 4422.50   1
   3   1  -5 5520.07 2484.88   1
   4  -1  -5 2279.68 2152.47   1
   1   3  -5 2593.79 2319.77   1
   3   1  -4 77607.6 5375.25   1
   4  -1  -4 70477.5 4844.82   1
   3   1  -3 60419.1 4043.60   1
   4  -1  -3 52778.5 3483.69   1
   3   1  -2 62286.9 3501.98   1
  -1   4  -2 58827.8 1859.33   3
   4  -1  -2 61227.4 3208.93   1
   1   3  -1 215870. 4066.31   3
  -1   4  -1 222103. 4506.01   3
   1  -4  -1 222262. 3993.65   2
  -4   1  -1 223376. 2890.43   4
   3   1  -1 223497. 5151.88   1
   4  -1  -1 225603. 4976.52   1
   3  -4   0 19115.2 1636.68   2
   3   1   0 16852.4 1158.61   1
  -4   1   0 23942.2 1624.44   4
  -1   4   0 23567.2 1810.86   3
   1   3   0 17772.8 1650.83   3
   4  -1   1 231084. 3932.29   2
  -3  -1   1 230838. 5041.21   4
   1   3   1 227732. 5382.89   3
  -1   4   1 221923. 5269.73   3
   3   1   1 214470. 2266.07   2
  -4   3   1 229328. 4887.85   4
  -4   1   1 225957. 5297.96   4
  -4   3   2 58614.5 2997.03   4
  -3  -1   2 62770.1 3119.18   4
  -4   1   2 61352.7 2975.80   4
  -1   4   2 60424.2 3022.99   3
   1   3   2 61220.4 3015.31   3
  -1  -3   3 63017.3 3324.06   4
  -1   4   3 64192.9 3381.00   3
  -3  -1   3 57135.7 3508.02   4
   1   3   3 57535.9 3111.49   3
   3  -4   3 67333.9 2529.03   4
  -4   3   3 56947.3 3100.19   4
   1  -4   3 62510.1 2960.06   4
  -4   1   3 59776.2 3276.35   4
  -3   4   3 62148.4 3261.01   3
  -1   4   4 78279.0 3930.57   3
  -3  -1   4 74750.2 4081.24   4
   1  -4   4 74785.5 3637.04   4
  -4   1   4 67217.8 3863.05   4
  -1  -3   4 70231.4 3807.85   4
   3   1   5 2951.28 968.399   5
  -1   4   5 3759.40 1066.72   5
  -1  -3   5 2653.32 832.508   5
   1  -4   5 3332.21 1036.28   5
   4  -1   5 2597.68 916.957   5
   3  -4   5 3878.37 1143.82   5
  -4   1   5 1275.95 1290.05   4
  -4   1   5 1953.05 777.858   6
  -3  -1   5 2239.16 1542.79   4
   4  -3   5 1737.16 928.449   5
   1   3   5 2666.30 1025.50   5
   3  -4   6 12552.9 1642.75   5
  -3   4   6 12995.0 1415.97   5
   1   3   6 11680.0 1500.04   5
   3   1   6 13572.2 1667.60   5
   1  -4   6 12669.7 1465.99   5
   4  -1   6 14086.4 1786.55   5
  -4   1   6 13002.0 1330.03   6
  -3  -1   6 10821.6 1246.50   5
   4  -3   6 13037.6 1755.32   5
  -1  -3   6 11137.5 1319.34   5
  -1   4   6 11239.8 1427.18   5
   3   1   7 961.992 1109.38   5
   4  -1   7 2840.11 1393.58   5
   1  -4   7 949.530 964.286   5
  -3  -1   7 2103.17 903.812   5
   1   3   7-37.3643 1054.07   5
  -1  -3   7 1077.33 901.498   5
  -1   4   7 625.200 865.455   5
  -3   4   7 1415.58 861.784   5
   4  -3   7 2556.52 1431.54   5
   3  -4   7 1349.17 1104.58   5
   1  -4   8 5604.30 1135.95   5
  -1  -3   8 3610.15 967.850   5
   4  -3   8 3863.23 1094.49   5
  -3  -1   8 4568.27 894.938   5
   3  -4   8 4329.42 1049.62   5
   4  -1   8 1229.40 983.109   5
   1  -4   9-239.580 475.234   5
   3  -4   9-540.855 475.879   5
   0   4  -6 4460.74 2186.34   1
   4   0  -6 13225.4 4545.94   1
   4   0  -5 11822.3 3030.22   1
   4   0  -4 23856.1 3034.68   1
   4   0  -3 24849.7 2672.74   1
   0  -4  -2 206542. 3159.98   2
   4   0  -2 198289. 5984.21   1
   0   4  -1 141039. 3714.09   3
  -4   0  -1 146739. 3241.80   4
   4   0  -1 138021. 4076.32   1
   4  -4   0 8249.01 1260.18   2
   0   4   0 9339.89 1317.40   3
  -4   0   0 12009.6 1366.94   4
   4   0   1 150226. 2811.71   2
   0   4   1 146019. 4518.17   3
  -4   0   1 140863. 4314.29   4
  -4   0   2 212901. 5941.41   4
   0   4   2 221713. 5675.60   3
   0   4   3 25988.1 2339.16   3
   0  -4   3 25026.3 2177.51   4
  -4   0   3 26939.0 2456.01   4
   0   4   4 25628.3 2614.38   3
  -4   0   4 21808.3 2440.41   4
   0  -4   4 20623.2 2175.40   4
   0  -4   5 12732.7 1321.51   5
  -4   0   5 7899.27 1889.68   4
  -4   0   5 9474.57 1132.00   6
  -4   4   5 13594.5 1287.59   6
   0   4   5 10298.4 1325.38   5
   4   0   5 11081.7 1343.44   5
   4  -4   5 13043.4 1485.50   5
  -4   0   6 8431.69 1227.15   6
   0  -4   6 11331.4 1365.12   5
   4   0   6 8844.66 1461.49   5
   4  -4   6 10586.8 1635.73   5
   0   4   6 7782.70 1318.58   5
   4   0   7 1.09001 1247.56   5
   0  -4   7 256.207 882.655   5
   4  -4   7 1873.38 1275.00   5
   0  -4   8 2680.68 968.326   5
   4  -4   8 1213.54 935.587   5
   4   0   8-200.959 931.516   5
   4  -4   9-1012.59 455.156   5
   3   2  -5-2176.21 2104.09   1
   2   3  -5-2035.87 2100.05   1
   3   2  -4 39346.9 3979.99   1
   5  -2  -4 36976.4 3754.41   1
   3   2  -3 1639.94 1410.77   1
   5  -2  -3 626.782 1071.13   1
  -2   5  -2 66091.6 2584.59   3
   2  -5  -2 67654.4 2819.98   2
   2  -5  -1 111968. 3440.36   2
   2   3  -1 103222. 3274.72   3
   3  -5  -1 106834. 3668.86   2
  -5   3   0 242288. 4757.17   4
   3   2   0 235740. 4275.17   1
   3  -5   0 230478. 5167.06   2
   2   3   0 243125. 5512.60   3
  -5   2   0 234119. 4614.43   4
   5  -3   1 99145.3 3314.07   2
  -5   3   1 102299. 3678.84   4
  -2   5   1 103019. 4017.79   3
  -5   2   1 104178. 3754.26   4
   5  -2   1 100290. 3072.71   2
   2   3   1 105056. 4067.44   3
   3   2   1 102934. 3983.97   3
  -3  -2   2 65545.4 3510.49   4
   2   3   2 61725.8 3317.60   3
  -5   2   2 68303.6 3393.71   4
  -5   3   2 65855.4 3321.88   4
  -2   5   2 64553.0 3290.58   3
  -2   5   3 279.811 883.055   3
   2   3   3 743.204 842.221   3
  -3   5   3 1204.37 999.843   3
  -5   3   3 998.413 945.553   4
  -3  -2   3 858.495 1068.22   4
  -2  -3   3 2232.05 1184.07   4
  -5   2   3 720.932 1014.08   4
  -2   5   4 41230.1 3139.28   3
  -5   2   4 38329.9 3110.91   4
  -5   3   4 35606.0 2993.84   4
  -3   5   4 39450.1 3004.99   3
  -2  -3   4 33953.8 3048.39   4
  -3  -2   4 35081.9 3048.20   4
  -3  -2   5 1958.26 1415.22   4
  -3  -2   5-309.041 688.665   6
  -3   5   5-1122.05 917.329   5
   5  -2   5-269.754 819.425   5
  -5   2   5 137.111 783.823   6
  -5   2   5-48.8696 1385.25   4
   5  -3   5-831.727 919.340   5
  -2  -3   5 659.226 766.463   5
   3   2   5-579.387 853.926   5
   3  -5   5 110.598 984.830   5
  -3  -2   5 615.013 701.633   5
   2   3   5-74.5351 880.271   5
  -2  -3   5 1218.53 1216.59   4
  -5   3   5-225.117 783.282   6
  -2   5   5-542.868 961.802   5
   2  -5   5-993.170 1011.08   5
   2  -5   6 1335.86 1048.93   5
   5  -2   6 1136.47 1226.85   5
  -3  -2   6-63.7697 785.641   5
   5  -3   6 549.027 1150.13   5
   3  -5   6-135.723 1039.32   5
  -2   5   6 256.568 855.300   5
  -5   2   6 394.916 862.737   6
  -2  -3   6 347.880 810.561   5
   2   3   6 343.612 916.067   5
  -5   3   6 1366.15 906.079   6
  -3   5   6-78.8429 860.670   5
   3   2   6 766.104 1055.00   5
   3   2   7-1348.29 1133.91   5
   5  -2   7 62.8872 1225.48   5
  -3  -2   7 1065.85 903.777   5
  -2  -3   7 865.087 872.242   5
   2  -5   7 21.0592 950.237   5
   2   3   7 493.537 999.695   5
   5  -3   7-1342.75 1317.13   5
   3  -5   7 298.775 987.186   5
   5  -3   8 8299.68 1283.86   5
   5  -2   8 6351.23 1168.88   5
  -2  -3   8 11715.9 1233.68   5
   3  -5   8 10087.9 1288.48   5
  -3  -2   8 11067.0 1137.69   5
   2  -5   8 12067.7 1333.43   5
   2  -5   9-677.874 487.728   5
   3  -5   9-372.555 451.973   5
   5  -1  -5 9841.78 3110.75   1
   4   1  -5 5097.67 2457.39   1
   1   4  -5 5231.21 2589.44   1
   4   1  -4 40703.9 3988.68   1
   5  -1  -4 42836.6 4052.70   1
   4   1  -3 1741.16 1477.30   1
   5  -1  -3 1539.69 1228.62   1
  -1   5  -2 92983.6 2831.71   3
   1  -5  -2 100247. 2956.98   2
   4   1  -2 91937.4 4463.81   1
   5  -1  -2 95901.4 4244.03   1
   4   1  -1 45867.1 2511.27   1
   1   4  -1 47690.9 2289.12   3
  -5   1  -1 47808.8 1679.60   4
  -1   5  -1 49122.5 2542.94   3
  -5   1   0 6904.11 1126.13   4
   4  -5   0 6943.32 1279.43   2
  -1   5   0 7129.50 1364.72   3
   4   1   0 5522.23 862.467   1
   5  -4   0 6997.11 1323.00   2
   1   4   0 5850.03 1264.59   3
   1   4   1 50347.9 2955.03   3
   4   1   1 49159.9 1456.01   2
  -1   5   1 49177.8 2912.45   3
  -5   1   1 52367.1 2877.79   4
   5  -1   1 47385.6 1989.50   2
   5  -4   1 43332.5 2331.10   2
  -4  -1   1 55193.1 2832.05   4
  -5   4   2 95646.4 4077.70   4
  -5   1   2 92298.6 3989.31   4
  -1   5   2 95067.0 4081.33   3
  -4  -1   2 95533.8 4204.17   4
   1   4   2 89656.5 4036.98   3
  -4   5   3 2798.73 1150.42   3
   1   4   3 1204.59 958.320   3
  -5   1   3 2637.59 1229.49   4
  -1   5   3 1610.97 1081.28   3
  -1  -4   3 929.184 1038.38   4
  -4  -1   3 719.058 1017.75   4
   1   4   4 45831.8 3467.26   3
   1  -5   4 41895.8 2974.65   4
  -4   5   4 43839.5 3069.80   3
  -1  -4   4 42344.2 3321.54   4
  -5   1   4 40205.9 3332.32   4
  -1   5   4 47010.9 3558.50   3
  -4  -1   4 42600.2 3396.91   4
  -4  -1   5 7524.10 1792.97   4
  -1   5   5 7472.21 1212.66   5
   4   1   5 7790.24 1257.01   5
   4  -5   5 11288.7 1472.76   5
  -5   1   5 10354.0 1198.15   6
   1  -5   5 10082.2 1321.82   5
   1   4   5 6353.74 1133.82   5
   5  -1   5 9831.40 1337.08   5
  -5   4   5 8901.12 1227.32   6
  -4  -1   5 8080.70 1061.27   6
  -5   1   5 6145.31 1915.57   4
  -1  -4   5 8786.91 1154.51   5
   5  -4   5 8726.19 1297.63   5
   1  -5   6 5487.02 1236.89   5
  -4   5   6 5338.29 1045.01   5
   4   1   6 5138.20 1306.92   5
  -5   4   6 6646.96 1103.92   6
   5  -1   6 7079.79 1492.71   5
  -4  -1   6 6456.33 1069.56   6
  -1  -4   6 7096.81 1194.85   5
   5  -4   6 7935.68 1553.17   5
  -1   5   6 4532.85 1131.50   5
   1   4   6 4703.24 1205.31   5
  -5   1   6 5890.35 1115.82   6
   4  -5   6 4954.98 1335.95   5
   5  -1   7 2532.08 1340.52   5
   5  -4   7 1161.09 1174.04   5
  -1  -4   7-529.956 909.793   5
   1  -5   7 1627.62 955.632   5
   4   1   7 188.825 1111.35   5
   4  -5   7 1155.14 1198.57   5
  -1  -4   8 3854.36 996.011   5
   5  -4   8 840.276 896.067   5
   1  -5   8 5750.89 1155.53   5
   4  -5   8 3988.51 1053.48   5
   5  -1   8 288.790 881.213   5
   4  -5   9-396.050 419.460   5
   5   0  -5 17265.3 3339.19   1
   5   0  -4 38545.3 3975.84   1
   5   0  -3 11882.8 2180.47   1
   5   0  -2 187745. 6129.70   1
   0   5  -2 186263. 4001.92   3
   5   0  -1 16326.5 1699.03   1
   0   5  -1 16186.3 1578.09   3
  -5   0  -1 14855.8 1365.70   4
   0   5   0 25761.5 2228.24   3
   5  -5   0 26285.8 2245.37   2
  -5   0   0 29640.2 2163.41   4
   5   0   1 17604.0 1176.55   2
   0   5   1 16020.4 1926.08   3
  -5   0   1 14713.6 1810.60   4
   0   5   2 188087. 6037.04   3
  -5   0   2 195439. 6044.62   4
  -5   0   3 14925.2 2064.47   4
   0   5   3 12230.3 1897.38   3
   0  -5   4 35877.1 3011.42   4
  -5   0   4 37136.8 3403.16   4
   0   5   4 40678.4 3466.81   3
   0   5   5 20075.9 1703.02   5
   5  -5   5 24656.9 1945.37   5
   0  -5   5 21262.3 1730.73   5
  -5   0   5 22411.6 1627.40   6
  -5   0   5 20660.6 2657.59   4
   5   0   5 22713.0 1770.26   5
   5   0   6 5796.75 1317.44   5
  -5   5   6 6031.47 1009.73   6
  -5   0   6 6826.29 1217.66   6
   0  -5   6 6689.22 1229.87   5
   5  -5   6 4313.44 1332.40   5
   5  -5   7 6067.40 1414.06   5
   0  -5   7 5850.91 1198.15   5
   5   0   7 4728.33 1305.50   5
   0  -5   8 4368.36 1090.53   5
   5  -5   8 1821.85 911.215   5
   3   3  -5-2337.92 2100.27   1
   3   3  -4-144.593 1726.32   1
   3  -6  -2 154834. 4697.79   2
   3  -6  -1 175.390 718.410   2
   3   3   0 506252. 6904.52   1
   3   3   0 517263. 8810.07   3
  -6   3   0 506278. 7247.88   4
   6  -3   1-350.744 679.029   2
   3   3   1-690.331 1032.76   3
  -6   3   1 164.508 824.590   4
  -3   6   2 153874. 5525.49   3
   3   3   2 153214. 5479.58   3
  -3  -3   2 150952. 5469.56   4
  -6   3   2 147469. 5249.31   4
  -6   3   3-205.366 1086.33   4
  -3   6   3 382.621 1017.08   3
  -3  -3   3 198.278 1146.98   4
  -6   3   4-14.3162 1181.61   4
  -3  -3   4 738.196 1232.18   4
  -3   6   4 2436.04 1311.70   3
  -3  -3   5 1465.80 1637.16   4
   3  -6   5 46.7202 1054.21   5
  -3  -3   5 56.8076 727.278   5
   3   3   5-1851.21 1035.25   5
  -6   3   5 1706.08 979.936   6
   6  -3   5-811.005 921.764   5
  -3  -3   6 1120.49 805.640   5
  -6   3   6 2735.20 1065.81   6
   3   3   6-22.0306 972.071   5
   6  -3   6 3284.47 1284.74   5
   3  -6   6 2026.20 1123.29   5
  -3  -3   7-872.192 832.703   5
   3  -6   7-276.165 1007.43   5
  -6   3   7 475.726 792.303   6
   6  -3   7-1059.16 1270.89   5
   3  -6   8 9362.42 1219.59   5
   6  -3   8 5135.85 1059.30   5
   2   4  -5-2106.32 2132.37   1
   4   2  -5 1564.91 1865.45   1
   4   2  -4 13921.6 2704.32   1
   4   2  -3 7711.83 1934.79   1
   2  -6  -3 7995.22 1201.28   2
   4   2  -2 125982. 5532.37   1
  -2   6  -2 132554. 4090.16   3
   2  -6  -2 130658. 4052.51   2
   4  -6  -1 60517.2 3222.68   2
  -6   2  -1 56387.9 2072.35   4
  -2   6  -1 53880.3 2910.65   3
   4   2  -1 58076.2 3083.64   1
   2   4  -1 57200.0 2776.95   3
  -2   6   0 109916. 4346.00   3
   4  -6   0 110868. 4135.55   2
   4   2   0 104768. 3188.12   1
  -6   2   0 114808. 3658.60   4
   2   4   0 108501. 4223.71   3
  -6   2   1 60710.2 3206.42   4
   2   4   1 60865.9 3505.69   3
  -2   6   1 59707.2 3466.46   3
   6  -4   1 57196.2 2865.79   2
  -4  -2   1 58853.0 3057.28   4
  -6   4   1 60026.8 3108.04   4
   6  -2   1 57461.9 2544.81   2
  -4  -2   2 128087. 5149.08   4
  -6   2   2 131102. 4944.24   4
  -6   4   2 128812. 5067.09   4
   2   4   2 128193. 5072.07   3
  -2   6   2 127915. 5056.22   3
   2   4   3 7818.17 1681.69   3
  -4   6   3 7652.55 1608.30   3
  -2   6   3 8325.86 1771.71   3
  -6   4   3 7513.84 1649.00   4
  -6   2   3 8477.91 1736.60   4
  -2  -4   3 9370.27 1894.51   4
  -4  -2   3 7780.29 1863.65   4
  -4   6   4 10328.2 1919.92   3
  -4  -2   4 10960.3 2119.60   4
  -2   6   4 8164.75 1903.31   3
  -6   2   4 10233.2 1999.72   4
  -2  -4   4 11711.4 2162.07   4
  -2  -4   5 463.260 1389.65   4
   4   2   5 1417.13 1012.61   5
  -2  -4   5 693.480 804.391   5
   6  -4   5-552.918 921.966   5
   2   4   5 552.768 908.568   5
   4  -6   5 1272.31 1024.07   5
   6  -2   5 2291.70 1028.33   5
   2  -6   5-61.3208 948.569   5
  -6   2   5 436.910 824.773   6
  -6   2   5 2404.07 1547.83   4
  -6   4   5 1334.09 940.284   6
  -4  -2   5 25.5365 824.898   6
  -4  -2   5 183.985 1293.17   4
   6  -2   6 2248.21 1192.97   5
   4  -6   6 2247.19 1178.05   5
   2   4   6 670.148 922.316   5
  -6   2   6 3432.10 1128.83   6
  -6   4   6 2747.62 986.507   6
   4   2   6 92.7918 953.175   5
   2  -6   6 1443.52 1037.98   5
  -2  -4   6 2363.83 937.933   5
   6  -4   6 2245.66 1276.29   5
   6  -2   7-183.429 1094.52   5
   6  -4   7 1126.52 1210.16   5
  -2  -4   7 43.2407 913.977   5
   4  -6   7-250.171 976.013   5
   2  -6   7 751.784 938.842   5
  -6   2   7-384.345 756.927   6
   6  -4   8 4329.66 966.252   5
   6  -2   8 3125.29 952.841   5
   2  -6   8 6878.84 1155.39   5
  -2  -4   8 7107.35 1046.62   5
   4  -6   8 5354.81 1026.90   5
   5   1  -5 9129.41 2828.97   1
   1   5  -5 10637.4 3039.04   1
   5   1  -4 44381.3 4319.11   1
   6  -1  -4 49797.8 4634.96   1
   6  -1  -3 13445.7 2290.29   1
   5   1  -3 11225.0 2160.70   1
  -1   6  -2 76623.4 3019.54   3
   1   5  -2 76717.3 2912.28   3
   6  -1  -2 76994.9 4281.36   1
   5   1  -2 72856.3 4094.53   1
  -1   6  -1 17886.6 1814.22   3
   5  -6  -1 16321.1 1874.85   2
   1   5  -1 16476.4 1686.38   3
  -6   1  -1 17780.4 1254.30   4
   5   1  -1 14815.0 1621.82   1
  -5  -1  -1 18399.9 1633.91   4
   1   5   0 40547.8 2799.35   3
  -1   6   0 36274.9 2679.04   3
   6  -5   0 44037.8 2872.11   2
  -5  -1   0 35072.2 2453.94   4
  -6   1   0 39041.3 2511.23   4
   5  -6   0 44351.5 2979.45   2
  -1   6   1 15011.9 1976.46   3
   1   5   1 17811.1 2122.55   3
  -6   1   1 19212.6 1962.29   4
   6  -1   1 16516.8 1362.23   2
  -5  -1   1 18257.6 1958.56   4
  -6   1   2 69849.3 3830.81   4
  -1   6   2 72952.5 3946.16   3
   1   5   2 78681.8 4147.07   3
  -5  -1   2 71351.4 4089.12   4
  -5  -1   3 13151.4 2156.84   4
   1   5   3 11926.4 1983.47   3
  -5   6   3 12080.4 1993.52   3
  -6   1   3 15385.4 2132.28   4
  -1   6   3 11336.2 1942.05   3
  -5  -1   4 50929.1 4015.68   4
   1  -6   4 54331.8 3763.59   4
  -5   6   4 46978.5 3494.57   3
   1   5   4 52790.1 4067.37   3
  -1  -5   4 56268.3 4157.38   4
  -1   6   4 53213.6 4169.55   3
  -6   1   4 52387.0 3949.31   4
   5  -6   5 13405.7 1580.33   5
   5   1   5 10966.0 1438.22   5
  -6   5   5 12193.0 1416.06   6
   1  -6   5 12236.1 1492.31   5
  -1  -5   5 13240.1 1469.72   5
  -6   1   5 11496.7 1365.83   6
   6  -1   5 10842.7 1464.06   5
  -6   1   5 8626.23 2281.04   4
  -5  -1   5 11556.9 1323.83   6
  -5  -1   5 11866.5 2402.50   4
   6  -5   5 11511.9 1397.25   5
  -1  -5   6 4781.88 1154.23   5
  -6   1   6 4760.36 1167.03   6
   5  -6   6 3497.82 1239.64   5
   5   1   6 3165.37 1152.24   5
   1  -6   6 3996.64 1170.37   5
  -5  -1   6 1931.56 910.962   6
   6  -1   6 4422.74 1257.54   5
  -6   5   6 3118.86 961.506   6
  -5   6   6 2837.79 849.358   6
   6  -5   6 3971.53 1279.55   5
   5   1   7 7595.66 1336.43   5
   6  -1   7 7326.80 1483.25   5
   1  -6   7 9068.95 1326.96   5
  -1  -5   7 9968.33 1398.72   5
   6  -5   7 10224.7 1573.68   5
   5  -6   7 9631.69 1462.73   5
  -1  -5   8 6974.10 1095.98   5
   5  -6   8 4946.03 974.132   5
   1  -6   8 4854.66 1011.74   5
   6  -5   8 3488.09 892.181   5
   6   0  -5 15546.0 3351.01   1
   6   0  -4 97297.5 6376.06   1
   6   0  -3 1957.36 1543.78   1
   6   0  -2 23370.7 2481.60   1
   0   6  -2 21266.3 1663.60   3
   0   6  -1 9559.36 1439.30   3
  -6   0  -1 10052.3 1291.33   4
   6  -6   0 11882.9 1844.55   2
  -6   0   0 11145.6 1596.29   4
   0   6   0 9829.68 1634.25   3
   6   0   1 10412.9 1056.14   2
   0   6   1 11321.9 1853.51   3
  -6   0   1 10055.3 1673.08   4
   0   6   2 21122.8 2450.11   3
  -6   0   2 20861.9 2364.32   4
  -6   0   3 1817.17 1306.22   4
   0   6   3 926.058 1135.29   3
   0  -6   4 118928. 6077.50   4
   0   6   4 108745. 5952.26   3
  -6   0   4 114448. 5996.78   4
  -6   0   5 17054.6 1575.53   6
   6   0   5 18739.6 1770.92   5
   0  -6   5 19847.7 1770.88   5
  -6   0   5 16491.9 2583.59   4
   6  -6   5 21165.9 1802.58   5
   6  -6   6 5009.40 1325.71   5
   0  -6   6 4878.46 1264.15   5
  -6   6   6 5966.51 1050.31   6
   6   0   6 5275.67 1246.13   5
  -6   0   6 4688.73 1190.02   6
   6   0   7 10525.2 1489.99   5
   6  -6   7 15463.5 1622.14   5
   0  -6   7 14967.2 1562.71   5
   6  -6   8 2771.66 870.497   5
   0  -6   8 5763.32 1053.85   5
   3   4  -5-1892.89 2252.18   1
   4   3  -5-1719.85 2038.89   1
   4   3  -4 6593.15 2302.85   1
   3   4  -4 7715.72 2340.35   1
   4   3  -3 239.190 1410.99   1
   3  -7  -3 791.311 852.211   2
   4  -7  -3 1850.93 1015.01   2
   3  -7  -2 86456.9 3762.07   2
   4  -7  -2 78431.0 3820.23   2
  -3   7  -2 84375.7 3844.68   3
   4   3  -2 83971.2 4849.47   1
   4  -7  -1 13145.4 1649.29   2
   4   3  -1 14056.5 1811.50   1
  -3   7  -1 14510.5 1868.69   3
  -3   7   0 319221. 8211.02   3
   4   3   0 325741. 5832.83   1
  -7   3   0 315758. 6307.15   4
   3   4   0 336055. 7937.76   3
  -7   3   1 13795.5 1803.60   4
  -3   7   1 16277.2 2168.27   3
   7  -3   1 12639.4 1467.32   2
  -7   4   1 14957.4 1765.07   4
   3   4   1 14195.4 2086.10   3
   7  -4   1 12146.0 1604.74   2
  -3   7   2 83685.7 4506.92   3
  -4   7   2 82494.4 4564.13   3
   3   4   2 86330.6 4622.86   3
  -4  -3   2 83029.5 4430.32   4
  -7   3   2 82320.7 4249.14   4
  -7   4   2 83362.2 4334.92   4
  -4   7   3 1817.43 1308.64   3
  -3   7   3 1254.59 1299.27   3
  -4  -3   3 1537.51 1371.29   4
  -7   3   3 1738.32 1138.27   4
  -7   4   3 1143.18 1246.83   4
  -3  -4   3 602.783 1221.01   4
  -4   7   4 6261.51 1827.00   3
  -7   4   4 5346.17 1695.47   4
  -7   3   4 5297.43 1585.83   4
  -4  -3   4 5401.73 1874.97   4
  -3   7   4 7486.03 1950.51   3
  -3  -4   4 6838.22 2187.93   4
   7  -4   5-399.064 908.649   5
  -3  -4   5-1210.63 1526.48   4
  -4  -3   5 1404.16 1675.65   4
   4   3   5-903.466 919.329   5
   4  -7   5 471.403 1088.19   5
  -3  -4   5 630.602 839.371   5
   3  -7   5 762.282 1108.19   5
  -7   3   5 1059.48 989.314   6
  -7   4   5 1469.80 1065.89   6
   7  -3   5-251.112 913.192   5
   7  -4   6 937.407 1158.26   5
   4  -7   6 902.758 999.160   5
  -4  -3   6 1706.99 900.449   5
  -3  -4   6 1613.02 849.861   5
   7  -3   6 48.0088 1008.58   5
  -7   3   6 1925.22 1096.83   6
  -7   4   6 740.464 967.191   6
   3  -7   6 1100.12 1099.64   5
  -3  -4   7-611.352 819.564   5
   3  -7   7 47.4698 966.476   5
   7  -4   7-1765.35 1117.55   5
   7  -3   7 1362.47 1065.45   5
  -7   4   7-552.241 745.941   6
  -7   3   7-362.200 775.989   6
   4  -7   7-596.768 976.756   5
   7  -4   8 2857.54 798.563   5
   4  -7   8 7418.26 1020.92   5
   3  -7   8 7073.27 1068.46   5
   7  -3   8 3353.65 796.079   5
   5   2  -5 5777.43 2420.28   1
   2   5  -5 2168.57 2004.71   1
   5   2  -4 10896.3 2513.59   1
   5   2  -3 1386.87 1641.93   1
   5  -7  -2 97398.9 4428.22   2
   5   2  -2 102918. 5132.70   1
  -2   7  -2 103886. 4159.37   3
  -7   2  -1 1889.35 648.676   4
   2   5  -1 1553.42 877.519   3
  -2   7  -1 1541.06 1055.12   3
   5   2  -1 2187.18 965.697   1
   5  -7  -1 2593.10 1094.08   2
   7  -5   0 23237.0 2244.49   2
  -7   2   0 21868.0 1895.64   4
  -2   7   0 21848.3 2328.62   3
   2   5   0 22004.8 2218.04   3
   5   2   0 25826.0 1866.40   1
   7  -5   1 1776.44 950.706   2
  -5  -2   1 2055.17 1068.19   4
  -2   7   1 1996.26 1214.92   3
   2   5   1 2386.63 1385.91   3
   7  -2   1 2151.13 855.539   2
  -7   2   1 1777.38 1096.39   4
   2   5   2 105390. 5115.97   3
  -7   2   2 99313.5 4713.14   4
  -2   7   2 100808. 5007.44   3
  -5  -2   2 96015.8 4746.62   4
  -7   2   3-176.145 1099.40   4
  -2   7   3 1090.68 1214.06   3
   2   5   3 856.033 1302.95   3
  -5   7   3 683.611 1245.87   3
  -2  -5   3 474.114 1479.98   4
  -5  -2   3-1049.48 1349.93   4
  -7   2   4 12118.0 2259.77   4
  -2   7   4 13008.3 2357.08   3
  -5  -2   4 13472.1 2509.01   4
  -5   7   4 11623.1 2173.12   3
  -5  -2   4 11497.8 1248.25   6
  -7   2   4 13022.9 1318.57   6
  -2  -5   4 14900.8 2718.50   4
  -7   2   5 4118.09 1783.12   4
   7  -5   5 5749.41 1111.59   5
   7  -2   5 7035.56 1355.74   5
  -2  -5   5 7657.83 1260.02   5
   5  -7   5 6292.15 1289.70   5
   2  -7   5 7816.36 1387.13   5
  -7   5   5 7789.22 1293.78   6
  -5  -2   5 7195.46 1172.57   6
  -5  -2   5 6534.50 1919.20   4
   5   2   5 4118.58 1141.94   5
  -7   2   5 6822.63 1214.30   6
   7  -5   6 8127.60 1406.26   5
   5  -7   6 7641.81 1362.27   5
  -7   5   6 8281.35 1232.41   6
   2  -7   6 8713.60 1427.96   5
  -7   2   6 7433.27 1330.91   6
  -2  -5   6 8870.36 1339.78   5
  -5   7   6 8292.65 1056.00   6
   5   2   6 6286.44 1217.41   5
   7  -2   6 8895.99 1446.79   5
   7  -5   7 3719.89 1251.35   5
   5  -7   7 3460.60 1106.18   5
  -7   2   7 1721.44 818.876   6
   2  -7   7 2712.17 1027.00   5
  -7   5   7 2703.33 826.617   6
  -2  -5   7 3138.76 1078.34   5
   7  -2   7 1748.00 1089.16   5
  -2  -5   8 2159.42 770.878   5
   2  -7   8 3052.27 877.352   5
   5  -7   8 1725.10 794.904   5
   7  -5   8 957.174 708.997   5
   1   6  -5 1452.68 1898.11   1
   6   1  -5-28.8003 1850.03   1
   6   1  -4 32970.0 3962.74   1
   6   1  -3 8535.86 2079.44   1
   1   6  -2 111289. 3931.06   3
  -1   7  -2 115415. 4257.80   3
   6   1  -2 110634. 5256.03   1
   1   6  -1 15480.6 1776.33   3
  -1   7  -1 16956.5 1958.06   3
   6  -7  -1 14870.5 1958.27   2
  -6  -1  -1 16711.2 1779.45   4
  -7   1  -1 15950.9 1402.10   4
   6   1  -1 16868.7 1897.00   1
   6  -7   0 52196.8 3608.64   2
  -1   7   0 46000.7 3296.11   3
   7  -6   0 49000.1 3324.35   2
   1   6   0 49810.6 3423.10   3
  -6  -1   0 50637.2 3151.46   4
  -7   1   0 53306.7 3101.21   4
  -6  -1   1 17922.0 2233.61   4
   6   1   1 18784.5 1283.88   2
   1   6   1 18174.1 2404.67   3
  -1   7   1 14417.3 2110.43   3
  -7   1   1 19569.5 2167.10   4
   7  -1   1 17862.1 1515.19   2
  -1   7   2 112627. 5400.14   3
   1   6   2 113668. 5509.06   3
  -7   1   2 113261. 5053.98   4
  -6  -1   2 110262. 5339.80   4
   1   6   3 10805.8 2115.27   3
  -7   1   3 9977.28 1953.45   4
  -1   7   3 9781.25 2074.01   3
  -6  -1   3 9788.86 2063.63   4
   1   6   4 30045.7 3482.06   3
   6  -7   4 34355.7 1999.76   5
  -7   1   4 32153.0 3376.40   4
  -6  -1   4 34618.9 3648.25   4
  -6  -1   4 34503.1 1967.34   6
  -1  -6   4 33492.3 3801.99   4
  -7   1   4 34403.1 1920.14   6
  -6   7   4 33055.6 3382.99   3
  -1   7   4 31146.4 3611.24   3
   1  -7   4 34128.8 3628.81   4
   6   1   4 32248.1 2055.83   5
  -1  -6   5 1630.38 1083.92   5
  -6  -1   5 3234.31 1634.38   4
   6  -7   5 4179.06 1187.30   5
  -6  -1   5 2793.10 1049.04   6
   6   1   5 3238.71 1123.13   5
  -7   6   5 3124.58 1070.51   6
   7  -1   5 2938.26 1138.63   5
   1  -7   5 3062.63 1174.59   5
   7  -6   5 1595.54 930.520   5
  -7   1   5 3309.93 1129.73   6
  -7   1   5 2356.23 1596.56   4
   7  -6   6 10454.0 1451.17   5
  -7   1   6 9172.58 1406.74   6
   7  -1   6 9273.99 1420.97   5
   6  -7   6 8193.09 1388.11   5
  -7   6   6 8149.05 1207.34   6
   6   1   6 6445.91 1242.22   5
  -6   7   6 8718.18 1167.58   6
  -1  -6   6 10660.3 1535.16   5
   1  -7   6 9053.30 1489.75   5
   7  -6   7 3568.32 1159.13   5
  -7   6   7 4317.58 917.615   6
   6  -7   7 4350.10 1170.64   5
   7  -1   7 1963.67 1035.49   5
  -1  -6   7 3699.96 1072.55   5
   1  -7   7 5315.90 1211.91   5
   7  -6   8 875.382 697.736   5
   6  -7   8 1547.95 738.278   5
   1  -7   8 4669.02 950.297   5
  -1  -6   8 3845.03 813.212   5
   7   0  -4 93460.9 6735.84   1
   7   0  -3 55133.6 4780.48   1
   7   0  -2 5385.38 1625.33   1
   0   7  -2 3718.42 1032.09   3
   7  -7  -1 88555.4 4455.13   2
   0   7  -1 94103.7 4400.46   3
  -7   0  -1 101650. 3877.34   4
   0   7   0 31386.2 2901.33   3
  -7   0   0 31348.9 2646.32   4
   7  -7   0 37281.3 3198.71   2
  -7   0   1 97083.1 4727.27   4
   0   7   1 95625.2 5000.66   3
   7   0   1 97110.2 3213.68   2
  -7   0   2 3529.44 1497.46   4
   0   7   2 2924.45 1419.45   3
   0   7   3 62065.0 4492.63   3
  -7   0   3 67250.4 4479.35   4
   0   7   4 91147.4 5938.81   3
  -7   0   4 94601.7 3197.70   6
  -7   0   4 100328. 5943.15   4
   7   0   4 101402. 3362.25   5
   7  -7   4 100192. 3087.80   5
   7  -7   5 718.396 921.302   5
  -7   0   5-1087.34 1543.62   4
  -7   0   5-199.632 906.151   6
   0  -7   5-199.621 1119.48   5
   7   0   5-864.008 1053.89   5
   7  -7   6 2261.26 1051.94   5
   0  -7   6 3146.09 1208.35   5
  -7   7   6 1042.58 839.680   6
   7   0   6 1320.68 1029.21   5
  -7   0   6 1852.68 1095.81   6
   0  -7   7 885.940 971.459   5
  -7   7   7 1227.19 677.012   6
   7  -7   7 3023.53 1106.32   5
   7  -7   8 5737.19 857.372   5
   0  -7   8 7441.98 953.164   5
   4   4  -5-1607.20 1965.35   1
   4   4  -4 5798.01 2200.59   1
   4   4  -3 1154.58 1632.85   1
   4  -8  -3 1439.74 1091.96   2
  -4   8  -2 47428.9 3396.24   3
   4  -8  -2 43050.6 3038.71   2
   4   4  -2 47221.7 4030.15   1
   4   4  -1 181.938 1058.72   1
   4   4   0 174525. 4639.32   1
  -8   4   0 173054. 5059.32   4
  -8   4   1 255.218 947.521   4
  -4   8   1 86.5288 1216.71   3
   8  -4   1-287.034 870.705   2
  -4   8   2 41525.2 3624.83   3
  -4  -4   2 43161.5 3405.26   4
  -8   4   2 49928.0 3651.25   4
  -8   4   3-82.4746 1195.74   4
  -4   8   3 108.452 1308.58   3
  -4  -4   3 111.320 1273.50   4
  -8   4   4 5250.82 1823.16   4
  -4   8   4 5148.94 1892.88   3
  -8   4   4 6404.47 1174.14   6
  -4  -4   4 5265.10 1018.60   8
  -4  -4   4 5328.02 2134.06   4
  -4  -4   5-664.692 874.880   5
   8  -4   5 629.088 994.670   5
   4  -8   5-500.716 995.767   5
  -8   4   5-190.802 972.431   6
  -4  -4   5-219.954 1602.03   4
   8  -4   6 9178.35 1483.64   5
   4  -8   6 7661.54 1376.19   5
  -8   4   6 9900.26 1412.57   6
  -4  -4   6 9135.63 1235.91   5
   8  -4   7 600.756 948.423   5
   4  -8   7-167.127 821.865   5
  -8   4   7 56.3965 705.673   6
   4  -8   8 3775.00 804.614   5
   3   5  -5-1694.85 1894.34   1
   5   3  -5-1315.16 2071.88   1
   5   3  -4 8912.48 2427.79   1
   3   5  -4 7762.69 2347.12   1
   5  -8  -3 47.5947 1023.96   2
   5   3  -3 672.249 1601.21   1
   5  -8  -2 55087.0 3617.98   2
   5   3  -2 52102.7 4164.69   1
  -3   8  -2 62117.4 3648.76   3
  -3   8  -1 40855.9 3095.11   3
   5  -8  -1 42670.4 3109.25   2
   5   3  -1 36962.1 2712.74   1
   3   5   0 18921.8 2346.18   3
   5   3   0 19685.0 1716.40   1
   8  -5   0 20555.4 2318.23   2
  -3   8   0 16211.6 2272.49   3
  -8   3   0 17921.9 1749.80   4
  -3   8   1 43374.9 3576.68   3
   8  -5   1 38701.3 2782.03   2
   3   5   1 44197.2 3652.03   3
   8  -3   1 36865.0 2540.56   2
  -5  -3   1 41450.3 3075.59   4
  -8   3   1 46126.4 3175.79   4
   3   5   2 57398.8 4217.85   3
  -3   8   2 57645.3 4095.35   3
  -5   8   2 60097.7 4236.04   3
  -5  -3   2 53643.4 3899.17   4
  -8   3   2 57279.0 3799.05   4
  -3  -5   3 1425.83 1560.38   4
  -8   3   3-530.994 1356.08   4
  -3   8   3 497.968 1327.45   3
  -5  -3   3-84.4348 1409.59   4
  -5   8   3 1894.27 1545.40   3
   3   5   3-312.079 1247.84   3
  -3   8   4 9272.33 1154.15   7
  -8   3   4 11460.0 1327.03   6
   5  -8   4 12511.7 1486.12   5
  -3  -5   4 12192.2 1406.30   8
  -5  -3   4 11673.4 2641.99   4
  -5  -3   4 9269.96 1119.27   8
  -8   3   4 8760.03 2042.35   4
  -5  -3   4 8321.35 1227.57   6
  -8   5   4 9332.18 1273.76   6
  -5   8   4 11303.2 2186.96   3
  -3  -5   4 9999.96 2782.37   4
  -3   8   4 11100.8 2312.48   3
   8  -3   5-422.228 1016.32   5
   5  -8   5-555.920 995.249   5
  -8   3   5-601.336 1013.92   6
  -3  -5   5 249.684 924.378   5
   8  -5   5-477.220 934.330   5
   3  -8   5-579.794 1087.19   5
  -8   5   5 902.321 988.584   6
  -8   3   5 140.008 1496.99   4
  -3  -5   5-1640.24 1883.52   4
  -5  -3   5 1073.69 1829.18   4
   5  -8   6 19028.1 1761.91   5
   3  -8   6 19742.0 1822.09   5
  -8   3   6 20046.9 1857.88   6
  -8   5   6 18778.9 1697.13   6
  -5   8   6 16948.6 1343.73   6
   8  -3   6 17761.4 1796.63   5
   8  -5   6 21662.7 1864.03   5
  -3  -5   6 20467.3 1666.85   5
  -8   3   7 1113.30 824.752   6
   5  -8   7 1420.28 925.600   5
   8  -3   7 579.542 891.399   5
  -3  -5   7 1698.74 892.567   5
   3  -8   7 523.037 897.838   5
  -8   5   7 253.030 710.999   6
   8  -5   7 2103.30 991.581   5
   8  -5   8 843.611 588.998   5
   3  -8   8 2276.24 762.426   5
   5  -8   8 1619.54 696.540   5
   2   6  -5-2426.66 2180.18   1
   6   2  -5 2530.54 2167.92   1
   6   2  -4 25388.6 3686.91   1
   6   2  -3 2100.72 1723.36   1
   6  -8  -3 234.329 1276.48   2
   6  -8  -2 41970.5 3251.58   2
  -2   8  -2 50015.4 3267.57   3
   6   2  -2 42724.1 3635.85   1
  -2   8  -1 42235.6 3201.79   3
  -6  -2  -1 42902.3 2906.07   4
   6  -8  -1 47785.4 3644.58   2
   2   6  -1 44595.7 3083.67   3
   6   2  -1 44980.8 2972.07   1
  -8   2  -1 39228.5 2119.60   4
  -2   8   0 20164.9 2456.26   3
   2   6   0 19194.5 2367.52   3
   8  -6   0 19838.3 2445.90   2
  -6  -2   0 20138.9 2289.25   4
  -8   2   0 21779.8 2045.86   4
   2   6   1 47809.6 3771.56   3
   8  -6   1 43383.8 3109.19   2
  -2   8   1 45361.3 3634.82   3
   8  -2   1 45816.0 2671.31   2
  -6  -2   1 45080.2 3291.86   4
  -8   2   1 45837.1 3333.75   4
   2   6   2 49491.8 3956.37   3
  -2   8   2 46512.4 3830.23   3
  -6  -2   2 48915.1 3817.71   4
  -8   2   2 48236.9 3660.88   4
   2   6   3 3641.54 1678.69   3
  -2  -6   3 2879.49 1814.47   4
  -8   2   3 1409.78 1241.09   4
  -2   8   3 1977.49 1572.87   3
  -6   8   3 3429.08 1822.69   3
  -6  -2   3 1112.03 1539.20   4
  -2   8   4 20089.7 3017.09   3
  -6   8   4 20705.0 2941.63   3
  -2  -6   4 25170.0 1799.99   8
  -2   8   4 23713.9 1642.36   7
  -8   2   4 23585.5 1704.84   6
  -6  -2   4 24321.6 3331.86   4
  -6  -2   4 25380.2 1768.03   6
  -2  -6   4 29491.4 3926.22   4
   6  -8   4 27051.1 1904.70   5
  -8   2   4 22963.4 3038.85   4
   8  -6   4 23370.4 1595.02   5
  -8   2   5 1416.15 1602.36   4
  -6  -2   5-1244.79 1739.20   4
   6  -8   5 1536.58 992.890   5
   2  -8   5 418.507 1157.21   5
   8  -2   5 1725.07 1140.24   5
  -2  -6   5 1700.71 1197.69   5
  -6  -2   5-80.9732 902.007   6
  -8   2   5 1592.39 1058.91   6
   8  -6   5 771.954 845.574   5
  -8   6   5 1621.02 1022.84   6
   2  -8   6 10176.2 1475.30   5
   8  -2   6 7483.65 1352.14   5
  -6   8   6 9018.12 1145.73   6
  -8   2   6 9466.13 1518.43   6
  -2  -6   6 10751.9 1477.14   5
  -8   6   6 9139.79 1275.10   6
   8  -6   6 11528.3 1507.96   5
   6  -8   6 9906.88 1383.28   5
   6  -8   7-231.520 885.665   5
   2  -8   7-967.078 922.855   5
  -2  -6   7-521.301 900.112   5
   8  -6   7-103.679 843.955   5
  -8   6   7 744.014 674.227   6
   8  -2   7-306.562 813.792   5
   6  -8   8 970.339 638.957   5
  -2  -6   8 2739.35 629.468   5
   2  -8   8 3448.09 788.407   5
   8  -6   8 700.421 544.970   5
   7   1  -4 43357.4 4811.40   1
   7  -8  -3 1171.15 1600.33   2
   7   1  -3 1703.69 1759.89   1
   1   7  -2 17447.3 1842.39   3
   7  -8  -2 15740.1 2273.83   2
  -1   8  -2 18461.6 2095.88   3
   7   1  -2 17983.7 2544.03   1
   1   7  -1 1498.82 1114.76   3
  -8   1  -1 1667.55 794.506   4
   8  -7  -1 703.765 1237.77   2
   7  -8  -1 426.916 1102.80   2
  -1   8  -1 202.950 1104.35   3
  -7  -1  -1 895.840 1056.60   4
  -1   8   0 85434.6 4724.91   3
   8  -7   0 98830.6 5123.78   2
   1   7   0 92685.9 5016.43   3
  -7  -1   0 87533.6 4527.24   4
  -8   1   0 90919.4 4286.89   4
   7  -8   0 97281.0 5142.77   2
   1   7   1 498.086 1307.82   3
  -8   1   1 882.905 1049.52   4
   8  -1   1 237.190 632.614   2
  -1   8   1 1487.08 1346.22   3
  -7  -1   1 813.403 1090.74   4
  -7  -1   2 18721.8 2551.94   4
  -1   8   2 19146.8 2736.06   3
  -8   1   2 16753.0 2290.82   4
   1   7   2 20554.1 2904.55   3
   1   7   3-138.306 1525.35   3
  -1   8   3-62.3054 1470.39   3
  -7  -1   3-218.867 1363.25   4
  -8   1   3 1597.38 1378.04   4
   7   1   4 42615.7 2278.11   5
   1   7   4 49437.5 2309.10   7
   1  -8   4 52491.6 4921.24   4
  -1   8   4 37485.5 4040.34   3
   1   7   4 38281.0 4174.21   3
  -1  -7   4 52693.0 5122.12   4
  -8   1   4 41658.1 2262.27   6
  -1  -7   4 46491.2 2340.65   8
  -7  -1   4 47137.8 4332.75   4
  -1   8   4 41335.0 2129.10   7
  -8   1   4 44849.6 4092.28   4
  -7  -1   4 43044.5 2343.56   6
   8  -1   4 43067.3 2267.89   5
   8  -7   4 41277.8 2036.04   5
   7  -8   4 44958.4 2281.89   5
   8  -7   5 1795.12 961.819   5
   7  -8   5 827.015 922.268   5
   8  -1   5 866.643 944.289   5
   1  -8   5 2729.08 1297.19   5
  -7  -1   5 1705.51 1005.76   6
  -8   1   5 1668.06 1015.26   6
  -8   7   5 841.114 928.845   6
  -1  -7   5 1929.23 1243.23   5
   8  -1   6 924.513 944.357   5
   8  -7   6 1605.17 1018.32   5
   7  -8   6 2615.35 1040.29   5
  -1  -7   6 3974.83 1208.34   5
   1  -8   6 2769.29 1186.42   5
  -8   1   6 1405.81 998.723   6
  -8   7   6 3461.13 966.017   6
  -7   8   6 1902.08 822.013   6
   7  -8   7 1202.96 937.283   5
   8  -7   7 374.870 841.741   5
  -8   7   7 1367.64 714.961   6
   1  -8   7 366.285 959.853   5
  -1  -7   7-246.898 907.622   5
   8  -7   8 3142.21 655.149   5
  -1  -7   8 4307.28 686.497   5
   7  -8   8 4240.82 720.371   5
   1  -8   8 4568.26 774.309   5
   8  -8  -2 54578.9 4065.14   2
   0   8  -1 2158.81 1175.56   3
  -8   0  -1 825.112 951.315   4
   8  -8  -1 249.029 1067.49   2
   8  -8   0 53205.7 4193.63   2
   0   8   0 45825.3 3686.86   3
  -8   0   0 54830.0 3650.42   4
  -8   0   1 577.290 1281.98   4
   0   8   1-618.373 1247.94   3
   0   8   2 59135.7 4508.25   3
  -8   0   2 56592.2 4128.41   4
   0   8   3 11305.3 2493.97   3
   0  -8   3 12593.6 1330.34   8
  -8   0   3 15217.7 2527.14   4
  -8   0   3 12481.6 1370.99   6
   0   8   4 17621.3 3157.26   3
   0   8   4 17018.6 1564.52   7
  -8   0   4 16891.7 2966.21   4
   0  -8   4 23717.2 3617.89   4
   8   0   4 16851.3 1546.50   5
   8  -8   4 18256.4 1487.10   5
  -8   0   4 18745.6 1655.20   6
   8  -8   5-252.815 834.200   5
   0  -8   5-1472.07 1300.18   5
  -8   0   5-1266.43 1018.09   6
   0  -8   6 1472.02 1124.05   5
   8  -8   6 885.588 928.653   5
  -8   8   6 984.833 852.196   6
  -8   8   7-823.475 697.157   6
   0  -8   7-204.839 817.950   5
   8  -8   7 1041.09 852.513   5
   0  -8   8 5058.51 681.415   5
   8  -8   8 4583.95 667.901   5
   4   5  -4 12435.4 2800.06   1
   5   4  -4 13715.1 2919.04   1
   4   5  -3 1173.14 2034.50   1
   5   4  -3 463.809 1719.81   1
  -5   9  -2 9329.74 2082.76   3
   5  -9  -2 8090.07 1652.48   2
   5   4  -2 8247.26 2066.80   1
  -4   9  -2 9345.93 1941.28   3
   4   5  -2 10509.5 2438.30   1
   4   5  -1 51689.8 3675.22   1
  -4   9  -1 53189.9 3909.03   3
   5   4  -1 44627.4 3235.33   1
   4   5   0 75160.8 3265.72   1
  -4   9   0 79561.9 5022.10   3
   9  -5   0 84470.4 4524.75   2
  -9   4   0 79747.0 3784.80   4
   5   4   0 80222.9 3426.30   1
  -5   9   1 55082.8 4226.29   3
  -4   9   1 54688.0 4245.45   3
   9  -4   1 50172.7 3210.72   2
   9  -5   1 43980.9 3184.00   2
  -9   4   1 53758.7 3591.93   4
  -4  -5   2 7704.84 1953.40   4
  -9   5   2 7780.42 1999.02   4
  -9   4   2 9028.54 2017.07   4
  -4   9   2 8491.92 2077.45   3
  -5   9   2 7873.25 2063.92   3
  -5  -4   2 8089.49 1963.59   4
  -5   9   3 602.706 1697.55   3
  -9   4   3 84.6520 1351.06   4
  -4   9   3 851.366 1628.68   3
  -4  -5   3 1304.29 1739.98   4
  -5  -4   3 2210.17 1694.10   4
  -5   9   4 18193.5 3122.41   3
  -9   5   4 19664.8 1676.05   6
  -4  -5   4 16770.7 1620.62   8
  -9   4   4 17065.4 1616.99   6
  -9   4   4 16722.2 2863.66   4
  -4   9   4 16243.3 2977.83   3
  -4  -5   4 19509.0 3564.84   4
  -5  -4   4 17825.5 3295.90   4
  -5  -4   4 18568.0 1588.45   8
   9  -4   5 1769.27 1037.20   5
   5  -9   5 412.964 965.144   5
  -4  -5   5 2338.35 1046.03   5
   4  -9   5 1304.14 1053.88   5
   9  -5   5 1723.78 1040.90   5
  -9   4   5 424.734 994.597   6
  -9   5   5 853.911 1066.42   6
   4  -9   6 21890.5 1815.59   5
  -9   4   6 20825.4 1885.17   6
  -9   5   6 21173.0 1814.56   6
   9  -5   6 20212.2 1714.19   5
  -4  -5   6 25242.0 1693.69   5
   9  -4   6 16971.7 1638.81   5
   5  -9   6 19957.1 1765.68   5
   5  -9   7 2337.94 902.268   5
   4  -9   7 1662.40 849.861   5
   9  -4   7 1050.85 809.169   5
  -9   4   7 1514.50 767.860   6
  -9   5   7 479.586 665.814   6
   9  -5   7 1262.55 810.160   5
   4  -9   8 2396.62 636.051   5
   5  -9   8 1908.16 613.519   5
   3   6  -4 11468.1 3007.86   1
   6   3  -4 12376.2 2803.59   1
   6   3  -3 6586.44 2222.64   1
   6  -9  -3 6341.71 1781.33   2
  -3   9  -2 20413.1 2498.32   3
   6   3  -2 16895.4 2569.73   1
   6  -9  -2 19670.5 2554.68   2
  -3   9  -1 36976.4 3219.75   3
   6   3  -1 33692.6 2736.37   1
  -6  -3  -1 39297.3 3001.94   4
  -3   9   0 65181.1 4472.71   3
   9  -6   0 67861.1 4319.04   2
  -9   3   0 63181.1 3458.05   4
  -6  -3   0 61181.1 3902.97   4
   3   6   0 70082.4 4514.61   3
  -3   9   1 38675.3 3749.75   3
   9  -3   1 36194.5 2672.00   2
   3   6   1 40633.1 3864.38   3
  -6  -3   1 39012.6 3209.06   4
   9  -6   1 34106.1 2887.87   2
  -9   3   1 40785.9 3240.81   4
  -6   9   2 19710.5 3043.19   3
   3   6   2 19893.7 2900.02   3
  -6  -3   2 19112.6 2630.55   4
  -9   3   2 19153.6 2458.84   4
  -3   9   2 19874.4 2995.15   3
  -9   3   3 7067.76 2045.10   4
  -9   3   3 8407.23 1182.44   6
  -3   9   3 6865.37 2121.63   3
  -6   9   3 8293.76 2411.22   3
  -3  -6   3 7327.03 2332.85   4
  -6  -3   3 5929.61 2119.72   4
  -3  -6   4 17347.7 1609.45   8
  -3   9   4 11601.2 2563.08   3
   3   6   4 15015.5 1494.64   7
  -9   3   4 15689.2 2734.44   4
  -3   9   4 14992.9 1401.56   7
   6  -9   4 17349.1 1612.47   5
  -9   6   4 15540.4 1555.73   6
  -9   3   4 16524.9 1547.09   6
  -6  -3   4 17140.6 3132.34   4
  -6   9   4 14026.7 2721.01   3
  -3  -6   4 16656.6 3497.00   4
  -6  -3   4 13550.8 1482.00   8
   9  -3   5-362.059 968.549   5
   3  -9   5 736.999 1091.73   5
  -3  -6   5 621.330 933.073   8
  -3  -6   5 2070.09 1245.46   5
   9  -6   5 789.445 990.257   5
   6  -9   5-1019.15 1071.28   5
  -9   3   5 1752.33 1098.23   6
  -9   6   5 277.600 941.355   6
   3  -9   6 23979.4 1934.22   5
  -9   3   6 24930.5 1985.41   6
  -9   6   6 22562.3 1762.90   6
  -6   9   6 21753.8 1592.49   6
   9  -6   6 24132.6 1849.34   5
   6  -9   6 23293.3 1778.96   5
  -3  -6   6 25776.0 1959.72   5
   3  -9   7 2597.27 942.038   5
  -3  -6   7 1620.47 782.424   5
   9  -6   7 2471.70 857.375   5
  -9   3   7 1959.97 769.985   6
   6  -9   7 2116.78 848.022   5
  -9   6   7 2391.86 765.548   6
   3  -9   8 1625.20 590.558   5
   6  -9   8 857.591 542.412   5
   7   2  -4 21060.7 3831.55   1
   7   2  -3 10113.5 2721.98   1
   7  -9  -3 8521.88 2157.00   2
   7   2  -2 34381.9 3454.65   1
   7  -9  -2 31848.9 3201.96   2
   7  -9  -1 727.008 1104.22   2
   9  -7  -1 111.752 1069.35   2
  -2   9  -1-152.942 1156.78   3
  -7  -2  -1-203.205 982.046   4
   2   7  -1 470.568 1085.19   3
  -9   2   0 25441.0 2430.20   4
  -2   9   0 23393.7 2803.04   3
   9  -7   0 29138.0 3034.70   2
   2   7   0 26852.6 3032.15   3
  -7  -2   0 24765.3 2629.74   4
   2   7   1-1857.02 1613.93   3
  -9   2   1 944.722 1272.08   4
  -2   9   1 1301.36 1434.85   3
   9  -2   1-40.1719 838.402   2
  -7  -2   1 73.4215 1107.66   4
  -9   2   2 37774.3 3516.34   4
   2   7   2 37496.0 3825.13   3
  -7  -2   2 37376.8 3559.47   4
  -2   9   2 34829.2 3746.81   3
  -7  -2   3 9521.22 2414.82   4
  -2  -7   3 12043.4 1383.00   8
  -2   9   3 9457.51 1148.92   7
   2   7   3 10018.3 2399.73   3
  -9   2   3 9028.76 2113.20   4
  -2  -7   3 9157.71 2306.07   4
  -7  -2   3 10677.2 1335.88   6
  -9   2   3 10939.0 1316.60   6
  -7   9   3 14014.2 2973.41   3
  -2   9   3 8884.95 2364.19   3
  -7  -2   3 9585.32 1222.90   8
  -9   2   4 19248.1 3093.52   4
   7  -9   4 20379.9 1668.13   5
  -2  -7   4 21608.2 3864.44   4
   2   7   4 16435.0 1675.39   7
  -2   9   4 20338.3 1650.38   7
  -7  -2   4 17775.9 1571.87   8
  -7  -2   4 16937.1 1665.59   6
  -9   2   4 19621.9 1658.19   6
  -7   9   4 16531.8 2919.82   3
  -7  -2   4 20251.3 3254.18   4
  -2   9   4 18030.7 3153.22   3
  -2  -7   4 21504.3 1769.04   8
   9  -7   5 379.057 814.449   5
   9  -2   5-1221.95 1008.12   5
  -2  -7   5 93.8826 1232.88   5
   7  -9   5 1417.50 980.169   5
   2  -9   5 543.572 1155.29   5
  -9   2   5 664.833 1042.04   6
  -9   7   5 16.2943 913.477   6
   7  -9   6 8132.78 1271.67   5
  -9   2   6 10852.7 1550.27   6
   9  -2   6 4719.50 1039.64   5
   2  -9   6 10485.7 1487.12   5
  -9   7   6 8539.69 1195.07   6
  -7   9   6 9235.20 1170.56   6
   9  -7   6 10412.6 1416.22   5
  -2  -7   6 14518.7 1617.26   5
   9  -7   7 1258.07 800.028   5
  -2  -7   7 596.538 755.919   5
   2  -9   7-1046.23 951.464   5
  -9   7   7 394.690 624.597   6
   7  -9   7 484.596 786.222   5
   7  -9   8 2397.89 578.563   5
   2  -9   8 2267.54 587.726   5
   9  -7   8 1479.06 447.633   5
   8  -9  -4 21172.0 3605.70   2
   8  -9  -3 739.494 1444.94   2
   9  -8  -2 19368.7 2750.18   2
   8  -9  -2 17453.8 2511.79   2
   1   8  -1 1353.40 1250.88   3
   8  -9  -1 2106.52 1479.88   2
   9  -8  -1 743.275 1138.47   2
  -1   9  -1 755.589 1224.20   3
  -1   9   0 53346.2 4102.68   3
   1   8   0 54419.2 4224.03   3
   9  -8   0 61124.5 4519.03   2
  -8  -1   0 54817.2 3876.63   4
  -9   1   0 55498.8 3634.96   4
   1   8   1 672.518 1462.87   3
  -1   9   1 2029.85 1642.15   3
  -8  -1   1 644.492 1165.60   4
  -9   1   1 3795.76 1535.52   4
  -1   9   2 18860.8 2964.82   3
   1   8   2 19970.0 3001.42   3
  -8  -1   2 17543.7 2627.44   4
  -9   1   2 17532.4 2561.42   4
  -9   1   3 1193.68 1460.36   4
   1   8   3 576.689 1659.83   3
  -9   1   3 1243.83 798.797   8
  -8  -1   3 1466.46 875.625   8
  -1   9   3 214.823 827.499   7
   1   8   3 2066.93 928.027   7
  -8  -1   3 902.767 930.210   6
  -9   1   3 1504.27 984.473   6
  -8  -1   3 304.049 1442.52   4
  -1  -8   3 1525.19 940.496   8
  -1   9   3-484.182 1767.05   3
  -8  -1   4 21147.8 1683.22   8
   1   8   4 22338.1 3464.31   3
  -1   9   4 21036.3 3493.68   3
  -1   9   4 23843.2 1863.91   7
   1   8   4 22854.3 1902.15   7
   1  -9   4 30620.6 4240.30   4
  -8  -1   4 26930.5 2019.90   6
  -9   1   4 22713.6 1887.24   6
  -1  -8   4 29904.5 4232.18   4
  -8  -1   4 24472.3 3441.15   4
  -9   1   4 24995.4 3448.62   4
  -1  -8   4 24303.4 1950.57   8
   8  -9   4 24010.7 1702.62   5
   9  -8   5-445.985 808.407   5
  -1  -8   5 840.172 1223.58   5
   1  -9   5 462.495 1201.77   5
  -8  -1   5-471.950 983.655   6
  -9   1   5 493.492 996.749   6
  -9   8   5-1464.97 1004.69   6
   8  -9   5 409.206 858.018   5
  -1  -8   6 1087.97 1169.00   5
   9  -8   6 1249.64 918.825   5
   1  -9   6 1443.24 1118.84   5
  -9   1   6 374.107 981.031   6
  -9   8   6 1709.77 840.764   6
   8  -9   6 2121.60 960.936   5
  -8   9   6 1323.63 863.263   6
   8  -9   7-122.090 724.534   5
  -1  -8   7-738.668 791.761   5
   1  -9   7-1057.74 893.223   5
  -9   8   7 842.643 649.834   6
  -8   9   7 506.371 650.297   6
   9  -8   7 976.607 753.987   5
   8  -9   8 3925.94 573.086   5
   1  -9   8 4884.09 608.670   5
   9  -9  -4 947.431 2015.55   2
   9  -9  -3 9711.09 2549.55   2
   9  -9  -2 67802.4 4972.56   2
   0   9  -1 13314.5 2285.26   3
   9  -9  -1 8876.09 2290.39   2
  -9   0   0 60793.2 4009.43   4
   0   9   0 60556.5 4524.06   3
   9  -9   0 64600.8 4666.60   2
   0   9   1 9149.93 2338.62   3
  -9   0   1 12417.2 2270.48   4
  -9   0   2 76879.7 2833.59   8
   0  -9   2 81462.5 2820.36   8
  -9   0   2 76915.8 5114.24   4
   0   9   2 76308.3 2674.48   7
   0   9   2 77546.8 5552.87   3
   0  -9   3 8323.42 1244.15   8
   0   9   3 7265.85 2209.06   3
  -9   0   3 9066.32 2204.59   4
   0   9   3 5848.38 1187.47   7
  -9   0   3 8159.45 1357.86   6
  -9   0   3 6678.35 1204.49   8
   0   9   4 4726.80 2486.74   3
  -9   0   4 2551.93 1957.00   4
  -9   0   4 2658.73 928.222   8
   0   9   4 2604.45 1168.78   7
  -9   0   4 1448.66 1051.58   6
   0  -9   4-93.1168 2058.92   4
   9  -9   5-312.619 843.391   5
   0  -9   5 717.307 1210.56   5
  -9   0   5 1022.62 962.165   6
   9  -9   6 279.244 812.287   5
   0  -9   6 658.040 1069.72   5
  -9   9   6 624.876 778.305   6
   0  -9   7 428.106 709.224   5
   9  -9   7 859.909 724.107   5
  -9   9   7 139.392 664.306   6
   5   5  -4 11309.8 2982.18   1
   5   5  -3 1412.90 1719.90   1
   5   5  -2 2747.14 1779.47   1
  -5  10  -2 8092.85 2206.96   3
   5   5  -1-97.3935 1077.55   1
  -5  10  -1-651.468 1333.88   3
  -5  10   0 429883. 12323.5   3
  10  -5   0 428988. 10627.1   2
  10  -5   1-55.3481 1068.87   2
  -5  10   1 1183.33 1409.87   3
  -5  10   2 5299.85 1991.44   3
  -5  -5   2 8520.76 2010.17   4
 -10   5   2 6440.46 1941.12   4
  -5  -5   3-683.769 945.042   8
  -5  10   3 440.844 841.271   7
  -5  10   3-1093.04 1631.49   3
 -10   5   3 94.9005 765.824   6
  -5  -5   3 46.6349 1559.45   4
  -5  -5   4 24970.0 1891.77   8
 -10   5   4 23875.6 1870.57   6
  -5  -5   4 28025.4 4085.28   4
  -5  10   4 21252.9 3403.42   3
  -5  -5   5 958.860 899.875   8
   5 -10   5-1524.50 1082.82   5
 -10   5   5 272.518 1007.41   6
  10  -5   6 4678.79 1006.54   5
   5 -10   6 8411.22 1292.36   5
 -10   5   6 7713.51 1295.30   6
   5 -10   7-421.730 737.928   5
 -10   5   7 380.216 596.282   6
  10  -5   7 561.751 615.602   5
   5 -10   8 2791.80 550.140   5
   4   6  -4 8567.55 2824.44   1
   6   4  -4 9970.18 2939.88   1
   4   6  -3 4062.08 2332.53   1
   6   4  -3 462.031 1842.13   1
   6   4  -2 5764.61 1803.34   1
  -6  10  -2 9618.52 2439.73   3
  -4  10  -2 8707.86 2235.69   3
   4   6  -2 7052.03 2201.81   1
  -6  -4  -1 3046.64 1316.09   4
  -4  10  -1 50.5869 1283.28   3
   6   4  -1-27.8044 1024.42   1
   4   6  -1 1434.21 1382.80   1
  -6  -4   0 83344.1 4807.18   4
  10  -4   0 90559.1 4961.76   2
  10  -6   0 87587.1 5047.18   2
  -4  10   0 82602.3 5473.85   3
 -10   4   1 2495.43 1425.41   4
  -6  10   1 1886.45 1543.53   3
  10  -6   1 1481.29 1113.09   2
  -4  10   1 2024.41 1916.82   3
  -6  -4   1 2256.74 1534.17   4
  10  -4   1 1469.74 1151.89   2
 -10   4   2 5610.40 1801.06   4
  -4  -6   2 4813.53 1723.55   4
  -6  10   2 4189.40 1819.51   3
  -4  10   2 5817.01 2067.37   3
  -6  -4   2 4857.37 1745.42   4
  -4  -6   3 1194.82 885.684   8
 -10   4   3 3837.00 2005.68   4
  -6  -4   3 791.369 843.032   8
  -4  10   3 2119.63 999.248   7
  -6  10   3 2444.39 1963.54   3
 -10   4   3 3193.55 973.318   6
  -4  10   3 2612.00 1948.58   3
  -4  -6   3 973.821 1902.39   4
  -6  -4   3 1175.87 1644.56   4
  -6  -4   4 11039.5 3058.73   4
  -6  -4   4 9261.54 1301.17   8
  -4  -6   4 13568.5 1567.41   8
 -10   4   4 11180.4 2754.10   4
   6 -10   4 13049.7 1611.75   5
 -10   4   4 11962.5 1432.54   6
 -10   6   4 13063.0 1484.75   6
  -6  10   4 8819.21 2589.75   3
  -4  -6   4 10756.1 2938.08   4
  -4  10   4 9872.67 2699.42   3
  -4  -6   5 213.827 845.564   8
  -6  -4   5 558.293 766.528   8
   6 -10   5 346.697 966.092   5
  -4  -6   5-298.765 1035.50   5
   4 -10   5 339.324 991.244   5
 -10   4   5-32.3460 1002.78   6
 -10   6   5 616.327 969.234   6
  -6  10   6 25478.1 1697.75   6
   4 -10   6 23943.6 1813.73   5
 -10   4   6 22332.8 1848.14   6
 -10   6   6 23219.0 1761.96   6
  10  -4   6 18612.9 1452.83   5
  10  -6   6 19753.5 1546.79   5
  -4  -6   6 27643.6 1705.69   5
   6 -10   6 21728.8 1774.32   5
  10  -6   7-603.751 610.351   5
   4 -10   7 462.064 727.437   5
   6 -10   7 1150.87 725.243   5
 -10   4   7 846.915 678.058   6
 -10   6   7 318.427 623.703   6
   4 -10   8 1422.54 470.754   5
   6 -10   8 1403.44 475.220   5
   3   7  -4 11622.6 3122.95   1
   7   3  -4 9314.18 3005.26   1
   7   3  -3 11421.2 2966.98   1
   7 -10  -3 8753.78 2301.53   2
   3   7  -3 8647.64 2692.66   1
   7   3  -2 16828.5 2776.37   1
   7 -10  -2 17265.6 2624.92   2
  10  -7  -1 1864.98 1505.60   2
  -3  10  -1 3851.52 1601.28   3
  -7  -3  -1 4379.05 1455.58   4
 -10   3   0 9966.71 1694.89   4
   3   7   0 13316.3 2471.47   3
  -3  10   0 10983.9 2303.01   3
  -7  -3   0 9790.60 1974.56   4
  10  -7   0 12088.0 2257.33   2
   3   7   1 4223.59 2002.64   3
 -10   3   1 5178.34 1645.57   4
  -3  10   1 2996.53 1789.24   3
  -7  -3   1 4546.88 1693.61   4
  10  -3   1 3518.49 1270.53   2
  -7  10   2 18820.1 3058.79   3
   3   7   2 16794.7 2966.22   3
  -7  -3   2 16497.4 2688.99   4
 -10   3   2 19286.0 2784.66   4
  -3  10   2 18675.9 3090.78   3
 -10   3   3 9219.88 1181.78   8
 -10   3   3 10479.7 2327.16   4
  -3  10   3 12040.3 1352.73   7
 -10   3   3 10115.9 1314.48   6
  -7  10   3 10621.6 2893.67   3
  -3  -7   3 11644.2 2788.83   4
  -3  10   3 9802.50 2586.41   3
  -7  -3   3 8527.65 2353.86   4
  -3  -7   3 11046.4 1324.30   8
  -7  -3   3 10717.7 1370.76   8
 -10   3   4 14761.9 2776.68   4
  -3  -7   4 15107.0 1639.12   8
  -7  -3   4 13490.4 1530.97   8
  -3  10   4 16809.3 1557.06   7
   3   7   4 16352.6 1576.14   7
 -10   3   4 16593.0 1672.07   6
 -10   7   4 14500.2 1564.83   6
  -7  -3   4 22472.4 3556.85   4
  -7  10   4 15102.0 3258.11   3
  -3  -7   4 19248.5 3793.64   4
   7 -10   4 16882.0 1663.93   5
  -3  10   4 15624.2 3233.90   3
   7 -10   5 353.152 958.407   5
  -3  -7   5 413.672 1176.68   5
 -10   3   5 588.616 1047.43   6
 -10   7   5 508.072 946.713   6
   3 -10   5-499.047 1064.99   5
 -10   3   6 23104.3 1911.98   6
 -10   7   6 20226.3 1594.75   6
  -7  10   6 25441.0 1749.87   6
  10  -7   6 19916.9 1531.25   5
   7 -10   6 21943.3 1657.64   5
  -3  -7   6 27538.5 1820.00   5
   3 -10   6 23386.7 1859.06   5
  -3  -7   7 575.174 604.513   5
   3 -10   7-50.6333 742.481   5
  10  -7   7 1043.45 637.870   5
   7 -10   7 818.879 751.859   5
 -10   7   7 282.145 593.236   6
   3 -10   8 921.886 436.404   5
   2   8  -4 7675.18 3220.17   1
   8   2  -3 11902.3 3094.63   1
   8 -10  -3 9270.22 2521.10   2
  10  -8  -2 23043.9 3178.34   2
   8 -10  -2 23598.9 3121.96   2
   2   8  -1 1243.42 1425.09   3
   8 -10  -1 1698.32 1273.51   2
  10  -8  -1 270.509 1355.40   2
  -2  10  -1 1126.29 1385.61   3
  -2  10   0 32753.7 3470.96   3
  10  -8   0 38728.1 3865.37   2
  -8  -2   0 33579.1 3244.72   4
 -10   2   0 37037.3 3075.97   4
   2   8   0 33573.7 3727.15   3
   2   8   1 551.216 1657.33   3
 -10   2   1 669.085 1244.36   4
  -2  10   1 58.1082 1575.29   3
  -8  -2   1-1908.15 1453.67   4
 -10   2   2 30763.5 1981.64   8
  -8  -2   2 25523.6 1691.67   8
  -2  10   2 21947.6 3406.71   3
  -2  10   2 28155.5 1749.76   7
   2   8   2 26211.0 3569.39   3
  -8  -2   2 22359.6 3068.96   4
 -10   2   2 22278.7 3003.49   4
  -2  -8   2 23576.7 1756.08   8
 -10   2   3 12648.1 1392.44   8
 -10   2   3 13407.6 2600.29   4
  -8  -2   3 12546.6 1478.04   8
   2   8   3 12604.8 2849.04   3
  -2  -8   3 12439.2 1494.39   8
  -2  10   3 9403.94 1257.79   7
  -2  -8   3 15545.3 3060.79   4
  -8  -2   3 11487.8 1413.45   6
 -10   2   3 13017.9 1469.10   6
   8 -10   3 13575.1 1359.93   5
  -8  10   3 13076.8 3192.28   3
  -8  -2   3 16225.8 2858.50   4
  -2  10   3 11877.2 2711.37   3
  -8  -2   4 9333.17 1322.95   8
  -2  -8   4 12264.2 1467.34   8
  -2  10   4 11739.4 1516.13   7
   2   8   4 11169.3 1504.90   7
   8 -10   4 12134.7 1428.53   5
 -10   2   4 13561.1 1569.26   6
  -2  10   4 11941.8 3072.96   3
 -10   2   4 10333.7 2562.94   4
  -2  -8   4 13410.2 3187.57   4
  -8  -2   4 16315.4 2958.51   4
   8 -10   5 1681.78 974.714   5
  -2  -8   5 591.721 1176.97   5
   2 -10   5-695.673 1101.77   5
 -10   2   5-304.268 1029.60   6
 -10   8   5-42.6074 877.322   6
   8 -10   6 6036.83 1156.46   5
  -2  -8   6 8222.53 1300.74   5
   2 -10   6 6914.22 1280.25   5
 -10   2   6 8095.92 1326.55   6
 -10   8   6 6936.49 1096.61   6
  -8  10   6 8914.71 1196.33   6
  10  -8   6 7816.58 1131.35   5
  10  -8   7 459.781 611.601   5
   8 -10   7 1190.27 762.551   5
  -2  -8   7 681.965 605.232   5
   2 -10   7 745.619 682.399   5
 -10   8   7 405.248 591.676   6
  10  -9  -3 314.209 1690.75   2
   9 -10  -3 971.415 2007.66   2
 -10   1  -2 69949.0 2810.17   8
  10  -9  -2 73489.1 5372.62   2
   9 -10  -2 68411.5 5268.26   2
   1   9  -1 795.992 1389.50   3
   9 -10  -1 3460.07 1636.06   2
  10  -9  -1 2751.80 1658.52   2
  -1  10  -1 6059.19 1795.43   3
  -1  10   0 64782.8 4985.58   3
   1   9   0 67215.7 4969.56   3
  10  -9   0 76492.7 5242.83   2
  -9  -1   0 72714.1 4607.73   4
 -10   1   0 77073.5 4497.10   4
   1   9   1 2826.75 1746.00   3
  -9  -1   1 3124.38 827.777   8
 -10   1   1 3755.92 936.991   8
 -10   1   1 3784.26 1705.66   4
  -1  10   1 4313.82 1078.87   7
  -1  10   1 4287.85 1956.04   3
  -9  -1   1 2116.88 1455.61   4
 -10   1   2 80721.4 3050.90   8
  -9  -1   2 76170.7 2893.04   8
  -1  10   2 78537.8 2814.97   7
  -1  10   2 89933.8 6226.51   3
   1   9   2 74121.2 5773.06   3
  -9  -1   2 79726.4 2889.68   6
 -10   1   2 78703.4 2886.38   6
  -9  -1   2 74687.6 5181.35   4
 -10   1   2 77653.6 5253.17   4
  -1  -9   2 83393.2 2989.11   8
  -1  -9   3 608.638 1024.86   8
   1   9   3 113.664 1757.31   3
  -1  10   3-2476.11 2143.03   3
 -10   1   3 2991.21 1923.35   4
  -9  10   3 2767.77 2187.46   3
  -9  -1   3 246.590 918.325   8
 -10   1   3 601.459 914.007   8
   1   9   3 38.0530 932.842   7
  -9  -1   3 419.897 979.778   6
 -10   1   3-205.674 979.744   6
  -1  10   3 208.492 899.287   7
  -9  -1   3 953.226 1446.33   4
  -9  -1   4 671.695 822.672   8
 -10   1   4 1414.50 803.289   8
  -1  10   4 2607.07 1142.87   7
   1   9   4 805.203 980.522   7
   9 -10   4 1855.66 943.992   5
  -9  -1   4 1118.73 989.327   6
 -10   1   4 1549.87 1080.44   6
   9 -10   5 4182.17 1013.88   5
  -1  10   5 4917.02 1225.83   7
  -1  -9   5 5024.37 1415.13   5
   1 -10   5 3925.07 1340.44   5
 -10   1   5 2539.83 1102.15   6
 -10   9   5 1973.17 956.932   6
  10  -9   6 1770.54 839.369   5
   9 -10   6 849.424 852.768   5
   1 -10   6 875.211 959.157   5
  -1  -9   6 1554.57 1000.20   5
 -10   9   6 2088.49 879.923   6
  -9  10   6 814.341 811.413   6
  10  -9   7 2389.77 690.731   5
   9 -10   7 312.193 639.090   5
  -1  -9   7 700.529 585.466   5
 -10   9   7 1557.09 649.537   6
  -9  10   7 1482.38 657.125   6
   1 -10   7 528.317 641.246   5
  10 -10  -3 5641.02 2314.18   2
 -10   0  -2 69795.2 2776.57   8
  10 -10  -2 59310.4 5097.05   2
 -10   0  -1 20995.1 1771.58   8
   0  10  -1 19823.3 2904.62   3
  10 -10  -1 19688.2 2942.11   2
 -10   0   0 64751.4 2632.58   8
   0  10   0 52882.8 4555.35   3
 -10   0   0 54821.0 4014.49   4
 -10   0   1 24258.5 1798.89   8
   0  10   1 16458.8 3079.17   3
   0 -10   1 20192.1 1633.34   8
 -10   0   1 18518.7 2781.86   4
 -10   0   2 73143.7 2939.93   8
   0  10   2 67629.7 2780.70   7
   0  10   2 61498.8 5476.19   3
 -10   0   2 66656.6 2713.59   6
 -10   0   2 68738.7 5009.36   4
   0 -10   2 65845.3 2835.61   8
 -10   0   3 4202.38 1890.94   4
   0  10   3-52.6648 1958.58   3
   0  10   3 2512.84 1061.50   7
 -10   0   3 1448.80 990.372   6
 -10   0   3 2847.72 1120.55   8
 -10   0   4 1595.85 893.513   8
   0  10   4 1782.42 1048.64   7
 -10   0   4 1508.24 1049.37   6
   0  10   5 6051.34 1274.93   7
   0 -10   5 4384.81 1329.11   5
  10 -10   6 1120.09 735.499   5
   0 -10   6 671.674 896.837   5
 -10  10   6 267.920 815.416   6
  10 -10   7 779.630 552.220   5
   0 -10   7 724.458 569.448   5
 -10  10   7 2380.12 680.382   6
   6   5  -3 935.936 1952.36   1
   5   6  -3-1226.41 2274.95   1
   6   5  -2 2097.58 1698.93   1
   5   6  -2 1798.58 1690.80   1
  11  -6  -1 6159.95 2088.30   2
  -6  11  -1 7216.05 2329.44   3
  -5  11  -1 6634.30 2083.88   3
  -6  11   0 206711. 9183.90   3
  -5  11   0 205806. 9143.46   3
  11  -5   0 200324. 7914.27   2
  11  -6   0 197762. 8049.34   2
  -6  -5   0 204127. 7933.84   4
  11  -5   1 5596.73 1529.98   2
  -5  -6   1 7855.89 1172.92   8
  -6  -5   1 6763.44 1090.55   8
  -6  11   1 6682.63 2168.22   3
  -5  11   1 5079.62 1948.34   3
  -6  -5   1 6570.50 2066.34   4
  -5  -6   2 837.224 854.161   8
 -11   5   2 2144.20 896.266   8
 -11   6   2 2058.00 817.948   8
  -6  11   2 2403.05 855.836   7
  -5  11   2 1003.95 971.452   7
  -6  -5   2 1973.57 840.725   8
  -6  11   2 2453.29 2063.03   3
  -5  11   2 636.090 1702.40   3
 -11   5   2 3306.25 908.655   6
  -5  -6   2 1045.44 1579.21   4
 -11   6   2 1856.46 869.773   6
  -6  -5   2 2471.59 1636.71   4
  -5  -6   3-196.131 932.156   8
  -5  11   3-193.617 844.005   7
  -6  11   3 162.074 2092.97   3
 -11   5   3 1906.18 935.065   6
  -5  11   3-493.900 2006.44   3
 -11   6   3 1393.71 958.913   6
  -5  -6   3 2410.56 2019.92   4
  -6  -5   3 3184.44 1947.53   4
  -6  -5   3 128.063 929.770   8
  -5  -6   4 8060.97 1431.78   8
  -6  -5   4 5561.90 1249.77   8
   6 -11   4 6354.54 1327.23   5
 -11   5   4 8083.33 1263.51   6
 -11   6   4 7053.14 1276.03   6
  -6  -5   5 813.131 885.478   8
  -5  -6   5-292.950 798.525   8
   6 -11   5 1723.40 1051.84   5
   5 -11   5-543.026 995.298   5
 -11   5   5 1117.99 1101.35   6
 -11   6   5 69.0563 988.578   6
   5 -11   6 12772.5 1367.23   5
 -11   5   6 10814.0 1355.05   6
 -11   6   6 12476.1 1369.70   6
  -6  11   6 15994.1 1401.53   6
   6 -11   6 13006.3 1388.44   5
   6 -11   7-596.865 616.320   5
   5 -11   7-663.890 633.285   5
 -11   5   7-86.1462 556.712   6
 -11   6   7-186.607 537.802   6
   4   7  -3 14940.5 3353.21   1
   7   4  -3 12898.3 3020.30   1
   4   7  -2 9182.83 2612.91   1
   7   4  -2 9647.26 2226.57   1
  -7  11  -2 10252.8 2911.75   3
  11  -7  -1 3824.70 1823.89   2
  -4  11  -1 5927.14 2150.70   3
  -4  11   0 91993.3 6186.37   3
  11  -4   0 103262. 5767.20   2
  -7  -4   0 91038.0 5387.74   4
  11  -7   0 96169.6 5868.75   2
  -4  -7   1 1500.79 888.537   8
 -11   4   1 732.481 1231.80   4
  -7  -4   1 3231.78 927.979   8
  11  -4   1 1991.14 1224.33   2
 -11   4   1 1590.36 863.535   8
  -4  11   1 4238.83 1072.12   7
  -7  11   1 4014.65 1926.69   3
  -4  11   1 2924.30 1876.71   3
  -7  -4   1 2458.41 1583.66   4
  -4  -7   2 9776.32 1321.31   8
 -11   4   2 11803.3 2506.12   4
  -4  11   2 10372.5 1324.33   7
 -11   4   2 11241.0 1329.84   8
  -4  -7   2 11611.4 2444.94   4
  -7  11   2 7666.97 2523.05   3
 -11   4   2 9648.87 1285.67   6
  -4  11   2 9626.72 2661.49   3
  -7  -4   2 8169.77 2267.57   4
  -7  -4   2 9631.12 1271.53   8
 -11   4   3 19838.0 1537.82   8
 -11   4   3 19368.8 3006.79   4
  -4  11   3 16659.6 1584.76   7
 -11   4   3 20008.5 1740.82   6
 -11   7   3 19184.5 1617.51   6
  -7  11   3 21812.1 3839.23   3
  -4  -7   3 18460.7 3116.35   4
  -4  11   3 18964.4 3592.49   3
  -7  -4   3 14694.3 2873.93   4
  -4  -7   3 17119.1 1673.53   8
  -7  -4   3 17065.0 1654.89   8
  -4  -7   4 4795.79 1208.46   8
  -7  -4   4 2184.28 1082.63   8
   7 -11   4 3787.54 1167.10   5
   4   7   4 5001.68 1158.57   7
 -11   4   4 5253.91 1224.19   6
 -11   7   4 3785.14 1154.01   6
  -7  -4   5 2833.16 924.853   8
   7 -11   5 808.687 977.006   5
  -4  -7   5 1249.09 974.546   5
   4 -11   5 1383.91 1069.94   5
 -11   4   5 2864.18 1159.68   6
 -11   7   5 2148.59 1040.55   6
   4 -11   6 16967.9 1507.99   5
 -11   4   6 17250.8 1618.01   6
 -11   7   6 17497.8 1522.56   6
  -7  11   6 22734.7 1640.61   6
   7 -11   6 18956.0 1504.43   5
  -4  -7   6 21700.1 1441.99   5
   4 -11   7-367.872 577.424   5
   7 -11   7 26.5376 619.044   5
 -11   7   7-282.892 560.919   6
 -11   3  -3 2100.32 868.827   8
   8   3  -3 822.650 2166.68   1
   8 -11  -3 4364.30 2323.96   2
   3   8  -3 1183.26 2095.97   1
  11  -8  -2 38040.3 4139.77   2
  11  -8  -1 10746.5 2349.63   2
  -3  11  -1 12785.6 2505.86   3
  -8  -3   0 27088.8 1847.80   8
 -11   3   0 30126.1 1807.62   8
  11  -3   0 32275.3 3316.14   2
  -3  11   0 29705.1 3621.77   3
  11  -8   0 29135.4 3549.40   2
   3   8   0 34573.6 3803.17   3
  -8  -3   0 30463.2 3395.39   4
 -11   3   1 12826.3 1321.77   8
 -11   3   1 10105.8 2228.79   4
   3   8   1 13384.7 2925.09   3
  -3  11   1 13357.6 1451.98   7
  -3  11   1 12569.4 2759.56   3
  -8  -3   1 13963.3 2479.23   4
  -3  -8   1 11915.6 1404.87   8
  -8  -3   1 13974.7 1371.62   8
  -8  -3   2 33325.4 2003.87   8
  -8  11   2 39242.0 4388.13   3
 -11   3   2 41152.3 2316.20   8
  -3  11   2 38985.8 4495.32   3
  -3  11   2 33386.9 2020.73   7
 -11   3   2 38502.8 2114.37   6
   3   8   2 33983.1 4255.13   3
  -8  -3   2 31395.3 3597.29   4
 -11   3   2 35591.7 3755.81   4
  -3  -8   2 34352.1 2128.52   8
  -8  -3   3 2874.69 1824.29   4
  -8  -3   3 3855.54 1169.58   8
 -11   3   3 1081.48 827.834   8
 -11   3   3 1368.45 1608.43   4
  -3  11   3 2617.83 1057.19   7
  -8  11   3 6840.97 2914.22   3
 -11   3   3 2288.02 999.617   6
  -3  -8   3 2880.47 2061.70   4
  -3  11   3 212.159 1782.50   3
  -3  -8   3 4350.41 1178.13   8
  -3  -8   4 4122.79 1188.85   8
  -8  -3   4 3068.72 1078.75   8
  -3  11   4 6687.77 1284.54   7
   8 -11   4 4760.69 1147.33   5
   3   8   4 4299.88 1158.43   7
 -11   3   4 5218.35 1235.09   6
 -11   8   4 3967.20 1132.09   6
  -8  -3   5-479.529 779.627   8
   8 -11   5 501.218 884.723   5
  -3  -8   5-314.448 1097.93   5
   3 -11   5 26.3321 1029.24   5
 -11   3   5 319.391 975.891   6
 -11   8   5 577.690 919.005   6
 -11   3   6 11568.3 1408.66   6
 -11   8   6 10093.4 1211.47   6
  -8  11   6 13651.7 1383.85   6
   8 -11   6 10064.2 1208.37   5
  -3  -8   6 12846.8 1282.66   5
   3 -11   6 9584.44 1266.53   5
   8 -11   7 835.302 656.973   5
   3 -11   7-676.673 627.572   5
 -11   8   7-691.534 550.129   6
   9 -11  -3 10746.3 2928.23   2
  11  -9  -3 7802.02 2382.82   2
 -11   2  -2 33618.2 2100.39   8
  11  -9  -2 30946.3 3730.75   2
   9 -11  -2 33579.8 3903.38   2
  -9  -2  -1 7673.65 1280.86   8
 -11   2  -1 8113.81 1236.92   8
  11  -9  -1 9396.38 2348.81   2
  -2  11  -1 10091.1 2363.06   3
  -9  -2   0 22192.5 1722.13   8
   2   9   0 19238.4 3111.92   3
  -2  11   0 22460.8 1777.65   7
  11  -9   0 21758.6 3292.85   2
  -9  -2   0 18937.9 2708.34   4
  -2  11   0 20757.4 3147.23   3
 -11   2   0 20515.5 1648.66   8
  -2  -9   0 22797.5 1629.89   8
 -11   2   1 7027.35 1872.66   4
   2   9   1 6423.78 2373.13   3
  -9  -2   1 8367.02 1166.87   8
 -11   2   1 9093.65 1292.40   8
  -2  -9   1 10295.1 1361.22   8
  -2  11   1 9966.22 1345.57   7
  -2  11   1 7338.50 2421.27   3
  -9  -2   1 10283.8 2385.31   4
 -11   2   2 37550.8 2319.49   8
  -2  11   2 33828.1 2066.00   7
  -2  11   2 31968.7 4230.00   3
   2   9   2 34585.2 4273.57   3
 -11   2   2 35663.5 2103.22   6
  -9  -2   2 35120.6 3744.13   4
 -11   2   2 34199.5 3711.16   4
  -2  -9   2 35004.8 2219.53   8
  -9  -2   2 32073.6 2066.28   8
  -2  11   3 9476.06 3043.23   3
 -11   2   3 13331.0 2718.21   4
  -9  -2   3 11222.7 1517.15   8
 -11   2   3 10253.0 1411.95   8
  -2  -9   3 10368.6 1430.89   8
   2   9   3 14099.8 1561.28   7
   2   9   3 10452.4 2680.19   3
  -2  11   3 9519.92 1432.46   7
 -11   2   3 13090.4 1604.90   6
  -9  11   3 11185.0 3170.83   3
  -2  -9   3 11179.4 2778.99   4
  -9  -2   3 10359.0 2430.21   4
  -9  -2   4 8978.66 1394.99   8
  -2  11   4 11487.5 1512.47   7
   2   9   4 8476.44 1365.16   7
 -11   2   4 8314.94 1369.70   6
   9 -11   4 7493.13 1149.49   5
  -2  -9   4 10122.3 1458.08   8
   9 -11   5 3443.05 988.847   5
  -2  -9   5 3978.54 1204.78   5
   2 -11   5 3599.50 1175.05   5
 -11   2   5 2221.21 1043.76   6
 -11   9   5 2741.78 992.688   6
   9 -11   6 2728.06 852.853   5
  -2  -9   6 4349.34 997.108   5
   2 -11   6 4728.80 1015.33   5
 -11   9   6 2351.43 823.817   6
  -9  11   6 3000.45 937.797   6
   9 -11   7 383.563 549.608   5
   2 -11   7-86.8076 529.967   5
  -2  -9   7-378.475 456.869   5
 -11   9   7-401.387 555.389   6
  -9  11   7 780.587 577.875   6
  10 -11  -3 5967.38 2536.25   2
 -10  -1  -2 36934.5 2124.74   8
 -11   1  -2 33058.4 2160.26   8
  11 -10  -2 31570.3 4054.19   2
  10 -11  -2 33296.5 3962.09   2
  -1  11  -1 6941.01 2168.77   3
   1  10  -1 12184.1 2421.06   3
  11 -10  -1 8040.47 2249.72   2
 -10  -1  -1 8764.36 1360.36   8
 -11   1  -1 8417.18 1346.82   8
  -1  11  -1 8512.91 1286.12   7
  -1  11   0 8319.33 2371.70   3
 -11   1   0 10203.8 1368.98   8
  -1 -10   0 8175.84 1189.11   8
   1  10   0 9158.03 2561.49   3
 -10  -1   0 9569.92 1341.87   8
  -1  11   0 9297.51 1404.99   7
 -11   1   1 8621.34 2189.59   4
  -1 -10   1 7619.13 1288.23   8
   1  10   1 8684.46 2504.18   3
 -11   1   1 7741.02 1209.95   8
  -1  11   1 8200.40 1341.71   7
 -10  -1   1 7223.48 1222.16   8
 -10  -1   1 10412.7 2304.99   4
  -1  11   1 8197.00 2475.79   3
 -11   1   2 39603.4 2346.81   8
 -10  -1   2 35747.8 2225.80   8
  -1  11   2 37792.4 2269.08   7
   1  10   2 38875.4 2235.76   7
  -1  11   2 35244.5 4426.42   3
   1  10   2 33654.5 4431.99   3
 -11   1   2 37737.6 2143.55   6
 -10  -1   2 34000.5 3805.82   4
 -11   1   2 36286.2 3868.89   4
  -1 -10   2 39904.6 2314.61   8
 -10  -1   3 6725.14 1431.13   8
 -11   1   3 6070.01 1296.53   8
  -1 -10   3 7038.31 1336.44   8
  -1  11   3 4726.78 1296.73   7
   1  10   3 5641.24 1334.03   7
 -11   1   3 5557.43 1305.38   6
 -10  -1   4 12171.1 1454.73   8
   1  10   4 10812.6 1482.42   7
  -1  11   4 14697.4 1658.42   7
 -11   1   4 11279.5 1488.90   6
 -11   1   4 10609.0 1334.23   8
   1  10   5 6704.58 1220.69   7
  -1 -10   5 6389.03 1322.83   5
   1 -11   5 5317.00 1211.37   5
 -11   1   5 3798.14 1103.84   6
 -11  10   5 4692.98 1094.23   6
  10 -11   6 2067.77 771.762   5
  -1 -10   6 1415.20 843.431   5
   1 -11   6 2143.99 881.481   5
 -11  10   6 1247.20 774.860   6
 -10  11   6 2561.45 869.883   6
  -1 -10   7 1627.21 493.339   5
   1 -11   7 582.638 485.764   5
 -11  10   7 1576.27 609.103   6
 -10  11   7 1221.19 573.480   6
 -11   0  -2 13715.7 1521.67   8
  11 -11  -2 13609.4 2875.34   2
   0  11  -1-461.792 1880.00   3
 -11   0  -1 2308.34 1061.75   8
   0  11  -1 3223.01 1210.15   7
 -11   0   0 12226.6 1467.69   8
   0  11   0 12217.0 2554.93   3
   0  11   0 14847.9 1685.15   7
 -11   0   1 3385.37 1823.99   4
   0  11   1 662.069 2022.42   3
 -11   0   1 1260.45 889.379   8
   0  11   1 1468.38 1082.87   7
   0 -11   1 2737.21 1089.95   8
 -11   0   2 18155.3 1757.99   8
 -11   0   2 15915.1 2802.63   4
   0  11   2 14073.2 3108.39   3
   0  11   2 16155.2 1705.31   7
 -11   0   3 491.164 1142.26   8
   0  11   3-60.7837 1075.74   7
 -11   0   3-417.642 1066.28   6
   0  11   4 20748.2 1927.96   7
 -11   0   4 20878.3 1745.08   8
   0  11   5 7812.81 1187.13   7
   0 -11   5 6995.20 1261.69   5
 -11  11   5 5199.57 1065.35   6
   0 -11   6-158.565 701.453   5
 -11  11   6 2085.56 830.012   6
   0 -11   7 2549.69 489.732   5
 -11  11   7 3842.43 612.357   6
   6   6  -3-1403.56 2075.50   1
  -6  -6  -1 1913.38 899.851   8
  -6  12  -1 1880.85 1927.50   3
  12  -6  -1 1218.84 1476.91   2
  -6  12   0 303676. 11863.9   3
  -6  12   0 300684. 5480.53   7
  12  -6   0 300044. 10622.1   2
  -6  -6   0 306472. 5849.45   8
  -6  -6   0 318083. 10666.6   4
  -6  -6   1 2498.16 1066.59   8
  -6  12   1 1464.15 994.661   7
  -6  12   1 2538.33 1698.91   3
  -6  -6   1 1700.31 1865.50   4
  -6  -6   2 2080.65 974.019   8
 -12   6   2 3631.25 947.031   8
  -6  12   2 2621.27 1036.29   7
  -6  12   2 2096.57 2032.81   3
 -12   6   2 2603.97 958.920   6
  -6  -6   2 3489.94 2043.72   4
  -6  -6   3 707.147 1023.88   8
 -12   6   3 1001.16 967.374   6
  -6  12   3-1861.44 2374.93   3
  -6  -6   3 2728.68 2231.08   4
  -6  -6   4 2663.97 1128.38   8
 -12   6   4 2922.74 1118.49   6
  -6  -6   5 948.167 828.155   8
   6 -12   5-303.986 1030.88   5
 -12   6   5 1182.13 987.637   6
   6 -12   6 6480.78 1031.65   5
 -12   6   6 5264.57 1024.86   6
   6 -12   7-858.863 525.359   5
 -12   6   7-51.9226 473.824   6
   7   5  -3 2611.72 2544.33   1
   5   7  -3-477.642 1822.37   1
  12  -7  -2 42364.2 4633.97   2
  -5  -7  -1-786.625 999.756   8
  -7  -5  -1 1858.67 1057.93   8
  12  -5  -1-187.612 1591.78   2
  -7  12  -1 509.508 2060.83   3
  -5  12  -1-821.164 1597.88   3
  12  -7  -1 1132.90 1740.18   2
  -5  12   0 77243.2 6229.08   3
  -7  12   0 78242.6 6167.34   3
  -5  12   0 78324.2 2999.76   7
  12  -5   0 82549.9 5565.17   2
  12  -7   0 79236.8 5725.90   2
  -7  -5   0 77252.2 5416.62   4
  -5  -7   0 83205.6 3119.84   8
  -7  -5   0 82316.3 3200.41   8
  -5  -7   1-238.261 942.957   8
 -12   5   1-443.226 931.741   8
  -5  12   1 723.956 924.669   7
  -7  -5   1-296.271 859.536   8
  -7  12   1 1216.22 1777.28   3
  -5  12   1 383.845 1923.74   3
  -7  -5   1 1683.01 1645.58   4
 -12   5   2 51277.5 2443.70   8
 -12   7   2 44014.1 2090.00   8
  -5  -7   2 41970.3 2334.73   8
  -7  12   2 38336.3 4408.52   3
  -5  12   2 44869.1 4821.75   3
  -5  12   2 42823.3 2311.44   7
  -5  -7   2 52222.7 4825.62   4
 -12   5   2 44230.8 2266.94   6
  -7  -5   2 42779.9 4345.24   4
 -12   7   2 43656.8 2235.97   6
  -7  -5   2 40326.0 2270.63   8
  -5  -7   3 1530.22 1043.74   8
  -7  -5   3-497.029 1045.06   8
 -12   5   3 700.597 744.405   8
  -5  12   3 910.750 943.961   7
  -7  12   3 3948.83 2538.60   3
 -12   5   3 2218.93 1019.48   6
 -12   7   3 168.956 859.504   6
  -5  12   3-1913.24 2082.85   3
  -5  -7   3-885.061 2010.35   4
  -7  -5   3 1774.16 1642.21   4
  -7  -5   4 4187.69 1253.09   8
  -5  -7   4 5859.61 1356.46   8
   7 -12   4 5791.91 1345.10   5
   5   7   4 3539.71 967.385   7
 -12   5   4 4499.67 1175.47   6
 -12   7   4 4563.09 1188.43   6
  -7  -5   5 1727.56 898.652   8
   7 -12   5 673.182 997.744   5
   5 -12   5-74.3871 944.624   5
 -12   5   5-216.077 942.208   6
 -12   7   5-60.1774 903.766   6
  -5  -7   5 1628.61 962.700   8
 -12   5   6 15337.9 1406.39   6
 -12   7   6 14493.3 1338.18   6
  -7  12   6 18589.7 1416.22   6
   7 -12   6 16486.4 1399.18   5
   5 -12   6 14704.2 1355.62   5
   7 -12   7 195.429 507.610   5
   5 -12   7-145.771 531.048   5
 -12   7   7-101.066 463.362   6
   4   8  -3 6596.33 2574.60   1
  12  -8  -2 18656.0 3307.04   2
  -8  12  -1 2100.54 2270.56   3
  -8  -4  -1 266.497 936.873   8
  12  -8  -1 797.592 1517.78   2
  -4  12  -1 680.866 1647.92   3
 -12   4   0 41652.6 2219.38   8
  -8  12   0 39044.7 4543.99   3
  -4  12   0 45545.1 4753.66   3
  12  -4   0 49413.9 4287.70   2
  -4  12   0 42181.4 2318.50   7
  12  -8   0 41373.7 4253.46   2
  -8  -4   0 39400.7 3877.06   4
  -4  -8   0 36856.7 2159.88   8
  -8  -4   0 38976.4 2275.19   8
  -4  -8   1 1815.36 1028.29   8
 -12   4   1 1034.67 1549.71   4
 -12   4   1-466.298 998.781   8
  -8  -4   1 1750.77 1048.49   8
  -4  12   1 2108.17 1131.70   7
  -8  12   1 2520.84 1878.27   3
  -4  12   1 303.794 2052.22   3
  -8  -4   1 301.239 1663.91   4
 -12   4   2 24639.5 1889.95   8
 -12   4   2 20768.0 3183.17   4
  -4  12   2 22538.5 1838.08   7
  -4  -8   2 20768.6 3365.48   4
 -12   4   2 21703.7 1708.32   6
  -8  -4   2 20871.7 3221.32   4
  -8  12   2 19027.8 3286.15   3
  -4  12   2 22578.5 3823.73   3
  -4  -8   2 21125.9 1837.62   8
  -8  -4   2 21278.9 1776.32   8
  -4  -8   3 6895.61 1412.02   8
  -8  -4   3 5142.07 1228.97   8
 -12   4   3 6349.04 1078.51   8
  -4  12   3 7960.19 1307.13   7
 -12   4   3 6199.36 1251.83   6
 -12   8   3 6603.75 1199.60   6
  -4  -8   4 4928.71 1216.51   8
  -8  -4   4 3747.24 1143.91   8
   8 -12   4 4790.55 1235.01   5
   4   8   4 4178.19 1040.51   7
 -12   4   4 4997.85 1234.17   6
 -12   8   4 4233.02 1162.05   6
  -8  -4   5 1565.68 867.103   8
   8 -12   5 363.710 890.585   5
  -4  -8   5-1100.95 924.189   5
   4 -12   5 165.101 898.129   5
 -12   4   5-369.838 962.370   6
 -12   8   5 1184.35 1000.31   6
   4 -12   6 7118.02 1083.44   5
 -12   4   6 8155.39 1169.19   6
  -8  12   6 9866.94 1195.75   6
 -12   8   6 7289.85 1040.37   6
   8 -12   6 10124.3 1155.22   5
   4 -12   7 238.928 494.255   5
   8 -12   7 308.208 517.327   5
 -12   8   7-369.612 480.325   6
 -12   3  -3 10206.8 1422.42   8
 -12   3  -2 660.675 1038.29   8
  12  -9  -2 243.946 1656.97   2
  -9  -3  -1 13335.8 1505.92   8
 -12   3  -1 12232.4 1502.66   8
  -3  12  -1 11849.0 1517.62   7
  12  -9  -1 11385.7 2736.34   2
  -3  12  -1 12783.4 2720.13   3
  -9  -3   0 29881.9 2053.53   8
 -12   3   0 31677.7 2047.40   8
  -3  12   0 27076.1 3836.97   3
  -3  12   0 26321.1 1987.05   7
  -9  -3   0 27993.7 3323.70   4
  12  -9   0 32912.9 3927.78   2
  -3  -9   0 28806.7 1963.86   8
 -12   3   1 12529.6 1484.96   8
 -12   3   1 14131.1 2572.96   4
  -3  12   1 10860.4 1499.52   7
  -3  12   1 7170.33 2590.62   3
  -9  -3   1 9508.02 2626.68   4
  -3  -9   1 14480.8 1605.63   8
  -9  -3   1 11815.9 1414.13   8
  -9  -3   2 1621.22 1576.46   4
  -3  -9   2 2717.45 1140.74   8
 -12   3   2 2000.63 1832.47   4
 -12   3   2 2771.09 1114.79   8
  -9  -3   2 2400.27 1059.68   8
  -3  12   2 1092.76 1031.01   7
  -9  12   2 1520.52 1939.42   3
 -12   3   2 2032.00 932.385   6
  -3  12   2 713.608 1971.73   3
  -9  -3   3 9578.28 1518.16   8
  -3  12   3 11699.6 1524.76   7
   3   9   3 9667.10 1447.93   7
 -12   3   3 10142.8 1518.00   6
 -12   3   3 11034.1 1391.28   8
  -3  -9   3 11832.9 1533.92   8
  -3  12   4 44886.7 2371.45   7
   3   9   4 35399.6 2200.49   7
 -12   3   4 40789.0 2357.30   6
 -12   9   4 39642.5 2267.54   6
  -3  -9   4 35654.0 2287.02   8
   9 -12   4 40616.0 2174.48   5
  -9  -3   4 37676.9 2381.73   8
  -9  -3   5 1860.37 863.264   8
   9 -12   5 1420.72 856.471   5
  -3  -9   5 2045.36 1017.57   5
   3 -12   5-941.086 1019.09   5
 -12   3   5 826.646 943.872   6
 -12   9   5 1319.25 947.283   6
   9 -12   6 2504.66 775.131   5
  -3  -9   6 2821.95 732.141   5
   3 -12   6 1681.14 806.512   5
 -12   9   6 3007.73 850.193   6
  -9  12   6 3430.59 918.634   6
   9 -12   7 749.978 496.702   5
   3 -12   7 319.235 454.339   5
 -12   9   7 381.128 483.564   6
 -10  -2  -2 9017.57 1244.21   8
 -12   2  -2 7911.65 1399.25   8
  12 -10  -2 9034.07 2582.88   2
 -10  -2  -1 15089.7 1586.03   8
  -2  12  -1 12739.4 2560.52   3
  -2  12  -1 14519.5 1622.52   7
 -12   2  -1 15739.5 1735.95   8
  12 -10  -1 11953.4 2768.39   2
  -2  12   0 5940.39 2303.23   3
  -2 -10   0 4958.98 1088.42   8
   2  10   0 7103.85 2602.04   3
 -10  -2   0 4996.03 1185.72   8
 -12   2   0 5086.66 1221.42   8
  -2  12   0 4920.61 1232.29   7
 -10  -2   1 13601.9 1515.99   8
 -12   2   1 15364.2 1594.98   8
 -12   2   1 14887.3 2638.28   4
   2  10   1 11191.9 2858.11   3
  -2  12   1 13458.4 3044.30   3
  -2  12   1 15021.0 1650.86   7
  -2 -10   1 15640.4 1608.84   8
 -10  -2   1 12152.5 2631.88   4
  -2  12   2 8015.75 2660.95   3
 -12   2   2 9672.37 2377.99   4
 -10  -2   2 6909.63 2205.14   4
 -10  12   2 8937.23 2942.96   3
 -10  -2   2 8072.81 1357.97   8
   2  10   2 9999.58 2828.15   3
 -12   2   2 10132.9 1523.06   8
  -2  12   2 8286.58 1444.16   7
 -12   2   2 9621.83 1350.13   6
  -2 -10   2 11258.5 1521.16   8
  -2 -10   3 1046.39 1040.45   8
 -10  -2   3 1973.09 1166.68   8
 -12   2   3 1315.29 966.967   8
  -2  12   3 300.158 1077.39   7
   2  10   3 203.537 1027.52   7
 -12   2   3 296.330 1008.78   6
   2  10   4 29353.5 1994.81   7
 -12   2   4 27467.1 2091.86   6
 -12  10   4 29608.1 2000.15   6
 -10  -2   4 29451.5 2106.67   8
 -12   2   4 25453.0 1725.34   8
   2  10   5 502.412 773.659   7
  -2 -10   5-592.284 856.429   5
   2 -12   5-895.566 992.320   5
 -12   2   5 225.766 925.660   6
 -12  10   5 1593.15 906.552   6
  10 -12   6 2600.29 710.674   5
  -2 -10   6 1796.92 669.490   5
   2 -12   6 2231.15 794.619   5
 -12  10   6 1054.04 702.652   6
 -10  12   6 2581.86 865.803   6
   2 -12   7-332.557 435.362   5
 -12  10   7-268.792 478.654   6
 -11  -1  -2 21543.5 1749.29   8
 -12   1  -2 21820.1 1848.16   8
 -11  -1  -1 3976.21 1127.12   8
 -12   1  -1 6444.47 1353.07   8
  -1  12  -1 5884.63 1289.60   7
   1  11  -1 7980.54 1424.98   7
  -1  12   0 7308.91 2536.12   3
   1  11   0 4029.10 2385.77   3
 -11  -1   0 5698.45 1300.88   8
 -12   1   0 4417.28 1202.08   8
  -1  12   0 4464.39 1312.64   7
  -1 -11   0 4962.25 1131.37   8
  -1  12   1 6444.17 2558.12   3
  -1 -11   1 6076.85 1327.47   8
 -11  -1   1 5038.65 1173.74   8
 -12   1   1 5467.32 1249.09   8
  -1  12   1 6909.07 1366.24   7
   1  11   1 7581.44 1407.49   7
   1  11   1 4578.93 2395.94   3
 -11  -1   1 6018.17 1919.62   4
 -12   1   2 25723.7 2056.99   8
  -1  12   2 22157.6 1898.38   7
   1  11   2 25332.2 2011.75   7
 -12   1   2 20092.7 1646.73   6
  -1 -11   2 26032.6 2031.71   8
 -11  -1   2 23368.3 1985.63   8
 -11  -1   3 3178.31 1233.57   8
 -12   1   3 3394.66 1175.50   8
  -1  12   3 1699.18 1117.91   7
   1  11   3 2367.01 1197.20   7
 -12   1   3 1615.55 1064.30   6
 -11  -1   4 11218.4 1377.48   8
  -1  12   4 13085.1 1634.95   7
   1  11   4 12756.9 1531.73   7
 -12   1   4 10229.4 1422.58   6
 -12   1   4 11439.1 1266.70   8
   1  11   5 1736.57 817.572   7
  -1 -11   5 1610.30 913.222   5
   1 -12   5 1780.04 995.739   5
 -12  11   5 821.506 832.409   6
 -11  12   5 949.847 865.195   6
  -1 -11   6 1539.35 632.829   5
   1 -12   6 2835.66 744.124   5
 -12  11   6 1541.78 675.581   6
 -11  12   6 2230.86 771.543   6
 -12   0  -2 19979.5 1733.66   8
 -12   0  -1 1745.72 1129.75   8
   0  12  -1 560.392 1037.18   7
   0  12   0 209.543 1823.89   3
 -12   0   0 3535.77 1136.72   8
   0  12   0 3018.71 1268.69   7
 -12   0   1-479.867 1013.44   8
   0  12   1 1317.38 1144.34   7
   0  12   2 22954.6 2026.83   7
 -12   0   2 22135.9 1959.80   8
 -12   0   3 146.292 1023.53   8
   0  12   3-381.448 1103.66   7
   0  12   4 11502.6 1545.61   7
 -12   0   4 9475.56 1272.83   8
   0 -12   5 2488.37 929.407   5
 -12  12   5 4150.61 987.733   6
   0 -12   6 2417.42 618.660   5
 -12  12   6 2162.52 735.913   6
  13  -6  -2 49810.8 5211.11   2
  13  -7  -2 50706.3 5155.17   2
  -6  -7  -1 26396.7 1953.84   8
  -6  13  -1 28160.6 4149.31   3
  13  -6  -1 31324.3 3975.96   2
  13  -7  -1 27087.9 3733.58   2
  -7  13  -1 21575.2 3614.63   3
  -7  -6  -1 29036.6 2062.57   8
  -7  13   0 81974.3 6589.03   3
  -6  13   0 77167.6 6534.85   3
  -6  13   0 82643.3 3123.95   7
  -7  -6   0 87871.9 3432.18   8
  13  -6   0 85840.9 6197.31   2
  -6  -7   0 95656.9 6443.53   4
  13  -7   0 76771.4 6040.54   2
  -7  -6   0 91465.0 6234.00   4
  -6  -7   0 83226.9 3353.15   8
 -13   6   1 29184.3 1970.92   8
  -6  13   1 28966.4 4167.09   3
  -6  13   1 27900.4 2022.58   7
  -6  -7   1 27944.4 3976.84   4
  -7  -6   1 30937.3 4001.50   4
  -7  13   1 23563.5 3695.51   3
  -6  -7   1 24602.5 1993.43   8
  -7  -6   1 25023.6 1991.87   8
 -13   6   2 55013.6 2520.15   8
 -13   7   2 50277.8 2378.58   8
  -7  13   2 47411.5 5193.72   3
  -6  13   2 44953.0 4973.86   3
  -6  -7   2 50270.6 5085.77   4
 -13   6   2 53366.0 2498.30   6
 -13   7   2 51051.6 2430.43   6
  -7  -6   2 51188.3 4991.03   4
  -6  -7   2 48027.0 2591.54   8
  -7  -6   2 45010.8 2571.39   8
 -13   6   3 22021.6 1561.11   8
 -13   6   3 21527.0 1794.51   6
 -13   7   3 24387.1 1813.15   6
  -6  -7   3 22407.0 1936.78   8
  -7  -6   3 20935.0 1863.85   8
  -6  -7   4 7053.84 1386.41   8
  -7  -6   4 5196.03 1334.55   8
   7 -13   4 6360.53 1314.92   5
   6 -13   4 5861.23 1323.92   5
   6   7   4 4497.69 1016.97   7
 -13   6   4 4161.19 1151.57   6
 -13   7   4 4127.47 1141.94   6
  -7  -6   5 4027.58 1017.31   8
   7 -13   5 4148.11 1093.16   5
   6 -13   5 2925.99 1023.54   5
 -13   6   5 2638.69 1004.09   6
 -13   7   5 2387.75 976.992   6
  -6  -7   5 2736.67 977.785   8
   7 -13   6 4089.70 871.655   5
   6 -13   6 4798.77 873.682   5
 -13   6   6 4106.53 889.896   6
 -13   7   6 3935.83 862.245   6
  -7  13   6 5412.26 855.042   6
   7 -13   7 470.138 411.711   5
   6 -13   7 259.123 414.443   5
 -13   5  -3 9245.21 1331.52   8
  -8  -5  -1 6175.53 1303.59   8
  -8  13  -1 4916.84 2303.22   3
  13  -5  -1 6338.54 2400.51   2
  -5  13  -1 7297.69 3077.90   3
  13  -8  -1 5130.01 2132.33   2
 -13   5   0 60853.6 2761.29   8
  -8  13   0 57528.5 5640.68   3
  -5  13   0 55737.2 5639.11   3
  -5  13   0 57881.8 2798.32   7
  13  -5   0 65393.8 5366.81   2
  -8  -5   0 51699.4 4771.92   4
  13  -8   0 61280.6 5226.30   2
  -5  -8   0 52657.8 2714.62   8
  -8  -5   0 61695.0 2944.06   8
  -5  -8   1 5438.53 1326.44   8
  -8  -5   1 5733.62 1283.40   8
 -13   5   1 5921.50 1209.00   8
  -5  13   1 6705.44 1427.39   7
  -5  -8   1 6182.45 2427.98   4
  -8  13   1 6368.80 2356.65   3
  -5  13   1 3836.82 2327.84   3
  -8  -5   1 6503.33 2372.34   4
  -5  -8   2 7478.15 1363.26   8
  -8  -5   2 5704.10 1292.64   8
 -13   5   2 8448.00 1350.30   8
 -13   8   2 5922.26 1029.06   8
  -5  13   2 7645.46 1375.81   7
 -13   5   2 6608.88 1176.05   6
 -13   8   2 6851.35 1184.48   6
 -13   5   3 10518.4 1242.51   8
  -5  13   3 13260.9 1542.02   7
 -13   5   3 15301.2 1582.17   6
 -13   8   3 13180.9 1485.09   6
  -5  -8   3 13881.5 1637.79   8
  -8  -5   3 14259.0 1655.05   8
  -5  -8   4 5555.31 1282.66   8
  -8  -5   4 7314.10 1370.42   8
   8 -13   4 6384.69 1313.99   5
   5   8   4 3155.71 972.318   7
 -13   5   4 5089.59 1162.08   6
 -13   8   4 5978.08 1211.53   6
  -8  -5   5 309.722 779.757   8
   8 -13   5-418.835 868.844   5
   5 -13   5-255.108 936.348   5
 -13   5   5 10.4257 879.776   6
 -13   8   5 679.368 874.261   6
   8 -13   6 4903.61 851.559   5
   5 -13   6 5651.44 910.030   5
 -13   5   6 5858.68 961.890   6
 -13   8   6 6353.18 937.310   6
  -8  13   6 8132.88 991.614   6
   5 -13   7 411.217 408.162   5
 -13   8   7-1078.83 439.459   6
 -13   4  -3 471.665 952.707   8
 -13   4  -2 727.437 1085.74   8
  -9  -4  -1 2644.54 1159.78   8
 -13   4  -1 343.067 1102.89   8
  -4  13  -1 3207.57 1179.89   7
  -9  13  -1 3981.13 2292.40   3
  13  -4  -1 430.390 1670.71   2
  -4  13  -1 2005.35 2245.59   3
  13  -9  -1 1718.07 1985.50   2
 -13   4   0 14359.7 1594.63   8
  13  -9   0 12252.8 2723.25   2
  -4  13   0 14660.0 1760.99   7
  -9  13   0 13125.4 3241.83   3
  -4  13   0 13690.9 3236.10   3
  -4  -9   0 14883.8 1641.34   8
  -9  -4   0 14501.5 1722.30   8
  -4  -9   1 3475.27 1226.96   8
  -9  -4   1 3109.13 1193.25   8
 -13   4   1 3786.17 1178.44   8
  -4  13   1 3189.77 1222.43   7
  -9  13   1 3749.81 2139.08   3
  -4  13   1 3178.25 2438.83   3
  -9  -4   1 2142.07 1923.59   4
  -4  -9   2 6094.45 1411.70   8
  -9  -4   2 2773.94 1180.79   8
 -13   4   2 3389.01 1152.80   8
 -13   9   2 2750.34 888.640   8
  -4  13   2 3372.16 1231.64   7
 -13   4   2 2835.45 1046.08   6
 -13   9   2 1597.49 919.270   6
  -4  -9   3 2795.88 1098.85   8
  -9  -4   3 650.485 1039.74   8
 -13   4   3 902.491 879.802   8
  -4  13   3 1678.86 1127.26   7
 -13   4   3 1026.70 968.583   6
 -13   9   3 2008.70 1020.07   6
   4   9   4 25109.6 1731.76   7
 -13   4   4 27792.8 1944.09   6
 -13   9   4 24909.4 1928.75   6
  -4  -9   4 27566.7 1951.37   8
   9 -13   4 27528.2 1855.79   5
  -9  -4   4 29128.2 2119.23   8
  -9  -4   5 697.048 765.400   8
   9 -13   5 736.528 834.482   5
  -4  -9   5 284.617 702.096   5
   4 -13   5-369.997 846.504   5
 -13   4   5-189.093 846.354   6
 -13   9   5-205.481 835.445   6
   9 -13   6 4020.78 785.352   5
   4 -13   6 4921.83 847.094   5
 -13   9   6 3679.27 782.858   6
  -9  13   6 4659.69 896.812   6
   4 -13   7 313.801 376.501   5
 -13   3  -3 1958.10 1094.90   8
 -13   3  -2 8679.89 1412.40   8
 -10  -3  -1 3523.45 1153.58   8
 -13   3  -1 3351.13 1223.38   8
  -3  13  -1 1858.40 1133.54   7
 -13   3   0 11661.8 1572.56   8
 -10  -3   0 11486.5 1552.84   8
  -3  13   0 10508.5 1616.76   7
  -3 -10   0 12338.7 1476.29   8
  -3 -10   1 5119.45 1320.30   8
 -10  -3   1 3837.76 1164.75   8
 -13   3   1 4703.33 1232.10   8
  -3  13   1 2655.57 1223.23   7
 -10  -3   1 4372.17 1967.99   4
  -3 -10   2 9152.81 1465.06   8
 -10  -3   2 9924.93 1492.95   8
 -13   3   2 8214.11 1436.27   8
  -3  13   2 7014.31 1415.13   7
 -13   3   2 8490.45 1344.30   6
  -3 -10   3 2268.54 1110.61   8
 -10  -3   3-13.8719 1108.75   8
 -13   3   3 2278.09 1048.41   8
  -3  13   3 2293.52 1137.25   7
   3  10   3 2288.80 1137.98   7
 -13   3   3 2339.65 1088.17   6
 -13  10   3 897.515 997.781   6
  -3  13   4 24348.6 1853.61   7
   3  10   4 20445.9 1655.50   7
 -13   3   4 19693.0 1779.98   6
 -13  10   4 20457.1 1757.43   6
 -10  -3   4 20288.2 1942.58   8
 -10  -3   5 1064.82 723.235   8
  -3 -10   5-377.033 702.193   5
   3  10   5 860.973 727.116   7
   3 -13   5 254.862 808.817   5
 -13   3   5 585.614 817.371   6
 -13  10   5 888.553 816.218   6
  -3 -10   6 1391.97 510.356   5
   3 -13   6 1970.90 673.621   5
 -13  10   6 1234.17 656.917   6
 -10  13   6 1530.61 706.653   6
 -13   2  -3 1647.33 969.494   8
 -13   2  -2 14398.7 1615.43   8
 -11  -2  -2 11263.8 1391.89   8
 -11  -2  -1 5280.14 1262.22   8
 -13   2  -1 5647.75 1386.49   8
  -2  13  -1 4740.82 1290.44   7
  -2 -11   0 9971.58 1350.82   8
 -11  -2   0 8194.80 1448.04   8
 -13   2   0 10389.0 1485.66   8
  -2  13   0 7248.81 1407.84   7
  -2 -11   1 4664.25 1242.36   8
 -11  -2   1 5480.74 1265.21   8
 -13   2   1 6187.66 1350.62   8
  -2  13   1 4719.72 1277.59   7
 -13   2   2 13200.4 1623.10   8
 -11  -2   2 11432.7 1594.03   8
  -2  13   2 12493.1 1610.00   7
   2  11   2 11579.8 1546.15   7
 -13   2   2 10479.4 1300.23   6
  -2 -11   2 14073.6 1658.56   8
 -11  -2   3 1048.12 1129.08   8
 -13   2   3 988.687 982.153   8
  -2  13   3 2156.84 1215.56   7
   2  11   3 300.595 1013.85   7
 -13   2   3-346.798 953.869   6
  -2  13   4 16165.7 1663.28   7
   2  11   4 12086.5 1469.21   7
 -13   2   4 10053.2 1349.88   6
 -13  11   4 14271.0 1480.88   6
 -11  -2   4 13395.2 1570.65   8
 -13   2   4 12937.2 1278.81   8
   2  11   5 107.530 645.921   7
  -2 -11   5-290.388 687.164   5
   2 -13   5-399.689 792.431   5
 -13  11   5 623.759 776.219   6
  -2 -11   6 1307.12 487.338   5
   2 -13   6 2201.51 638.267   5
 -13  11   6 1864.36 655.921   6
 -11  13   6 2397.65 713.875   6
 -12  -1  -2 12669.4 1408.79   8
 -13   1  -2 13166.2 1542.84   8
 -12  -1  -1 4160.14 1205.03   8
 -13   1  -1 5634.85 1358.90   8
  -1  13  -1 4163.55 1233.28   7
   1  12  -1 7559.04 1374.77   7
 -12  -1   0 1847.00 1093.58   8
 -13   1   0 1221.82 1080.42   8
  -1  13   0 1336.69 1269.94   7
   1  12   0 1486.56 1168.23   7
 -12  -1   1 3531.62 1148.70   8
 -13   1   1 2101.31 1093.41   8
  -1  13   1 3937.58 1245.20   7
   1  12   1 5230.77 1339.10   7
 -13   1   2 14470.3 1700.09   8
   1  12   2 14109.1 1692.08   7
  -1  13   2 11667.4 1624.52   7
 -12  -1   2 13105.0 1746.50   8
 -12  -1   3 2855.30 1208.70   8
 -13   1   3 4575.60 1188.35   8
  -1  13   3 3896.78 1305.67   7
   1  12   3 1889.38 1142.73   7
  -1  13   4 13944.5 1552.24   7
   1  12   4 14692.2 1538.80   7
 -13  12   4 11768.7 1321.79   6
 -12  -1   4 14673.5 1437.64   8
 -13   1   4 11259.4 1221.38   8
  -1 -12   5-890.800 729.372   5
   1 -13   5 134.566 776.768   5
 -13  12   5 669.737 717.487   6
 -12  13   5 389.191 743.415   6
  -1 -12   6 3167.32 554.230   5
   1 -13   6 3701.13 636.885   5
 -13  12   6 3680.01 681.274   6
 -12  13   6 3322.59 693.661   6
 -13   0  -2 26919.0 1866.71   8
 -13   0  -1-781.873 1099.52   8
   0  13  -1-769.570 1040.65   7
 -13   0   0 4670.89 1277.05   8
   0  13   0 9089.41 1565.56   7
 -13   0   1-245.070 1076.81   8
   0  13   1-119.217 1177.55   7
   0  13   2 28023.4 2141.21   7
 -13   0   2 32120.8 2223.28   8
 -13   0   3 9524.20 1512.10   8
   0  13   3 5773.22 1323.90   7
 -13   0   4 3310.78 876.966   8
   0  13   4 4454.71 1068.95   7
   0 -13   5-818.944 673.312   5
 -13  13   5-29.1365 659.144   6
 -13  13   6 8995.08 808.874   6
   0 -13   6 9517.82 712.228   5
 -14   7  -4 33407.6 2297.05   8
  -7  -7  -1-83.0483 993.704   8
  -7  -7   0 177482. 5010.15   8
  -7  -7   1 202.256 1160.83   8
 -14   7   1-425.014 973.396   8
 -14   7   2 11241.3 1323.88   8
  -7  -7   2 9837.72 1471.16   8
 -14   7   2 10191.5 1278.43   6
  -7  -7   3 1100.98 1100.47   8
 -14   7   3 925.386 793.927   8
 -14   7   3-93.1991 891.935   6
   7   7   4 34184.1 1858.75   7
 -14   7   4 37830.9 2169.05   6
  -7  -7   4 38932.0 2260.95   8
   7 -14   4 40963.4 2311.88   5
   7 -14   5-494.654 790.134   5
 -14   7   5-279.046 814.731   6
   7 -14   6 1335.08 580.599   5
 -14   7   6 574.221 590.683   6
 -14   6  -3 4467.02 1142.24   8
  -6  -8  -1 1001.01 1001.10   8
  -8  -6  -1 20.8385 1000.45   8
 -14   6   0 17229.4 1715.78   8
  -6  -8   0 14637.0 1716.86   8
  -8  -6   0 14407.1 1779.29   8
  -6  -8   1 773.611 1108.68   8
  -8  -6   1 26.7342 1110.16   8
 -14   6   1 284.738 966.441   8
 -14   6   2 24393.4 1835.69   8
 -14   8   2 24706.9 1749.34   8
 -14   6   2 23569.2 1808.79   6
 -14   8   2 22811.1 1759.38   6
  -6  -8   2 22666.1 2017.17   8
  -8  -6   2 20468.1 1878.45   8
  -6  -8   3 7648.45 1384.42   8
  -8  -6   3 7546.20 1380.03   8
 -14   6   3 5497.78 990.837   8
 -14   6   3 6192.17 1171.47   6
 -14   8   3 7138.16 1218.37   6
  -6  -8   4 3664.55 1113.28   8
  -8  -6   4 5376.45 1334.20   8
   8 -14   4 3924.77 1151.13   5
   6 -14   4 3633.98 1162.86   5
   6   8   4 2671.30 909.703   7
 -14   6   4 2771.09 1020.62   6
 -14   8   4 1839.28 987.117   6
  -8  -6   5 1531.66 836.799   8
   8 -14   5 1558.65 866.517   5
   6 -14   5 877.539 766.290   5
 -14   6   5 1264.28 840.052   6
 -14   8   5 2283.72 884.103   6
   8 -14   6 3811.17 669.501   5
   6 -14   6 3761.44 723.757   5
 -14   6   6 2295.30 671.551   6
 -14   8   6 2249.89 649.693   6
  -8  14   6 3112.28 584.445   6
 -14   5  -3-1151.68 1087.32   8
 -14   5  -2 33922.0 2329.42   8
  -9  -5  -1 4335.38 1258.88   8
 -14   5  -1 3389.92 1207.81   8
  -5  -9   0 4031.34 1234.49   8
  -9  -5   0 3457.97 1274.98   8
 -14   5   0 2662.41 1131.04   8
  -5  14   0 3177.55 1165.79   7
  -5  -9   1 7172.32 1512.05   8
  -9  -5   1 4634.05 1278.94   8
 -14   5   1 6329.61 1292.26   8
  -5  14   1 5742.17 1397.57   7
 -14   5   2 37255.0 2193.15   8
 -14   9   2 38130.3 2009.77   8
  -5  14   2 39510.8 2376.02   7
 -14   5   2 37322.2 2166.99   6
 -14   9   2 38793.3 2103.98   6
  -5  -9   2 37844.7 2447.53   8
  -9  -5   2 37040.6 2322.46   8
  -5  -9   3 477.085 951.701   8
  -9  -5   3-766.763 1140.97   8
 -14   5   3 384.984 738.900   8
   9 -14   3 66.8927 851.391   5
 -14   5   3 139.264 948.633   6
 -14   9   3 446.694 890.387   6
  -5  -9   4 3667.34 1066.78   8
  -9  -5   4 4508.58 1289.90   8
   9 -14   4 2929.23 946.854   5
   5   9   4 2763.81 916.911   7
  -5  -9   4 3003.69 836.148   5
 -14   5   4 2712.13 1001.79   6
 -14   9   4 1521.57 964.696   6
  -9  -5   5 1633.17 763.766   8
   9 -14   5 1370.38 723.128   5
   5 -14   5 399.239 760.257   5
 -14   5   5 246.930 743.006   6
 -14   9   5 1465.63 801.994   6
   9 -14   6 4283.48 634.910   5
   5 -14   6 5177.03 741.166   5
 -14   9   6 4443.60 726.466   6
  -9  14   6 4803.19 697.812   6
 -14   4  -3 3598.95 1146.97   8
 -14   4  -2 13755.7 1715.18   8
 -10  -4  -1 1511.47 1098.43   8
 -14   4  -1 801.375 1132.59   8
  -4  14  -1 440.125 946.430   7
 -10  -4   0 11022.8 1640.57   8
 -14   4   0 9183.96 1440.61   8
  -4  14   0 9191.86 1524.53   7
  -4 -10   0 11740.1 1545.30   8
  -4 -10   1 3159.59 1271.16   8
 -10  -4   1 445.467 1192.96   8
 -14   4   1 1440.20 1053.50   8
  -4  14   1 2672.45 1380.84   7
 -14   4   2 14035.7 1560.24   8
 -14  10   2 12651.6 1295.82   8
 -10  -4   2 11421.5 1515.42   8
  -4  14   2 14467.3 1695.29   7
 -14   4   2 12049.9 1422.88   6
 -14  10   2 14585.6 1433.35   6
  -4 -10   2 14767.9 1712.33   8
  -4 -10   3 5129.33 1211.68   8
 -10  -4   3 1687.94 1131.66   8
 -14   4   3 3093.17 919.573   8
  -4  14   3 4393.14 1251.41   7
   4  10   3 3140.91 1135.68   7
 -14   4   3 4223.39 1115.85   6
 -14  10   3 3719.60 1075.78   6
 -10  -4   4 9204.90 1429.84   8
   4  10   4 6023.70 1045.29   7
 -14  10   4 9795.21 1321.50   6
 -14   4   4 7836.97 1206.14   6
 -10  -4   5 1449.56 667.715   8
  -4 -10   5 77.9343 557.682   5
   4 -14   5-326.050 789.388   5
 -14   4   5-963.230 797.055   6
 -14  10   5-353.611 722.257   6
   4 -14   6 1900.99 576.997   5
 -14  10   6 1262.11 564.194   6
 -10  14   6 2866.50 633.611   6
 -14   3  -3 3356.92 1037.38   8
 -14   3  -2 17528.9 1807.94   8
 -11  -3  -1 1049.22 1016.94   8
 -14   3  -1 1065.57 1176.28   8
  -3  14  -1 769.455 988.204   7
  -3 -11   0 5497.56 1261.86   8
 -11  -3   0 5857.58 1347.28   8
 -14   3   0 6351.71 1338.92   8
  -3  14   0 4635.47 1356.28   7
  -3 -11   1 1601.49 1181.77   8
 -11  -3   1 2038.70 1104.92   8
 -14   3   1 251.476 976.323   8
  -3  14   1 2162.68 1312.28   7
 -14   3   2 13936.9 1651.25   8
 -14  11   2 14590.0 1337.37   8
  -3  14   2 16639.4 1807.90   7
   3  11   2 15328.1 1714.99   7
  -3 -11   2 16784.7 1732.49   8
 -14   3   2 13373.6 1353.12   6
 -11  -3   2 16103.5 1743.97   8
 -11  -3   3-660.146 1218.27   8
 -14   3   3 470.918 898.019   8
  -3  14   3 1155.79 1075.25   7
   3  11   3 2552.21 1180.61   7
 -14   3   3 264.218 921.143   6
 -14  11   3 674.965 906.642   6
   3  11   4 6185.61 1080.99   7
 -14  11   4 8297.68 1239.10   6
 -11  -3   4 10766.7 1424.93   8
 -14   3   4 8369.09 975.699   8
 -11  -3   5 1005.02 600.098   8
  -3 -11   5-86.4244 564.392   5
   3  11   5 1131.69 618.549   7
   3 -14   5 64.3992 731.687   5
 -14  11   5 400.641 663.338   6
   3 -14   6 2828.57 587.891   5
 -14  11   6 1895.10 569.324   6
 -11  14   6 2136.64 589.837   6
 -14   2  -2 18519.8 1749.82   8
 -12  -2  -2 16362.5 1586.26   8
 -12  -2  -1 1049.95 1015.72   8
 -14   2  -1 1714.29 1175.87   8
  -2  14  -1 914.432 961.995   7
   2  12  -1 628.235 1013.53   7
 -12  -2   0 4130.36 1343.79   8
 -14   2   0 4517.61 1341.98   8
  -2  14   0 5191.04 1388.57   7
   2  12   0 4237.52 1251.77   7
 -12  -2   1 897.793 1032.28   8
 -14   2   1-531.124 1066.75   8
  -2  14   1-138.930 1168.56   7
   2  12   1 1350.91 1223.13   7
 -14   2   2 16418.5 1697.17   8
  -2  14   2 17381.8 1819.49   7
   2  12   2 17810.1 1785.67   7
 -12  -2   2 17614.3 1800.86   8
 -12  -2   3 533.337 1107.61   8
 -14   2   3 831.733 969.007   8
  -2  14   3 44.9908 1072.50   7
   2  12   3-388.827 1104.05   7
 -14  12   3 6.68093 880.667   6
 -12  -2   4 4968.93 1079.39   8
 -14   2   4 3901.62 834.987   8
   2  12   4 4022.23 1020.90   7
 -14  12   4 4802.61 1053.16   6
  -2 -12   5-11.1095 588.702   5
   2 -14   5 603.868 721.373   5
 -14  12   5-3.77126 630.747   6
 -12  14   5-662.983 711.728   6
   2 -14   6 2192.10 498.494   5
 -14  12   6 2342.60 527.049   6
 -12  14   6 2353.99 526.548   6
 -13  -1  -2 4537.99 1048.64   8
 -14   1  -2 4521.39 1038.56   8
 -13  -1  -1 1919.02 987.260   8
 -14   1  -1 2345.17 1160.99   8
  -1  14  -1 3128.22 1106.19   7
   1  13  -1 2584.10 993.769   7
 -14   1   0 15598.4 1745.28   8
  -1  14   0 15995.1 1841.56   7
   1  13   0 17259.1 1911.24   7
 -13  -1   0 16995.0 1834.16   8
 -13  -1   1 2440.47 1113.06   8
 -14   1   1 2774.59 1201.64   8
  -1  14   1 1862.58 1229.50   7
   1  13   1 3127.25 1277.95   7
 -13  -1   2 6901.10 1367.23   8
 -14   1   2 8552.66 1349.67   8
  -1  14   2 6137.03 1341.70   7
   1  13   2 5080.31 1267.09   7
 -13  -1   3-1224.04 1156.31   8
 -14   1   3 461.772 899.302   8
  -1  14   3-352.473 992.208   7
   1  13   3-314.455 1124.36   7
 -13  -1   4 5230.90 953.965   8
 -14   1   4 4269.70 822.788   8
  -1  14   4 6812.66 1126.16   7
   1  13   4 5546.18 1054.52   7
 -14  13   4 4883.94 931.712   6
  -1 -13   5-26.5248 573.450   5
   1 -14   5 209.790 610.350   5
 -14  13   5 1048.49 610.512   6
 -13  14   5 88.1960 566.720   6
 -14   0  -2 1861.72 886.598   8
 -14   0  -1 5771.40 1287.94   8
   0  14  -1 5946.71 1126.29   7
   0  14   0 27637.5 2133.44   7
 -14   0   0 27501.9 2084.48   8
 -14   0   1 4317.24 1161.21   8
   0  14   1 4892.79 1282.31   7
 -14   0   2 2224.59 1079.27   8
   0  14   2 1144.77 1049.03   7
 -14   0   3 2854.17 1085.31   8
   0  14   3 5299.37 1186.67   7
 -14   0   4 5414.24 823.606   8
   0  14   4 7817.93 1055.12   7
 -14  14   4 6426.44 892.490   6
   0 -14   5 569.106 563.160   5
 -14  14   5 912.928 512.988   6
 -15   7  -4 15479.9 1715.49   8
 -15   8  -4 11914.0 1528.34   8
 -15   7  -3-2892.22 1257.69   8
 -15   7  -2 5795.86 1257.33   8
  -7  -8  -1 12208.7 1598.72   8
  -8  -7  -1 11469.1 1512.85   8
 -15   7  -1 9001.75 1469.25   8
  -7  -8   0 12572.2 1670.06   8
  -8  -7   0 12422.2 1670.36   8
 -15   7   0 10196.1 1536.48   8
  -7  -8   1 10368.3 1600.64   8
  -8  -7   1 9421.16 1614.20   8
 -15   7   1 11161.9 1474.93   8
 -15   8   1 10733.6 1462.61   8
  -7  -8   2 7933.00 1500.91   8
  -8  -7   2 5132.32 1293.68   8
 -15   7   2 7859.75 1220.74   8
 -15   8   2 6250.21 1062.84   8
 -15   7   2 7548.90 1146.15   6
 -15   8   2 6429.71 1092.41   6
  -7  -8   3 1122.84 1074.88   8
  -8  -7   3 1944.43 1079.91   8
 -15   7   3-870.419 719.062   8
 -15   7   3 362.583 875.441   6
 -15   8   3-228.461 864.511   6
   7   8   4 13986.6 1368.45   7
   8   7   4 12947.9 1291.91   7
 -15   7   4 14753.0 1391.89   6
 -15   8   4 16078.6 1485.97   6
  -7  -8   4 15774.2 1511.23   8
   8 -15   4 16547.6 1432.20   5
  -8  -7   4 14251.5 1618.41   8
   7 -15   4 15256.2 1542.29   5
   8 -15   5 393.831 628.100   5
   7 -15   5-483.199 725.919   5
 -15   7   5-937.016 717.383   6
 -15   8   5-832.349 719.548   6
   7 -15   6 315.030 404.275   5
 -15   8   6 244.633 432.114   6
 -15   6  -3 7128.90 1249.79   8
 -15   6  -2 8344.37 1451.28   8
  -9  -6  -1 1308.75 1025.11   8
 -15   6  -1 858.752 1064.54   8
  -9  -6   0 3628.39 1253.02   8
 -15   6   0 4871.29 1283.36   8
  -6  -9   1 2663.77 1280.32   8
  -9  -6   1 1877.52 1186.62   8
 -15   6   1 1189.53 1110.45   8
 -15   9   1 1035.94 952.996   8
 -15   6   2 10698.1 1363.19   8
 -15   9   2 10507.6 1225.51   8
  -9  -6   2 8673.38 1434.93   8
 -15   9   2 11060.1 1235.84   6
  -6  -9   2 12501.4 1590.55   8
 -15   6   3 8467.29 1052.16   8
  -6  -9   3 9025.07 1369.49   8
  -9  -6   3 7926.51 1431.34   8
   9 -15   3 8499.63 1153.72   5
   6   9   3 9837.34 1380.26   7
 -15   6   3 9370.92 1258.47   6
 -15   9   3 8873.96 1229.75   6
   6   9   4 10561.1 1196.94   7
   9   6   4 11707.5 1216.61   7
  -9  -6   4 14229.1 1590.58   8
 -15   6   4 10949.0 1266.41   6
 -15   9   4 12798.2 1373.72   6
  -6  -9   4 11519.4 1376.77   8
   9 -15   4 11199.3 1209.28   5
   6 -15   4 12564.8 1404.86   5
   9 -15   5 4055.27 731.148   5
   6 -15   5 3796.42 828.294   5
 -15   6   5 4319.57 862.712   6
 -15   9   5 3839.17 846.388   6
   6 -15   6 2185.55 498.402   5
 -15   9   6 2089.16 504.967   6
 -15   5  -3 5700.73 1184.64   8
 -15   5  -2 21977.7 1945.30   8
 -10  -5  -1 1216.57 977.830   8
 -15   5  -1 1296.34 1125.32   8
  -5 -10   0 3124.69 1210.06   8
 -10  -5   0 36.4048 1087.54   8
 -15   5   0 843.244 1036.20   8
  -5  15   0 715.072 1015.09   7
  -5 -10   1 2252.41 1192.69   8
 -10  -5   1-816.264 1220.28   8
 -15   5   1 2271.56 1133.15   8
  -5  15   1 833.998 1114.08   7
 -15   5   2 21966.6 1776.04   8
 -15  10   2 21455.9 1603.00   8
 -15  10   2 22294.0 1664.78   6
  -5 -10   2 24233.2 1946.02   8
 -10  -5   2 19670.4 1826.31   8
  -5 -10   3 5238.00 1197.77   8
 -10  -5   3 3644.17 1253.39   8
 -15   5   3 4497.66 948.980   8
   5  10   3 5456.94 1205.11   7
 -15   5   3 3877.47 972.461   6
 -15  10   3 4543.14 1052.70   6
   5  10   4 4889.27 989.251   7
   5 -15   4 7121.63 1160.41   5
 -15   5   4 7076.02 1088.25   6
 -15  10   4 7551.11 1178.76   6
   5 -15   5 4378.95 849.127   5
 -15  10   5 5353.76 863.417   6
 -10  -5   5 6008.72 797.148   8
   5 -15   6 2885.88 500.399   5
 -15  10   6 2542.17 507.315   6
 -15   4  -3 1243.23 923.468   8
 -15   4  -2 24624.1 2017.47   8
 -11  -4  -1 6432.99 1258.41   8
 -15   4  -1 8111.21 1480.38   8
  -4 -11   0 4881.69 1207.53   8
 -11  -4   0 2856.55 1255.03   8
 -15   4   0 3075.76 1193.43   8
  -4  15   0 2601.84 1215.54   7
  -4 -11   1 7255.23 1417.50   8
 -11  -4   1 6109.56 1406.14   8
 -15   4   1 7497.96 1342.72   8
  -4  15   1 6561.78 1413.75   7
 -15   4   2 23631.4 1831.52   8
 -15  11   2 24242.1 1580.40   8
  -4  15   2 24839.2 2009.22   7
   4  11   2 25114.9 1997.93   7
 -15  11   2 25110.7 1691.03   6
  -4 -11   2 25629.7 1979.17   8
 -11  -4   2 21905.6 1881.86   8
 -11  -4   3-1361.45 1111.02   8
 -15   4   3-27.0680 731.939   8
   4  11   3 268.247 1006.46   7
 -15   4   3-886.688 808.698   6
 -15  11   3-132.774 827.077   6
 -11  -4   4 4435.50 1068.96   8
   4  11   4 2389.13 866.978   7
  -4 -11   4 2454.23 750.246   5
 -15  11   4 3886.44 899.502   6
 -11  -4   5 881.412 501.660   8
   4 -15   5 165.712 633.030   5
 -15  11   5 1194.70 645.314   6
 -11  15   5 926.340 672.156   6
   4 -15   6 1003.77 406.495   5
 -15  11   6 1272.34 400.082   6
 -15   3  -3-1432.66 933.394   8
 -15   3  -2 18797.4 1802.85   8
 -12  -3  -1 4943.02 1175.91   8
 -15   3  -1 6771.00 1482.80   8
   3  12  -1 5746.18 1303.07   7
 -15   3   0 21233.9 1883.46   8
  -3  15   0 23422.8 2011.13   7
   3  12   0 25081.0 2067.13   7
 -12  -3   0 23896.4 2014.88   8
 -12  -3   1 5799.60 1307.02   8
 -15   3   1 4405.64 1149.28   8
  -3  15   1 6859.00 1418.23   7
   3  12   1 5188.18 1343.31   7
 -15   3   2 16176.7 1617.13   8
  -3  15   2 19399.4 1852.99   7
   3  12   2 20269.7 1836.08   7
 -15  12   2 18161.7 1493.00   6
 -12  -3   2 15487.5 1739.05   8
 -12  -3   3 188.627 1004.61   8
 -15   3   3 688.071 773.926   8
  -3  15   3 655.730 1011.95   7
   3  12   3 269.762 971.884   7
 -15  12   3 481.428 838.448   6
 -12  -3   4 1802.85 907.613   8
   3  12   4 2019.44 809.083   7
  -3 -12   4 939.410 679.048   5
 -15  12   4 1473.69 767.714   6
  -3 -12   5 158.714 441.361   5
   3 -15   5 77.0540 601.162   5
 -15  12   5 342.619 533.190   6
 -12  15   5-132.867 588.081   6
 -13  -2  -2 7140.65 1105.74   8
 -15   2  -2 3310.42 961.020   8
 -13  -2  -1 1499.01 1013.20   8
 -15   2  -1-369.551 1090.22   8
  -2  15  -1 567.678 875.186   7
   2  13  -1 1669.26 943.081   7
 -15   2   0 42020.2 2469.50   8
  -2  15   0 49723.9 2739.99   7
   2  13   0 53722.0 2760.79   7
 -13  -2   0 44258.9 2612.68   8
 -13  -2   1 289.689 984.356   8
 -15   2   1-230.882 946.998   8
  -2  15   1 1521.80 1166.39   7
   2  13   1 2666.24 1270.73   7
 -13  -2   2 4967.54 1286.09   8
 -15   2   2 5273.33 1177.12   8
  -2  15   2 6768.93 1354.34   7
   2  13   2 6157.48 1317.17   7
 -15  13   2 6089.27 1058.68   6
 -13  -2   3-1029.12 1096.82   8
 -15   2   3 498.423 814.585   8
  -2  15   3 965.791 965.500   7
   2  13   3-134.144 941.694   7
 -15  13   3 777.973 791.399   6
 -13  -2   4 1956.69 766.165   8
 -15   2   4 1617.71 611.440   8
   2  13   4 2041.85 804.537   7
  -2 -13   4 1935.72 796.221   5
   2 -15   4 2057.19 846.664   5
 -15  13   4 2519.85 753.721   6
  -2 -13   5-23.4628 448.575   5
   2 -15   5-537.060 582.399   5
 -15  13   5-200.715 472.590   6
 -13  15   5-32.7753 486.773   6
 -14  -1  -2 5662.66 1002.57   8
 -15   1  -2 3952.42 967.105   8
 -14  -1  -1-49.2270 860.763   8
 -15   1  -1-157.722 1009.64   8
  -1  15  -1 395.249 813.506   7
   1  14  -1 1018.50 856.527   7
 -15   1   0 18296.4 1775.19   8
  -1  15   0 20873.6 1852.68   7
   1  14   0 16264.3 1764.66   7
 -14  -1   0 17639.7 1749.24   8
 -14  -1   1 992.946 1016.05   8
 -15   1   1-108.499 1025.80   8
  -1  15   1 245.530 1093.32   7
   1  14   1 751.825 1147.83   7
 -14  -1   2 7482.14 1323.00   8
 -15   1   2 5969.52 1169.05   8
  -1  15   2 5253.63 1225.84   7
   1  14   2 4607.30 1157.42   7
 -15  14   2 5349.55 936.531   6
 -14  -1   3-1427.53 932.690   8
 -15   1   3-69.3760 792.087   8
  -1  15   3 1258.75 931.397   7
   1  14   3 744.649 913.200   7
 -15  14   3 49.0007 648.129   6
 -14  -1   4 1835.99 633.731   8
 -15   1   4 1416.09 532.606   8
   1  14   4 2318.28 709.010   7
  -1 -14   4 2670.39 818.726   5
   1 -15   4 2082.28 824.206   5
 -15  14   4 2198.68 631.934   6
 -14  15   4 1746.58 613.958   6
  -1 -14   5 288.833 424.529   5
   1 -15   5 558.729 465.974   5
 -15  14   5-579.052 404.861   6
 -14  15   5-125.178 398.462   6
 -15   0  -2 2787.54 843.511   8
 -15   0  -1 1600.16 932.705   8
   0  15  -1 1031.46 756.245   7
   0  15   0 31337.5 2060.21   7
 -15   0   0 31191.2 2080.93   8
 -15   0   1 865.449 940.407   8
   0  15   1 179.977 1060.31   7
 -15   0   2 1440.14 898.511   8
   0  15   2 828.737 911.835   7
 -15   0   3 120.722 753.229   8
   0  15   3 2629.52 870.105   7
 -15  15   3 1805.62 632.115   6
 -15   0   4 4635.62 616.768   8
   0 -15   4 6653.24 924.083   5
 -15  15   4 6271.86 709.908   6
 -16   8  -4 15323.9 1537.20   8
 -16   8  -3-2896.53 1134.34   8
 -16   8  -2 4562.35 1149.90   8
  -8  -8  -1 1257.56 945.903   8
 -16   8  -1-1197.12 1233.19   8
  -8  -8   0 7455.38 1421.96   8
 -16   8   0 7135.26 1332.10   8
  -8  -8   1-1650.78 1155.17   8
 -16   8   1 113.407 991.959   8
  -8  -8   2 7661.03 1401.50   8
 -16   8   2 6653.92 1104.15   8
   8 -16   3-24.8178 769.413   5
 -16   8   3-841.954 766.334   6
   8   8   4 15823.8 1258.56   7
 -16   8   4 13626.8 1239.32   6
  -8  -8   4 16281.6 1411.47   8
   8 -16   4 14068.0 1167.46   5
   8 -16   5 98.6635 456.902   5
 -16   8   5-226.049 537.789   6
 -16   9  -4 6289.94 1152.94   8
 -16   7  -3-737.475 963.118   8
 -16   9  -3-1467.88 1102.07   8
 -16   7  -2 17440.3 1732.89   8
  -9  -7  -1 6790.51 1244.04   8
 -16   7  -1 4506.90 1286.54   8
  -7  -9   0 4988.80 1280.46   8
  -9  -7   0 2263.33 1162.20   8
 -16   7   0 1851.98 1116.20   8
 -16   9   0 816.154 1027.84   8
  -7  -9   1 8578.62 1514.76   8
  -9  -7   1 5415.22 1333.68   8
 -16   7   1 6691.29 1242.48   8
 -16   9   1 5195.67 1197.55   8
 -16   7   2 19353.3 1583.56   8
 -16   9   2 20034.2 1530.56   8
  -7  -9   2 20708.8 1940.06   8
  -9  -7   2 18390.7 1779.43   8
  -7  -9   3 1580.17 992.023   8
  -9  -7   3 3263.68 1078.67   8
 -16   7   3 1158.04 695.183   8
   9 -16   3 452.768 697.309   5
   7   9   3 1681.59 1002.51   7
 -16   7   3 745.787 749.253   6
 -16   9   3 1120.26 774.206   6
  -9  -7   4 5731.47 1032.33   8
   9 -16   4 6429.69 831.355   5
   7 -16   4 7182.65 995.908   5
   7   9   4 5126.46 899.147   7
   9   7   4 6627.01 998.921   7
 -16   7   4 4070.17 854.089   6
 -16   9   4 5717.95 957.777   6
   7 -16   5 1022.45 517.626   5
 -16   9   5 524.749 523.655   6
 -16  10  -4 11232.5 1355.69   8
 -16   6  -3 4083.89 1085.84   8
 -16   6  -2 5934.75 1276.18   8
 -16   6  -1 13704.8 1636.72   8
 -10  -6  -1 12984.1 1436.66   8
  -6 -10   0 1350.57 1098.03   8
 -10  -6   0-236.878 1066.96   8
 -16   6   0 552.616 1028.01   8
 -16   6   1 14039.1 1513.13   8
 -16  10   1 13767.2 1482.45   8
  -6 -10   1 14513.5 1690.18   8
 -10  -6   1 14343.1 1692.33   8
  -6 -10   2 7624.28 1326.24   8
 -10  -6   2 5146.25 1259.31   8
 -16   6   2 5271.86 1048.78   8
 -16  10   2 5961.00 990.109   8
  -6 -10   3 3955.95 1111.80   8
 -10  -6   3 3214.90 1063.12   8
 -16   6   3 3361.62 791.358   8
   6  10   3 4406.45 1085.65   7
 -16   6   3 2764.96 817.629   6
 -16  10   3 3958.90 905.705   6
   6  10   4 10443.3 1105.22   7
  10   6   4 15109.1 1199.64   7
 -16   6   4 12937.6 1141.62   6
 -16  10   4 14113.5 1263.16   6
 -10  -6   4 15193.5 1415.90   8
   6 -16   4 15200.9 1320.12   5
   6 -16   5 2387.68 598.158   5
 -16  10   5 2291.29 616.491   6
 -10  16   5 1294.21 537.082   6
 -16   5  -3 4727.99 1049.27   8
 -16   5  -2 8294.12 1353.44   8
 -11  -5  -1 3628.55 1083.14   8
 -16   5  -1 5627.34 1315.99   8
 -16   5   0 10695.5 1483.21   8
 -11  -5   0 9925.42 1520.73   8
  -5 -11   0 13307.5 1519.45   8
  -5 -11   1 5917.05 1314.58   8
 -11  -5   1 4689.30 1284.99   8
 -16   5   1 5196.12 1158.30   8
 -16  11   1 4666.42 1055.24   8
  -5 -11   2 7951.10 1326.92   8
 -11  -5   2 6835.92 1347.31   8
 -16   5   2 5917.55 1141.58   8
 -16  11   2 5237.66 929.718   8
   5  11   2 4974.61 1223.17   7
 -16  11   2 5723.39 988.624   6
 -11  -5   3 3825.75 1144.60   8
 -16   5   3 2806.33 771.732   8
   5  11   3 4997.45 1134.04   7
 -16  11   3 3729.09 865.151   6
   5  11   4 8892.15 1027.21   7
 -16  11   4 9720.46 1077.60   6
 -11  -5   4 11647.0 1240.34   8
   5 -16   4 10672.0 1117.78   5
   5 -16   5 2565.91 596.115   5
 -16  11   5 2361.39 557.623   6
 -11  16   5 2612.25 596.586   6
 -16   4  -3-1464.61 944.176   8
 -16   4  -2 16419.1 1560.14   8
 -12  -4  -1 139.589 898.216   8
 -16   4  -1 3633.70 1142.64   8
   4  12  -1 2607.85 977.991   7
 -16   4   0 14914.3 1665.62   8
   4  12   0 16366.2 1831.23   7
 -12  -4   0 15790.8 1736.57   8
 -12  -4   1 948.334 1017.49   8
 -16   4   1 2196.14 992.739   8
 -16  12   1 1282.16 836.807   8
  -4  16   1 3696.22 1189.19   7
   4  12   1 2552.30 1213.53   7
 -16   4   2 15467.8 1460.75   8
   4  12   2 19345.1 1686.23   7
 -16  12   2 16730.1 1302.95   6
 -12  -4   2 14007.0 1599.94   8
 -12  -4   3-824.841 955.780   8
 -16   4   3 1069.51 704.320   8
   4  12   3-669.333 881.855   7
 -16  12   3-353.072 719.099   6
 -12  -4   4 2733.20 792.620   8
   4  12   4 1704.57 711.611   7
  -4 -12   4 717.071 532.286   5
   4 -16   4 2086.65 792.726   5
 -16  12   4 1297.73 661.104   6
   4 -16   5 1199.08 490.071   5
 -16  12   5 1162.94 448.445   6
 -12  16   5 740.212 466.614   6
 -16   3  -2 11138.3 1256.49   8
 -13  -3  -1 387.951 809.460   8
 -16   3  -1 513.535 980.645   8
   3  13  -1 300.252 862.341   7
 -16   3   0 20253.1 1725.81   8
  -3  16   0 24147.6 1843.89   7
 -13  -3   0 22417.1 1893.93   8
 -13  -3   1-269.981 1002.86   8
 -16   3   1 447.902 938.912   8
  -3  16   1 1697.77 1106.11   7
   3  13   1 1199.69 1091.81   7
  -3  16   2 15257.2 1530.21   7
   3  13   2 13913.9 1471.84   7
 -16  13   2 14640.6 1175.20   6
 -13  -3   2 14415.1 1531.28   8
 -16   3   2 14974.2 1432.63   8
 -13  -3   3-1603.89 903.066   8
 -16   3   3-88.1954 676.001   8
   3  13   3-1165.56 916.255   7
 -16  13   3 616.767 658.434   6
   3  13   4 1307.65 618.917   7
  -3 -13   4-418.505 571.308   5
   3 -16   4 264.732 686.602   5
 -16  13   4-28.3557 523.430   6
   3 -16   5-281.070 415.594   5
 -16  13   5 414.620 360.644   6
 -13  16   5 794.281 414.245   6
 -16   2  -2 6256.08 1038.45   8
 -14  -2  -1 3845.80 1000.20   8
 -16   2  -1 1527.83 988.184   8
   2  14  -1 2275.83 833.705   7
 -16   2   0 17135.7 1643.05   8
  -2  16   0 23564.6 1721.59   7
   2  14   0 20036.9 1735.79   7
 -14  -2   0 19431.2 1772.58   8
 -14  -2   1 2098.14 988.748   8
 -16   2   1 1188.82 962.680   8
  -2  16   1 3092.77 1095.56   7
   2  14   1 1359.13 1037.23   7
 -14  -2   2 6387.45 1146.41   8
 -16   2   2 8453.63 1168.84   8
  -2  16   2 9669.83 1235.48   7
   2  14   2 7755.73 1199.84   7
 -16  14   2 8402.80 951.017   6
 -14  -2   3 358.180 757.984   8
 -16   2   3 1228.07 657.956   8
   2  14   3 2198.92 827.236   7
 -16  14   3 3224.29 723.446   6
 -14  -2   4 1831.40 542.245   8
   2  14   4 1433.60 554.126   7
  -2 -14   4-244.630 567.527   5
   2 -16   4-31.0587 627.685   5
 -16  14   4 936.560 464.226   6
 -14  16   4 513.232 470.097   6
 -16   1  -2 1983.03 711.726   8
 -15  -1  -1 2076.36 868.745   8
 -16   1  -1 813.862 844.275   8
  -1  16   0 25183.3 1684.33   7
   1  15   0 22757.8 1723.94   7
 -15  -1   0 23000.3 1776.44   8
 -16   1   0 20186.0 1633.08   8
 -15  -1   1 796.313 865.600   8
 -16   1   1 1100.49 829.005   8
  -1  16   1 2363.41 996.057   7
   1  15   1 720.036 960.763   7
 -15  -1   2 1501.27 826.393   8
 -16   1   2 1807.75 827.159   8
  -1  16   2 1804.12 863.810   7
   1  15   2 754.681 816.855   7
 -16  15   2 2082.38 654.149   6
 -15  -1   3 192.246 653.390   8
 -16   1   3 552.595 580.455   8
   1  15   3 1663.19 719.388   7
 -16  15   3 1337.65 535.590   6
 -15  16   3 1102.19 526.783   6
  -1 -15   4 2135.56 562.043   5
   1 -16   4 2786.89 626.995   5
 -16  15   4 1693.92 427.654   6
 -15  16   4 2815.70 484.625   6
 -16   0  -1 1957.63 808.627   8
   0  16   0 20202.9 1423.25   7
 -16   0   0 16400.1 1401.78   8
 -16   0   1 860.929 768.994   8
   0  16   1 94.2553 792.782   7
   0  16   2 2344.09 782.228   7
 -16  16   2 1112.63 518.348   6
 -16   0   3 2050.04 590.876   8
 -16  16   3 3836.18 545.503   6
 -17   8  -3 35.8439 744.426   8
 -17   9  -3-2177.64 893.846   8
 -17   8  -2 7478.72 1233.69   8
 -17   9  -2 6921.10 1172.11   8
 -17   8  -1 4688.55 1192.33   8
 -17   9  -1 5043.06 1202.10   8
  -8  -9   0 5089.14 1192.39   8
  -9  -8   0 4949.51 1128.41   8
 -17   8   0 3300.60 1203.23   8
 -17   9   0 1959.93 1058.71   8
  -8  -9   1 8638.28 1461.07   8
  -9  -8   1 6786.46 1336.05   8
 -17   8   1 5649.99 1176.84   8
 -17   9   1 7778.49 1276.11   8
  -8  -9   2 8445.08 1262.15   8
 -17   8   2 8124.66 1042.60   8
 -17   9   2 8566.14 1040.70   8
  -9  -8   2 11612.4 1391.11   8
  -8  -9   3 385.907 801.085   8
  -9  -8   3 1707.78 878.335   8
   8 -17   3-412.505 668.218   5
   8   9   3 1099.48 832.366   7
   9   8   3 793.139 786.125   7
 -17   8   3-652.093 618.036   6
 -17   9   3-730.793 643.086   6
   8 -17   4 5400.23 690.912   5
   8   9   4 3848.87 785.367   7
   9   8   4 3779.60 751.955   7
 -17   8   4 4565.09 703.308   6
 -17   9   4 2713.71 663.172   6
  -9  -8   4 6384.85 894.227   8
 -17  10  -4 6960.09 1115.39   8
 -17   7  -3 2810.86 834.153   8
 -17  10  -3-1262.53 960.938   8
 -17   7  -2 11330.3 1379.05   8
 -17  10  -2 7726.82 1201.49   8
 -10  -7  -1 6410.99 1108.41   8
 -17   7  -1 4732.03 1165.57   8
 -17  10  -1 5319.67 1247.84   8
  -7 -10   0 2751.38 1032.54   8
 -10  -7   0 1461.79 953.230   8
 -17   7   0 1884.42 1080.27   8
 -17  10   0 1216.73 996.041   8
  -7 -10   1 6538.74 1292.25   8
 -10  -7   1 5708.05 1264.20   8
 -17   7   1 5740.45 1127.89   8
 -17  10   1 6196.01 1153.96   8
 -17   7   2 10663.1 1158.85   8
 -17  10   2 10477.0 1073.42   8
   7  10   2 11168.3 1300.23   7
  -7 -10   2 12522.6 1405.51   8
 -10  -7   2 11684.5 1459.78   8
 -10  -7   3 3968.49 958.721   8
 -17   7   3 2253.86 647.390   8
   7  10   3 1585.34 846.696   7
   7 -17   3 1348.32 713.853   5
 -17  10   3 1515.19 654.117   6
  -7 -10   3 2789.69 874.088   8
 -10  -7   4 5373.29 890.657   8
   7 -17   4 4734.51 699.139   5
   7  10   4 5131.06 840.498   7
 -17  10   4 4502.08 713.097   6
 -17  11  -4 9106.82 1220.44   8
 -17   6  -3 1928.60 821.856   8
 -17  11  -3-2882.83 990.356   8
 -17   6  -2 9608.89 1235.67   8
 -11  -6  -1 4194.92 979.949   8
 -17   6  -1 6173.72 1265.93   8
   6  11  -1 6172.99 1180.17   7
 -11  -6   0 608.935 952.736   8
 -17   6   0 2786.70 1124.54   8
 -17  11   0 2445.14 1043.68   8
  -6 -11   0 4448.22 1063.36   8
  -6 -11   1 5390.38 1194.09   8
 -11  -6   1 5132.33 1216.83   8
 -17   6   1 5547.12 1128.66   8
 -17  11   1 5229.03 1010.47   8
   6  11   1 6131.58 1228.05   7
 -17  11   2 9313.18 973.334   8
 -11  -6   2 8543.48 1274.88   8
 -17   6   2 7904.43 1084.27   8
   6  11   2 9102.69 1246.93   7
  -6 -11   2 10906.2 1344.69   8
 -11  -6   3 1595.96 904.108   8
 -17   6   3 1348.21 603.291   8
   6  11   3 641.170 741.762   7
 -17  11   3 176.466 569.302   6
   6  11   4 7895.79 869.706   7
 -17  11   4 8735.08 810.829   6
 -11  -6   4 7538.10 910.113   8
   6 -17   4 7796.53 827.472   5
 -17  12  -4 7179.99 1050.81   8
 -17   5  -3-1422.63 771.245   8
 -17   5  -2 5717.63 1026.64   8
 -12  -5  -1 1246.18 758.216   8
 -17   5  -1 4888.73 1150.22   8
   5  12  -1 4404.67 1055.35   7
 -17   5   0 10384.8 1350.93   8
 -12  -5   0 10719.5 1386.87   8
 -17  12   0 10605.7 1341.83   8
   5  12   0 10334.6 1503.85   7
 -12  -5   1 3186.21 1058.41   8
 -17   5   1 3484.15 978.995   8
 -17  12   1 3230.02 849.504   8
   5  12   1 4194.52 1182.82   7
 -12  -5   2 2406.18 971.834   8
 -17   5   2 4655.03 968.440   8
   5  12   2 4973.25 1058.51   7
 -12  -5   3 1181.05 839.442   8
 -17   5   3-1.89776 530.673   8
   5  12   3-475.522 784.237   7
 -17  12   3 557.933 576.911   6
   5  12   4 8189.79 854.055   7
 -17  12   4 6895.88 711.823   6
 -12  -5   4 6777.00 801.758   8
   5 -17   4 6941.82 790.856   5
 -17  13  -4 559.291 736.166   8
 -17   4  -2 7447.82 1036.06   8
 -13  -4  -1-708.749 760.278   8
 -17   4  -1-1203.83 971.917   8
   4  13  -1 422.892 727.383   7
 -13  -4   0 10909.2 1358.03   8
 -17   4   0 8669.43 1208.00   8
 -13  -4   1 1023.51 941.186   8
 -17   4   1-426.816 884.921   8
 -17  13   1-615.626 657.179   8
   4  13   1 981.148 922.016   7
 -13  -4   2 7395.31 1147.09   8
 -17   4   2 8975.33 1072.36   8
   4  13   2 7814.85 1132.27   7
 -13  -4   3 688.827 713.243   8
 -17   4   3-320.200 554.843   8
   4  13   3-1267.52 737.686   7
 -17  13   3 33.5134 498.645   6
 -13  -4   4 1971.61 519.068   8
   4  13   4 1750.82 542.843   7
   4 -17   4 1316.75 536.962   5
 -17  13   4 2132.08 474.608   6
 -13  17   4 1103.18 472.201   6
 -17   3  -2 4885.43 840.768   8
 -14  -3  -1-73.4003 661.383   8
 -17   3  -1-1081.60 880.124   8
   3  14  -1-386.808 649.731   7
 -14  -3   0 11384.5 1313.91   8
   3  14   0 13173.6 1370.21   7
 -17   3   0 12423.1 1306.23   8
 -14  -3   1 172.934 833.269   8
 -17   3   1 1508.97 813.108   8
 -17  14   1-266.229 543.939   8
   3  14   1 1617.38 963.647   7
 -14  -3   2 5223.25 988.018   8
 -17   3   2 5584.06 934.428   8
   3  14   2 6330.14 993.075   7
 -14  -3   3 163.606 621.372   8
 -17   3   3-464.682 523.292   8
   3  14   3 908.965 635.087   7
 -17  14   3 424.533 444.508   6
   3 -17   4 1543.10 503.813   5
 -14  17   4 1473.00 419.920   6
 -17   2  -2 5168.36 774.524   8
 -15  -2  -1-73.6763 596.193   8
 -17   2  -1 272.140 720.976   8
 -15  -2   0 4034.14 936.221   8
 -17   2   0 5794.44 984.007   8
   2  15   0 6614.50 1052.98   7
 -15  -2   1-1258.74 873.915   8
 -17   2   1 296.781 743.134   8
 -17  15   1-55.7072 476.889   8
   2  15   1 915.268 819.413   7
 -15  -2   2 3072.16 763.678   8
 -17   2   2 3184.49 757.708   8
   2  15   2 5151.01 894.350   7
 -15  17   2 4003.06 628.037   6
 -15  -2   3 324.284 496.307   8
 -17   2   3-621.951 479.936   8
   2  15   3 559.032 522.920   7
 -15  17   3-165.463 398.460   6
 -16  -1  -1-5.18015 564.737   8
 -17   1  -1 1142.49 658.878   8
   1  16   0 16102.8 1138.79   7
 -16  -1   0 12443.9 1147.14   8
 -17   1   0 15814.0 1258.78   8
 -16  -1   1-859.278 707.962   8
 -17   1   1 1330.77 670.497   8
   1  16   1-351.801 667.786   7
 -16  -1   2 633.369 551.020   8
   1  16   2 1788.54 617.990   7
 -16  -1   3 324.704 419.985   8
  -1 -16   3 391.942 452.648   5
   1 -17   3 231.423 446.912   5
 -17   0  -1-923.897 523.455   8
 -17  17   0 16820.4 851.877   8
 -17   0   0 17505.7 1132.43   8
 -17   0   1-7.99088 553.198   8
 -17   0   2 1085.37 470.176   8
 -18   9  -3 404.683 630.827   8
 -18   9  -2 3499.15 905.278   8
 -18   9  -1 273.184 831.662   8
 -18   9   0 24422.6 1763.79   8
  -9  -9   0 23252.8 1514.78   8
  -9  -9   1 1483.47 915.149   8
 -18   9   1 2204.29 861.471   8
  -9  -9   2 3696.84 910.164   8
 -18   9   2 3095.19 683.268   8
   9   9   3 929.822 672.402   7
  -9  -9   3 390.664 641.233   8
 -18   8  -3 1492.41 647.128   8
 -18  10  -3 702.310 648.348   8
 -18   8  -2 10002.9 1178.01   8
 -18  10  -2 10639.4 1162.11   8
 -18   8  -1 2743.45 939.384   8
 -18  10  -1 1781.53 890.621   8
 -18   8   0 9195.88 1241.01   8
 -18  10   0 6472.17 1159.06   8
  -8 -10   0 7988.84 1025.53   8
 -10  -8   0 8343.74 1107.14   8
  -8 -10   1 2526.64 924.220   8
 -10  -8   1 4296.10 1036.10   8
 -18   8   1 2541.75 861.315   8
 -18  10   1 2183.75 807.837   8
 -18   8   2 10909.2 1007.45   8
 -18  10   2 11787.2 933.212   8
   8  10   2 11241.2 1129.05   7
  -8 -10   2 12173.7 1221.94   8
 -10  -8   2 11689.9 1229.41   8
 -10  -8   3 18.7562 609.504   8
   8 -18   3-211.980 477.854   5
   8  10   3-250.548 628.973   7
  10   8   3 34.5954 604.903   7
 -18   7  -3-1572.76 672.072   8
 -18  11  -3 355.725 621.960   8
 -18   7  -2 9283.81 1057.53   8
 -18  11  -2 7669.98 1016.26   8
 -18   7  -1 3115.89 915.033   8
 -18  11  -1 685.531 863.797   8
   7  11  -1 1782.70 820.473   7
 -11  -7   0 1084.87 798.667   8
 -18   7   0 2177.93 894.629   8
 -18  11   0 1169.53 857.664   8
   7  11   0 3065.82 1071.10   7
 -11  -7   1 3007.99 988.345   8
 -18   7   1 1270.38 814.975   8
 -18  11   1 4157.32 863.589   8
   7  11   1 3052.64 923.004   7
 -18   7   2 7931.92 932.836   8
 -18  11   2 8055.44 765.358   8
   7  11   2 9964.27 1079.96   7
 -11  -7   2 11200.2 1221.56   8
 -11  -7   3 1475.21 671.513   8
   7 -18   3 560.004 498.465   5
   7  11   3 239.805 596.649   7
  11   7   3 1299.21 641.733   7
 -18  12  -3-1067.44 637.589   8
 -18   6  -2 1986.88 646.208   8
 -18  12  -2 2675.22 785.095   8
 -18   6  -1-862.610 781.813   8
 -18  12  -1-904.867 882.417   8
   6  12  -1 1068.90 720.647   7
 -12  -6   0 2683.22 888.487   8
 -18   6   0 1182.59 789.697   8
 -18  12   0 1660.48 827.906   8
   6  12   0 3211.77 1017.08   7
 -12  -6   1-307.591 772.082   8
 -18   6   1 63.2134 726.131   8
 -18  12   1 431.446 608.243   8
   6  12   1 503.502 866.196   7
 -12  -6   2 5999.87 953.512   8
 -18   6   2 3396.50 759.907   8
   6  12   2 5018.19 889.592   7
 -12  -6   3 1615.84 651.794   8
   6  12   3 701.890 576.175   7
   6 -18   3 72.3343 496.739   5
  12   6   3 1118.12 578.886   7
 -12  18   4 7125.95 616.980   6
 -18  13  -3-808.677 609.664   8
 -18   5  -2 2518.00 650.670   8
 -18  13  -2 2493.35 702.773   8
 -13  -5  -1 928.299 604.290   8
 -18   5  -1 1014.36 711.358   8
 -18  13  -1 345.315 793.206   8
   5  13  -1 526.101 612.952   7
 -13  -5   0 1415.77 744.647   8
 -18   5   0 2462.32 845.255   8
 -18  13   0 1644.22 718.018   8
   5  13   0 1867.65 859.892   7
 -13  -5   1 935.910 770.027   8
 -18   5   1 1222.98 729.695   8
 -18  13   1 1026.38 572.328   8
   5  13   1 635.158 799.723   7
 -13  -5   2 3892.48 852.381   8
 -18   5   2 4258.20 786.879   8
   5  13   2 3340.03 769.919   7
   5  13   3 1028.45 555.548   7
   5 -18   3 2115.47 549.606   5
  13   5   3 1981.87 559.954   7
 -18  14  -3-1559.66 597.700   8
 -18   4  -2 1457.94 569.733   8
 -18  14  -2-698.778 638.250   8
 -14  -4  -1-609.787 554.520   8
 -18   4  -1-82.3945 599.709   8
 -18  14  -1-487.522 708.149   8
 -14  -4   0 6509.19 945.937   8
 -18   4   0 7167.77 981.618   8
 -18  14   0 6966.45 848.654   8
   4  14   0 8430.85 1049.67   7
 -14  -4   1-1240.38 774.438   8
 -18   4   1 268.087 665.236   8
 -18  14   1 66.2127 420.661   8
   4  14   1-780.907 793.693   7
 -14  -4   2 1418.80 669.891   8
 -18   4   2 1881.17 622.421   8
   4  14   2 1587.99 638.046   7
   4  14   3 139.863 435.281   7
   4 -18   3 517.875 438.851   5
 -14  18   3-381.510 401.381   6
 -18  15  -2 957.880 534.379   8
 -15  -3  -1-528.466 479.987   8
 -18   3  -1 910.245 595.979   8
 -18  15  -1-148.733 562.424   8
 -15  -3   0 3924.72 793.240   8
 -18   3   0 5221.24 848.450   8
 -18  15   0 3637.40 623.137   8
   3  15   0 4869.66 822.563   7
 -18   3   1 1088.05 635.833   8
   3  15   1 324.992 644.324   7
 -15  -3   2 1815.34 581.348   8
 -18   3   2 1762.07 539.853   8
   3  15   2 2440.79 631.306   7
 -15  18   2 2186.21 451.213   6
 -18  16  -2 2548.04 518.560   8
 -18   2  -1 1152.51 462.549   8
 -18  16  -1 1238.05 488.917   8
 -16  -2   0 3011.79 629.487   8
 -18  16   0 3780.84 521.519   8
 -16  -2   1 473.436 531.695   8
 -18   2   1 392.448 518.739   8
   2  16   1 2058.43 604.957   7
 -16  -2   2 3637.97 584.852   8
 -18   2   2 2437.47 491.570   8
 -18   1   1-174.980 417.818   8
 -19   9  -2 2899.53 646.487   8
 -19  10  -2 4053.80 731.380   8
 -19   9  -1 815.558 674.889   8
 -19  10  -1 1510.72 744.138   8
   9  10  -1 1758.68 679.733   7
 -19   9   0 30530.6 1597.48   8
 -19  10   0 30211.3 1579.51   8
   9  10   0 25037.6 1484.54   7
 -10  -9   0 22372.6 1211.77   8
 -19   9   1-364.234 595.130   8
 -19  10   1-586.600 593.268   8
   9  10   1 741.968 668.739   7
 -10  -9   2 4388.67 766.016   8
 -19   9   2 3458.95 544.850   8
 -19  10   2 3934.27 537.057   8
   9  10   2 3731.15 664.439   7
  10   9   2 2815.76 635.329   7
   9  10   3 272.082 421.050   7
 -19   8  -2 2909.42 604.977   8
 -19  11  -2 6189.41 804.274   8
 -19   8  -1 1420.24 689.422   8
 -19  11  -1 514.896 662.410   8
   8  11  -1-558.316 587.833   7
 -19  11   0 8251.44 994.452   8
 -19   8   0 7190.56 960.725   8
   8  11   0 7783.22 994.344   7
 -11  -8   0 6697.93 782.530   8
 -11  -8   1 811.617 651.700   8
 -19   8   1-125.112 581.977   8
 -19  11   1 188.005 525.938   8
   8  11   1 885.901 669.897   7
 -11  -8   2 5869.01 801.443   8
   8  11   2 5360.06 750.438   7
  11   8   2 5442.12 729.552   7
 -19   8   2 5291.11 633.945   8
   8  11   3-383.662 436.987   7
 -19  12  -2 6604.13 789.849   8
 -19   7  -2 4097.22 624.551   8
 -19   7  -1-387.657 594.848   8
 -19  12  -1-161.949 629.263   8
   7  12  -1 708.527 559.023   7
 -12  -7   0 501.343 560.536   8
 -19   7   0 503.582 639.285   8
 -19  12   0 1518.22 675.958   8
   7  12   0 1904.12 743.227   7
 -12  -7   1 1104.66 628.043   8
 -19   7   1-71.2807 583.662   8
 -19  12   1 1120.98 489.181   8
   7  12   1 570.264 611.321   7
   7  12   2 6205.69 749.393   7
  12   7   2 7266.39 776.775   7
 -12  -7   2 7913.65 811.954   8
 -19   7   2 7512.20 714.944   8
 -12  -7   3 1571.62 463.040   8
 -19   6  -2 861.911 435.600   8
 -19  13  -2 889.350 533.828   8
 -19   6  -1-199.693 529.101   8
 -19  13  -1-257.916 570.670   8
 -19   6   0 1066.01 613.261   8
 -19  13   0 3110.47 651.615   8
   6  13   0 1796.11 704.063   7
 -13  -6   1 1620.59 634.007   8
 -19   6   1 166.847 565.837   8
 -19  13   1 457.773 375.615   8
   6  13   1-488.652 638.350   7
 -13  -6   2 2059.76 596.253   8
 -19   6   2 1984.52 489.823   8
   6  13   2 1772.68 555.032   7
   6 -19   2 2239.69 464.753   5
 -19  14  -2 2377.43 518.401   8
 -19   5  -1 1674.70 548.376   8
 -19  14  -1 820.670 520.348   8
 -14  -5   0 2907.18 593.706   8
 -19   5   0 2029.96 612.736   8
 -19  14   0 1886.80 520.433   8
   5  14   0 1088.12 557.078   7
 -14  -5   1 2206.03 643.829   8
 -19   5   1 943.464 557.482   8
   5  14   1 1644.49 599.258   7
 -14  -5   2 3284.88 572.178   8
   5  14   2 2507.19 537.108   7
 -19  15  -1 89.7004 388.688   8
 -19   4   0 2109.25 563.669   8
 -15  -4   1 1435.67 516.418   8
 -19   4   1 135.074 420.303   8
   4  15   1 708.867 479.709   7
 -20  10  -1-1076.78 493.291   8
 -20  10   0 18426.3 1049.56   8
  10  10   0 17989.2 1038.84   7
  10  10   1 674.558 445.977   7
 -20   9  -1 549.876 419.224   8
 -20  11  -1 1599.14 516.619   8
 -20   9   0 15055.8 962.864   8
 -20  11   0 13739.3 899.417   8
   9  11   0 14640.5 941.270   7
 -20   9   1 457.475 401.618   8
   9  11   1-285.091 447.133   7
 -20   8  -1-511.228 431.682   8
 -20  12  -1 589.875 428.118   8
 -20  12   0 7855.74 687.146   8
  12   8   0 8588.43 768.589   7
 -20   8   0 7681.33 747.423   8
   8  12   1-1096.41 487.983   7
  12   8   1 731.455 461.509   7
 -20   7   0 3998.06 579.170   8
   0   0   0    0.00    0.00   0
TITL FJU-56a in P6(3)mc
REM P6(3)mc (#186 in standard setting)
CELL 1.54184  16.288298  16.288298   7.488531  90.0000  90.0000 120.0000
ZERR   24.00   0.001035   0.001035   0.000652   0.0000   0.0000   0.0000
LATT -1
SYMM -y, x-y, z
SYMM -x+y,-x, z
SYMM -x,-y, z+1/2
SYMM  y,-x+y, z+1/2
SYMM  x-y, x, z+1/2
SYMM -y,-x, z
SYMM -x+y, y, z
SYMM  x, x-y, z
SYMM  y, x, z+1/2
SYMM  x-y,-y, z+1/2
SYMM -x,-x+y, z+1/2
SFAC C H N O Co
UNIT 24.00 24.00 24.00 24.00 24.00
TREF
HKLF 4
END
;
_shelx_hkl_checksum              83863
_shelx_fab_checksum              93987
_shelx_fab_file
;
   -1    2    0    -15.23      0.00
    0    2    0     -2.57      0.00
   -1    3    0     -1.32      0.00
    0    3    0     -1.45      0.00
   -2    4    0     14.45      0.00
   -1    4    0      2.15      0.00
    0    4    0     -1.63      0.00
   -2    5    0      2.99      0.00
    0    5    0     -9.29      0.00
   -3    6    0     -3.85      0.00
   -2    6    0      5.95      0.00
   -1    6    0      0.13      0.00
    0    6    0     -0.53      0.00
   -3    7    0     -5.50      0.00
   -2    7    0      3.63      0.00
   -1    7    0      0.36      0.00
    0    7    0      2.62      0.00
   -4    8    0     -3.14      0.00
   -3    8    0     -0.06      0.00
   -2    8    0     -1.67      0.00
   -1    8    0      2.05      0.00
    0    8    0      3.56      0.00
   -4    9    0      3.11      0.00
   -3    9    0     -1.79      0.00
   -2    9    0     -4.00      0.00
   -1    9    0     -0.38      0.00
    0    9    0     -0.02      0.00
   -5   10    0      3.78      0.00
   -4   10    0      1.79      0.00
   -3   10    0      0.21      0.00
   -2   10    0     -0.60      0.00
   -1   10    0     -1.06      0.00
    0   10    0     -1.49      0.00
   -5   11    0     -1.68      0.00
   -4   11    0     -1.06      0.00
   -3   11    0      1.89      0.00
   -2   11    0      0.80      0.00
   -1   11    0      0.08      0.00
    0   11    0     -0.54      0.00
   -6   12    0     -1.29      0.00
   -5   12    0     -0.78      0.00
   -4   12    0     -0.26      0.00
   -3   12    0      1.62      0.00
   -2   12    0      0.29      0.00
   -1   12    0      0.40      0.00
    0   12    0     -0.03      0.00
   -6   13    0      1.21      0.00
   -5   13    0     -2.27      0.00
   -4   13    0      0.30      0.00
   -3   13    0      1.09      0.00
   -2   13    0     -0.52      0.00
   -1   13    0      0.21      0.00
    0   13    0     -0.60      0.00
   -7   14    0      4.90      0.00
   -6   14    0     -0.04      0.00
   -5   14    0     -0.64      0.00
   -4   14    0      0.11      0.00
   -3   14    0     -0.77      0.00
   -2   14    0     -1.11      0.00
   -1   14    0      0.01      0.00
    0   14    0      1.04      0.00
   -7   15    0     -0.20      0.00
   -6   15    0     -1.25      0.00
   -5   15    0      0.06      0.00
   -4   15    0      0.45      0.00
   -3   15    0     -1.02      0.00
   -2   15    0      0.34      0.00
   -1   15    0      1.02      0.00
    0   15    0     -0.08      0.00
   -8   16    0     -1.72      0.00
   -7   16    0     -0.57      0.00
   -6   16    0      0.05      0.00
   -5   16    0      1.17      0.00
   -4   16    0      0.72      0.00
   -3   16    0     -0.33      0.00
   -2   16    0     -0.02      0.00
   -1   16    0     -0.10      0.00
    0   16    0     -1.10      0.00
   -8   17    0      0.46      0.00
   -7   17    0      0.41      0.00
   -6   17    0     -0.17      0.00
   -5   17    0      0.33      0.00
   -4   17    0      0.51      0.00
   -3   17    0     -0.51      0.00
   -2   17    0     -0.02      0.00
   -1   17    0      0.28      0.00
    0   17    0     -0.60      0.00
   -9   18    0      1.22      0.00
   -8   18    0      1.10      0.00
   -7   18    0     -0.88      0.00
   -6   18    0     -0.77      0.00
   -5   18    0      0.11      0.00
   -4   18    0     -0.42      0.00
   -3   18    0     -0.90      0.00
   -2   18    0      0.36      0.00
   -9   19    0     -0.82      0.00
   -8   19    0     -0.28      0.00
   -7   19    0     -0.20      0.00
   -6   19    0     -0.03      0.00
   -5   19    0      0.27      0.00
   -4   19    0      0.58      0.00
  -10   20    0     -0.68      0.00
   -9   20    0      0.72      0.00
   -8   20    0      0.16      0.00
   -7   20    0     -0.13      0.00
    0    1    1    -12.94      0.00
    0    2    1    -21.58      0.00
   -1    3    1     -3.63      0.00
    0    3    1     -6.06      0.00
   -1    4    1      6.18      0.00
    0    4    1      1.98      0.00
   -2    5    1      4.38      0.00
   -1    5    1      3.35      0.00
    0    5    1     -3.15      0.00
   -2    6    1     -0.39      0.00
   -1    6    1     -1.00      0.00
    0    6    1      4.92      0.00
   -3    7    1     -0.97      0.00
   -1    7    1      1.41      0.00
   -3    8    1     -1.04      0.00
   -2    8    1     -3.86      0.00
   -1    8    1      0.12      0.00
    0    8    1      0.04      0.00
   -4    9    1      2.77      0.00
   -3    9    1      2.33      0.00
   -2    9    1      0.79      0.00
   -1    9    1     -1.03      0.00
    0    9    1     -2.47      0.00
   -4   10    1      1.11      0.00
   -3   10    1      2.28      0.00
   -2   10    1      2.52      0.00
   -1   10    1     -0.43      0.00
    0   10    1     -0.96      0.00
   -5   11    1     -1.69      0.00
   -4   11    1     -2.30      0.00
   -3   11    1      0.48      0.00
   -2   11    1      0.16      0.00
   -1   11    1     -0.05      0.00
    0   11    1      0.75      0.00
   -5   12    1     -3.20      0.00
   -4   12    1      0.65      0.00
   -3   12    1     -1.22      0.00
   -2   12    1     -0.35      0.00
   -1   12    1      0.28      0.00
    0   12    1      1.05      0.00
   -6   13    1     -1.02      0.00
   -5   13    1      0.88      0.00
   -4   13    1      0.31      0.00
   -3   13    1     -0.95      0.00
   -2   13    1      0.47      0.00
   -1   13    1      0.57      0.00
    0   13    1      0.49      0.00
   -6   14    1      0.98      0.00
   -5   14    1      1.98      0.00
   -4   14    1      1.05      0.00
   -3   14    1     -1.41      0.00
   -2   14    1      0.39      0.00
   -1   14    1     -0.94      0.00
    0   14    1     -0.71      0.00
   -7   15    1     -1.06      0.00
   -6   15    1     -0.65      0.00
   -5   15    1      0.86      0.00
   -4   15    1     -0.45      0.00
   -3   15    1     -1.13      0.00
   -2   15    1      0.08      0.00
   -1   15    1      0.01      0.00
    0   15    1      0.11      0.00
   -7   16    1     -2.13      0.00
   -6   16    1     -0.51      0.00
   -5   16    1      0.13      0.00
   -4   16    1     -0.10      0.00
   -3   16    1      0.00      0.00
   -2   16    1      1.25      0.00
   -1   16    1     -0.11      0.00
    0   16    1     -0.22      0.00
   -8   17    1     -0.17      0.00
   -7   17    1      0.03      0.00
   -6   17    1      0.46      0.00
   -5   17    1      0.30      0.00
   -4   17    1      0.08      0.00
   -3   17    1      0.30      0.00
   -2   17    1      0.64      0.00
   -1   17    1     -0.52      0.00
    0   17    1      0.64      0.00
   -8   18    1      1.32      0.00
   -7   18    1      0.40      0.00
   -6   18    1      0.11      0.00
   -5   18    1      0.05      0.00
   -4   18    1     -0.11      0.00
   -3   18    1     -0.52      0.00
   -2   18    1     -0.01      0.00
   -1   18    1     -0.62      0.00
   -9   19    1      0.70      0.00
   -8   19    1     -0.94      0.00
   -7   19    1     -0.44      0.00
   -6   19    1      0.25      0.00
   -5   19    1     -0.47      0.00
   -4   19    1     -0.86      0.00
   -9   20    1      0.02      0.00
   -8   20    1     -0.27      0.00
    0    1    2     -3.06      0.00
   -1    2    2      8.47      0.00
    0    2    2      8.91      0.00
   -1    3    2     -0.94      0.00
    0    3    2     -0.23      0.00
   -2    4    2     -7.16      0.00
   -1    4    2     -3.22      0.00
    0    4    2      4.15      0.00
   -2    5    2     -2.87      0.00
   -1    5    2      2.15      0.00
    0    5    2      6.83      0.00
   -3    6    2      2.49      0.00
   -2    6    2     -1.66      0.00
   -1    6    2     -0.52      0.00
    0    6    2      0.91      0.00
   -3    7    2      2.67      0.00
   -2    7    2     -3.23      0.00
   -1    7    2     -1.37      0.00
    0    7    2     -2.26      0.00
   -4    8    2      2.79      0.00
   -3    8    2      1.28      0.00
   -2    8    2      1.54      0.00
   -1    8    2     -0.95      0.00
    0    8    2     -2.33      0.00
   -4    9    2     -3.13      0.00
   -3    9    2      0.94      0.00
   -2    9    2      3.20      0.00
   -1    9    2     -0.14      0.00
    0    9    2     -0.69      0.00
   -5   10    2     -1.57      0.00
   -4   10    2     -2.26      0.00
   -3   10    2      1.50      0.00
   -2   10    2      0.57      0.00
   -1   10    2      1.04      0.00
    0   10    2      2.24      0.00
   -5   11    2      0.52      0.00
   -4   11    2      0.29      0.00
   -3   11    2     -1.97      0.00
   -2   11    2     -1.46      0.00
   -1   11    2      0.13      0.00
    0   11    2      0.10      0.00
   -6   12    2      1.43      0.00
   -5   12    2      2.25      0.00
   -4   12    2      0.29      0.00
   -3   12    2     -0.95      0.00
   -2   12    2     -0.74      0.00
   -1   12    2     -0.19      0.00
    0   12    2     -0.28      0.00
   -6   13    2     -1.56      0.00
   -5   13    2      1.43      0.00
   -4   13    2     -0.48      0.00
   -3   13    2     -0.99      0.00
   -2   13    2      0.31      0.00
   -1   13    2      0.39      0.00
    0   13    2      0.10      0.00
   -7   14    2     -3.45      0.00
   -6   14    2     -0.47      0.00
   -5   14    2      1.41      0.00
   -4   14    2      0.06      0.00
   -3   14    2      0.81      0.00
   -2   14    2      0.96      0.00
   -1   14    2     -0.12      0.00
    0   14    2     -0.94      0.00
   -7   15    2      0.11      0.00
   -6   15    2      0.77      0.00
   -5   15    2      0.01      0.00
   -4   15    2     -0.27      0.00
   -3   15    2      0.65      0.00
   -2   15    2     -0.01      0.00
   -1   15    2     -0.95      0.00
    0   15    2      0.27      0.00
   -8   16    2      0.46      0.00
   -7   16    2      0.72      0.00
   -6   16    2     -0.48      0.00
   -5   16    2     -1.02      0.00
   -4   16    2     -0.52      0.00
   -3   16    2     -0.10      0.00
   -2   16    2     -0.02      0.00
   -1   16    2      0.16      0.00
    0   16    2      0.75      0.00
   -8   17    2      0.06      0.00
   -7   17    2      0.21      0.00
   -6   17    2      0.01      0.00
   -5   17    2     -0.21      0.00
   -4   17    2     -0.05      0.00
   -3   17    2      0.37      0.00
   -2   17    2      0.23      0.00
   -1   17    2     -0.06      0.00
    0   17    2      0.36      0.00
   -9   18    2     -0.87      0.00
   -8   18    2     -0.65      0.00
   -7   18    2      0.49      0.00
   -6   18    2      0.48      0.00
   -5   18    2     -0.35      0.00
   -4   18    2     -0.15      0.00
   -3   18    2      0.60      0.00
   -2   18    2     -0.58      0.00
   -9   19    2      0.33      0.00
   -8   19    2     -0.15      0.00
   -7   19    2      0.32      0.00
   -6   19    2      0.24      0.00
   -5   19    2      0.19      0.00
    0    1    3      5.50      0.00
    0    3    3      2.21      0.00
   -1    4    3     -3.09      0.00
    0    4    3     -3.05      0.00
   -2    5    3     -2.31      0.00
   -1    5    3     -1.59      0.00
    0    5    3      1.28      0.00
   -2    6    3      0.75      0.00
   -1    6    3      1.92      0.00
    0    6    3     -2.04      0.00
   -3    7    3      1.47      0.00
   -2    7    3      2.67      0.00
   -1    7    3     -0.85      0.00
    0    7    3     -3.44      0.00
   -3    8    3      1.37      0.00
   -2    8    3      1.98      0.00
   -1    8    3     -0.30      0.00
    0    8    3      0.67      0.00
   -4    9    3     -1.84      0.00
   -3    9    3     -0.99      0.00
   -2    9    3     -0.92      0.00
   -1    9    3      1.49      0.00
    0    9    3      1.99      0.00
   -4   10    3     -0.92      0.00
   -3   10    3     -2.18      0.00
   -2   10    3     -2.03      0.00
   -1   10    3      0.32      0.00
    0   10    3      0.44      0.00
   -5   11    3      1.24      0.00
   -4   11    3      1.83      0.00
   -3   11    3     -0.37      0.00
   -2   11    3     -0.61      0.00
   -1   11    3      0.56      0.00
    0   11    3     -0.96      0.00
   -5   12    3      2.48      0.00
   -4   12    3      0.84      0.00
   -3   12    3      0.51      0.00
   -2   12    3      0.70      0.00
   -1   12    3     -0.24      0.00
    0   12    3     -1.93      0.00
   -6   13    3      0.23      0.00
   -5   13    3      0.02      0.00
   -4   13    3     -0.76      0.00
   -3   13    3      0.44      0.00
   -2   13    3     -0.13      0.00
   -1   13    3     -0.38      0.00
    0   13    3      0.27      0.00
   -6   14    3     -0.85      0.00
   -5   14    3     -2.01      0.00
   -4   14    3     -0.82      0.00
   -3   14    3      0.98      0.00
   -2   14    3      0.14      0.00
   -1   14    3      0.53      0.00
    0   14    3      0.81      0.00
   -7   15    3      1.37      0.00
   -6   15    3      0.17      0.00
   -5   15    3     -0.27      0.00
   -4   15    3      0.18      0.00
   -3   15    3      0.96      0.00
   -2   15    3     -0.10      0.00
   -1   15    3      0.11      0.00
    0   15    3     -0.31      0.00
   -7   16    3      1.15      0.00
   -6   16    3     -0.07      0.00
   -5   16    3     -0.22      0.00
   -4   16    3     -0.53      0.00
   -3   16    3     -0.09      0.00
   -2   16    3     -1.08      0.00
   -1   16    3     -0.16      0.00
    0   16    3      0.04      0.00
   -8   17    3      0.47      0.00
   -7   17    3      0.48      0.00
   -6   17    3      0.32      0.00
   -5   17    3      0.26      0.00
   -4   17    3     -0.28      0.00
   -3   17    3      0.55      0.00
   -2   17    3     -0.38      0.00
   -1   17    3      0.42      0.00
   -8   18    3     -0.61      0.00
   -7   18    3     -0.09      0.00
   -6   18    3     -0.04      0.00
   -5   18    3      0.23      0.00
   -4   18    3     -0.49      0.00
   -9   19    3     -0.51      0.00
   -8   19    3      0.22      0.00
   -7   19    3     -0.26      0.00
    0    0    4     11.25      0.00
    0    1    4      0.57      0.00
   -1    2    4     -2.84      0.00
    0    2    4     -2.48      0.00
   -1    3    4     -0.10      0.00
    0    3    4     -0.69      0.00
   -2    4    4      4.39      0.00
   -1    4    4      1.98      0.00
    0    4    4     -0.80      0.00
   -2    5    4      0.70      0.00
   -1    5    4     -1.69      0.00
    0    5    4     -2.92      0.00
   -3    6    4     -0.93      0.00
   -2    6    4     -0.54      0.00
   -1    6    4      0.00      0.00
    0    6    4      0.66      0.00
   -3    7    4     -0.58      0.00
   -2    7    4      1.39      0.00
   -1    7    4      1.34      0.00
    0    7    4      1.37      0.00
   -4    8    4     -1.11      0.00
   -3    8    4     -0.29      0.00
   -2    8    4     -0.69      0.00
   -1    8    4      0.32      0.00
    0    8    4      0.73      0.00
   -4    9    4      1.26      0.00
   -3    9    4     -1.26      0.00
   -2    9    4     -2.09      0.00
   -1    9    4      0.16      0.00
    0    9    4      0.45      0.00
   -5   10    4      2.85      0.00
   -4   10    4      1.57      0.00
   -3   10    4     -0.50      0.00
   -2   10    4     -0.61      0.00
   -1   10    4     -0.25      0.00
    0   10    4     -1.83      0.00
   -5   11    4     -0.78      0.00
   -4   11    4     -0.57      0.00
   -3   11    4      0.57      0.00
   -2   11    4      1.20      0.00
   -1   11    4     -0.27      0.00
    0   11    4     -0.46      0.00
   -6   12    4     -1.11      0.00
   -5   12    4     -0.87      0.00
   -4   12    4     -0.71      0.00
   -3   12    4      1.55      0.00
   -2   12    4      1.05      0.00
   -1   12    4      0.34      0.00
    0   12    4      0.76      0.00
   -6   13    4      0.59      0.00
   -5   13    4     -0.80      0.00
   -4   13    4     -0.20      0.00
   -3   13    4      0.98      0.00
   -2   13    4     -0.56      0.00
   -1   13    4     -0.78      0.00
    0   13    4      0.34      0.00
   -7   14    4      2.62      0.00
   -6   14    4      0.62      0.00
   -5   14    4     -0.63      0.00
   -4   14    4     -1.11      0.00
   -3   14    4     -0.31      0.00
   -2   14    4     -0.99      0.00
   -1   14    4      0.02      0.00
    0   14    4      0.56      0.00
   -7   15    4      0.03      0.00
   -6   15    4     -0.47      0.00
   -5   15    4      0.14      0.00
   -4   15    4      0.16      0.00
   -3   15    4      0.12      0.00
   -2   15    4      0.07      0.00
   -1   15    4      0.64      0.00
    0   15    4      0.14      0.00
   -8   16    4      0.45      0.00
   -7   16    4     -0.39      0.00
   -6   16    4      0.26      0.00
   -5   16    4      0.67      0.00
   -4   16    4      0.05      0.00
   -3   16    4      0.15      0.00
   -2   16    4     -0.19      0.00
   -1   16    4     -0.35      0.00
   -8   17    4     -0.52      0.00
   -7   17    4     -0.63      0.00
   -6   17    4      0.26      0.00
   -5   17    4      0.09      0.00
   -4   17    4      0.12      0.00
   -3   17    4      0.19      0.00
   -6   18    4      0.05      0.00
    0    1    5     -1.41      0.00
    0    2    5     -2.31      0.00
   -1    3    5     -0.71      0.00
    0    3    5     -1.17      0.00
   -1    4    5      1.10      0.00
    0    4    5      2.55      0.00
   -2    5    5      0.21      0.00
   -1    5    5      0.84      0.00
    0    5    5     -0.24      0.00
   -2    6    5     -0.88      0.00
   -1    6    5     -1.27      0.00
    0    6    5     -0.39      0.00
   -3    7    5     -0.69      0.00
   -2    7    5     -1.01      0.00
   -1    7    5      0.47      0.00
    0    7    5      1.85      0.00
   -3    8    5     -0.83      0.00
   -2    8    5     -0.49      0.00
   -1    8    5      0.64      0.00
    0    8    5     -0.57      0.00
   -4    9    5      0.38      0.00
   -3    9    5      0.31      0.00
   -2    9    5      0.57      0.00
   -1    9    5     -0.80      0.00
    0    9    5     -0.96      0.00
   -4   10    5      0.35      0.00
   -3   10    5      1.93      0.00
   -2   10    5      0.96      0.00
   -1   10    5     -0.21      0.00
    0   10    5     -0.53      0.00
   -5   11    5     -1.33      0.00
   -4   11    5     -1.00      0.00
   -3   11    5      0.05      0.00
   -2   11    5     -0.02      0.00
   -1   11    5     -0.28      0.00
    0   11    5      0.42      0.00
   -5   12    5     -1.05      0.00
   -4   12    5     -1.22      0.00
   -3   12    5      0.32      0.00
   -2   12    5     -0.65      0.00
   -1   12    5      0.32      0.00
    0   12    5      1.31      0.00
   -6   13    5     -0.16      0.00
   -5   13    5     -0.34      0.00
   -4   13    5      0.15      0.00
   -3   13    5      0.59      0.00
   -2   13    5     -0.56      0.00
   -1   13    5      0.76      0.00
    0   13    5     -0.70      0.00
   -6   14    5      0.30      0.00
   -5   14    5      1.39      0.00
   -4   14    5      0.88      0.00
   -3   14    5     -0.78      0.00
   -2   14    5     -0.44      0.00
   -1   14    5     -0.24      0.00
    0   14    5     -1.09      0.00
   -7   15    5     -0.67      0.00
   -6   15    5     -0.02      0.00
   -5   15    5      0.29      0.00
   -4   15    5     -0.25      0.00
   -3   15    5      0.20      0.00
   -2   15    5     -0.28      0.00
   -1   15    5      0.41      0.00
   -7   16    5     -0.48      0.00
   -6   16    5     -0.05      0.00
   -5   16    5     -0.16      0.00
   -4   16    5      0.44      0.00
   -3   16    5      0.07      0.00
    0    0    6     -1.86      0.00
    0    1    6     -0.18      0.00
   -1    2    6      0.50      0.00
    0    2    6      0.88      0.00
   -1    3    6      0.21      0.00
    0    3    6      0.39      0.00
   -2    4    6     -1.67      0.00
   -1    4    6     -1.08      0.00
    0    4    6      0.43      0.00
   -2    5    6     -0.54      0.00
   -1    5    6      0.39      0.00
    0    5    6      1.30      0.00
   -3    6    6      0.59      0.00
   -2    6    6      0.73      0.00
   -1    6    6      0.30      0.00
    0    6    6     -0.55      0.00
   -3    7    6      0.23      0.00
   -2    7    6     -0.03      0.00
   -1    7    6     -0.82      0.00
    0    7    6     -0.74      0.00
   -4    8    6     -0.11      0.00
   -3    8    6      0.22      0.00
   -2    8    6     -0.10      0.00
   -1    8    6     -0.25      0.00
    0    8    6     -0.44      0.00
   -4    9    6     -0.78      0.00
   -3    9    6      0.70      0.00
   -2    9    6      0.68      0.00
   -1    9    6      0.18      0.00
    0    9    6      0.16      0.00
   -5   10    6     -1.50      0.00
   -4   10    6     -0.77      0.00
   -3   10    6      0.50      0.00
   -2   10    6      0.14      0.00
   -1   10    6      0.44      0.00
    0   10    6      0.03      0.00
   -5   11    6      0.31      0.00
   -4   11    6      0.62      0.00
   -3   11    6      0.09      0.00
   -2   11    6     -0.52      0.00
   -1   11    6      0.05      0.00
    0   11    6      0.13      0.00
   -6   12    6     -0.40      0.00
   -5   12    6      1.02      0.00
   -4   12    6      0.11      0.00
   -3   12    6     -0.58      0.00
   -2   12    6     -1.03      0.00
   -1   12    6      0.21      0.00
    0   12    6     -0.85      0.00
   -6   13    6     -0.44      0.00
   -5   13    6      0.22      0.00
   -4   13    6      0.09      0.00
   -3   13    6     -0.64      0.00
   -2   13    6      0.35      0.00
   -1   13    6      0.42      0.00
    0   13    6     -0.07      0.00
   -7   14    6     -0.34      0.00
   -6   14    6     -0.52      0.00
   -5   14    6      0.53      0.00
   -4   14    6      0.66      0.00
   -3   14    6      0.44      0.00
   -2   14    6      0.33      0.00
   -7   15    6     -0.48      0.00
   -6   15    6     -0.15      0.00
   -5   15    6      0.09      0.00
   -4   15    6     -0.44      0.00
    0    1    7      0.44      0.00
    0    2    7      1.40      0.00
   -1    3    7      0.53      0.00
    0    3    7      1.00      0.00
   -1    4    7     -0.68      0.00
    0    4    7     -0.74      0.00
   -2    5    7     -0.08      0.00
   -1    5    7     -0.87      0.00
    0    5    7     -0.55      0.00
   -2    6    7      0.50      0.00
   -1    6    7      0.44      0.00
    0    6    7      0.07      0.00
   -3    7    7      0.34      0.00
   -2    7    7      0.90      0.00
   -1    7    7      0.26      0.00
    0    7    7     -0.42      0.00
   -3    8    7      0.50      0.00
   -2    8    7      0.16      0.00
   -1    8    7     -0.18      0.00
    0    8    7     -0.33      0.00
   -4    9    7      0.16      0.00
   -3    9    7     -0.50      0.00
   -2    9    7     -0.47      0.00
   -1    9    7     -0.10      0.00
    0    9    7      0.07      0.00
   -4   10    7      0.19      0.00
   -3   10    7     -0.75      0.00
   -2   10    7     -0.35      0.00
   -1   10    7      0.50      0.00
    0   10    7      0.17      0.00
   -5   11    7      0.78      0.00
   -4   11    7      0.22      0.00
   -3   11    7     -0.06      0.00
   -2   11    7      0.21      0.00
   -1   11    7      0.27      0.00
    0   11    7     -0.15      0.00
   -5   12    7      0.64      0.00
   -4   12    7      0.28      0.00
   -3   12    7      0.09      0.00
   -2   12    7     -0.08      0.00
   -6   13    7     -0.01      0.00
   -5   13    7      0.22      0.00
   -4   13    7     -0.40      0.00
    0    0    8      2.43      0.00
    0    1    8      0.69      0.00
   -1    2    8     -0.88      0.00
    0    2    8     -0.90      0.00
   -1    3    8     -0.34      0.00
    0    3    8     -0.12      0.00
   -2    4    8      1.45      0.00
   -1    4    8      0.38      0.00
    0    4    8     -0.58      0.00
   -2    5    8      0.76      0.00
   -1    5    8      0.03      0.00
    0    5    8     -1.01      0.00
   -3    6    8     -0.22      0.00
   -2    6    8     -0.01      0.00
   -1    6    8     -0.14      0.00
    0    6    8     -0.24      0.00
   -3    7    8     -0.60      0.00
   -2    7    8     -0.26      0.00
   -1    7    8      0.30      0.00
    0    7    8      0.58      0.00
   -4    8    8      0.23      0.00
   -3    8    8     -0.20      0.00
   -2    8    8     -0.01      0.00
   -1    8    8      0.34      0.00
    0    8    8      0.40      0.00
   -4    9    8      0.63      0.00
   -3    9    8     -0.11      0.00
   -2    9    8     -0.20      0.00
   -1    9    8      0.04      0.00
   -5   10    8      0.71      0.00
   -4   10    8     -0.01      0.00
   -3   10    8     -0.24      0.00
    0    2    9     -1.57      0.00
   -1    3    9     -0.74      0.00
    0    3    9     -0.76      0.00
   -1    4    9      0.46      0.00
    0    4    9      0.38      0.00
   -2    5    9      0.20      0.00
   -1    5    9      0.38      0.00
    0    1    0      0.13      0.00
   -1    5    0     -3.90      0.00
   -1   18    0      0.00      0.00
   -3   19    0      0.40      0.00
   -2    7    1     -6.77      0.00
    0    7    1      2.66      0.00
   -7   20    1      0.36      0.00
    0    0    2    -33.71      0.00
   -4   19    2     -0.25      0.00
  -10   20    2      0.57      0.00
   -9   20    2     -0.57      0.00
    0    2    3     10.77      0.00
   -1    3    3      2.85      0.00
   -3   18    3      0.50      0.00
   -6   19    3     -0.27      0.00
    0   16    4     -0.70      0.00
   -9   18    4      0.00      0.00
   -8   18    4      0.33      0.00
   -7   18    4     -0.29      0.00
    0   15    5      0.06      0.00
   -8   17    5     -0.12      0.00
   -7   17    5     -0.46      0.00
   -6   17    5     -0.34      0.00
   -1   14    6      0.24      0.00
   -1   12    7      0.03      0.00
   -3   13    7     -0.25      0.00
    0    9    8     -0.27      0.00
   -2   10    8     -0.32      0.00
    0    1    9     -0.46      0.00
    0    5    9      0.41      0.00
   -2    6    9     -0.18      0.00
    0    0    0      0.00      0.00
# SQUEEZE RESULTS (Version = 120716)
# Note: Data are Listed for all Voids in the P1 Unit Cell
# i.e. Centre of Gravity, Solvent Accessible Volume,
# Recovered number of Electrons in the Void and
# Details about the Squeezed Material
loop_
  _platon_squeeze_void_nr
  _platon_squeeze_void_average_x
  _platon_squeeze_void_average_y
  _platon_squeeze_void_average_z
  _platon_squeeze_void_volume
  _platon_squeeze_void_count_electrons
  _platon_squeeze_void_content
   1  0.000  0.500 -0.013       166        10 ' '
   2  0.500  0.000 -0.016       166        10 ' '
   3  0.500  0.500 -0.015       166        10 ' '
   4  0.270  0.135  0.250        21         4 ' '
   5  0.865  0.135  0.250        21         4 ' '
   6  0.865  0.730  0.250        21         4 ' '
   7  0.667  0.333  0.250         5         0 ' '
   8  0.135  0.270  0.750        21         4 ' '
   9  0.135  0.865  0.750        21         4 ' '
  10  0.730  0.865  0.750        21         4 ' '
  11  0.333  0.667  0.750         5         0 ' '
# Missing Reflections Below sin(th)/lambda = 0.25
loop_
  _platon_missing_refln_index_h
  _platon_missing_refln_index_k
  _platon_missing_refln_index_l
  _platon_missing_refln_theta
    0    1    0     3.133
   -1    5    0    14.504
   -2    7    1    20.885
    0    0    2    11.882
    0    2    3    19.124
   -1    3    3    19.939
_platon_squeeze_void_probe_radius                  1.20
_platon_squeeze_details
)
TITL FJU-56aP 63/m m c   R = 0.06
CELL   16.2883   16.2883    7.4885     90.00     90.00    120.00
SPGR P63/mmc
# Solvent Accessible Volume =       637
# Electrons Found in S.A.V. =        51
# Note: Atoms in Void as Cxxx and Qxxx all others
C101 0.284 0.141 0.251 !       2.52 eA-3
Q102 1.000 1.000 0.126 !       1.56 eA-3
C103 0.345 0.250 0.242 !       1.52 eA-3
)
;
_shelx_shelxl_version_number     2014/7
loop_
_space_group_symop_operation_xyz
'x, y, z'
'x-y, x, z+1/2'
'-y, x-y, z'
'-x, -y, z+1/2'
'-x+y, -x, z'
'y, -x+y, z+1/2'
'x-y, -y, -z'
'-x, -x+y, -z'
'y, x, -z'
'-y, -x, -z+1/2'
'-x+y, y, -z+1/2'
'x, x-y, -z+1/2'
'-x, -y, -z'
'-x+y, -x, -z-1/2'
'y, -x+y, -z'
'x, y, -z-1/2'
'x-y, x, -z'
'-y, x-y, -z-1/2'
'-x+y, y, z'
'x, x-y, z'
'-y, -x, z'
'y, x, z-1/2'
'x-y, -y, z-1/2'
'-x, -x+y, z-1/2'
loop_
_atom_site_label
_atom_site_type_symbol
_atom_site_fract_x
_atom_site_fract_y
_atom_site_fract_z
_atom_site_U_iso_or_equiv
_atom_site_adp_type
_atom_site_occupancy
_atom_site_site_symmetry_order
_atom_site_calc_flag
_atom_site_refinement_flags_posn
_atom_site_refinement_flags_adp
_atom_site_refinement_flags_occupancy
_atom_site_disorder_assembly
_atom_site_disorder_group
Co1 Co 0.0000 0.0000 0.5000 0.0312(5) Uani 1 12 d S TU P A 3
N1 N 0.06148(11) 0.1230(2) 0.3369(4) 0.0366(8) Uani 1 2 d S T P . .
C1 C 0.1318(2) 0.2637(4) 0.2500 0.0405(13) Uani 1 4 d S T P . .
N3 N 0.3333 0.6667 0.2500 0.082(5) Uani 1 12 d S T P . .
N2 N 0.10546(12) 0.2109(2) 0.3970(5) 0.0423(9) Uani 1 2 d S T P A .
C2 C 0.1838(2) 0.3677(4) 0.2500 0.0451(14) Uani 1 4 d S T P A .
C5 C 0.2831(2) 0.5662(4) 0.2500 0.0570(19) Uani 1 4 d S T P . .
C4 C 0.2585(5) 0.5170(9) 0.403(2) 0.104(4) Uani 0.649(14) 2 d S TU P A 1
H4 H 0.2749 0.5498 0.5103 0.124 Uiso 0.649(14) 2 calc RS T P A 1
C3 C 0.2086(4) 0.4171(8) 0.4054(18) 0.093(5) Uani 0.603(17) 2 d S TU P A 1
H3 H 0.1925 0.3851 0.5139 0.112 Uiso 0.603(17) 2 calc RS T P A 1
C3A C 0.2806(11) 0.4191(10) 0.2500 0.083(7) Uani 0.397(17) 2 d S T P A 2
H3A H 0.3150 0.3876 0.2500 0.099 Uiso 0.397(17) 2 calc RS T P A 2
C4A C 0.3281(11) 0.5165(9) 0.2500 0.078(6) Uani 0.351(14) 2 d S TU P A 2
H4A H 0.3940 0.5490 0.2500 0.094 Uiso 0.351(14) 2 calc RS T P A 2
loop_
_atom_site_aniso_label
_atom_site_aniso_U_11
_atom_site_aniso_U_22
_atom_site_aniso_U_33
_atom_site_aniso_U_23
_atom_site_aniso_U_13
_atom_site_aniso_U_12
Co1 0.0249(5) 0.0249(5) 0.0437(9) 0.000 0.000 0.0125(3)
N1 0.0310(11) 0.0289(15) 0.0493(17) -0.0001(14) -0.0001(7) 0.0144(7)
C1 0.036(2) 0.034(3) 0.050(3) 0.000 0.000 0.0169(14)
N3 0.023(3) 0.023(3) 0.200(16) 0.000 0.000 0.0116(13)
N2 0.0396(14) 0.0301(16) 0.054(2) -0.0018(15) -0.0009(8) 0.0150(8)
C2 0.036(2) 0.030(3) 0.067(4) 0.000 0.000 0.0150(14)
C5 0.030(2) 0.032(3) 0.109(6) 0.000 0.000 0.0160(15)
C4 0.113(5) 0.089(5) 0.100(5) -0.004(3) -0.0021(17) 0.045(2)
C3 0.132(8) 0.047(5) 0.073(6) -0.001(5) 0.000(2) 0.023(2)
C3A 0.056(8) 0.036(7) 0.156(19) 0.000 0.000 0.023(6)
C4A 0.049(8) 0.019(6) 0.161(17) 0.000 0.000 0.012(5)
loop_
_atom_type_symbol
_atom_type_description
_atom_type_scat_dispersion_real
_atom_type_scat_dispersion_imag
_atom_type_scat_source
C C 0.0181 0.0091 'International Tables Vol C Tables 4.2.6.8 and 6.1.1.4'
H H 0.0000 0.0000 'International Tables Vol C Tables 4.2.6.8 and 6.1.1.4'
Co Co -2.3653 3.6143 'International Tables Vol C Tables 4.2.6.8 and 6.1.1.4'
N N 0.0311 0.0180 'International Tables Vol C Tables 4.2.6.8 and 6.1.1.4'
loop_
_geom_angle_atom_site_label_1
_geom_angle_atom_site_label_2
_geom_angle_atom_site_label_3
_geom_angle
_geom_angle_site_symmetry_1
_geom_angle_site_symmetry_3
N1 Co1 N1 180.00(14) 15_556 3
N1 Co1 N1 180.0 . 13_556
N1 Co1 N1 90.16(12) 3 5
N1 Co1 N1 90.16(12) 15_556 13_556
N1 Co1 N1 90.16(12) 3 .
N1 Co1 N1 89.84(12) 15_556 5
N1 Co1 N1 89.84(12) 15_556 .
N1 Co1 N1 90.16(12) . 5
N1 Co1 N1 89.84(12) 5 13_556
N1 Co1 N1 89.84(12) . 17_556
N1 Co1 N1 180.00(15) 17_556 5
N1 Co1 N1 90.16(12) 17_556 13_556
N1 Co1 N1 89.84(12) 3 17_556
N1 Co1 N1 90.16(12) 15_556 17_556
N1 Co1 N1 89.84(12) 3 13_556
N1 N1 Co1 125.15(9) 16_556 .
N1 N1 N2 109.9(2) 16_556 .
N2 N1 Co1 124.9(3) . .
N2 C1 N2 111.9(5) . 16_556
N2 C1 C2 124.1(2) . .
N2 C1 C2 124.1(2) 16_556 .
C5 N3 C5 120.000(1) 14_566 3_665
C5 N3 C5 120.001(1) 3_665 .
C5 N3 C5 119.999(1) 14_566 .
N1 N2 C1 104.1(4) . .
C3 C2 C1 120.9(5) . .
C3 C2 C1 120.9(5) 16_556 .
C3 C2 C3 118.1(11) 16_556 .
C3A C2 C1 122.1(6) 19 .
C3A C2 C1 122.1(6) . .
C3A C2 C3A 115.8(12) 19 .
C4 C5 N3 121.3(6) 16_556 .
C4 C5 N3 121.3(6) . .
C4 C5 C4 117.4(12) 16_556 .
C4A C5 N3 121.7(6) 19 .
C4A C5 N3 121.7(6) . .
C4A C5 C4A 116.6(13) 19 .
C5 C4 C3 122.2(13) . .
C2 C3 C4 120.1(12) . .
C2 C3A C4A 121.3(13) . .
C5 C4A C3A 122.5(13) . .
loop_
_geom_bond_atom_site_label_1
_geom_bond_atom_site_label_2
_geom_bond_distance
_geom_bond_site_symmetry_2
Co1 N1 2.121(3) 15_556
Co1 N1 2.121(3) .
Co1 N1 2.121(3) 5
Co1 N1 2.121(3) 13_556
Co1 N1 2.121(3) 17_556
Co1 N1 2.121(3) 3
N1 N1 1.301(7) 16_556
N1 N2 1.320(5) .
C1 N2 1.329(5) .
C1 N2 1.329(5) 16_556
C1 C2 1.467(8) .
N3 C5 1.417(6) .
N3 C5 1.417(6) 3_665
N3 C5 1.417(6) 14_566
C2 C3 1.357(13) 16_556
C2 C3 1.357(13) .
C2 C3A 1.366(15) 19
C2 C3A 1.366(15) .
C5 C4 1.337(15) 16_556
C5 C4 1.337(15) .
C5 C4A 1.337(15) .
C5 C4A 1.337(15) 19
C4 C3 1.409(16) .
C3A C4A 1.374(18) .
