#------------------------------------------------------------------------------
#$Date: 2019-11-10 01:00:20 +0200 (Sun, 10 Nov 2019) $
#$Revision: 225482 $
#$URL: file:///home/coder/svn-repositories/cod/cif/4/51/53/4515319.cif $
#------------------------------------------------------------------------------
#
# This file is available in the Crystallography Open Database (COD),
# http://www.crystallography.net/
#
# All data on this site have been placed in the public domain by the
# contributors.
#
data_4515319
loop_
_publ_author_name
'Wang, Ani'
'Fan, Ruiqing'
'Pi, Xinxin'
'Zhou, Yuze'
'Chen, Guangyu'
'Chen, Wei'
'Yang, Yulin'
_publ_section_title
;
 Nitrogen-Doped Microporous Carbons Derived from Pyridine Ligand-Based
 Metal-Organic Complexes as High-Performance SO<sub>2</sub> Adsorption
 Sorbents.
;
_journal_issue                   43
_journal_name_full               'ACS applied materials &amp; interfaces'
_journal_page_first              37407
_journal_page_last               37416
_journal_paper_doi               10.1021/acsami.8b12739
_journal_volume                  10
_journal_year                    2018
_chemical_formula_sum            'C22 H0 N7 O7 Zn'
_chemical_formula_weight         539.68
_space_group_crystal_system      triclinic
_space_group_IT_number           2
_space_group_name_Hall           '-P 1'
_space_group_name_H-M_alt        'P -1'
_atom_sites_solution_hydrogens   geom
_audit_creation_method           SHELXL-2014/7
_cell_angle_alpha                103.732(5)
_cell_angle_beta                 91.115(5)
_cell_angle_gamma                93.432(5)
_cell_formula_units_Z            2
_cell_length_a                   9.483(4)
_cell_length_b                   10.421(5)
_cell_length_c                   12.108(5)
_cell_measurement_reflns_used    5433
_cell_measurement_temperature    296(2)
_cell_measurement_theta_max      27.674
_cell_measurement_theta_min      1.732
_cell_volume                     1159.6(9)
_computing_structure_refinement  'SHELXL-2014/7 (Sheldrick, 2014)'
_diffrn_ambient_temperature      296(2)
_diffrn_measured_fraction_theta_full 0.991
_diffrn_measured_fraction_theta_max 0.910
_diffrn_measurement_device_type  'Bruker Smart APEX CCD area detector'
_diffrn_measurement_method       'phi and omega scans'
_diffrn_radiation_type           MoK\a
_diffrn_radiation_wavelength     0.71073
_diffrn_reflns_av_R_equivalents  0.0634
_diffrn_reflns_av_unetI/netI     0.1237
_diffrn_reflns_Laue_measured_fraction_full 0.991
_diffrn_reflns_Laue_measured_fraction_max 0.910
_diffrn_reflns_limit_h_max       12
_diffrn_reflns_limit_h_min       -12
_diffrn_reflns_limit_k_max       13
_diffrn_reflns_limit_k_min       -13
_diffrn_reflns_limit_l_max       14
_diffrn_reflns_limit_l_min       -15
_diffrn_reflns_number            9579
_diffrn_reflns_point_group_measured_fraction_full 0.991
_diffrn_reflns_point_group_measured_fraction_max 0.910
_diffrn_reflns_theta_full        25.242
_diffrn_reflns_theta_max         27.674
_diffrn_reflns_theta_min         1.732
_exptl_absorpt_coefficient_mu    1.117
_exptl_absorpt_correction_T_max  0.896
_exptl_absorpt_correction_T_min  0.799
_exptl_absorpt_correction_type   multi-scan
_exptl_crystal_colour            yellow
_exptl_crystal_density_diffrn    1.546
_exptl_crystal_description       block
_exptl_crystal_F_000             534
_exptl_crystal_size_max          0.210
_exptl_crystal_size_mid          0.120
_exptl_crystal_size_min          0.100
_exptl_transmission_factor_max   0.894
_exptl_transmission_factor_min   0.851
_refine_diff_density_max         0.811
_refine_diff_density_min         -0.374
_refine_diff_density_rms         0.082
_refine_ls_extinction_method     none
_refine_ls_goodness_of_fit_ref   1.000
_refine_ls_hydrogen_treatment    constr
_refine_ls_matrix_type           full
_refine_ls_number_parameters     330
_refine_ls_number_reflns         4943
_refine_ls_number_restraints     0
_refine_ls_restrained_S_all      1.000
_refine_ls_R_factor_all          0.1648
_refine_ls_R_factor_gt           0.0811
_refine_ls_shift/su_max          0.000
_refine_ls_shift/su_mean         0.000
_refine_ls_structure_factor_coef Fsqd
_refine_ls_weighting_details
'w=1/[\s^2^(Fo^2^)+(0.1000P)^2^] where P=(Fo^2^+2Fc^2^)/3'
_refine_ls_weighting_scheme      calc
_refine_ls_wR_factor_gt          0.1603
_refine_ls_wR_factor_ref         0.1999
_reflns_Friedel_coverage         0.000
_reflns_number_gt                2631
_reflns_number_total             4943
_reflns_threshold_expression     'I > 2\s(I)'
_cod_data_source_file            am8b12739_si_002.cif
_cod_data_source_block           MOC-1
_cod_database_code               4515319
_shelx_shelxl_version_number     2014/7
_shelx_space_group_comment
;
The symmetry employed for this shelxl refinement is uniquely defined
by the following loop, which should always be used as a source of
symmetry information in preference to the above space-group names.
They are only intended as comments.
;
_shelx_estimated_absorpt_t_min   0.799
_shelx_estimated_absorpt_t_max   0.896
_shelx_res_file
;

    A.res created by SHELXL-2014/7


TITL A in P1                          P-1
CELL  0.71073    9.4830   10.4210   12.1080   103.732    91.115    93.432
ZERR 2           0.0040    0.0050    0.0050     0.005     0.005     0.005
LATT   1
SFAC  C   2.31000  20.84392   1.02000  10.20751   1.58860   0.56870   0.86500 =
         51.65125   0.21560   0.00330   0.00160    11.500   0.68000  12.01000
SFAC  H   0.49300  10.51091   0.32291  26.12573   0.14019   3.14236   0.04081 =
         57.79977   0.00304   0.00000   0.00000     0.624   0.35000   1.00800
SFAC  N  12.21261   0.00570   3.13220   9.89331   2.01250  28.99754   1.16630 =
          0.58260 -11.52901   0.00610   0.00330    19.600   0.68000  14.01000
SFAC  O   3.04850  13.27711   2.28680   5.70111   1.54630   0.32390   0.86700 =
         32.90894   0.25080   0.01060   0.00600    32.500   0.68000  16.00000
SFAC Zn  14.07431   3.26550   7.03181   0.23330   5.16521  10.31631   2.41000 =
         58.70976   1.30410   0.28390   1.43010  5860.000   1.45000  65.39000
UNIT    44    0  14  14   2
TEMP    23
L.S. 10
ACTA
ACTA

SIZE 0.21 0.12 0.10

BOND $H

WGHT    0.100000
FVAR       0.11410
ZN1   5    0.806524    0.286296    0.245315    11.00000    0.05742    0.03374 =
         0.04121   -0.00487   -0.00463    0.00212
O1    4    0.925770    0.031496    0.147704    11.00000    0.15737    0.06016 =
         0.06565   -0.00458    0.01138    0.01557
O2    4    1.011727   -0.021192    0.291962    11.00000    0.15554    0.08705 =
         0.14131    0.05465    0.02058    0.07321
O3    4    0.899267    0.153848    0.313548    11.00000    0.09511    0.04875 =
         0.05136   -0.00144   -0.00053    0.01970
O4    4    0.641119    0.394993    0.137621    11.00000    0.09035    0.06607 =
         0.07184    0.00708    0.00255   -0.00466
O5    4    0.654227    0.188783    0.129735    11.00000    0.06966    0.05766 =
         0.05928   -0.00105   -0.01606    0.00415
O6    4    0.514323    0.249309    0.011495    11.00000    0.07471    0.13709 =
         0.06846    0.01765   -0.03052   -0.01098
N1    3    0.691746    0.348021    0.402610    11.00000    0.05399    0.03686 =
         0.04119    0.00252   -0.00309    0.00747
N2    3    0.679784    0.497191    0.567105    11.00000    0.05617    0.04890 =
         0.03226   -0.00776   -0.00270    0.01633
AFIX  43
H2A   2    0.697632    0.568793    0.619112    11.00000   -1.20000
AFIX   0
N3    3    0.897457    0.474498    0.321568    11.00000    0.05061    0.03132 =
         0.03681   -0.00067   -0.00387    0.00628
N4    3    0.970071    0.328531    0.124919    11.00000    0.05407    0.03254 =
         0.04479   -0.00021   -0.00394    0.00341
N5    3    0.600165    0.277279    0.090866    11.00000    0.05379    0.07729 =
         0.04560    0.00133    0.00453   -0.00375
N6    3    0.945847    0.051083    0.250712    11.00000    0.08416    0.04062 =
         0.06954    0.00475    0.00858    0.00898
N7    3    0.276550    0.261044    0.251584    11.00000    0.10177    0.06520 =
         0.04730   -0.01274   -0.00961    0.01533
C1    1    0.504164    0.185587    0.444214    11.00000    0.07148    0.05227 =
         0.05503    0.00872    0.00271    0.00250
AFIX  43
H1A   2    0.508762    0.123240    0.375470    11.00000   -1.20000
AFIX   0
C2    1    0.411274    0.164650    0.525866    11.00000    0.07564    0.06216 =
         0.07866    0.02532    0.00471    0.00673
C3    1    0.407945    0.258372    0.633815    11.00000    0.07090    0.07755 =
         0.06165    0.02223    0.00889    0.00898
C4    1    0.491783    0.373542    0.655704    11.00000    0.06167    0.07714 =
         0.04207    0.00932    0.00433    0.02318
AFIX  43
H4A   2    0.488215    0.435836    0.724589    11.00000   -1.20000
AFIX   0
C5    1    0.582024    0.394798    0.572550    11.00000    0.04695    0.04950 =
         0.04952    0.00613   -0.00441    0.01438
C6    1    0.590058    0.301546    0.467317    11.00000    0.04744    0.04406 =
         0.03976    0.00330   -0.00019    0.00828
C7    1    0.742142    0.464800    0.465752    11.00000    0.04998    0.03644 =
         0.03588   -0.00107   -0.00546    0.01083
C8    1    0.853365    0.540261    0.422336    11.00000    0.04878    0.04162 =
         0.04338    0.00529   -0.00695    0.00805
C9    1    0.913902    0.666607    0.475932    11.00000    0.06498    0.04117 =
         0.04072   -0.00736   -0.01391    0.00759
AFIX  43
H9A   2    0.883998    0.711357    0.546547    11.00000   -1.20000
AFIX   0
C10   1    1.018494    0.722775    0.421644    11.00000    0.06669    0.03409 =
         0.05566   -0.00146   -0.01531   -0.00041
AFIX  43
H10A  2    1.058115    0.807069    0.455609    11.00000   -1.20000
AFIX   0
C11   1    1.000410    0.528376    0.269285    11.00000    0.04388    0.03474 =
         0.03927    0.00520   -0.00455    0.00634
C12   1    1.041608    0.447181    0.162829    11.00000    0.04744    0.03854 =
         0.04243    0.00900   -0.00255    0.00669
C13   1    1.010955    0.253282    0.027501    11.00000    0.06370    0.04251 =
         0.04893    0.00401    0.00108    0.00116
AFIX  43
H13A  2    0.963716    0.170798   -0.000757    11.00000   -1.20000
AFIX   0
C14   1    1.120829    0.292300   -0.033798    11.00000    0.08218    0.05220 =
         0.04652    0.00258    0.01417    0.00555
AFIX  43
H14A  2    1.145956    0.236079   -0.101294    11.00000   -1.20000
AFIX   0
C15   1    1.191806    0.412320    0.004439    11.00000    0.07279    0.05884 =
         0.05839    0.01551    0.01768    0.00893
AFIX  43
H15A  2    1.265813    0.438683   -0.036217    11.00000   -1.20000
AFIX   0
C16   1    1.151898    0.495944    0.106122    11.00000    0.05417    0.04158 =
         0.04853    0.01241    0.00005    0.00258
C17   1    1.218850    0.625232    0.154784    11.00000    0.06110    0.04981 =
         0.06156    0.01635    0.00155    0.00096
AFIX  43
H17A  2    1.292967    0.657102    0.117407    11.00000   -1.20000
AFIX   0
C18   1    1.176890    0.700770    0.252694    11.00000    0.06062    0.04076 =
         0.05803    0.00997   -0.01800   -0.00696
AFIX  43
H18A  2    1.220488    0.784975    0.280405    11.00000   -1.20000
AFIX   0
C19   1    1.066705    0.654908    0.315493    11.00000    0.05263    0.03886 =
         0.04530    0.00634   -0.01299    0.00563
PART   1
C20A  1    0.294244    0.053865    0.500645    10.50000    0.08385
AFIX  33
H20A  2    0.241610    0.055825    0.567889    10.50000   -1.50000
H20B  2    0.232203    0.065960    0.440862    10.50000   -1.50000
H20C  2    0.335219   -0.029958    0.477300    10.50000   -1.50000
AFIX   0
PART   2
C20B  1    0.327917    0.224166    0.723486    10.50000    0.04085    0.10738 =
         0.05936    0.02490    0.01868    0.00625
AFIX  33
H20D  2    0.274920    0.141088    0.694646    10.50000   -1.50000
H20E  2    0.391180    0.216824    0.784221    10.50000   -1.50000
H20G  2    0.264189    0.291738    0.751492    10.50000   -1.50000
AFIX   0
PART   0
C21   1    0.302676    0.038869    0.109257    11.00000    0.10114    0.06882 =
         0.08388   -0.02503    0.01715   -0.00042
AFIX 137
H21A  2    0.399715    0.017588    0.110417    11.00000   -1.20000
H21B  2    0.274980    0.044928    0.034074    11.00000   -1.20000
H21C  2    0.244108   -0.029146    0.130464    11.00000   -1.20000
AFIX   0
C22   1    0.286462    0.164124    0.188734    11.00000    0.06619    0.06133 =
         0.05176   -0.00816   -0.00256    0.00313

HKLF 4 1  1.0000  0.0000  0.0000  0.0000  1.0000  0.0000  0.0000  0.0000  1.0000

REM  A in P1                          P-1
REM R1 =  0.0811 for    2631 Fo > 4sig(Fo)  and  0.1648 for all    4943 data
REM    330 parameters refined using      0 restraints

END

WGHT      0.0731      0.1170

REM Highest difference peak  0.811,  deepest hole -0.374,  1-sigma level  0.082
Q1    1   0.7551  0.2231  0.1900  11.00000  0.05    0.81
Q2    1   0.7162  0.2737  0.1948  11.00000  0.05    0.67
Q3    1   0.8503  0.3445  0.3070  11.00000  0.05    0.56
Q4    1   0.9002  0.2815  0.2825  11.00000  0.05    0.48
Q5    1   0.6938  0.3057  0.3247  11.00000  0.05    0.39
Q6    1   0.9323  0.2226  0.2402  11.00000  0.05    0.37
Q7    1   0.6776  0.3397  0.2428  11.00000  0.05    0.37
Q8    1   0.9085  0.3451  0.1737  11.00000  0.05    0.36
Q9    1   0.8382  0.2982  0.2250  11.00000  0.05    0.36
Q10   1   0.8359  0.0562  0.2238  11.00000  0.05    0.35
Q11   1   0.9502 -0.0503  0.2931  11.00000  0.05    0.35
Q12   1   0.4252  0.2110  0.5854  11.00000  0.05    0.34
Q13   1   1.0264  0.4724  0.2121  11.00000  0.05    0.33
Q14   1   1.1005  0.4706  0.1331  11.00000  0.05    0.33
Q15   1   0.7873  0.1387  0.1214  11.00000  0.05    0.32
Q16   1   1.0117  0.2985  0.1603  11.00000  0.05    0.30
Q17   1   0.5678  0.4265  0.0735  11.00000  0.05    0.30
Q18   1   0.6559  0.3260  0.4259  11.00000  0.05    0.30
Q19   1   0.9013  0.2699  0.1704  11.00000  0.05    0.29
Q20   1   0.4944  0.2434 -0.0457  11.00000  0.05    0.29
;
_shelx_res_checksum              57312
_shelx_hkl_file
;
  -2   0   0    0.77    0.08
   2   0   0    0.79    0.20
  -3   0   0    1.47    0.13
   3   0   0    1.34    0.30
  -4   0   0    1.94    0.17
   4   0   0    1.98    0.38
  -5   0   0    4.78    0.28
   5   0   0    5.57    0.55
  -6   0   0    6.02    0.36
   6   0   0    6.25    0.70
  -7   0   0    0.37    0.22
   7   0   0    1.00    0.59
  -8   0   0    2.33    0.32
   8   0   0    2.20    0.76
  -9   0   0   -0.02    0.29
   9   0   0    0.85    0.70
 -10   0   0    2.14    0.38
  10   0   0    2.17    0.89
 -11   0   0    0.03    0.37
  11   0   0    0.60    0.87
  12   0   0    0.57    0.99
  12  -1   0    0.79    1.48
 -12   1   0   -0.09    0.59
  11  -1   0    0.63    0.81
 -11   1   0   -0.29    0.37
  10  -1   0    0.25    0.75
 -10   1   0   -0.11    0.33
   9  -1   0    1.15    0.74
  -9   1   0    0.97    0.31
   8  -1   0    1.46    0.68
  -8   1   0    0.35    0.24
   7  -1   0    6.27    0.80
  -7   1   0    6.65    0.39
   6  -1   0   28.36    1.19
  -6   1   0   29.46    0.76
   5  -1   0    1.63    0.47
  -5   1   0    1.62    0.19
   4  -1   0   22.90    0.88
  -4   1   0   23.44    0.57
   3  -1   0    3.48    0.38
  -3   1   0    4.00    0.18
   2  -1   0   -0.09    0.18
  -2   1   0    0.06    0.06
   1  -1   0   85.76    1.92
  -1   1   0   94.63    1.83
  -1  -1   0   46.56    0.99
   1   1   0   47.56    1.01
   1   1   0   45.79    0.98
   1   1   0   47.95    0.97
  -2  -1   0   29.72    0.66
   2   1   0   28.58    0.65
   2   1   0   29.32    0.77
   2   1   0   29.27    0.64
  -3  -1   0   14.35    0.40
   3   1   0   14.61    0.38
   3   1   0   13.54    0.56
   3   1   0   14.84    0.39
  -4  -1   0    9.03    0.33
   4   1   0    9.68    0.55
   4   1   0    9.20    0.32
   4   1   0    9.18    0.32
   5   1   0    4.05    0.28
   5   1   0    4.35    0.53
  -6  -1   0    8.00    0.40
   6   1   0    9.00    0.74
  -7  -1   0    4.91    0.39
   7   1   0    4.59    0.76
  -8  -1   0    0.10    0.25
   8   1   0    0.25    0.65
  -9  -1   0    2.13    0.37
   9   1   0    2.00    0.79
 -10  -1   0   -0.21    0.33
  10   1   0    0.71    0.80
 -11  -1   0    0.36    0.39
  11   1   0    0.01    0.86
  12   1   0    0.84    0.96
  11  -2   0    0.54    0.85
 -11   2   0   -0.24    0.35
  10  -2   0    1.65    0.84
 -10   2   0    0.93    0.35
   9  -2   0    0.83    0.74
  -9   2   0    0.16    0.29
   8  -2   0    3.27    0.80
  -8   2   0    3.19    0.33
   7  -2   0    4.90    0.83
  -7   2   0    4.33    0.37
   6  -2   0    0.14    0.49
  -6   2   0    0.06    0.17
   5  -2   0   12.12    0.76
  -5   2   0   12.22    0.41
   4  -2   0    6.76    0.55
  -4   2   0    7.44    0.28
   3  -2   0    4.39    0.42
  -3   2   0    5.00    0.21
   2  -2   0   15.98    0.59
  -2   2   0   15.99    0.39
   1  -2   0  155.81    3.18
   1  -2   0  160.99    3.26
  -1   2   0  150.17    3.16
   0  -2   0   66.65    1.42
   0   2   0   67.68    1.39
  -1  -2   0    1.59    0.18
   1   2   0    1.34    0.11
   1   2   0    2.06    0.17
  -2  -2   0   39.63    0.90
   2   2   0   40.10    0.86
   2   2   0   39.14    0.95
   2   2   0   39.14    0.89
  -3  -2   0   48.80    1.09
   3   2   0   47.64    1.08
   3   2   0   47.34    1.05
   3   2   0   48.22    1.23
  -4  -2   0    2.37    0.23
   4   2   0    3.06    0.43
   4   2   0    2.45    0.22
   4   2   0    2.54    0.22
  -5  -2   0   16.47    0.55
   5   2   0   16.79    0.82
   5   2   0   16.64    0.51
  -6  -2   0    6.23    0.44
   6   2   0    5.79    0.36
   6   2   0    6.02    0.69
   7   2   0    0.63    0.57
   7   2   0    0.24    0.24
  -8  -2   0    0.30    0.28
   8   2   0    0.79    0.68
  -9  -2   0    1.81    0.35
   9   2   0    1.08    0.80
 -10  -2   0    1.60    0.39
  10   2   0    2.04    0.89
 -11  -2   0    0.34    0.41
  11   2   0    0.82    0.90
  11  -3   0    0.72    0.91
 -11   3   0    0.11    0.40
  10  -3   0    0.92    0.83
 -10   3   0   -0.50    0.32
   9  -3   0    1.48    0.81
  -9   3   0    1.18    0.34
   8  -3   0    2.04    0.80
  -8   3   0    2.94    0.33
   7  -3   0    0.82    0.63
  -7   3   0    0.86    0.23
   6  -3   0    4.55    0.69
  -6   3   0    4.33    0.34
   5  -3   0    5.83    0.63
  -5   3   0    6.42    0.32
   4  -3   0   10.43    0.67
  -4   3   0   10.61    0.35
   3  -3   0   12.73    0.61
  -3   3   0   12.68    0.37
   2  -3   0    7.22    0.42
   2  -3   0    7.10    0.32
  -2   3   0    7.12    0.25
   1  -3   0   39.94    0.99
   1  -3   0   40.41    0.93
  -1   3   0   40.99    0.88
   0  -3   0   40.43    0.93
   0   3   0   39.61    0.87
  -1  -3   0    1.57    0.19
   1   3   0    1.20    0.12
  -2  -3   0    7.96    0.36
   2   3   0    7.69    0.26
  -3  -3   0    2.55    0.25
   3   3   0    2.08    0.31
   3   3   0    2.61    0.20
  -4  -3   0   35.64    0.92
   4   3   0   35.53    0.85
   4   3   0   34.84    1.07
  -5  -3   0   17.04    0.65
   5   3   0   18.13    0.54
   5   3   0   17.25    0.83
  -6  -3   0    2.83    0.35
   6   3   0    3.29    0.63
   6   3   0    3.20    0.29
  -7  -3   0   11.12    0.63
   7   3   0   10.84    0.90
   7   3   0   12.19    0.53
   8   3   0    3.41    0.38
   8   3   0    2.94    0.82
   9   3   0    1.25    0.81
 -10  -3   0    2.06    0.39
 -11  -3   0    0.62    0.40
  11  -4   0    0.09    0.88
 -11   4   0   -0.75    0.36
  10  -4   0    0.90    0.87
 -10   4   0   -0.26    0.33
   9  -4   0    1.09    0.84
  -9   4   0    1.16    0.34
   8  -4   0    1.50    0.76
  -8   4   0    1.76    0.30
   7  -4   0    3.38    0.77
  -7   4   0    4.16    0.39
   6  -4   0    2.17    0.64
  -6   4   0    2.14    0.25
   5  -4   0    2.95    0.58
  -5   4   0    2.38    0.25
   4  -4   0   22.74    0.92
  -4   4   0   22.04    0.59
   3  -4   0   -0.35    0.17
   3  -4   0   -0.22    0.29
  -3   4   0    0.13    0.12
   2  -4   0   20.26    0.70
   2  -4   0   19.58    0.59
  -2   4   0   20.26    0.51
   1  -4   0   -0.09    0.16
   1  -4   0   -0.15    0.17
  -1   4   0   -0.03    0.11
   0  -4   0   68.35    1.56
   0   4   0   70.78    1.48
  -1  -4   0   69.19    1.58
   1   4   0   70.49    1.49
  -2  -4   0    7.70    0.41
   2   4   0    7.06    0.28
  -3  -4   0    2.28    0.28
   3   4   0    2.53    0.21
  -4  -4   0    5.27    0.47
   4   4   0    5.94    0.32
   4   4   0    5.51    0.47
  -5  -4   0    6.40    0.56
   5   4   0    6.50    0.38
   5   4   0    7.44    0.62
  -6  -4   0   20.70    0.81
   6   4   0   20.23    0.65
   6   4   0   19.45    1.00
  -7  -4   0    6.88    0.65
   7   4   0    7.82    0.49
   8   4   0    0.96    0.34
   9   4   0    1.19    0.38
 -11  -4   0    0.68    0.42
  11  -5   0    0.86    1.01
 -11   5   0    0.07    0.40
  10  -5   0    0.75    0.91
 -10   5   0   -0.11    0.33
   9  -5   0    0.54    0.83
  -9   5   0    0.15    0.33
   8  -5   0    3.38    0.90
  -8   5   0    2.60    0.36
   7  -5   0    0.02    0.65
  -7   5   0    0.02    0.25
   6  -5   0    2.57    0.70
  -6   5   0    2.90    0.31
   5  -5   0    8.53    0.75
   4  -5   0    6.67    0.63
  -4   5   0    7.55    0.35
   3  -5   0   13.01    0.66
   3  -5   0   11.76    0.53
  -3   5   0   12.18    0.41
   2  -5   0    2.35    0.28
   2  -5   0    2.79    0.38
  -2   5   0    2.48    0.23
   1  -5   0   13.11    0.52
   1  -5   0   12.48    0.49
  -1   5   0   12.92    0.40
   0  -5   0   20.61    0.67
   0   5   0   20.83    0.55
  -1  -5   0   26.83    0.80
   1   5   0   27.46    0.68
  -2  -5   0   12.43    0.55
   2   5   0   11.53    0.40
  -3  -5   0    8.24    0.53
   3   5   0    8.85    0.36
  -4  -5   0    3.45    0.40
   4   5   0    2.86    0.30
  -5  -5   0    3.56    0.46
   5   5   0    4.26    0.36
  -6  -5   0   -0.25    0.37
   6   5   0   -0.14    0.24
  -7  -5   0   -0.15    0.40
   7   5   0    0.19    0.30
   8   5   0    0.35    0.34
   9   5   0    0.41    0.39
  10   5   0    1.86    0.45
  10  -6   0   -0.21    0.92
 -10   6   0   -0.04    0.38
   9  -6   0    1.47    0.92
  -9   6   0    0.98    0.37
   8  -6   0    0.36    0.76
  -8   6   0   -0.04    0.30
   7  -6   0    0.83    0.71
  -7   6   0    0.69    0.29
   6  -6   0    1.13    0.63
  -6   6   0    0.77    0.26
   5  -6   0    6.99    0.74
  -5   6   0    7.80    0.44
   4  -6   0   21.11    0.96
   4  -6   0   20.68    0.76
  -4   6   0   20.71    0.62
   3  -6   0    0.97    0.40
   3  -6   0    0.66    0.30
  -3   6   0    0.89    0.20
   2  -6   0    5.92    0.51
   2  -6   0    5.65    0.46
  -2   6   0    5.80    0.32
   1  -6   0   18.40    0.71
  -1   6   0   19.14    0.54
   0  -6   0    5.37    0.48
   0   6   0    4.79    0.30
  -1  -6   0    0.99    0.28
   1   6   0    0.94    0.20
  -2  -6   0    0.95    0.30
   2   6   0    1.03    0.20
  -3  -6   0   10.95    0.65
   3   6   0    9.60    0.42
  -4  -6   0    5.50    0.65
   4   6   0    6.69    0.39
  -5  -6   0    1.56    0.45
   5   6   0    1.78    0.31
  -6  -6   0    1.43    0.46
   6   6   0    1.73    0.32
  -7  -6   0    0.08    0.46
   7   6   0    0.32    0.34
  -8  -6   0   -0.49    0.50
   8   6   0   -0.07    0.34
   9   6   0    1.44    0.43
  10   6   0    0.78    0.45
  10  -7   0    0.22    0.93
 -10   7   0    0.57    0.45
   9  -7   0    0.69    0.86
  -9   7   0   -0.01    0.38
   8  -7   0    0.37    0.77
  -8   7   0    0.06    0.34
   7  -7   0    0.34    0.70
  -7   7   0   -0.14    0.33
   6  -7   0   -0.09    0.58
  -6   7   0   -0.12    0.28
   5  -7   0    6.65    0.77
  -5   7   0    7.54    0.47
   4  -7   0    0.95    0.53
   4  -7   0    0.77    0.35
  -4   7   0    1.10    0.25
   3  -7   0   10.73    0.68
   3  -7   0    9.57    0.68
  -3   7   0   10.02    0.44
   2  -7   0    6.32    0.52
   2  -7   0    6.66    0.62
  -2   7   0    6.19    0.37
   1  -7   0    0.84    0.35
  -1   7   0    0.55    0.20
   0  -7   0   10.20    0.66
   0   7   0   10.83    0.44
  -1  -7   0    4.13    0.56
   1   7   0    3.68    0.34
  -2  -7   0    0.48    0.34
   2   7   0    0.33    0.20
  -3  -7   0    5.16    0.66
   3   7   0    5.15    0.38
  -4  -7   0    0.61    0.42
   4   7   0    0.72    0.24
  -5  -7   0   11.41    0.85
   5   7   0   11.10    0.56
  -6  -7   0   -0.27    0.50
   6   7   0    0.35    0.31
  -7  -7   0   -0.04    0.53
   7   7   0   -0.09    0.35
  -8  -7   0   -0.18    0.57
   8   7   0    1.03    0.41
   9   7   0    0.25    0.43
  10  -8   0    1.00    1.00
   9  -8   0    1.43    0.93
  -9   8   0    0.62    0.43
   8  -8   0    0.97    0.86
  -8   8   0    0.22    0.38
   7  -8   0    0.55    0.76
  -7   8   0   -0.09    0.36
   6  -8   0    3.09    0.79
  -6   8   0    2.72    0.38
   5  -8   0    0.11    0.55
  -5   8   0   -0.19    0.28
   4  -8   0    7.85    0.80
  -4   8   0    7.89    0.48
   3  -8   0    0.06    0.39
  -3   8   0    0.05    0.23
   2  -8   0    3.89    0.49
  -2   8   0    4.34    0.39
   1  -8   0    6.91    0.70
  -1   8   0    6.61    0.41
   0  -8   0    0.55    0.40
   0   8   0    0.55    0.23
  -1  -8   0    1.44    0.43
   1   8   0    1.01    0.23
  -2  -8   0    3.92    0.51
   2   8   0    4.00    0.39
  -3  -8   0    0.06    0.44
   3   8   0    0.34    0.26
  -4  -8   0    5.60    0.63
   4   8   0    4.79    0.47
  -5  -8   0    1.15    0.55
   5   8   0    1.07    0.33
  -6  -8   0    1.68    0.61
   6   8   0    2.22    0.42
  -7  -8   0    1.00    0.63
   7   8   0    1.70    0.42
  -8  -8   0    0.36    0.65
   8   8   0    0.40    0.43
   9  -9   0    0.53    0.94
   8  -9   0    1.99    0.90
  -8   9   0    0.75    0.42
   7  -9   0    1.59    1.31
  -7   9   0    0.75    0.38
  -6   9   0   -0.09    0.33
  -5   9   0    4.55    0.47
  -4   9   0    1.35    0.32
   3  -9   0    1.54    0.48
  -3   9   0    1.21    0.31
   2  -9   0    1.18    0.47
  -2   9   0    1.23    0.31
   1  -9   0    0.78    0.46
  -1   9   0    0.76    0.30
   0  -9   0   12.23    0.89
   0   9   0   11.69    0.56
  -1  -9   0    0.20    0.47
   1   9   0    0.18    0.25
  -2  -9   0    3.35    0.59
   2   9   0    3.63    0.39
  -3  -9   0    2.74    0.61
   3   9   0    3.34    0.38
  -4  -9   0    1.81    0.62
   4   9   0    1.69    0.38
  -5  -9   0    0.86    0.63
   5   9   0    0.97    0.37
  -6  -9   0    1.41    0.68
   6   9   0    1.39    0.41
  -7  -9   0   -0.77    0.65
   7   9   0    0.26    0.41
  -8  -9   0   -0.26    0.71
  -7  10   0   -0.13    0.41
  -6  10   0    1.64    0.40
  -5  10   0    1.24    0.37
  -4  10   0    2.55    0.38
   3 -10   0    6.50    0.86
  -3  10   0    5.70    0.53
   2 -10   0    0.14    0.50
  -2  10   0    0.19    0.32
   1 -10   0    0.78    0.53
  -1  10   0    0.79    0.34
   0 -10   0    0.48    0.54
   0  10   0    0.19    0.31
  -1 -10   0    5.16    0.70
   1  10   0    4.50    0.42
  -2 -10   0    3.78    0.69
   2  10   0    4.11    0.43
  -3 -10   0    0.97    0.64
   3  10   0    1.02    0.37
  -4 -10   0   -0.14    0.64
   4  10   0    0.69    0.37
  -5 -10   0    1.70    0.73
   5  10   0    1.91    0.44
  -6 -10   0    0.33    0.73
   6  10   0    0.11    0.41
  -7 -10   0    0.65    0.82
  -6  11   0    0.00    0.38
  -5  11   0    0.33    0.36
  -4  11   0    2.56    0.43
  -3  11   0    0.24    0.34
   2 -11   0    0.52    0.58
  -2  11   0    1.19    0.38
   1 -11   0    2.02    0.63
  -1  11   0    2.41    0.45
   0 -11   0    0.95    0.63
   0  11   0    1.28    0.39
  -1 -11   0    2.75    0.70
   1  11   0    2.97    0.44
  -2 -11   0    0.02    0.65
   2  11   0   -0.01    0.37
  -3 -11   0    1.34    0.74
   3  11   0    1.12    0.41
  -4 -11   0    0.24    0.75
   4  11   0    0.62    0.41
  -5 -11   0    0.83    0.84
   5  11   0    0.27    0.44
  -4  12   0    0.04    0.38
  -3  12   0    2.19    0.42
   2 -12   0    0.77    0.65
  -2  12   0   -0.11    0.40
   1 -12   0    0.55    0.66
  -1  12   0    0.57    0.40
   0 -12   0    1.13    0.70
   0  12   0    1.36    0.44
  -1 -12   0   -0.15    0.69
   1  12   0    0.47    0.39
  -2 -12   0    0.95    0.76
   2  12   0    1.35    0.45
   2 -13   0    0.90    0.77
   1 -13   0    1.34    0.77
   0 -13   1    0.68    0.88
   1 -13   1    0.58    0.73
   2 -13   1    0.67    1.12
   3  12  -1    0.64    0.42
  -3 -12   1    0.17    0.82
   2  12  -1    0.17    0.39
  -2 -12   1   -0.29    0.72
   1  12  -1    0.99    0.40
  -1 -12   1    1.24    0.72
   0  12  -1   -0.15    0.39
   0 -12   1    0.05    0.65
  -1  12  -1    1.81    0.43
   1 -12   1    1.86    0.68
  -2  12  -1    1.30    0.42
   2 -12   1    0.74    0.64
  -3  12  -1   -0.18    0.36
  -4  12  -1    1.53    0.41
   5  11  -1    0.94    0.42
  -5 -11   1    0.36    0.77
   4  11  -1    0.52    0.39
  -4 -11   1    0.42    0.75
   3  11  -1    0.43    0.38
  -3 -11   1   -0.72    0.66
   2  11  -1    1.96    0.40
  -2 -11   1    0.93    0.68
   1  11  -1    1.05    0.38
  -1 -11   1    0.49    0.64
   0  11  -1    0.18    0.35
   0 -11   1   -0.35    0.58
  -1  11  -1    0.24    0.34
   1 -11   1    0.52    0.58
  -2  11  -1    0.70    0.36
   2 -11   1    0.94    0.59
  -3  11  -1    0.89    0.36
  -4  11  -1    3.95    0.45
  -5  11  -1    0.01    0.37
  -6  11  -1   -0.21    0.38
   7  10  -1    0.21    0.63
  -7 -10   1   -0.45    0.75
   6  10  -1    0.77    0.41
  -6 -10   1    0.23    0.73
   5  10  -1    0.00    0.35
  -5 -10   1   -0.41    0.65
   4  10  -1    0.59    0.37
  -4 -10   1    0.63    0.66
   3  10  -1    3.17    0.44
  -3 -10   1    2.15    0.66
   2  10  -1    1.04    0.35
  -2 -10   1    0.34    0.58
   1  10  -1    0.62    0.31
  -1 -10   1    0.00    0.53
   0  10  -1    0.79    0.31
   0 -10   1    0.19    0.52
  -1  10  -1    1.06    0.32
   1 -10   1    0.70    0.52
  -2  10  -1   -0.21    0.28
   2 -10   1   -0.34    0.47
  -3  10  -1    0.16    0.30
   3 -10   1    0.13    0.48
  -4  10  -1    2.48    0.41
  -5  10  -1    1.63    0.39
  -6  10  -1    0.35    0.35
  -7  10  -1    0.44    0.39
   8   9  -1    0.03    0.43
  -8  -9   1   -0.79    0.70
   7   9  -1    0.95    0.42
  -7  -9   1   -0.28    0.67
   6   9  -1    1.15    0.40
  -6  -9   1    0.39    0.64
   5   9  -1    0.73    0.36
  -5  -9   1    0.50    0.61
   4   9  -1    3.51    0.42
  -4  -9   1    2.80    0.63
   3   9  -1    1.30    0.31
  -3  -9   1    0.71    0.52
   2   9  -1    6.93    0.48
  -2  -9   1    5.89    0.64
   1   9  -1    0.80    0.27
  -1  -9   1    0.62    0.46
   0   9  -1    0.99    0.28
   0  -9   1    0.91    0.45
  -1   9  -1    2.29    0.30
   1  -9   1    2.96    0.52
  -2   9  -1    0.57    0.27
   2  -9   1    0.93    0.45
  -3   9  -1    0.05    0.26
   3  -9   1   -0.26    0.41
  -4   9  -1    3.25    0.36
  -5   9  -1    1.47    0.34
  -6   9  -1    5.69    0.56
   6  -9   1    7.10    1.27
  -7   9  -1   -0.32    0.34
   7  -9   1    0.99    0.78
  -8   9  -1    0.23    0.42
   8  -9   1    0.94    0.84
   9  -9   1    2.05    1.00
   9   8  -1    0.70    0.66
   8   8  -1    0.73    0.42
  -8  -8   1   -0.12    0.64
   7   8  -1    0.66    0.38
  -7  -8   1   -0.11    0.60
   6   8  -1    1.27    0.37
  -6  -8   1    0.18    0.57
   5   8  -1    2.43    0.38
  -5  -8   1    2.20    0.58
   4   8  -1    0.16    0.28
  -4  -8   1   -0.09    0.47
   3   8  -1    7.22    0.46
  -3  -8   1    8.04    0.78
   2   8  -1    3.23    0.32
  -2  -8   1    2.61    0.49
   1   8  -1    4.20    0.40
  -1  -8   1    4.22    0.50
   0   8  -1   11.63    0.49
   0  -8   1   12.19    0.75
  -1   8  -1    0.04    0.22
   1  -8   1    0.04    0.35
  -2   8  -1    2.06    0.29
   2  -8   1    1.32    0.42
  -3   8  -1    3.64    0.39
   3  -8   1    3.45    0.45
  -4   8  -1   -0.28    0.23
   4  -8   1    0.08    0.47
  -5   8  -1    1.31    0.33
   5  -8   1    2.16    0.64
  -6   8  -1    0.15    0.30
   6  -8   1    0.40    0.63
  -7   8  -1    1.14    0.40
   7  -8   1    1.76    0.80
  -8   8  -1   -0.03    0.36
   8  -8   1    0.87    0.82
  -9   8  -1   -0.14    0.38
   9  -8   1    0.88    0.91
  10  -8   1    1.64    1.01
   9   7  -1    1.49    0.44
   8   7  -1    0.01    0.36
  -8  -7   1   -0.47    0.55
   7   7  -1    0.12    0.34
  -7  -7   1   -0.36    0.53
   6   7  -1    2.18    0.36
  -6  -7   1    1.10    0.54
   5   7  -1    0.34    0.28
  -5  -7   1    0.40    0.45
   4   7  -1    6.61    0.42
  -4  -7   1    6.93    0.74
   3   7  -1    2.83    0.29
  -3  -7   1    2.61    0.45
   2   7  -1    1.93    0.24
  -2  -7   1    2.15    0.39
   1   7  -1    8.05    0.40
  -1  -7   1    8.49    0.61
   0   7  -1    5.02    0.34
   0  -7   1    5.63    0.56
  -1   7  -1    9.24    0.41
   1  -7   1   10.60    0.63
   1  -7   1    9.72    0.52
  -2   7  -1    1.45    0.23
   2  -7   1    0.85    0.33
   2  -7   1    1.44    0.40
  -3   7  -1    3.23    0.34
   3  -7   1    2.72    0.54
   3  -7   1    2.19    0.38
  -4   7  -1   10.40    0.47
   4  -7   1    9.64    0.64
   4  -7   1    9.77    0.76
  -5   7  -1    6.13    0.45
   5  -7   1    6.64    0.78
  -6   7  -1    0.32    0.28
   6  -7   1    0.38    0.62
  -7   7  -1    0.48    0.34
   7  -7   1    0.32    0.72
  -8   7  -1    2.28    0.42
   8  -7   1    3.38    0.95
  -9   7  -1    1.27    0.39
   9  -7   1    1.55    0.93
 -10   7  -1    0.00    0.39
  10  -7   1    1.27    0.97
  10   6  -1    1.53    0.46
   9   6  -1    0.37    0.39
   8   6  -1    0.62    0.36
  -8  -6   1    0.48    0.52
   7   6  -1    2.24    0.37
  -7  -6   1    1.44    0.51
   6   6  -1    0.00    0.27
  -6  -6   1   -0.13    0.43
   5   6  -1    2.14    0.31
  -5  -6   1    2.39    0.47
   4   6  -1    1.46    0.24
  -4  -6   1    0.58    0.37
   3   6  -1    8.98    0.40
  -3  -6   1    9.66    0.60
   2   6  -1    4.52    0.29
  -2  -6   1    3.85    0.47
   1   6  -1    0.50    0.18
  -1  -6   1    1.18    0.28
   0   6  -1   38.68    0.93
   0  -6   1   39.17    1.06
  -1   6  -1    5.17    0.29
   1  -6   1    3.98    0.38
   1  -6   1    3.88    0.45
  -2   6  -1    2.63    0.22
   2  -6   1    2.24    0.31
   2  -6   1    2.90    0.44
  -3   6  -1   14.38    0.48
   3  -6   1   15.06    0.75
   3  -6   1   14.74    0.61
  -4   6  -1    0.79    0.22
   4  -6   1    0.64    0.48
   4  -6   1    0.43    0.28
  -5   6  -1    2.47    0.28
   5  -6   1    2.88    0.67
  -6   6  -1    1.26    0.27
   6  -6   1    1.82    0.68
  -7   6  -1    1.68    0.31
   7  -6   1    2.35    0.79
  -8   6  -1    1.44    0.34
   8  -6   1    2.39    0.88
  -9   6  -1   -0.15    0.33
   9  -6   1    0.59    0.88
 -10   6  -1    0.81    0.43
  10  -6   1    1.36    0.96
  10   5  -1    0.60    0.41
   9   5  -1    2.09    0.41
   8   5  -1    1.80    0.38
   7   5  -1    0.49    0.29
  -7  -5   1    0.35    0.42
   6   5  -1    0.33    0.26
  -6  -5   1    0.16    0.39
   5   5  -1    0.38    0.22
  -5  -5   1    0.01    0.34
   4   5  -1   11.40    0.56
   4   5  -1   10.40    0.41
   4   5  -1    9.18    0.81
  -4  -5   1   10.52    0.59
   3   5  -1    2.29    0.30
   3   5  -1    1.66    0.19
  -3  -5   1    1.89    0.30
   2   5  -1    0.83    0.23
   2   5  -1    0.25    0.14
  -2  -5   1    0.30    0.23
   1   5  -1   16.14    0.54
   1   5  -1   16.22    0.47
  -1  -5   1   16.03    0.57
   0   5  -1   17.43    0.47
   0  -5   1   16.52    0.58
  -1   5  -1    1.43    0.16
   1  -5   1    1.52    0.23
   1  -5   1    1.81    0.31
  -2   5  -1   33.65    0.81
   2  -5   1   33.49    1.01
   2  -5   1   34.83    0.88
  -3   5  -1    0.51    0.16
   3  -5   1    0.54    0.37
   3  -5   1    0.45    0.21
  -4   5  -1   14.63    0.47
   4  -5   1   14.47    0.80
  -5   5  -1    0.05    0.17
   5  -5   1   -0.21    0.46
  -6   5  -1    2.33    0.27
   6  -5   1    2.97    0.72
  -7   5  -1    6.43    0.45
   7  -5   1    6.87    0.90
  -8   5  -1    1.42    0.31
   8  -5   1    1.58    0.81
  -9   5  -1    1.49    0.34
   9  -5   1    2.62    0.91
 -10   5  -1   -0.52    0.33
  10  -5   1    0.01    0.84
 -11   5  -1    0.22    0.38
  11  -5   1    1.37    1.00
 -11  -4   1    0.29    0.40
 -10  -4   1    1.21    0.37
   9   4  -1    0.50    0.37
   8   4  -1    0.27    0.31
   7   4  -1    0.23    0.65
   7   4  -1    0.45    0.28
  -7  -4   1   -0.78    0.35
   6   4  -1    0.32    0.24
   6   4  -1    0.28    0.33
  -6  -4   1    0.23    0.33
   5   4  -1   11.02    0.56
   5   4  -1   10.35    0.44
   5   4  -1    9.70    0.71
  -5  -4   1   10.34    0.58
   4   4  -1   16.37    0.50
   4   4  -1   15.72    0.71
   4   4  -1   16.59    0.59
  -4  -4   1   16.29    0.61
   3   4  -1   12.88    0.55
   3   4  -1   13.31    0.40
   3   4  -1   13.35    0.50
  -3  -4   1   12.71    0.51
   2   4  -1    0.64    0.18
   2   4  -1    0.30    0.12
  -2  -4   1    0.35    0.18
   1   4  -1    3.76    0.21
   1   4  -1    3.96    0.29
  -1  -4   1    3.33    0.30
   0   4  -1   17.67    0.52
   0   4  -1   19.03    0.47
   0  -4   1   17.82    0.53
  -1   4  -1    5.19    0.23
   1  -4   1    4.38    0.37
   1  -4   1    5.05    0.29
  -2   4  -1    0.22    0.13
   2  -4   1    0.11    0.27
   2  -4   1    0.03    0.15
  -3   4  -1   15.58    0.45
   3  -4   1   16.36    0.72
  -4   4  -1    6.13    0.30
   4  -4   1    6.31    0.59
  -5   4  -1    0.58    0.17
   5  -4   1    0.80    0.48
  -6   4  -1    4.10    0.35
   6  -4   1    4.65    0.77
  -7   4  -1   -0.03    0.23
   7  -4   1    0.15    0.62
  -8   4  -1    2.09    0.32
   8  -4   1    4.00    0.89
  -9   4  -1    2.03    0.38
   9  -4   1    2.59    0.91
 -10   4  -1    0.29    0.34
  10  -4   1    1.56    0.89
 -11   4  -1   -0.98    0.37
  11  -4   1    0.44    0.90
 -11  -3   1    0.51    0.38
 -10  -3   1    0.51    0.34
   9   3  -1    1.81    0.86
  -9  -3   1    1.95    0.37
   8   3  -1    0.27    0.70
   8   3  -1    0.69    0.30
   7   3  -1    0.55    0.67
   7   3  -1    0.51    0.27
  -7  -3   1    0.28    0.33
   6   3  -1    7.33    0.75
   6   3  -1    8.08    0.51
   6   3  -1    7.17    0.42
  -6  -3   1    8.06    0.53
   5   3  -1   12.95    0.53
   5   3  -1   13.87    0.46
   5   3  -1   12.71    0.77
  -5  -3   1   12.82    0.56
   4   3  -1    0.65    0.22
   4   3  -1    0.82    0.16
   4   3  -1    0.00    0.36
  -4  -3   1    0.54    0.22
   3   3  -1   21.29    0.71
   3   3  -1   21.44    0.53
   3   3  -1   20.94    0.58
  -3  -3   1   19.89    0.61
   2   3  -1   19.05    0.53
   2   3  -1   19.45    0.47
   2   3  -1   19.09    0.59
  -2  -3   1   18.93    0.55
   1   3  -1    8.23    0.31
   1   3  -1    8.16    0.25
  -1  -3   1    7.59    0.33
   0   3  -1    0.07    0.09
   0   3  -1    0.46    0.12
   0  -3   1    0.20    0.27
   0  -3   1    0.00    0.13
  -1   3  -1   17.02    0.44
  -1   3  -1   16.27    0.42
   1  -3   1   16.92    0.49
   1  -3   1   16.91    0.60
   1  -3   1   17.27    0.46
  -2   3  -1    2.04    0.16
   2  -3   1    2.56    0.37
   2  -3   1    1.95    0.20
  -3   3  -1    1.07    0.14
   3  -3   1    0.83    0.32
  -4   3  -1   25.49    0.65
   4  -3   1   27.20    1.00
  -5   3  -1    6.18    0.32
   5  -3   1    5.10    0.62
  -6   3  -1   -0.02    0.18
   6  -3   1   -0.11    0.48
  -7   3  -1    4.94    0.37
   7  -3   1    4.44    0.79
  -8   3  -1    2.88    0.32
   8  -3   1    2.45    0.78
  -9   3  -1    0.67    0.30
   9  -3   1    1.29    0.77
 -10   3  -1    0.31    0.35
  10  -3   1    1.81    0.84
 -11   3  -1   -0.84    0.34
  11  -3   1    0.72    0.89
  11   2  -1    1.07    0.94
 -11  -2   1    0.12    0.38
  10   2  -1    0.04    0.81
 -10  -2   1    0.29    0.36
   9   2  -1    2.02    0.87
  -9  -2   1    3.37    0.40
   8   2  -1    0.42    0.68
  -8  -2   1    0.28    0.27
   7   2  -1    2.77    0.72
  -7  -2   1    3.58    0.45
   6   2  -1   -0.19    0.51
   6   2  -1    0.18    0.20
   6   2  -1    0.51    0.24
  -6  -2   1    0.39    0.25
   5   2  -1    7.56    0.67
   5   2  -1    8.74    0.39
   5   2  -1    8.42    0.36
  -5  -2   1    8.00    0.42
   4   2  -1   26.32    0.92
   4   2  -1   25.88    0.67
   4   2  -1   26.43    0.65
   3   2  -1    4.72    0.41
   2   2  -1    0.37    0.12
   2   2  -1    0.05    0.21
   1   2  -1   60.60    1.26
   1   2  -1   60.59    1.34
   1   2  -1   60.98    1.29
   0   2  -1    0.11    0.05
   0   2  -1    0.21    0.08
  -1   2  -1   43.38    0.93
  -1   2  -1   42.58    0.93
   1  -2   1   44.16    0.99
   1  -2   1   45.48    1.11
  -2   2  -1   46.33    1.04
   2  -2   1   49.60    1.14
   2  -2   1   50.54    1.28
  -3   2  -1    0.47    0.10
   3  -2   1    0.23    0.29
  -4   2  -1   16.02    0.45
   4  -2   1   15.73    0.75
  -5   2  -1    0.16    0.14
   5  -2   1    0.15    0.41
  -6   2  -1   18.48    0.57
   6  -2   1   19.18    1.02
  -7   2  -1    5.34    0.38
   7  -2   1    5.17    0.82
  -8   2  -1    0.01    0.24
   8  -2   1    0.24    0.64
  -9   2  -1    0.65    0.30
   9  -2   1    2.04    0.83
 -10   2  -1   -0.44    0.32
  10  -2   1    0.35    0.82
 -11   2  -1   -0.18    0.36
  11  -2   1    0.53    0.85
  12   1  -1    0.31    0.95
 -12  -1   1   -0.46    0.58
  11   1  -1    0.39    0.87
 -11  -1   1    0.23    0.38
  10   1  -1    1.00    0.81
 -10  -1   1   -0.11    0.34
   9   1  -1    0.84    0.77
  -9  -1   1   -0.28    0.29
   8   1  -1    3.95    0.87
  -8  -1   1    4.25    0.43
   7   1  -1    0.40    0.62
  -7  -1   1    0.62    0.23
   6   1  -1    0.00    0.52
  -6  -1   1    0.85    0.21
   5   1  -1    2.79    0.52
   5   1  -1    2.27    0.26
   4   1  -1    4.20    0.24
   4   1  -1    4.57    0.47
   4   1  -1    4.55    0.23
   3   1  -1    0.35    0.11
   3   1  -1    0.21    0.09
   3   1  -1    0.01    0.26
   2   1  -1  144.66    2.99
   2   1  -1  149.15    3.13
   2   1  -1  144.51    2.97
   1   1  -1    2.07    0.17
   1   1  -1    2.06    0.08
   1   1  -1    2.22    0.12
   1  -1   1    0.44    0.22
   1  -1   1    0.37    0.16
  -2   1  -1    2.62    0.13
   2  -1   1    2.27    0.33
   2  -1   1    1.95    0.24
  -3   1  -1    3.07    0.19
   3  -1   1    3.76    0.43
  -4   1  -1    4.45    0.24
   4  -1   1    4.73    0.49
  -5   1  -1    1.12    0.17
   5  -1   1    0.72    0.41
  -6   1  -1   -0.08    0.18
   6  -1   1    0.64    0.51
  -7   1  -1   -0.09    0.20
   7  -1   1    0.46    0.57
  -8   1  -1    0.49    0.25
   8  -1   1    1.00    0.66
  -9   1  -1   -0.09    0.26
   9  -1   1    0.14    0.69
 -10   1  -1    1.61    0.37
  10  -1   1    2.34    0.92
 -11   1  -1   -0.11    0.37
  11  -1   1    0.83    0.86
  12  -1   1    1.08    1.45
  12   0  -1    0.63    0.99
 -12   0   1    0.03    0.43
  11   0  -1    0.88    0.87
 -11   0   1    0.35    0.38
  10   0  -1   -0.16    0.80
 -10   0   1    0.25    0.33
   9   0  -1    1.18    0.75
  -9   0   1    1.15    0.32
   8   0  -1    2.92    0.83
  -8   0   1    2.58    0.32
   7   0  -1    3.32    0.72
  -7   0   1    3.30    0.30
   6   0  -1    0.38    0.53
  -6   0   1    0.37    0.19
   5   0  -1   13.53    0.77
  -5   0   1   13.11    0.43
   4   0  -1   12.15    0.64
  -4   0   1   12.44    0.37
   3   0  -1   20.12    0.72
  -3   0   1   19.47    0.47
   2   0  -1   19.49    0.62
   2   0  -1   19.08    0.45
  -2   0   1   19.60    0.44
   1   0  -1   12.08    0.27
   1   0  -1   10.84    0.34
  -1   0   1   10.01    0.24
   0   0  -1    0.02    0.02
   1   0   1  111.77    2.31
   1   0   1  107.67    2.39
   1   0   1  116.17    2.26
   2   0   1    2.54    0.23
   2   0   1    2.67    0.14
   2   0   1    3.11    0.33
   3   0   1   14.14    0.60
  -4   0  -1    5.87    0.26
   4   0   1    5.41    0.48
  -5   0  -1    0.21    0.15
   5   0   1    0.21    0.37
  -6   0  -1   16.73    0.54
   6   0   1   16.51    0.94
  -7   0  -1   -0.26    0.21
   7   0   1    0.05    0.53
  -8   0  -1    0.78    0.26
   8   0   1    0.63    0.64
  -9   0  -1    1.20    0.33
   9   0   1    0.94    0.73
 -10   0  -1    0.42    0.33
  10   0   1    1.21    0.84
 -11   0  -1    0.67    0.38
  11   0   1    0.87    0.86
  12   0   1    0.41    0.97
 -12   1   1    0.15    0.44
  11  -1  -1   -0.38    0.82
 -11   1   1   -0.12    0.37
  10  -1  -1    0.17    0.79
 -10   1   1    0.36    0.35
   9  -1  -1    0.16    0.69
  -9   1   1   -0.50    0.27
   8  -1  -1    2.45    0.79
  -8   1   1    1.97    0.30
   7  -1  -1    1.98    0.68
  -7   1   1    2.25    0.26
   6  -1  -1    8.22    0.82
  -6   1   1   10.22    0.40
   5  -1  -1   23.34    0.99
  -5   1   1   21.62    0.58
   4  -1  -1    1.79    0.42
  -4   1   1    2.48    0.19
   3  -1  -1    1.42    0.32
  -3   1   1    1.16    0.12
   2  -1  -1   26.57    0.78
  -2   1   1   26.70    0.58
   1  -1  -1    6.17    0.21
   1  -1  -1    5.84    0.27
  -1   1   1    6.30    0.16
   0  -1  -1   53.15    1.12
   0   1   1   51.64    1.07
  -1  -1  -1    9.58    0.28
   1   1   1    8.77    0.36
   1   1   1    8.82    0.28
   1   1   1    9.44    0.23
  -2  -1  -1   12.63    0.37
   2   1   1   12.13    0.32
   2   1   1   11.83    0.48
  -3  -1  -1   38.84    0.89
   3   1   1   39.61    1.07
   3   1   1   37.58    0.86
  -4  -1  -1    0.16    0.14
   4   1   1   -0.01    0.28
   4   1   1    0.02    0.11
   5   1   1    8.58    0.35
   5   1   1    8.71    0.64
   6   1   1    0.53    0.47
  -7  -1  -1    2.69    0.31
   7   1   1    2.38    0.64
  -8  -1  -1    0.75    0.26
   8   1   1    0.67    0.64
  -9  -1  -1    0.74    0.32
   9   1   1    0.11    0.69
 -10  -1  -1    0.64    0.35
  10   1   1    1.55    0.83
 -11  -1  -1    0.73    0.40
  11   1   1    0.94    0.84
  12   1   1    0.81    0.98
 -12   2   1   -0.43    0.49
  11  -2  -1    1.64    0.93
 -11   2   1    0.10    0.38
  10  -2  -1    0.29    0.79
 -10   2   1   -0.37    0.31
   9  -2  -1    0.36    0.72
  -9   2   1    0.38    0.30
   8  -2  -1    3.67    0.86
  -8   2   1    3.74    0.36
   7  -2  -1    2.98    0.74
  -7   2   1    2.39    0.28
   6  -2  -1    5.73    0.74
  -6   2   1    6.30    0.34
   5  -2  -1    2.63    0.54
  -5   2   1    2.33    0.24
   4  -2  -1   20.19    0.85
  -4   2   1   19.98    0.52
   3  -2  -1    2.52    0.38
  -3   2   1    2.65    0.17
   2  -2  -1    1.77    0.29
   2  -2  -1    1.24    0.15
  -2   2   1    1.42    0.13
   1  -2  -1   12.73    0.40
   1  -2  -1   12.79    0.44
  -1   2   1   12.74    0.32
   0  -2  -1   19.45    0.52
   0   2   1   19.01    0.44
  -1  -2  -1   12.98    0.41
   1   2   1   12.80    0.33
  -2  -2  -1    8.02    0.34
   2   2   1    6.88    0.34
   2   2   1    7.45    0.25
  -3  -2  -1    2.13    0.21
   3   2   1    2.40    0.32
   3   2   1    2.06    0.17
  -4  -2  -1    5.76    0.35
   4   2   1    5.62    0.48
   4   2   1    5.47    0.28
  -5  -2  -1   22.78    0.69
   5   2   1   23.75    0.95
   5   2   1   22.67    0.63
  -6  -2  -1    5.08    0.45
   6   2   1    5.43    0.36
   6   2   1    4.70    0.65
   7   2   1    4.13    0.39
   7   2   1    4.03    0.72
  -8  -2  -1    0.56    0.28
   8   2   1    0.69    0.66
  -9  -2  -1    0.72    0.31
   9   2   1    0.70    0.73
 -10  -2  -1    0.17    0.34
  10   2   1    0.82    0.80
 -11  -2  -1    0.22    0.38
  11  -3  -1    1.00    1.00
 -11   3   1   -0.79    0.36
  10  -3  -1    0.89    0.90
 -10   3   1    0.16    0.33
   9  -3  -1    0.31    0.76
  -9   3   1    0.01    0.30
   8  -3  -1    0.14    0.67
  -8   3   1    0.31    0.26
   7  -3  -1    5.88    0.88
  -7   3   1    6.02    0.41
   6  -3  -1   -0.19    0.49
  -6   3   1   -0.02    0.19
   5  -3  -1   10.00    0.76
  -5   3   1   11.20    0.40
   4  -3  -1   11.46    0.69
  -4   3   1   12.30    0.38
   3  -3  -1    9.76    0.55
   3  -3  -1    9.65    0.37
  -3   3   1    9.54    0.31
   2  -3  -1   35.56    0.88
   2  -3  -1   37.11    1.02
  -2   3   1   35.77    0.81
   1  -3  -1    1.93    0.21
   1  -3  -1    1.95    0.25
  -1   3   1    2.39    0.17
   0  -3  -1   30.44    0.78
   0   3   1   30.15    0.69
  -1  -3  -1    0.29    0.17
   1   3   1   -0.10    0.09
  -2  -3  -1    1.60    0.21
   2   3   1    1.58    0.15
  -3  -3  -1   39.43    0.97
   3   3   1   38.40    0.89
   3   3   1   37.46    1.01
  -4  -3  -1    1.31    0.25
   4   3   1    1.51    0.37
   4   3   1    1.32    0.19
  -5  -3  -1    4.48    0.47
   5   3   1    5.22    0.54
   5   3   1    4.61    0.32
  -6  -3  -1    5.97    0.54
   6   3   1    6.21    0.39
   6   3   1    6.30    0.68
  -7  -3  -1    0.68    0.34
   7   3   1    1.33    0.60
   7   3   1    0.83    0.27
   8   3   1    0.12    0.61
   8   3   1    0.30    0.30
 -10  -3  -1    1.11    0.37
 -11  -3  -1    0.87    0.41
  11  -4  -1    0.79    1.01
 -11   4   1   -0.14    0.38
  10  -4  -1   -0.37    0.85
 -10   4   1    0.08    0.33
   9  -4  -1    1.35    0.86
  -9   4   1    0.85    0.34
   8  -4  -1    3.13    0.89
  -8   4   1    2.80    0.36
   7  -4  -1   -0.06    0.61
  -7   4   1    0.23    0.23
   6  -4  -1   10.70    0.89
  -6   4   1   10.42    0.45
   5  -4  -1   31.54    1.23
  -5   4   1   30.54    0.79
   4  -4  -1    1.86    0.47
  -4   4   1    1.89    0.20
   3  -4  -1    1.98    0.40
   3  -4  -1    1.31    0.23
  -3   4   1    1.61    0.17
   2  -4  -1   -0.16    0.19
   2  -4  -1   -0.13    0.23
  -2   4   1    0.16    0.12
   1  -4  -1   15.33    0.54
   1  -4  -1   15.70    0.55
  -1   4   1   15.83    0.43
   0  -4  -1    1.57    0.23
   0   4   1    1.62    0.16
  -1  -4  -1    0.34    0.20
   1   4   1    0.37    0.12
  -2  -4  -1   88.37    1.99
   2   4   1   89.43    1.89
  -3  -4  -1    0.03    0.22
   3   4   1   -0.04    0.14
  -4  -4  -1   14.01    0.61
   4   4   1   13.10    0.46
   4   4   1   13.15    0.60
  -5  -4  -1    3.15    0.39
   5   4   1    3.30    0.29
   5   4   1    3.54    0.52
  -6  -4  -1    0.64    0.36
   6   4   1    0.43    0.24
  -7  -4  -1    0.19    0.37
   7   4   1    0.40    0.27
   8   4   1    0.37    0.32
   9   4   1    1.94    0.41
  11  -5  -1    1.50    1.12
 -11   5   1   -0.18    0.40
  10  -5  -1   -0.17    0.91
 -10   5   1   -0.16    0.37
   9  -5  -1    0.44    0.82
  -9   5   1    0.09    0.33
   8  -5  -1    0.57    0.77
  -8   5   1   -0.13    0.30
   7  -5  -1    2.83    0.79
  -7   5   1    2.63    0.35
   6  -5  -1   10.23    0.91
  -6   5   1   11.80    0.49
   5  -5  -1    0.56    0.52
  -5   5   1    0.64    0.23
   4  -5  -1   14.00    0.80
   4  -5  -1   14.15    0.60
  -4   5   1   13.28    0.48
   3  -5  -1    4.86    0.46
   3  -5  -1    5.09    0.51
  -3   5   1    5.09    0.30
   2  -5  -1    8.03    0.49
   2  -5  -1    7.46    0.49
  -2   5   1    7.32    0.32
   1  -5  -1    4.08    0.34
   1  -5  -1    3.88    0.44
  -1   5   1    4.64    0.26
   0  -5  -1    0.33    0.24
   0   5   1    0.66    0.15
  -1  -5  -1   16.67    0.64
   1   5   1   17.09    0.48
  -2  -5  -1   14.23    0.61
   2   5   1   14.34    0.45
  -3  -5  -1   23.36    0.81
   3   5   1   24.16    0.65
  -4  -5  -1    3.58    0.42
   4   5   1    3.45    0.33
  -5  -5  -1    3.41    0.46
   5   5   1    3.43    0.33
  -6  -5  -1    2.94    0.48
   6   5   1    1.70    0.32
  -7  -5  -1    0.01    0.40
   7   5   1    0.01    0.29
   8   5   1    1.09    0.38
   9   5   1    2.15    0.45
  10   5   1    0.37    0.44
  10  -6  -1    0.54    0.97
 -10   6   1    0.05    0.39
   9  -6  -1    0.29    0.88
  -9   6   1    0.60    0.35
   8  -6  -1    0.35    0.76
  -8   6   1    0.38    0.34
   7  -6  -1    0.20    0.72
  -7   6   1   -0.37    0.29
   6  -6  -1    0.62    0.62
  -6   6   1    0.14    0.26
   5  -6  -1    3.78    0.71
  -5   6   1    3.83    0.41
   4  -6  -1    1.42    0.34
   4  -6  -1    1.63    0.53
  -4   6   1    1.33    0.24
   3  -6  -1   18.37    0.85
   3  -6  -1   17.33    0.75
  -3   6   1   17.64    0.55
   2  -6  -1   10.27    0.63
   2  -6  -1   11.05    0.60
  -2   6   1   10.25    0.41
   1  -6  -1    1.47    0.33
  -1   6   1    1.03    0.19
   0  -6  -1    1.23    0.32
   0   6   1    1.03    0.20
  -1  -6  -1    2.84    0.36
   1   6   1    2.74    0.26
  -2  -6  -1    4.93    0.54
   2   6   1    4.82    0.32
  -3  -6  -1    5.00    0.60
   3   6   1    5.23    0.34
  -4  -6  -1    3.99    0.49
   4   6   1    4.53    0.37
  -5  -6  -1   10.03    0.80
   5   6   1    9.45    0.50
  -6  -6  -1    0.43    0.45
   6   6   1    0.27    0.29
  -7  -6  -1    1.35    0.51
   7   6   1    1.69    0.38
   8   6   1    1.46    0.40
   9   6   1    0.40    0.42
  10  -7  -1    1.22    0.99
 -10   7   1    0.36    0.46
   9  -7  -1    1.46    0.97
  -9   7   1    0.83    0.41
   8  -7  -1    0.17    0.79
  -8   7   1   -0.20    0.37
   7  -7  -1    0.81    0.75
  -7   7   1    0.21    0.33
   6  -7  -1    0.56    0.66
  -6   7   1    0.90    0.33
   5  -7  -1    0.41    0.57
  -5   7   1    0.65    0.29
   4  -7  -1   11.62    0.84
   4  -7  -1   11.39    0.71
  -4   7   1   11.97    0.52
   3  -7  -1    0.15    0.36
   3  -7  -1   -0.17    0.40
  -3   7   1    0.01    0.23
   2  -7  -1   15.10    0.79
  -2   7   1   14.81    0.53
   1  -7  -1    8.19    0.68
  -1   7   1    7.32    0.39
   0  -7  -1    0.83    0.36
   0   7   1    0.43    0.21
  -1  -7  -1    3.84    0.46
   1   7   1    3.63    0.33
  -2  -7  -1    3.58    0.46
   2   7   1    3.55    0.34
  -3  -7  -1   -0.20    0.38
   3   7   1    0.04    0.21
  -4  -7  -1    6.83    0.78
   4   7   1    7.65    0.46
  -5  -7  -1    0.63    0.49
   5   7   1    0.79    0.30
  -6  -7  -1    3.05    0.60
   6   7   1    3.01    0.41
  -7  -7  -1    1.11    0.57
   7   7   1    0.61    0.38
  -8  -7  -1    0.25    0.58
   8   7   1    0.46    0.40
   9   7   1    0.40    0.46
  10  -8  -1   -0.03    1.14
   9  -8  -1    0.17    0.92
  -9   8   1   -0.39    0.43
   8  -8  -1    1.82    0.94
  -8   8   1    1.58    0.43
   7  -8  -1    2.50    0.88
  -7   8   1    2.06    0.42
   6  -8  -1    0.19    0.67
  -6   8   1   -0.04    0.33
   5  -8  -1    1.66    0.69
  -5   8   1    0.77    0.30
   4  -8  -1    0.45    0.41
  -4   8   1    0.33    0.26
   3  -8  -1    1.09    0.43
  -3   8   1    0.92    0.27
   2  -8  -1   11.26    0.80
  -2   8   1   10.15    0.50
   1  -8  -1    0.48    0.41
  -1   8   1    0.06    0.25
   0  -8  -1    9.42    0.78
   0   8   1    9.06    0.48
  -1  -8  -1    4.10    0.53
   1   8   1    3.47    0.35
  -2  -8  -1    0.71    0.46
   2   8   1    0.45    0.26
  -3  -8  -1    0.84    0.49
   3   8   1    0.57    0.27
  -4  -8  -1   -0.16    0.51
   4   8   1    0.47    0.29
  -5  -8  -1    0.50    0.56
   5   8   1    1.37    0.36
  -6  -8  -1    0.62    0.59
   6   8   1    0.70    0.37
  -7  -8  -1   -0.26    0.60
   7   8   1    0.44    0.39
  -8  -8  -1    0.61    0.66
   8   8   1    1.53    0.46
   9  -9  -1    1.11    1.01
  -8   9   1    0.08    0.41
  -7   9   1   -0.07    0.37
  -6   9   1    5.04    0.52
  -5   9   1    3.46    0.42
  -4   9   1    1.09    0.33
   3  -9  -1    0.22    0.45
  -3   9   1    0.15    0.30
   2  -9  -1    3.79    0.58
  -2   9   1    3.84    0.39
   1  -9  -1    2.51    0.54
  -1   9   1    1.71    0.34
   0  -9  -1    0.41    0.49
   0   9   1    0.28    0.29
  -1  -9  -1    3.35    0.58
   1   9   1    3.14    0.35
  -2  -9  -1    0.76    0.53
   2   9   1    0.33    0.30
  -3  -9  -1    0.22    0.55
   3   9   1    0.11    0.30
  -4  -9  -1    2.09    0.65
   4   9   1    1.85    0.38
  -5  -9  -1    1.50    0.66
   5   9   1    1.76    0.41
  -6  -9  -1   -0.14    0.63
   6   9   1    0.33    0.40
  -7  -9  -1    0.90    0.70
   7   9   1    0.50    0.42
  -8  -9  -1    0.37    0.73
  -7  10   1    0.18    0.43
  -6  10   1   -0.08    0.38
  -5  10   1   -0.10    0.34
  -4  10   1   -0.16    0.33
   3 -10  -1    0.85    0.52
  -3  10   1    0.74    0.34
   2 -10  -1    8.29    0.94
  -2  10   1    7.16    0.57
   1 -10  -1    0.54    0.54
  -1  10   1    0.09    0.32
   0 -10  -1    1.85    0.60
   0  10   1    2.01    0.41
  -1 -10  -1    1.02    0.62
   1  10   1    1.43    0.35
  -2 -10  -1    1.43    0.65
   2  10   1    1.43    0.37
  -3 -10  -1    2.98    0.71
   3  10   1    2.84    0.43
  -4 -10  -1    0.38    0.70
   4  10   1    0.82    0.38
  -5 -10  -1    0.01    0.71
   5  10   1    0.71    0.40
  -6 -10  -1    0.08    0.73
   6  10   1    0.33    0.44
  -6  11   1   -0.16    0.39
  -5  11   1   -0.06    0.37
  -4  11   1    0.82    0.40
   3 -11  -1    4.50    0.78
  -3  11   1    5.92    0.62
   2 -11  -1    1.14    0.60
  -2  11   1    0.35    0.39
   1 -11  -1    1.01    0.63
  -1  11   1    1.60    0.40
   0 -11  -1    1.07    0.65
   0  11   1    1.17    0.41
  -1 -11  -1    0.21    0.66
   1  11   1    0.31    0.35
  -2 -11  -1    0.79    0.70
   2  11   1    0.96    0.39
  -3 -11  -1    0.35    0.72
   3  11   1    0.50    0.39
  -4 -11  -1    0.03    0.75
   4  11   1    0.92    0.41
  -3  12   1    0.32    0.44
   2 -12  -1    2.07    0.67
  -2  12   1    1.84    0.46
   1 -12  -1    1.51    0.69
  -1  12   1    1.58    0.45
   0 -12  -1    0.58    0.69
   0  12   1    0.28    0.41
  -1 -12  -1    0.27    0.73
   1  12   1    0.77    0.41
  -2 -12  -1    0.66    1.08
   2  12   1    0.45    0.61
   0 -13   2   -0.51    0.71
   1 -13   2    1.34    0.74
   4  12  -2    0.23    0.56
   3  12  -2    0.67    0.41
  -3 -12   2   -0.62    0.74
   2  12  -2    0.58    0.40
  -2 -12   2   -0.80    0.70
   1  12  -2    0.99    0.40
  -1 -12   2    0.82    0.70
   0  12  -2    2.96    0.45
   0 -12   2    2.29    0.72
  -1  12  -2    1.61    0.44
   1 -12   2    1.25    0.68
  -2  12  -2   -0.12    0.38
   2 -12   2   -0.17    0.61
  -3  12  -2    0.85    0.38
  -4  12  -2   -0.02    0.37
  -5  12  -2    1.03    0.64
   5  11  -2    0.23    0.39
  -5 -11   2   -1.16    0.72
   4  11  -2    1.32    0.39
  -4 -11   2   -0.32    0.69
   3  11  -2    2.34    0.43
  -3 -11   2    1.53    0.70
   2  11  -2    0.15    0.35
  -2 -11   2   -0.32    0.62
   1  11  -2    1.67    0.38
  -1 -11   2    0.80    0.62
   0  11  -2    0.50    0.36
   0 -11   2   -0.34    0.56
  -1  11  -2    0.21    0.36
   1 -11   2    0.26    0.58
  -2  11  -2    2.13    0.38
   2 -11   2    2.51    0.63
  -3  11  -2    0.17    0.35
  -4  11  -2    1.89    0.38
  -5  11  -2    1.63    0.41
  -6  11  -2    0.27    0.41
   7  10  -2    0.60    0.42
  -7 -10   2   -0.70    0.71
   6  10  -2    0.42    0.39
  -6 -10   2   -1.26    0.67
   5  10  -2    1.68    0.40
  -5 -10   2    1.03    0.70
   4  10  -2    2.54    0.41
  -4 -10   2    1.87    0.68
   3  10  -2    0.27    0.32
  -3 -10   2   -0.25    0.60
   2  10  -2    7.21    0.53
  -2 -10   2    6.45    0.73
   1  10  -2    0.45    0.31
  -1 -10   2   -0.29    0.51
   0  10  -2   -0.06    0.30
   0 -10   2   -0.58    0.48
  -1  10  -2   -0.15    0.30
   1 -10   2   -0.27    0.48
  -2  10  -2   -0.16    0.28
   2 -10   2   -0.42    0.47
  -3  10  -2    1.79    0.33
   3 -10   2    1.16    0.53
  -4  10  -2    1.95    0.36
  -5  10  -2    0.42    0.33
  -6  10  -2    2.71    0.42
  -7  10  -2   -0.26    0.38
  -8  10  -2   -0.65    0.58
   8   9  -2    0.94    0.43
  -8  -9   2   -0.75    0.70
   7   9  -2    0.03    0.38
  -7  -9   2   -0.93    0.65
   6   9  -2    1.37    0.40
  -6  -9   2    0.68    0.65
   5   9  -2    0.63    0.34
  -5  -9   2   -0.31    0.58
   4   9  -2    0.13    0.30
  -4  -9   2   -0.14    0.53
   3   9  -2    7.96    0.52
  -3  -9   2    8.86    0.87
   2   9  -2    1.30    0.29
  -2  -9   2    1.69    0.50
   1   9  -2    8.45    0.49
  -1  -9   2    7.48    0.79
   0   9  -2    3.17    0.33
   0  -9   2    2.93    0.51
  -1   9  -2   -0.04    0.23
   1  -9   2   -0.40    0.40
  -2   9  -2    0.47    0.27
   2  -9   2    0.21    0.41
  -3   9  -2    0.13    0.25
   3  -9   2   -0.45    0.40
  -4   9  -2    2.09    0.35
  -5   9  -2    2.00    0.35
  -6   9  -2   -0.01    0.33
   6  -9   2    0.68    0.72
  -7   9  -2    1.75    0.44
   7  -9   2    2.71    0.86
  -8   9  -2   -0.06    0.38
   8  -9   2    1.24    0.88
   9  -9   2    0.75    0.91
   9   8  -2    0.92    0.44
   8   8  -2    0.47    0.39
  -8  -8   2   -1.20    0.61
   7   8  -2    1.38    0.39
  -7  -8   2    0.60    0.62
   6   8  -2    0.36    0.33
  -6  -8   2   -0.34    0.55
   5   8  -2    0.87    0.33
  -5  -8   2    0.88    0.53
   4   8  -2    3.68    0.38
  -4  -8   2    3.97    0.57
   3   8  -2    3.03    0.35
  -3  -8   2    2.78    0.49
   2   8  -2    4.21    0.38
  -2  -8   2    3.42    0.49
   1   8  -2    6.43    0.42
  -1  -8   2    6.59    0.65
   0   8  -2    2.18    0.28
   0  -8   2    2.43    0.42
  -1   8  -2    5.18    0.39
   1  -8   2    5.97    0.63
  -2   8  -2    0.50    0.23
   2  -8   2    0.07    0.36
  -3   8  -2    0.44    0.25
   3  -8   2   -0.01    0.35
   3  -8   2    0.34    0.46
  -4   8  -2    2.28    0.32
   4  -8   2    2.56    0.64
  -5   8  -2    0.41    0.28
   5  -8   2    0.58    0.60
  -6   8  -2    3.17    0.40
   6  -8   2    4.35    0.89
  -7   8  -2    1.31    0.35
   7  -8   2    1.75    0.81
  -8   8  -2    0.36    0.36
   8  -8   2    0.83    0.84
  -9   8  -2    0.50    0.42
   9  -8   2    1.32    0.92
  10  -8   2    1.02    1.03
   9   7  -2    0.55    0.41
   8   7  -2    1.16    0.40
  -8  -7   2   -0.21    0.56
   7   7  -2    0.82    0.35
  -7  -7   2    0.19    0.54
   6   7  -2    0.02    0.29
  -6  -7   2    0.27    0.50
   5   7  -2    0.67    0.28
  -5  -7   2    0.25    0.44
   4   7  -2   -0.06    0.23
   4   7  -2    0.33    0.38
  -4  -7   2   -0.18    0.39
   3   7  -2    3.58    0.35
   3   7  -2    3.22    0.42
  -3  -7   2    2.97    0.45
   2   7  -2    2.60    0.26
   2   7  -2    3.12    0.38
  -2  -7   2    2.88    0.40
   1   7  -2    0.39    0.20
   1   7  -2    0.69    0.30
  -1  -7   2    0.28    0.30
   0   7  -2    5.67    0.35
   0  -7   2    5.73    0.54
  -1   7  -2    5.62    0.35
   1  -7   2    6.56    0.54
   1  -7   2    5.95    0.50
  -2   7  -2   18.02    0.56
   2  -7   2   17.61    0.81
   2  -7   2   18.92    0.73
   3  -7   2   17.13    0.87
   3  -7   2   16.97    0.71
  -4   7  -2    0.22    0.22
   4  -7   2    0.05    0.50
  -5   7  -2    1.88    0.30
   5  -7   2    1.87    0.66
  -6   7  -2    1.40    0.30
   6  -7   2    2.01    0.76
  -7   7  -2    0.45    0.30
   7  -7   2    1.32    0.77
  -8   7  -2    0.56    0.33
   8  -7   2    1.33    0.88
  -9   7  -2    0.04    0.34
   9  -7   2    0.44    0.90
 -10   7  -2    0.59    0.40
  10  -7   2    1.69    1.00
  10   6  -2    0.61    0.43
   9   6  -2    0.90    0.40
   8   6  -2    0.71    0.35
  -8  -6   2    0.48    0.51
   7   6  -2   -0.10    0.30
  -7  -6   2   -0.17    0.46
   6   6  -2   -0.21    0.26
   6   6  -2   -0.59    0.40
  -6  -6   2   -0.65    0.41
   5   6  -2   11.15    0.68
   5   6  -2   11.29    0.50
  -5  -6   2   11.48    0.74
   4   6  -2   26.01    0.86
   4   6  -2   25.35    0.72
  -4  -6   2   26.61    0.91
   3   6  -2    0.90    0.20
   3   6  -2    1.28    0.31
  -3  -6   2    0.85    0.32
   2   6  -2    4.34    0.29
   2   6  -2    3.69    0.43
  -2  -6   2    3.70    0.44
   1   6  -2    3.30    0.28
   1   6  -2    3.25    0.40
  -1  -6   2    3.74    0.41
   0   6  -2    1.14    0.27
   0   6  -2    0.74    0.19
   0  -6   2    0.85    0.26
  -1   6  -2   42.11    0.97
  -1   6  -2   39.52    1.04
   1  -6   2   42.01    1.20
   1  -6   2   42.16    1.03
   1  -6   2   42.02    1.07
  -2   6  -2   23.15    0.63
   2  -6   2   23.52    0.90
   2  -6   2   23.89    0.73
  -3   6  -2    1.60    0.21
   3  -6   2    1.97    0.50
   3  -6   2    1.21    0.26
  -4   6  -2    8.27    0.40
   4  -6   2    7.99    0.74
  -5   6  -2    0.92    0.22
   5  -6   2    0.45    0.56
  -6   6  -2    0.12    0.22
   6  -6   2    0.03    0.63
  -7   6  -2    1.40    0.29
   7  -6   2    1.84    0.79
  -8   6  -2    0.33    0.33
   8  -6   2    0.44    0.79
  -9   6  -2    1.11    0.37
   9  -6   2    2.04    0.97
  10  -6   2    1.64    1.02
 -11  -5   2    0.57    0.42
   9   5  -2    0.19    0.37
   8   5  -2    1.40    0.37
  -8  -5   2    0.95    0.47
   7   5  -2    1.84    0.34
   7   5  -2    0.44    0.43
  -7  -5   2    1.28    0.44
   6   5  -2    1.49    0.40
   6   5  -2    1.63    0.29
  -6  -5   2    1.46    0.41
   5   5  -2   21.86    1.16
   5   5  -2   23.80    0.71
   5   5  -2   25.16    0.82
  -5  -5   2   25.15    0.88
   4   5  -2    3.04    0.30
   4   5  -2    3.78    0.54
   4   5  -2    4.23    0.45
  -4  -5   2    3.17    0.37
   3   5  -2   13.29    0.61
   3   5  -2   14.55    0.56
   3   5  -2   14.48    0.44
  -3  -5   2   14.32    0.58
   2   5  -2   14.82    0.43
   2   5  -2   14.67    0.54
  -2  -5   2   14.39    0.57
   1   5  -2    0.49    0.21
   1   5  -2    0.16    0.14
  -1  -5   2    0.00    0.20
   0   5  -2   29.78    0.70
   0   5  -2   30.24    0.78
   0  -5   2   26.11    0.94
   0  -5   2   30.68    0.80
  -1   5  -2   14.93    0.49
  -1   5  -2   15.36    0.44
   1  -5   2   15.26    0.54
   1  -5   2   15.25    0.51
   1  -5   2   14.88    0.69
  -2   5  -2    2.06    0.28
  -2   5  -2    2.42    0.21
   2  -5   2    2.52    0.34
   2  -5   2    2.28    0.24
   2  -5   2    2.39    0.47
  -3   5  -2   14.95    0.45
   3  -5   2   14.37    0.76
   3  -5   2   14.12    0.49
  -4   5  -2    0.36    0.18
   4  -5   2    0.71    0.45
  -5   5  -2    2.37    0.27
   5  -5   2    2.99    0.64
  -6   5  -2    4.75    0.38
   6  -5   2    5.42    0.85
  -7   5  -2    0.19    0.23
   7  -5   2   -0.22    0.64
  -8   5  -2    1.96    0.33
   8  -5   2    3.09    0.90
  -9   5  -2    0.04    0.31
   9  -5   2    0.66    0.80
 -10   5  -2    0.49    0.39
  10  -5   2    1.25    0.89
 -11   5  -2   -0.37    0.37
  11  -5   2    1.00    1.07
 -11  -4   2    0.77    0.40
 -10  -4   2    0.59    0.35
   8   4  -2    3.82    0.41
   8   4  -2    3.36    1.08
   7   4  -2    1.71    0.40
   7   4  -2    2.22    0.76
   7   4  -2    3.07    0.35
  -7  -4   2    1.40    0.40
   6   4  -2    6.69    0.54
   6   4  -2    5.49    0.76
   6   4  -2    6.31    0.41
  -6  -4   2    6.50    0.58
   5   4  -2   10.07    0.75
   5   4  -2   10.95    0.45
   5   4  -2   11.75    0.56
  -5  -4   2   11.32    0.61
   4   4  -2    2.82    0.38
   4   4  -2    2.02    0.22
   4   4  -2    2.32    0.49
   3   4  -2   12.86    0.39
   3   4  -2   12.92    0.63
   3   4  -2   13.20    0.50
   2   4  -2   -0.05    0.11
   2   4  -2    0.06    0.18
   1   4  -2   18.73    0.56
   1   4  -2   20.03    0.49
   0   4  -2    2.64    0.19
   0   4  -2    3.45    0.26
   0  -4   2    4.42    0.48
   0  -4   2    3.97    0.35
  -1   4  -2   29.11    0.71
  -1   4  -2   30.05    0.67
   1  -4   2   27.79    0.95
   1  -4   2   28.61    0.79
  -2   4  -2   84.98    1.83
  -2   4  -2   81.67    1.83
   2  -4   2   91.14    2.15
   2  -4   2   89.32    1.94
   2  -4   2   86.44    1.85
  -3   4  -2    7.78    0.30
   3  -4   2    6.89    0.62
  -4   4  -2    1.13    0.17
   4  -4   2    1.46    0.48
  -5   4  -2    4.16    0.30
   5  -4   2    4.21    0.68
  -6   4  -2    0.24    0.20
   6  -4   2   -0.02    0.53
  -7   4  -2    5.29    0.42
   7  -4   2    5.26    0.91
  -8   4  -2    0.11    0.28
   8  -4   2    0.47    0.74
  -9   4  -2    1.08    0.34
   9  -4   2    1.24    0.81
 -10   4  -2    0.34    0.35
  10  -4   2    1.72    0.94
 -11   4  -2   -0.48    0.38
  11  -4   2    1.09    0.93
 -11  -3   2    0.26    0.39
  10   3  -2    0.18    0.86
 -10  -3   2    0.20    0.33
   9   3  -2    0.42    0.80
  -9  -3   2    1.12    0.34
   8   3  -2   -0.05    0.71
   7   3  -2    7.19    0.90
   7   3  -2    7.33    0.56
   7   3  -2    7.48    0.47
  -7  -3   2    7.38    0.57
   6   3  -2   -0.23    0.54
   6   3  -2    0.26    0.28
   6   3  -2   -0.04    0.21
   5   3  -2   28.67    0.80
   5   3  -2   27.15    1.11
   5   3  -2   29.77    0.75
   4   3  -2   28.90    0.71
   4   3  -2   28.48    0.76
   4   3  -2   28.50    1.02
   3   3  -2    9.73    0.38
   3   3  -2    8.96    0.52
   3   3  -2    9.80    0.31
   2   3  -2    0.72    0.11
   2   3  -2    0.84    0.28
   2   3  -2    0.86    0.16
   1   3  -2   -0.05    0.08
   1   3  -2    0.17    0.12
   0   3  -2   12.27    0.32
   0   3  -2   11.93    0.37
  -1   3  -2    0.06    0.09
   1  -3   2    0.22    0.38
   1  -3   2    0.19    0.28
  -2   3  -2   42.64    0.96
  -2   3  -2   44.73    0.96
   2  -3   2   44.17    1.10
   2  -3   2   45.00    1.29
  -3   3  -2   92.81    2.00
   3  -3   2   96.95    2.15
   3  -3   2   96.03    2.38
  -4   3  -2    1.68    0.18
   4  -3   2    0.82    0.45
  -5   3  -2    2.09    0.21
   5  -3   2    0.96    0.53
  -6   3  -2    6.30    0.36
   6  -3   2    5.04    0.73
  -7   3  -2   -0.02    0.20
   7  -3   2   -0.01    0.57
  -8   3  -2    5.67    0.45
   8  -3   2    4.91    0.92
  -9   3  -2    1.88    0.35
   9  -3   2    2.51    0.83
 -10   3  -2   -0.40    0.32
  10  -3   2    0.24    0.79
 -11   3  -2   -0.66    0.38
  11  -3   2    0.80    0.82
  12   2  -2    0.03    0.96
 -12  -2   2    0.18    0.66
  11   2  -2    1.29    0.94
 -11  -2   2    0.56    0.42
  10   2  -2    0.29    0.84
 -10  -2   2   -0.08    0.34
   9   2  -2   -0.27    0.77
  -9  -2   2   -0.03    0.29
   8   2  -2    7.90    1.03
  -8  -2   2    9.78    0.51
   7   2  -2    0.13    0.31
   7   2  -2    0.01    0.63
  -7  -2   2    0.78    0.25
   6   2  -2    4.92    0.74
   6   2  -2    5.83    0.40
   6   2  -2    4.97    0.35
   5   2  -2    0.56    0.17
   5   2  -2    0.51    0.46
   5   2  -2    0.86    0.20
   4   2  -2    5.38    0.53
   4   2  -2    5.40    0.26
   4   2  -2    5.27    0.30
   3   2  -2   24.24    0.63
   3   2  -2   24.76    0.84
   3   2  -2   25.21    0.58
   2   2  -2  176.54    3.65
   2   2  -2  165.53    3.48
   2   2  -2  165.28    3.43
   1   2  -2    7.20    0.20
   1   2  -2    7.35    0.27
   0   2  -2    1.38    0.16
   0   2  -2    1.18    0.10
  -1   2  -2   65.59    1.36
  -1   2  -2   65.22    1.33
   1  -2   2   63.74    1.46
   1  -2   2   63.47    1.61
  -2   2  -2  942.76   19.63
   2  -2   2  980.60   19.77
   2  -2   2 1000.00   19.84
  -3   2  -2    1.92    0.17
   3  -2   2    1.94    0.32
   3  -2   2    2.06    0.45
  -4   2  -2    3.41    0.23
   4  -2   2    3.45    0.55
  -5   2  -2    8.88    0.36
   5  -2   2    7.63    0.69
  -6   2  -2    0.25    0.18
   6  -2   2    0.64    0.51
  -7   2  -2    3.25    0.30
   7  -2   2    3.92    0.80
  -8   2  -2    4.77    0.44
   8  -2   2    4.12    0.87
  -9   2  -2   -0.25    0.28
   9  -2   2    0.55    0.69
 -10   2  -2    0.03    0.33
  10  -2   2    0.82    0.83
 -11   2  -2   -0.21    0.37
  11  -2   2    0.76    0.91
  12   1  -2    0.09    0.95
 -12  -1   2   -0.21    0.41
  11   1  -2    0.49    0.87
 -11  -1   2    0.20    0.37
  10   1  -2    1.07    0.90
 -10  -1   2    0.96    0.37
   9   1  -2    0.80    0.78
  -9  -1   2    0.87    0.32
   8   1  -2    0.95    0.73
  -8  -1   2    1.14    0.30
   7   1  -2    3.39    0.76
  -7  -1   2    3.99    0.38
   6   1  -2    2.61    0.31
   6   1  -2    2.87    0.66
  -6  -1   2    2.99    0.27
   5   1  -2   21.00    0.96
   5   1  -2   21.05    0.58
  -5  -1   2   20.87    0.57
   4   1  -2   26.72    0.67
   4   1  -2   28.43    1.00
   3   1  -2    5.54    0.25
   3   1  -2    5.28    0.21
   3   1  -2    5.51    0.45
   2   1  -2  140.32    2.92
   2   1  -2  141.31    2.88
   2   1  -2  144.61    3.10
   1   1  -2  105.18    2.18
   1   1  -2  102.26    2.12
   1   1  -2  108.77    2.32
   0   1  -2   26.69    0.60
  -1   1  -2   21.70    0.52
  -1   1  -2   22.27    0.50
   1  -1   2   23.34    0.62
   1  -1   2   24.47    0.74
  -2   1  -2  447.70    8.89
   2  -1   2  439.48    9.16
   2  -1   2  437.04    8.98
  -3   1  -2    7.81    0.27
   3  -1   2    7.62    0.58
   3  -1   2    7.13    0.43
  -4   1  -2   18.17    0.50
   4  -1   2   18.59    0.84
  -5   1  -2    2.49    0.22
   5  -1   2    3.16    0.56
  -6   1  -2   17.05    0.55
   6  -1   2   16.10    0.97
  -7   1  -2    0.68    0.23
   7  -1   2    0.71    0.60
  -8   1  -2    0.80    0.27
   8  -1   2    1.55    0.71
  -9   1  -2    0.92    0.31
   9  -1   2    1.38    0.73
 -10   1  -2   -0.18    0.30
  10  -1   2    0.22    0.73
 -11   1  -2   -0.01    0.37
  11  -1   2    1.33    0.96
 -12   0   2   -0.44    0.42
  11   0  -2    1.27    0.95
 -11   0   2   -0.01    0.38
  10   0  -2    0.76    0.83
 -10   0   2    0.31    0.34
   9   0  -2    0.01    0.70
  -9   0   2   -0.20    0.28
   8   0  -2    4.55    0.95
  -8   0   2    3.89    0.42
   7   0  -2    2.25    0.73
  -7   0   2    2.37    0.28
   6   0  -2   14.20    0.94
  -6   0   2   14.84    0.48
   5   0  -2    6.86    0.65
  -5   0   2    7.49    0.32
   4   0  -2    7.69    0.29
   4   0  -2    8.93    0.60
  -4   0   2    7.96    0.29
   3   0  -2    0.72    0.12
   3   0  -2    0.92    0.32
  -3   0   2    0.85    0.11
   2   0  -2   59.60    1.29
   2   0  -2   62.07    1.49
  -2   0   2   59.97    1.25
   1   0  -2   56.27    1.32
   1   0  -2   54.76    1.19
   0   0  -2   18.00    0.44
  -1   0  -2  162.57    3.27
   1   0   2  157.20    3.23
  -2   0  -2    2.23    0.21
   2   0   2    2.80    0.16
   2   0   2    3.45    0.32
   2   0   2    3.18    0.44
   3   0   2   17.99    0.76
   3   0   2   18.81    0.47
   3   0   2   18.37    0.60
  -4   0  -2   -0.17    0.12
   4   0   2   -0.18    0.33
  -5   0  -2   12.93    0.43
   5   0   2   12.79    0.76
  -6   0  -2    0.68    0.20
   6   0   2    1.26    0.55
  -7   0  -2    6.71    0.43
   7   0   2    6.55    0.83
  -8   0  -2    2.62    0.34
   8   0   2    3.25    0.82
  -9   0  -2   -0.04    0.28
   9   0   2    0.08    0.69
 -10   0  -2    0.30    0.34
  10   0   2    0.30    0.80
 -11   0  -2    1.14    0.41
  11   0   2    1.23    0.87
  12   0   2    1.75    1.04
 -12   1   2   -0.58    0.41
  11  -1  -2    1.29    0.93
 -11   1   2   -0.26    0.36
  10  -1  -2   -0.03    0.80
 -10   1   2   -0.47    0.32
   9  -1  -2    1.43    0.81
  -9   1   2    1.29    0.32
   8  -1  -2    0.51    0.70
  -8   1   2    0.74    0.27
   7  -1  -2    0.96    0.66
  -7   1   2    0.95    0.23
   6  -1  -2   11.24    0.90
  -6   1   2   12.06    0.43
   5  -1  -2    9.41    0.75
  -5   1   2    9.34    0.35
   4  -1  -2    7.44    0.60
  -4   1   2    6.89    0.26
   3  -1  -2   39.45    0.92
   3  -1  -2   42.23    1.21
  -3   1   2   41.40    0.89
   2  -1  -2    2.59    0.21
   2  -1  -2    2.85    0.34
  -2   1   2    3.06    0.13
   1  -1  -2   27.68    0.76
   1  -1  -2   26.48    0.65
  -1   1   2   26.06    0.57
   0  -1  -2  130.74    2.65
   0   1   2  123.20    2.57
  -1  -1  -2   41.30    0.94
   1   1   2   39.78    0.86
  -2  -1  -2   57.61    1.28
   2   1   2   59.58    1.22
   2   1   2   55.79    1.30
   2   1   2   56.46    1.46
  -3  -1  -2   16.78    0.50
   3   1   2   16.74    0.44
   3   1   2   16.85    0.71
   3   1   2   16.91    0.55
  -4  -1  -2   21.31    0.60
   4   1   2   20.65    0.56
   4   1   2   22.20    0.86
   5   1   2    0.58    0.42
   5   1   2    0.42    0.18
   6   1   2    7.44    0.74
  -7  -1  -2    4.32    0.40
   7   1   2    4.02    0.76
  -8  -1  -2    0.87    0.29
   8   1   2    0.94    0.63
  -9  -1  -2    4.71    0.51
   9   1   2    3.93    0.89
 -10  -1  -2    0.76    0.37
  10   1   2    0.70    0.77
 -11  -1  -2    0.27    0.40
  11   1   2    1.21    0.89
  12   1   2    1.67    1.19
 -12   2   2   -1.13    0.42
  11  -2  -2    0.52    0.89
 -11   2   2   -0.56    0.37
  10  -2  -2    0.95    0.87
 -10   2   2    0.00    0.32
   9  -2  -2    0.33    0.73
  -9   2   2   -0.07    0.27
   8  -2  -2    0.51    0.74
  -8   2   2    0.04    0.24
   7  -2  -2    5.47    0.86
  -7   2   2    5.92    0.38
   6  -2  -2   -0.06    0.52
  -6   2   2    0.22    0.18
   5  -2  -2   10.21    0.78
  -5   2   2   10.49    0.37
   4  -2  -2    1.01    0.43
  -4   2   2    0.96    0.14
   3  -2  -2    8.85    0.55
   3  -2  -2    8.95    0.33
  -3   2   2    8.96    0.28
   2  -2  -2  102.67    2.22
   2  -2  -2  108.03    2.41
  -2   2   2  103.61    2.15
   1  -2  -2    1.75    0.26
   1  -2  -2    1.17    0.19
  -1   2   2    1.54    0.13
   0  -2  -2   18.67    0.55
   0   2   2   18.67    0.44
  -1  -2  -2    0.31    0.17
   1   2   2    0.36    0.09
  -2  -2  -2   36.34    0.90
   2   2   2   34.71    0.86
   2   2   2   34.54    0.99
   2   2   2   37.86    0.81
  -3  -2  -2   66.54    1.51
   3   2   2   66.14    1.66
   3   2   2   67.10    1.44
  -4  -2  -2    3.87    0.38
   4   2   2    4.19    0.47
   4   2   2    3.64    0.27
  -5  -2  -2    4.04    0.43
   5   2   2    4.62    0.57
   5   2   2    4.37    0.31
  -6  -2  -2    3.21    0.34
   6   2   2    3.55    0.63
   6   2   2    3.04    0.33
   7   2   2    0.28    0.24
   7   2   2    0.09    0.53
  -9  -2  -2    3.57    0.41
   9   2   2    4.26    0.87
 -10  -2  -2    0.32    0.35
  10   2   2    0.98    0.92
 -11  -2  -2   -0.11    0.37
  11  -3  -2    0.73    0.91
 -11   3   2   -0.85    0.36
  10  -3  -2    0.42    0.81
 -10   3   2    0.03    0.35
   9  -3  -2    1.40    0.83
  -9   3   2    1.03    0.32
   8  -3  -2    1.13    0.76
  -8   3   2    0.54    0.27
   7  -3  -2    0.15    0.63
  -7   3   2    0.66    0.24
   6  -3  -2   16.83    1.05
  -6   3   2   17.53    0.55
   5  -3  -2    4.75    0.72
  -5   3   2    3.91    0.29
   4  -3  -2    4.32    0.60
   4  -3  -2    3.61    0.28
  -4   3   2    3.75    0.25
   3  -3  -2    2.29    0.28
   3  -3  -2    3.06    0.45
  -3   3   2    1.93    0.20
   2  -3  -2   48.06    1.29
   2  -3  -2   49.48    1.16
  -2   3   2   46.49    1.04
   1  -3  -2    6.38    0.38
   1  -3  -2    6.64    0.39
  -1   3   2    6.68    0.24
   0  -3  -2   16.26    0.56
   0  -3  -2   17.68    0.52
   0   3   2   15.80    0.42
  -1  -3  -2    3.49    0.34
   1   3   2    3.53    0.19
  -2  -3  -2   94.30    2.10
   2   3   2   95.28    2.00
  -3  -3  -2   26.32    0.78
   3   3   2   24.95    0.79
   3   3   2   26.27    0.66
  -4  -3  -2   15.99    0.63
   4   3   2   15.87    0.49
   4   3   2   16.12    0.69
  -5  -3  -2    1.75    0.33
   5   3   2    1.93    0.24
   5   3   2    2.25    0.47
  -6  -3  -2    0.05    0.31
   6   3   2    0.56    0.45
   6   3   2   -0.13    0.20
  -7  -3  -2    3.05    0.47
   7   3   2    3.42    0.34
   7   3   2    3.87    0.70
   8   3   2    3.15    0.41
 -10  -3  -2    0.91    0.38
 -11  -3  -2    0.47    0.57
  11  -4  -2    0.76    0.99
 -11   4   2    0.19    0.38
  10  -4  -2    2.29    0.99
 -10   4   2    1.38    0.38
   9  -4  -2    0.35    0.82
  -9   4   2    0.35    0.30
   8  -4  -2    1.39    0.84
  -8   4   2    1.58    0.32
   7  -4  -2    4.22    0.88
  -7   4   2    4.52    0.41
   6  -4  -2    4.48    0.81
  -6   4   2    4.44    0.37
   5  -4  -2    5.19    0.72
  -5   4   2    6.12    0.35
   4  -4  -2    9.73    0.45
   4  -4  -2    9.75    0.72
  -4   4   2   10.23    0.38
   3  -4  -2    3.74    0.50
   3  -4  -2    2.76    0.30
  -3   4   2    2.29    0.24
   2  -4  -2   14.01    0.57
   2  -4  -2   14.34    0.62
  -2   4   2   13.14    0.40
   1  -4  -2    0.49    0.23
   1  -4  -2    0.64    0.24
  -1   4   2    0.39    0.13
   0  -4  -2   10.18    0.49
   0   4   2   10.04    0.33
  -1  -4  -2   71.94    1.69
   1   4   2   72.90    1.56
  -2  -4  -2   10.77    0.54
   2   4   2   11.18    0.37
  -3  -4  -2    6.43    0.49
   3   4   2    5.77    0.31
  -4  -4  -2    0.50    0.30
   4   4   2    0.32    0.18
   4   4   2    0.78    0.30
  -5  -4  -2    3.92    0.44
   5   4   2    4.35    0.36
  -6  -4  -2    1.40    0.40
   6   4   2    1.84    0.29
  -7  -4  -2    0.54    0.39
   7   4   2    0.50    0.30
   8   4   2    0.89    0.37
   9   4   2    0.54    0.39
 -11   5   2    1.34    0.46
  10  -5  -2    0.68    0.94
 -10   5   2    0.10    0.39
   9  -5  -2    0.43    0.84
  -9   5   2    0.14    0.34
   8  -5  -2    0.69    0.83
  -8   5   2    1.01    0.33
   7  -5  -2   -0.25    0.69
  -7   5   2    0.00    0.26
   6  -5  -2    2.34    0.74
  -6   5   2    2.75    0.32
   5  -5  -2    6.01    0.52
   5  -5  -2    5.51    0.80
  -5   5   2    4.92    0.38
   4  -5  -2    0.01    0.26
   4  -5  -2   -0.31    0.43
  -4   5   2   -0.14    0.19
   3  -5  -2   48.96    1.28
   3  -5  -2   48.87    1.46
  -3   5   2   46.30    1.10
   2  -5  -2    1.16    0.36
   2  -5  -2    0.76    0.29
  -2   5   2    0.88    0.17
   1  -5  -2    1.51    0.30
   1  -5  -2    1.09    0.29
  -1   5   2    1.24    0.19
   0  -5  -2    0.23    0.25
   0   5   2    0.25    0.15
  -1  -5  -2   -0.14    0.25
   1   5   2    0.06    0.13
  -2  -5  -2   18.13    0.73
   2   5   2   18.58    0.54
  -3  -5  -2    3.01    0.40
   3   5   2    3.17    0.30
  -4  -5  -2    3.71    0.45
   4   5   2    3.59    0.34
  -5  -5  -2    4.42    0.50
   5   5   2    4.48    0.39
  -6  -5  -2    0.18    0.41
   6   5   2    0.32    0.26
  -7  -5  -2    6.88    0.74
   7   5   2    6.72    0.55
   8   5   2    2.30    0.43
   9   5   2    0.20    0.40
  10   5   2    0.55    0.45
  10  -6  -2    1.22    0.98
 -10   6   2    0.16    0.42
   9  -6  -2    0.43    0.86
  -9   6   2    0.10    0.38
   8  -6  -2    0.55    0.80
  -8   6   2   -0.30    0.32
   7  -6  -2    3.88    0.91
  -7   6   2    3.50    0.40
   6  -6  -2    2.02    0.73
  -6   6   2    1.88    0.35
   5  -6  -2    6.01    0.84
  -5   6   2    5.47    0.44
   4  -6  -2    9.93    0.65
   4  -6  -2   10.07    0.80
  -4   6   2    9.63    0.45
   3  -6  -2   -0.16    0.33
   3  -6  -2   -0.25    0.41
  -3   6   2    0.03    0.19
   2  -6  -2   23.55    0.89
   2  -6  -2   23.99    0.89
  -2   6   2   22.73    0.65
   1  -6  -2    6.55    0.61
  -1   6   2    6.09    0.34
   0  -6  -2    0.57    0.31
   0   6   2    0.38    0.19
  -1  -6  -2    1.89    0.37
   1   6   2    1.76    0.22
  -2  -6  -2    2.75    0.41
   2   6   2    2.16    0.25
  -3  -6  -2    2.34    0.43
   3   6   2    2.67    0.28
  -4  -6  -2    4.35    0.53
   4   6   2    4.63    0.38
  -5  -6  -2   -0.16    0.43
   5   6   2   -0.15    0.24
  -6  -6  -2    2.89    0.54
   6   6   2    3.29    0.39
  -7  -6  -2    2.64    0.56
   7   6   2    2.43    0.41
   8   6   2    1.30    0.41
   9   6   2    1.25    0.46
  10  -7  -2    1.07    1.03
 -10   7   2   -0.50    0.45
   9  -7  -2    0.20    0.88
  -9   7   2   -0.12    0.42
   8  -7  -2    1.93    0.89
  -8   7   2    1.94    0.43
   7  -7  -2    0.22    0.73
  -7   7   2    0.50    0.36
   6  -7  -2    4.47    0.87
  -6   7   2    3.15    0.40
   5  -7  -2    1.15    0.63
  -5   7   2    0.85    0.29
   4  -7  -2    0.12    0.37
   4  -7  -2   -0.44    0.49
  -4   7   2   -0.23    0.24
   3  -7  -2    8.91    0.72
   3  -7  -2    9.19    0.77
  -3   7   2    9.89    0.49
   2  -7  -2   12.53    0.79
  -2   7   2   12.87    0.51
   1  -7  -2    4.22    0.50
  -1   7   2    4.56    0.37
   0  -7  -2   10.93    0.75
   0   7   2   10.33    0.47
  -1  -7  -2    6.57    0.68
   1   7   2    6.57    0.39
  -2  -7  -2    6.03    0.72
   2   7   2    6.28    0.41
  -3  -7  -2    0.03    0.42
   3   7   2   -0.19    0.23
  -4  -7  -2    1.32    0.50
   4   7   2    1.76    0.31
  -5  -7  -2    1.18    0.53
   5   7   2    1.87    0.35
  -6  -7  -2    1.82    0.58
   6   7   2    2.02    0.41
  -7  -7  -2    0.55    0.57
   7   7   2    0.73    0.39
   8   7   2    2.14    0.47
   9  -8  -2   -0.14    0.92
  -9   8   2    0.22    0.45
   8  -8  -2    0.95    0.90
  -8   8   2    0.57    0.41
   7  -8  -2    0.84    0.83
  -7   8   2    0.52    0.40
   6  -8  -2    4.16    0.91
  -6   8   2    4.38    0.44
  -5   8   2    0.05    0.30
   4  -8  -2    5.24    0.71
  -4   8   2    3.76    0.38
   3  -8  -2    4.02    0.55
  -3   8   2    4.98    0.46
   2  -8  -2    5.89    0.76
  -2   8   2    5.61    0.45
   1  -8  -2   19.78    0.98
  -1   8   2   19.21    0.67
   0  -8  -2    0.71    0.46
   0   8   2    0.58    0.27
  -1  -8  -2    1.84    0.50
   1   8   2    1.55    0.28
  -2  -8  -2    2.45    0.53
   2   8   2    2.66    0.34
  -3  -8  -2    0.35    0.50
   3   8   2    0.45    0.28
  -4  -8  -2    5.26    0.69
   4   8   2    4.99    0.50
  -5  -8  -2    1.35    0.60
   5   8   2    1.38    0.38
  -6  -8  -2    0.65    0.62
   6   8   2    0.11    0.36
  -7  -8  -2    1.45    0.66
   7   8   2    1.65    0.44
  -8  -8  -2    0.53    0.68
   8   8   2   -0.01    0.45
  -8   9   2    0.26    0.44
  -7   9   2    1.66    0.45
  -6   9   2   -0.37    0.35
  -5   9   2    0.79    0.38
  -4   9   2    1.19    0.35
   3  -9  -2   -0.10    0.47
  -3   9   2    0.17    0.30
   2  -9  -2   11.98    0.90
   1  -9  -2    0.03    0.48
  -1   9   2    0.44    0.31
   0  -9  -2    3.70    0.60
   0   9   2    3.29    0.41
  -1  -9  -2    3.21    0.61
   1   9   2    2.51    0.37
  -2  -9  -2    1.45    0.58
   2   9   2    1.19    0.34
  -3  -9  -2    6.58    0.77
   3   9   2    6.85    0.56
  -4  -9  -2    0.64    0.64
   4   9   2    1.14    0.36
  -5  -9  -2    0.88    0.66
   5   9   2    0.28    0.38
  -6  -9  -2    0.06    0.66
   6   9   2    0.18    0.41
  -7  -9  -2    0.60    0.70
   7   9   2    0.27    0.45
  -7  10   2   -0.03    0.41
  -6  10   2    0.32    0.39
  -5  10   2   -0.13    0.39
  -4  10   2   -0.04    0.37
   3 -10  -2    1.48    0.58
  -3  10   2    1.27    0.36
   2 -10  -2    0.65    0.55
  -2  10   2    0.43    0.35
   1 -10  -2    7.52    0.94
  -1  10   2    7.07    0.59
   0 -10  -2    0.86    0.60
   0  10   2    0.17    0.34
  -1 -10  -2    0.93    0.63
   1  10   2    1.27    0.38
  -2 -10  -2    1.99    0.68
   2  10   2    1.46    0.39
  -3 -10  -2    0.96    0.69
   3  10   2    1.08    0.38
  -4 -10  -2    1.46    0.74
   4  10   2    1.56    0.39
  -5 -10  -2    1.04    0.76
   5  10   2    1.28    0.41
  -6 -10  -2    0.31    0.78
  -5  11   2    0.26    0.39
  -4  11   2    0.57    0.40
   3 -11  -2    0.53    0.59
  -3  11   2    0.41    0.40
   2 -11  -2    3.61    0.70
  -2  11   2    3.59    0.50
   1 -11  -2    1.93    0.64
  -1  11   2    1.90    0.44
   0 -11  -2    0.61    0.64
   0  11   2    0.82    0.38
  -1 -11  -2    1.40    0.70
   1  11   2    1.28    0.40
  -2 -11  -2    0.14    0.70
   2  11   2    0.39    0.38
  -3 -11  -2    1.47    0.77
   3  11   2    1.90    0.43
  -4 -11  -2    1.38    1.03
   4  11   2    0.60    0.65
   2 -12  -2    1.20    0.67
  -2  12   2    0.18    0.42
   1 -12  -2    0.36    0.66
  -1  12   2    0.69    0.41
   0 -12  -2    0.93    0.72
   0  12   2    1.18    0.44
  -1 -12  -2    0.52    0.92
   1  13  -3    0.64    0.61
  -1 -13   3   -0.33    1.14
   0  13  -3    1.82    0.48
   0 -13   3    0.14    0.75
  -1  13  -3    1.40    0.47
   1 -13   3   -0.07    0.73
   4  12  -3    0.38    0.42
   3  12  -3    0.45    0.39
  -3 -12   3   -0.53    0.76
   2  12  -3    0.49    0.38
  -2 -12   3   -0.54    0.70
   1  12  -3    1.71    0.40
  -1 -12   3    0.46    0.68
   0  12  -3    0.70    0.39
   0 -12   3   -0.61    0.62
  -1  12  -3    0.65    0.37
   1 -12   3   -0.54    0.63
  -2  12  -3    1.16    0.41
   2 -12   3   -0.56    0.62
  -3  12  -3   -0.31    0.33
  -4  12  -3    0.02    0.35
  -5  12  -3    0.22    0.42
   6  11  -3    0.37    0.42
   5  11  -3    1.07    0.41
  -5 -11   3   -0.23    0.75
   4  11  -3    1.18    0.39
  -4 -11   3   -0.03    0.71
   3  11  -3    0.25    0.34
  -3 -11   3   -0.10    0.66
   2  11  -3    3.31    0.42
  -2 -11   3    1.55    0.68
   1  11  -3    0.91    0.36
  -1 -11   3    0.29    0.60
   0  11  -3    0.62    0.35
   0 -11   3    0.70    0.59
  -1  11  -3    0.18    0.32
   1 -11   3   -0.57    0.54
  -2  11  -3    0.50    0.33
   2 -11   3   -0.19    0.54
  -3  11  -3    2.60    0.39
  -4  11  -3    0.42    0.35
  -5  11  -3    0.16    0.37
  -6  11  -3    0.23    0.39
   7  10  -3    0.42    0.41
  -7 -10   3   -1.36    0.71
   6  10  -3    0.23    0.39
  -6 -10   3   -1.52    0.66
   5  10  -3    0.16    0.34
  -5 -10   3   -0.41    0.68
   4  10  -3    0.50    0.35
  -4 -10   3   -0.34    0.62
   3  10  -3    3.69    0.41
  -3 -10   3    3.12    0.68
   2  10  -3    0.95    0.33
  -2 -10   3    0.80    0.57
   1  10  -3    6.90    0.53
  -1 -10   3    5.54    0.67
   0  10  -3    1.65    0.33
   0 -10   3    1.12    0.53
  -1  10  -3    0.38    0.29
   1 -10   3    0.14    0.49
  -2  10  -3    1.31    0.32
   2 -10   3    1.35    0.50
  -3  10  -3    0.21    0.30
   3 -10   3   -0.54    0.98
  -4  10  -3    2.32    0.36
  -5  10  -3    0.64    0.34
  -6  10  -3   -0.03    0.35
  -7  10  -3    0.44    0.39
  -8  10  -3   -0.40    0.49
   8 -10   3    1.27    1.26
   8   9  -3    0.66    0.42
  -8  -9   3   -0.44    0.70
   7   9  -3    1.46    0.41
  -7  -9   3    0.05    0.66
   6   9  -3    0.60    0.36
  -6  -9   3   -0.63    0.60
   5   9  -3   -0.08    0.31
  -5  -9   3   -0.29    0.57
   4   9  -3    2.08    0.35
  -4  -9   3    1.53    0.58
   3   9  -3    1.54    0.32
  -3  -9   3    1.70    0.53
   2   9  -3    7.66    0.48
  -2  -9   3    7.78    0.79
   1   9  -3    3.30    0.36
  -1  -9   3    2.93    0.51
   0   9  -3    1.15    0.29
   0  -9   3    1.43    0.45
  -1   9  -3    2.87    0.32
   1  -9   3    2.70    0.49
  -2   9  -3    0.02    0.26
   2  -9   3   -0.08    0.40
  -3   9  -3    0.57    0.27
   3  -9   3    0.51    0.40
  -4   9  -3    0.27    0.29
  -5   9  -3    2.16    0.35
   5  -9   3    3.27    0.79
  -6   9  -3    2.30    0.39
   6  -9   3    3.80    0.89
  -7   9  -3    1.73    0.43
   7  -9   3    2.12    0.91
  -8   9  -3   -0.04    0.38
   8  -9   3    0.65    0.88
   9  -9   3    0.83    0.95
   9   8  -3    0.62    0.42
   8   8  -3    1.79    0.42
  -8  -8   3    0.55    0.64
   7   8  -3    0.37    0.36
  -7  -8   3   -0.71    0.57
   6   8  -3    1.88    0.38
  -6  -8   3    1.25    0.57
   5   8  -3    2.48    0.53
   5   8  -3    3.18    0.36
  -5  -8   3    3.27    0.59
   4   8  -3    0.12    0.43
   4   8  -3    0.06    0.26
  -4  -8   3   -0.18    0.43
   3   8  -3    1.33    0.28
   3   8  -3    0.99    0.41
  -3  -8   3    1.23    0.43
   2   8  -3    1.93    0.41
   2   8  -3    2.78    0.31
  -2  -8   3    2.16    0.45
   1   8  -3    3.25    0.42
   1   8  -3    3.45    0.37
  -1  -8   3    3.38    0.45
   0   8  -3    3.09    0.41
   0   8  -3    2.69    0.29
   0  -8   3    2.60    0.41
  -1   8  -3    0.62    0.25
   1  -8   3    0.91    0.37
  -2   8  -3   15.60    0.57
   2  -8   3   17.40    0.77
   2  -8   3   16.17    0.87
  -3   8  -3    4.37    0.40
   3  -8   3    5.12    0.69
   3  -8   3    4.01    0.45
  -4   8  -3    0.41    0.25
   4  -8   3    0.73    0.58
  -5   8  -3    1.57    0.34
   5  -8   3    2.07    0.70
  -6   8  -3    0.34    0.30
   6  -8   3    0.58    0.72
  -7   8  -3    0.29    0.33
   7  -8   3    1.20    0.85
  -8   8  -3    0.02    0.35
   8  -8   3    1.31    0.88
  -9   8  -3    0.39    0.43
   9  -8   3    1.30    0.98
  10  -8   3    3.39    1.81
  10   7  -3    0.82    0.45
   9   7  -3    0.97    0.41
   8   7  -3    0.69    0.37
  -8  -7   3   -0.13    0.54
   7   7  -3    1.71    0.36
   7   7  -3    0.17    0.51
  -7  -7   3    1.31    0.54
   6   7  -3    3.23    0.37
   6   7  -3    2.74    0.53
  -6  -7   3    3.53    0.57
   5   7  -3   -0.18    0.40
   5   7  -3   -0.23    0.24
  -5  -7   3   -0.65    0.41
   4   7  -3    0.82    0.38
   4   7  -3    0.29    0.23
  -4  -7   3    0.73    0.38
   3   7  -3    0.64    0.22
   3   7  -3    0.36    0.34
  -3  -7   3   -0.26    0.34
   2   7  -3    3.15    0.31
   2   7  -3    2.97    0.37
  -2  -7   3    2.41    0.37
   1   7  -3    9.01    0.55
   1   7  -3    9.24    0.41
  -1  -7   3    8.28    0.57
   0   7  -3    3.19    0.29
   0   7  -3    3.28    0.45
   0  -7   3    3.70    0.58
   0  -7   3    3.06    0.37
  -1   7  -3    7.23    0.49
  -1   7  -3    6.35    0.36
   1  -7   3    6.55    0.50
   1  -7   3    6.58    0.52
   1  -7   3    6.34    0.67
  -2   7  -3    6.11    0.48
  -2   7  -3    6.59    0.38
   2  -7   3    5.47    0.52
   2  -7   3    6.25    0.52
   2  -7   3    6.03    0.69
  -3   7  -3    2.68    0.29
   3  -7   3    2.07    0.33
   3  -7   3    2.28    0.59
  -4   7  -3    7.05    0.43
   4  -7   3    6.76    0.80
  -5   7  -3   -0.07    0.24
   5  -7   3    0.62    0.63
  -6   7  -3    1.10    0.31
   6  -7   3    1.86    0.77
  -7   7  -3    0.18    0.30
   7  -7   3    0.33    0.78
  -8   7  -3    1.06    0.35
   8  -7   3    1.19    0.91
  -9   7  -3    1.93    0.40
   9  -7   3    2.94    1.04
 -10   7  -3   -0.31    0.36
  10  -7   3    1.27    1.01
  10   6  -3    0.45    0.41
   9   6  -3    0.44    0.39
   8   6  -3    0.44    0.34
   8   6  -3   -0.94    0.48
  -8  -6   3   -0.38    0.48
   7   6  -3    2.01    0.49
   7   6  -3    3.54    0.40
  -7  -6   3    3.07    0.53
   6   6  -3    0.04    0.26
   6   6  -3   -0.42    0.40
  -6  -6   3   -0.46    0.41
   5   6  -3    0.10    0.36
   5   6  -3   -0.17    0.24
  -5  -6   3   -0.37    0.37
   4   6  -3    1.53    0.25
   4   6  -3    2.34    0.38
  -4  -6   3    1.98    0.39
   3   6  -3    8.96    0.55
   3   6  -3    8.51    0.38
  -3  -6   3    8.26    0.58
   2   6  -3   16.86    0.66
   2   6  -3   17.59    0.51
  -2  -6   3   17.22    0.68
   1   6  -3    2.31    0.22
   1   6  -3    2.23    0.32
  -1  -6   3    2.42    0.32
   0   6  -3    4.73    0.30
   0   6  -3    4.91    0.42
   0  -6   3    4.81    0.44
   0  -6   3    4.48    0.51
   0  -6   3    5.59    0.67
  -1   6  -3   14.55    0.54
  -1   6  -3   14.79    0.46
   1  -6   3   14.04    0.64
   1  -6   3   14.49    0.83
   1  -6   3   14.72    0.58
  -2   6  -3    2.31    0.22
  -2   6  -3    2.74    0.34
   2  -6   3    2.63    0.29
   2  -6   3    2.82    0.43
   2  -6   3    3.12    0.60
  -3   6  -3    0.22    0.18
  -3   6  -3    0.23    0.22
   3  -6   3   -0.21    0.36
   3  -6   3    0.20    0.22
   3  -6   3    0.32    0.50
  -4   6  -3    0.13    0.19
   4  -6   3   -0.10    0.51
  -5   6  -3    1.49    0.27
   5  -6   3    1.41    0.64
  -6   6  -3    6.70    0.44
   6  -6   3    6.50    0.92
  -7   6  -3    0.09    0.27
   7  -6   3   -0.12    0.73
  -8   6  -3    2.39    0.41
   8  -6   3    2.68    0.93
  -9   6  -3    0.10    0.32
   9  -6   3    0.81    0.92
 -10   6  -3    0.03    0.40
  10  -6   3    0.51    0.95
 -11  -5   3    0.63    0.41
   9   5  -3    1.34    0.40
   8   5  -3    0.16    0.54
   8   5  -3    1.07    0.36
  -8  -5   3    0.48    0.45
   7   5  -3    0.38    0.29
   7   5  -3   -0.41    0.40
  -7  -5   3    0.28    0.41
   6   5  -3    2.55    1.00
   6   5  -3    3.15    0.33
   6   5  -3    2.98    0.43
  -6  -5   3    2.95    0.45
   5   5  -3    0.99    0.63
   5   5  -3    1.21    0.26
   5   5  -3    1.42    0.36
   4   5  -3    4.09    0.31
   4   5  -3    4.49    0.62
   4   5  -3    5.17    0.47
   3   5  -3    2.24    0.24
   3   5  -3    2.88    0.40
   2   5  -3    1.16    0.24
   2   5  -3    0.88    0.15
   1   5  -3   22.14    0.56
   1   5  -3   21.58    0.66
   0   5  -3    7.75    0.39
   0   5  -3    7.32    0.30
   0  -5   3    7.76    0.65
   0  -5   3    8.01    0.49
  -1   5  -3   17.48    0.53
  -1   5  -3   17.12    0.47
   1  -5   3   17.57    0.89
   1  -5   3   16.62    0.68
  -2   5  -3   21.28    0.56
  -2   5  -3   21.15    0.60
   2  -5   3   20.70    0.75
   2  -5   3   21.08    0.96
  -3   5  -3    0.39    0.17
  -3   5  -3   -0.02    0.17
   3  -5   3    0.36    0.46
   3  -5   3    0.67    0.19
   3  -5   3    0.17    0.35
  -4   5  -3    0.37    0.17
   4  -5   3    0.00    0.51
  -5   5  -3    0.13    0.19
   5  -5   3   -0.28    0.53
  -6   5  -3    1.09    0.24
   6  -5   3    0.64    0.66
  -7   5  -3    3.94    0.41
   7  -5   3    4.25    0.94
  -8   5  -3    0.26    0.30
   8  -5   3    0.05    0.74
  -9   5  -3    1.11    0.35
   9  -5   3    1.36    0.89
 -10   5  -3    0.05    0.35
  10  -5   3    1.22    0.94
 -11   5  -3   -0.29    0.48
  11  -5   3    0.53    1.35
 -11  -4   3    0.93    0.40
 -10  -4   3    0.67    0.35
   8   4  -3   -0.69    0.77
   8   4  -3   -0.09    0.32
  -8  -4   3    0.45    0.59
   7   4  -3   15.80    0.61
   7   4  -3   14.95    0.71
   7   4  -3   14.03    1.12
  -7  -4   3   16.95    0.76
   6   4  -3    0.30    0.33
   6   4  -3    0.26    0.24
   6   4  -3    0.47    0.62
   5   4  -3    6.55    0.47
   5   4  -3    5.33    0.35
   5   4  -3    5.95    0.70
   4   4  -3    0.74    0.17
   4   4  -3    1.36    0.49
   4   4  -3    0.80    0.26
   3   4  -3    0.10    0.38
   3   4  -3    0.30    0.13
   3   4  -3    0.50    0.21
   2   4  -3    6.65    0.25
   2   4  -3    6.68    0.36
   1   4  -3    1.32    0.13
   1   4  -3    1.31    0.19
   0   4  -3    2.11    0.25
   0   4  -3    1.60    0.17
  -1   4  -3   24.58    0.57
  -1   4  -3   24.21    0.62
   1  -4   3   22.98    0.97
   1  -4   3   23.23    0.78
  -2   4  -3   11.98    0.39
  -2   4  -3   12.04    0.36
   2  -4   3   11.79    0.79
   2  -4   3   12.06    0.59
  -3   4  -3   55.04    1.23
   3  -4   3   56.03    1.69
   3  -4   3   56.49    1.43
  -4   4  -3    2.74    0.23
   4  -4   3    2.83    0.64
   4  -4   3    3.42    0.49
  -5   4  -3    2.20    0.23
   5  -4   3    1.93    0.64
  -6   4  -3    5.97    0.39
   6  -4   3    5.87    0.84
  -7   4  -3    0.12    0.24
   7  -4   3   -0.01    0.63
  -8   4  -3    5.93    0.48
   8  -4   3    4.05    0.94
  -9   4  -3    0.42    0.32
   9  -4   3    0.62    0.81
 -10   4  -3   -0.47    0.33
  10  -4   3   -0.03    0.79
 -11   4  -3   -0.36    0.37
  11  -4   3    0.80    0.90
 -11  -3   3    0.73    0.41
  10   3  -3    0.21    0.88
 -10  -3   3    0.40    0.35
   9   3  -3    0.36    0.86
  -9  -3   3    1.66    0.36
   8   3  -3    0.54    0.79
  -8  -3   3    0.89    0.29
   7   3  -3    0.25    0.32
   7   3  -3    0.08    0.27
   7   3  -3    0.23    0.68
   6   3  -3    9.97    0.52
   6   3  -3   10.58    0.46
   6   3  -3   10.04    0.88
   5   3  -3    2.26    0.23
   5   3  -3    2.24    0.28
   5   3  -3    2.81    0.61
   4   3  -3    0.63    0.15
   4   3  -3    0.56    0.42
   4   3  -3    0.50    0.20
   3   3  -3    1.62    0.23
   3   3  -3    1.97    0.18
   3   3  -3    2.43    0.46
   2   3  -3    8.79    0.26
   2   3  -3    9.81    0.52
   2   3  -3    8.43    0.36
   1   3  -3    0.51    0.15
   1   3  -3    0.39    0.09
   0   3  -3   10.89    0.37
   0   3  -3   10.85    0.29
  -1   3  -3    2.47    0.21
  -1   3  -3    2.06    0.15
   1  -3   3    2.93    0.42
   1  -3   3    2.96    0.53
  -2   3  -3   30.66    0.71
  -2   3  -3   29.99    0.69
   2  -3   3   30.32    0.90
   2  -3   3   29.95    1.11
  -3   3  -3    0.41    0.12
   3  -3   3    0.14    0.33
   3  -3   3    0.66    0.48
  -4   3  -3   31.64    0.76
   4  -3   3   30.68    1.23
   4  -3   3   30.45    0.98
  -5   3  -3    2.12    0.21
   5  -3   3    1.65    0.60
  -6   3  -3    0.51    0.20
   6  -3   3    0.72    0.60
  -7   3  -3    0.40    0.23
   7  -3   3    0.18    0.60
  -8   3  -3    0.85    0.28
   8  -3   3    0.49    0.71
  -9   3  -3   -0.34    0.28
   9  -3   3    0.75    0.79
 -10   3  -3   -0.51    0.31
  10  -3   3    0.27    0.75
 -11   3  -3   -0.47    0.37
  11  -3   3    0.38    0.87
  12   2  -3    0.30    1.06
 -12  -2   3   -0.18    0.42
  11   2  -3    0.42    0.99
 -11  -2   3   -0.15    0.39
  10   2  -3    1.62    0.90
 -10  -2   3    1.08    0.38
   9   2  -3    0.64    0.82
  -9  -2   3    1.02    0.33
   8   2  -3   -0.73    0.73
  -8  -2   3    0.11    0.26
   7   2  -3    5.64    0.45
   7   2  -3    4.81    0.87
  -7  -2   3    6.07    0.41
   6   2  -3    1.76    0.26
   6   2  -3    2.14    0.66
   5   2  -3    5.78    0.65
   5   2  -3    5.51    0.31
   5   2  -3    5.60    0.36
   4   2  -3    1.00    0.20
   4   2  -3    1.27    0.15
   4   2  -3    1.19    0.44
   3   2  -3    1.36    0.38
   3   2  -3    1.08    0.12
   3   2  -3    1.16    0.18
   2   2  -3   73.07    1.50
   2   2  -3   73.14    1.80
   2   2  -3   71.48    1.58
   1   2  -3   19.62    0.43
   1   2  -3   19.93    0.53
   0   2  -3    1.53    0.10
   0   2  -3    1.36    0.19
  -1   2  -3   25.74    0.54
  -1   2  -3   25.57    0.60
   1  -2   3   21.21    0.92
  -2   2  -3   30.92    0.72
  -2   2  -3   31.41    0.70
   2  -2   3   31.60    0.93
   2  -2   3   32.55    1.15
  -3   2  -3   32.45    0.74
   3  -2   3   31.14    1.16
   3  -2   3   31.89    0.94
  -4   2  -3    4.38    0.26
   4  -2   3    3.86    0.47
   4  -2   3    5.55    0.70
  -5   2  -3    3.97    0.30
   5  -2   3    3.90    0.69
  -6   2  -3    6.91    0.38
   6  -2   3    6.69    0.80
  -7   2  -3    0.39    0.23
   7  -2   3    0.91    0.63
  -8   2  -3    1.89    0.31
   8  -2   3    2.00    0.77
  -9   2  -3   -0.35    0.29
   9  -2   3    0.11    0.72
 -10   2  -3   -0.17    0.34
  10  -2   3    0.67    0.80
 -11   2  -3   -0.12    0.39
  11  -2   3    0.41    0.90
 -12  -1   3   -0.53    0.42
  11   1  -3    1.04    1.00
 -11  -1   3    0.20    0.38
  10   1  -3    2.20    0.93
 -10  -1   3    2.38    0.39
   9   1  -3    0.30    0.79
  -9  -1   3    0.29    0.29
   8   1  -3    2.14    0.80
  -8  -1   3    3.05    0.35
   7   1  -3    0.30    0.61
  -7  -1   3   -0.14    0.21
   6   1  -3    2.08    0.26
   6   1  -3    2.88    0.68
  -6  -1   3    2.72    0.26
   5   1  -3    0.08    0.17
   5   1  -3    0.13    0.45
  -5  -1   3    0.08    0.14
   4   1  -3   11.11    0.40
   4   1  -3   11.39    0.70
  -4  -1   3   10.99    0.34
   3   1  -3   57.74    1.54
   3   1  -3   55.56    1.27
   2   1  -3   49.09    1.13
   2   1  -3   51.79    1.37
   1   1  -3   26.58    0.82
   1   1  -3   26.29    0.64
   0   1  -3   12.86    0.38
  -1   1  -3    2.51    0.12
  -1   1  -3    2.64    0.19
  -2   1  -3    1.91    0.19
  -2   1  -3    1.83    0.16
   2  -1   3    3.21    0.55
  -3   1  -3   28.28    0.66
   3  -1   3   27.69    1.06
   3  -1   3   27.84    0.85
  -4   1  -3   13.64    0.42
   4  -1   3   13.28    0.83
   4  -1   3   13.17    0.61
  -5   1  -3    7.44    0.35
   5  -1   3    6.81    0.74
  -6   1  -3    3.29    0.33
   6  -1   3    3.38    0.68
  -7   1  -3    1.79    0.28
   7  -1   3    2.51    0.74
  -8   1  -3    2.02    0.31
   8  -1   3    1.90    0.74
  -9   1  -3    0.09    0.28
   9  -1   3    0.63    0.74
 -10   1  -3    0.34    0.33
  10  -1   3    0.77    0.84
 -11   1  -3    0.12    0.37
  11  -1   3    1.20    0.97
 -12   0   3   -0.23    0.43
  11   0  -3    0.24    0.88
 -11   0   3   -0.16    0.38
  10   0  -3   -0.42    0.77
 -10   0   3   -0.17    0.33
   9   0  -3    0.48    0.73
  -9   0   3    0.33    0.29
   8   0  -3    0.10    0.70
  -8   0   3    0.01    0.24
   7   0  -3    5.49    0.88
  -7   0   3    5.31    0.37
   6   0  -3    7.84    0.38
   6   0  -3    6.88    0.80
  -6   0   3    8.35    0.36
   5   0  -3    4.22    0.64
   5   0  -3    3.53    0.29
  -5   0   3    3.80    0.24
   4   0  -3    4.88    0.53
   4   0  -3    4.65    0.28
  -4   0   3    4.24    0.21
   3   0  -3   45.15    1.05
   3   0  -3   49.20    1.36
  -3   0   3   45.04    0.99
   2   0  -3   97.71    2.10
   2   0  -3  103.67    2.34
  -2   0   3   97.30    2.02
   1   0  -3   18.90    0.67
   1   0  -3   18.90    0.51
   0   0  -3    6.66    0.29
  -1   0  -3    0.69    0.15
   1   0   3    0.96    0.09
  -2   0  -3    0.00    0.13
   2   0   3    0.31    0.09
   2   0   3    0.72    0.32
   2   0   3    0.66    0.44
  -3   0  -3    0.84    0.16
   3   0   3    1.14    0.13
   3   0   3    1.32    0.32
   3   0   3    1.24    0.43
   4   0   3   18.30    0.69
   4   0   3   17.70    0.89
  -5   0  -3    1.26    0.21
   5   0   3    1.67    0.54
  -6   0  -3    2.26    0.26
   6   0   3    2.40    0.62
  -7   0  -3    5.49    0.41
   7   0   3    4.96    0.84
  -8   0  -3    1.77    0.32
   8   0   3    2.67    0.80
  -9   0  -3    2.37    0.37
   9   0   3    2.76    0.89
 -10   0  -3    0.23    0.35
  10   0   3    0.88    0.78
 -11   0  -3    0.62    0.39
  11   0   3    0.70    0.88
 -12   1   3   -1.08    0.40
  11  -1  -3    0.74    0.94
 -11   1   3   -0.48    0.35
  10  -1  -3    0.15    0.81
 -10   1   3   -0.28    0.31
   9  -1  -3    0.14    0.76
  -9   1   3    0.42    0.29
   8  -1  -3   -0.27    0.69
  -8   1   3    0.25    0.25
   7  -1  -3    0.44    0.63
  -7   1   3    0.54    0.22
   6  -1  -3    0.74    0.58
  -6   1   3    0.78    0.19
   5  -1  -3   15.01    0.47
   5  -1  -3   15.46    0.88
  -5   1   3   14.79    0.43
   4  -1  -3    1.52    0.45
   4  -1  -3    1.02    0.17
  -4   1   3    1.32    0.14
   3  -1  -3   15.89    0.71
   3  -1  -3   15.30    0.47
  -3   1   3   15.62    0.39
   2  -1  -3   40.53    0.97
   2  -1  -3   41.20    1.17
  -2   1   3   41.09    0.87
   1  -1  -3   63.99    1.41
   1  -1  -3   63.41    1.56
  -1   1   3   62.03    1.30
   0  -1  -3    8.10    0.36
   0   1   3    7.51    0.21
  -1  -1  -3   11.59    0.44
   1   1   3   11.66    0.30
  -2  -1  -3    3.78    0.33
   2   1   3    4.34    0.20
   2   1   3    4.16    0.42
   2   1   3    4.43    0.58
  -3  -1  -3   12.62    0.49
   3   1   3   13.11    0.39
   3   1   3   13.32    0.54
   3   1   3   13.03    0.72
  -4  -1  -3    0.43    0.20
   4   1   3    0.57    0.42
   4   1   3    0.50    0.15
   4   1   3    0.65    0.31
  -5  -1  -3   19.15    0.63
   5   1   3   19.00    0.96
   5   1   3   18.42    0.56
   6   1   3    1.42    0.58
   6   1   3    1.43    0.24
  -7  -1  -3    0.05    0.23
   7   1   3    0.24    0.57
  -8  -1  -3    3.10    0.36
   8   1   3    3.33    0.78
  -9  -1  -3    0.37    0.32
   9   1   3    1.01    0.73
 -10  -1  -3    0.12    0.34
  10   1   3    0.87    0.77
 -11  -1  -3    0.24    0.41
  11   1   3    1.34    0.92
 -12   2   3   -0.76    0.42
  11  -2  -3   -0.01    0.92
 -11   2   3   -0.02    0.37
  10  -2  -3   -0.27    0.80
 -10   2   3   -0.69    0.32
   9  -2  -3    0.85    0.82
  -9   2   3    0.05    0.29
   8  -2  -3    1.35    0.77
  -8   2   3    0.70    0.27
   7  -2  -3   -0.40    0.61
  -7   2   3    0.05    0.21
   6  -2  -3    8.39    0.84
  -6   2   3    9.47    0.39
   5  -2  -3    0.10    0.16
   5  -2  -3   -0.09    0.47
  -5   2   3    0.03    0.14
   4  -2  -3   22.78    0.98
   4  -2  -3   22.37    0.63
  -4   2   3   23.06    0.57
   3  -2  -3   52.48    1.23
   3  -2  -3   54.71    1.52
  -3   2   3   52.69    1.15
   2  -2  -3    7.97    0.50
   2  -2  -3    7.50    0.37
  -2   2   3    7.61    0.25
   1  -2  -3    5.28    0.42
   1  -2  -3    4.87    0.34
  -1   2   3    4.82    0.19
   0  -2  -3    9.90    0.45
   0   2   3    9.47    0.28
  -1  -2  -3   11.41    0.48
   1   2   3   11.40    0.32
  -2  -2  -3   20.93    0.65
   2   2   3   20.10    0.83
   2   2   3   20.16    0.65
   2   2   3   21.80    0.52
  -3  -2  -3    0.28    0.21
   3   2   3    0.53    0.36
   3   2   3    0.20    0.25
   3   2   3    0.23    0.13
  -4  -2  -3   39.04    1.03
   4   2   3   39.89    1.05
   4   2   3   39.30    1.28
   4   2   3   38.53    0.94
  -5  -2  -3    0.34    0.26
   5   2   3   -0.03    0.17
   5   2   3    0.40    0.43
  -6  -2  -3    1.63    0.32
   6   2   3    2.06    0.58
   6   2   3    1.53    0.24
   7   2   3    2.64    0.68
   7   2   3    2.26    0.32
   8   2   3    1.02    0.65
  -9  -2  -3    0.74    0.33
   9   2   3    0.92    0.70
 -10  -2  -3    0.48    0.37
 -11  -2  -3    0.63    0.45
  11  -3  -3    0.67    0.95
 -11   3   3    0.19    0.38
  10  -3  -3    2.25    1.00
 -10   3   3    1.97    0.39
   9  -3  -3    1.61    0.88
  -9   3   3    1.00    0.33
   8  -3  -3   -0.05    0.73
  -8   3   3   -0.05    0.25
   7  -3  -3    2.15    0.80
  -7   3   3    2.11    0.28
   6  -3  -3    2.53    0.72
  -6   3   3    2.17    0.26
   5  -3  -3    2.37    0.32
   5  -3  -3    3.23    0.67
  -5   3   3    2.68    0.24
   4  -3  -3   21.86    0.65
   4  -3  -3   22.32    0.99
  -4   3   3   22.01    0.58
   3  -3  -3    6.52    0.57
   3  -3  -3    6.13    0.38
  -3   3   3    6.41    0.29
   2  -3  -3   16.56    0.70
   2  -3  -3   16.86    0.59
  -2   3   3   16.33    0.44
   1  -3  -3   16.23    0.60
   1  -3  -3   15.64    0.63
  -1   3   3   15.05    0.41
   0  -3  -3   19.83    0.66
   0   3   3   19.15    0.49
  -1  -3  -3   40.03    1.06
   1   3   3   41.40    0.92
  -2  -3  -3    6.04    0.45
   2   3   3    5.79    0.54
   2   3   3    6.59    0.28
  -3  -3  -3   28.49    0.86
   3   3   3   28.75    0.72
   3   3   3   29.02    0.78
   3   3   3   27.64    0.94
  -4  -3  -3    8.56    0.55
   4   3   3    9.25    0.62
   4   3   3    8.69    0.38
  -5  -3  -3    4.22    0.54
   5   3   3    3.87    0.35
   5   3   3    4.65    0.58
  -6  -3  -3    2.28    0.39
   6   3   3    2.99    0.59
   6   3   3    2.20    0.29
   7   3   3    0.80    0.82
   7   3   3   -0.09    0.25
   8   3   3    2.40    0.40
 -10  -3  -3    1.24    0.37
  11  -4  -3    0.97    1.16
 -11   4   3    1.17    0.45
  10  -4  -3    1.80    1.03
 -10   4   3    0.67    0.39
   9  -4  -3    0.98    0.87
  -9   4   3    0.21    0.34
   8  -4  -3    0.38    0.77
  -8   4   3   -0.17    0.28
   7  -4  -3   -0.20    0.70
  -7   4   3    0.22    0.25
   6  -4  -3    6.19    0.86
  -6   4   3    6.01    0.40
   5  -4  -3    5.31    0.41
   5  -4  -3    5.04    0.78
  -5   4   3    5.31    0.35
   4  -4  -3    1.82    0.56
   4  -4  -3    1.91    0.29
  -4   4   3    2.00    0.23
   3  -4  -3    0.20    0.38
   3  -4  -3    0.28    0.24
  -3   4   3    0.17    0.16
   2  -4  -3    5.28    0.48
   2  -4  -3    5.21    0.48
  -2   4   3    5.63    0.28
   1  -4  -3   14.53    0.63
   1  -4  -3   14.66    0.62
  -1   4   3   14.15    0.42
   0  -4  -3   11.76    0.58
   0   4   3   12.44    0.39
  -1  -4  -3    3.45    0.44
   1   4   3    4.00    0.24
  -2  -4  -3   14.23    0.64
   2   4   3   14.38    0.45
  -3  -4  -3    2.54    0.36
   3   4   3    2.83    0.25
  -4  -4  -3    4.33    0.56
   4   4   3    3.32    0.33
  -5  -4  -3    4.64    0.62
   5   4   3    4.41    0.39
  -6  -4  -3   -0.03    0.38
   6   4   3    0.23    0.25
  -7  -4  -3    9.31    0.73
   7   4   3    8.52    0.58
   8   4   3   -0.07    0.35
   9   4   3    1.02    0.42
 -11   5   3   -0.18    0.43
  10  -5  -3    0.78    0.99
 -10   5   3    0.13    0.41
   9  -5  -3    0.28    0.87
  -9   5   3   -0.12    0.35
   8  -5  -3    0.38    0.81
  -8   5   3   -0.05    0.32
   7  -5  -3    7.07    1.00
  -7   5   3    7.87    0.51
   6  -5  -3    0.83    0.68
  -6   5   3    0.85    0.28
   5  -5  -3    6.93    0.83
   5  -5  -3    7.68    0.51
  -5   5   3    7.70    0.44
   4  -5  -3    7.86    0.55
   4  -5  -3    8.11    0.76
  -4   5   3    8.79    0.42
   3  -5  -3    0.63    0.47
   3  -5  -3    0.45    0.32
  -3   5   3    0.97    0.21
   2  -5  -3    8.22    0.61
   2  -5  -3    6.99    0.59
  -2   5   3    8.42    0.36
   1  -5  -3    0.40    0.32
   1  -5  -3    0.38    0.31
  -1   5   3    0.15    0.16
   0  -5  -3    2.44    0.36
   0   5   3    2.75    0.24
  -1  -5  -3    9.78    0.61
   1   5   3   10.01    0.38
  -2  -5  -3   -0.04    0.30
   2   5   3   -0.23    0.15
  -3  -5  -3   15.49    0.76
   3   5   3   15.09    0.52
  -4  -5  -3    0.85    0.40
   4   5   3    0.73    0.23
  -5  -5  -3    0.14    0.40
   5   5   3    0.06    0.24
  -6  -5  -3    5.21    0.57
   6   5   3    5.38    0.50
  -7  -5  -3    2.89    0.52
   7   5   3    3.40    0.43
   8   5   3    3.08    0.47
   9   5   3    0.35    0.41
  10  -6  -3    0.44    1.02
 -10   6   3   -0.35    0.42
   9  -6  -3    0.97    0.94
  -9   6   3   -0.29    0.39
   8  -6  -3    0.11    0.81
  -8   6   3    0.33    0.37
   7  -6  -3   -0.12    0.73
  -7   6   3   -0.06    0.33
   6  -6  -3    7.35    0.95
  -6   6   3    7.40    0.52
   5  -6  -3    4.82    0.82
  -5   6   3    4.92    0.44
   4  -6  -3   -0.19    0.52
   4  -6  -3   -0.33    0.34
  -4   6   3   -0.20    0.23
   3  -6  -3    6.86    0.68
   3  -6  -3    7.14    0.68
  -3   6   3    8.03    0.41
   2  -6  -3    8.45    0.65
   2  -6  -3    8.27    0.70
  -2   6   3    9.60    0.42
   1  -6  -3    0.45    0.37
  -1   6   3    0.61    0.21
   0  -6  -3   27.69    0.99
   0   6   3   27.57    0.75
  -1  -6  -3    0.13    0.34
   1   6   3    0.06    0.18
  -2  -6  -3    7.57    0.69
   2   6   3    7.61    0.41
  -3  -6  -3    1.21    0.42
   3   6   3    1.42    0.26
  -4  -6  -3    1.37    0.47
   4   6   3    1.44    0.29
  -5  -6  -3   -0.10    0.46
   5   6   3    0.50    0.30
  -6  -6  -3    1.82    0.53
   6   6   3    1.81    0.37
  -7  -6  -3    1.44    0.54
   7   6   3    1.29    0.41
   8   6   3    1.94    0.45
   9   6   3    0.69    0.46
  10  -7  -3    1.07    1.08
 -10   7   3   -0.41    0.47
   9  -7  -3    0.21    0.93
  -9   7   3    0.50    0.46
   8  -7  -3    0.83    0.88
  -8   7   3    0.17    0.40
   7  -7  -3    0.81    0.80
  -7   7   3    0.29    0.36
   6  -7  -3    2.56    0.82
  -6   7   3    2.16    0.37
   5  -7  -3    0.44    0.64
  -5   7   3    0.19    0.31
   4  -7  -3   11.73    0.91
   4  -7  -3   11.85    0.78
  -4   7   3   11.44    0.55
   3  -7  -3    9.34    0.78
  -3   7   3    9.28    0.48
   2  -7  -3    0.36    0.43
  -2   7   3    0.56    0.24
   1  -7  -3    3.41    0.52
  -1   7   3    3.53    0.32
   0  -7  -3    1.33    0.44
   0   7   3    1.54    0.29
  -1  -7  -3   -0.19    0.40
   1   7   3    0.26    0.23
  -2  -7  -3    2.84    0.51
   2   7   3    3.55    0.34
  -3  -7  -3    0.42    0.46
   3   7   3    0.73    0.27
  -4  -7  -3    0.58    0.50
   4   7   3    0.75    0.29
  -5  -7  -3    0.41    0.53
   5   7   3   -0.22    0.31
  -6  -7  -3    2.12    0.61
   6   7   3    2.42    0.42
  -7  -7  -3    1.88    0.62
   7   7   3    2.34    0.45
   8   7   3    0.94    0.45
   9  -8  -3    0.48    1.03
  -9   8   3   -0.03    0.45
   8  -8  -3    1.04    0.93
  -8   8   3    0.13    0.43
   7  -8  -3    0.01    0.84
  -7   8   3   -0.46    0.40
  -6   8   3    0.34    0.36
  -5   8   3    0.56    0.34
   4  -8  -3    2.43    0.52
  -4   8   3    2.59    0.36
   3  -8  -3    1.22    0.49
  -3   8   3    1.28    0.30
   2  -8  -3    0.18    0.47
  -2   8   3   -0.19    0.27
   1  -8  -3    3.92    0.60
  -1   8   3    3.12    0.35
   0  -8  -3   19.49    1.03
   0   8   3   17.81    0.67
  -1  -8  -3    0.63    0.49
   1   8   3    0.38    0.27
  -2  -8  -3    0.33    0.50
   2   8   3    1.02    0.30
  -3  -8  -3    3.70    0.65
   3   8   3    3.61    0.39
  -4  -8  -3    1.32    0.60
   4   8   3    1.10    0.34
  -5  -8  -3    2.97    0.66
   5   8   3    2.82    0.45
  -6  -8  -3    0.47    0.62
   6   8   3    0.91    0.41
  -7  -8  -3    0.41    0.64
   7   8   3    0.57    0.42
  -8   9   3   -0.35    0.45
  -7   9   3    0.95    0.43
  -6   9   3    0.36    0.38
  -5   9   3    0.06    0.36
   4  -9  -3    0.64    0.78
  -4   9   3    0.05    0.32
   3  -9  -3    0.43    0.51
  -3   9   3    0.16    0.31
   2  -9  -3    3.77    0.65
  -2   9   3    4.23    0.42
   1  -9  -3   17.76    1.05
  -1   9   3   17.46    0.70
   0  -9  -3    0.76    0.55
   0   9   3    0.18    0.31
  -1  -9  -3    1.20    0.60
   1   9   3    1.01    0.34
  -2  -9  -3    1.45    0.63
   2   9   3    2.46    0.39
  -3  -9  -3    0.32    0.62
   3   9   3    0.09    0.32
  -4  -9  -3    1.80    0.70
   4   9   3    1.35    0.37
  -5  -9  -3    0.59    0.68
   5   9   3    0.76    0.39
  -6  -9  -3    0.79    0.69
   6   9   3   -0.03    0.40
  -7  -9  -3    1.97    0.76
  -7  10   3    0.62    0.47
  -6  10   3    0.61    0.41
  -5  10   3    1.29    0.41
  -4  10   3    0.00    0.36
   3 -10  -3    0.43    0.55
  -3  10   3   -0.06    0.36
   2 -10  -3    1.44    0.61
  -2  10   3    1.61    0.39
   1 -10  -3    0.76    0.59
  -1  10   3    0.55    0.36
   0 -10  -3    3.81    0.71
   0  10   3    4.55    0.45
  -1 -10  -3    3.30    0.71
   1  10   3    3.31    0.43
  -2 -10  -3    0.20    0.66
   2  10   3    0.09    0.35
  -3 -10  -3    0.67    0.71
   3  10   3    1.72    0.41
  -4 -10  -3    0.77    0.73
   4  10   3    0.45    0.36
  -5 -10  -3    1.01    0.78
   5  10   3    0.59    0.43
  -5  11   3    0.52    0.46
  -4  11   3    1.05    0.42
   3 -11  -3    1.60    0.63
  -3  11   3    0.44    0.40
   2 -11  -3    0.84    0.62
  -2  11   3    0.46    0.40
   1 -11  -3    1.50    0.66
  -1  11   3    0.78    0.40
   0 -11  -3    1.17    0.68
   0  11   3    0.18    0.37
  -1 -11  -3    0.73    0.69
   1  11   3    0.28    0.37
  -2 -11  -3    1.56    0.77
   2  11   3    1.07    0.41
  -3 -11  -3    1.28    0.88
   3  11   3    0.72    0.40
   2 -12  -3    1.38    0.69
   1 -12  -3    0.74    0.73
   2  13  -4    0.76    0.65
   1  13  -4    0.94    0.42
  -1 -13   4   -0.55    0.89
   0  13  -4    0.39    0.42
   0 -13   4   -0.89    0.70
  -1  13  -4    0.94    0.41
   1 -13   4    0.51    0.73
  -2  13  -4    1.09    0.46
   4  12  -4    0.50    0.40
   3  12  -4    1.07    0.40
  -3 -12   4   -0.31    0.75
   2  12  -4    1.13    0.40
  -2 -12   4   -0.09    0.71
   1  12  -4    0.73    0.38
  -1 -12   4   -0.73    0.64
   0  12  -4    2.67    0.42
   0 -12   4    1.49    0.69
  -1  12  -4    0.72    0.37
   1 -12   4   -0.58    0.62
  -2  12  -4   -0.34    0.34
   2 -12   4   -0.90    0.64
  -3  12  -4    0.09    0.35
  -4  12  -4    0.18    0.37
  -5  12  -4    0.54    0.40
   6  11  -4    0.97    0.42
   5  11  -4    0.15    0.37
  -5 -11   4   -1.54    0.73
   4  11  -4    1.66    0.39
  -4 -11   4    0.36    0.71
   3  11  -4    1.70    0.38
  -3 -11   4    1.69    0.70
   2  11  -4    0.60    0.34
  -2 -11   4   -0.65    0.61
   1  11  -4    2.45    0.41
  -1 -11   4    1.91    0.65
   0  11  -4    0.16    0.33
   0 -11   4   -0.17    0.55
  -1  11  -4    1.52    0.36
   1 -11   4    0.87    0.58
  -2  11  -4    1.43    0.36
   2 -11   4    1.24    0.58
  -3  11  -4    0.55    0.35
  -4  11  -4    0.35    0.34
  -5  11  -4   -0.12    0.34
  -6  11  -4   -0.14    0.37
   7  10  -4    1.18    0.42
  -7 -10   4    0.22    0.77
   6  10  -4    0.05    0.37
  -6 -10   4   -0.67    0.67
   5  10  -4    0.32    0.35
  -5 -10   4    0.14    0.66
   4  10  -4    1.01    0.34
  -4 -10   4    0.22    0.61
   3  10  -4    0.48    0.56
   3  10  -4    1.34    0.35
  -3 -10   4    0.97    0.60
   2  10  -4    4.25    0.61
   2  10  -4    5.40    0.48
  -2 -10   4    4.73    0.67
   1  10  -4    1.86    0.34
  -1 -10   4    1.47    0.54
   0  10  -4    0.15    0.29
   0 -10   4   -0.15    0.48
  -1  10  -4    1.16    0.33
   1 -10   4    0.99    0.50
  -2  10  -4   -0.10    0.29
   2 -10   4   -0.47    0.45
  -3  10  -4    3.67    0.41
  -4  10  -4   -0.01    0.32
  -5  10  -4   -0.06    0.35
  -6  10  -4    0.53    0.38
  -7  10  -4   -0.04    0.38
   7 -10   4    1.50    1.22
  -8  10  -4    0.45    0.65
   8 -10   4    2.05    1.00
   8   9  -4    1.02    0.43
  -8  -9   4    0.35    0.69
   7   9  -4    0.43    0.38
  -7  -9   4   -0.37    0.63
   6   9  -4    1.11    0.36
   6   9  -4   -0.61    0.56
  -6  -9   4    0.81    0.62
   5   9  -4   -0.04    0.55
   5   9  -4    1.08    0.34
  -5  -9   4    0.56    0.57
   4   9  -4   -0.65    0.49
   4   9  -4   -0.03    0.29
  -4  -9   4    0.09    0.54
   3   9  -4    1.46    0.31
   3   9  -4    0.70    0.48
  -3  -9   4    1.40    0.52
   2   9  -4   -0.08    0.44
   2   9  -4   -0.09    0.25
  -2  -9   4   -0.20    0.43
   1   9  -4    1.84    0.31
   1   9  -4    1.27    0.46
  -1  -9   4    1.62    0.48
   0   9  -4    1.98    0.46
   0   9  -4    1.94    0.31
   0  -9   4    1.86    0.45
  -1   9  -4    0.86    0.43
  -1   9  -4    1.04    0.27
   1  -9   4    1.37    0.44
  -2   9  -4    2.07    0.30
   2  -9   4    2.10    0.45
  -3   9  -4    0.84    0.29
   3  -9   4    0.64    0.40
  -4   9  -4    7.73    0.53
   4  -9   4    8.89    0.90
  -5   9  -4    2.39    0.38
   5  -9   4    5.40    0.91
  -6   9  -4   -0.13    0.33
   6  -9   4    0.21    0.77
  -7   9  -4    1.22    0.40
   7  -9   4    0.81    0.88
  -8   9  -4    1.21    0.43
   8  -9   4    3.01    1.05
   9  -9   4    1.70    1.02
   9   8  -4    0.79    0.43
   8   8  -4    0.26    0.38
  -8  -8   4   -0.50    0.59
   7   8  -4    0.33    0.58
   7   8  -4    2.29    0.40
  -7  -8   4    1.93    0.63
   6   8  -4    1.02    0.34
   6   8  -4    0.22    0.51
  -6  -8   4    0.84    0.56
   5   8  -4    0.52    0.28
   5   8  -4   -0.27    0.46
  -5  -8   4    0.01    0.48
   4   8  -4   -0.50    0.41
   4   8  -4    0.22    0.24
  -4  -8   4   -0.21    0.43
   3   8  -4    1.74    0.28
   3   8  -4    1.00    0.41
  -3  -8   4    1.60    0.43
   2   8  -4    9.59    0.66
   2   8  -4    9.72    0.46
  -2  -8   4    8.98    0.69
   1   8  -4    1.00    0.25
   1   8  -4    1.00    0.37
  -1  -8   4    0.80    0.36
   0   8  -4    1.51    0.37
   0   8  -4    1.42    0.25
   0  -8   4    1.37    0.37
  -1   8  -4    1.66    0.37
  -1   8  -4    1.82    0.27
   1  -8   4    2.70    0.57
   1  -8   4    1.92    0.38
   1  -8   4    1.89    0.68
  -2   8  -4    0.34    0.23
  -2   8  -4    0.53    0.34
   2  -8   4    1.06    0.58
   2  -8   4    0.57    0.33
   2  -8   4    1.02    0.45
  -3   8  -4   11.69    0.51
   3  -8   4   11.65    0.67
   3  -8   4   11.72    0.97
  -4   8  -4    3.59    0.35
   4  -8   4    4.72    0.83
  -5   8  -4   -0.10    0.28
   5  -8   4    0.62    0.68
  -6   8  -4    2.35    0.38
   6  -8   4    3.24    0.90
  -7   8  -4    1.25    0.36
   7  -8   4    1.65    0.91
  -8   8  -4    0.15    0.36
   8  -8   4    0.20    0.88
  -9   8  -4    0.09    0.39
   9  -8   4    1.60    1.03
  10   7  -4    0.76    0.51
   9   7  -4    0.29    0.40
   8   7  -4   -0.36    0.55
   8   7  -4    1.48    0.38
  -8  -7   4    1.02    0.58
   7   7  -4   -0.43    0.48
   7   7  -4    0.22    0.33
  -7  -7   4    0.62    0.53
   6   7  -4    2.03    0.50
   6   7  -4    2.86    0.37
  -6  -7   4    3.09    0.55
   5   7  -4    1.01    0.29
   5   7  -4    0.29    0.42
  -5  -7   4    0.34    0.45
   4   7  -4    4.81    0.61
   4   7  -4    4.84    0.37
  -4  -7   4    5.70    0.67
   3   7  -4   25.14    0.70
   3   7  -4   24.11    0.89
   2   7  -4   15.18    0.70
   2   7  -4   15.02    0.51
   1   7  -4    1.92    0.24
   1   7  -4    2.18    0.36
  -1  -7   4    1.53    0.63
  -1  -7   4    2.40    0.50
   0   7  -4    7.30    0.37
   0   7  -4    6.86    0.53
   0  -7   4    6.21    0.88
   0  -7   4    7.00    0.68
  -1   7  -4    0.16    0.28
  -1   7  -4   -0.01    0.18
   1  -7   4   -0.73    0.46
   1  -7   4   -0.20    0.29
   1  -7   4   -0.47    0.58
  -2   7  -4   11.60    0.56
  -2   7  -4   12.47    0.46
   2  -7   4   11.68    0.60
   2  -7   4   11.15    0.95
   2  -7   4   11.20    0.72
  -3   7  -4    5.47    0.38
  -3   7  -4    5.15    0.45
   3  -7   4    6.01    0.50
   3  -7   4    4.63    0.63
   3  -7   4    6.21    0.84
  -4   7  -4    0.11    0.23
   4  -7   4   -0.21    0.63
  -5   7  -4    1.63    0.28
   5  -7   4    1.85    0.75
  -6   7  -4    0.50    0.29
   6  -7   4    0.82    0.74
  -7   7  -4    1.40    0.33
   7  -7   4    2.67    0.92
  -8   7  -4    1.32    0.36
   8  -7   4    1.15    0.93
  -9   7  -4    0.06    0.39
   9  -7   4    0.54    0.94
 -10   7  -4    0.22    0.44
  10  -7   4    1.29    1.05
   9   6  -4    0.98    0.41
   8   6  -4   -0.66    0.48
   8   6  -4    0.79    0.36
  -8  -6   4    0.62    0.51
   7   6  -4    0.12    0.45
   7   6  -4    0.40    0.31
  -7  -6   4    0.88    0.47
   6   6  -4    7.13    0.47
   6   6  -4    6.38    0.66
  -6  -6   4    7.13    0.74
   5   6  -4    6.31    0.42
   5   6  -4    6.32    0.62
   4   6  -4    3.13    0.29
   4   6  -4    4.19    0.53
   3   6  -4    7.85    0.36
   3   6  -4    7.71    0.53
   2   6  -4    2.77    0.27
   2   6  -4    3.62    0.44
   1   6  -4   35.84    1.00
   1   6  -4   37.59    0.88
   0   6  -4    8.03    0.34
   0   6  -4    7.74    0.47
   0  -6   4    7.32    0.60
   0  -6   4    7.62    0.80
  -1   6  -4    8.09    0.43
  -1   6  -4    8.31    0.34
   1  -6   4    7.19    0.85
   1  -6   4    7.11    0.66
  -2   6  -4    2.55    0.35
  -2   6  -4    2.35    0.23
   2  -6   4    2.55    0.52
   2  -6   4    1.83    0.65
  -3   6  -4    5.29    0.34
  -3   6  -4    5.30    0.39
   3  -6   4    6.81    0.87
   3  -6   4    4.74    0.61
  -4   6  -4    8.02    0.41
   4  -6   4    6.99    0.92
   4  -6   4    7.22    0.69
  -5   6  -4    0.08    0.21
   5  -6   4   -0.55    0.62
  -6   6  -4    0.27    0.26
   6  -6   4   -0.20    0.69
  -7   6  -4    2.71    0.35
   7  -6   4    2.97    0.90
  -8   6  -4    0.95    0.33
   8  -6   4    0.67    0.87
  -9   6  -4    0.54    0.37
   9  -6   4    0.73    0.92
 -10   6  -4   -0.36    0.35
  10  -6   4    0.96    1.00
 -10  -5   4    0.79    0.37
   8   5  -4    0.66    0.34
   8   5  -4   -0.47    0.44
  -8  -5   4    0.84    0.45
   7   5  -4    4.34    0.46
   7   5  -4    3.76    1.75
   7   5  -4    3.55    0.49
   6   5  -4    0.62    0.37
   6   5  -4    0.40    0.72
   6   5  -4    0.12    0.25
   5   5  -4    5.95    0.82
   5   5  -4    5.85    0.39
   5   5  -4    6.51    0.54
   4   5  -4    0.29    0.19
   4   5  -4    0.64    0.52
   4   5  -4    0.56    0.30
   3   5  -4    7.75    0.33
   3   5  -4    8.58    0.48
   2   5  -4   10.87    0.49
   2   5  -4   11.25    0.36
   1   5  -4    1.13    0.16
   1   5  -4    1.43    0.24
   0   5  -4   23.14    0.57
   0   5  -4   22.52    0.67
  -1   5  -4   18.13    0.56
  -1   5  -4   18.03    0.48
   1  -5   4   16.51    0.96
   1  -5   4   16.88    0.77
  -2   5  -4    5.60    0.29
  -2   5  -4    6.00    0.34
   2  -5   4    6.00    0.76
   2  -5   4    5.44    0.58
  -3   5  -4    1.15    0.21
   3  -5   4    1.30    0.47
   3  -5   4    1.35    0.61
  -4   5  -4    0.51    0.18
   4  -5   4    0.12    0.45
   4  -5   4    0.35    0.60
  -5   5  -4    7.22    0.40
   5  -5   4    7.36    0.96
   5  -5   4    6.14    0.71
  -6   5  -4    1.27    0.26
   6  -5   4    0.08    0.69
  -7   5  -4    0.43    0.28
   7  -5   4   -0.76    0.68
  -8   5  -4    1.19    0.34
   8  -5   4    1.21    0.83
  -9   5  -4   -0.23    0.35
   9  -5   4   -0.89    0.83
 -10   5  -4   -0.25    0.40
  10  -5   4    0.45    0.96
 -11  -4   4    0.40    0.56
 -10  -4   4    0.49    0.35
   9   4  -4    0.67    0.93
  -9  -4   4    1.14    0.35
   8   4  -4   -0.08    0.81
   7   4  -4   -0.46    0.75
   7   4  -4   -0.07    0.35
   7   4  -4   -0.13    0.27
   6   4  -4   16.59    1.13
   6   4  -4   16.02    0.57
   5   4  -4    0.12    0.27
   5   4  -4    0.07    0.58
   5   4  -4   -0.30    0.19
   4   4  -4    0.21    0.24
   4   4  -4    0.25    0.16
   4   4  -4   -0.08    0.47
   3   4  -4    2.20    0.28
   3   4  -4    2.71    0.50
   3   4  -4    1.76    0.17
   2   4  -4   -0.06    0.10
   2   4  -4   -0.21    0.19
   1   4  -4    6.22    0.24
   1   4  -4    6.58    0.37
   0   4  -4   15.92    0.41
   0   4  -4   16.21    0.51
  -1   4  -4   29.54    0.68
  -1   4  -4   29.95    0.75
   1  -4   4   29.08    1.12
   1  -4   4   29.22    0.90
  -2   4  -4   10.05    0.37
  -2   4  -4    9.23    0.33
   2  -4   4    8.95    0.84
   2  -4   4    9.70    0.65
  -3   4  -4    6.76    0.31
   3  -4   4    7.37    0.81
   3  -4   4    7.45    0.60
  -4   4  -4  124.39    2.63
   4  -4   4  125.34    2.88
   4  -4   4  124.55    3.23
  -5   4  -4    4.97    0.36
   5  -4   4    4.71    0.61
   5  -4   4    5.22    0.83
  -6   4  -4    0.05    0.22
   6  -4   4    0.14    0.66
  -7   4  -4    3.83    0.36
   7  -4   4    3.70    0.85
  -8   4  -4    0.20    0.28
   8  -4   4    0.83    0.77
  -9   4  -4    0.34    0.32
   9  -4   4   -0.25    0.80
 -10   4  -4    0.31    0.39
  10  -4   4    0.06    0.85
 -11   4  -4   -0.91    0.39
  11  -4   4    0.90    0.98
  11   3  -4   -0.21    0.94
 -11  -3   4    0.31    0.42
  10   3  -4    0.54    0.93
 -10  -3   4    0.47    0.36
   9   3  -4    0.40    0.85
  -9  -3   4    0.49    0.32
   8   3  -4    1.26    0.83
  -8  -3   4    1.08    0.29
   7   3  -4    1.29    0.81
   7   3  -4    1.88    0.35
   6   3  -4    1.90    0.27
   6   3  -4    2.45    0.75
   6   3  -4    2.18    0.32
   5   3  -4    5.48    0.43
   5   3  -4    5.48    0.74
   5   3  -4    5.59    0.32
   4   3  -4   18.50    0.50
   4   3  -4   19.10    0.93
   4   3  -4   18.01    0.61
   3   3  -4   18.33    0.46
   3   3  -4   18.92    0.84
   3   3  -4   17.12    0.58
   2   3  -4   31.62    0.72
   2   3  -4   34.12    0.84
   1   3  -4    0.02    0.07
   1   3  -4    0.20    0.16
   0   3  -4    3.56    0.16
   0   3  -4    3.77    0.27
  -1   3  -4    8.68    0.33
  -1   3  -4    8.44    0.26
  -2   3  -4   21.13    0.52
  -2   3  -4   21.77    0.57
   2  -3   4   21.73    0.82
   2  -3   4   22.08    1.05
  -3   3  -4   81.95    1.76
   3  -3   4   83.55    2.00
   3  -3   4   84.36    2.31
  -4   3  -4  157.47    3.30
   4  -3   4  159.88    3.90
   4  -3   4  159.16    3.53
  -5   3  -4    0.03    0.16
   5  -3   4    0.04    0.58
   5  -3   4   -0.20    0.42
  -6   3  -4    5.77    0.39
   6  -3   4    4.23    0.82
  -7   3  -4    0.12    0.24
   7  -3   4   -0.29    0.60
  -8   3  -4    3.46    0.38
   8  -3   4    2.82    0.83
  -9   3  -4   -0.30    0.31
   9  -3   4    0.84    0.80
 -10   3  -4   -0.62    0.32
  10  -3   4    0.21    0.81
 -11   3  -4   -0.92    0.37
  11  -3   4    0.41    0.93
  11   2  -4    0.24    0.94
 -11  -2   4    0.24    0.38
  10   2  -4    0.13    0.87
 -10  -2   4    0.54    0.36
   9   2  -4    1.06    0.87
  -9  -2   4    0.92    0.34
   8   2  -4    1.96    0.85
  -8  -2   4    2.73    0.34
   7   2  -4   -0.04    0.28
   7   2  -4   -0.38    0.65
  -7  -2   4    0.11    0.22
   6   2  -4    6.15    0.87
   6   2  -4    5.17    0.43
  -6  -2   4    4.68    0.33
   5   2  -4    1.22    0.25
   5   2  -4    1.88    0.60
   4   2  -4    3.59    0.33
   4   2  -4    4.49    0.23
   4   2  -4    3.84    0.58
   3   2  -4   53.11    1.15
   3   2  -4   55.49    1.58
   3   2  -4   53.32    1.25
   2   2  -4   27.61    0.72
   2   2  -4   27.16    0.96
   1   2  -4    0.19    0.14
   0   2  -4   33.71    0.81
  -1   2  -4    0.65    0.08
  -1   2  -4    0.53    0.13
  -2   2  -4   13.79    0.41
  -2   2  -4   13.77    0.36
   2  -2   4   14.32    0.66
   2  -2   4   14.16    0.85
  -3   2  -4   37.07    0.87
   3  -2   4   38.83    1.38
   3  -2   4   38.63    1.11
  -4   2  -4    6.46    0.32
   4  -2   4    6.86    0.79
   4  -2   4    6.76    0.56
  -5   2  -4    4.37    0.31
   5  -2   4    5.14    0.80
   5  -2   4    3.92    0.57
  -6   2  -4    0.25    0.20
   6  -2   4   -0.22    0.60
  -7   2  -4    2.39    0.29
   7  -2   4    2.44    0.76
  -8   2  -4    0.20    0.27
   8  -2   4    0.70    0.72
  -9   2  -4    0.52    0.32
   9  -2   4    0.77    0.80
 -10   2  -4    0.54    0.37
  10  -2   4    1.30    0.89
 -11   2  -4    0.19    0.40
  11  -2   4    0.79    0.88
  11   1  -4    0.53    0.91
 -11  -1   4   -0.46    0.37
  10   1  -4    1.26    0.90
 -10  -1   4    0.46    0.33
   9   1  -4    0.96    0.82
  -9  -1   4    1.42    0.32
   8   1  -4   -0.25    0.70
  -8  -1   4   -0.23    0.24
   7   1  -4    4.99    0.88
   7   1  -4    4.80    0.46
  -7  -1   4    5.19    0.38
   6   1  -4    1.56    0.65
   6   1  -4    1.33    0.26
  -6  -1   4    1.47    0.22
   5   1  -4    1.14    0.23
   5   1  -4    1.49    0.55
  -5  -1   4    1.26    0.18
   4   1  -4   46.58    1.12
   4   1  -4   46.75    1.49
  -4  -1   4   47.09    1.02
   3   1  -4    1.25    0.21
   3   1  -4    1.69    0.45
  -3  -1   4    1.50    0.12
   2   1  -4   51.72    1.20
   2   1  -4   53.70    1.48
   1   1  -4    2.82    0.25
   0   1  -4   -0.07    0.13
  -1   1  -4    0.13    0.13
  -1   1  -4    0.35    0.08
   2  -1   4    1.10    0.49
   2  -1   4    1.24    0.36
  -3   1  -4    6.80    0.28
  -3   1  -4    7.02    0.32
   3  -1   4    6.50    0.76
   3  -1   4    6.93    0.55
  -4   1  -4   20.37    0.57
   4  -1   4   21.41    0.81
   4  -1   4   20.42    1.06
  -5   1  -4   -0.27    0.16
   5  -1   4   -0.43    0.54
   5  -1   4   -0.22    0.41
  -6   1  -4    6.64    0.39
   6  -1   4    6.86    0.89
  -7   1  -4    0.94    0.26
   7  -1   4    1.34    0.71
  -8   1  -4    1.44    0.30
   8  -1   4    1.04    0.77
  -9   1  -4    2.26    0.36
   9  -1   4    1.65    0.86
 -10   1  -4   -0.25    0.31
  10  -1   4    1.00    0.84
 -11   1  -4    0.97    0.41
  11  -1   4    1.03    0.88
  11   0  -4   -0.18    0.86
 -11   0   4   -0.12    0.37
  10   0  -4    0.34    0.84
 -10   0   4   -0.20    0.33
   9   0  -4    0.24    0.74
  -9   0   4   -0.80    0.26
   8   0  -4    1.15    0.76
  -8   0   4    1.00    0.27
   7   0  -4    0.08    0.64
  -7   0   4   -0.07    0.20
   6   0  -4    2.51    0.33
   6   0  -4    2.41    0.66
  -6   0   4    2.65    0.23
   5   0  -4    9.64    0.43
   5   0  -4    9.06    0.76
  -5   0   4    9.53    0.34
   4   0  -4    4.88    0.61
   4   0  -4    4.52    0.32
  -4   0   4    3.67    0.22
   3   0  -4   52.02    1.21
   3   0  -4   53.40    1.52
  -3   0   4   51.08    1.09
   2   0  -4    7.25    0.33
   2   0  -4    6.57    0.53
   1   0  -4   12.66    0.44
   1   0  -4   12.33    0.61
   0   0  -4   24.44    0.67
  -1   0  -4   17.87    0.54
   1   0   4   17.50    0.42
  -2   0  -4   11.20    0.43
   2   0   4   11.72    0.55
   2   0   4   10.94    0.32
   2   0   4   11.59    0.75
  -3   0  -4   24.99    0.69
   3   0   4   23.49    1.07
   3   0   4   23.38    0.83
   3   0   4   23.98    0.60
  -4   0  -4   18.48    0.58
   4   0   4   17.79    0.74
   4   0   4   18.09    0.98
  -5   0  -4   11.85    0.44
   5   0   4   11.45    0.93
   5   0   4   11.38    0.68
  -6   0  -4    0.21    0.21
   6   0   4    0.07    0.58
  -7   0  -4    1.47    0.28
   7   0   4    1.72    0.73
  -8   0  -4    2.62    0.36
   8   0   4    2.67    0.80
  -9   0  -4    0.27    0.33
   9   0   4    0.43    0.77
 -10   0  -4    2.59    0.41
  10   0   4    3.16    0.96
 -11   0  -4    1.69    0.44
  11   0   4    2.74    1.00
  11  -1  -4    0.98    1.02
 -11   1   4   -0.04    0.39
  10  -1  -4    0.97    0.91
 -10   1   4   -0.42    0.31
   9  -1  -4    0.14    0.77
  -9   1   4   -0.38    0.27
   8  -1  -4    0.20    0.72
  -8   1   4   -0.32    0.22
   7  -1  -4    1.41    0.74
  -7   1   4    1.79    0.25
   6  -1  -4    0.02    0.21
   6  -1  -4   -0.28    0.53
  -6   1   4    0.09    0.16
   5  -1  -4    1.01    0.21
   5  -1  -4    0.99    0.53
  -5   1   4    0.97    0.16
   4  -1  -4   46.01    1.48
   4  -1  -4   43.84    1.08
  -4   1   4   45.36    0.99
   3  -1  -4   20.46    0.61
   3  -1  -4   20.97    0.89
  -3   1   4   20.41    0.49
   2  -1  -4   25.15    0.69
   2  -1  -4   23.99    0.92
  -2   1   4   25.37    0.55
   1  -1  -4    7.96    0.38
   1  -1  -4    8.45    0.52
  -1   1   4    8.08    0.22
   0  -1  -4    2.98    0.32
   0   1   4    2.62    0.14
  -1  -1  -4    1.08    0.21
   1   1   4    1.17    0.11
  -2  -1  -4   29.55    0.81
   2   1   4   27.45    0.83
   2   1   4   27.56    1.03
   2   1   4   29.22    0.67
  -3  -1  -4    5.04    0.41
   3   1   4    5.16    0.26
   3   1   4    5.44    0.72
   3   1   4    5.21    0.50
  -4  -1  -4   39.43    1.05
   4   1   4   40.11    1.41
   4   1   4   38.58    0.94
   4   1   4   40.07    1.13
  -5  -1  -4    6.22    0.48
   5   1   4    5.79    0.57
   5   1   4    5.96    0.80
   5   1   4    6.02    0.36
  -6  -1  -4    3.79    0.47
   6   1   4    3.48    0.32
   6   1   4    3.56    0.73
  -7  -1  -4    1.51    0.29
   7   1   4    1.39    0.65
  -8  -1  -4    0.11    0.28
   8   1   4    0.93    0.67
  -9  -1  -4    2.63    0.39
   9   1   4    2.73    0.87
 -10  -1  -4    2.13    0.44
  10   1   4    1.79    0.85
 -11  -1  -4    0.20    0.44
  11  -2  -4    0.88    1.01
 -11   2   4   -0.56    0.37
  10  -2  -4    1.13    0.91
 -10   2   4    0.86    0.36
   9  -2  -4    0.58    0.82
  -9   2   4    0.37    0.30
   8  -2  -4    3.11    0.90
  -8   2   4    3.45    0.34
   7  -2  -4    1.39    0.76
  -7   2   4    1.37    0.25
   6  -2  -4    1.49    0.68
   6  -2  -4    1.38    0.24
  -6   2   4    1.73    0.22
   5  -2  -4    0.60    0.54
   5  -2  -4    1.37    0.23
  -5   2   4    1.12    0.18
   4  -2  -4    5.01    0.36
   4  -2  -4    4.54    0.62
  -4   2   4    4.66    0.26
   3  -2  -4   17.40    0.58
   3  -2  -4   16.76    0.82
  -3   2   4   17.32    0.45
   2  -2  -4   22.07    0.67
   2  -2  -4   21.01    0.88
  -2   2   4   21.15    0.51
   1  -2  -4    2.05    0.26
   1  -2  -4    3.34    0.44
  -1   2   4    1.94    0.16
   0  -2  -4   62.15    1.45
   0   2   4   59.08    1.28
  -1  -2  -4    8.39    0.48
   1   2   4    8.30    0.28
  -2  -2  -4    3.26    0.34
   2   2   4    4.16    0.59
   2   2   4    4.45    0.43
   2   2   4    3.37    0.23
  -3  -2  -4   36.85    1.04
   3   2   4   38.04    1.30
   3   2   4   37.35    0.89
   3   2   4   37.62    1.05
  -4  -2  -4    9.89    0.57
   4   2   4    9.84    0.55
   4   2   4   10.27    0.78
   4   2   4    9.82    0.40
  -5  -2  -4    0.08    0.29
   5   2   4    0.41    0.52
   5   2   4   -0.03    0.19
  -6  -2  -4    2.28    0.38
   6   2   4    2.09    0.29
   6   2   4    2.72    0.63
   7   2   4    2.63    0.69
   7   2   4    1.26    0.31
   8   2   4    1.33    0.69
  -9  -2  -4    0.27    0.33
 -10  -2  -4    0.78    0.39
  11  -3  -4   -0.09    1.01
 -11   3   4    0.39    0.38
  10  -3  -4   -0.01    0.91
 -10   3   4   -0.29    0.32
   9  -3  -4    3.68    1.06
  -9   3   4    6.04    0.50
   8  -3  -4    2.97    0.94
  -8   3   4    2.78    0.33
   7  -3  -4    0.26    0.70
  -7   3   4    0.31    0.24
   6  -3  -4    7.30    0.91
  -6   3   4    8.75    0.41
   5  -3  -4    1.54    0.63
   5  -3  -4    1.21    0.25
  -5   3   4    1.24    0.21
   4  -3  -4    1.22    0.52
   4  -3  -4    0.72    0.24
  -4   3   4    1.37    0.19
   3  -3  -4    1.92    0.27
   3  -3  -4    2.39    0.51
  -3   3   4    2.00    0.19
   2  -3  -4    3.94    0.40
   2  -3  -4    3.94    0.50
  -2   3   4    3.57    0.23
   1  -3  -4   75.14    1.78
   1  -3  -4   75.57    1.89
  -1   3   4   74.68    1.59
   0   3   4    3.76    0.24
  -1  -3  -4    9.10    0.54
   1   3   4    9.45    0.33
  -2  -3  -4   12.28    0.60
   2   3   4    9.71    0.54
   2   3   4   12.15    0.37
   2   3   4    9.84    0.72
  -3  -3  -4    1.53    0.33
   3   3   4    2.06    0.22
   3   3   4    2.62    0.37
   3   3   4    2.47    0.53
  -4  -3  -4    2.40    0.39
   4   3   4    2.90    0.42
   4   3   4    2.53    0.26
   4   3   4    3.17    0.58
  -5  -3  -4    3.83    0.45
   5   3   4    4.55    0.66
   5   3   4    3.47    0.32
  -6  -3  -4    0.36    0.36
   6   3   4    0.71    0.52
   6   3   4    0.18    0.25
   7   3   4    5.20    0.50
   8   3   4    0.18    0.34
 -10  -3  -4    0.66    0.36
 -11   4   4   -1.17    0.42
  10  -4  -4    1.39    1.00
 -10   4   4    0.41    0.39
   9  -4  -4    3.40    1.03
  -9   4   4    2.31    0.39
   8  -4  -4   -0.16    0.78
  -8   4   4   -0.25    0.29
   7  -4  -4    3.95    0.96
  -7   4   4    4.10    0.42
   6  -4  -4    1.41    0.73
  -6   4   4    0.81    0.25
   5  -4  -4   10.24    0.90
   5  -4  -4   10.62    0.55
  -5   4   4   10.77    0.46
   4  -4  -4    5.79    0.49
   4  -4  -4    5.98    0.71
  -4   4   4    6.23    0.35
   3  -4  -4    2.23    0.54
   3  -4  -4    1.74    0.32
  -3   4   4    2.48    0.22
   2  -4  -4    0.11    0.28
   2  -4  -4    0.50    0.40
  -2   4   4    0.50    0.16
   1  -4  -4    1.98    0.36
   1  -4  -4    3.08    0.46
  -1   4   4    2.38    0.24
   0  -4  -4   28.88    0.94
   0   4   4   29.12    0.72
  -1  -4  -4   22.02    0.81
   1   4   4   21.98    0.60
  -2  -4  -4    4.16    0.54
   2   4   4    4.12    0.31
   2   4   4    5.25    0.62
  -3  -4  -4    6.65    0.61
   3   4   4    6.70    0.38
   3   4   4    7.10    0.87
  -4  -4  -4    2.33    0.43
   4   4   4    2.17    0.28
  -5  -4  -4    0.29    0.39
   5   4   4    0.07    0.24
  -6  -4  -4    6.84    0.73
   6   4   4    6.08    0.49
  -7  -4  -4    0.35    0.46
   7   4   4    0.56    0.33
   8   4   4    2.78    0.43
   9   4   4    0.88    0.41
 -11   5   4    0.04    0.46
  10  -5  -4    0.53    1.05
 -10   5   4   -0.22    0.40
   9  -5  -4    1.20    0.96
  -9   5   4    0.02    0.38
   8  -5  -4    0.23    0.83
  -8   5   4    0.17    0.34
   7  -5  -4    0.55    0.82
  -7   5   4   -0.39    0.29
   6  -5  -4    6.45    0.93
  -6   5   4    7.66    0.48
   5  -5  -4    2.31    0.36
   5  -5  -4    2.35    0.73
  -5   5   4    3.17    0.32
   4  -5  -4    3.08    0.40
   4  -5  -4    3.77    0.72
  -4   5   4    3.31    0.30
   3  -5  -4    4.98    0.66
   3  -5  -4    4.29    0.46
  -3   5   4    4.44    0.34
   2  -5  -4    4.11    0.57
   2  -5  -4    4.26    0.49
  -2   5   4    5.34    0.33
   1  -5  -4    4.16    0.51
   1  -5  -4    4.26    0.48
  -1   5   4    4.79    0.32
   0  -5  -4   26.00    0.96
   0   5   4   26.11    0.70
  -1  -5  -4    8.58    0.67
   1   5   4    8.56    0.39
  -2  -5  -4   12.97    0.76
   2   5   4   13.37    0.49
  -3  -5  -4    1.00    0.40
   3   5   4    0.83    0.23
  -4  -5  -4    2.07    0.47
   4   5   4    2.29    0.30
  -5  -5  -4    0.93    0.46
   5   5   4    0.61    0.28
  -6  -5  -4   -0.05    0.44
   6   5   4    0.54    0.31
  -7  -5  -4    2.68    0.53
   7   5   4    2.48    0.42
   8   5   4    0.70    0.41
   9   5   4    0.32    0.44
  10  -6  -4    0.98    1.08
 -10   6   4   -0.11    0.44
   9  -6  -4    0.47    0.95
  -9   6   4    0.43    0.43
   8  -6  -4    1.50    0.93
  -8   6   4    0.35    0.40
   7  -6  -4    1.18    0.84
  -7   6   4    0.83    0.36
   6  -6  -4    3.08    0.87
  -6   6   4    3.29    0.38
   5  -6  -4    0.43    0.66
   5  -6  -4    1.38    0.38
  -5   6   4    0.91    0.29
   4  -6  -4   16.89    1.02
   4  -6  -4   17.70    0.83
  -4   6   4   17.24    0.61
   3  -6  -4   -0.06    0.50
   3  -6  -4    0.18    0.41
  -3   6   4    0.07    0.23
   2  -6  -4   11.01    0.81
   2  -6  -4   11.22    0.77
  -2   6   4   10.58    0.46
   1  -6  -4    9.82    0.78
  -1   6   4   10.83    0.47
   0  -6  -4    1.63    0.44
   0   6   4    1.59    0.26
  -1  -6  -4   16.19    0.87
   1   6   4   16.08    0.55
  -2  -6  -4   -0.26    0.39
   2   6   4    0.06    0.22
  -3  -6  -4    1.53    0.47
   3   6   4    1.36    0.27
  -4  -6  -4    2.46    0.53
   4   6   4    2.58    0.35
  -5  -6  -4   -0.15    0.48
   5   6   4    0.08    0.29
  -6  -6  -4    6.50    0.86
   6   6   4    5.59    0.58
  -7  -6  -4    1.46    0.55
   7   6   4    1.28    0.41
   8   6   4    0.43    0.43
 -10   7   4   -0.11    0.49
   9  -7  -4    0.76    0.99
  -9   7   4   -0.55    0.43
   8  -7  -4    2.33    1.02
  -8   7   4    1.38    0.42
   7  -7  -4    0.23    0.84
  -7   7   4   -0.20    0.36
   6  -7  -4    2.44    0.91
  -6   7   4    1.37    0.35
   5  -7  -4    4.67    0.89
  -5   7   4    3.76    0.41
   4  -7  -4    1.59    0.45
  -4   7   4    1.01    0.30
   3  -7  -4    2.55    0.53
  -3   7   4    2.45    0.33
   2  -7  -4    5.85    0.80
  -2   7   4    6.77    0.45
   1  -7  -4   -0.47    0.45
  -1   7   4   -0.20    0.24
   0  -7  -4   20.28    1.02
   0   7   4   18.90    0.66
  -1  -7  -4    1.69    0.50
   1   7   4    1.71    0.30
  -2  -7  -4    3.07    0.56
   2   7   4    3.71    0.36
  -3  -7  -4    2.78    0.57
   3   7   4    3.32    0.37
  -4  -7  -4    1.95    0.58
   4   7   4    1.86    0.35
  -5  -7  -4    5.71    0.71
   5   7   4    5.46    0.57
  -6  -7  -4    1.30    0.60
   6   7   4    1.97    0.42
  -7  -7  -4    0.71    0.59
   7   7   4    0.42    0.40
   8   7   4    0.82    0.47
   9  -8  -4    1.50    1.14
  -9   8   4    1.12    0.48
   8  -8  -4    1.13    1.08
  -8   8   4    0.43    0.43
  -7   8   4    0.42    0.39
  -6   8   4   -0.36    0.35
  -5   8   4   -0.27    0.32
   4  -8  -4    2.69    0.54
  -4   8   4    1.95    0.36
   3  -8  -4    1.43    0.54
  -3   8   4    1.26    0.33
   2  -8  -4    0.62    0.52
  -2   8   4    0.51    0.29
   1  -8  -4    4.35    0.64
  -1   8   4    4.77    0.47
   0  -8  -4    1.83    0.56
   0   8   4    1.79    0.33
  -1  -8  -4    5.40    0.68
   1   8   4    5.30    0.50
  -2  -8  -4    1.20    0.57
   2   8   4    1.33    0.33
  -3  -8  -4    0.00    0.57
   3   8   4   -0.04    0.30
  -4  -8  -4    2.78    0.67
   4   8   4    2.24    0.40
  -5  -8  -4    1.29    0.64
   5   8   4    1.39    0.41
  -6  -8  -4    1.78    0.66
   6   8   4    1.30    0.41
  -7  -8  -4    1.88    0.68
   7   8   4    0.78    0.44
  -8   9   4   -0.06    0.46
  -7   9   4   -0.40    0.42
  -6   9   4    0.19    0.39
  -5   9   4    0.77    0.37
   4  -9  -4    0.55    0.53
  -4   9   4   -0.40    0.33
   3  -9  -4    3.12    0.63
  -3   9   4    2.73    0.39
   2  -9  -4    2.92    0.65
  -2   9   4    2.90    0.40
   1  -9  -4    0.51    0.57
  -1   9   4    0.14    0.31
   0  -9  -4    5.05    0.74
   0   9   4    4.93    0.45
  -1  -9  -4    6.54    0.78
   1   9   4    6.00    0.56
  -2  -9  -4    0.38    0.62
   2   9   4    0.21    0.31
  -3  -9  -4    1.85    0.68
   3   9   4    2.51    0.41
  -4  -9  -4    0.92    0.67
   4   9   4   -0.07    0.35
  -5  -9  -4    1.62    0.71
   5   9   4    1.55    0.43
  -6  -9  -4    1.37    0.72
   6   9   4    1.06    0.47
  -6  10   4    1.04    0.42
  -5  10   4    1.16    0.42
  -4  10   4    2.39    0.44
   3 -10  -4    2.58    0.65
  -3  10   4    1.03    0.40
   2 -10  -4    1.25    0.64
  -2  10   4    0.78    0.39
   1 -10  -4    2.70    0.69
  -1  10   4    2.39    0.41
   0 -10  -4    2.05    0.68
   0  10   4    1.23    0.38
  -1 -10  -4    0.78    0.67
   1  10   4    0.06    0.34
  -2 -10  -4    3.61    0.79
   2  10   4    2.97    0.44
  -3 -10  -4    0.44    0.71
   3  10   4    0.48    0.38
  -4 -10  -4    1.73    0.76
   4  10   4    0.58    0.40
  -4  11   4    1.15    0.44
   3 -11  -4    1.98    0.68
  -3  11   4   -0.16    0.39
   2 -11  -4    2.36    0.71
  -2  11   4    2.15    0.44
   1 -11  -4    1.08    0.68
  -1  11   4    0.59    0.37
   0 -11  -4    2.01    0.74
   0  11   4    0.88    0.37
  -1 -11  -4    2.56    0.79
   1  11   4    2.02    0.43
   2  11   4    0.41    0.41
   2  13  -5    0.94    0.43
   1  13  -5    0.89    0.41
   0  13  -5    1.50    0.43
   0 -13   5    0.23    0.72
  -1  13  -5    0.33    0.39
   1 -13   5   -0.71    0.69
  -2  13  -5   -0.06    0.38
   5  12  -5    0.24    0.41
   4  12  -5    0.60    0.39
   3  12  -5    0.18    0.38
  -3 -12   5   -0.11    0.77
   2  12  -5    0.35    0.37
  -2 -12   5   -0.25    0.70
   1  12  -5    0.73    0.37
  -1 -12   5    0.56    0.67
   0  12  -5    0.51    0.37
   0 -12   5    0.06    0.64
  -1  12  -5    3.56    0.46
   1 -12   5    2.08    0.69
  -2  12  -5    1.01    0.37
  -3  12  -5   -0.05    0.35
  -4  12  -5    0.29    0.38
  -5  12  -5    0.17    0.38
   6  11  -5    0.60    0.44
   5  11  -5    0.60    0.38
  -5 -11   5   -0.14    0.73
   4  11  -5    0.76    0.36
   4  11  -5   -1.62    0.64
  -4 -11   5    0.31    0.69
   3  11  -5    0.87    0.36
   3  11  -5   -1.35    0.61
  -3 -11   5    0.72    0.66
   2  11  -5   -0.78    0.59
   2  11  -5    1.29    0.36
  -2 -11   5    1.10    0.63
   1  11  -5   -0.96    0.56
   1  11  -5    0.96    0.36
  -1 -11   5    0.37    0.57
   0  11  -5    1.02    0.34
   0 -11   5    1.03    0.57
  -1  11  -5    1.60    0.36
   1 -11   5    1.48    0.58
  -2  11  -5    0.08    0.32
   2 -11   5   -0.24    0.52
  -3  11  -5    1.90    0.40
  -4  11  -5   -0.01    0.34
  -5  11  -5   -0.47    0.34
  -6  11  -5   -0.01    0.39
  -7 -10   5    0.06    0.75
   6  10  -5    1.43    0.41
   6  10  -5   -0.92    0.65
  -6 -10   5    0.84    0.70
   5  10  -5   -0.56    0.62
   5  10  -5    0.70    0.36
  -5 -10   5    0.47    0.65
   4  10  -5    0.70    0.32
   4  10  -5   -0.28    0.59
  -4 -10   5    0.28    0.60
   3  10  -5    1.19    0.58
   3  10  -5    2.06    0.35
  -3 -10   5    2.07    0.62
   2  10  -5    0.20    0.29
   2  10  -5   -0.67    0.51
  -2 -10   5   -0.33    0.51
   1  10  -5    0.15    0.29
   1  10  -5   -0.78    0.49
  -1 -10   5    0.12    0.48
   0  10  -5    0.64    0.51
   0  10  -5    1.83    0.33
   0 -10   5    1.45    0.51
  -1  10  -5    0.25    0.29
  -1  10  -5   -0.92    0.48
   1 -10   5   -0.15    0.45
  -2  10  -5    2.18    0.35
   2 -10   5    2.38    0.53
  -3  10  -5   -0.23    0.30
  -4  10  -5    4.11    0.43
  -5  10  -5    0.50    0.34
  -6  10  -5   -0.31    0.35
   6 -10   5    2.12    1.18
  -7  10  -5    0.08    0.39
   7 -10   5    2.35    0.97
   8 -10   5    2.17    1.05
  -8  -9   5    0.05    0.68
   7   9  -5    1.16    0.43
   7   9  -5   -1.19    0.60
  -7  -9   5    1.18    0.66
   6   9  -5   -0.63    0.56
   6   9  -5    0.52    0.34
  -6  -9   5    0.17    0.60
   5   9  -5    0.57    0.31
   5   9  -5   -0.49    0.53
  -5  -9   5    0.26    0.57
   4   9  -5    3.39    0.37
   4   9  -5    2.77    0.57
  -4  -9   5    4.27    0.63
   3   9  -5   -0.50    0.45
   3   9  -5    0.49    0.27
  -3  -9   5    0.08    0.47
   2   9  -5   -0.26    0.25
   2   9  -5   -0.48    0.43
  -2  -9   5   -0.13    0.43
   1   9  -5   -0.03    0.26
   1   9  -5    0.32    0.43
  -1  -9   5   -0.13    0.40
   0   9  -5    0.49    0.26
   0   9  -5    0.34    0.42
   0  -9   5    0.74    0.41
  -1   9  -5    4.44    0.42
  -1   9  -5    4.07    0.50
   1  -9   5    4.77    0.65
  -2   9  -5    0.69    0.27
  -2   9  -5   -0.21    0.39
   2  -9   5    0.79    0.39
  -3   9  -5    2.02    0.44
  -3   9  -5    3.23    0.35
   3  -9   5    4.59    0.64
   3  -9   5    2.70    0.61
   3  -9   5    4.33    0.84
  -4   9  -5    1.66    0.34
   4  -9   5    2.61    0.79
  -5   9  -5   -0.16    0.31
   5  -9   5    1.50    0.80
  -6   9  -5    1.36    0.38
   6  -9   5    2.89    0.93
  -7   9  -5    0.32    0.39
   7  -9   5    1.01    0.92
  -8   9  -5    0.22    0.42
   8  -9   5    1.16    0.99
   9  -9   5    1.40    1.04
   8   8  -5   -1.12    0.57
  -8  -8   5    0.34    0.62
   7   8  -5    0.69    0.36
   7   8  -5   -0.75    0.53
  -7  -8   5   -0.05    0.57
   6   8  -5   -0.17    0.51
   6   8  -5    0.97    0.33
  -6  -8   5    1.44    0.56
   5   8  -5    3.57    0.56
   5   8  -5    4.53    0.45
  -5  -8   5    4.75    0.62
   4   8  -5    0.32    0.25
   4   8  -5   -0.13    0.45
  -4  -8   5    0.30    0.47
   3   8  -5   -0.02    0.23
   3   8  -5   -0.15    0.42
   2   8  -5    0.28    0.23
   2   8  -5    0.15    0.39
   1   8  -5    1.49    0.40
   1   8  -5    1.37    0.26
   0   8  -5    4.88    0.39
   0   8  -5    5.43    0.60
   0  -8   5    6.07    1.12
  -1   8  -5    0.04    0.35
  -1   8  -5   -0.02    0.22
   1  -8   5   -0.40    0.35
   1  -8   5    0.19    0.56
   1  -8   5    0.46    0.70
  -2   8  -5    1.81    0.37
  -2   8  -5    1.55    0.26
   2  -8   5    1.94    0.60
   2  -8   5    2.09    0.39
   2  -8   5    2.49    0.81
  -3   8  -5    2.10    0.29
  -3   8  -5    1.98    0.37
   3  -8   5    3.12    0.62
   3  -8   5    2.61    0.75
   3  -8   5    2.45    0.37
  -4   8  -5    0.26    0.27
   4  -8   5    0.81    0.56
   4  -8   5    0.49    0.68
  -5   8  -5    0.25    0.29
   5  -8   5    1.28    0.77
  -6   8  -5   -0.15    0.30
   6  -8   5    0.70    0.80
  -7   8  -5    0.43    0.35
   7  -8   5    1.46    0.89
  -8   8  -5    1.37    0.40
   8  -8   5    2.72    1.05
  -9   8  -5   -0.32    0.40
   9  -8   5    0.70    1.01
   8   7  -5   -0.99    0.53
  -8  -7   5   -0.06    0.55
   7   7  -5    0.21    0.51
   7   7  -5    1.41    0.36
  -7  -7   5    1.24    0.54
   6   7  -5    0.23    0.30
   6   7  -5   -0.15    0.47
   5   7  -5    0.11    0.26
   5   7  -5    0.48    0.43
   4   7  -5    2.51    0.28
   4   7  -5    2.44    0.45
   3   7  -5   -0.06    0.34
   3   7  -5    0.16    0.20
   2   7  -5    4.75    0.54
   2   7  -5    4.74    0.34
   1   7  -5    9.18    0.59
   1   7  -5    8.38    0.40
   0   7  -5    1.00    0.21
   0   7  -5    1.13    0.32
   0  -7   5    1.13    0.71
   0  -7   5    1.23    0.59
  -1   7  -5    5.37    0.35
  -1   7  -5    5.37    0.47
   1  -7   5    6.08    0.94
   1  -7   5    5.10    0.76
  -2   7  -5    0.67    0.29
  -2   7  -5    0.42    0.20
   2  -7   5    0.50    0.70
   2  -7   5    0.34    0.56
  -3   7  -5    1.47    0.25
  -3   7  -5    1.42    0.32
   3  -7   5    1.79    0.77
   3  -7   5    1.14    0.59
  -4   7  -5    1.83    0.29
   4  -7   5    2.70    0.65
   4  -7   5    2.62    0.78
  -5   7  -5   -0.39    0.26
   5  -7   5   -0.04    0.75
   5  -7   5   -0.16    0.61
  -6   7  -5    0.35    0.30
   6  -7   5    0.98    0.85
  -7   7  -5    0.25    0.32
   7  -7   5    0.86    0.90
  -8   7  -5    0.00    0.33
   8  -7   5    0.84    0.89
  -9   7  -5    0.27    0.39
   9  -7   5    0.82    1.04
  10  -7   5    1.99    1.87
   8   6  -5    0.92    0.41
   8   6  -5   -0.43    0.50
  -8  -6   5    1.00    0.53
   7   6  -5    0.62    0.32
   7   6  -5    0.09    0.46
   6   6  -5    0.23    0.42
   6   6  -5    0.39    0.28
   5   6  -5    6.52    1.55
   5   6  -5    7.87    0.63
   5   6  -5    7.89    0.44
   4   6  -5    1.52    0.24
   4   6  -5    1.15    0.37
   3   6  -5    3.71    0.49
   3   6  -5    3.36    0.30
   2   6  -5    4.54    0.47
   2   6  -5    4.41    0.28
   1   6  -5    0.06    0.16
   1   6  -5    0.36    0.27
   0   6  -5   21.74    0.58
   0   6  -5   21.07    0.71
  -1   6  -5    6.04    0.31
  -1   6  -5    6.02    0.43
   1  -6   5    6.44    0.73
   1  -6   5    6.40    0.89
  -2   6  -5   -0.01    0.22
  -2   6  -5   -0.09    0.16
   2  -6   5   -0.58    0.64
   2  -6   5   -0.04    0.54
  -3   6  -5    1.37    0.26
  -3   6  -5    1.37    0.22
   3  -6   5    1.47    0.74
   3  -6   5    1.49    0.59
  -4   6  -5   -0.21    0.21
   4  -6   5   -0.82    0.52
   4  -6   5   -0.91    0.63
  -5   6  -5    7.86    0.45
   5  -6   5    7.64    1.03
   5  -6   5    7.75    0.82
  -6   6  -5    0.22    0.27
   6  -6   5    0.48    0.79
  -7   6  -5    0.39    0.30
   7  -6   5   -0.45    0.76
  -8   6  -5   -0.01    0.32
   8  -6   5    1.09    0.88
  -9   6  -5   -0.33    0.35
   9  -6   5    0.61    0.91
 -10   6  -5    0.02    0.38
  10  -6   5    1.33    1.05
   8   5  -5    0.44    0.37
   8   5  -5   -0.35    0.46
   7   5  -5    0.87    0.43
   7   5  -5    1.23    0.32
   7   5  -5    1.53    0.88
   6   5  -5    0.46    0.37
   6   5  -5   -0.39    0.74
   6   5  -5    0.15    0.25
   5   5  -5    0.92    0.24
   5   5  -5    1.17    0.69
   5   5  -5    1.00    0.34
   4   5  -5    3.73    0.47
   4   5  -5    3.27    0.30
   4   5  -5    3.98    0.71
   3   5  -5    2.04    0.32
   3   5  -5    1.96    0.19
   2   5  -5    0.09    0.13
   2   5  -5    0.23    0.25
   1   5  -5    6.23    0.44
   1   5  -5    6.37    0.27
   0   5  -5    3.76    0.24
   0   5  -5    3.80    0.38
  -1   5  -5   11.58    0.37
  -1   5  -5   11.51    0.48
   1  -5   5   11.74    0.69
   1  -5   5   11.55    0.88
  -2   5  -5    8.53    0.42
  -2   5  -5    8.49    0.33
   2  -5   5    8.31    0.72
   2  -5   5    8.19    0.95
  -3   5  -5    1.21    0.23
  -3   5  -5    1.17    0.19
   3  -5   5    0.84    0.52
   3  -5   5    1.25    0.69
  -4   5  -5    2.54    0.25
   4  -5   5    2.59    0.60
   4  -5   5    1.96    0.76
  -5   5  -5    2.84    0.28
   5  -5   5    2.51    0.80
   5  -5   5    2.93    0.64
  -6   5  -5    9.26    0.49
   6  -5   5    8.76    1.08
  -7   5  -5    0.24    0.30
   7  -5   5   -0.25    0.77
  -8   5  -5   -0.29    0.31
   8  -5   5    0.15    0.78
  -9   5  -5   -0.70    0.36
   9  -5   5    0.57    0.88
 -10   5  -5   -0.20    0.41
  10  -5   5    0.58    0.95
   9   4  -5   -0.05    0.91
   8   4  -5    0.88    0.53
   8   4  -5    1.48    0.92
   7   4  -5    1.92    0.88
   7   4  -5    2.05    0.32
   7   4  -5    1.64    0.39
   6   4  -5    0.26    0.76
   6   4  -5    0.56    0.33
   6   4  -5    0.23    0.25
   5   4  -5    5.44    0.35
   5   4  -5    5.92    0.51
   5   4  -5    6.56    0.92
   4   4  -5    6.24    0.47
   4   4  -5    5.45    0.72
   4   4  -5    5.15    0.29
   3   4  -5    3.21    0.38
   3   4  -5    2.85    0.22
   2   4  -5   -0.03    0.10
   2   4  -5    0.14    0.21
   1   4  -5    1.93    0.25
   1   4  -5    1.72    0.14
   0   4  -5   22.06    0.65
   0   4  -5   21.58    0.52
  -1   4  -5    0.74    0.12
  -1   4  -5    0.89    0.19
  -2   4  -5    0.21    0.12
  -2   4  -5    0.16    0.16
   2  -4   5    0.06    0.59
   2  -4   5    0.66    0.48
  -3   4  -5    0.14    0.16
  -3   4  -5    0.04    0.14
   3  -4   5   -0.35    0.44
   3  -4   5   -0.34    0.59
  -4   4  -5   20.18    0.57
   4  -4   5   19.49    1.20
   4  -4   5   19.04    0.89
  -5   4  -5    4.02    0.35
   5  -4   5    3.97    0.63
   5  -4   5    3.92    0.88
  -6   4  -5    4.19    0.40
   6  -4   5    4.45    0.72
   6  -4   5    6.10    1.05
  -7   4  -5    1.27    0.30
   7  -4   5    0.99    0.77
  -8   4  -5    0.16    0.29
   8  -4   5    0.92    0.77
  -9   4  -5   -0.73    0.30
   9  -4   5    0.78    0.84
 -10   4  -5   -0.71    0.34
  10  -4   5    0.43    0.89
  11   3  -5   -0.42    0.99
  10   3  -5   -0.06    0.90
   9   3  -5    1.51    0.97
  -9  -3   5    1.84    0.44
   8   3  -5    4.39    1.03
  -8  -3   5    6.05    0.47
   7   3  -5    0.01    0.75
   7   3  -5    0.16    0.33
  -7  -3   5    0.41    0.24
   6   3  -5    1.86    0.35
   6   3  -5    1.76    0.76
   5   3  -5    1.87    0.22
   5   3  -5    1.63    0.68
   5   3  -5    1.81    0.31
   4   3  -5    0.01    0.23
   4   3  -5   -0.29    0.49
   4   3  -5    0.07    0.13
   3   3  -5    0.88    0.23
   3   3  -5    1.21    0.49
   3   3  -5    0.86    0.13
   2   3  -5   22.36    0.66
   2   3  -5   21.48    0.50
   1   3  -5   12.84    0.48
   0   3  -5   29.40    0.66
   0   3  -5   31.41    0.80
  -1   3  -5   11.55    0.31
  -1   3  -5   11.92    0.43
  -2   3  -5   11.81    0.34
  -2   3  -5   11.75    0.42
   2  -3   5   12.09    0.70
   2  -3   5   11.87    0.92
  -3   3  -5    1.46    0.18
  -3   3  -5    1.36    0.16
   3  -3   5    1.33    0.50
   3  -3   5    1.99    0.70
  -4   3  -5    3.93    0.28
   4  -3   5    3.53    0.57
   4  -3   5    3.83    0.78
  -5   3  -5   10.97    0.44
   5  -3   5   10.46    1.05
   5  -3   5    9.54    0.76
  -6   3  -5    0.10    0.22
   6  -3   5    0.30    0.53
   6  -3   5    0.46    0.73
  -7   3  -5    1.75    0.31
   7  -3   5    1.52    0.79
  -8   3  -5   -0.12    0.28
   8  -3   5    0.26    0.74
  -9   3  -5   -0.31    0.31
   9  -3   5    0.61    0.80
 -10   3  -5   -0.21    0.34
  10  -3   5    0.30    0.88
 -11   3  -5   -1.00    0.44
  11  -3   5    0.27    0.99
  11   2  -5   -0.01    0.99
  10   2  -5    0.18    0.88
   9   2  -5    0.89    0.87
  -9  -2   5    1.36    0.39
   8   2  -5    0.20    0.80
  -8  -2   5   -0.20    0.26
   7   2  -5    0.73    0.73
   7   2  -5    0.66    0.32
  -7  -2   5    1.01    0.25
   6   2  -5    0.97    0.29
   6   2  -5    0.16    0.66
  -6  -2   5    0.88    0.20
   5   2  -5    2.17    0.30
   5   2  -5    2.99    0.70
  -5  -2   5    2.17    0.20
   4   2  -5   36.84    0.96
   4   2  -5   35.70    1.35
   3   2  -5    7.80    0.43
   3   2  -5    8.19    0.68
   2   2  -5   16.76    0.82
   2   2  -5   16.43    0.55
   1   2  -5    6.06    0.35
   0   2  -5   16.54    0.51
  -1   2  -5    9.64    0.26
  -1   2  -5   10.08    0.38
  -2   2  -5   -0.03    0.09
  -2   2  -5   -0.19    0.14
   2  -2   5    0.16    0.39
   2  -2   5    0.35    0.54
  -3   2  -5    4.13    0.24
  -3   2  -5    3.95    0.28
   3  -2   5    5.95    0.84
   3  -2   5    5.77    0.61
  -4   2  -5    0.32    0.16
   4  -2   5    0.60    0.62
   4  -2   5    0.78    0.47
  -5   2  -5   -0.04    0.17
   5  -2   5   -0.52    0.64
   5  -2   5   -0.15    0.49
  -6   2  -5    7.18    0.41
   6  -2   5    6.98    0.74
   6  -2   5    7.43    1.07
  -7   2  -5   -0.14    0.23
   7  -2   5   -0.16    0.71
  -8   2  -5    0.39    0.27
   8  -2   5    0.92    0.75
  -9   2  -5    1.25    0.37
   9  -2   5    1.13    0.84
 -10   2  -5   -0.11    0.35
  10  -2   5    0.82    0.93
 -11   2  -5    0.56    0.44
  11  -2   5    1.37    0.98
  11   1  -5   -0.23    0.89
  10   1  -5    0.48    0.91
   9   1  -5    0.35    0.80
  -9  -1   5    0.10    0.30
   8   1  -5    0.84    0.83
  -8  -1   5    0.54    0.25
   7   1  -5   -0.44    0.65
   7   1  -5    0.38    0.29
  -7  -1   5    0.37    0.20
   6   1  -5   -0.05    0.59
   6   1  -5   -0.01    0.25
  -6  -1   5    0.13    0.16
   5   1  -5    8.96    0.46
   5   1  -5    8.48    0.82
  -5  -1   5    8.06    0.31
   4   1  -5    1.67    0.56
   4   1  -5    0.82    0.25
  -4  -1   5    0.85    0.12
   3   1  -5   69.97    1.97
   3   1  -5   70.31    1.60
   2   1  -5    1.78    0.46
   2   1  -5    1.01    0.21
   1   1  -5    0.44    0.17
   0   1  -5    3.24    0.28
  -1   1  -5    0.68    0.09
  -1   1  -5    0.72    0.18
  -2   1  -5   19.91    0.49
  -2   1  -5   20.19    0.60
   2  -1   5   19.91    0.98
   2  -1   5   19.72    0.74
  -3   1  -5    9.32    0.33
  -3   1  -5    9.09    0.41
   3  -1   5    8.85    0.89
   3  -1   5    9.53    0.66
  -4   1  -5   17.84    0.57
  -4   1  -5   17.87    0.54
   4  -1   5   18.42    1.11
   4  -1   5   18.26    0.83
  -5   1  -5    3.16    0.27
   5  -1   5    3.02    0.56
   5  -1   5    3.32    0.80
  -6   1  -5   -0.41    0.20
   6  -1   5   -0.48    0.48
   6  -1   5   -0.15    0.70
  -7   1  -5    4.15    0.43
   7  -1   5    5.06    0.94
  -8   1  -5    0.18    0.27
   8  -1   5    0.42    0.71
  -9   1  -5    0.37    0.32
   9  -1   5    0.52    0.81
 -10   1  -5    0.85    0.37
  10  -1   5    1.56    0.95
 -11   1  -5    0.01    0.46
  11  -1   5    0.47    0.91
  11   0  -5   -0.22    0.88
  10   0  -5    0.42    0.84
   9   0  -5    0.59    0.81
  -9   0   5    0.65    0.31
   8   0  -5    0.10    0.72
  -8   0   5   -0.09    0.23
   7   0  -5    0.60    0.70
  -7   0   5    0.64    0.21
   6   0  -5   -0.19    0.58
   6   0  -5    0.13    0.25
  -6   0   5    0.16    0.16
   5   0  -5    0.51    0.54
   5   0  -5   -0.02    0.22
  -5   0   5   -0.14    0.12
   4   0  -5   34.31    1.31
   4   0  -5   36.07    0.92
  -4   0   5   34.91    0.78
   3   0  -5    1.17    0.47
   2   0  -5   37.21    1.23
   2   0  -5   36.69    0.94
   1   0  -5   31.69    0.84
   0   0  -5    5.12    0.35
  -1   0  -5    1.26    0.22
   1   0   5    1.52    0.11
  -2   0  -5    7.84    0.42
   2   0   5    9.44    0.77
   2   0   5    7.82    0.28
  -3   0  -5   17.71    0.61
   3   0   5   17.92    0.49
   3   0   5   17.02    1.03
   3   0   5   17.23    0.78
  -4   0  -5    3.53    0.39
   4   0   5    3.78    0.58
   4   0   5    5.18    0.80
  -5   0  -5    0.73    0.22
  -5   0  -5    0.76    0.25
   5   0   5    0.75    0.49
   5   0   5   -0.45    0.62
  -6   0  -5   11.64    0.51
   6   0   5   11.62    1.09
   6   0   5   11.65    0.79
  -7   0  -5    1.06    0.29
   7   0   5    1.24    0.73
  -8   0  -5    0.54    0.31
   8   0   5    0.52    0.71
  -9   0  -5    1.47    0.37
   9   0   5    0.97    0.81
 -10   0  -5   -0.15    0.34
  10   0   5    1.16    0.87
  11   0   5    1.33    0.93
  11  -1  -5   -0.25    0.89
  10  -1  -5    0.51    0.90
   9  -1  -5    0.03    0.80
  -9   1   5   -0.08    0.29
   8  -1  -5    3.52    0.94
  -8   1   5    4.81    0.41
   7  -1  -5   -0.08    0.68
  -7   1   5   -0.02    0.20
   6  -1  -5   -0.12    0.58
   6  -1  -5   -0.01    0.24
  -6   1   5    0.09    0.17
   5  -1  -5    5.85    0.80
   5  -1  -5    5.50    0.40
  -5   1   5    5.07    0.27
   4  -1  -5    8.27    0.73
   4  -1  -5    8.96    0.43
  -4   1   5    8.35    0.30
   3  -1  -5   20.74    1.00
   3  -1  -5   21.91    0.68
  -3   1   5   22.57    0.52
   2  -1  -5   51.89    1.27
   2  -1  -5   52.47    1.54
   1  -1  -5   14.92    0.56
   0  -1  -5   28.38    0.80
   0   1   5   26.12    0.60
  -1  -1  -5    0.05    0.21
   1   1   5    0.20    0.10
  -2  -1  -5    1.25    0.26
   2   1   5    1.47    0.16
  -3  -1  -5    8.71    0.50
   3   1   5    7.61    0.62
   3   1   5    8.34    0.87
   3   1   5    8.53    0.34
  -4  -1  -5    4.69    0.47
   4   1   5    4.44    0.57
   4   1   5    5.45    0.81
   4   1   5    4.68    0.31
  -5  -1  -5    7.59    0.54
   5   1   5    7.65    0.42
   5   1   5    6.77    0.64
   5   1   5    7.06    0.92
  -6  -1  -5    5.45    0.60
   6   1   5    5.24    0.90
   6   1   5    5.39    0.66
  -7  -1  -5    2.76    0.34
   7   1   5    2.73    0.76
  -8  -1  -5    1.56    0.33
   8   1   5    2.42    0.81
  -9  -1  -5    0.19    0.32
   9   1   5    0.78    0.77
 -10  -1  -5    0.61    0.40
  10   1   5    2.54    0.92
  11  -2  -5    0.60    1.19
  10  -2  -5   -0.06    0.92
   9  -2  -5    2.30    0.95
  -9   2   5    2.88    0.37
   8  -2  -5    5.38    1.09
  -8   2   5    6.83    0.44
   7  -2  -5    0.24    0.72
  -7   2   5    0.08    0.21
   6  -2  -5   -0.21    0.61
   6  -2  -5   -0.04    0.24
  -6   2   5   -0.16    0.18
   5  -2  -5    0.19    0.23
   5  -2  -5   -0.10    0.57
  -5   2   5    0.30    0.17
   4  -2  -5   12.29    0.86
   4  -2  -5   12.04    0.53
  -4   2   5   12.16    0.38
   3  -2  -5    5.57    0.64
   3  -2  -5    5.84    0.43
  -3   2   5    5.97    0.26
   2  -2  -5    2.24    0.29
   2  -2  -5    2.97    0.54
  -2   2   5    1.86    0.18
   1  -2  -5    0.11    0.24
   1  -2  -5    0.69    0.39
  -1   2   5    0.70    0.12
   0  -2  -5   -0.37    0.22
   0   2   5   -0.02    0.10
  -1  -2  -5   25.22    0.82
   1   2   5   24.96    0.60
  -2  -2  -5   23.22    0.81
   2   2   5   24.38    0.61
  -3  -2  -5   -0.08    0.28
   3   2   5   -0.22    0.15
   3   2   5    0.00    0.40
   3   2   5   -0.31    0.55
  -4  -2  -5    1.11    0.34
   4   2   5    0.62    0.58
   4   2   5    0.99    0.42
   4   2   5    1.19    0.22
  -5  -2  -5    5.36    0.59
   5   2   5    6.37    0.85
   5   2   5    5.83    0.41
   5   2   5    5.86    0.59
  -6  -2  -5    1.60    0.38
   6   2   5    1.42    0.29
   6   2   5    2.31    0.69
   7   2   5    4.19    0.80
   7   2   5    2.64    0.36
   8   2   5    1.68    0.94
  -9  -2  -5    3.11    0.40
 -10  -2  -5    0.76    0.38
  10  -3  -5    0.35    0.95
   9  -3  -5    2.16    1.02
  -9   3   5    2.24    0.38
   8  -3  -5    0.36    0.85
  -8   3   5   -0.36    0.27
   7  -3  -5    0.06    0.74
  -7   3   5   -0.29    0.23
   6  -3  -5   -0.41    0.63
   6  -3  -5    0.22    0.27
  -6   3   5    0.17    0.22
   5  -3  -5    9.46    0.91
   5  -3  -5    9.59    0.53
  -5   3   5   10.43    0.42
   4  -3  -5   -0.43    0.51
   4  -3  -5   -0.09    0.25
  -4   3   5   -0.06    0.17
   3  -3  -5    6.65    0.49
   3  -3  -5    6.89    0.68
  -3   3   5    6.64    0.30
   2  -3  -5    1.95    0.48
   2  -3  -5    1.61    0.31
  -2   3   5    1.91    0.17
   1  -3  -5    3.19    0.37
   1  -3  -5    3.93    0.50
  -1   3   5    3.36    0.23
   0  -3  -5   28.86    0.93
   0   3   5   28.67    0.69
  -1  -3  -5    8.27    0.59
   1   3   5    8.18    0.33
  -2  -3  -5    5.63    0.58
   2   3   5    5.92    0.32
  -3  -3  -5    6.04    0.62
   3   3   5    5.33    0.58
   3   3   5    7.37    0.85
   3   3   5    5.75    0.36
  -4  -3  -5    1.53    0.41
   4   3   5    2.46    0.28
   4   3   5    2.84    0.63
   4   3   5    2.89    0.45
  -5  -3  -5    1.87    0.42
   5   3   5    2.13    0.62
   5   3   5    1.77    0.29
   5   3   5    2.64    0.45
  -6  -3  -5    3.04    0.47
   6   3   5    3.11    0.37
   7   3   5    0.27    0.31
   8   3   5    1.17    0.39
 -10  -3  -5    0.85    0.41
  10  -4  -5   -0.23    0.99
   9  -4  -5    0.86    0.94
  -9   4   5    0.02    0.34
   8  -4  -5    2.88    1.04
  -8   4   5    2.06    0.37
   7  -4  -5    1.35    0.84
  -7   4   5    0.50    0.29
   6  -4  -5    0.90    0.72
  -6   4   5    0.83    0.27
   5  -4  -5    1.65    0.71
   5  -4  -5    1.69    0.34
  -5   4   5    1.97    0.27
   4  -4  -5    5.26    0.53
   4  -4  -5    5.99    0.84
  -4   4   5    5.05    0.35
   3  -4  -5    4.30    0.70
   3  -4  -5    3.83    0.53
  -3   4   5    4.48    0.31
   2  -4  -5    2.47    0.55
   2  -4  -5    1.31    0.36
  -2   4   5    2.04    0.21
   1  -4  -5    9.53    0.64
  -1   4   5   10.12    0.38
   0  -4  -5   16.15    0.79
   0   4   5   16.37    0.49
  -1  -4  -5   13.66    0.76
   1   4   5   12.92    0.45
  -2  -4  -5   24.01    0.92
   2   4   5   19.89    0.77
   2   4   5   22.55    0.62
   2   4   5   20.22    1.01
  -3  -4  -5    0.44    0.39
   3   4   5    0.46    0.21
  -4  -4  -5    0.38    0.41
   4   4   5    0.43    0.24
  -5  -4  -5    8.94    0.80
   5   4   5    9.17    0.53
  -6  -4  -5    0.47    0.44
   6   4   5    0.01    0.29
   7   4   5    0.30    0.35
   8   4   5    0.66    0.38
   9   4   5    0.46    0.42
  10  -5  -5    0.54    1.02
   9  -5  -5    0.28    0.96
  -9   5   5    0.52    0.45
   8  -5  -5    0.05    0.87
  -8   5   5   -0.24    0.34
   7  -5  -5    0.95    0.86
  -7   5   5   -0.42    0.32
   6  -5  -5    1.14    0.77
  -6   5   5    1.23    0.30
   5  -5  -5    2.40    0.40
   5  -5  -5    2.87    0.80
  -5   5   5    2.37    0.31
   4  -5  -5   10.71    0.69
   4  -5  -5   11.01    0.91
  -4   5   5   10.57    0.46
   3  -5  -5   -0.18    0.54
   3  -5  -5   -0.12    0.35
  -3   5   5   -0.12    0.21
   2  -5  -5    9.89    0.74
   2  -5  -5    8.67    0.71
  -2   5   5   10.25    0.43
   1  -5  -5    9.60    0.76
  -1   5   5   11.28    0.44
   0  -5  -5    1.87    0.47
   0   5   5    2.12    0.25
  -1  -5  -5    6.50    0.72
   1   5   5    7.43    0.40
  -2  -5  -5    1.04    0.42
   2   5   5    0.99    0.24
  -3  -5  -5    0.27    0.43
   3   5   5   -0.03    0.23
  -4  -5  -5    5.68    0.77
   4   5   5    4.41    0.47
  -5  -5  -5    0.36    0.46
   5   5   5    0.09    0.28
  -6  -5  -5    2.80    0.57
   6   5   5    2.97    0.40
  -7  -5  -5    1.15    0.52
   7   5   5    0.20    0.35
   8   5   5    0.57    0.41
   9   5   5    0.87    0.47
   9  -6  -5    0.38    1.00
  -9   6   5   -0.47    0.52
   8  -6  -5    4.06    1.11
  -8   6   5    3.81    0.46
   7  -6  -5   -0.37    0.81
  -7   6   5    0.33    0.34
   6  -6  -5    1.22    0.82
  -6   6   5    1.53    0.34
   5  -6  -5    1.12    0.41
   5  -6  -5    1.80    0.78
  -5   6   5    0.84    0.29
   4  -6  -5   -0.08    0.61
   4  -6  -5    0.06    0.39
  -4   6   5   -0.15    0.25
   3  -6  -5    2.29    0.68
   3  -6  -5    1.45    0.45
  -3   6   5    1.99    0.29
   2  -6  -5   10.39    0.82
  -2   6   5   10.80    0.48
   1  -6  -5    6.11    0.80
  -1   6   5    7.32    0.43
   0  -6  -5   -0.04    0.43
   0   6   5   -0.03    0.22
  -1  -6  -5    2.45    0.51
   1   6   5    2.79    0.31
  -2  -6  -5   25.74    1.11
   2   6   5   27.09    0.80
  -3  -6  -5   -0.01    0.47
   3   6   5   -0.31    0.24
  -4  -6  -5    0.46    0.50
   4   6   5    0.07    0.28
  -5  -6  -5    3.79    0.62
   5   6   5    3.59    0.43
  -6  -6  -5    1.14    0.55
   6   6   5    0.65    0.36
  -7  -6  -5    2.30    0.61
   7   6   5    2.52    0.45
   8   6   5    0.60    0.43
   9  -7  -5    1.18    1.07
   8  -7  -5    0.05    0.93
  -8   7   5   -0.16    0.39
   7  -7  -5    1.33    0.95
  -7   7   5    0.53    0.38
   6  -7  -5   -0.48    0.78
  -6   7   5   -0.11    0.33
  -5   7   5    0.92    0.33
   4  -7  -5    6.16    0.74
  -4   7   5    4.87    0.47
   3  -7  -5    1.10    0.48
  -3   7   5    1.16    0.30
   2  -7  -5    0.03    0.48
  -2   7   5    0.08    0.26
   1  -7  -5   -0.04    0.51
  -1   7   5    0.12    0.26
   0  -7  -5    3.78    0.63
   0   7   5    5.22    0.43
  -1  -7  -5   17.16    1.03
   1   7   5   17.60    0.65
  -2  -7  -5    1.11    0.53
   2   7   5    0.28    0.29
  -3  -7  -5    1.08    0.57
   3   7   5    1.07    0.31
  -4  -7  -5    2.66    0.64
   4   7   5    2.41    0.39
  -5  -7  -5    1.18    0.60
   5   7   5    0.41    0.36
  -6  -7  -5    2.27    0.65
   6   7   5    2.26    0.44
  -7  -7  -5    1.20    0.62
   7   7   5    0.93    0.41
  -8   8   5   -0.40    0.42
  -7   8   5   -0.06    0.39
  -6   8   5    0.76    0.38
  -5   8   5    1.33    0.37
   4  -8  -5    0.68    0.48
  -4   8   5   -0.18    0.31
   3  -8  -5    7.48    0.88
  -3   8   5    7.22    0.55
   2  -8  -5    0.87    0.58
  -2   8   5    0.85    0.32
   1  -8  -5    0.24    0.56
  -1   8   5   -0.41    0.29
   0  -8  -5    1.98    0.62
   0   8   5    2.50    0.35
  -1  -8  -5    4.86    0.72
   1   8   5    4.36    0.42
  -2  -8  -5    2.58    0.65
   2   8   5    2.75    0.38
  -3  -8  -5    3.46    0.71
   3   8   5    3.27    0.40
  -4  -8  -5    0.15    0.62
   4   8   5    0.19    0.33
  -5  -8  -5    2.41    0.70
   5   8   5    1.54    0.43
  -6  -8  -5    0.86    0.67
   6   8   5    0.46    0.40
  -7  -8  -5    1.13    0.68
  -7   9   5    0.34    0.43
  -6   9   5    1.94    0.44
  -5   9   5   -0.09    0.37
   4  -9  -5    6.98    0.88
  -4   9   5    4.14    0.46
   3  -9  -5    2.34    0.61
  -3   9   5    2.10    0.39
   2  -9  -5    3.47    0.70
  -2   9   5    2.26    0.39
   1  -9  -5    0.94    0.64
  -1   9   5    1.20    0.35
   0  -9  -5    0.60    0.62
   0   9   5    0.32    0.31
  -1  -9  -5    1.34    0.67
   1   9   5    0.69    0.34
  -2  -9  -5    4.18    0.76
   2   9   5    3.30    0.43
  -3  -9  -5    0.50    0.68
   3   9   5    0.44    0.34
  -4  -9  -5    1.29    0.72
   4   9   5    0.82    0.38
  -5  -9  -5    1.29    0.74
   5   9   5    0.31    0.42
  -6  10   5    0.03    0.41
  -5  10   5    0.29    0.42
  -4  10   5    1.64    0.43
   3 -10  -5    1.33    0.63
  -3  10   5    0.36    0.38
   2 -10  -5    2.64    0.70
  -2  10   5    1.47    0.41
   1 -10  -5    1.13    0.67
  -1  10   5    0.21    0.35
   0 -10  -5    2.87    0.75
   0  10   5    1.91    0.39
  -1 -10  -5    1.95    0.75
   1  10   5    1.11    0.39
  -2 -10  -5    1.36    0.75
   2  10   5    0.44    0.36
  -3 -10  -5    3.59    0.83
   3  10   5    2.44    0.44
   3 -11  -5    2.69    0.72
  -3  11   5    1.54    0.44
   2 -11  -5    1.66    0.71
  -2  11   5    0.59    0.41
   1 -11  -5    1.25    0.73
  -1  11   5    0.04    0.38
   0  11   5    0.42    0.38
   1  11   5    1.39    0.47
   2  13  -6    1.40    0.46
   1  13  -6    1.37    0.42
   0  13  -6    0.44    0.40
   0 -13   6   -0.45    0.71
  -1  13  -6    1.32    0.43
   1 -13   6   -0.57    0.69
  -2  13  -6    0.73    0.40
   3  12  -6    0.60    0.42
  -3 -12   6    0.36    0.75
   2  12  -6    0.35    0.37
  -2 -12   6    0.09    0.68
   1  12  -6    0.92    0.38
  -1 -12   6    0.21    0.64
   0  12  -6    1.91    0.41
   0 -12   6    0.99    0.63
  -1  12  -6    1.57    0.40
   1 -12   6    0.85    0.62
  -2  12  -6    0.43    0.38
  -3  12  -6    0.22    0.38
  -4  12  -6    0.23    0.37
  -5  12  -6    0.98    0.42
  -5 -11   6    0.37    0.76
   4  11  -6   -0.99    0.65
  -4 -11   6    1.63    0.72
   3  11  -6    0.85    0.36
   3  11  -6   -1.44    0.61
  -3 -11   6    1.52    0.68
   2  11  -6    0.45    0.33
   2  11  -6   -1.55    0.58
  -2 -11   6    0.28    0.59
   1  11  -6   -0.71    0.58
   1  11  -6    0.21    0.34
  -1 -11   6    0.64    0.56
   0  11  -6    0.69    0.33
   0  11  -6   -0.81    0.56
   0 -11   6    1.08    0.56
  -1  11  -6   -1.26    0.55
  -1  11  -6    0.76    0.34
   1 -11   6    0.21    0.53
  -2  11  -6    2.23    0.39
   2 -11   6    1.57    0.56
  -3  11  -6   -0.14    0.32
  -4  11  -6    0.25    0.34
  -5  11  -6   -0.04    0.35
  -6  11  -6    0.17    0.40
   6  10  -6   -1.56    0.63
  -6 -10   6    0.61    0.69
   5  10  -6   -0.10    0.62
  -5 -10   6    1.80    0.68
   4  10  -6   -0.31    0.58
   4  10  -6    0.92    0.36
  -4 -10   6    1.51    0.63
   3  10  -6    0.38    0.30
   3  10  -6   -0.92    0.54
  -3 -10   6    0.05    0.56
   2  10  -6    0.33    0.29
   2  10  -6   -0.85    0.52
  -2 -10   6   -0.07    0.51
   1  10  -6    0.27    0.30
   1  10  -6   -1.06    0.49
  -1 -10   6    0.54    0.48
   0  10  -6    0.95    0.52
   0  10  -6    2.30    0.34
   0 -10   6    2.32    0.52
  -1  10  -6    0.39    0.49
  -1  10  -6    1.36    0.33
   1 -10   6    1.40    0.48
  -2  10  -6   -0.11    0.47
  -2  10  -6    0.67    0.31
   2 -10   6    0.88    0.46
  -3  10  -6    0.79    0.31
  -4  10  -6    0.35    0.33
  -5  10  -6    0.96    0.37
  -6  10  -6    1.26    0.40
   6 -10   6    3.43    0.97
  -7  10  -6   -0.08    0.40
   7 -10   6    3.04    0.99
   8 -10   6    1.76    1.02
  -8  -9   6    0.61    0.70
   7   9  -6   -1.47    0.60
  -7  -9   6    0.28    0.64
   6   9  -6   -0.35    0.58
  -6  -9   6    2.24    0.66
   5   9  -6   -0.10    0.55
  -5  -9   6    1.90    0.61
   4   9  -6    0.91    0.29
   4   9  -6   -0.24    0.52
  -4  -9   6    0.79    0.56
   3   9  -6    0.20    0.26
   3   9  -6   -0.22    0.51
  -3  -9   6    0.58    0.51
   2   9  -6    4.56    0.57
   2   9  -6    5.18    0.42
   1   9  -6    8.73    0.49
   1   9  -6    8.08    0.75
   0   9  -6    6.55    0.45
   0   9  -6    5.62    0.71
  -1   9  -6    0.60    0.27
  -1   9  -6   -0.07    0.42
   1  -9   6    1.21    0.43
  -2   9  -6    3.33    0.35
  -2   9  -6    2.44    0.47
   2  -9   6    3.37    0.48
   2  -9   6    4.67    0.97
   2  -9   6    3.38    1.14
  -3   9  -6   -0.06    0.27
  -3   9  -6   -0.55    0.42
   3  -9   6    1.02    0.58
   3  -9   6    0.69    0.71
  -4   9  -6    3.15    0.38
   4  -9   6    4.19    0.90
  -5   9  -6    2.89    0.40
   5  -9   6    6.33    1.10
  -6   9  -6    0.06    0.35
   6  -9   6    1.54    0.94
   7  -9   6    2.40    0.94
  -8   9  -6   -0.08    0.41
   8  -9   6    2.03    1.03
  -9  -8   6    0.07    0.70
  -8  -8   6    0.54    0.63
   7   8  -6   -0.63    0.55
  -7  -8   6    1.78    0.62
   6   8  -6   -0.31    0.53
  -6  -8   6    1.42    0.58
   5   8  -6    0.37    0.52
   4   8  -6    7.81    0.76
   4   8  -6    8.82    0.46
   3   8  -6    1.43    0.26
   3   8  -6    1.07    0.44
   2   8  -6    1.86    0.26
   2   8  -6    2.04    0.44
   1   8  -6    6.85    0.64
   1   8  -6    7.36    0.42
   0   8  -6    0.07    0.23
   0   8  -6    0.21    0.36
   0  -8   6    0.39    0.68
   0  -8   6   -0.11    0.77
  -1   8  -6   11.12    0.66
  -1   8  -6   11.10    0.48
   1  -8   6   10.13    1.18
   1  -8   6   11.10    0.94
  -2   8  -6    0.50    0.37
  -2   8  -6    0.90    0.25
   2  -8   6    1.05    0.67
   2  -8   6    1.31    0.81
  -3   8  -6    1.12    0.39
  -3   8  -6    1.68    0.28
   3  -8   6    2.55    0.86
   3  -8   6    2.71    0.70
  -4   8  -6    0.42    0.28
   4  -8   6    1.40    0.77
   4  -8   6    1.38    0.65
  -5   8  -6    0.96    0.32
   5  -8   6    1.41    0.80
   5  -8   6    1.32    0.70
  -6   8  -6    2.41    0.38
   6  -8   6    5.08    1.09
  -7   8  -6   -0.03    0.35
   7  -8   6    1.47    0.91
  -8   8  -6    0.00    0.38
   8  -8   6    1.99    0.99
  -9   8  -6    0.26    0.42
   9  -8   6    1.98    1.08
   8   7  -6   -1.22    0.54
  -8  -7   6    1.15    0.58
   7   7  -6   -0.55    0.50
   6   7  -6   -0.17    0.48
   5   7  -6    2.74    0.50
   5   7  -6    2.43    0.40
   4   7  -6    0.96    0.24
   4   7  -6    1.35    0.44
   3   7  -6    9.35    0.65
   3   7  -6    9.13    0.41
   2   7  -6    1.44    0.21
   2   7  -6    1.38    0.38
   1   7  -6    0.58    0.20
   1   7  -6    0.77    0.33
   0   7  -6    6.94    0.37
   0   7  -6    7.08    0.54
   0  -7   6    7.14    0.76
   0  -7   6    8.08    0.99
  -1   7  -6    0.95    0.31
  -1   7  -6    1.11    0.22
   1  -7   6    1.40    0.81
   1  -7   6    1.91    0.69
  -2   7  -6    2.29    0.35
  -2   7  -6    2.08    0.25
   2  -7   6    2.88    0.91
   2  -7   6    3.62    0.74
  -3   7  -6    2.39    0.28
  -3   7  -6    2.18    0.34
   3  -7   6    3.37    0.73
   3  -7   6    2.93    0.88
  -4   7  -6    0.06    0.24
   4  -7   6    0.22    0.63
   4  -7   6    0.28    0.75
  -5   7  -6    1.38    0.33
   5  -7   6    1.74    0.84
   5  -7   6    2.53    0.71
  -6   7  -6    0.02    0.29
   6  -7   6    0.47    0.92
  -7   7  -6    2.49    0.39
   7  -7   6    4.18    1.07
  -8   7  -6    0.11    0.35
   8  -7   6    1.30    0.95
  -9   7  -6   -0.31    0.40
   9  -7   6    1.23    1.02
   8   6  -6   -0.73    0.50
   7   6  -6    0.44    0.47
   6   6  -6   -0.48    0.41
   5   6  -6    0.11    0.27
   5   6  -6    0.26    0.38
   4   6  -6    9.63    0.63
   4   6  -6    9.24    0.42
   3   6  -6    0.25    0.17
   3   6  -6    0.12    0.33
   2   6  -6    2.44    0.36
   2   6  -6    2.42    0.26
   1   6  -6   16.39    0.48
   1   6  -6   16.48    0.68
   0   6  -6    1.03    0.18
   0   6  -6    0.78    0.30
  -1   6  -6    1.96    0.32
  -1   6  -6    2.07    0.21
   1  -6   6    3.10    0.65
   1  -6   6    2.53    0.80
  -2   6  -6    1.37    0.29
  -2   6  -6    1.51    0.21
   2  -6   6    2.44    0.69
   2  -6   6    1.56    0.81
  -3   6  -6    0.47    0.20
  -3   6  -6    0.03    0.24
   3  -6   6    0.37    0.60
   3  -6   6   -0.41    0.72
  -4   6  -6    2.48    0.29
   4  -6   6    3.12    0.69
   4  -6   6    3.10    0.89
  -5   6  -6   -0.24    0.24
   5  -6   6   -0.32    0.73
   5  -6   6   -0.29    0.62
  -6   6  -6   25.71    0.79
   6  -6   6   23.19    1.48
  -7   6  -6    0.54    0.30
   7  -6   6    0.81    0.91
  -8   6  -6   -0.22    0.32
   8  -6   6    0.40    0.85
  -9   6  -6    0.41    0.37
   9  -6   6    1.20    0.96
 -10   6  -6   -0.21    0.41
  10  -6   6    0.50    1.29
   8   5  -6    0.18    1.02
   8   5  -6    0.11    0.46
   7   5  -6    0.35    0.43
   7   5  -6    0.95    0.88
   6   5  -6    0.56    0.39
   6   5  -6    0.63    0.81
   5   5  -6    1.88    0.40
   5   5  -6    2.37    0.78
   5   5  -6    1.44    0.30
   4   5  -6    4.60    0.32
   4   5  -6    4.48    0.52
   3   5  -6    4.57    0.27
   3   5  -6    5.31    0.50
   2   5  -6    7.53    0.50
   2   5  -6    7.21    0.28
   1   5  -6    9.45    0.33
   1   5  -6   10.49    0.53
   0   5  -6   24.04    0.59
   0   5  -6   23.93    0.75
  -1   5  -6    3.01    0.24
  -1   5  -6    2.41    0.29
   1  -5   6    4.77    0.79
  -2   5  -6    0.00    0.21
  -2   5  -6   -0.14    0.14
   2  -5   6    0.27    0.58
   2  -5   6    0.47    0.72
  -3   5  -6    1.65    0.24
  -3   5  -6    1.75    0.21
   3  -5   6    1.89    0.63
   3  -5   6    0.88    0.77
  -4   5  -6    0.33    0.22
  -4   5  -6    0.49    0.20
   4  -5   6    0.18    0.58
   4  -5   6    0.31    0.72
  -5   5  -6   24.51    0.72
   5  -5   6   25.43    1.12
   5  -5   6   24.96    1.47
  -6   5  -6   34.18    0.94
   6  -5   6   32.54    1.69
   6  -5   6   34.66    1.33
  -7   5  -6    0.51    0.32
   7  -5   6    0.08    0.80
  -8   5  -6   -0.70    0.32
   8  -5   6    0.47    0.81
  -9   5  -6   -0.66    0.37
   9  -5   6    0.45    0.91
 -10   5  -6   -0.23    0.43
  10  -5   6    0.33    0.96
  10   4  -6   -0.27    0.99
   9   4  -6   -0.33    0.93
   8   4  -6    0.31    0.42
   8   4  -6    0.16    0.90
   7   4  -6    1.10    0.41
   7   4  -6    1.06    0.88
   6   4  -6    2.40    0.87
   6   4  -6    2.15    0.41
   5   4  -6    0.82    0.34
   5   4  -6    0.09    0.23
   5   4  -6    0.76    0.70
   4   4  -6    3.57    0.28
   4   4  -6    3.29    0.72
   4   4  -6    3.58    0.47
   3   4  -6    1.10    0.28
   3   4  -6    0.98    0.15
   2   4  -6    0.39    0.25
   2   4  -6    0.33    0.11
   1   4  -6   31.56    0.72
   1   4  -6   33.62    0.91
   0   4  -6   16.39    0.42
   0   4  -6   17.27    0.59
  -1   4  -6   10.43    0.32
  -1   4  -6    9.80    0.45
  -2   4  -6   17.61    0.56
  -2   4  -6   17.52    0.46
   2  -4   6   16.26    0.88
   2  -4   6   15.70    1.12
  -3   4  -6    1.09    0.21
  -3   4  -6    1.05    0.16
   3  -4   6    0.76    0.73
   3  -4   6    0.98    0.57
  -4   4  -6    4.72    0.33
  -4   4  -6    3.71    0.33
   4  -4   6    4.74    0.90
   4  -4   6    5.40    0.68
  -5   4  -6   18.98    0.60
   5  -4   6   17.38    0.95
   5  -4   6   16.96    1.27
  -6   4  -6    0.09    0.24
   6  -4   6   -0.27    0.58
   6  -4   6    0.86    0.80
  -7   4  -6    0.41    0.27
   7  -4   6    0.76    0.81
  -8   4  -6   -0.64    0.30
   8  -4   6   -0.27    0.76
  -9   4  -6   -0.70    0.33
   9  -4   6    0.95    0.86
 -10   4  -6   -0.66    0.38
  10  -4   6    1.32    0.92
  11   3  -6   -0.50    0.99
  10   3  -6   -0.04    0.93
   9   3  -6   -1.07    0.85
   8   3  -6    1.22    0.91
   7   3  -6    0.39    0.37
   7   3  -6    0.45    0.83
   6   3  -6    1.56    0.80
   6   3  -6    1.04    0.35
  -6  -3   6    1.89    0.38
   5   3  -6    4.58    0.48
   5   3  -6    5.16    0.85
   4   3  -6    9.27    0.52
   4   3  -6    9.02    0.33
   4   3  -6    9.71    0.84
   3   3  -6    1.41    0.56
   3   3  -6    0.67    0.25
   2   3  -6   29.87    0.85
   1   3  -6    0.66    0.22
   0   3  -6    7.49    0.41
  -1   3  -6    5.04    0.36
  -1   3  -6    5.21    0.21
  -2   3  -6   -0.10    0.18
  -2   3  -6   -0.10    0.10
   2  -3   6   -0.53    0.64
  -3   3  -6    0.84    0.19
  -3   3  -6    1.08    0.16
   3  -3   6    1.61    0.74
   3  -3   6    1.48    0.56
  -4   3  -6    3.73    0.29
  -4   3  -6    3.28    0.31
   4  -3   6    4.56    0.88
   4  -3   6    4.04    0.65
  -5   3  -6   -0.18    0.19
   5  -3   6   -0.11    0.69
   5  -3   6   -0.57    0.48
  -6   3  -6    5.10    0.44
   6  -3   6    6.40    0.78
   6  -3   6    5.95    1.06
  -7   3  -6   -0.41    0.25
   7  -3   6    0.13    0.77
   7  -3   6   -0.14    0.56
  -8   3  -6    0.43    0.34
   8  -3   6    0.75    0.80
  -9   3  -6   -0.03    0.37
   9  -3   6    1.13    0.84
 -10   3  -6   -0.31    0.36
  10  -3   6    0.85    0.89
  11   2  -6    1.31    1.09
  10   2  -6    0.17    0.96
   9   2  -6    0.76    0.86
   8   2  -6    1.04    0.85
   7   2  -6   -0.32    0.75
   7   2  -6   -0.61    0.32
   6   2  -6    0.39    0.70
   6   2  -6    0.09    0.30
  -6  -2   6    0.63    0.27
   5   2  -6    7.40    0.86
   5   2  -6    7.90    0.49
  -5  -2   6    7.56    0.32
   4   2  -6    3.19    0.34
   4   2  -6    3.52    0.70
  -4  -2   6    2.57    0.19
   3   2  -6    4.36    0.69
   3   2  -6    4.56    0.40
   2   2  -6   -0.23    0.20
   1   2  -6    8.57    0.42
   0   2  -6   10.55    0.45
  -1   2  -6    1.17    0.10
  -1   2  -6    1.31    0.22
  -2   2  -6   35.13    0.92
  -2   2  -6   35.06    0.80
   2  -2   6   35.73    1.10
   2  -2   6   36.84    1.39
  -3   2  -6    0.72    0.19
  -3   2  -6    1.03    0.15
   3  -2   6    1.31    0.54
   3  -2   6    0.54    0.71
  -4   2  -6    8.40    0.40
  -4   2  -6    9.34    0.37
   4  -2   6    8.44    0.75
   4  -2   6    8.77    1.02
  -5   2  -6    9.34    0.42
   5  -2   6    8.89    0.78
   5  -2   6    8.84    1.09
  -6   2  -6   -0.14    0.23
   6  -2   6   -0.21    0.77
   6  -2   6    0.07    0.58
  -7   2  -6    0.74    0.27
   7  -2   6    1.51    0.87
   7  -2   6    1.89    0.63
  -8   2  -6   -0.04    0.29
   8  -2   6    0.65    0.78
  -9   2  -6   -0.23    0.34
   9  -2   6    0.84    0.84
 -10   2  -6    0.36    0.38
  10  -2   6    2.01    0.96
  11  -2   6    0.22    1.18
  11   1  -6   -0.23    0.96
   9   1  -6    0.51    0.83
   8   1  -6    1.82    0.86
   7   1  -6   -0.58    0.67
   6   1  -6    1.08    0.72
   6   1  -6    0.94    0.32
  -6  -1   6    0.89    0.25
   5   1  -6    0.36    0.28
   5   1  -6    0.96    0.63
  -5  -1   6    0.69    0.15
   4   1  -6   15.49    0.97
   4   1  -6   16.94    0.62
   3   1  -6    0.91    0.24
   3   1  -6    1.34    0.54
   2   1  -6   13.39    0.79
   2   1  -6   14.66    0.55
   1   1  -6    5.72    0.38
   0   1  -6    0.79    0.22
  -1   1  -6   19.46    0.64
  -2   1  -6    0.82    0.14
  -2   1  -6    1.04    0.23
  -3   1  -6    4.41    0.38
  -3   1  -6    4.52    0.27
   3  -1   6    4.84    0.67
   3  -1   6    6.12    0.90
  -4   1  -6    5.64    0.42
  -4   1  -6    6.07    0.34
   4  -1   6    7.75    1.04
   4  -1   6    5.29    0.70
  -5   1  -6    0.35    0.21
  -5   1  -6    0.74    0.25
   5  -1   6    0.92    0.77
   5  -1   6    0.04    0.52
  -6   1  -6   14.78    0.58
   6  -1   6   13.48    1.22
   6  -1   6   13.92    0.89
  -7   1  -6    5.91    0.49
   7  -1   6    5.89    0.77
   7  -1   6    6.77    1.11
  -8   1  -6    0.11    0.30
   8  -1   6    0.92    0.77
  -9   1  -6    0.67    0.34
   9  -1   6    1.03    0.83
 -10   1  -6   -0.32    0.35
  10  -1   6    1.10    0.86
  11  -1   6    2.30    1.10
  11   0  -6   -0.03    1.09
  10   0  -6   -0.17    0.86
   9   0  -6    0.49    0.82
   8   0  -6    1.89    0.84
   7   0  -6    0.76    0.73
   7   0  -6    0.67    0.35
   6   0  -6    3.02    0.37
   6   0  -6    3.06    0.79
  -6   0   6    2.56    0.26
   5   0  -6    7.63    0.48
   5   0  -6    7.55    0.81
  -5   0   6    7.44    0.30
   4   0  -6    1.14    0.59
   4   0  -6    1.07    0.26
  -4   0   6    0.94    0.13
   3   0  -6    7.38    0.72
   3   0  -6    9.29    0.46
   2   0  -6   11.63    0.77
   2   0  -6   12.77    0.52
   1   0  -6    0.06    0.21
   0   0  -6   10.45    0.51
  -1   0  -6    1.10    0.26
   1   0   6    1.11    0.12
  -2   0  -6   35.41    0.99
   2   0   6   34.52    0.80
  -3   0  -6   -0.25    0.22
   3   0   6    0.34    0.47
   3   0   6    0.43    0.65
   3   0   6    0.05    0.14
  -4   0  -6    3.06    0.35
   4   0   6    3.62    0.86
   4   0   6    3.95    0.63
  -5   0  -6   15.68    0.67
  -5   0  -6   15.41    0.55
   5   0   6   14.17    1.21
   5   0   6   14.86    0.87
  -6   0  -6    5.95    0.44
   6   0   6    6.95    1.05
   6   0   6    5.98    0.74
  -7   0  -6    0.02    0.28
   7   0   6    0.28    0.74
  -8   0  -6    2.14    0.36
   8   0   6    2.96    0.87
  -9   0  -6    0.09    0.35
   9   0   6    1.36    0.81
 -10   0  -6    0.31    0.38
  10   0   6    1.54    0.93
  11   0   6    1.96    1.00
  10  -1  -6   -0.76    0.86
   9  -1  -6    2.00    0.99
   8  -1  -6    0.01    0.80
   7  -1  -6    6.70    1.01
   6  -1  -6    3.73    0.85
   6  -1  -6    4.54    0.45
  -6   1   6    4.02    0.31
   5  -1  -6    0.23    0.62
   5  -1  -6   -0.19    0.25
  -5   1   6    0.15    0.15
   4  -1  -6   26.92    1.23
   4  -1  -6   28.29    0.83
  -4   1   6   27.89    0.65
   3  -1  -6    0.11    0.23
   3  -1  -6   -0.19    0.48
  -3   1   6   -0.06    0.10
   2  -1  -6    4.16    0.62
   2  -1  -6    2.80    0.38
   1  -1  -6    9.31    0.51
   0  -1  -6    3.67    0.42
   0   1   6    3.48    0.18
  -1  -1  -6   35.66    1.03
   1   1   6   36.40    0.82
  -2  -1  -6    6.20    0.51
   2   1   6    6.98    0.30
  -3  -1  -6    1.23    0.33
   3   1   6    1.52    0.20
   3   1   6    1.73    0.52
   3   1   6    1.82    0.72
  -4  -1  -6    1.81    0.36
   4   1   6    1.67    0.23
   4   1   6    2.08    0.55
   4   1   6    1.56    0.75
  -5  -1  -6    2.08    0.37
   5   1   6    2.27    0.56
   5   1   6    1.89    0.78
   5   1   6    2.45    0.28
   6   1   6    2.04    0.80
   6   1   6    2.07    0.57
  -7  -1  -6    1.43    0.31
   7   1   6    1.59    0.75
  -8  -1  -6   -0.01    0.31
   8   1   6    0.50    0.71
  -9  -1  -6    2.14    0.40
   9   1   6    4.11    0.96
 -10  -1  -6    0.37    0.40
  10  -2  -6    0.34    0.99
   9  -2  -6   -0.48    0.85
   8  -2  -6    2.36    1.02
   7  -2  -6    7.94    1.09
   6  -2  -6   -0.12    0.69
   6  -2  -6    0.09    0.28
  -6   2   6   -0.11    0.20
   5  -2  -6    5.22    0.87
   5  -2  -6    4.82    0.45
  -5   2   6    6.01    0.32
   4  -2  -6    0.59    0.29
   4  -2  -6    0.01    0.58
  -4   2   6    0.70    0.17
   3  -2  -6   11.21    0.57
   3  -2  -6   10.50    0.82
  -3   2   6   10.85    0.34
   2  -2  -6    8.89    0.71
   2  -2  -6    8.87    0.53
  -2   2   6    8.38    0.29
   1  -2  -6    0.00    0.26
  -1   2   6    0.04    0.11
   0  -2  -6   14.06    0.66
   0   2   6   14.06    0.39
  -1  -2  -6   17.90    0.74
   1   2   6   18.51    0.49
  -2  -2  -6   14.73    0.70
   2   2   6   15.55    0.47
  -3  -2  -6    4.71    0.57
   3   2   6    5.11    0.34
   3   2   6    6.66    0.91
   3   2   6    5.03    0.66
  -4  -2  -6   -0.22    0.32
   4   2   6    0.13    0.45
   4   2   6   -0.08    0.64
   4   2   6   -0.08    0.20
  -5  -2  -6    1.31    0.39
   5   2   6    1.71    0.51
   5   2   6    1.35    0.27
   5   2   6    2.00    0.75
  -6  -2  -6    1.82    0.41
   6   2   6    1.58    0.73
   6   2   6    1.05    0.30
   6   2   6    2.01    0.52
   7   2   6    0.15    0.30
   7   2   6    1.21    0.66
  -8  -2  -6    2.29    0.36
  -9  -2  -6    0.53    0.34
 -10  -2  -6    1.38    0.43
  10  -3  -6   -0.07    0.99
   9  -3  -6    0.01    0.95
   8  -3  -6    2.05    0.99
   7  -3  -6    0.21    0.81
   6  -3  -6    0.17    0.29
   6  -3  -6    0.16    0.71
  -6   3   6   -0.26    0.22
   5  -3  -6   -0.38    0.63
   5  -3  -6   -0.06    0.30
  -5   3   6    0.17    0.21
   4  -3  -6    6.18    0.83
   4  -3  -6    8.16    0.57
  -4   3   6    7.93    0.36
   3  -3  -6    4.58    0.52
   3  -3  -6    5.18    0.74
  -3   3   6    4.78    0.29
   2  -3  -6    0.39    0.32
   2  -3  -6    0.22    0.49
  -2   3   6    0.38    0.16
   1  -3  -6   17.42    0.78
  -1   3   6   18.21    0.49
   0  -3  -6    3.66    0.44
   0   3   6    3.57    0.27
  -1  -3  -6   16.64    0.79
   1   3   6   16.94    0.49
  -2  -3  -6   12.89    0.76
   2   3   6   13.19    0.46
  -3  -3  -6    0.11    0.37
   3   3   6    0.19    0.47
   3   3   6    0.09    0.20
   3   3   6   -0.13    0.64
  -4  -3  -6    3.00    0.48
   4   3   6    2.53    0.30
   4   3   6    2.97    0.51
   4   3   6    3.11    0.75
  -5  -3  -6    7.15    0.73
   5   3   6    7.13    0.50
  -6  -3  -6    1.77    0.45
   6   3   6    1.53    0.34
   7   3   6    0.21    0.34
   8   3   6    0.09    0.36
  10  -4  -6    0.02    1.07
   9  -4  -6   -0.37    0.93
   8  -4  -6    0.12    0.91
   7  -4  -6    3.63    1.01
   6  -4  -6   -0.56    0.72
  -6   4   6   -0.28    0.26
   5  -4  -6    1.53    0.77
   5  -4  -6    1.24    0.37
  -5   4   6    1.46    0.26
   4  -4  -6    3.73    0.81
   4  -4  -6    3.84    0.46
  -4   4   6    4.28    0.34
   3  -4  -6    0.71    0.38
   3  -4  -6    1.86    0.66
  -3   4   6    0.93    0.21
   2  -4  -6   26.80    1.13
   2  -4  -6   25.45    0.99
  -2   4   6   26.36    0.69
   1  -4  -6    0.68    0.39
  -1   4   6    1.21    0.21
   0  -4  -6   17.56    0.84
   0   4   6   18.10    0.54
  -1  -4  -6    9.56    0.75
   1   4   6    9.61    0.42
  -2  -4  -6    0.17    0.40
   2   4   6    0.15    0.19
  -3  -4  -6    5.79    0.74
   3   4   6    4.92    0.41
  -4  -4  -6    2.23    0.51
   4   4   6    2.38    0.33
  -5  -4  -6    0.88    0.47
   5   4   6    0.71    0.30
  -6  -4  -6    4.35    0.58
   6   4   6    3.81    0.43
   7   4   6    0.45    0.36
   8   4   6    1.31    0.43
   9   4   6    1.06    0.44
   9  -5  -6    0.52    1.00
   8  -5  -6    2.03    1.06
   7  -5  -6   -0.26    0.84
   6  -5  -6    5.16    1.05
  -6   5   6    3.76    0.37
   5  -5  -6    0.63    0.38
   5  -5  -6    0.89    0.73
  -5   5   6    0.11    0.25
   4  -5  -6    0.85    0.41
   4  -5  -6    0.73    0.70
  -4   5   6    0.62    0.25
   3  -5  -6    2.13    0.48
   3  -5  -6    2.52    0.70
  -3   5   6    2.44    0.27
   2  -5  -6    3.33    0.52
   2  -5  -6    5.25    0.76
  -2   5   6    4.18    0.36
   1  -5  -6    3.91    0.55
  -1   5   6    4.31    0.37
   0  -5  -6   17.97    0.94
   0   5   6   18.11    0.58
  -1  -5  -6    0.55    0.45
   1   5   6    0.70    0.23
  -2  -5  -6   18.90    1.00
   2   5   6   18.76    0.61
  -3  -5  -6    2.57    0.56
   3   5   6    2.55    0.32
  -4  -5  -6    1.30    0.52
   4   5   6    0.86    0.30
  -5  -5  -6    3.92    0.62
   5   5   6    3.98    0.43
  -6  -5  -6    1.48    0.54
   6   5   6    1.14    0.36
   7   5   6    2.11    0.44
   8   5   6    0.65    0.42
   9  -6  -6   -0.06    0.99
   8  -6  -6   -0.32    0.92
   7  -6  -6    3.73    1.08
   6  -6  -6    3.20    1.00
  -6   6   6    3.13    0.39
   5  -6  -6    0.98    0.44
   5  -6  -6    0.39    0.78
  -5   6   6    0.79    0.31
   4  -6  -6    2.70    0.51
   4  -6  -6    2.85    0.83
  -4   6   6    2.95    0.33
   3  -6  -6    1.49    0.48
   3  -6  -6    1.80    0.84
  -3   6   6    2.24    0.30
   2  -6  -6    0.43    0.47
  -2   6   6    1.27    0.27
   1  -6  -6    1.20    0.51
  -1   6   6    1.84    0.29
   0  -6  -6    0.76    0.51
   0   6   6    1.06    0.25
  -1  -6  -6    5.95    0.69
   1   6   6    6.45    0.44
  -2  -6  -6    1.60    0.55
   2   6   6    1.23    0.28
  -3  -6  -6    3.33    0.63
   3   6   6    3.15    0.36
  -4  -6  -6    3.59    0.65
   4   6   6    3.88    0.42
  -5  -6  -6    0.43    0.55
   5   6   6    0.11    0.33
  -6  -6  -6    3.31    0.65
   6   6   6    2.66    0.44
  -7  -6  -6    2.06    0.64
   7   6   6    0.82    0.41
   8   6   6    0.50    0.46
   9  -7  -6   -0.13    1.05
   8  -7  -6    0.72    1.02
   7  -7  -6    0.67    0.97
  -6   7   6   -0.18    0.37
   5  -7  -6    4.46    0.91
  -5   7   6    2.00    0.37
   4  -7  -6    0.89    0.49
  -4   7   6    0.14    0.30
   3  -7  -6    2.59    0.56
  -3   7   6    1.75    0.33
   2  -7  -6    0.69    0.51
  -2   7   6    0.30    0.27
   1  -7  -6    0.00    0.52
  -1   7   6   -0.11    0.26
   0  -7  -6    1.71    0.59
   0   7   6    1.38    0.29
  -1  -7  -6    0.60    0.57
   1   7   6    0.77    0.29
  -2  -7  -6    5.11    0.72
   2   7   6    5.25    0.50
  -3  -7  -6    7.00    0.97
   3   7   6    6.48    0.53
  -4  -7  -6    0.74    0.60
   4   7   6    0.41    0.34
  -5  -7  -6    4.19    0.73
   5   7   6    4.32    0.48
  -6  -7  -6    1.59    0.64
   6   7   6    0.21    0.39
  -7  -7  -6    2.47    0.68
   7   7   6    0.44    0.41
  -6   8   6    1.40    0.61
  -5   8   6    0.55    0.36
   4  -8  -6    7.97    0.88
  -4   8   6    6.37    0.57
   3  -8  -6    2.34    0.59
  -3   8   6    1.95    0.36
   2  -8  -6    5.24    0.72
  -2   8   6    5.71    0.52
   1  -8  -6    3.68    0.69
  -1   8   6    3.45    0.39
   0  -8  -6    0.22    0.60
   0   8   6    0.19    0.30
  -1  -8  -6    1.38    0.67
   1   8   6    1.55    0.35
  -2  -8  -6    2.32    0.70
   2   8   6    2.26    0.37
  -3  -8  -6    1.09    0.68
   3   8   6    0.38    0.32
  -4  -8  -6    2.89    0.74
   4   8   6    2.60    0.43
  -5  -8  -6    0.97    0.67
   5   8   6    0.39    0.38
  -6  -8  -6    1.64    0.70
   6   8   6    0.88    0.43
  -5   9   6    0.21    0.39
   4  -9  -6    1.33    0.58
  -4   9   6    0.42    0.36
   3  -9  -6    1.96    0.62
  -3   9   6    1.41    0.38
   2  -9  -6    3.73    0.71
  -2   9   6    2.86    0.42
   1  -9  -6    1.45    0.65
  -1   9   6    0.13    0.33
   0  -9  -6    3.33    0.76
   0   9   6    2.90    0.40
  -1  -9  -6    4.20    0.80
   1   9   6    2.99    0.41
  -2  -9  -6    0.61    0.70
   2   9   6    0.50    0.34
  -3  -9  -6    2.44    0.77
   3   9   6    1.30    0.38
  -4  -9  -6    1.36    0.75
   4   9   6    0.25    0.37
  -5  10   6    0.32    0.47
  -4  10   6    1.05    0.42
   3 -10  -6    2.53    0.67
  -3  10   6    1.38    0.41
   2 -10  -6    1.35    0.65
  -2  10   6    0.42    0.37
   1 -10  -6    2.41    0.74
  -1  10   6    1.56    0.39
   0 -10  -6    1.87    0.76
   0  10   6    1.05    0.38
  -1 -10  -6    1.52    0.78
   1  10   6    0.76    0.36
   2  10   6    1.12    0.40
   3  10   6    0.47    0.46
   0 -13   7   -0.31    0.78
  -1  13  -7    0.48    0.43
   1 -13   7   -0.49    0.66
  -2  13  -7    0.35    0.40
  -2 -12   7    0.69    0.67
   1  12  -7   -1.53    0.66
  -1 -12   7    0.85    0.64
   0  12  -7    0.56    0.42
   0 -12   7    0.24    0.60
  -1  12  -7    0.52    0.37
   1 -12   7   -0.04    0.59
  -2  12  -7    0.81    0.39
  -3  12  -7    0.22    0.36
  -4  12  -7    0.42    0.38
  -5  12  -7   -0.24    0.40
   4  11  -7   -1.62    0.64
  -4 -11   7    0.59    0.69
   3  11  -7   -1.39    0.61
  -3 -11   7    0.95    0.65
   2  11  -7   -0.17    0.62
  -2 -11   7    1.39    0.62
   1  11  -7   -1.17    0.57
  -1 -11   7    0.96    0.56
   0  11  -7   -1.29    0.55
   0  11  -7    0.15    0.33
   0 -11   7    0.21    0.51
  -1  11  -7    0.50    0.33
  -1  11  -7   -1.46    0.54
   1 -11   7    0.51    0.51
  -2  11  -7    0.33    0.33
  -2  11  -7   -1.24    0.54
   2 -11   7    0.28    0.67
  -3  11  -7    0.65    0.35
  -4  11  -7   -0.30    0.34
  -5  11  -7   -0.35    0.37
  -6  11  -7    0.07    0.41
  -6 -10   7    0.81    0.70
   5  10  -7   -1.10    0.61
  -5 -10   7    1.42    0.66
   4  10  -7   -0.47    0.59
  -4 -10   7    1.34    0.62
   3  10  -7    0.52    0.59
  -3 -10   7    2.43    0.63
   2  10  -7   -0.48    0.55
  -2 -10   7    0.64    0.55
   1  10  -7    0.38    0.33
   1  10  -7   -0.08    0.53
  -1 -10   7    0.69    0.50
   0  10  -7   -0.28    0.50
   0  10  -7    0.56    0.30
   0 -10   7    1.11    0.48
  -1  10  -7    1.38    0.33
  -1  10  -7    1.13    0.52
   1 -10   7    2.69    0.52
  -2  10  -7    1.66    0.54
  -2  10  -7    2.41    0.36
   2 -10   7    2.96    0.51
  -3  10  -7    0.08    0.30
  -4  10  -7   -0.43    0.31
   5 -10   7    4.90    1.06
  -6  10  -7   -0.41    0.37
   6 -10   7    2.41    0.98
  -7  10  -7   -0.08    0.41
   7 -10   7    1.73    0.97
   8 -10   7    2.74    1.24
  -7  -9   7    0.49    0.64
   6   9  -7   -1.05    0.59
  -6  -9   7    1.02    0.66
   5   9  -7   -0.36    0.57
   4   9  -7   -0.04    0.55
   3   9  -7   -0.30    0.51
   2   9  -7   -0.21    0.47
   1   9  -7    0.32    0.46
   1   9  -7    0.39    0.27
   0   9  -7    1.46    0.29
   0   9  -7    1.22    0.46
  -1   9  -7    2.10    0.48
  -1   9  -7    3.00    0.33
  -2   9  -7   -0.77    0.41
  -2   9  -7    0.13    0.26
   2  -9   7    0.41    0.69
   2  -9   7   -0.12    0.80
   3  -9   7    4.00    0.78
   3  -9   7    3.95    0.97
  -4   9  -7    1.04    0.32
   4  -9   7    1.41    0.80
   4  -9   7    2.00    0.72
  -5   9  -7   -0.05    0.32
   5  -9   7    0.97    0.82
   5  -9   7    1.72    0.73
  -6   9  -7    0.47    0.38
   6  -9   7    1.47    0.97
  -7   9  -7   -0.41    0.38
   7  -9   7    1.89    0.98
  -8   9  -7   -0.37    0.40
   8  -9   7    3.39    1.07
  -8  -8   7    1.33    0.65
   7   8  -7   -0.90    0.57
   6   8  -7   -0.44    0.53
   5   8  -7    0.28    0.51
   4   8  -7   -0.23    0.48
   3   8  -7    4.07    0.54
   2   8  -7    0.22    0.42
   1   8  -7    0.65    0.24
   1   8  -7    0.68    0.41
   0   8  -7    2.06    0.43
   0   8  -7    2.45    0.28
   0  -8   7    2.40    0.93
   0  -8   7    2.67    0.77
  -1   8  -7   -0.19    0.22
  -1   8  -7   -0.20    0.36
   1  -8   7   -0.24    0.73
   1  -8   7   -0.03    0.84
  -2   8  -7    3.21    0.31
  -2   8  -7    2.34    0.42
   2  -8   7    4.41    0.83
   2  -8   7    3.05    0.97
  -3   8  -7    0.24    0.36
  -3   8  -7    0.37    0.25
   3  -8   7    1.54    0.73
   3  -8   7    0.55    0.82
  -4   8  -7   -0.04    0.26
   4  -8   7    1.41    0.71
   4  -8   7    0.60    0.81
  -5   8  -7    1.57    0.35
   5  -8   7    2.42    0.87
   5  -8   7    3.90    0.79
  -6   8  -7   -0.37    0.32
   6  -8   7    1.16    0.74
   6  -8   7   -0.02    0.94
   7  -8   7    3.23    1.09
  -8   8  -7   -0.65    0.39
   8  -8   7    2.53    1.04
  -9   8  -7   -0.17    0.43
  -9  -7   7    1.69    0.92
   8   7  -7   -0.99    0.55
   7   7  -7    0.15    0.52
   6   7  -7   -0.27    0.48
   5   7  -7    0.22    0.45
   4   7  -7    0.35    0.42
   3   7  -7    2.90    0.45
   2   7  -7    2.90    0.43
   1   7  -7    2.45    0.41
   1   7  -7    2.35    0.24
   0   7  -7    0.06    0.19
   0   7  -7   -0.15    0.32
  -1   7  -7    0.47    0.33
  -1   7  -7    0.55    0.20
   1  -7   7    1.09    0.70
   1  -7   7    1.83    0.88
  -2   7  -7    1.59    0.35
  -2   7  -7    1.37    0.24
   2  -7   7    2.03    0.77
   2  -7   7    2.39    0.91
  -3   7  -7    0.09    0.31
  -3   7  -7    0.15    0.22
   3  -7   7    0.11    0.81
   3  -7   7    0.47    0.71
  -4   7  -7    2.56    0.32
   4  -7   7    3.33    0.79
   4  -7   7    2.85    0.92
  -5   7  -7   -0.07    0.26
   5  -7   7    0.69    0.69
   5  -7   7   -0.69    0.74
  -6   7  -7    1.86    0.35
   6  -7   7    2.83    0.79
   6  -7   7    2.30    0.92
  -7   7  -7   -0.01    0.33
   7  -7   7    2.31    1.04
  -8   7  -7    0.56    0.39
   8  -7   7    3.17    1.05
  -9   7  -7   -0.24    0.40
   9  -7   7    2.19    1.07
   8   6  -7   -0.24    0.52
   7   6  -7   -0.61    0.45
   6   6  -7    0.57    0.45
   5   6  -7    1.75    0.45
   4   6  -7    0.51    0.39
   3   6  -7    5.73    0.60
   2   6  -7    7.49    0.59
   1   6  -7    0.99    0.33
   1   6  -7    0.92    0.18
   0   6  -7    0.39    0.17
   0   6  -7    0.40    0.30
  -1   6  -7    0.16    0.28
  -1   6  -7    0.43    0.18
   1  -6   7    1.27    0.64
   1  -6   7    1.28    0.80
  -2   6  -7    0.74    0.19
  -2   6  -7    0.50    0.28
   2  -6   7    1.47    0.73
   2  -6   7    1.63    0.89
  -3   6  -7    0.76    0.29
  -3   6  -7    0.39    0.20
   3  -6   7    0.90    0.88
   3  -6   7    0.90    0.70
  -4   6  -7    0.36    0.22
   4  -6   7    0.25    0.66
   4  -6   7    0.48    0.80
  -5   6  -7    1.40    0.29
   5  -6   7    1.21    0.70
   5  -6   7    1.12    0.82
  -6   6  -7    1.53    0.31
   6  -6   7    1.75    0.88
   6  -6   7    2.19    0.74
  -7   6  -7    0.50    0.33
   7  -6   7    0.79    0.93
   7  -6   7    2.62    0.81
   8  -6   7    2.06    1.04
  -9   6  -7   -0.76    0.37
   9  -6   7    1.53    0.99
   8   5  -7   -0.59    0.45
   8   5  -7    0.45    0.96
   7   5  -7    2.02    0.94
   7   5  -7    1.77    0.47
   6   5  -7    2.99    0.49
   6   5  -7    3.45    0.95
   5   5  -7    0.19    0.38
   5   5  -7    0.10    0.72
   4   5  -7    1.81    0.39
   3   5  -7    3.66    0.51
   2   5  -7   -0.15    0.29
   1   5  -7    5.83    0.50
   1   5  -7    5.65    0.30
   0   5  -7    5.75    0.48
   0   5  -7    6.39    0.28
  -1   5  -7    2.81    0.24
  -1   5  -7    3.05    0.41
  -2   5  -7    6.23    0.45
  -2   5  -7    6.00    0.32
   2  -5   7    7.59    0.83
   2  -5   7    8.04    1.07
  -3   5  -7    0.14    0.24
  -3   5  -7   -0.01    0.17
   3  -5   7   -0.21    0.78
   3  -5   7   -0.01    0.64
  -4   5  -7    3.28    0.42
  -4   5  -7    3.79    0.35
   4  -5   7    3.83    0.74
   4  -5   7    3.42    0.93
  -5   5  -7    0.37    0.22
   5  -5   7   -0.31    0.75
   5  -5   7   -0.46    0.62
  -6   5  -7    1.48    0.30
   6  -5   7    2.34    0.70
   6  -5   7    0.99    0.84
  -7   5  -7    0.82    0.32
   7  -5   7    1.27    0.70
   7  -5   7    1.34    0.88
  -8   5  -7   -0.96    0.32
   8  -5   7    1.05    0.90
  -9   5  -7   -0.25    0.40
   9  -5   7    2.23    0.99
 -10   5  -7   -1.14    0.42
  10   4  -7    0.45    1.03
   9   4  -7   -0.32    0.92
   8   4  -7    0.46    0.93
   8   4  -7    0.38    0.44
   7   4  -7    1.71    0.46
   7   4  -7    1.08    0.88
   6   4  -7    1.22    0.82
   6   4  -7    1.58    0.42
   5   4  -7    1.28    0.74
   5   4  -7    1.27    0.38
   4   4  -7    0.55    0.32
   3   4  -7    4.41    0.49
   2   4  -7   18.26    0.68
   1   4  -7    3.71    0.43
   0   4  -7   21.75    0.72
  -1   4  -7    4.00    0.22
  -1   4  -7    3.74    0.40
  -2   4  -7    0.04    0.21
  -2   4  -7    0.14    0.13
   2  -4   7    1.19    0.58
   2  -4   7    0.38    0.73
  -3   4  -7    1.61    0.26
  -3   4  -7    1.73    0.19
   3  -4   7    2.85    0.71
   3  -4   7    2.43    0.89
  -4   4  -7    1.13    0.24
  -4   4  -7    1.50    0.22
   4  -4   7    1.05    0.63
   4  -4   7    0.91    0.81
  -5   4  -7    2.42    0.27
   5  -4   7    2.64    0.90
   5  -4   7    2.23    0.65
  -6   4  -7   -0.15    0.24
   6  -4   7    0.33    0.81
   6  -4   7   -0.47    0.58
  -7   4  -7   -0.26    0.27
   7  -4   7   -0.07    0.81
   7  -4   7    0.34    0.61
  -8   4  -7    0.42    0.35
   8  -4   7    1.78    0.94
  -9   4  -7   -0.66    0.35
   9  -4   7    1.55    0.94
 -10   4  -7   -0.65    0.41
  10  -4   7    1.46    0.91
  10   3  -7   -0.19    0.98
   9   3  -7   -0.22    0.91
   8   3  -7    0.72    0.71
   8   3  -7    0.41    0.88
   7   3  -7    0.16    0.38
   7   3  -7   -0.47    0.77
   6   3  -7    0.30    0.72
   6   3  -7   -0.03    0.35
   5   3  -7    3.13    0.82
   5   3  -7    2.48    0.39
   4   3  -7    1.13    0.31
   4   3  -7    0.86    0.67
   3   3  -7    1.38    0.30
   2   3  -7    0.28    0.26
   1   3  -7   34.54    0.97
   0   3  -7    1.71    0.29
  -1   3  -7    0.73    0.24
  -2   3  -7   12.80    0.38
  -2   3  -7   13.31    0.53
   2  -3   7   14.36    1.09
   2  -3   7   14.97    0.82
  -3   3  -7    0.27    0.21
  -3   3  -7    0.53    0.15
   3  -3   7    1.12    0.63
   3  -3   7    1.36    0.81
  -4   3  -7    1.45    0.25
  -4   3  -7    2.38    0.23
   4  -3   7    2.33    0.88
   4  -3   7    2.24    0.64
  -5   3  -7    2.93    0.29
   5  -3   7    3.37    0.68
   5  -3   7    2.86    0.94
  -6   3  -7    3.32    0.35
   6  -3   7    3.62    1.03
   6  -3   7    4.01    0.74
  -7   3  -7   -0.43    0.27
   7  -3   7    0.22    0.58
   7  -3   7   -0.25    0.79
  -8   3  -7   -0.70    0.30
   8  -3   7    0.62    0.83
  -9   3  -7    0.37    0.37
   9  -3   7    2.72    0.95
 -10   3  -7   -0.34    0.38
  10  -3   7    1.90    0.95
  10   2  -7    0.43    0.96
   9   2  -7   -0.09    0.85
   8   2  -7   -0.47    0.83
   7   2  -7    0.91    0.38
   7   2  -7    1.18    0.80
   6   2  -7    0.17    0.36
   6   2  -7    1.31    0.75
   5   2  -7    1.49    0.72
   5   2  -7    1.23    0.35
   4   2  -7    1.54    0.65
   4   2  -7    0.77    0.31
   3   2  -7   -0.06    0.25
   3   2  -7    0.61    0.57
   2   2  -7    2.81    0.32
   1   2  -7    1.21    0.26
   0   2  -7   20.90    0.70
  -1   2  -7   25.05    0.77
  -2   2  -7    0.98    0.25
  -2   2  -7    1.01    0.15
  -3   2  -7    5.57    0.29
  -3   2  -7    5.18    0.40
   3  -2   7    5.35    0.76
   3  -2   7    6.82    1.02
  -4   2  -7    5.22    0.41
  -4   2  -7    5.48    0.34
   4  -2   7    6.06    1.08
   4  -2   7    5.85    0.76
  -5   2  -7    0.02    0.21
   5  -2   7    0.05    0.57
   5  -2   7    0.33    0.82
  -6   2  -7    1.56    0.28
   6  -2   7    2.28    0.90
   6  -2   7    1.77    0.63
  -7   2  -7   -0.22    0.26
   7  -2   7    0.69    0.59
   7  -2   7    0.29    0.82
  -8   2  -7    1.53    0.36
   8  -2   7    2.40    0.95
  -9   2  -7    0.20    0.36
   9  -2   7    2.56    0.96
 -10   2  -7    0.14    0.39
  10  -2   7    2.00    1.01
  10   1  -7    0.44    0.97
   9   1  -7    0.52    0.91
   8   1  -7    0.84    0.82
   7   1  -7   -0.67    0.34
   7   1  -7    0.29    0.76
   6   1  -7    1.84    0.41
   6   1  -7    3.73    0.89
   5   1  -7    2.44    0.78
   5   1  -7    2.52    0.37
   4   1  -7    2.55    0.34
   4   1  -7    2.57    0.68
   3   1  -7    4.90    0.44
   3   1  -7    5.30    0.70
   2   1  -7   10.67    0.52
   1   1  -7   -0.33    0.21
   0   1  -7   31.14    0.91
  -1   1  -7    2.16    0.31
  -2   1  -7   23.84    0.78
  -2   1  -7   22.81    0.58
  -3   1  -7    0.74    0.17
  -3   1  -7    0.67    0.28
   3  -1   7    2.56    0.63
   3  -1   7    1.50    0.82
  -4   1  -7    1.35    0.22
  -4   1  -7    1.18    0.30
   4  -1   7    1.10    0.60
   4  -1   7    1.01    0.86
  -5   1  -7    8.36    0.44
  -5   1  -7    8.06    0.54
   5  -1   7    7.94    1.17
   5  -1   7    7.94    0.83
  -6   1  -7    0.11    0.25
   6  -1   7    0.01    0.56
   6  -1   7    0.00    0.77
  -7   1  -7    1.99    0.35
   7  -1   7    3.06    0.66
   7  -1   7    2.81    0.96
  -8   1  -7    2.67    0.40
   8  -1   7    4.71    1.11
  -9   1  -7    0.02    0.36
   9  -1   7    1.85    0.86
 -10   1  -7    0.48    0.40
  10  -1   7    1.95    0.96
  10   0  -7    0.00    0.92
   9   0  -7   -0.10    0.87
   8   0  -7    0.21    0.83
   7   0  -7    3.67    0.45
   7   0  -7    3.84    0.95
   6   0  -7   16.75    1.25
   6   0  -7   18.29    0.74
   5   0  -7   -0.32    0.62
   5   0  -7    0.02    0.29
   4   0  -7    0.59    0.29
   4   0  -7    0.77    0.60
   3   0  -7    0.48    0.55
   3   0  -7   -0.02    0.25
   2   0  -7    3.16    0.41
   1   0  -7   15.24    0.63
   0   0  -7   25.88    0.85
  -1   0  -7    0.36    0.27
   1   0   7    0.50    0.11
  -2   0  -7    0.79    0.30
   2   0   7    0.65    0.14
  -3   0  -7   14.50    0.67
   3   0   7   13.36    1.15
   3   0   7   12.88    0.85
  -4   0  -7    3.78    0.34
  -4   0  -7    4.03    0.52
   4   0   7    4.31    0.71
   4   0   7    4.92    1.01
  -5   0  -7    0.18    0.31
  -5   0  -7   -0.15    0.22
   5   0   7   -0.90    0.76
   5   0   7   -0.10    0.55
  -6   0  -7    2.64    0.33
   6   0   7    4.05    1.01
   6   0   7    3.22    0.67
  -7   0  -7    4.95    0.50
   7   0   7    5.98    0.77
   7   0   7    5.14    1.02
  -8   0  -7    0.27    0.33
   8   0   7    1.66    0.85
  -9   0  -7    1.42    0.42
   9   0   7    3.61    0.96
 -10   0  -7    0.30    0.39
  10   0   7    2.67    0.95
  10  -1  -7    0.04    0.96
   9  -1  -7   -0.41    0.88
   8  -1  -7    0.16    0.87
   7  -1  -7    3.76    1.03
   6  -1  -7   -0.01    0.73
   6  -1  -7    0.57    0.31
   5  -1  -7    0.52    0.68
   5  -1  -7    0.21    0.29
   4  -1  -7    0.03    0.27
   4  -1  -7    0.01    0.60
   3  -1  -7    9.05    0.85
   3  -1  -7    9.46    0.56
   2  -1  -7    0.10    0.28
   1  -1  -7   -0.09    0.26
   0  -1  -7    5.28    0.51
   0   1   7    5.66    0.23
  -1  -1  -7    4.08    0.52
   1   1   7    4.92    0.25
  -2  -1  -7   11.87    0.67
   2   1   7   11.96    0.40
  -3  -1  -7    1.23    0.37
   3   1   7    2.41    0.82
   3   1   7    1.63    0.22
   3   1   7    2.94    0.61
  -4  -1  -7    0.24    0.35
   4   1   7    0.36    0.55
   4   1   7    0.06    0.79
   4   1   7    0.35    0.21
  -5  -1  -7    2.31    0.43
   5   1   7    2.52    0.89
   5   1   7    2.47    0.62
   5   1   7    2.05    0.29
   6   1   7    1.30    0.79
   6   1   7    0.69    0.54
  -7  -1  -7    1.00    0.32
   7   1   7    1.84    0.59
   7   1   7    2.19    0.86
  -8  -1  -7    1.98    0.38
   8   1   7    2.58    0.88
  -9  -1  -7    0.27    0.35
 -10  -1  -7    0.81    0.42
  10  -2  -7   -0.03    1.01
   9  -2  -7    0.03    0.91
   8  -2  -7   -1.04    0.87
   7  -2  -7   -0.80    0.81
   6  -2  -7    2.87    0.90
   6  -2  -7    2.62    0.39
   5  -2  -7    4.52    0.94
   5  -2  -7    4.18    0.50
   4  -2  -7    1.01    0.34
   4  -2  -7    2.16    0.75
   3  -2  -7    7.26    0.82
   3  -2  -7    7.92    0.59
   2  -2  -7    3.18    0.42
   2  -2  -7    4.01    0.72
  -2   2   7    2.96    0.22
   1  -2  -7   13.90    0.70
  -1   2   7   12.95    0.38
   0  -2  -7    0.44    0.33
   0   2   7    0.67    0.14
  -1  -2  -7    8.52    0.67
   1   2   7    9.51    0.35
  -2  -2  -7    4.63    0.63
   2   2   7    5.42    0.32
  -3  -2  -7    0.26    0.36
   3   2   7    0.76    0.75
   3   2   7    0.44    0.20
   3   2   7    0.72    0.53
  -4  -2  -7   10.14    0.73
   4   2   7    9.69    1.12
   4   2   7    9.67    0.48
   4   2   7    9.56    0.81
  -5  -2  -7    0.39    0.38
   5   2   7    0.48    0.50
   5   2   7    0.50    0.71
   5   2   7    0.03    0.25
  -6  -2  -7    0.76    0.41
   6   2   7    1.34    0.52
   6   2   7    0.97    0.72
   6   2   7    0.14    0.29
  -8  -2  -7    0.72    0.33
  -9  -2  -7    1.17    0.38
  10  -3  -7    0.04    1.38
   9  -3  -7    0.87    0.99
   8  -3  -7   -0.07    0.91
   7  -3  -7    1.75    0.97
   6  -3  -7    0.44    0.33
   6  -3  -7    0.36    0.80
   5  -3  -7    0.10    0.73
   5  -3  -7    0.28    0.34
   4  -3  -7    0.45    0.36
   4  -3  -7    0.91    0.70
   3  -3  -7    5.47    0.84
   3  -3  -7    4.44    0.59
  -3   3   7    3.93    0.42
   2  -3  -7   26.72    0.99
  -2   3   7   25.77    0.65
   1  -3  -7    0.53    0.38
  -1   3   7    0.56    0.17
   0  -3  -7    8.69    0.71
   0   3   7    8.79    0.36
  -1  -3  -7    3.10    0.47
   1   3   7    2.92    0.29
  -2  -3  -7   -0.31    0.37
   2   3   7   -0.02    0.18
  -3  -3  -7    5.83    0.60
   3   3   7    5.69    0.68
   3   3   7    5.48    0.95
   3   3   7    4.90    0.38
  -4  -3  -7    1.55    0.48
   4   3   7    1.86    0.29
  -5  -3  -7    1.88    0.48
   5   3   7    1.19    0.31
  -6  -3  -7    2.73    0.52
   6   3   7    1.97    0.37
   7   3   7    0.22    0.35
   8   3   7    0.17    0.37
  -9  -3  -7    0.33    0.37
   9  -4  -7    0.00    1.00
   8  -4  -7    0.88    1.03
   7  -4  -7   -0.11    0.89
   6  -4  -7    5.44    1.09
   6  -4  -7    6.26    0.79
   5  -4  -7    2.15    0.43
   5  -4  -7    2.58    0.88
   4  -4  -7    0.00    0.68
   4  -4  -7    1.11    0.41
   3  -4  -7    0.24    0.40
   3  -4  -7    0.47    0.62
  -3   4   7    0.51    0.24
   2  -4  -7   -0.29    0.39
  -2   4   7    0.11    0.18
   1  -4  -7   12.08    0.82
  -1   4   7   12.25    0.44
   0  -4  -7   20.67    0.97
   0   4   7   20.73    0.61
  -1  -4  -7    3.80    0.54
   1   4   7    3.66    0.34
  -2  -4  -7   -0.27    0.45
   2   4   7    0.17    0.20
  -3  -4  -7    0.44    0.47
   3   4   7    0.42    0.24
  -4  -4  -7   14.19    0.94
   4   4   7   12.99    0.60
  -5  -4  -7   -0.14    0.48
   5   4   7   -0.08    0.29
  -6  -4  -7    1.09    0.51
   6   4   7    0.40    0.33
   7   4   7    1.14    0.39
   8   4   7    0.50    0.40
   9  -5  -7   -0.13    1.03
   8  -5  -7    0.54    1.06
   7  -5  -7    1.91    1.02
   6  -5  -7    1.90    0.92
   5  -5  -7    1.41    0.83
   5  -5  -7    1.40    0.46
   4  -5  -7    0.90    0.44
   4  -5  -7    0.47    0.72
   3  -5  -7    0.32    0.44
   3  -5  -7    0.73    0.67
  -3   5   7    0.34    0.25
   2  -5  -7    5.08    0.61
  -2   5   7    6.00    0.38
   1  -5  -7    0.59    0.46
  -1   5   7    0.70    0.22
   0  -5  -7    1.01    0.49
   0   5   7    1.34    0.24
  -1  -5  -7    0.92    0.50
   1   5   7    0.75    0.23
  -2  -5  -7    2.49    0.57
   2   5   7    2.35    0.29
  -3  -5  -7    8.27    0.90
   3   5   7    8.01    0.51
  -4  -5  -7    5.45    0.69
   4   5   7    5.85    0.53
  -5  -5  -7    1.08    0.56
   5   5   7    0.84    0.34
  -6  -5  -7    1.95    0.58
   6   5   7    0.80    0.37
   7   5   7    0.37    0.39
   8   5   7    0.98    0.44
   9  -6  -7    0.30    1.21
   8  -6  -7    0.15    1.03
   7  -6  -7    0.10    0.99
   6  -6  -7   -0.10    0.91
   5  -6  -7    2.92    0.98
   5  -6  -7    2.86    0.55
   4  -6  -7    1.95    0.51
   4  -6  -7    1.83    0.95
   3  -6  -7    2.05    0.55
  -3   6   7    1.80    0.36
   2  -6  -7    0.39    0.48
  -2   6   7    0.15    0.25
   1  -6  -7    3.21    0.60
  -1   6   7    3.17    0.32
   0  -6  -7    0.25    0.51
   0   6   7    0.22    0.25
  -1  -6  -7    1.94    0.59
   1   6   7    2.04    0.30
  -2  -6  -7    6.93    0.94
   2   6   7    6.88    0.47
  -3  -6  -7   11.19    1.00
   3   6   7    9.65    0.58
  -4  -6  -7    2.22    0.63
   4   6   7    2.31    0.38
  -5  -6  -7    3.72    0.69
   5   6   7    3.08    0.44
  -6  -6  -7    1.49    0.59
   6   6   7   -0.02    0.37
   7   6   7    0.96    0.42
   8  -7  -7   -0.87    1.07
   5  -7  -7    1.31    0.61
   4  -7  -7    7.95    0.90
   3  -7  -7    0.48    0.53
  -3   7   7    0.39    0.44
   2  -7  -7    3.49    0.64
  -2   7   7    4.14    0.39
   1  -7  -7    3.34    0.65
  -1   7   7    3.44    0.36
   0  -7  -7    0.78    0.60
   0   7   7    0.76    0.30
  -1  -7  -7    0.92    0.63
   1   7   7    0.30    0.29
  -2  -7  -7    0.35    0.62
   2   7   7   -0.07    0.27
  -3  -7  -7    2.07    0.67
   3   7   7    1.83    0.36
  -4  -7  -7    4.76    0.76
   4   7   7    3.65    0.46
  -5  -7  -7    0.79    0.63
   5   7   7    0.43    0.37
  -6  -7  -7    2.04    0.67
   6   7   7    0.90    0.42
  -7  -7  -7    1.43    0.74
   4  -8  -7    1.70    0.59
   3  -8  -7    2.52    0.61
   2  -8  -7    4.19    0.71
  -2   8   7    4.79    0.45
   1  -8  -7    0.28    0.58
  -1   8   7   -0.16    0.29
   0  -8  -7    3.20    0.72
   0   8   7    2.77    0.39
  -1  -8  -7    1.14    0.67
   1   8   7    0.47    0.33
  -2  -8  -7    2.06    0.73
   2   8   7    1.20    0.35
  -3  -8  -7    1.67    0.72
   3   8   7    0.67    0.36
  -4  -8  -7    1.58    0.72
   4   8   7    0.53    0.38
  -5  -8  -7    2.33    0.74
   5   8   7    1.81    0.43
   4  -9  -7    2.76    0.69
   3  -9  -7    1.89    0.63
   2  -9  -7    1.74    0.64
  -2   9   7    0.81    0.37
   1  -9  -7    3.45    0.74
  -1   9   7    3.10    0.41
   0  -9  -7    2.17    0.75
   0   9   7    1.14    0.37
  -1  -9  -7    1.46    0.74
   1   9   7    0.53    0.35
  -2  -9  -7    1.64    0.75
   2   9   7    0.52    0.35
  -3  -9  -7    1.76    0.98
   3   9   7    0.69    0.38
   4   9   7    1.33    0.45
   3 -10  -7    2.14    0.68
   2 -10  -7    1.90    0.84
  -2  10   7    0.06    0.62
  -1  10   7    0.64    0.36
   0  10   7    0.42    0.37
   1  10   7    1.21    0.40
   2  10   7    0.95    0.54
   2  12  -8   -1.33    0.76
  -2 -12   8    1.19    0.81
  -1 -12   8    0.06    0.61
   0 -12   8    0.68    0.60
   1 -12   8    0.16    0.56
  -4  12  -8    0.04    0.43
   4  11  -8   -1.15    0.71
  -4 -11   8    1.43    0.75
   3  11  -8   -1.05    0.65
  -3 -11   8    1.06    0.65
  -2 -11   8    1.06    0.60
   1  11  -8   -1.33    0.58
  -1 -11   8    1.16    0.57
   0  11  -8   -0.19    0.59
   0 -11   8    1.81    0.56
  -1  11  -8    1.49    0.61
   1 -11   8    3.76    0.59
  -2  11  -8    0.64    0.70
  -3  11  -8   -0.26    0.40
  -4  11  -8    0.11    0.35
  -5  11  -8   -0.65    0.36
  -6  11  -8   -0.46    0.40
   5  10  -8   -0.36    0.67
  -5 -10   8    2.50    0.71
   4  10  -8   -1.24    0.61
   3  10  -8   -1.12    0.58
   2  10  -8    1.53    0.60
   1  10  -8   -0.37    0.53
   0  10  -8    1.53    0.56
  -1  10  -8    2.51    0.57
  -2  10  -8   -0.78    0.52
  -3  10  -8    2.32    0.39
   4 -10   8    2.52    0.87
   4 -10   8    3.04    0.77
   5 -10   8    2.26    0.85
  -6  10  -8   -0.03    0.38
   6 -10   8    3.30    1.05
  -7  10  -8   -0.57    0.42
   7 -10   8    3.26    1.08
   7   9  -8   -1.27    0.66
   6   9  -8   -0.54    0.62
   5   9  -8   -0.58    0.57
   4   9  -8   -0.09    0.56
   3   9  -8    0.93    0.55
   2   9  -8    1.53    0.54
   1   9  -8    4.00    0.56
   0   9  -8    0.55    0.46
  -1   9  -8   -0.02    0.45
   1  -9   8    0.75    0.93
   1  -9   8   -0.08    0.79
  -2   9  -8    0.59    0.44
  -2   9  -8    1.72    0.38
   2  -9   8    2.39    0.98
   2  -9   8    3.04    0.86
  -3   9  -8    0.65    0.29
   3  -9   8    1.45    0.93
   3  -9   8    1.89    0.81
   4  -9   8    1.72    0.88
   4  -9   8    2.45    0.78
   5  -9   8    4.06    0.83
   5  -9   8    2.40    0.88
   6  -9   8    2.13    1.06
   6  -9   8    3.06    0.80
  -7   9  -8    0.12    0.41
   7  -9   8    2.03    1.07
  -8   9  -8   -0.53    0.42
   8  -9   8    2.25    1.33
   8   8  -8   -1.59    0.62
   7   8  -8   -0.63    0.58
   6   8  -8   -0.60    0.55
   5   8  -8   -0.37    0.52
   4   8  -8   -0.82    0.49
   3   8  -8   -0.09    0.46
   2   8  -8    2.55    0.50
   1   8  -8    0.44    0.42
   0   8  -8    1.38    0.43
   0  -8   8    0.31    0.76
   0  -8   8    0.06    0.88
  -1   8  -8    3.09    0.45
   1  -8   8    4.87    0.91
   1  -8   8    3.46    1.03
  -2   8  -8    0.10    0.38
  -2   8  -8    0.43    0.28
   2  -8   8    1.38    0.81
   2  -8   8    1.23    0.94
  -3   8  -8   -0.27    0.37
  -3   8  -8    0.13    0.24
   3  -8   8    1.54    0.79
   3  -8   8    0.41    0.88
  -4   8  -8    0.84    0.29
   4  -8   8    1.34    0.77
   4  -8   8    0.97    0.86
  -5   8  -8   -0.18    0.30
   5  -8   8    0.95    0.87
   5  -8   8    1.32    0.78
  -6   8  -8    0.23    0.35
   6  -8   8    3.01    0.83
   6  -8   8    1.19    0.87
  -7   8  -8   -0.21    0.37
   7  -8   8    1.79    1.02
  -8   8  -8    2.06    0.48
   8  -8   8    5.59    1.24
   8   7  -8   -1.00    0.56
   7   7  -8   -0.95    0.51
   6   7  -8    0.17    0.50
   5   7  -8    1.09    0.50
   4   7  -8   -0.17    0.45
   3   7  -8    1.26    0.45
   2   7  -8    5.40    0.67
   1   7  -8    1.72    0.43
   0   7  -8    0.41    0.38
  -1   7  -8    1.20    0.39
   1  -7   8    1.76    0.78
   1  -7   8    1.78    0.93
  -2   7  -8    2.26    0.40
  -2   7  -8    2.26    0.28
   2  -7   8    2.69    0.84
   2  -7   8    1.50    0.96
  -3   7  -8    2.81    0.40
  -3   7  -8    3.13    0.30
   3  -7   8    4.39    0.88
   3  -7   8    4.12    1.06
  -4   7  -8   -0.29    0.24
   4  -7   8    0.23    0.75
   4  -7   8    0.08    0.85
  -5   7  -8    0.67    0.29
   5  -7   8    1.23    0.92
   5  -7   8    1.94    0.78
  -6   7  -8    0.18    0.32
   6  -7   8    1.75    0.77
   6  -7   8    1.17    0.87
   7  -7   8    7.28    1.00
   7  -7   8    6.45    1.30
  -8   7  -8    6.72    0.67
   8  -7   8    9.65    1.35
  -9   7  -8   -0.68    0.43
   8   6  -8   -1.07    0.51
   7   6  -8   -0.08    0.48
   7   6  -8    0.50    1.51
   6   6  -8   -0.11    0.46
   5   6  -8    0.42    0.46
   4   6  -8    2.34    0.47
   3   6  -8    1.71    0.41
   2   6  -8    1.40    0.39
   1   6  -8    2.61    0.41
   0   6  -8    0.11    0.33
  -1   6  -8    4.96    0.53
   1  -6   8    6.32    0.86
   1  -6   8    5.38    1.02
  -2   6  -8    3.73    0.37
  -2   6  -8    3.70    0.49
   2  -6   8    5.61    0.87
   2  -6   8    4.48    1.04
  -3   6  -8    1.83    0.25
  -3   6  -8    1.49    0.33
   3  -6   8    2.14    1.00
   3  -6   8    2.33    0.81
  -4   6  -8    7.55    0.44
   4  -6   8    8.45    0.97
   4  -6   8    8.20    1.18
  -5   6  -8   -0.14    0.24
   5  -6   8    0.24    0.71
   5  -6   8    0.21    0.81
  -6   6  -8    1.43    0.33
   6  -6   8    1.69    0.93
   6  -6   8    2.97    0.79
  -7   6  -8    3.60    0.42
   7  -6   8    4.95    1.11
  -8   6  -8    0.18    0.37
   8  -6   8    1.90    1.01
  -9   6  -8   -0.49    0.40
   9  -6   8    2.60    1.03
   9   5  -8   -0.45    1.03
   8   5  -8   -0.18    0.47
   8   5  -8   -0.06    0.89
   7   5  -8   -0.38    0.45
   7   5  -8   -0.46    0.83
   6   5  -8    0.06    0.45
   6   5  -8    0.72    0.86
   5   5  -8    1.40    0.44
   4   5  -8    1.76    0.43
   3   5  -8    6.44    0.59
   2   5  -8   13.20    0.68
   1   5  -8    0.79    0.33
   0   5  -8   11.66    0.61
  -1   5  -8   -0.17    0.28
  -2   5  -8    0.81    0.20
  -2   5  -8    0.69    0.29
   2  -5   8    1.81    0.91
   2  -5   8    2.16    0.73
  -3   5  -8    2.76    0.30
  -3   5  -8    2.55    0.33
   3  -5   8    3.52    1.05
   3  -5   8    4.17    0.83
  -4   5  -8   -0.07    0.20
   4  -5   8   -0.17    0.69
   4  -5   8   -0.46    0.82
  -5   5  -8    2.47    0.29
   5  -5   8    2.55    0.77
   5  -5   8    3.17    0.96
  -6   5  -8    0.48    0.28
   6  -5   8    1.48    0.69
   6  -5   8    0.37    0.86
  -7   5  -8    0.01    0.32
   7  -5   8    1.41    0.71
   7  -5   8    1.06    0.90
  -8   5  -8    0.02    0.37
   8  -5   8    2.08    1.00
  -9   5  -8   -0.29    0.40
   9  -5   8    1.66    0.93
 -10   5  -8   -0.70    0.56
  10   4  -8   -0.68    1.04
   9   4  -8   -0.12    0.99
   8   4  -8   -0.49    0.86
   8   4  -8   -0.21    0.47
   7   4  -8    0.21    0.84
   7   4  -8    0.42    0.45
   6   4  -8    1.46    0.45
   6   4  -8    1.57    0.85
   5   4  -8    0.26    0.70
   5   4  -8   -0.48    0.36
   4   4  -8    0.73    0.37
   3   4  -8    4.56    0.51
   2   4  -8    0.46    0.31
   1   4  -8    8.80    0.56
   0   4  -8    2.01    0.34
  -1   4  -8    2.97    0.35
  -2   4  -8    6.38    0.35
  -2   4  -8    6.06    0.48
   2  -4   8    7.38    1.06
   2  -4   8    8.10    0.84
  -3   4  -8    0.73    0.18
  -3   4  -8    0.67    0.26
   3  -4   8    0.74    0.71
   3  -4   8    0.95    0.91
  -4   4  -8    4.91    0.44
  -4   4  -8    5.12    0.36
   4  -4   8    6.53    0.85
   4  -4   8    5.50    1.10
  -5   4  -8   -0.18    0.21
   5  -4   8   -0.68    0.78
   5  -4   8   -0.05    0.61
  -6   4  -8    1.96    0.32
   6  -4   8    2.94    0.71
   6  -4   8    3.28    0.99
  -7   4  -8    0.63    0.33
   7  -4   8    1.70    0.93
   7  -4   8    1.42    0.67
   8  -4   8    1.19    0.93
   8  -4   8    1.29    0.65
  -9   4  -8   -0.39    0.36
   9  -4   8    2.16    0.95
  10   3  -8    0.35    1.06
   9   3  -8    0.47    0.96
   8   3  -8   -0.09    0.48
   8   3  -8    0.24    0.84
   7   3  -8    2.03    0.92
   7   3  -8    1.49    0.45
   6   3  -8   -0.44    0.38
   6   3  -8    0.42    0.76
   5   3  -8   -0.49    0.35
   5   3  -8    0.11    0.68
   4   3  -8    0.00    0.33
   3   3  -8    0.25    0.31
   2   3  -8    8.37    0.56
   1   3  -8    0.97    0.30
   0   3  -8   19.90    0.74
  -1   3  -8    7.19    0.50
  -2   3  -8    0.15    0.25
  -2   3  -8    0.00    0.14
  -3   3  -8    6.95    0.47
  -3   3  -8    6.23    0.32
   3  -3   8    6.86    0.88
   3  -3   8    8.93    1.18
  -4   3  -8    1.63    0.23
  -4   3  -8    1.37    0.28
   4  -3   8    1.90    0.71
   4  -3   8    1.04    0.92
  -5   3  -8   -0.18    0.21
   5  -3   8   -0.15    0.64
   5  -3   8   -0.71    0.82
  -6   3  -8    0.32    0.27
   6  -3   8    0.87    0.87
   6  -3   8    1.24    0.63
  -7   3  -8   -0.40    0.29
   7  -3   8    0.43    0.60
   7  -3   8    0.53    0.88
  -8   3  -8    2.00    0.40
   8  -3   8    3.66    0.74
   8  -3   8    4.06    1.10
  -9   3  -8    0.55    0.38
   9  -3   8    1.98    0.97
 -10   3  -8   -0.22    0.41
  10  -3   8    1.50    1.18
  10   2  -8   -0.01    1.02
   9   2  -8   -0.13    0.89
   8   2  -8   -0.65    0.86
   7   2  -8    0.14    0.40
   7   2  -8    0.47    0.82
   6   2  -8    4.68    0.51
   6   2  -8    4.05    0.91
   5   2  -8    0.18    0.69
   4   2  -8    3.45    0.77
   4   2  -8    2.82    0.40
   3   2  -8    0.42    0.30
   2   2  -8    0.20    0.27
   1   2  -8    2.40    0.34
   0   2  -8   10.92    0.57
  -1   2  -8    3.32    0.46
  -2   2  -8    9.69    0.55
  -2   2  -8   10.17    0.39
  -3   2  -8    1.40    0.19
  -3   2  -8    1.40    0.30
   3  -2   8    2.64    0.95
   3  -2   8    2.90    0.71
  -4   2  -8    7.32    0.39
  -4   2  -8    7.18    0.51
   4  -2   8    8.26    1.22
   4  -2   8    7.47    0.91
  -5   2  -8    1.20    0.25
   5  -2   8    0.72    0.66
   5  -2   8    1.44    0.93
  -6   2  -8   -0.36    0.24
   6  -2   8    0.26    0.85
   6  -2   8    0.19    0.60
  -7   2  -8    2.55    0.38
   7  -2   8    4.10    1.03
   7  -2   8    3.66    0.72
  -8   2  -8    1.72    0.39
   8  -2   8    3.45    0.72
   8  -2   8    3.54    1.04
  -9   2  -8   -0.51    0.36
   9  -2   8    1.57    0.88
 -10   2  -8   -0.29    0.40
  10  -2   8    3.17    0.99
  10   1  -8    0.60    1.05
   9   1  -8    0.27    0.87
   8   1  -8    0.86    0.88
   7   1  -8    2.16    0.92
   7   1  -8    2.33    0.45
   6   1  -8    0.90    0.79
   6   1  -8   -0.23    0.39
   5   1  -8   14.90    0.72
   5   1  -8   11.46    1.10
   4   1  -8    4.62    0.51
   4   1  -8    6.14    0.90
   3   1  -8   -0.16    0.27
   2   1  -8    6.61    0.51
   1   1  -8    1.36    0.30
   0   1  -8    0.29    0.28
  -1   1  -8    5.97    0.52
  -2   1  -8    0.13    0.15
  -2   1  -8    0.12    0.30
  -3   1  -8   14.05    0.47
  -3   1  -8   14.18    0.68
   3  -1   8   13.19    1.28
   3  -1   8   13.80    0.93
  -4   1  -8    5.24    0.37
  -4   1  -8    4.96    0.54
   4  -1   8    5.80    1.13
   4  -1   8    6.07    0.81
  -5   1  -8   -0.02    0.23
  -5   1  -8    0.15    0.31
   5  -1   8   -0.52    0.58
   5  -1   8   -0.46    0.82
  -6   1  -8    2.54    0.35
   6  -1   8    1.99    0.67
   6  -1   8    2.70    0.98
  -7   1  -8    4.84    0.52
   7  -1   8    4.45    1.09
   7  -1   8    5.52    0.80
   8  -1   8    1.33    0.87
   8  -1   8    2.07    0.64
   9  -1   8    1.88    0.92
  10  -1   8    3.20    0.97
  10   0  -8    1.71    1.17
   9   0  -8   -0.14    0.92
   8   0  -8    0.19    0.86
   7   0  -8    1.13    0.41
   7   0  -8    2.28    0.95
   6   0  -8    6.39    1.08
   6   0  -8    6.22    0.61
   5   0  -8   12.78    1.14
   5   0  -8   16.86    0.72
   4   0  -8    0.93    0.68
   4   0  -8    0.50    0.32
   3   0  -8    0.86    0.33
   3   0  -8    2.13    0.68
   2   0  -8    6.46    0.53
   1   0  -8    1.75    0.35
   0   0  -8   14.70    0.71
  -1   0  -8   -0.30    0.31
  -2   0  -8    6.35    0.59
  -3   0  -8    4.61    0.58
   3   0   8    5.47    1.08
   3   0   8    5.83    0.78
  -4   0  -8    4.85    0.38
  -4   0  -8    3.99    0.47
   4   0   8    5.97    1.14
   4   0   8    4.97    0.79
  -5   0  -8    2.29    0.42
  -5   0  -8    2.50    0.31
   5   0   8    1.85    0.66
   5   0   8    2.57    0.99
  -6   0  -8    0.38    0.28
   6   0   8    0.76    0.86
   6   0   8    0.95    0.60
  -7   0  -8    0.41    0.33
   7   0   8    0.88    0.82
   7   0   8    1.46    0.62
  -8   0  -8    1.44    0.39
   8   0   8    2.38    0.91
  -9   0  -8   -0.13    0.38
   9   0   8    1.70    0.87
 -10   0  -8   -0.09    0.52
  10   0   8    2.53    0.96
   9  -1  -8    0.30    0.92
   8  -1  -8   -0.20    0.91
   7  -1  -8    0.51    0.90
   7  -1  -8    1.03    0.55
   6  -1  -8    6.34    1.10
   6  -1  -8    7.27    0.60
   5  -1  -8   -0.44    0.74
   5  -1  -8    0.29    0.33
   4  -1  -8    0.12    0.32
   4  -1  -8   -0.29    0.65
   3  -1  -8    1.88    0.39
   3  -1  -8    3.15    0.74
   2  -1  -8    4.08    0.45
   1  -1  -8   10.71    0.66
   0  -1  -8    0.17    0.34
  -1  -1  -8   10.31    0.70
   1   1   8   10.29    0.43
  -2  -1  -8    1.31    0.40
   2   1   8    1.41    0.20
  -3  -1  -8    1.99    0.44
   3   1   8    2.37    0.66
   3   1   8    2.11    0.90
   3   1   8    1.65    0.23
  -4  -1  -8    7.63    0.72
   4   1   8    8.39    1.23
   4   1   8    7.00    0.43
   4   1   8    6.94    0.87
  -5  -1  -8    0.00    0.38
   5   1   8    0.11    0.58
   5   1   8    1.24    0.88
  -6  -1  -8    1.38    0.30
   6   1   8    1.26    0.85
   6   1   8    1.76    0.61
  -7  -1  -8    3.57    0.41
   7   1   8    6.09    0.78
   7   1   8    4.10    0.98
  -8  -1  -8    0.87    0.36
   8   1   8    2.18    0.96
  -9  -1  -8    0.70    0.39
   9  -2  -8    0.01    1.04
   8  -2  -8   -0.95    0.90
   7  -2  -8    0.57    0.98
   6  -2  -8   -0.04    0.35
   6  -2  -8    0.39    0.83
   5  -2  -8   10.11    0.65
   5  -2  -8    7.85    1.05
   4  -2  -8    0.22    0.35
   4  -2  -8    0.33    0.69
   3  -2  -8    1.64    0.68
   3  -2  -8    0.62    0.37
   2  -2  -8   10.64    0.70
   1  -2  -8   -0.25    0.35
   0  -2  -8   14.83    0.81
  -1  -2  -8   -0.11    0.38
   1   2   8    0.16    0.16
  -2  -2  -8    2.85    0.49
   2   2   8    3.14    0.32
  -3  -2  -8   12.75    0.83
   3   2   8    9.43    0.86
   3   2   8   12.09    0.48
   3   2   8    9.28    1.22
  -4  -2  -8   -0.10    0.42
   4   2   8    0.18    0.24
   4   2   8    0.13    0.82
   4   2   8    0.19    0.58
  -5  -2  -8    4.93    0.58
   5   2   8    4.48    0.48
   5   2   8    5.45    1.03
   5   2   8    5.40    0.73
   6   2   8    0.31    0.31
  -8  -2  -8    1.80    0.38
  -9  -2  -8    0.63    0.39
   9  -3  -8   -0.06    1.06
   8  -3  -8   -0.33    0.95
   7  -3  -8    0.01    0.94
   6  -3  -8    1.59    0.92
   6  -3  -8    2.30    0.43
   5  -3  -8    1.16    0.41
   5  -3  -8    0.57    0.82
   4  -3  -8    5.69    0.99
   4  -3  -8    6.02    0.65
   3  -3  -8    2.76    0.47
   3  -3  -8    4.03    0.82
   2  -3  -8    0.02    0.39
   1  -3  -8    8.07    0.75
   0  -3  -8    6.00    0.61
  -1  -3  -8    0.12    0.44
   1   3   8    0.69    0.19
  -2  -3  -8    9.15    0.82
   2   3   8    9.37    0.43
  -3  -3  -8    0.54    0.47
   3   3   8    0.33    0.24
   3   3   8   -0.81    0.57
   3   3   8   -0.66    0.80
  -4  -3  -8   15.78    0.94
   4   3   8   14.11    0.60
  -5  -3  -8    1.03    0.48
   5   3   8   -0.10    0.30
  -6  -3  -8    1.28    0.49
   6   3   8    0.17    0.32
   7   3   8    0.68    0.38
  -9  -3  -8    1.07    0.43
   9  -4  -8    0.04    1.08
   8  -4  -8   -0.15    1.01
   7  -4  -8    0.60    0.96
   6  -4  -8    1.02    0.44
   6  -4  -8   -0.10    0.89
   5  -4  -8    3.69    0.53
   5  -4  -8    3.00    0.96
   4  -4  -8    3.29    0.91
   4  -4  -8    3.31    0.52
   3  -4  -8    2.81    0.52
   3  -4  -8    3.05    0.81
   2  -4  -8   13.16    0.87
   1  -4  -8    1.05    0.49
   0  -4  -8    4.43    0.60
  -1  -4  -8    1.59    0.53
   1   4   8    1.37    0.23
  -2  -4  -8    2.18    0.55
   2   4   8    2.41    0.29
  -3  -4  -8    3.12    0.59
   3   4   8    2.78    0.33
  -4  -4  -8    4.06    0.63
   4   4   8    3.44    0.38
  -5  -4  -8    3.20    0.59
   5   4   8    2.24    0.37
  -6  -4  -8    1.67    0.53
   6   4   8    0.46    0.36
   7   4   8    0.28    0.38
   8   4   8    1.29    0.43
   8  -5  -8    0.40    1.10
   7  -5  -8    0.08    0.98
   6  -5  -8    0.77    1.02
   5  -5  -8    2.90    1.01
   5  -5  -8    3.61    0.57
   4  -5  -8    0.63    0.47
   4  -5  -8   -0.10    0.77
   3  -5  -8    1.85    0.53
   3  -5  -8    2.40    0.81
   2  -5  -8    0.53    0.51
   1  -5  -8    4.08    0.65
   0  -5  -8    0.97    0.53
  -1  -5  -8    0.03    0.51
   1   5   8    0.00    0.20
  -2  -5  -8    2.85    0.63
   2   5   8    2.60    0.31
  -3  -5  -8    6.29    0.76
   3   5   8    6.42    0.50
  -4  -5  -8    3.87    0.67
   4   5   8    3.16    0.40
  -5  -5  -8    4.18    0.68
   5   5   8    2.67    0.41
  -6  -5  -8    1.34    0.58
   6   5   8    0.15    0.36
   7   5   8    0.51    0.41
   8  -6  -8   -0.35    1.12
   7  -6  -8    0.71    1.03
   6  -6  -8   -0.40    0.94
   5  -6  -8   -0.25    1.05
   5  -6  -8    0.90    0.51
   4  -6  -8    2.74    0.61
   3  -6  -8    0.22    0.52
   2  -6  -8    4.10    0.69
   1  -6  -8    1.30    0.57
   0  -6  -8    8.78    0.95
  -1  -6  -8    2.86    0.66
   1   6   8    2.06    0.31
  -2  -6  -8    1.27    0.62
   2   6   8    0.37    0.27
  -3  -6  -8    3.63    0.72
   3   6   8    3.19    0.39
  -4  -6  -8    5.04    0.77
   4   6   8    3.89    0.45
  -5  -6  -8    1.87    0.66
   5   6   8    0.53    0.36
  -6  -6  -8    2.21    0.65
   6   6   8    0.74    0.41
   7   6   8    0.41    0.44
   5  -7  -8    1.80    0.60
   4  -7  -8    0.63    0.55
   3  -7  -8    2.16    0.64
   2  -7  -8    3.84    0.70
   1  -7  -8    0.86    0.60
   0  -7  -8    4.25    0.73
  -1  -7  -8    0.25    0.61
   1   7   8   -0.04    0.29
  -2  -7  -8    2.92    0.71
   2   7   8    2.14    0.36
  -3  -7  -8    3.55    0.74
   3   7   8    2.56    0.40
  -4  -7  -8    2.17    0.70
   4   7   8    0.74    0.37
  -5  -7  -8    2.62    0.72
   5   7   8    1.38    0.42
  -6  -7  -8    2.17    0.70
   6   7   8    0.53    0.43
   4  -8  -8    1.73    0.62
   3  -8  -8    1.78    0.65
   2  -8  -8    1.73    0.64
   1  -8  -8    3.53    0.72
   0  -8  -8    1.23    0.68
  -1  -8  -8    1.45    0.69
   1   8   8    0.75    0.40
  -2  -8  -8    3.15    0.78
   2   8   8    1.83    0.37
  -3  -8  -8    1.21    0.74
   3   8   8    0.55    0.37
  -4  -8  -8    1.69    1.00
   4   8   8    1.21    0.43
   5   8   8    0.08    0.45
   4  -9  -8    2.03    0.67
   3  -9  -8    2.71    0.71
   2  -9  -8    3.35    0.72
   1  -9  -8    1.61    0.70
   0  -9  -8    2.13    0.79
   2   9   8    0.67    0.37
   3   9   8    1.41    0.43
   1  12  -9   -1.32    0.76
  -1 -12   9    1.57    0.66
   0 -12   9    0.57    0.58
   1 -12   9    1.06    0.58
   3  11  -9   -1.51    0.69
   2  11  -9   -1.15    0.65
   1  11  -9   -0.99    0.61
   0  11  -9   -1.09    0.59
  -1  11  -9   -1.51    0.58
   5  10  -9   -0.90    0.71
   4  10  -9   -0.91    0.62
   3  10  -9   -0.45    0.60
   2  10  -9   -0.89    0.56
   1  10  -9    0.63    0.56
   0  10  -9   -0.38    0.51
  -1  10  -9   -0.10    0.50
  -2  10  -9   -0.13    0.52
   3 -10   9    2.47    1.06
   3 -10   9    1.43    0.98
   4 -10   9    3.35    0.84
   4 -10   9    0.93    0.84
   5 -10   9    2.47    0.92
   5 -10   9    3.92    0.84
   6 -10   9    8.30    0.99
   6   9  -9   -1.19    0.62
   5   9  -9   -0.44    0.60
   4   9  -9   -0.43    0.57
   3   9  -9   -0.46    0.54
   2   9  -9    0.74    0.53
   1   9  -9    1.52    0.52
   0   9  -9    1.20    0.49
   0  -9   9    0.23    1.03
   0  -9   9    0.46    0.94
  -1   9  -9   -0.41    0.45
   1  -9   9   -0.05    0.89
   1  -9   9   -0.30    0.96
  -2   9  -9   -0.91    0.44
   2  -9   9    0.45    0.86
   2  -9   9    0.11    0.96
   3  -9   9    0.98    0.95
   3  -9   9    1.86    0.85
   4  -9   9    2.98    0.87
   4  -9   9    2.87    1.01
   5  -9   9    1.26    0.84
   5  -9   9    2.62    0.81
   6  -9   9    3.89    0.88
   6  -9   9    2.73    0.98
  -7   9  -9   -0.53    0.44
   7  -9   9    3.10    1.13
   7   8  -9   -1.21    0.59
   6   8  -9   -0.16    0.58
   5   8  -9   -0.27    0.54
   4   8  -9   -0.52    0.52
   3   8  -9    0.01    0.50
   2   8  -9    0.00    0.48
   1   8  -9    2.04    0.49
   0   8  -9    1.45    0.46
   0  -8   9    0.94    0.98
   0  -8   9    0.10    0.82
  -1   8  -9   -0.48    0.41
   1  -8   9   -1.14    0.81
   1  -8   9   -0.22    0.93
  -2   8  -9   -0.70    0.39
   2  -8   9    0.02    0.93
   2  -8   9    0.31    0.87
   3  -8   9    0.76    0.95
   3  -8   9    0.51    0.82
   4  -8   9    1.31    0.95
   4  -8   9    1.59    0.85
   5  -8   9    1.42    0.94
   5  -8   9    2.05    0.83
  -6   8  -9   -0.04    0.39
   6  -8   9    2.29    0.80
   6  -8   9    1.33    0.90
   7  -8   9    3.35    0.86
   7  -8   9    1.72    0.96
  -8   8  -9    0.84    0.46
   8   7  -9   -1.29    0.58
   7   7  -9   -0.92    0.52
   6   7  -9   -0.23    0.52
   5   7  -9    0.04    0.52
   4   7  -9    2.75    0.57
   3   7  -9   -0.36    0.47
   2   7  -9    0.34    0.45
   1   7  -9    0.75    0.42
   0   7  -9   -0.26    0.38
  -1   7  -9    0.71    0.39
   1  -7   9    0.32    0.92
   1  -7   9    1.13    0.82
  -2   7  -9    0.12    0.37
   2  -7   9    0.98    0.97
   2  -7   9    0.57    0.85
  -3   7  -9    0.84    0.38
   3  -7   9    1.50    0.99
   3  -7   9    1.38    0.86
   4  -7   9    2.16    1.00
   4  -7   9    3.17    0.87
   5  -7   9    1.17    0.79
   5  -7   9    0.68    0.88
   6  -7   9    1.55    0.94
   6  -7   9    1.75    0.82
  -7   7  -9   -0.12    0.35
   7  -7   9    1.47    0.95
   7  -7   9    3.66    0.87
  -8   7  -9   -0.21    0.41
   8  -7   9    1.61    1.12
  -9   7  -9   -0.38    0.45
   8   6  -9   -0.47    0.54
   7   6  -9   -0.26    0.51
   6   6  -9    0.57    0.52
   5   6  -9    3.85    0.58
   4   6  -9    1.74    0.49
   3   6  -9    2.17    0.46
   2   6  -9    2.07    0.45
   1   6  -9    0.49    0.39
   0   6  -9   -0.07    0.36
  -1   6  -9    0.99    0.36
  -2   6  -9    4.84    0.56
   2  -6   9    6.75    0.95
   2  -6   9    6.10    1.17
  -3   6  -9    2.69    0.39
   3  -6   9    2.41    1.04
   3  -6   9    3.17    0.89
   4  -6   9    1.25    0.79
   4  -6   9    1.27    0.96
  -5   6  -9    0.77    0.35
   5  -6   9    1.22    0.78
   5  -6   9    0.82    0.90
  -6   6  -9    0.16    0.30
   6  -6   9    0.61    0.89
   6  -6   9    1.17    0.76
  -7   6  -9   -0.40    0.34
   7  -6   9    1.69    0.75
   7  -6   9    0.94    0.94
   8  -6   9    1.60    1.09
   8  -6   9    3.37    0.85
  -9   6  -9   -0.58    0.41
   9   5  -9   -0.11    1.01
   8   5  -9   -0.43    0.52
   8   5  -9   -0.35    0.92
   7   5  -9   -0.21    0.87
   7   5  -9   -0.29    0.49
   6   5  -9    0.76    0.49
   5   5  -9   -0.13    0.44
   4   5  -9   -0.11    0.41
   3   5  -9    2.23    0.45
   2   5  -9    1.58    0.40
   1   5  -9    4.37    0.57
   0   5  -9    2.88    0.41
  -1   5  -9    2.52    0.38
  -2   5  -9    1.13    0.34
   2  -5   9    1.91    0.80
   2  -5   9    1.88    0.98
  -3   5  -9   -0.07    0.29
   3  -5   9    0.58    0.96
   3  -5   9   -0.52    0.77
   4  -5   9    6.15    1.19
   4  -5   9    5.52    0.93
  -5   5  -9    0.55    0.32
   5  -5   9    0.69    0.73
   5  -5   9    0.85    0.92
  -6   5  -9    0.08    0.29
   6  -5   9    0.92    0.72
   6  -5   9    0.17    0.86
   7  -5   9    2.53    0.77
   7  -5   9    1.82    1.00
   8  -5   9    1.92    0.72
   8  -5   9    1.78    0.93
  -9   5  -9   -1.00    0.42
   9  -5   9    1.87    1.57
   9   4  -9   -0.02    1.05
   8   4  -9   -0.42    0.49
   8   4  -9    0.01    0.89
   7   4  -9    0.42    0.47
   7   4  -9    0.20    0.83
   6   4  -9   -0.22    0.77
   6   4  -9    0.07    0.44
   5   4  -9    0.30    0.43
   4   4  -9   -0.54    0.38
   3   4  -9    0.17    0.37
   2   4  -9    2.96    0.42
   1   4  -9   -0.20    0.33
   0   4  -9    5.13    0.56
  -1   4  -9    4.79    0.54
  -2   4  -9    0.12    0.31
   2  -4   9    0.74    0.90
   2  -4   9    0.36    0.68
  -3   4  -9    3.96    0.50
   3  -4   9    4.48    0.85
   3  -4   9    4.29    1.11
  -4   4  -9    0.02    0.28
   4  -4   9    0.16    0.70
   4  -4   9    0.15    0.92
  -5   4  -9    0.51    0.29
   5  -4   9    1.02    0.69
   5  -4   9    0.81    0.94
  -6   4  -9   -0.39    0.27
   6  -4   9    0.49    0.64
   6  -4   9    0.24    0.88
  -7   4  -9   -0.67    0.31
   7  -4   9    0.53    0.91
   7  -4   9    1.13    0.66
   8  -4   9    2.97    1.02
   8  -4   9    2.80    0.72
  -9   4  -9   -1.01    0.38
   9  -4   9    1.48    0.93
   9   3  -9   -0.32    0.91
   8   3  -9    0.00    0.90
   8   3  -9   -0.03    0.48
   7   3  -9   -0.21    0.79
   7   3  -9   -0.19    0.43
   6   3  -9    3.03    0.92
   6   3  -9    3.63    0.51
   5   3  -9   -0.74    0.68
   5   3  -9   -0.99    0.39
   4   3  -9    0.11    0.40
   3   3  -9    0.17    0.36
   2   3  -9    0.72    0.35
   1   3  -9    6.73    0.57
   0   3  -9    2.88    0.39
  -1   3  -9    1.54    0.34
  -2   3  -9   18.70    0.74
  -3   3  -9    5.71    0.52
   3  -3   9    6.09    1.16
   3  -3   9    6.89    0.88
  -4   3  -9    4.09    0.48
   4  -3   9    3.79    0.80
   4  -3   9    3.88    1.11
  -5   3  -9    0.06    0.25
   5  -3   9    0.16    0.65
   5  -3   9    0.75    0.90
  -6   3  -9   -0.51    0.26
   6  -3   9    0.04    0.90
   6  -3   9    0.60    0.65
  -7   3  -9    0.46    0.33
   7  -3   9    1.50    0.67
   7  -3   9    1.61    1.00
   8  -3   9    0.76    0.92
   8  -3   9    1.71    0.65
  -9   3  -9    0.09    0.39
   9  -3   9    2.33    1.05
   9   2  -9    0.06    0.92
   8   2  -9   -0.81    0.79
   7   2  -9    0.37    0.82
   7   2  -9    0.37    0.43
   6   2  -9   -0.38    0.41
   6   2  -9    0.16    0.76
   5   2  -9    8.09    1.01
   5   2  -9    7.12    0.67
   4   2  -9    9.40    0.68
   3   2  -9    0.08    0.33
   2   2  -9   -0.25    0.29
   1   2  -9    0.87    0.33
   0   2  -9    5.11    0.55
  -1   2  -9    6.65    0.57
  -2   2  -9    4.69    0.54
   3  -2   9    1.71    1.00
   3  -2   9    2.14    0.71
  -4   2  -9    0.68    0.32
   4  -2   9    1.07    1.00
   4  -2   9    1.44    0.74
  -5   2  -9    1.09    0.29
   5  -2   9    1.47    0.71
   5  -2   9    1.82    0.99
  -6   2  -9    0.75    0.30
   6  -2   9    1.37    0.67
   6  -2   9    1.11    0.96
  -7   2  -9   -0.43    0.31
   7  -2   9    0.96    0.93
   7  -2   9    0.62    0.63
   8  -2   9    2.68    1.00
   8  -2   9    2.45    0.67
  -9   2  -9    0.23    0.40
   9  -2   9    1.99    0.93
   9   1  -9    0.10    0.93
   8   1  -9   -0.27    0.81
   7   1  -9    0.41    0.43
   7   1  -9   -0.18    0.80
   6   1  -9    2.13    0.47
   6   1  -9    2.35    0.91
   5   1  -9    4.65    0.61
   5   1  -9    3.89    0.94
   4   1  -9    1.55    0.38
   4   1  -9    0.86    0.81
   3   1  -9   -0.07    0.31
   2   1  -9    0.30    0.34
   1   1  -9    5.14    0.56
   0   1  -9    2.08    0.38
  -1   1  -9    0.26    0.33
  -2   1  -9    0.22    0.34
  -3   1  -9   -0.01    0.34
   3  -1   9    0.47    0.66
   3  -1   9    0.28    0.93
  -4   1  -9    4.61    0.61
   4  -1   9    4.64    0.83
   4  -1   9    5.10    1.19
  -5   1  -9    3.02    0.36
   5  -1   9    3.09    0.77
   5  -1   9    2.95    1.12
  -6   1  -9    0.17    0.29
   6  -1   9    0.53    0.66
   6  -1   9    0.62    0.94
  -7   1  -9    0.90    0.35
   7  -1   9    1.27    0.97
   7  -1   9    2.25    0.68
   8  -1   9    1.93    0.95
   8  -1   9    2.40    0.65
  -9   1  -9    0.02    0.37
   9  -1   9    1.89    0.93
   9   0  -9    0.47    0.97
   8   0  -9   -0.03    0.88
   7   0  -9    0.91    0.45
   7   0  -9    0.72    0.90
   6   0  -9   -0.13    0.78
   6   0  -9    0.67    0.41
   5   0  -9    0.35    0.38
   5   0  -9    0.24    0.82
   4   0  -9    0.57    0.36
   4   0  -9    0.50    0.73
   3   0  -9    2.91    0.42
   2   0  -9    0.10    0.34
   1   0  -9   12.10    0.72
   0   0  -9    4.74    0.61
  -1   0  -9    5.80    0.65
  -2   0  -9   -0.09    0.38
  -3   0  -9    1.26    0.44
   3   0   9    1.52    0.69
   3   0   9    1.95    1.01
  -4   0  -9    1.93    0.45
   4   0   9    2.00    0.74
   4   0   9    1.84    1.04
  -5   0  -9    0.16    0.39
  -5   0  -9    0.12    0.27
   5   0   9    0.42    0.94
   5   0   9   -0.01    0.63
  -6   0  -9    4.30    0.42
   6   0   9    4.25    0.77
   6   0   9    4.43    1.12
  -7   0  -9    0.41    0.34
   7   0   9    1.86    0.65
   7   0   9    1.66    0.94
   8   0   9    2.56    0.94
   9   0   9    2.52    0.94
   9  -1  -9    0.88    1.03
   8  -1  -9    0.13    0.95
   7  -1  -9   -0.11    0.43
   7  -1  -9    0.41    0.93
   6  -1  -9    0.91    0.88
   6  -1  -9    1.46    0.42
   5  -1  -9    3.97    0.98
   5  -1  -9    5.73    0.62
   4  -1  -9    1.24    0.79
   4  -1  -9    0.98    0.39
   3  -1  -9    0.07    0.36
   2  -1  -9    0.60    0.38
   1  -1  -9    2.25    0.45
   0  -1  -9   13.61    0.82
  -1  -1  -9    0.25    0.41
  -2  -1  -9    2.43    0.51
  -3  -1  -9    5.62    0.75
   3   1   9    6.09    0.83
   3   1   9    6.59    1.18
  -4  -1  -9    0.27    0.43
   4   1   9    0.19    0.66
   4   1   9   -0.04    0.92
  -5  -1  -9    2.92    0.53
   5   1   9    3.35    0.74
   5   1   9    3.40    1.05
  -6  -1  -9    1.89    0.34
   6   1   9    1.75    0.66
   6   1   9    2.04    0.97
  -7  -1  -9    1.17    0.35
   7   1   9    2.48    0.63
   7   1   9    2.15    0.91
  -8  -1  -9    0.90    0.38
  -9  -1  -9    0.45    0.40
   9  -2  -9    0.99    1.17
   8  -2  -9    0.00    1.04
   7  -2  -9   -0.08    0.93
   6  -2  -9    0.83    0.42
   6  -2  -9   -0.35    0.85
   5  -2  -9   -0.93    0.77
   5  -2  -9    0.31    0.40
   4  -2  -9    8.23    0.70
   4  -2  -9    7.03    1.00
   3  -2  -9   -0.21    0.39
   2  -2  -9   -0.26    0.40
   1  -2  -9    1.89    0.47
   0  -2  -9    0.39    0.43
  -1  -2  -9    2.07    0.53
  -2  -2  -9   13.02    0.90
  -3  -2  -9    0.57    0.50
   3   2   9    0.44    0.66
   3   2   9    0.27    0.90
  -4  -2  -9    0.69    0.50
   4   2   9    0.77    0.67
   4   2   9    1.03    0.31
   4   2   9    1.81    0.99
  -5  -2  -9    0.69    0.49
   5   2   9   -0.05    0.29
   5   2   9    0.30    1.61
  -7  -2  -9    0.94    0.36
  -8  -2  -9    0.70    0.36
  -9  -2  -9    0.63    0.43
   8  -3  -9   -0.04    1.02
   7  -3  -9   -0.59    0.93
   6  -3  -9   -0.80    0.84
   6  -3  -9    0.14    0.42
   5  -3  -9    1.73    0.98
   5  -3  -9    1.68    0.47
   4  -3  -9    3.94    0.55
   4  -3  -9    3.12    0.93
   3  -3  -9    5.58    0.74
   2  -3  -9   10.13    0.84
   1  -3  -9   -0.01    0.46
   0  -3  -9    1.18    0.51
  -1  -3  -9    0.32    0.50
  -2  -3  -9    2.52    0.58
  -3  -3  -9    0.48    0.55
  -4  -3  -9    2.72    0.60
   4   3   9    2.67    0.44
  -5  -3  -9    8.21    0.89
   5   3   9    5.14    0.54
   6   3   9    2.15    0.40
   7   3   9    0.73    0.39
   8  -4  -9   -0.01    1.05
   7  -4  -9   -0.62    0.97
   6  -4  -9    0.53    0.95
   6  -4  -9    1.33    0.49
   5  -4  -9    1.17    0.50
   5  -4  -9    0.26    0.87
   4  -4  -9    0.45    0.83
   4  -4  -9    1.26    0.50
   3  -4  -9    1.97    0.54
   2  -4  -9    4.72    0.65
   1  -4  -9    6.42    0.88
   0  -4  -9    0.93    0.54
  -1  -4  -9   -0.16    0.54
  -2  -4  -9    0.40    0.57
  -3  -4  -9    0.18    0.56
  -4  -4  -9    7.27    0.94
   4   4   9    5.73    0.66
  -5  -4  -9    3.86    0.64
   5   4   9    2.25    0.39
  -6  -4  -9    2.08    0.59
   6   4   9    0.59    0.37
   7   4   9    0.92    0.41
   8   4   9    0.23    0.43
   8  -5  -9    0.11    1.12
   7  -5  -9   -0.28    1.01
   6  -5  -9    0.28    0.98
   5  -5  -9    0.41    0.50
   5  -5  -9   -0.10    0.89
   4  -5  -9    2.25    0.57
   4  -5  -9    1.92    0.93
   3  -5  -9    0.40    0.54
   2  -5  -9    7.64    0.94
   1  -5  -9   -0.04    0.55
   0  -5  -9    7.61    0.98
  -1  -5  -9    6.44    0.80
  -2  -5  -9    0.33    0.58
  -3  -5  -9    2.32    0.64
  -4  -5  -9    1.28    0.62
  -5  -5  -9    1.56    0.59
   5   5   9   -0.08    0.35
  -6  -5  -9    2.68    0.64
   6   5   9    0.84    0.40
   7   5   9    0.66    0.42
   7  -6  -9   -0.59    1.08
   5  -6  -9    1.51    0.57
   4  -6  -9    0.91    0.56
   3  -6  -9    1.90    0.63
   2  -6  -9    0.86    0.62
   1  -6  -9    2.08    0.67
   0  -6  -9    2.98    0.72
  -1  -6  -9    0.67    0.62
  -2  -6  -9    4.14    0.76
  -3  -6  -9    1.65    0.66
  -4  -6  -9    2.48    0.67
  -5  -6  -9    2.60    0.68
   5   6   9    0.64    0.47
  -6  -6  -9    2.13    0.67
   6   6   9    0.78    0.43
   5  -7  -9    1.68    0.62
   4  -7  -9    3.13    0.68
   3  -7  -9    1.36    0.64
   2  -7  -9    1.89    0.70
   1  -7  -9    2.40    0.71
   0  -7  -9    0.80    0.65
  -1  -7  -9    2.70    0.75
  -2  -7  -9    2.07    0.71
  -3  -7  -9    2.58    0.74
  -4  -7  -9    1.96    0.73
   4  -8  -9    0.98    0.65
   3  -8  -9    1.26    0.68
   2  -8  -9    1.93    0.72
   1  -8  -9    2.03    0.74
   0  -8  -9    3.10    0.79
  -1  -8  -9    2.25    0.79
   0  12 -10   -1.32    0.70
   0 -12  10    1.67    0.63
   1 -12  10    1.33    0.66
   2  11 -10   -1.53    0.64
   1  11 -10   -0.82    0.61
   0  11 -10   -0.91    0.59
  -1  11 -10   -0.18    0.60
   4  10 -10   -1.08    0.66
   3  10 -10   -0.78    0.63
   2  10 -10   -0.39    0.61
   1  10 -10   -0.80    0.56
   0  10 -10    0.23    0.56
  -1  10 -10   -0.94    0.52
  -2  10 -10   -1.10    0.59
   3 -10  10    2.66    0.92
   3 -10  10    1.43    0.97
   4 -10  10    1.88    0.99
   4 -10  10    3.83    0.93
   5 -10  10    3.95    0.89
   5 -10  10    1.65    0.89
   6 -10  10    6.81    1.02
   5   9 -10   -0.67    0.63
   4   9 -10   -1.05    0.59
   3   9 -10    0.28    0.60
   2   9 -10   -0.10    0.54
   1   9 -10    0.54    0.52
   0   9 -10    0.53    0.51
   0  -9  10   -1.44    0.94
   0  -9  10   -0.79    1.03
  -1   9 -10   -0.15    0.47
   1  -9  10   -0.89    0.95
   1  -9  10    0.10    1.03
  -2   9 -10   -0.11    0.47
   2  -9  10    0.93    1.05
   2  -9  10    0.98    0.95
   3  -9  10    1.51    0.89
   3  -9  10    0.95    0.97
   4  -9  10    2.98    0.91
   4  -9  10    1.25    0.94
   5  -9  10    2.12    1.01
   5  -9  10    3.60    0.92
   6  -9  10    4.09    0.88
   6  -9  10    1.21    0.90
   6   8 -10   -0.55    0.60
   5   8 -10   -0.49    0.57
   4   8 -10   -0.13    0.56
   3   8 -10    0.15    0.55
   2   8 -10    0.75    0.54
   1   8 -10   -0.05    0.49
   0   8 -10    0.16    0.48
  -1   8 -10    1.26    0.49
   1  -8  10    1.20    1.09
   1  -8  10    0.24    0.93
  -2   8 -10   -0.43    0.44
   2  -8  10   -0.11    1.01
   2  -8  10   -0.85    0.91
   3  -8  10    2.97    0.99
   3  -8  10    2.42    1.12
   4  -8  10    2.18    1.04
   4  -8  10    1.86    0.94
   5  -8  10    1.90    0.86
   5  -8  10    1.55    0.97
   6  -8  10    1.85    0.97
   6  -8  10    3.60    0.88
   7  -8  10    3.63    0.89
   7  -8  10    2.19    1.04
   8   7 -10   -1.29    0.75
   7   7 -10   -0.69    0.57
   6   7 -10   -0.35    0.56
   5   7 -10   -0.13    0.56
   4   7 -10   -0.23    0.54
   3   7 -10    1.24    0.54
   2   7 -10    0.14    0.48
   1   7 -10    0.69    0.46
   0   7 -10    0.75    0.43
  -1   7 -10   -0.13    0.40
   1  -7  10   -0.97    0.84
   1  -7  10    0.00    1.00
  -2   7 -10    6.56    0.67
   2  -7  10    4.52    1.20
   2  -7  10    6.64    1.07
  -3   7 -10    0.68    0.41
   3  -7  10    1.37    0.93
   3  -7  10    1.30    1.07
   4  -7  10    0.98    0.98
   4  -7  10    0.81    0.85
   5  -7  10    0.94    0.97
   5  -7  10    1.75    0.88
   6  -7  10    1.28    0.96
   6  -7  10    3.24    0.86
   7  -7  10    2.87    0.88
   7  -7  10    1.94    0.99
   8   6 -10   -0.88    0.57
   7   6 -10    0.12    0.57
   6   6 -10   -0.39    0.53
   5   6 -10    0.38    0.52
   4   6 -10    2.78    0.57
   3   6 -10   -0.55    0.46
   2   6 -10   -0.53    0.41
   1   6 -10    2.00    0.46
   0   6 -10    0.70    0.41
  -1   6 -10    0.54    0.39
  -2   6 -10    1.36    0.40
   2  -6  10    0.41    0.86
   2  -6  10    1.36    1.06
  -3   6 -10    3.42    0.44
   3  -6  10    4.01    1.20
   3  -6  10    5.45    1.01
   4  -6  10    1.65    1.05
   4  -6  10    2.15    0.92
   5  -6  10    1.02    0.84
   5  -6  10    0.14    0.94
   6  -6  10    1.04    0.97
   6  -6  10    1.92    0.80
   7  -6  10    1.41    1.00
   7  -6  10    2.24    0.81
   8  -6  10    3.18    0.95
   8  -6  10    1.92    1.16
   9   5 -10    0.00    1.02
   8   5 -10    0.22    0.98
   8   5 -10    0.25    0.58
   7   5 -10   -0.17    0.52
   6   5 -10   -0.25    0.48
   5   5 -10    1.65    0.53
   4   5 -10   -0.64    0.46
   3   5 -10    0.55    0.46
   1   5 -10   -0.27    0.38
   0   5 -10    1.13    0.41
  -1   5 -10    1.90    0.41
  -2   5 -10    1.60    0.39
   2  -5  10    1.42    0.88
   2  -5  10    1.63    1.10
  -3   5 -10    1.28    0.36
   3  -5  10    0.92    1.04
   3  -5  10    0.64    0.84
   4  -5  10    1.20    1.05
   4  -5  10    1.94    0.87
   5  -5  10    1.32    0.99
   5  -5  10    1.33    0.77
   6  -5  10    1.29    0.74
   6  -5  10    1.23    0.96
   7  -5  10    1.82    0.72
   7  -5  10    2.00    1.01
   8  -5  10    3.27    1.06
   8  -5  10    3.10    0.74
   9   4 -10   -0.84    0.96
   8   4 -10    0.71    0.92
   8   4 -10   -0.14    0.52
   7   4 -10    0.18    0.85
   7   4 -10    0.17    0.49
   6   4 -10    0.31    0.48
   5   4 -10   -0.01    0.45
   4   4 -10    2.74    0.50
   3   4 -10   -0.64    0.40
   2   4 -10    2.25    0.46
   1   4 -10    1.61    0.43
   0   4 -10    1.03    0.40
  -1   4 -10   -0.06    0.36
  -2   4 -10    8.80    0.65
   2  -4  10    7.60    1.00
   2  -4  10    9.71    1.36
  -3   4 -10   -0.15    0.32
   3  -4  10    0.00    0.76
   3  -4  10    0.83    1.01
   4  -4  10    1.91    1.08
   4  -4  10    2.00    0.82
   5  -4  10   -0.39    0.94
   5  -4  10    0.25    0.71
   6  -4  10    0.98    1.05
   6  -4  10    2.63    0.81
   7  -4  10    1.86    0.75
   7  -4  10    2.49    1.11
   8  -4  10    1.08    0.93
   8  -4  10    1.76    0.66
   9   3 -10   -0.32    0.94
   8   3 -10    0.09    0.94
   8   3 -10   -0.42    0.49
   7   3 -10    0.58    0.86
   7   3 -10    0.19    0.48
   6   3 -10   -0.29    0.44
   6   3 -10   -0.31    0.77
   5   3 -10    1.65    0.49
   4   3 -10   -0.22    0.44
   3   3 -10    4.27    0.53
   2   3 -10    5.34    0.64
   1   3 -10   -0.27    0.35
   0   3 -10    5.20    0.61
  -1   3 -10    1.10    0.37
  -2   3 -10    0.07    0.33
  -3   3 -10    3.18    0.42
   3  -3  10    4.35    0.85
   3  -3  10    3.64    1.15
  -4   3 -10   -0.47    0.30
   4  -3  10    0.44    0.77
   4  -3  10    0.50    1.07
   5  -3  10    0.94    1.05
   5  -3  10    1.29    0.75
   6  -3  10    1.43    1.10
   6  -3  10    2.10    0.79
   7  -3  10    1.52    0.69
   7  -3  10    1.61    1.01
   8  -3  10    2.20    1.04
   8  -3  10    3.18    0.75
   9   2 -10   -0.01    1.06
   8   2 -10    0.16    0.92
   7   2 -10   -0.13    0.45
   7   2 -10   -0.10    0.84
   6   2 -10    1.01    0.85
   6   2 -10    1.08    0.47
   5   2 -10   -0.01    0.43
   4   2 -10    3.73    0.51
   3   2 -10   14.99    0.81
   2   2 -10   -0.07    0.34
   1   2 -10    1.84    0.42
   0   2 -10    3.77    0.48
  -1   2 -10    1.94    0.42
  -2   2 -10    4.21    0.49
  -3   2 -10   -0.30    0.35
   3  -2  10   -0.65    0.97
   3  -2  10    0.45    0.72
  -4   2 -10    1.64    0.39
   4  -2  10    1.49    0.79
   4  -2  10    0.93    1.11
   5  -2  10    4.67    0.87
   5  -2  10    4.32    1.21
   6  -2  10    0.85    0.71
   6  -2  10    1.81    1.03
   7  -2  10    1.91    1.07
   7  -2  10    2.78    0.76
   8  -2  10    2.56    0.70
   8  -2  10    2.25    0.97
   9  -2  10    2.62    1.26
   9   1 -10    0.88    1.34
   8   1 -10    0.39    0.93
   7   1 -10    1.01    0.48
   7   1 -10    1.63    0.96
   6   1 -10   -0.14    0.44
   6   1 -10   -0.67    0.75
   5   1 -10    0.87    0.43
   5   1 -10    0.66    0.78
   4   1 -10    5.09    0.65
   3   1 -10    1.55    0.43
   2   1 -10    1.71    0.41
   1   1 -10    3.30    0.47
   0   1 -10    3.93    0.49
  -1   1 -10    4.14    0.51
  -2   1 -10   -0.23    0.38
  -3   1 -10    2.93    0.48
   3  -1  10    2.09    1.09
   3  -1  10    3.07    0.79
  -4   1 -10    0.72    0.41
   4  -1  10    1.13    0.79
   4  -1  10    2.09    1.12
   5  -1  10    0.93    0.76
   5  -1  10    0.15    1.04
   6  -1  10    4.54    0.83
   6  -1  10    4.30    1.18
   7  -1  10    1.85    0.68
   7  -1  10    2.53    1.03
   8  -1  10    2.70    0.67
   8  -1  10    3.04    1.06
   9  -1  10    3.22    1.01
   8   0 -10   -0.08    0.92
   7   0 -10    0.00    0.46
   7   0 -10   -0.13    0.87
   6   0 -10    0.51    0.86
   6   0 -10   -0.04    0.42
   5   0 -10    0.31    0.41
   5   0 -10    1.08    0.85
   4   0 -10    0.46    0.42
   3   0 -10    2.88    0.48
   2   0 -10    0.17    0.38
   1   0 -10    1.21    0.43
   0   0 -10    7.41    0.72
  -1   0 -10   -0.33    0.42
  -2   0 -10    6.69    0.77
  -3   0 -10    1.38    0.49
   3   0  10    0.76    1.05
   3   0  10    1.16    0.74
  -4   0 -10    0.76    0.46
   4   0  10    0.02    1.04
   4   0  10    0.20    0.75
  -5   0 -10    6.42    0.83
   5   0  10    5.66    1.25
   5   0  10    5.15    0.87
   6   0  10    1.55    0.70
   6   0  10    1.23    1.00
   7   0  10    3.47    1.04
   7   0  10    5.92    0.86
   8   0  10    2.99    1.02
   8   0  10    2.91    0.66
   8  -1 -10   -0.80    0.95
   7  -1 -10    0.38    0.94
   7  -1 -10    1.46    0.48
   6  -1 -10    0.42    0.91
   6  -1 -10    0.93    0.44
   5  -1 -10    0.24    0.81
   5  -1 -10    0.65    0.43
   4  -1 -10    2.31    0.48
   3  -1 -10    0.90    0.45
   2  -1 -10    2.46    0.50
   1  -1 -10    0.17    0.44
   0  -1 -10    0.09    0.45
  -1  -1 -10    4.76    0.61
  -2  -1 -10    5.03    0.64
  -3  -1 -10    1.69    0.55
   3   1  10    1.68    1.08
   3   1  10    0.74    0.73
  -4  -1 -10    7.69    0.85
   4   1  10    6.29    0.93
   4   1  10    5.72    1.29
  -5  -1 -10    1.23    0.52
   5   1  10    1.31    1.00
   5   1  10    1.45    0.70
   6   1  10    4.69    1.15
   6   1  10    6.04    0.88
   8  -2 -10   -0.60    1.05
   7  -2 -10    0.40    0.99
   6  -2 -10    0.80    0.92
   6  -2 -10    0.25    0.43
   5  -2 -10    2.69    0.95
   5  -2 -10    1.86    0.48
   4  -2 -10    2.69    0.53
   3  -2 -10    7.55    0.78
   2  -2 -10    7.66    0.81
   1  -2 -10    0.83    0.49
   0  -2 -10    1.18    0.52
  -1  -2 -10    1.16    0.53
  -2  -2 -10    1.40    0.57
  -3  -2 -10    1.94    0.59
   3   2  10    0.32    0.73
   3   2  10    0.71    1.03
  -4  -2 -10    0.69    0.55
   4   2  10    0.13    0.75
   4   2  10    0.04    1.10
  -5  -2 -10    2.32    0.59
   8  -3 -10   -0.46    1.06
   7  -3 -10    0.09    1.01
   6  -3 -10    0.52    0.94
   6  -3 -10    0.92    0.47
   5  -3 -10    0.34    0.47
   5  -3 -10    0.16    0.84
   4  -3 -10    3.42    0.57
   3  -3 -10    7.41    0.84
   2  -3 -10   -0.01    0.50
   1  -3 -10    2.35    0.61
   0  -3 -10    0.65    0.55
  -1  -3 -10   -0.10    0.55
  -2  -3 -10    1.58    0.62
  -3  -3 -10    0.36    0.58
  -4  -3 -10    1.83    0.62
  -5  -3 -10    2.20    0.62
   7  -4 -10    0.01    1.04
   6  -4 -10   -0.43    0.93
   6  -4 -10    1.20    0.52
   5  -4 -10   -0.42    0.85
   5  -4 -10    0.58    0.50
   4  -4 -10    1.38    0.55
   3  -4 -10    0.56    0.54
   2  -4 -10    4.89    0.71
   1  -4 -10    0.47    0.59
   0  -4 -10    3.41    0.72
  -1  -4 -10    5.01    0.77
  -2  -4 -10    2.49    0.69
  -3  -4 -10    1.37    0.65
  -4  -4 -10    1.10    0.63
  -5  -4 -10    1.48    0.63
   7  -5 -10   -0.50    1.11
   6  -5 -10    0.06    0.98
   5  -5 -10    0.86    0.99
   5  -5 -10    1.47    0.60
   4  -5 -10    0.76    0.56
   3  -5 -10    1.39    0.62
   2  -5 -10    0.20    0.59
   1  -5 -10    2.59    0.70
   0  -5 -10    3.16    0.74
  -1  -5 -10    1.01    0.68
  -2  -5 -10   10.14    1.10
  -3  -5 -10    1.45    0.67
  -4  -5 -10    1.76    0.67
  -5  -5 -10    2.61    0.70
  -6  -5 -10    1.57    0.71
   5  -6 -10    1.38    0.62
   4  -6 -10    2.50    0.67
   3  -6 -10    1.77    0.64
   2  -6 -10    1.72    0.69
   1  -6 -10    0.95    0.69
   0  -6 -10    1.01    0.72
  -1  -6 -10    3.03    0.78
  -2  -6 -10    1.60    0.72
  -3  -6 -10    3.01    0.77
  -4  -6 -10    3.61    0.78
  -5  -6 -10    1.70    0.75
   5  -7 -10    1.54    0.68
   4  -7 -10    1.14    0.64
   3  -7 -10    1.31    0.69
   2  -7 -10    1.44    0.71
   1  -7 -10    1.66    0.75
   0  -7 -10    3.94    0.84
  -1  -7 -10    1.00    0.76
  -2  -7 -10    2.40    1.01
   1  11 -11   -1.92    0.94
   0  11 -11   -1.16    0.61
  -1  11 -11   -1.16    0.59
   3  10 -11   -0.50    0.69
   2  10 -11   -1.35    0.60
   1  10 -11   -0.61    0.59
   0  10 -11   -0.85    0.55
  -1  10 -11   -1.36    0.53
   2 -10  11    1.37    1.06
   2 -10  11    1.53    1.14
   3 -10  11    1.71    0.96
   3 -10  11    2.63    1.10
   4 -10  11    1.54    1.01
   4 -10  11    2.81    0.95
   5 -10  11    4.17    0.94
   5 -10  11    1.98    1.01
   4   9 -11   -0.99    0.63
   3   9 -11   -0.07    0.61
   2   9 -11    0.97    0.61
   1   9 -11   -0.35    0.56
   0   9 -11   -0.25    0.53
   0  -9  11   -2.34    1.05
  -1   9 -11    0.31    0.52
   1  -9  11    0.19    1.03
   1  -9  11    0.65    1.10
  -2   9 -11   -0.84    0.48
   2  -9  11   -0.16    1.04
   2  -9  11    0.29    1.00
   3  -9  11    1.00    1.04
   3  -9  11    1.41    0.97
   4  -9  11    1.51    0.95
   4  -9  11    1.04    1.04
   5  -9  11    3.53    0.95
   5  -9  11    1.49    1.02
   5   8 -11   -0.57    0.62
   4   8 -11   -0.51    0.61
   3   8 -11    1.40    0.63
   2   8 -11    0.00    0.56
   1   8 -11    0.42    0.54
   0   8 -11    0.44    0.51
  -1   8 -11   -0.35    0.47
   1  -8  11   -1.04    1.06
   1  -8  11   -1.69    0.96
  -2   8 -11    0.41    0.48
   2  -8  11    0.51    1.04
   2  -8  11    0.42    1.12
   3  -8  11    0.16    0.96
   3  -8  11    0.06    1.04
   4  -8  11    3.00    0.97
   4  -8  11    2.03    1.09
   5  -8  11    2.54    0.96
   5  -8  11    1.98    1.06
   6  -8  11    1.49    1.04
   6  -8  11    2.78    0.91
   7   7 -11    0.02    0.80
   6   7 -11   -0.65    0.61
   5   7 -11   -0.16    0.60
   4   7 -11    1.14    0.59
   3   7 -11    0.34    0.55
   2   7 -11   -0.08    0.51
   1   7 -11   -0.47    0.48
   0   7 -11   -0.54    0.44
  -1   7 -11    1.85    0.48
   1  -7  11    0.56    0.97
   1  -7  11    0.22    1.08
  -2   7 -11    0.50    0.44
   2  -7  11   -0.14    1.08
   2  -7  11   -0.36    0.96
   3  -7  11    3.55    1.21
   3  -7  11    3.80    1.06
   4  -7  11    0.60    1.04
   4  -7  11    1.50    0.94
   5  -7  11    0.89    1.00
   5  -7  11    1.89    0.90
   6  -7  11    2.78    0.94
   6  -7  11    1.47    1.06
   7   6 -11   -0.36    0.60
   6   6 -11   -0.20    0.57
   5   6 -11    0.57    0.57
   4   6 -11   -0.08    0.53
   3   6 -11    1.31    0.54
   2   6 -11   -0.71    0.48
   1   6 -11   -0.09    0.46
   0   6 -11   -0.07    0.43
  -1   6 -11   -0.25    0.41
  -2   6 -11    2.18    0.46
   2  -6  11    0.73    1.16
   2  -6  11    2.93    1.01
  -3   6 -11    0.77    0.41
   3  -6  11    1.70    1.01
   3  -6  11    1.09    1.15
   4  -6  11    1.55    1.12
   4  -6  11    1.38    0.95
   5  -6  11    1.33    1.08
   5  -6  11    1.45    0.90
   6  -6  11    2.12    0.84
   6  -6  11    1.42    1.03
   7  -6  11    2.86    1.13
   7  -6  11    3.54    0.87
   8   5 -11   -0.49    0.59
   7   5 -11   -0.18    0.55
   6   5 -11    0.30    0.54
   5   5 -11   -0.28    0.51
   4   5 -11    2.82    0.57
   3   5 -11   -1.02    0.46
   2   5 -11   -0.30    0.46
   1   5 -11   -0.47    0.43
   0   5 -11    0.00    0.42
  -1   5 -11    0.41    0.42
  -2   5 -11    0.68    0.41
   2  -5  11    0.75    1.11
   2  -5  11    1.13    0.90
  -3   5 -11    0.82    0.40
   3  -5  11    0.84    1.13
   3  -5  11    0.67    0.92
   4  -5  11    3.22    0.95
   4  -5  11    2.18    1.16
   5  -5  11    1.01    0.81
   5  -5  11    2.22    1.13
   6  -5  11    2.51    0.81
   6  -5  11    3.08    1.15
   7  -5  11    1.51    1.02
   7  -5  11    2.15    0.76
   8   4 -11   -0.58    0.54
   8   4 -11   -0.67    0.95
   7   4 -11   -0.19    0.51
   6   4 -11   -0.11    0.50
   5   4 -11    0.99    0.52
   4   4 -11    0.48    0.50
   3   4 -11    4.25    0.60
   2   4 -11    3.71    0.55
   1   4 -11   -0.19    0.43
   0   4 -11    0.10    0.43
  -1   4 -11    3.51    0.50
  -2   4 -11    0.40    0.40
   2  -4  11    0.77    1.12
   2  -4  11    0.52    0.83
  -3   4 -11    0.80    0.40
   3  -4  11    0.62    0.83
   3  -4  11    1.31    1.13
   4  -4  11    0.91    1.09
   4  -4  11    0.61    0.84
   5  -4  11    0.65    1.10
   5  -4  11    0.63    0.81
   6  -4  11    1.30    0.76
   6  -4  11    1.59    1.06
   7  -4  11    2.51    0.79
   7  -4  11    3.25    1.19
   8   3 -11   -0.12    0.53
   8   3 -11   -0.06    0.90
   7   3 -11    0.33    0.89
   7   3 -11   -0.12    0.51
   6   3 -11   -0.21    0.48
   5   3 -11    0.00    0.48
   4   3 -11    1.69    0.52
   3   3 -11    9.03    0.82
   2   3 -11    1.90    0.49
   1   3 -11    0.26    0.43
   0   3 -11   -0.04    0.40
  -1   3 -11    1.58    0.45
  -2   3 -11    2.36    0.45
  -3   3 -11    0.21    0.38
   3  -3  11   -0.84    0.77
   3  -3  11   -0.24    1.10
  -4   3 -11   -0.16    0.38
   4  -3  11   -0.27    1.14
   4  -3  11   -0.19    0.82
   5  -3  11    0.36    1.10
   5  -3  11    1.06    0.79
   6  -3  11    1.65    0.78
   6  -3  11    1.36    1.07
   7  -3  11    2.49    0.76
   7  -3  11    2.27    1.10
   8  -3  11    2.59    0.75
   8  -3  11    1.71    1.06
   8   2 -11   -0.08    0.88
   8   2 -11   -0.19    0.84
   7   2 -11   -0.62    0.49
   7   2 -11   -0.10    0.78
   6   2 -11   -0.14    0.48
   5   2 -11    0.41    0.48
   4   2 -11    1.17    0.49
   3   2 -11    0.85    0.46
   2   2 -11    1.81    0.47
   1   2 -11    1.79    0.46
   0   2 -11    0.27    0.42
  -1   2 -11    4.99    0.56
  -2   2 -11    0.85    0.45
  -3   2 -11    0.97    0.44
   3  -2  11    0.20    1.11
   3  -2  11    0.52    0.78
  -4   2 -11    0.14    0.43
   4  -2  11    0.95    1.21
   4  -2  11   -0.31    0.78
   5  -2  11    1.81    1.19
   5  -2  11    0.12    0.80
   6  -2  11    1.52    1.09
   6  -2  11    1.61    0.76
   7  -2  11    1.67    1.05
   7  -2  11    1.87    0.72
   8  -2  11    3.10    0.72
   8  -2  11    3.06    1.02
   8   1 -11    0.67    0.96
   7   1 -11   -0.10    0.81
   7   1 -11   -0.83    0.48
   6   1 -11    0.15    0.47
   6   1 -11   -0.33    0.78
   5   1 -11   -0.25    0.43
   4   1 -11   -0.03    0.44
   3   1 -11    1.81    0.49
   2   1 -11    0.21    0.44
   1   1 -11    3.11    0.53
   0   1 -11    0.66    0.44
  -1   1 -11   -0.24    0.43
  -2   1 -11    5.35    0.61
  -3   1 -11    1.01    0.47
   3  -1  11   -0.13    0.76
   3  -1  11    0.41    1.11
  -4   1 -11    0.12    0.44
   4  -1  11   -0.25    0.79
   4  -1  11    0.44    1.13
   5  -1  11    4.16    1.36
   5  -1  11    3.12    0.88
   6  -1  11    1.83    0.76
   6  -1  11    2.17    1.15
   7  -1  11    2.82    0.75
   7  -1  11    2.88    1.11
   8  -1  11    3.83    1.06
   8  -1  11    6.15    0.87
   8   0 -11   -0.70    1.05
   7   0 -11    0.53    0.52
   7   0 -11    1.21    1.01
   6   0 -11    0.22    0.46
   6   0 -11    0.31    0.88
   5   0 -11    0.03    0.44
   4   0 -11    0.16    0.46
   3   0 -11    0.41    0.47
   2   0 -11    3.55    0.55
   1   0 -11    0.59    0.46
   0   0 -11    0.42    0.48
  -1   0 -11    4.47    0.63
  -2   0 -11    1.68    0.55
  -3   0 -11    1.03    0.53
   3   0  11   -0.65    0.77
   3   0  11   -0.60    1.10
  -4   0 -11    5.03    0.66
   4   0  11    4.40    0.93
   4   0  11    2.80    1.25
   5   0  11    1.35    1.14
   5   0  11    1.22    0.77
   6   0  11    1.77    0.75
   6   0  11    2.01    1.09
   7   0  11    3.02    1.08
   7   0  11    3.02    0.73
   7  -1 -11   -0.62    0.94
   7  -1 -11    0.32    0.48
   6  -1 -11   -0.38    0.90
   6  -1 -11    0.35    0.47
   5  -1 -11    0.42    0.48
   4  -1 -11    0.54    0.48
   3  -1 -11    1.77    0.52
   2  -1 -11    2.46    0.56
   1  -1 -11    3.50    0.60
   0  -1 -11    1.11    0.55
  -1  -1 -11    0.20    0.54
  -2  -1 -11    2.26    0.61
  -3  -1 -11    2.16    0.61
   3   1  11    0.43    0.82
   3   1  11    0.33    1.13
  -4  -1 -11    2.91    0.63
   4   1  11    1.45    1.18
   4   1  11    2.20    0.86
  -5  -1 -11    0.64    0.57
   5   1  11    0.89    1.09
   5   1  11    0.80    0.73
   7  -2 -11   -0.31    0.97
   6  -2 -11    0.45    0.50
   6  -2 -11   -0.09    0.90
   5  -2 -11    0.36    0.48
   4  -2 -11    3.50    0.58
   3  -2 -11    2.41    0.58
   2  -2 -11    0.10    0.54
   1  -2 -11    0.54    0.57
   0  -2 -11    0.33    0.57
  -1  -2 -11    1.68    0.62
  -2  -2 -11    0.85    0.60
  -3  -2 -11    1.45    0.62
   3   2  11   -1.43    1.10
   3   2  11   -1.16    0.76
  -4  -2 -11    0.44    0.58
  -5  -2 -11    1.73    0.61
   7  -3 -11   -0.43    1.03
   6  -3 -11    0.31    0.98
   6  -3 -11    0.51    0.52
   5  -3 -11    1.18    0.53
   4  -3 -11    1.03    0.54
   3  -3 -11    1.40    0.58
   2  -3 -11    2.95    0.66
   1  -3 -11    0.64    0.60
   0  -3 -11    4.07    0.75
  -1  -3 -11    0.40    0.62
  -2  -3 -11    4.70    0.76
  -3  -3 -11    1.92    0.67
  -4  -3 -11    1.71    0.63
  -5  -3 -11    1.90    0.64
   7  -4 -11    0.03    1.31
   6  -4 -11    1.68    0.57
   6  -4 -11   -0.22    1.00
   5  -4 -11    0.87    0.56
   4  -4 -11    1.12    0.59
   3  -4 -11    1.16    0.61
   2  -4 -11    0.25    0.60
   1  -4 -11    1.87    0.69
   0  -4 -11    2.86    0.74
  -1  -4 -11    0.56    0.69
  -2  -4 -11    5.40    0.84
  -3  -4 -11    1.50    0.69
  -4  -4 -11    2.43    0.72
  -5  -4 -11    1.88    0.69
   6  -5 -11   -1.13    1.07
   5  -5 -11    0.83    0.60
   4  -5 -11    2.29    0.66
   3  -5 -11    1.28    0.66
   2  -5 -11    1.03    0.68
   1  -5 -11    0.43    0.68
   0  -5 -11    1.75    0.76
  -1  -5 -11    3.72    0.82
  -2  -5 -11    1.31    0.74
  -3  -5 -11    2.60    0.76
  -4  -5 -11    1.98    0.75
  -5  -5 -11    2.28    0.78
   5  -6 -11    1.01    0.70
   4  -6 -11    1.08    0.67
   3  -6 -11    1.31    0.69
   2  -6 -11    0.52    0.70
   1  -6 -11    1.90    0.81
   0  -6 -11    2.30    0.80
  -1  -6 -11    1.68    0.81
  -2  -6 -11    4.13    1.59
   1  10 -12   -0.94    0.62
   0  10 -12   -1.00    0.58
  -1  10 -12   -0.99    0.56
   1 -10  12   -0.26    1.94
   2 -10  12   -0.13    1.12
   2 -10  12    0.61    1.08
   3 -10  12    2.34    1.04
   3 -10  12    1.32    1.12
   4 -10  12    3.46    1.76
   4 -10  12    3.19    2.11
   3   9 -12   -0.32    0.67
   2   9 -12   -0.20    0.64
   1   9 -12    0.33    0.62
   0   9 -12   -0.39    0.58
   0  -9  12   -2.19    1.12
  -1   9 -12   -0.28    0.55
   1  -9  12   -1.44    1.07
   1  -9  12   -1.09    1.12
  -2   9 -12   -0.65    0.70
   2  -9  12    1.29    1.18
   2  -9  12    1.31    1.12
   3  -9  12    0.73    1.04
   3  -9  12    0.89    1.15
   4  -9  12    1.38    1.13
   4  -9  12    2.70    1.05
   4   8 -12   -0.94    0.66
   3   8 -12   -0.19    0.63
   2   8 -12    0.16    0.61
   1   8 -12   -0.35    0.56
   0   8 -12   -0.27    0.53
  -1   8 -12    1.47    0.54
   1  -8  12   -0.61    1.08
   1  -8  12    0.04    1.18
  -2   8 -12   -0.28    0.49
   2  -8  12    0.15    1.09
   2  -8  12   -0.19    1.17
   3  -8  12    1.16    1.07
   3  -8  12    0.84    1.15
   4  -8  12    1.80    1.14
   4  -8  12    2.28    1.03
   5  -8  12    1.96    1.14
   5  -8  12    2.23    1.03
   5   7 -12   -0.53    0.64
   4   7 -12    0.32    0.62
   3   7 -12    0.16    0.59
   2   7 -12   -0.80    0.55
   1   7 -12   -0.73    0.52
   0   7 -12   -0.30    0.48
  -1   7 -12    0.15    0.47
   1  -7  12   -1.67    1.11
  -2   7 -12    0.93    0.49
   2  -7  12    0.44    1.22
   2  -7  12   -0.66    1.06
   3  -7  12    0.93    1.19
   3  -7  12    1.23    1.06
   4  -7  12   -0.25    1.12
   4  -7  12    0.91    1.01
   5  -7  12    2.22    1.02
   5  -7  12    1.04    1.13
   6   6 -12    0.32    0.62
   5   6 -12   -0.06    0.60
   4   6 -12    0.68    0.59
   3   6 -12   -0.70    0.54
   2   6 -12    0.01    0.56
   1   6 -12   -0.44    0.50
   0   6 -12   -0.49    0.46
  -1   6 -12    0.50    0.47
  -2   6 -12   -0.01    0.44
   2  -6  12   -2.01    0.95
   2  -6  12   -1.33    1.14
  -3   6 -12    0.39    0.56
   3  -6  12    0.08    1.00
   3  -6  12    0.44    1.22
   4  -6  12    2.28    1.27
   4  -6  12    2.12    1.07
   5  -6  12    0.83    1.13
   5  -6  12    0.84    0.92
   6  -6  12    2.78    0.97
   6  -6  12    4.00    1.32
   7   5 -12   -0.52    0.59
   6   5 -12   -0.66    0.56
   5   5 -12    0.44    0.58
   4   5 -12   -0.64    0.54
   3   5 -12    0.75    0.55
   2   5 -12    0.07    0.54
   1   5 -12    0.89    0.52
   0   5 -12    2.12    0.54
  -1   5 -12   -0.07    0.46
  -2   5 -12    0.94    0.48
   2  -5  12    0.50    1.21
   2  -5  12   -0.31    0.95
  -3   5 -12   -0.23    0.43
   3  -5  12   -0.20    0.95
   3  -5  12   -0.59    1.15
   4  -5  12    0.03    0.92
   4  -5  12    0.29    1.15
   5  -5  12    2.32    1.19
   5  -5  12    2.40    0.89
   6  -5  12    1.95    0.86
   6  -5  12    1.32    1.11
   7   4 -12   -0.13    0.57
   6   4 -12    0.46    0.57
   5   4 -12   -0.24    0.53
   4   4 -12    0.87    0.56
   3   4 -12    0.25    0.54
   2   4 -12    2.44    0.58
   1   4 -12    4.98    0.63
   0   4 -12   -0.06    0.47
  -1   4 -12    0.50    0.47
  -2   4 -12    1.55    0.48
   2  -4  12    2.00    0.99
   2  -4  12    1.30    1.29
  -3   4 -12    0.36    0.44
   3  -4  12   -0.13    1.18
   3  -4  12   -0.36    0.86
   4  -4  12    0.41    0.87
   4  -4  12    0.45    1.23
   5  -4  12    0.96    0.88
   5  -4  12    0.39    1.21
   6  -4  12    1.50    0.82
   6  -4  12    1.41    1.20
   8   3 -12   -0.13    0.58
   7   3 -12    0.26    0.55
   6   3 -12    0.18    0.54
   5   3 -12    1.08    0.55
   4   3 -12    0.65    0.54
   3   3 -12    0.61    0.53
   2   3 -12    6.12    0.80
   1   3 -12    1.55    0.53
   0   3 -12    0.28    0.46
  -1   3 -12    1.23    0.49
  -2   3 -12    0.34    0.46
  -3   3 -12    1.28    0.48
   3  -3  12    0.83    0.88
   3  -3  12    0.40    1.26
   4  -3  12    0.88    1.21
   4  -3  12    0.48    0.86
   5  -3  12    1.18    1.29
   5  -3  12    0.95    0.83
   6  -3  12    1.61    1.17
   6  -3  12    1.57    0.84
   7  -3  12    1.73    0.81
   7  -3  12    2.82    1.26
   8   2 -12   -0.27    0.82
   7   2 -12   -0.03    0.55
   6   2 -12   -0.13    0.51
   5   2 -12   -0.50    0.50
   4   2 -12    0.48    0.50
   3   2 -12    1.58    0.54
   2   2 -12    0.21    0.50
   1   2 -12    1.53    0.52
   0   2 -12   -0.31    0.46
  -1   2 -12    0.06    0.48
  -2   2 -12    2.43    0.54
  -3   2 -12   -0.05    0.48
   3  -2  12   -1.43    0.80
   3  -2  12   -1.13    1.14
  -4   2 -12    1.24    0.52
   4  -2  12    1.50    1.27
   4  -2  12    0.98    0.88
   5  -2  12    1.32    0.85
   5  -2  12    1.91    1.24
   6  -2  12    2.02    1.18
   6  -2  12    1.51    0.81
   7  -2  12    3.69    0.84
   7  -2  12    3.09    1.20
   7   1 -12   -0.33    0.54
   6   1 -12   -0.55    0.50
   5   1 -12    0.01    0.48
   4   1 -12    0.05    0.49
   3   1 -12   -0.10    0.49
   2   1 -12    2.83    0.58
   1   1 -12    0.48    0.52
   0   1 -12    1.61    0.55
  -1   1 -12    1.34    0.54
  -2   1 -12    0.18    0.50
  -3   1 -12    0.63    0.52
   3  -1  12   -1.47    1.19
   3  -1  12   -1.22    0.87
  -4   1 -12    2.68    0.57
   4  -1  12    2.75    1.32
   4  -1  12    2.51    0.95
   5  -1  12    0.87    1.20
   5  -1  12    0.61    0.82
   6  -1  12    2.92    0.86
   6  -1  12    3.05    1.25
   7  -1  12    2.97    0.80
   7  -1  12    2.92    1.13
   7   0 -12   -0.34    1.01
   7   0 -12   -0.15    0.54
   6   0 -12    0.02    0.51
   5   0 -12    0.12    0.48
   4   0 -12    0.36    0.50
   3   0 -12    1.03    0.53
   2   0 -12    0.54    0.53
   1   0 -12    4.19    0.65
   0   0 -12    3.82    0.64
  -1   0 -12    0.59    0.56
  -2   0 -12    2.29    0.61
  -3   0 -12    2.07    0.62
   3   0  12   -0.76    1.22
   3   0  12    0.54    0.91
  -4   0 -12    0.68    0.57
   4   0  12   -0.42    0.82
   4   0  12   -0.27    1.20
   5   0  12    1.69    1.22
   5   0  12    1.19    0.84
   6   0  12    1.88    0.79
   6   0  12    1.69    1.15
   7   0  12    3.09    1.42
   7   0  12    3.65    1.18
   7  -1 -12    0.60    0.54
   6  -1 -12    0.48    0.52
   5  -1 -12    0.14    0.51
   4  -1 -12    0.78    0.54
   3  -1 -12    0.62    0.54
   2  -1 -12    1.04    0.58
   1  -1 -12    2.27    0.64
   0  -1 -12    0.43    0.60
  -1  -1 -12    2.59    0.67
  -2  -1 -12    0.17    0.60
  -3  -1 -12    0.66    0.61
   3   1  12   -2.76    1.14
  -4  -1 -12    2.61    0.67
   4   1  12    0.84    1.25
   4   1  12    1.11    0.88
   6  -2 -12    1.20    0.56
   5  -2 -12    1.35    0.57
   4  -2 -12    1.37    0.57
   3  -2 -12    1.26    0.59
   2  -2 -12    1.68    0.63
   1  -2 -12    1.54    0.66
   0  -2 -12    1.82    0.70
  -1  -2 -12    0.49    0.65
  -2  -2 -12    2.60    0.73
  -3  -2 -12    2.08    0.69
  -4  -2 -12    2.84    0.71
  -5  -2 -12    1.90    0.72
   6  -3 -12    1.84    0.61
   5  -3 -12    0.87    0.58
   4  -3 -12    0.63    0.58
   3  -3 -12    0.44    0.62
   2  -3 -12    0.84    0.66
   1  -3 -12    0.90    0.67
   0  -3 -12    1.86    0.72
  -1  -3 -12    2.11    0.74
  -2  -3 -12    2.10    0.74
  -3  -3 -12    1.30    0.68
  -4  -3 -12    4.41    0.78
  -5  -3 -12    1.83    0.68
   5  -4 -12    1.50    0.63
   4  -4 -12    1.04    0.64
   3  -4 -12    1.17    0.67
   2  -4 -12    1.83    0.73
   1  -4 -12    1.21    0.73
   0  -4 -12    1.66    0.78
  -1  -4 -12    2.30    0.78
  -2  -4 -12    1.40    0.76
  -3  -4 -12    2.37    0.75
  -4  -4 -12    1.43    0.71
   3  -5 -12    0.78    0.84
   2  -5 -12    1.15    0.75
   1  -5 -12    0.32    0.76
   0  -5 -12    1.27    0.82
  -1  -5 -12    2.45    1.08
  -1  10 -13   -1.21    0.60
   1 -10  13   -0.94    1.24
   1 -10  13   -1.04    1.23
   1   9 -13   -0.36    0.66
   0   9 -13   -1.12    0.60
  -1   9 -13   -0.75    0.59
   1  -9  13   -1.01    1.26
   1  -9  13   -2.84    1.17
   2  -9  13   -0.81    1.18
   2  -9  13    0.33    1.18
   3  -9  13    2.01    1.32
   3  -9  13    0.46    1.55
   3   8 -13   -0.34    0.82
   2   8 -13   -0.59    0.63
   1   8 -13   -0.08    0.60
   0   8 -13   -0.72    0.55
  -1   8 -13   -0.30    0.55
   1  -8  13   -2.03    1.24
  -2   8 -13   -0.55    0.55
   2  -8  13   -0.06    1.28
   2  -8  13   -0.87    1.15
   3  -8  13    0.68    1.17
   3  -8  13   -0.16    1.24
   4   7 -13   -0.05    0.68
   3   7 -13   -0.89    0.62
   2   7 -13    0.14    0.60
   1   7 -13   -0.50    0.56
   0   7 -13   -0.43    0.54
  -1   7 -13   -0.51    0.51
   1  -7  13   -2.98    1.20
  -2   7 -13   -0.52    0.49
   2  -7  13   -1.70    1.24
   2  -7  13   -2.27    1.07
   3  -7  13   -0.15    1.30
   3  -7  13   -0.76    1.15
   4  -7  13    1.82    1.32
   4  -7  13    1.75    1.15
   5   6 -13   -0.64    0.77
   4   6 -13   -0.59    0.62
   3   6 -13   -0.09    0.62
   2   6 -13   -0.14    0.59
   1   6 -13   -0.47    0.55
   0   6 -13    0.81    0.55
  -1   6 -13   -0.09    0.49
  -2   6 -13   -0.07    0.49
   2  -6  13   -2.15    1.06
   2  -6  13   -2.14    1.25
   3  -6  13   -0.55    1.13
   3  -6  13    0.10    1.31
   4  -6  13    0.21    1.05
   4  -6  13    1.98    1.33
   5  -6  13    3.43    2.35
   5  -6  13    2.26    1.57
   5   5 -13   -0.21    0.61
   4   5 -13   -0.63    0.60
   3   5 -13   -0.45    0.57
   2   5 -13   -0.33    0.58
   1   5 -13    4.19    0.67
   0   5 -13    0.97    0.56
  -1   5 -13   -0.35    0.50
  -2   5 -13   -0.68    0.48
   2  -5  13   -1.92    1.05
   2  -5  13   -3.11    1.25
  -3   5 -13   -0.01    0.53
   3  -5  13   -0.87    0.99
   3  -5  13   -0.54    1.23
   4  -5  13    0.34    1.27
   4  -5  13    0.42    1.01
   5  -5  13    1.08    0.96
   5  -5  13    2.28    1.34
   6   4 -13   -0.33    0.59
   5   4 -13    0.21    0.59
   4   4 -13   -0.16    0.58
   3   4 -13   -0.67    0.55
   2   4 -13    0.59    0.59
   1   4 -13    1.75    0.60
   0   4 -13    0.27    0.53
  -1   4 -13    0.27    0.52
  -2   4 -13   -0.63    0.48
   2  -4  13   -1.46    0.95
   2  -4  13   -2.29    1.29
  -3   4 -13    0.67    0.51
   3  -4  13    0.19    0.95
   3  -4  13   -0.35    1.28
   4  -4  13   -0.03    0.92
   4  -4  13   -0.60    1.26
   5  -4  13    1.00    1.28
   5  -4  13    1.87    0.91
   6   3 -13   -0.34    0.57
   5   3 -13   -0.16    0.58
   4   3 -13    0.73    0.60
   3   3 -13   -0.31    0.55
   2   3 -13    0.08    0.56
   1   3 -13    0.02    0.54
   0   3 -13    0.07    0.53
  -1   3 -13    0.99    0.53
  -2   3 -13    0.01    0.51
   2  -3  13   -2.87    1.28
  -3   3 -13    0.03    0.51
   3  -3  13   -0.58    1.32
   3  -3  13   -1.66    0.87
   4  -3  13    1.15    1.31
   4  -3  13    1.12    0.94
   5  -3  13    0.45    1.26
   5  -3  13    1.25    0.90
   7   2 -13   -0.57    0.73
   6   2 -13   -0.41    0.56
   5   2 -13    0.06    0.57
   4   2 -13    0.22    0.55
   3   2 -13    0.39    0.55
   2   2 -13    1.28    0.59
   1   2 -13    1.27    0.60
   0   2 -13    0.61    0.55
  -1   2 -13   -0.46    0.52
  -2   2 -13   -0.29    0.53
  -3   2 -13    0.79    0.56
   3  -2  13   -1.81    1.26
   3  -2  13   -0.97    0.89
   4  -2  13    0.93    1.31
   4  -2  13    0.59    0.93
   5  -2  13    0.35    0.91
   5  -2  13    1.98    1.43
   6  -2  13    1.78    1.28
   6  -2  13    2.04    0.92
   7   1 -13   -0.17    0.73
   6   1 -13   -0.59    0.56
   5   1 -13    0.34    0.55
   4   1 -13    0.50    0.55
   3   1 -13    0.22    0.55
   2   1 -13    0.09    0.56
   1   1 -13    1.37    0.61
   0   1 -13    1.91    0.63
  -1   1 -13    0.44    0.58
  -2   1 -13    0.48    0.57
  -3   1 -13   -0.18    0.56
   3  -1  13   -2.53    1.27
  -4   1 -13    0.68    0.59
   4  -1  13   -0.58    0.89
   4  -1  13   -0.45    1.29
   5  -1  13    0.53    1.30
   5  -1  13    0.49    0.90
   6  -1  13    1.77    0.86
   6  -1  13    2.10    1.25
   6   0 -13    0.53    0.56
   5   0 -13    0.49    0.56
   4   0 -13    0.30    0.56
   3   0 -13   -0.07    0.56
   2   0 -13    1.22    0.61
   1   0 -13    0.95    0.63
   0   0 -13    0.03    0.58
  -1   0 -13    0.85    0.63
  -2   0 -13    0.12    0.58
  -3   0 -13    0.90    0.60
   3   0  13   -2.23    1.30
   3   0  13   -1.67    0.89
  -4   0 -13    1.57    0.65
   4   0  13    0.03    1.33
   4   0  13   -0.26    0.91
   5   0  13    0.81    1.29
   5   0  13    0.61    0.89
   6   0  13    1.75    1.28
   6   0  13    1.61    0.94
   6  -1 -13    0.34    0.58
   5  -1 -13    1.34    0.60
   4  -1 -13    0.04    0.57
   3  -1 -13    0.24    0.58
   2  -1 -13    0.69    0.60
   1  -1 -13    0.21    0.62
   0  -1 -13    1.70    0.70
  -1  -1 -13    0.30    0.65
  -2  -1 -13    4.12    0.77
  -3  -1 -13    0.66    0.65
   3   1  13   -2.76    1.27
  -4  -1 -13    1.21    0.68
   4   1  13   -1.57    1.70
   5  -2 -13    0.46    0.61
   4  -2 -13    1.13    0.62
   3  -2 -13    0.82    0.63
   2  -2 -13    0.74    0.66
   1  -2 -13    1.03    0.69
   0  -2 -13    0.65    0.70
  -1  -2 -13    1.14    0.73
  -2  -2 -13    1.08    0.74
  -3  -2 -13    1.28    0.72
  -4  -2 -13    3.36    0.78
   4  -3 -13    1.02    1.18
   3  -3 -13    0.85    0.67
   2  -3 -13    1.17    0.71
   1  -3 -13    1.12    0.75
   0  -3 -13    2.43    0.80
  -1  -3 -13    1.34    0.78
  -2  -3 -13    0.76    0.74
  -3  -3 -13    1.85    0.78
   0   8 -14   -0.53    0.60
  -1   8 -14   -1.09    0.56
   1  -8  14   -2.07    1.59
   2   7 -14    0.17    0.83
   1   7 -14    0.24    0.63
   0   7 -14   -0.49    0.60
  -1   7 -14    0.10    0.59
   1  -7  14   -2.54    1.39
  -2   7 -14   -0.42    0.56
   2  -7  14   -2.26    1.45
   2  -7  14   -2.17    1.27
   3   6 -14   -1.03    0.79
   2   6 -14   -0.10    0.64
   1   6 -14    0.60    0.62
   0   6 -14    1.24    0.62
  -1   6 -14    1.40    0.60
   1  -6  14   -2.05    1.46
  -2   6 -14   -0.86    0.53
   2  -6  14   -1.52    1.43
   3  -6  14   -2.24    1.30
   3  -6  14   -0.94    2.27
   3   5 -14    0.14    0.65
   2   5 -14   -0.04    0.63
   1   5 -14    0.51    0.63
   0   5 -14    3.58    0.68
  -1   5 -14    0.15    0.57
  -2   5 -14   -0.26    0.55
   2  -5  14   -2.29    1.39
   2  -5  14   -1.99    1.09
   3  -5  14   -0.84    1.16
   3  -5  14   -0.69    1.43
   4   4 -14    0.12    0.66
   3   4 -14    0.05    0.64
   2   4 -14   -0.23    0.62
   1   4 -14    0.42    0.63
   0   4 -14   -0.52    0.59
  -1   4 -14    0.04    0.58
  -2   4 -14   -0.33    0.56
   2  -4  14   -2.75    1.39
  -3   4 -14   -0.50    0.56
   3  -4  14   -0.86    1.00
   3  -4  14   -0.30    1.39
   4  -4  14    0.95    1.24
   4  -4  14    0.82    2.01
   4   3 -14   -0.10    0.64
   3   3 -14   -0.18    0.61
   2   3 -14    0.12    0.62
   1   3 -14    0.45    0.62
   0   3 -14    0.36    0.59
  -1   3 -14   -0.23    0.57
  -2   3 -14   -0.17    0.57
   2  -3  14   -2.96    1.34
  -3   3 -14    0.32    0.57
   3  -3  14   -1.25    1.44
   3  -3  14   -2.21    0.99
   4  -3  14   -0.01    1.00
   4  -3  14   -0.07    1.45
   4   2 -14   -0.07    0.61
   3   2 -14    0.35    0.61
   2   2 -14   -0.40    0.60
   1   2 -14    0.75    0.63
   0   2 -14    0.65    0.62
  -1   2 -14    0.32    0.60
  -2   2 -14    1.24    0.63
   2  -2  14   -1.50    1.43
  -3   2 -14    0.40    0.60
   3  -2  14   -2.67    1.35
   4  -2  14   -0.38    0.98
   4  -2  14    0.20    1.44
   4   1 -14    0.66    0.62
   3   1 -14    0.40    0.62
   2   1 -14    0.65    0.63
   1   1 -14    0.43    0.63
   0   1 -14    0.80    0.66
  -1   1 -14    2.36    0.70
  -2   1 -14    1.17    0.67
  -3   1 -14    1.01    0.66
   3  -1  14   -3.14    1.44
   3  -1  14   -2.10    0.96
   4  -1  14    0.73    1.45
   4  -1  14   -0.22    1.01
   4   0 -14    1.05    0.81
   3   0 -14    0.78    0.65
   2   0 -14    0.38    0.65
   1   0 -14    1.02    0.69
   0   0 -14    1.32    0.70
  -1   0 -14    0.71    0.68
  -2   0 -14    1.18    0.67
  -3   0 -14    0.49    0.66
   3   0  14   -2.44    1.39
  -4   0 -14    0.98    0.68
   4   0  14    0.24    1.42
   4   0  14    0.15    1.01
   3  -1 -14   -0.41    0.94
   2  -1 -14    0.27    0.69
   1  -1 -14    0.55    0.69
   0  -1 -14    0.61    0.69
  -1  -1 -14    0.01    0.69
  -2  -1 -14    1.09    0.72
  -3  -1 -14    0.46    0.69
   3   1  14   -3.54    1.58
  -4  -1 -14    1.41    0.73
   0   6 -15    0.64    0.90
  -1   6 -15    0.21    0.62
  -2   6 -15   -0.58    0.60
   1   5 -15    0.00    0.96
   0   5 -15   -0.39    0.66
  -1   5 -15   -0.24    0.62
  -2   5 -15   -0.69    0.62
   1   4 -15   -0.26    0.69
   0   4 -15   -0.32    0.67
  -1   4 -15   -0.66    0.63
  -2   4 -15   -0.55    0.62
   1   3 -15   -0.23    0.69
   0   3 -15    0.09    0.66
  -1   3 -15   -0.28    0.65
  -2   3 -15   -0.73    0.62
  -3   3 -15    0.01    0.65
   1   2 -15   -0.69    0.71
   0   2 -15    0.47    0.69
  -1   2 -15    0.21    0.67
  -2   2 -15    0.49    0.65
  -3   2 -15    0.60    0.68
   0   1 -15    0.98    0.95
  -1   1 -15    0.19    0.83
  -2   1 -15    0.63    0.77
  -3   1 -15   -0.47    0.73
   0   0   0    0.00    0.00
;
_shelx_hkl_checksum              35684
loop_
_space_group_symop_operation_xyz
'x, y, z'
'-x, -y, -z'
loop_
_atom_site_label
_atom_site_type_symbol
_atom_site_fract_x
_atom_site_fract_y
_atom_site_fract_z
_atom_site_U_iso_or_equiv
_atom_site_adp_type
_atom_site_occupancy
_atom_site_site_symmetry_order
_atom_site_calc_flag
_atom_site_refinement_flags_posn
_atom_site_refinement_flags_adp
_atom_site_refinement_flags_occupancy
_atom_site_disorder_assembly
_atom_site_disorder_group
Zn1 Zn 0.80652(7) 0.28630(6) 0.24532(6) 0.0466(3) Uani 1 1 d . . . . .
O1 O 0.9258(7) 0.0315(5) 0.1477(5) 0.0972(18) Uani 1 1 d . . . . .
O2 O 1.0117(7) -0.0212(6) 0.2920(6) 0.120(2) Uani 1 1 d . . . . .
O3 O 0.8993(5) 0.1538(4) 0.3135(4) 0.0668(13) Uani 1 1 d . . . . .
O4 O 0.6411(5) 0.3950(5) 0.1376(4) 0.0781(14) Uani 1 1 d . . . . .
O5 O 0.6542(5) 0.1888(4) 0.1297(4) 0.0650(12) Uani 1 1 d . . . . .
O6 O 0.5143(6) 0.2493(6) 0.0115(5) 0.0958(18) Uani 1 1 d . . . . .
N1 N 0.6917(5) 0.3480(4) 0.4026(4) 0.0450(12) Uani 1 1 d . . . . .
N2 N 0.6798(5) 0.4972(4) 0.5671(4) 0.0482(13) Uani 1 1 d . . . . .
H2A H 0.6976 0.5688 0.6191 0.058 Uiso 1 1 calc R U . . .
N3 N 0.8975(5) 0.4745(4) 0.3216(4) 0.0410(11) Uani 1 1 d . . . . .
N4 N 0.9701(5) 0.3285(4) 0.1249(4) 0.0454(12) Uani 1 1 d . . . . .
N5 N 0.6002(6) 0.2773(6) 0.0909(5) 0.0614(15) Uani 1 1 d . . . . .
N6 N 0.9458(6) 0.0511(5) 0.2507(6) 0.0659(16) Uani 1 1 d . . . . .
N7 N 0.2766(7) 0.2610(6) 0.2516(5) 0.0756(18) Uani 1 1 d . . . . .
C1 C 0.5042(7) 0.1856(6) 0.4442(6) 0.0603(18) Uani 1 1 d . . . . .
H1A H 0.5088 0.1232 0.3755 0.072 Uiso 1 1 calc R U . . .
C2 C 0.4113(8) 0.1646(7) 0.5259(7) 0.071(2) Uani 1 1 d . . . . .
C3 C 0.4079(8) 0.2584(7) 0.6338(6) 0.0688(19) Uani 1 1 d . . . . .
C4 C 0.4918(7) 0.3735(7) 0.6557(6) 0.0603(18) Uani 1 1 d . . . . .
H4A H 0.4882 0.4358 0.7246 0.072 Uiso 1 1 calc R U . . .
C5 C 0.5820(6) 0.3948(6) 0.5726(5) 0.0492(16) Uani 1 1 d . . . . .
C6 C 0.5901(6) 0.3015(5) 0.4673(5) 0.0447(14) Uani 1 1 d . . . . .
C7 C 0.7421(6) 0.4648(5) 0.4658(5) 0.0422(14) Uani 1 1 d . . . . .
C8 C 0.8534(6) 0.5403(5) 0.4223(5) 0.0453(15) Uani 1 1 d . . . . .
C9 C 0.9139(7) 0.6666(5) 0.4759(5) 0.0519(16) Uani 1 1 d . . . . .
H9A H 0.8840 0.7114 0.5465 0.062 Uiso 1 1 calc R U . . .
C10 C 1.0185(7) 0.7228(5) 0.4216(5) 0.0546(17) Uani 1 1 d . . . . .
H10A H 1.0581 0.8071 0.4556 0.066 Uiso 1 1 calc R U . . .
C11 C 1.0004(6) 0.5284(5) 0.2693(5) 0.0398(14) Uani 1 1 d . . . . .
C12 C 1.0416(6) 0.4472(5) 0.1628(5) 0.0428(14) Uani 1 1 d . . . . .
C13 C 1.0110(7) 0.2533(6) 0.0275(5) 0.0530(16) Uani 1 1 d . . . . .
H13A H 0.9637 0.1708 -0.0008 0.064 Uiso 1 1 calc R U . . .
C14 C 1.1208(7) 0.2923(6) -0.0338(6) 0.0616(18) Uani 1 1 d . . . . .
H14A H 1.1460 0.2361 -0.1013 0.074 Uiso 1 1 calc R U . . .
C15 C 1.1918(7) 0.4123(6) 0.0044(6) 0.0627(18) Uani 1 1 d . . . . .
H15A H 1.2658 0.4387 -0.0362 0.075 Uiso 1 1 calc R U . . .
C16 C 1.1519(6) 0.4959(5) 0.1061(5) 0.0479(15) Uani 1 1 d . . . . .
C17 C 1.2189(7) 0.6252(6) 0.1548(6) 0.0571(17) Uani 1 1 d . . . . .
H17A H 1.2930 0.6571 0.1174 0.069 Uiso 1 1 calc R U . . .
C18 C 1.1769(7) 0.7008(6) 0.2527(5) 0.0541(17) Uani 1 1 d . . . . .
H18A H 1.2205 0.7850 0.2804 0.065 Uiso 1 1 calc R U . . .
C19 C 1.0667(6) 0.6549(5) 0.3155(5) 0.0463(15) Uani 1 1 d . . . . .
C20A C 0.2942(16) 0.0539(15) 0.5006(14) 0.084(5) Uiso 0.5 1 d . . P A 1
H20A H 0.2416 0.0558 0.5679 0.126 Uiso 0.5 1 calc R U P A 1
H20B H 0.2322 0.0660 0.4409 0.126 Uiso 0.5 1 calc R U P A 1
H20C H 0.3352 -0.0300 0.4773 0.126 Uiso 0.5 1 calc R U P A 1
C20B C 0.3279(13) 0.2242(15) 0.7235(12) 0.068(4) Uani 0.5 1 d . . P B 2
H20D H 0.2749 0.1411 0.6946 0.102 Uiso 0.5 1 calc R U P B 2
H20E H 0.3912 0.2168 0.7842 0.102 Uiso 0.5 1 calc R U P B 2
H20G H 0.2642 0.2917 0.7515 0.102 Uiso 0.5 1 calc R U P B 2
C21 C 0.3027(9) 0.0389(7) 0.1093(7) 0.092(3) Uani 1 1 d . . . . .
H21A H 0.3997 0.0176 0.1104 0.110 Uiso 1 1 calc R U . . .
H21B H 0.2750 0.0449 0.0341 0.110 Uiso 1 1 calc R U . . .
H21C H 0.2441 -0.0291 0.1305 0.110 Uiso 1 1 calc R U . . .
C22 C 0.2865(7) 0.1641(7) 0.1887(6) 0.0635(18) Uani 1 1 d . . . . .
loop_
_atom_site_aniso_label
_atom_site_aniso_U_11
_atom_site_aniso_U_22
_atom_site_aniso_U_33
_atom_site_aniso_U_23
_atom_site_aniso_U_13
_atom_site_aniso_U_12
Zn1 0.0574(5) 0.0337(4) 0.0412(5) -0.0049(3) -0.0046(3) 0.0021(3)
O1 0.157(6) 0.060(3) 0.066(4) -0.005(3) 0.011(4) 0.016(3)
O2 0.156(6) 0.087(4) 0.141(6) 0.055(4) 0.021(5) 0.073(4)
O3 0.095(4) 0.049(2) 0.051(3) -0.001(2) -0.001(2) 0.020(2)
O4 0.090(4) 0.066(3) 0.072(4) 0.007(3) 0.003(3) -0.005(3)
O5 0.070(3) 0.058(3) 0.059(3) -0.001(2) -0.016(2) 0.004(2)
O6 0.075(4) 0.137(5) 0.068(4) 0.018(3) -0.031(3) -0.011(3)
N1 0.054(3) 0.037(2) 0.041(3) 0.003(2) -0.003(2) 0.007(2)
N2 0.056(3) 0.049(3) 0.032(3) -0.008(2) -0.003(2) 0.016(2)
N3 0.051(3) 0.031(2) 0.037(3) -0.001(2) -0.004(2) 0.006(2)
N4 0.054(3) 0.033(2) 0.045(3) 0.000(2) -0.004(2) 0.003(2)
N5 0.054(4) 0.077(4) 0.046(4) 0.001(3) 0.005(3) -0.004(3)
N6 0.084(4) 0.041(3) 0.070(5) 0.005(3) 0.009(4) 0.009(3)
N7 0.102(5) 0.065(4) 0.047(4) -0.013(3) -0.010(3) 0.015(3)
C1 0.071(5) 0.052(4) 0.055(5) 0.009(3) 0.003(4) 0.003(3)
C2 0.076(5) 0.062(4) 0.079(6) 0.025(4) 0.005(4) 0.007(4)
C3 0.071(5) 0.078(5) 0.062(5) 0.022(4) 0.009(4) 0.009(4)
C4 0.062(4) 0.077(5) 0.042(4) 0.009(3) 0.004(3) 0.023(4)
C5 0.047(4) 0.050(3) 0.050(4) 0.006(3) -0.004(3) 0.014(3)
C6 0.047(4) 0.044(3) 0.040(4) 0.003(3) 0.000(3) 0.008(3)
C7 0.050(4) 0.036(3) 0.036(4) -0.001(2) -0.005(3) 0.011(3)
C8 0.049(4) 0.042(3) 0.043(4) 0.005(3) -0.007(3) 0.008(3)
C9 0.065(4) 0.041(3) 0.041(4) -0.007(3) -0.014(3) 0.008(3)
C10 0.067(4) 0.034(3) 0.056(4) -0.001(3) -0.015(4) 0.000(3)
C11 0.044(3) 0.035(3) 0.039(4) 0.005(3) -0.005(3) 0.006(3)
C12 0.047(4) 0.039(3) 0.042(4) 0.009(3) -0.003(3) 0.007(3)
C13 0.064(4) 0.043(3) 0.049(4) 0.004(3) 0.001(3) 0.001(3)
C14 0.082(5) 0.052(4) 0.047(4) 0.003(3) 0.014(4) 0.006(3)
C15 0.073(5) 0.059(4) 0.058(5) 0.016(3) 0.018(4) 0.009(3)
C16 0.054(4) 0.042(3) 0.049(4) 0.012(3) 0.000(3) 0.003(3)
C17 0.061(4) 0.050(3) 0.062(5) 0.016(3) 0.002(3) 0.001(3)
C18 0.061(4) 0.041(3) 0.058(4) 0.010(3) -0.018(3) -0.007(3)
C19 0.053(4) 0.039(3) 0.045(4) 0.006(3) -0.013(3) 0.006(3)
C20B 0.041(8) 0.107(11) 0.059(10) 0.025(8) 0.019(7) 0.006(7)
C21 0.101(6) 0.069(5) 0.084(6) -0.025(4) 0.017(5) 0.000(4)
C22 0.066(4) 0.061(4) 0.052(4) -0.008(3) -0.003(3) 0.003(3)
loop_
_atom_type_symbol
_atom_type_description
_atom_type_scat_dispersion_real
_atom_type_scat_dispersion_imag
_atom_type_scat_source
C C 0.0033 0.0016 'International Tables Vol C Tables 4.2.6.8 and 6.1.1.4'
H H 0.0000 0.0000 'International Tables Vol C Tables 4.2.6.8 and 6.1.1.4'
N N 0.0061 0.0033 'International Tables Vol C Tables 4.2.6.8 and 6.1.1.4'
O O 0.0106 0.0060 'International Tables Vol C Tables 4.2.6.8 and 6.1.1.4'
Zn Zn 0.2839 1.4301 'International Tables Vol C Tables 4.2.6.8 and 6.1.1.4'
loop_
_geom_angle_atom_site_label_1
_geom_angle_atom_site_label_2
_geom_angle_atom_site_label_3
_geom_angle
O3 Zn1 O5 108.59(18)
O3 Zn1 N3 108.54(17)
O5 Zn1 N3 142.84(19)
O3 Zn1 N1 88.86(17)
O5 Zn1 N1 103.74(18)
N3 Zn1 N1 75.62(18)
O3 Zn1 N4 101.63(18)
O5 Zn1 N4 99.05(18)
N3 Zn1 N4 74.78(17)
N1 Zn1 N4 150.37(16)
O3 Zn1 O4 163.29(17)
O5 Zn1 O4 55.04(17)
N3 Zn1 O4 87.81(16)
N1 Zn1 O4 92.04(17)
N4 Zn1 O4 85.65(17)
N6 O3 Zn1 120.7(4)
N5 O4 Zn1 83.0(4)
N5 O5 Zn1 105.3(4)
C7 N1 C6 105.6(5)
C7 N1 Zn1 112.4(4)
C6 N1 Zn1 141.6(3)
C7 N2 C5 108.0(5)
C7 N2 H2A 126.0
C5 N2 H2A 126.0
C8 N3 C11 120.5(5)
C8 N3 Zn1 119.9(4)
C11 N3 Zn1 119.6(3)
C13 N4 C12 116.5(5)
C13 N4 Zn1 130.4(4)
C12 N4 Zn1 113.0(4)
O6 N5 O4 122.2(7)
O6 N5 O5 121.4(6)
O4 N5 O5 116.4(5)
O2 N6 O1 121.8(6)
O2 N6 O3 120.1(7)
O1 N6 O3 118.1(6)
C2 C1 C6 118.4(6)
C2 C1 H1A 120.8
C6 C1 H1A 120.8
C1 C2 C3 120.9(6)
C1 C2 C20A 122.2(9)
C3 C2 C20A 116.4(9)
C4 C3 C2 120.5(7)
C4 C3 C20B 119.6(8)
C2 C3 C20B 119.5(9)
C3 C4 C5 118.1(6)
C3 C4 H4A 120.9
C5 C4 H4A 120.9
C4 C5 N2 133.0(6)
C4 C5 C6 122.1(6)
N2 C5 C6 104.9(5)
C1 C6 N1 130.8(6)
C1 C6 C5 120.0(6)
N1 C6 C5 109.2(5)
N1 C7 N2 112.3(5)
N1 C7 C8 119.6(5)
N2 C7 C8 128.1(5)
N3 C8 C9 121.0(6)
N3 C8 C7 112.2(5)
C9 C8 C7 126.7(6)
C10 C9 C8 118.6(6)
C10 C9 H9A 120.7
C8 C9 H9A 120.7
C9 C10 C19 121.3(5)
C9 C10 H10A 119.4
C19 C10 H10A 119.4
N3 C11 C19 122.8(5)
N3 C11 C12 115.6(5)
C19 C11 C12 121.6(5)
N4 C12 C16 124.6(5)
N4 C12 C11 117.1(5)
C16 C12 C11 118.3(5)
N4 C13 C14 123.0(6)
N4 C13 H13A 118.5
C14 C13 H13A 118.5
C15 C14 C13 120.2(6)
C15 C14 H14A 119.9
C13 C14 H14A 119.9
C14 C15 C16 119.0(6)
C14 C15 H15A 120.5
C16 C15 H15A 120.5
C12 C16 C15 116.6(5)
C12 C16 C17 119.3(5)
C15 C16 C17 124.0(6)
C18 C17 C16 121.5(6)
C18 C17 H17A 119.2
C16 C17 H17A 119.2
C17 C18 C19 121.5(5)
C17 C18 H18A 119.2
C19 C18 H18A 119.2
C11 C19 C10 115.9(6)
C11 C19 C18 117.6(5)
C10 C19 C18 126.5(5)
C2 C20A H20A 109.5
C2 C20A H20B 109.5
H20A C20A H20B 109.5
C2 C20A H20C 109.5
H20A C20A H20C 109.5
H20B C20A H20C 109.5
C3 C20B H20D 109.5
C3 C20B H20E 109.5
H20D C20B H20E 109.5
C3 C20B H20G 109.5
H20D C20B H20G 109.5
H20E C20B H20G 109.5
C22 C21 H21A 109.5
C22 C21 H21B 109.5
H21A C21 H21B 109.5
C22 C21 H21C 109.5
H21A C21 H21C 109.5
H21B C21 H21C 109.5
N7 C22 C21 178.5(8)
loop_
_geom_bond_atom_site_label_1
_geom_bond_atom_site_label_2
_geom_bond_distance
Zn1 O3 2.005(4)
Zn1 O5 2.037(4)
Zn1 N3 2.086(4)
Zn1 N1 2.193(5)
Zn1 N4 2.244(5)
Zn1 O4 2.506(5)
O1 N6 1.224(7)
O2 N6 1.196(7)
O3 N6 1.266(7)
O4 N5 1.257(6)
O5 N5 1.260(7)
O6 N5 1.216(7)
N1 C7 1.330(6)
N1 C6 1.390(7)
N2 C7 1.351(7)
N2 C5 1.386(8)
N2 H2A 0.8600
N3 C8 1.338(7)
N3 C11 1.340(7)
N4 C13 1.331(7)
N4 C12 1.348(7)
N7 C22 1.121(7)
C1 C2 1.384(10)
C1 C6 1.384(8)
C1 H1A 0.9300
C2 C3 1.436(10)
C2 C20A 1.524(16)
C3 C4 1.367(9)
C3 C20B 1.437(13)
C4 C5 1.383(9)
C4 H4A 0.9300
C5 C6 1.414(8)
C7 C8 1.458(8)
C8 C9 1.405(7)
C9 C10 1.377(9)
C9 H9A 0.9300
C10 C19 1.411(8)
C10 H10A 0.9300
C11 C19 1.408(7)
C11 C12 1.439(8)
C12 C16 1.398(8)
C13 C14 1.387(9)
C13 H13A 0.9300
C14 C15 1.358(9)
C14 H14A 0.9300
C15 C16 1.402(8)
C15 H15A 0.9300
C16 C17 1.439(8)
C17 C18 1.340(8)
C17 H17A 0.9300
C18 C19 1.429(9)
C18 H18A 0.9300
C20A H20A 0.9600
C20A H20B 0.9600
C20A H20C 0.9600
C20B H20D 0.9600
C20B H20E 0.9600
C20B H20G 0.9600
C21 C22 1.445(9)
C21 H21A 0.9600
C21 H21B 0.9600
C21 H21C 0.9600
