#------------------------------------------------------------------------------
#$Date: 2019-11-10 01:11:18 +0200 (Sun, 10 Nov 2019) $
#$Revision: 225507 $
#$URL: file:///home/coder/svn-repositories/cod/cif/4/51/53/4515349.cif $
#------------------------------------------------------------------------------
#
# This file is available in the Crystallography Open Database (COD),
# http://www.crystallography.net/
#
# All data on this site have been placed in the public domain by the
# contributors.
#
data_4515349
loop_
_publ_author_name
'He, Tao'
'Zhang, Yong-Zheng'
'Kong, Xiang-Jing'
'Yu, Jiamei'
'Lv, Xiu-Liang'
'Wu, Yufeng'
'Guo, Zhen-Ji'
'Li, Jian-Rong'
_publ_section_title
;
 Zr(IV)-Based Metal-Organic Framework with T-Shaped Ligand: Unique
 Structure, High Stability, Selective Detection, and Rapid Adsorption of
 Cr<sub>2</sub>O<sub>7</sub><sup>2-</sup> in Water.
;
_journal_issue                   19
_journal_name_full               'ACS applied materials &amp; interfaces'
_journal_page_first              16650
_journal_page_last               16659
_journal_paper_doi               10.1021/acsami.8b03987
_journal_volume                  10
_journal_year                    2018
_chemical_formula_moiety         '0.25(C168 H84 N12 O64 Zr12)'
_chemical_formula_sum            'C42 H21 N3 O16 Zr3'
_chemical_formula_weight         1097.28
_space_group_crystal_system      hexagonal
_space_group_IT_number           186
_space_group_name_Hall           'P 6c -2c'
_space_group_name_H-M_alt        'P 63 m c'
_atom_sites_solution_hydrogens   geom
_atom_sites_solution_primary     direct
_audit_creation_date             2017-09-25
_audit_creation_method
;
Olex2 1.2-alpha
(compiled 2017.08.10 svn.r3458 for OlexSys, GUI svn.r5381)
;
_cell_angle_alpha                90
_cell_angle_beta                 90
_cell_angle_gamma                120
_cell_formula_units_Z            4
_cell_length_a                   23.3072(3)
_cell_length_b                   23.3072(3)
_cell_length_c                   21.8206(9)
_cell_measurement_reflns_used    5154
_cell_measurement_temperature    173.01(10)
_cell_measurement_theta_max      74.3350
_cell_measurement_theta_min      3.7570
_cell_volume                     10265.4(5)
_computing_cell_refinement       'CrysAlisPro 1.171.39.32a (Rigaku OD, 2017)'
_computing_data_collection       'CrysAlisPro 1.171.39.32a (Rigaku OD, 2017)'
_computing_data_reduction        'CrysAlisPro 1.171.39.32a (Rigaku OD, 2017)'
_computing_molecular_graphics    'Olex2 (Dolomanov et al., 2009)'
_computing_publication_material  'Olex2 (Dolomanov et al., 2009)'
_computing_structure_refinement  'ShelXL (Sheldrick, 2015)'
_computing_structure_solution    'ShelXT (Sheldrick, 2008)'
_diffrn_ambient_environment      N~2~
_diffrn_ambient_temperature      173.01(10)
_diffrn_detector                 'CCD plate'
_diffrn_detector_area_resol_mean 10.3376
_diffrn_detector_type            AtlasS2
_diffrn_measured_fraction_theta_full 0.974
_diffrn_measured_fraction_theta_max 0.999
_diffrn_measurement_details
;
List of Runs (angles in degrees, time in seconds):

  # Type    Start    End  Width  t~exp~   \w     \q     \k     \f   Frames
--------------------------------------------------------------------------
  1  \w    -15.00  33.00   1.00   12.50    --  -41.94  77.00  30.00   48
  2  \w    -62.00   1.00   1.00   12.50    --  -41.94  77.00 -93.00   63
  3  \w     75.00 167.00   1.00   47.50    --  107.13  77.00-180.00   92
  4  \w     84.00 146.00   1.00   47.50    --  107.13  77.00 -93.00   62
  5  \w    128.00 160.00   1.00   47.50    --  107.13  77.00-150.00   32
  6  \w     81.00 156.00   1.00   47.50    --  107.13  77.00 -60.00   75
;
_diffrn_measurement_device       'four-circle diffractometer'
_diffrn_measurement_device_type  'SuperNova, Dual, Cu at home/near, AtlasS2'
_diffrn_measurement_method       '\w scans'
_diffrn_orient_matrix_type
'CrysAlisPro convention (1999,Acta A55,543-557)'
_diffrn_orient_matrix_UB_11      -0.0340136000
_diffrn_orient_matrix_UB_12      -0.0473507000
_diffrn_orient_matrix_UB_13      -0.0542900000
_diffrn_orient_matrix_UB_21      -0.0249638000
_diffrn_orient_matrix_UB_22      0.0458639000
_diffrn_orient_matrix_UB_23      -0.0238465000
_diffrn_orient_matrix_UB_31      0.0636147000
_diffrn_orient_matrix_UB_32      0.0384608000
_diffrn_orient_matrix_UB_33      -0.0382999000
_diffrn_radiation_monochromator  mirror
_diffrn_radiation_probe          x-ray
_diffrn_radiation_type           CuK\a
_diffrn_radiation_wavelength     1.54184
_diffrn_reflns_av_R_equivalents  0.0778
_diffrn_reflns_av_unetI/netI     0.0582
_diffrn_reflns_Laue_measured_fraction_full 0.974
_diffrn_reflns_Laue_measured_fraction_max 0.999
_diffrn_reflns_limit_h_max       20
_diffrn_reflns_limit_h_min       -27
_diffrn_reflns_limit_k_max       27
_diffrn_reflns_limit_k_min       -20
_diffrn_reflns_limit_l_max       18
_diffrn_reflns_limit_l_min       -25
_diffrn_reflns_number            22202
_diffrn_reflns_point_group_measured_fraction_full 0.863
_diffrn_reflns_point_group_measured_fraction_max 0.885
_diffrn_reflns_theta_full        67.684
_diffrn_reflns_theta_max         66.599
_diffrn_reflns_theta_min         3.793
_diffrn_source                   'micro-focus sealed X-ray tube'
_diffrn_source_type              'SuperNova (Cu) X-ray Source'
_exptl_absorpt_coefficient_mu    2.730
_exptl_absorpt_correction_T_max  1.00000
_exptl_absorpt_correction_T_min  0.70238
_exptl_absorpt_correction_type   multi-scan
_exptl_absorpt_process_details
;
CrysAlisPro 1.171.39.32a (Rigaku Oxford Diffraction, 2017)
Empirical absorption correction using spherical harmonics,
 implemented in SCALE3 ABSPACK scaling algorithm.
;
_exptl_crystal_colour            colourless
_exptl_crystal_colour_primary    colourless
_exptl_crystal_density_diffrn    0.710
_exptl_crystal_description       block
_exptl_crystal_F_000             2168
_exptl_crystal_size_max          0.08
_exptl_crystal_size_mid          0.08
_exptl_crystal_size_min          0.04
_refine_diff_density_max         1.850
_refine_diff_density_min         -0.868
_refine_diff_density_rms         0.113
_refine_ls_abs_structure_details
;
 Flack x determined using 1738 quotients [(I+)-(I-)]/[(I+)+(I-)]
 (Parsons, Flack and Wagner, Acta Cryst. B69 (2013) 249-259).
;
_refine_ls_abs_structure_Flack   0.482(8)
_refine_ls_extinction_method     none
_refine_ls_goodness_of_fit_ref   0.829
_refine_ls_hydrogen_treatment    constr
_refine_ls_matrix_type           full
_refine_ls_number_parameters     204
_refine_ls_number_reflns         5781
_refine_ls_number_restraints     55
_refine_ls_restrained_S_all      0.831
_refine_ls_R_factor_all          0.0818
_refine_ls_R_factor_gt           0.0703
_refine_ls_shift/su_max          0.010
_refine_ls_shift/su_mean         0.000
_refine_ls_structure_factor_coef Fsqd
_refine_ls_weighting_details
'w=1/[\s^2^(Fo^2^)+(0.2000P)^2^] where P=(Fo^2^+2Fc^2^)/3'
_refine_ls_weighting_scheme      calc
_refine_ls_wR_factor_gt          0.1909
_refine_ls_wR_factor_ref         0.2088
_reflns_Friedel_coverage         0.721
_reflns_Friedel_fraction_full    0.744
_reflns_Friedel_fraction_max     0.764
_reflns_number_gt                4650
_reflns_number_total             5781
_reflns_threshold_expression     'I > 2\s(I)'
_iucr_refine_instructions_details
;
TITL exp_693-t-zr-smart_a.res in P6(3)mc
REM Old TITL exp_693-T-Zr-smart in P63/mmc #194
CELL 1.54184 23.3072 23.3072 21.8206 90 90 120
ZERR 4 0.0003 0.0003 0.0009 0 0 0
LATT -1
SYMM -Y,+X-Y,+Z
SYMM +Y-X,-X,+Z
SYMM -X,-Y,0.5+Z
SYMM +Y,-X+Y,0.5+Z
SYMM -Y+X,+X,0.5+Z
SYMM -Y,-X,+Z
SYMM +Y-X,+Y,+Z
SYMM +X,+X-Y,+Z
SYMM +Y,+X,0.5+Z
SYMM -Y+X,-Y,0.5+Z
SYMM -X,-X+Y,0.5+Z
SFAC C H N O Zr
UNIT 168 84 12 64 12
ISOR 0.01 0.005 O5 O2
ISOR 0.01 0.004 C14 C8 C1 C2 O6 O4 C13
EADP O7 O6
 
L.S. 100
PLAN  1
BOND $H
LIST 6
fmap 2
acta
ABIN
REM <olex2.extras>
REM <HklSrc "%.\\exp_693-T-Zr-smart.hkl">
REM </olex2.extras>
 
WGHT    0.200000
FVAR       1.00275
ZR1   5    0.383247    0.616753    0.656860    10.50000    0.01766    0.01766 =
         0.06980    0.00033   -0.00033    0.00873
ZR2   5    0.282703    0.565407    0.526731    10.50000    0.01934    0.01866 =
         0.07322   -0.00018   -0.00009    0.00933
O6    4    0.279335    0.558670    0.629118    10.50000    0.01857    0.02176 =
         0.07454   -0.00210   -0.00105    0.01088
O7    4    0.375875    0.624125    0.561919    10.50000    0.01857    0.02176 =
         0.07454   -0.00210   -0.00105    0.01088
O1    4    0.301387    0.483794    0.549977    11.00000    0.02041    0.01715 =
         0.07723   -0.00014    0.00177    0.01058
O008  4    0.556474    0.326586    0.237216    11.00000    0.03121    0.02277 =
         0.07349    0.00276    0.00338    0.01577
O4    4    0.333333    0.666667    0.480063    10.16667    0.02064    0.02064 =
         0.04964    0.00000    0.00000    0.01032
O3    4    0.216529    0.547508    0.444523    11.00000    0.04801    0.06709 =
         0.10169    0.00049   -0.00621    0.02133
N1    3    0.373232    0.233575    0.510461    11.00000    0.04487    0.04636 =
         0.10502    0.00094   -0.00194    0.02379
C2    1    0.322828    0.406263    0.598040    11.00000    0.02742    0.01517 =
         0.07035   -0.00152    0.00083    0.00890
C1    1    0.333936    0.477411    0.592303    11.00000    0.03855    0.03873 =
         0.07824   -0.00443   -0.00239    0.01882
C15   1    0.501461    0.250731    0.316352    10.50000    0.03629    0.04057 =
         0.06833    0.00168    0.00336    0.01815
C16   1    0.537758    0.268879    0.256014    10.50000    0.03525    0.01554 =
         0.07077    0.00109    0.00217    0.01762
C3    1    0.342306    0.386811    0.649389    11.00000    0.06410    0.04945 =
         0.09829    0.00793    0.01435    0.03524
AFIX  43
H3    2    0.360065    0.416979    0.681475    11.00000   -1.20000
AFIX   0
C5    1    0.313665    0.282790    0.605908    11.00000    0.03426    0.02952 =
         0.09914    0.00121    0.00542    0.01789
C7    1    0.295292    0.358817    0.551204    11.00000    0.06076    0.04191 =
         0.09435   -0.00097   -0.00563    0.03233
AFIX  43
H7    2    0.277653    0.367626    0.516624    11.00000   -1.20000
AFIX   0
C11   1    0.395236    0.197618    0.481226    10.50000    0.02726    0.04094 =
         0.08715   -0.00112   -0.00224    0.01363
C10   1    0.340445    0.200760    0.563075    11.00000    0.05710    0.06909 =
         0.09992    0.01167    0.00957    0.03647
C6    1    0.294180    0.301083    0.555833    11.00000    0.06111    0.04607 =
         0.10910   -0.00044   -0.00719    0.02943
AFIX  43
H6    2    0.279098    0.272330    0.522540    11.00000   -1.20000
AFIX   0
C14   1    0.482693    0.292183    0.341189    11.00000    0.07433    0.07993 =
         0.09837    0.01009    0.00302    0.04516
AFIX  43
H14   2    0.493514    0.331817    0.321695    11.00000   -1.20000
AFIX   0
C4    1    0.337548    0.325109    0.657282    11.00000    0.05014    0.05196 =
         0.12197    0.00950    0.00575    0.02938
AFIX  43
H4    2    0.349247    0.312838    0.693679    11.00000   -1.20000
AFIX   0
C12   1    0.428127    0.214063    0.421577    10.50000    0.03794    0.07408 =
         0.08540    0.00125    0.00249    0.01897
C8    1    0.312753    0.218790    0.609084    11.00000    0.05510    0.04856 =
         0.08473   -0.00181    0.00761    0.02945
C13   1    0.447067    0.275231    0.396127    11.00000    0.07080    0.07980 =
         0.09523   -0.00033    0.00641    0.04369
AFIX  43
H13   2    0.436391    0.304426    0.415058    11.00000   -1.20000
AFIX   0
C9    1    0.285650    0.174080    0.661034    11.00000    0.03888    0.04815 =
         0.11342    0.00742    0.00178    0.01802
AFIX  43
H9    2    0.268311    0.185366    0.694274    11.00000   -1.20000
AFIX   0
O2    4    0.333333    0.666667    0.679186    10.16667    0.05747    0.05747 =
         0.06586    0.00000    0.00000    0.02873
O5    4    0.368223    0.518530    0.632359    11.00000    0.03309    0.03128 =
         0.07270   -0.00201    0.00383    0.01926
HKLF 4
 
REM  exp_693-t-zr-smart_a.res in P6(3)mc
REM R1 =  0.0703 for    4650 Fo > 4sig(Fo)  and  0.0818 for all    5781 data
REM    204 parameters refined using     55 restraints
 
END  
     
WGHT      0.1473      0.0000 

REM Highest difference peak  1.850,  deepest hole -0.868,  1-sigma level  0.113
Q1    1   0.3400  0.5075  0.6563  11.00000  0.05    0.84

  REM The information below was added by Olex2.
  REM
  REM R1 = 0.0703 for 4650 Fo > 4sig(Fo) and 0.0818 for all 22756 data
  REM n/a parameters refined using n/a restraints
  REM Highest difference peak 1.85, deepest hole -0.87
  REM Mean Shift 0, Max Shift 0.010.

  REM +++ Tabular Listing of Refinement Information +++
  REM R1_all = 0.0818
  REM R1_gt = 0.0703
  REM wR_ref = 0.2088
  REM GOOF = 0.829
  REM Shift_max = 0.010
  REM Shift_mean = 0
  REM Reflections_all = 22756
  REM Reflections_gt = 4650
  REM Parameters = n/a
  REM Hole = -0.87
  REM Peak = 1.85
  REM Flack = 0.482(8)

  
;
_cod_data_source_file            am8b03987_si_002.cif
_cod_data_source_block           exp_693-t-zr-smart
_cod_database_code               4515349
_shelxl_version_number           2014-1
_chemical_oxdiff_formula         'C H O N Zr'
_shelx_space_group_comment
;
The symmetry employed for this shelxl refinement is uniquely defined
by the following loop, which should always be used as a source of
symmetry information in preference to the above space-group names.
They are only intended as comments.
;
_reflns_odcompleteness_completeness 99.91
_reflns_odcompleteness_iscentric 1
_reflns_odcompleteness_theta     66.49
_olex2_refinement_description
;
1. Fixed Uiso
 At 1.2 times of:
  All C(H) groups
2. Uiso/Uaniso restraints and constraints
Uanis(O5) \\sim Ueq, Uanis(O2) \\sim Ueq: with sigma of 0.01 and sigma for
terminal atoms of 0.005
Uanis(C14) \\sim Ueq, Uanis(C8) \\sim Ueq, Uanis(C1) \\sim Ueq, Uanis(C2) \\sim
Ueq, Uanis(O6) \\sim Ueq, Uanis(O4) \\sim Ueq, Uanis(C13) \\sim Ueq: with sigma
of 0.01 and sigma for terminal atoms of 0.004
Uanis(O7) = Uanis(O6)
3.a Aromatic/amide H refined with riding coordinates:
 C3(H3), C7(H7), C6(H6), C14(H14), C4(H4), C13(H13), C9(H9)
;
_shelx_fab_file
;
-24 0 -1 12.4978 -13.9306
-23 -1 -5 2.4446 -0.1013
-23 -1 -4 4.9945 1.9763
-23 -1 -3 4.8884 -8.6372
-23 -1 -2 -5.6442 -15.0344
-23 -1 -1 6.6839 -11.9579
-23 0 -6 17.3283 16.0475
-23 0 -5 6.2314 22.6254
-23 0 -4 29.1587 7.6819
-23 0 -3 -3.1424 -10.6536
-23 0 -2 -12.2008 -4.3432
-23 0 -1 -18.9307 32.2867
-22 -3 -4 -4.2936 -8.5570
-22 -3 -3 -5.6199 11.6169
-22 -3 -2 13.1219 -8.1754
-22 -3 -1 18.2854 19.4513
-22 -2 -7 14.3895 13.7260
-22 -2 -6 17.0030 8.5220
-22 -2 -5 -0.3891 7.2837
-22 -2 -4 14.8731 -9.7689
-22 -2 -3 -6.4797 8.8582
-22 -2 -2 1.8202 9.5245
-22 -2 -1 -8.7985 7.5201
-22 -1 -8 -0.5016 2.0967
-22 -1 -7 -11.6345 -4.2054
-22 -1 -6 15.8376 22.9284
-22 -1 -5 16.0520 -14.3671
-22 -1 -4 6.4636 -3.8105
-22 -1 -3 -5.1760 12.7678
-22 -1 -2 41.7067 23.7457
-22 -1 -1 -8.1848 8.6221
-22 0 -7 3.0966 12.3003
-22 0 -6 23.8227 33.9682
-22 0 -5 -21.9599 -10.6164
-22 0 -4 -12.9127 -14.7729
-22 0 -3 -25.8068 46.7260
-22 0 -2 -21.3068 0.6105
-22 0 -1 45.1631 -70.8414
-21 -5 -2 -23.7544 -1.0893
-21 -5 -1 18.0178 -9.8105
-21 -4 -6 -14.2733 -12.4260
-21 -4 -5 1.2349 10.0063
-21 -4 -4 27.3811 23.3923
-21 -4 -3 -4.4548 -4.6889
-21 -4 -2 17.1846 -3.0976
-21 -4 -1 14.3176 8.3986
-21 -3 -8 -1.6189 14.9321
-21 -3 -7 -3.9059 -10.1335
-21 -3 -6 -12.8612 1.5314
-21 -3 -5 -0.7379 -34.1254
-21 -3 -4 -0.7010 -1.0649
-21 -3 -3 19.0615 -0.5912
-21 -3 -2 -5.2684 -5.8442
-21 -3 -1 -9.5586 9.1874
-21 -2 -10 -7.3576 -4.3304
-21 -2 -9 -22.2322 -12.8421
-21 -2 -8 12.6721 -0.2531
-21 -2 -7 -18.9734 17.1464
-21 -2 -6 15.6041 26.7146
-21 -2 -5 9.6639 16.5297
-21 -2 -4 5.0360 0.6770
-21 -2 -3 -3.8765 31.4981
-21 -2 -2 -17.0759 -37.7633
-21 -2 -1 43.1849 -56.6592
-21 -1 -11 7.2016 -5.4993
-21 -1 -10 -6.3089 9.9543
-21 -1 -9 2.7087 18.6721
-21 -1 -8 -15.4232 4.5323
-21 -1 -7 -6.3317 -11.8919
-21 -1 -6 50.5462 5.8712
-21 -1 -5 24.5217 0.4794
-21 -1 -4 5.5380 -6.5387
-21 -1 -3 -10.7594 10.5801
-21 -1 -2 -37.5239 8.4015
-21 -1 -1 -57.9892 52.0071
-21 0 -12 4.6680 4.9566
-21 0 -11 0.5546 -10.4175
-21 0 -10 11.1079 -21.0564
-21 0 -9 -4.3500 -8.6271
-21 0 -8 -25.0914 -7.0175
-21 0 -7 -21.6291 6.7890
-21 0 -6 17.9250 -0.0428
-21 0 -5 17.9037 6.3192
-21 0 -4 13.8442 4.0685
-21 0 -3 2.5596 -7.1429
-21 0 -2 142.2856 65.1500
-21 0 -1 8.9165 -6.4704
-20 -6 -5 -5.8354 11.6008
-20 -6 -4 -4.4486 -24.5476
-20 -6 -3 -10.1914 -13.7000
-20 -6 -2 14.6029 31.2608
-20 -6 -1 26.6354 -30.3922
-20 -5 -7 -27.6235 -3.2880
-20 -5 -6 -11.7037 -11.3008
-20 -5 -5 26.3322 -9.6473
-20 -5 -4 -2.8413 -1.5184
-20 -5 -3 -47.0022 20.9448
-20 -5 -2 6.2914 14.5173
-20 -5 -1 20.9464 14.1576
-20 -4 -9 -6.7249 2.4114
-20 -4 -8 -1.5572 -3.1325
-20 -4 -7 -4.9386 -3.1729
-20 -4 -6 -9.6230 18.8797
-20 -4 -5 12.0954 -32.9875
-20 -4 -4 -21.5388 -27.7599
-20 -4 -3 -1.8613 -13.1897
-20 -4 -2 -7.5347 -7.1782
-20 -4 -1 -19.3813 3.0779
-20 -3 -11 2.7176 -4.2226
-20 -3 -10 -0.5742 -0.9441
-20 -3 -9 -2.6536 -13.3830
-20 -3 -8 -14.1960 -30.9395
-20 -3 -7 -13.3999 -0.5177
-20 -3 -6 -8.4000 19.5209
-20 -3 -5 -8.7874 -9.7990
-20 -3 -4 20.9761 0.8862
-20 -3 -3 8.5577 27.6968
-20 -3 -2 -12.8766 -46.9438
-20 -3 -1 -32.7327 33.5380
-20 -2 -12 -7.4525 12.8262
-20 -2 -11 -8.2992 6.0661
-20 -2 -10 0.5941 -0.5049
-20 -2 -9 5.2595 -11.7807
-20 -2 -8 -13.0551 -5.1097
-20 -2 -7 0.6776 11.9456
-20 -2 -6 12.1385 0.6434
-20 -2 -5 6.5075 -0.5539
-20 -2 -4 -9.5568 12.1191
-20 -2 -3 6.9487 -13.1985
-20 -2 -2 85.2174 38.1834
-20 -2 -1 5.0893 1.8214
-20 -1 -13 7.1411 10.5573
-20 -1 -12 -1.6568 -10.1663
-20 -1 -11 7.1550 -0.3534
-20 -1 -10 -17.6673 11.2973
-20 -1 -9 2.5554 -1.0842
-20 -1 -8 -26.0768 -1.1244
-20 -1 -7 14.1551 9.5076
-20 -1 -6 -6.3878 -18.7188
-20 -1 -5 0.9708 20.9761
-20 -1 -4 5.4738 -0.2716
-20 -1 -3 1.3429 -33.1730
-20 -1 -2 -11.8610 20.5906
-20 -1 -1 84.3567 -82.1990
-20 0 -14 2.4388 -1.1264
-20 0 -13 -6.9651 -6.0107
-20 0 -12 -1.9812 0.9150
-20 0 -11 -25.1645 10.4767
-20 0 -10 1.8509 -10.9087
-20 0 -9 15.1498 13.0138
-20 0 -8 27.0133 9.2546
-20 0 -7 -11.8956 8.2558
-20 0 -6 -12.9731 -36.6175
-20 0 -5 27.3428 19.9847
-20 0 -4 -4.3216 37.6826
-20 0 -3 -12.4006 25.8771
-20 0 -2 12.7903 19.7360
-20 0 -1 -90.2997 120.1310
-19 -7 -6 4.4112 29.9600
-19 -7 -5 26.7685 15.7368
-19 -7 -4 4.2862 1.1582
-19 -7 -3 -23.5147 32.1502
-19 -7 -2 -17.1591 22.1053
-19 -7 -1 -12.5217 1.6937
-19 -6 -8 7.2402 0.6353
-19 -6 -7 9.2236 -22.6762
-19 -6 -6 20.0259 -14.2346
-19 -6 -5 6.2427 -36.7238
-19 -6 -4 -31.2384 -6.1090
-19 -6 -3 -20.8146 44.8570
-19 -6 -2 -26.4595 21.9556
-19 -6 -1 51.4987 -11.4071
-19 -5 -10 0.8074 -0.8986
-19 -5 -9 9.8613 8.2402
-19 -5 -8 -1.7447 2.8086
-19 -5 -7 16.2489 -16.4614
-19 -5 -6 10.5494 -20.0609
-19 -5 -5 -1.0420 -12.9400
-19 -5 -4 -18.0516 -33.0444
-19 -5 -3 14.6983 0.1066
-19 -5 -2 -38.9670 -44.0336
-19 -5 -1 11.4270 -18.7430
-19 -4 -12 -3.6555 1.7070
-19 -4 -11 -5.0924 5.3240
-19 -4 -10 -5.2113 3.9091
-19 -4 -9 -0.1919 -9.6852
-19 -4 -8 -5.9180 -4.9819
-19 -4 -7 15.2091 8.4002
-19 -4 -6 9.7664 -6.3936
-19 -4 -5 3.2463 -41.9942
-19 -4 -4 -6.1065 -11.7974
-19 -4 -3 39.6710 -24.5317
-19 -4 -2 -15.9005 -10.6895
-19 -4 -1 26.8389 -29.1117
-19 -3 -13 3.7883 2.0768
-19 -3 -12 -6.0591 -10.1575
-19 -3 -11 3.8303 0.7750
-19 -3 -10 -13.5914 0.0538
-19 -3 -9 -11.5090 -19.0793
-19 -3 -8 -21.8812 -4.0480
-19 -3 -7 12.3330 -2.7571
-19 -3 -6 -15.7121 -11.8877
-19 -3 -5 27.4518 -32.0400
-19 -3 -4 2.5991 -11.6495
-19 -3 -3 -23.3864 19.7045
-19 -3 -2 -21.5035 -41.5505
-19 -3 -1 47.5156 -32.7982
-19 -2 -14 5.5351 -0.2000
-19 -2 -13 -6.3326 -1.2478
-19 -2 -12 6.3162 3.8340
-19 -2 -11 -11.4273 1.4238
-19 -2 -10 0.6797 -25.0768
-19 -2 -9 -16.2805 -29.6393
-19 -2 -8 -30.1989 -3.6542
-19 -2 -7 -11.1046 -7.1388
-19 -2 -6 39.2496 26.8427
-19 -2 -5 19.6620 -7.8895
-19 -2 -4 36.0389 -8.4617
-19 -2 -3 7.6420 37.5445
-19 -2 -2 -39.6660 -11.9046
-19 -2 -1 -82.7301 64.5025
-19 -1 -15 -2.2674 1.1120
-19 -1 -14 -8.7040 1.5870
-19 -1 -13 7.7245 -0.8285
-19 -1 -12 6.6874 12.9388
-19 -1 -11 -10.8414 -0.5596
-19 -1 -10 -17.5235 13.7042
-19 -1 -9 3.3554 1.0169
-19 -1 -8 37.0685 -4.2685
-19 -1 -7 -11.1307 -5.0522
-19 -1 -6 -49.8849 -66.1027
-19 -1 -5 16.3015 -11.2707
-19 -1 -4 -17.8092 12.2578
-19 -1 -3 3.5324 -0.9562
-19 -1 -2 105.7610 21.9127
-19 -1 -1 3.3602 -1.3218
-19 0 -15 2.2437 8.6201
-19 0 -14 -4.2241 5.5827
-19 0 -13 1.0720 -4.3199
-19 0 -11 -10.0951 -12.6983
-19 0 -10 -0.7984 -29.1850
-19 0 -9 3.3862 3.1832
-19 0 -8 38.7666 -19.6516
-19 0 -7 -19.5095 37.1714
-19 0 -6 -2.1306 -19.4507
-19 0 -5 -59.0375 -2.6298
-19 0 -4 12.0905 27.1696
-19 0 -3 20.3892 -17.4820
-19 0 -2 -54.0707 -43.3037
-19 0 -1 93.0417 -88.7806
-18 -9 -3 26.3209 9.6265
-18 -9 -2 -6.8693 7.2734
-18 -9 -1 -17.5883 1.8404
-18 -8 -7 -5.7685 1.8017
-18 -8 -6 30.3431 -19.2238
-18 -8 -5 38.9828 -18.5620
-18 -8 -4 -37.2365 -8.4839
-18 -8 -3 -24.7061 19.8574
-18 -8 -2 -19.8646 4.3660
-18 -8 -1 -22.9572 0.4823
-18 -7 -9 11.3396 -0.9906
-18 -7 -8 2.0716 -3.0308
-18 -7 -7 -4.2303 13.9059
-18 -7 -6 26.6580 -5.5232
-18 -7 -5 -13.1882 16.4300
-18 -7 -4 -24.3491 -34.0443
-18 -7 -3 48.0447 49.5307
-18 -7 -2 11.5325 5.1422
-18 -7 -1 35.5326 -35.9108
-18 -6 -11 6.6133 -1.2266
-18 -6 -10 -1.9678 3.7501
-18 -6 -9 4.4778 4.1473
-18 -6 -8 -13.0290 9.6604
-18 -6 -7 22.2462 22.2826
-18 -6 -6 48.0479 -1.5017
-18 -6 -5 13.9810 9.5730
-18 -6 -4 -19.2573 -1.0688
-18 -6 -3 21.3460 -7.6389
-18 -6 -2 -17.8028 17.2283
-18 -6 -1 25.9305 -68.7812
-18 -5 -12 -4.9409 -3.5653
-18 -5 -11 3.8839 3.3556
-18 -5 -10 -2.0455 -1.6789
-18 -5 -9 11.7280 17.2472
-18 -5 -8 9.4292 5.9509
-18 -5 -7 7.6900 -1.1650
-18 -5 -6 0.4080 -29.1028
-18 -5 -5 -5.3997 -17.9510
-18 -5 -4 -9.2028 -28.4502
-18 -5 -3 56.6766 4.3173
-18 -5 -2 17.8586 40.9309
-18 -5 -1 42.4706 -10.9369
-18 -4 -13 -0.7782 -0.4123
-18 -4 -12 -3.9776 7.3797
-18 -4 -11 -4.1209 5.1828
-18 -4 -10 -7.3149 0.2952
-18 -4 -9 -2.8400 -15.3344
-18 -4 -8 -22.1103 6.1381
-18 -4 -7 12.9368 -3.9469
-18 -4 -6 -7.9404 16.2394
-18 -4 -5 2.7271 -13.8917
-18 -4 -4 -15.2534 0.6841
-18 -4 -3 -26.3073 -4.2087
-18 -4 -2 -6.5231 -12.8818
-18 -4 -1 0.9212 -4.7502
-18 -3 -14 4.5865 -6.8037
-18 -3 -13 4.4800 -8.1637
-18 -3 -12 -11.4679 6.6087
-18 -3 -11 10.6788 4.6516
-18 -3 -10 -2.2371 -1.3342
-18 -3 -9 -15.4963 -2.1887
-18 -3 -8 -36.3344 -6.6752
-18 -3 -7 -10.3622 -10.8436
-18 -3 -6 14.0437 25.3173
-18 -3 -5 20.0419 -6.9715
-18 -3 -4 -15.3804 10.0744
-18 -3 -3 23.0569 16.8114
-18 -3 -2 45.3831 3.0316
-18 -3 -1 -35.7791 0.4606
-18 -2 -15 1.3716 -4.8320
-18 -2 -14 6.6754 -4.6323
-18 -2 -13 6.6023 -2.3187
-18 -2 -12 -5.9943 -3.4728
-18 -2 -11 -19.3442 3.5924
-18 -2 -10 1.6423 -0.7069
-18 -2 -9 2.5113 27.7404
-18 -2 -8 19.3428 1.9133
-18 -2 -7 0.5066 7.4847
-18 -2 -6 0.6832 -1.4881
-18 -2 -5 -23.9424 0.8714
-18 -2 -4 6.7779 -1.4205
-18 -2 -3 -12.6787 36.0126
-18 -2 -2 -55.7528 -23.8112
-18 -2 -1 49.4106 -43.5586
-18 -1 -16 -3.7750 0.8398
-18 -1 -15 1.7190 1.6369
-18 -1 -14 3.5922 -1.8297
-18 -1 -13 -1.0232 15.6350
-18 -1 -12 6.1102 -0.9422
-18 -1 -11 -6.6175 -6.6654
-18 -1 -10 -8.4113 9.3386
-18 -1 -9 -7.0217 -2.6792
-18 -1 -8 25.9594 3.7760
-18 -1 -7 -20.5696 2.4606
-18 -1 -6 -8.4922 -11.4093
-18 -1 -5 -26.8448 -9.2726
-18 -1 -4 18.7325 17.0569
-18 -1 -3 32.9909 -16.0644
-18 -1 -2 -25.4211 -2.9791
-18 -1 -1 -62.2043 86.4367
-18 0 -17 4.4338 -4.9046
-18 0 -16 -0.7910 -3.7750
-18 0 -15 2.0331 -7.6073
-18 0 -14 0.7925 -2.3358
-18 0 -13 -7.9019 11.9955
-18 0 -12 -3.9218 5.1637
-18 0 -11 4.8134 20.9312
-18 0 -10 -4.7131 11.2625
-18 0 -9 23.2566 19.5370
-18 0 -8 -40.9222 -6.9333
-18 0 -7 12.5227 27.7742
-18 0 -6 9.7322 -30.1435
-18 0 -5 -61.5022 7.5642
-18 0 -4 -30.8543 13.2124
-18 0 -3 -9.9394 -3.1781
-18 0 -2 77.8505 18.2900
-18 0 -1 29.5132 25.9662
-17 -10 -4 -17.0270 -6.8534
-17 -10 -3 -14.9887 13.4791
-17 -10 -2 26.7151 -27.7214
-17 -10 -1 -12.1853 -27.3344
-17 -9 -7 -0.1114 0.3375
-17 -9 -6 12.8988 -1.8494
-17 -9 -5 -15.7325 18.2455
-17 -9 -4 12.3015 -16.2589
-17 -9 -3 9.4456 38.4527
-17 -9 -2 7.8753 24.9613
-17 -9 -1 -23.7411 13.2458
-17 -8 -10 12.1776 -1.8761
-17 -8 -9 8.4677 -19.1441
-17 -8 -8 3.0802 5.6935
-17 -8 -7 0.3552 21.8563
-17 -8 -6 27.7532 7.6174
-17 -8 -5 7.9393 22.3679
-17 -8 -4 -20.5708 -23.6825
-17 -8 -3 35.4135 -4.8366
-17 -8 -2 -27.7592 -8.8460
-17 -8 -1 -10.0934 7.1759
-17 -7 -11 10.8801 -7.9684
-17 -7 -10 -5.7327 8.9773
-17 -7 -9 -10.2907 -6.4509
-17 -7 -8 12.2010 10.7599
-17 -7 -7 17.8215 40.2894
-17 -7 -6 15.0652 0.0971
-17 -7 -5 49.4277 16.5411
-17 -7 -4 40.0705 19.3304
-17 -7 -3 10.0209 56.7358
-17 -7 -2 1.6942 54.7252
-17 -7 -1 -20.9036 68.4249
-17 -6 -13 -6.2549 -5.6980
-17 -6 -12 6.2117 5.3517
-17 -6 -11 0.8535 -1.3862
-17 -6 -10 23.5014 -13.5847
-17 -6 -9 3.0599 4.8506
-17 -6 -8 -17.1521 -4.1065
-17 -6 -7 -0.7338 -1.6389
-17 -6 -6 -34.2063 24.1139
-17 -6 -5 22.9601 -11.9364
-17 -6 -4 12.9834 44.5201
-17 -6 -3 13.1547 10.9933
-17 -6 -2 12.6965 13.5756
-17 -6 -1 26.2205 -11.3463
-17 -5 -14 0.4783 -5.8796
-17 -5 -13 -0.5347 -5.6685
-17 -5 -12 3.7813 -1.3057
-17 -5 -11 2.8478 -10.2091
-17 -5 -10 -6.8280 12.6680
-17 -5 -9 10.8804 7.4406
-17 -5 -8 17.3240 -0.0805
-17 -5 -7 4.8745 -1.7270
-17 -5 -6 14.2643 -12.0800
-17 -5 -5 -14.0567 1.2409
-17 -5 -4 -6.4115 9.4956
-17 -5 -3 -8.3872 37.3143
-17 -5 -2 -25.8241 -18.6264
-17 -5 -1 1.8003 24.5648
-17 -4 -15 1.3192 -0.8921
-17 -4 -14 -2.1534 -0.8596
-17 -4 -13 -7.9074 -4.7115
-17 -4 -12 2.6732 3.4255
-17 -4 -11 0.2447 2.1302
-17 -4 -10 -13.4673 -12.3026
-17 -4 -9 -5.1876 -12.3401
-17 -4 -8 5.3431 4.6261
-17 -4 -7 2.4006 -17.9226
-17 -4 -6 32.5285 -3.9903
-17 -4 -5 -9.5951 2.9229
-17 -4 -4 -39.8911 0.9590
-17 -4 -3 14.2102 0.9147
-17 -4 -2 -9.6985 -60.2689
-17 -4 -1 -12.7617 -31.6766
-17 -3 -16 1.4834 -1.4386
-17 -3 -15 -4.7405 -4.7221
-17 -3 -14 -4.1014 -3.9938
-17 -3 -13 11.2228 -5.5712
-17 -3 -12 6.5785 0.4558
-17 -3 -11 -20.9242 1.9405
-17 -3 -10 -5.4466 5.5133
-17 -3 -9 -3.9477 -4.6641
-17 -3 -8 2.3030 -0.1816
-17 -3 -7 -18.1102 19.6278
-17 -3 -6 13.6672 -51.8968
-17 -3 -5 16.6528 10.9457
-17 -3 -4 8.8659 21.6287
-17 -3 -3 -36.2386 -36.0071
-17 -3 -2 -7.3398 6.9259
-17 -3 -1 -14.8509 58.3282
-17 -2 -17 -1.3979 -4.7393
-17 -2 -16 0.3515 0.8738
-17 -2 -15 2.6142 0.0320
-17 -2 -14 -2.8306 1.8131
-17 -2 -13 1.7133 -17.5519
-17 -2 -12 -3.0194 1.5768
-17 -2 -11 2.3357 -10.1980
-17 -2 -10 -2.1516 -6.1343
-17 -2 -9 1.3484 -2.4395
-17 -2 -8 -4.5120 -7.8244
-17 -2 -7 -7.8942 -8.2381
-17 -2 -6 -6.6885 -24.9323
-17 -2 -5 2.4113 -24.2852
-17 -2 -4 10.0235 13.8353
-17 -2 -3 13.3573 -12.9081
-17 -2 -2 43.4307 18.9475
-17 -2 -1 11.6429 3.4625
-17 -1 -17 3.8293 -0.7885
-17 -1 -16 -7.5580 -0.3037
-17 -1 -15 1.1563 -0.6173
-17 -1 -14 -2.1176 0.7826
-17 -1 -13 -1.3717 1.8345
-17 -1 -12 2.9134 -5.5231
-17 -1 -11 2.6479 7.8540
-17 -1 -10 -4.8850 0.7696
-17 -1 -9 3.6071 5.1844
-17 -1 -8 -11.1818 7.5153
-17 -1 -7 -33.4457 22.9499
-17 -1 -6 36.2914 4.4361
-17 -1 -5 -26.4536 -9.0969
-17 -1 -4 3.7818 12.8184
-17 -1 -3 -27.9139 31.1559
-17 -1 -2 -3.3947 -3.7945
-17 -1 -1 44.5693 -47.3732
-17 0 -18 -2.6093 1.4175
-17 0 -17 7.5025 -12.3800
-17 0 -16 -0.6911 -0.3243
-17 0 -15 3.3987 -2.8596
-17 0 -14 3.2612 -3.2921
-17 0 -13 -6.0742 -9.9308
-17 0 -12 5.2627 -6.3753
-17 0 -11 -14.1073 -10.6629
-17 0 -10 -17.9395 6.1708
-17 0 -9 12.5308 6.2124
-17 0 -8 -3.6349 -21.6900
-17 0 -7 22.0441 -21.0074
-17 0 -6 64.7209 37.8361
-17 0 -5 50.8429 -22.3361
-17 0 -4 -20.6479 -6.5877
-17 0 -3 -16.7644 -4.6009
-17 0 -2 30.2340 -25.1343
-17 0 -1 -31.8747 -2.8033
-16 -11 -5 7.1522 -8.5172
-16 -11 -4 17.3739 -4.8650
-16 -11 -3 0.9351 -19.7182
-16 -11 -2 14.8720 -26.3474
-16 -11 -1 47.7052 -10.5483
-16 -10 -8 -21.5238 8.1127
-16 -10 -7 4.0678 17.0865
-16 -10 -6 4.8139 -19.2678
-16 -10 -5 8.3766 -5.4658
-16 -10 -4 -16.5611 -14.4342
-16 -10 -3 1.4109 -50.1691
-16 -10 -2 22.6974 17.8367
-16 -10 -1 29.2050 -7.9893
-16 -9 -10 -3.5195 0.5985
-16 -9 -9 6.5313 9.8856
-16 -9 -8 2.0713 -13.3465
-16 -9 -7 -5.1489 -12.8477
-16 -9 -6 -8.6246 2.4584
-16 -9 -5 -3.1238 12.1062
-16 -9 -4 8.8175 -35.1549
-16 -9 -3 18.6575 20.7540
-16 -9 -2 33.8229 29.7612
-16 -9 -1 5.6801 -5.6299
-16 -8 -12 1.3674 -2.0780
-16 -8 -11 5.0854 -4.2253
-16 -8 -10 5.8132 -10.9903
-16 -8 -9 -5.7451 -14.8782
-16 -8 -8 3.8692 -12.0441
-16 -8 -7 -7.9124 1.0581
-16 -8 -6 -16.0856 14.5696
-16 -8 -5 6.1417 -11.4450
-16 -8 -4 28.0680 -3.1573
-16 -8 -3 18.8507 -1.2834
-16 -8 -2 17.8239 36.5243
-16 -8 -1 -25.5141 2.3986
-16 -7 -13 5.2054 3.3214
-16 -7 -12 11.0076 0.3583
-16 -7 -11 -0.9386 2.2274
-16 -7 -10 -2.1312 3.4895
-16 -7 -9 5.5367 4.3072
-16 -7 -8 28.9040 -5.9478
-16 -7 -7 -11.8336 -1.2366
-16 -7 -6 36.0242 19.3275
-16 -7 -5 11.0771 -16.6168
-16 -7 -4 -8.8734 -12.7425
-16 -7 -3 -28.5136 35.5886
-16 -7 -2 -10.5335 9.4325
-16 -7 -1 -42.7655 18.1016
-16 -6 -14 -2.0908 0.3047
-16 -6 -13 -3.5111 -0.0386
-16 -6 -12 9.7128 -3.7370
-16 -6 -11 7.5720 -10.3955
-16 -6 -10 11.1296 6.1344
-16 -6 -9 -18.9585 -24.8213
-16 -6 -8 -0.1533 -5.9792
-16 -6 -7 -16.0101 27.9045
-16 -6 -6 33.8585 8.7980
-16 -6 -5 7.9499 -13.7262
-16 -6 -4 1.1568 65.4404
-16 -6 -3 -35.1431 -51.1838
-16 -6 -2 18.0380 -9.1415
-16 -6 -1 -26.3072 71.2214
-16 -5 -15 -1.3793 0.0957
-16 -5 -14 0.6750 -2.4987
-16 -5 -13 4.7871 6.3739
-16 -5 -12 8.8199 -3.5195
-16 -5 -11 -2.4945 6.9163
-16 -5 -10 -8.7023 3.8646
-16 -5 -9 -8.6266 16.9324
-16 -5 -8 -10.3224 -10.4891
-16 -5 -7 -14.6726 14.7319
-16 -5 -6 11.4664 13.1170
-16 -5 -5 -50.3430 16.7987
-16 -5 -4 -5.0480 18.6955
-16 -5 -3 29.2356 -19.8177
-16 -5 -2 18.6907 -30.7168
-16 -5 -1 20.0699 -12.3189
-16 -4 -16 10.3283 -1.1647
-16 -4 -15 -7.4913 3.0698
-16 -4 -14 -1.3569 3.7722
-16 -4 -13 12.9239 6.8880
-16 -4 -12 0.6022 -8.0199
-16 -4 -11 1.4529 -8.5970
-16 -4 -10 -5.7369 10.9455
-16 -4 -9 -21.6208 22.5777
-16 -4 -8 2.8901 2.8579
-16 -4 -7 1.2502 10.2378
-16 -4 -6 3.5239 -9.7181
-16 -4 -5 -17.0265 -8.8948
-16 -4 -4 -15.4799 27.0375
-16 -4 -3 -46.8936 -6.3316
-16 -4 -2 -15.2463 10.3150
-16 -4 -1 13.4840 33.4077
-16 -3 -17 -2.1604 -4.2394
-16 -3 -16 -6.0744 -3.5723
-16 -3 -15 2.4732 -5.8536
-16 -3 -14 -1.1413 4.4836
-16 -3 -13 12.1628 7.2941
-16 -3 -12 4.6176 2.7827
-16 -3 -11 9.9810 14.5282
-16 -3 -10 8.1586 5.0910
-16 -3 -9 -22.0752 -27.4349
-16 -3 -8 -8.1746 0.5240
-16 -3 -7 -21.6614 25.0421
-16 -3 -6 -26.7324 5.0628
-16 -3 -5 7.2412 11.1411
-16 -3 -4 26.0026 7.8066
-16 -3 -3 8.8090 -1.1499
-16 -3 -2 2.2684 29.0123
-16 -3 -1 -31.2403 -3.5989
-16 -2 -18 -8.1062 -1.6209
-16 -2 -17 -2.4742 -3.3549
-16 -2 -16 3.6491 1.6176
-16 -2 -15 -0.6783 -3.5390
-16 -2 -14 0.7633 -0.9443
-16 -2 -13 -3.7717 -6.3544
-16 -2 -12 -9.1550 -7.1051
-16 -2 -11 8.4798 8.3353
-16 -2 -10 -12.0801 15.1304
-16 -2 -9 -1.1558 -28.3245
-16 -2 -8 -0.0144 0.2624
-16 -2 -7 30.9978 1.0844
-16 -2 -6 11.2273 22.3953
-16 -2 -5 2.8442 18.0282
-16 -2 -4 4.6469 17.2192
-16 -2 -3 9.4923 10.8553
-16 -2 -2 -9.7863 2.2864
-16 -2 -1 -35.4355 29.3094
-16 -1 -18 -0.3197 -6.7289
-16 -1 -17 -3.2909 -0.7987
-16 -1 -16 0.9203 -4.0868
-16 -1 -15 2.0688 0.3989
-16 -1 -14 -5.0884 6.4554
-16 -1 -13 -1.7794 0.6170
-16 -1 -12 8.3654 16.8347
-16 -1 -11 -3.7688 -1.5893
-16 -1 -10 -2.1000 17.4127
-16 -1 -9 -14.6034 -8.4997
-16 -1 -8 -3.4137 -5.9467
-16 -1 -7 4.6657 9.6153
-16 -1 -6 8.9511 -13.1275
-16 -1 -5 -5.2026 6.8921
-16 -1 -4 -26.8857 11.5495
-16 -1 -3 -13.1998 6.8728
-16 -1 -2 21.0690 10.5080
-16 -1 -1 0.6968 -36.7310
-16 0 -19 -3.1865 -1.9411
-16 0 -18 1.2202 -1.3180
-16 0 -17 -9.1143 -3.9137
-16 0 -16 -3.9058 -7.0296
-16 0 -15 9.2153 -3.4738
-16 0 -14 3.5478 11.5314
-16 0 -13 -16.8681 -7.3419
-16 0 -12 3.8489 13.8759
-16 0 -11 29.9679 -4.4120
-16 0 -10 7.6568 22.0968
-16 0 -9 -3.5931 1.5688
-16 0 -8 29.6484 -7.4367
-16 0 -7 9.6502 -2.9352
-16 0 -6 3.4309 41.0668
-16 0 -5 -9.6947 40.1098
-16 0 -4 -15.0590 -24.6158
-16 0 -3 -14.6261 19.1124
-16 0 -2 -16.2943 19.9481
-16 0 -1 14.2243 9.9328
-15 -12 -5 -0.8499 5.5065
-15 -12 -4 10.5735 9.9593
-15 -12 -3 -9.5836 4.6238
-15 -12 -2 31.1860 -18.4570
-15 -12 -1 19.1313 -22.7798
-15 -11 -8 9.7200 2.0470
-15 -11 -7 -20.5081 29.8744
-15 -11 -6 -10.1026 -16.3928
-15 -11 -5 8.2655 19.1079
-15 -11 -4 0.9601 -16.5848
-15 -11 -3 13.6090 19.8509
-15 -11 -2 16.6976 31.0510
-15 -11 -1 56.5950 -32.6852
-15 -10 -10 -5.0289 9.5283
-15 -10 -9 6.0098 18.9284
-15 -10 -8 -3.8672 4.8444
-15 -10 -7 4.9089 -12.4964
-15 -10 -6 -10.4794 11.8317
-15 -10 -5 10.2384 31.0909
-15 -10 -4 5.3157 -0.0405
-15 -10 -3 1.1881 28.0151
-15 -10 -2 18.5243 2.0603
-15 -10 -1 53.5762 -35.2559
-15 -9 -12 -0.9591 -2.4775
-15 -9 -11 0.4820 -6.6666
-15 -9 -10 -7.6586 0.1717
-15 -9 -9 -12.5894 21.3871
-15 -9 -8 -16.3436 4.9346
-15 -9 -7 -0.6387 3.8930
-15 -9 -6 10.8721 14.2130
-15 -9 -5 9.7882 -12.5009
-15 -9 -4 18.6422 -5.9181
-15 -9 -3 -10.8855 37.1005
-15 -9 -2 12.2543 57.8319
-15 -9 -1 -4.0449 7.7372
-15 -8 -14 5.3436 1.4003
-15 -8 -13 5.4980 -4.2851
-15 -8 -12 17.3525 -1.2956
-15 -8 -11 -4.9480 -11.1903
-15 -8 -10 20.4223 24.9354
-15 -8 -9 -2.4889 -18.4206
-15 -8 -8 10.4310 -0.6512
-15 -8 -7 8.1322 -2.8895
-15 -8 -6 -2.2728 42.1787
-15 -8 -5 9.9788 3.8102
-15 -8 -4 13.8760 8.5958
-15 -8 -3 -15.6477 3.9671
-15 -8 -2 -16.2516 17.5742
-15 -8 -1 -10.3542 1.7262
-15 -7 -15 -3.1936 1.4732
-15 -7 -14 -6.3352 6.5604
-15 -7 -13 -1.2229 -10.2774
-15 -7 -12 -1.8031 5.1018
-15 -7 -11 -9.7845 -9.9498
-15 -7 -10 -7.5399 5.4538
-15 -7 -9 9.4952 -4.3062
-15 -7 -8 12.5992 -3.9761
-15 -7 -7 -6.7004 16.4182
-15 -7 -6 29.1232 -26.9269
-15 -7 -5 14.8100 -29.7458
-15 -7 -4 23.4118 40.1044
-15 -7 -3 19.7038 -22.6118
-15 -7 -2 14.2795 -21.2105
-15 -7 -1 -33.4786 23.6087
-15 -6 -16 -0.7828 0.6685
-15 -6 -15 -3.4753 -0.2870
-15 -6 -14 4.7532 -2.6595
-15 -6 -13 -10.2117 -5.5776
-15 -6 -12 0.9086 -4.8179
-15 -6 -11 -6.5494 3.2363
-15 -6 -10 2.4578 2.2563
-15 -6 -9 -19.7743 3.0188
-15 -6 -8 16.8964 7.1053
-15 -6 -7 -1.5932 13.1926
-15 -6 -6 8.0867 15.8329
-15 -6 -5 -30.5518 28.6685
-15 -6 -4 -1.4532 -16.3353
-15 -6 -3 26.9039 -22.0608
-15 -6 -2 -23.4236 -3.4856
-15 -6 -1 16.2532 -5.1631
-15 -5 -17 -4.9740 -0.8573
-15 -5 -16 1.4596 3.7149
-15 -5 -15 -1.5927 0.7322
-15 -5 -14 -0.8749 -3.1207
-15 -5 -13 -6.3170 0.8588
-15 -5 -12 -8.2187 4.6127
-15 -5 -11 5.3686 -5.3052
-15 -5 -10 12.1871 -9.3233
-15 -5 -9 5.4568 12.8221
-15 -5 -8 -5.5650 -8.6037
-15 -5 -7 7.7969 -2.5519
-15 -5 -6 11.6595 -12.3123
-15 -5 -5 -14.7635 -29.0461
-15 -5 -4 43.6601 27.8931
-15 -5 -3 -37.6910 7.4421
-15 -5 -2 6.9237 -35.0986
-15 -5 -1 3.8273 52.9433
-15 -4 -17 -2.7513 -4.9198
-15 -4 -16 -1.8263 4.9406
-15 -4 -15 -0.2593 0.0732
-15 -4 -14 2.1926 2.6297
-15 -4 -13 -2.7822 -5.0955
-15 -4 -12 0.1108 -2.2722
-15 -4 -11 6.5507 5.2708
-15 -4 -10 -0.0766 1.4065
-15 -4 -9 8.7548 -2.4640
-15 -4 -8 2.5388 -13.6664
-15 -4 -7 0.6855 -17.8840
-15 -4 -6 3.1533 12.2619
-15 -4 -5 -11.8290 23.9018
-15 -4 -4 -11.7846 -8.6687
-15 -4 -3 32.9673 -19.6905
-15 -4 -2 7.9610 42.6318
-15 -4 -1 -7.2115 1.9616
-15 -3 -18 4.2972 -9.0949
-15 -3 -17 -2.1158 -1.0052
-15 -3 -16 2.9868 -1.7538
-15 -3 -15 -1.1374 -4.6574
-15 -3 -14 -8.1486 -1.1937
-15 -3 -13 10.8057 2.5935
-15 -3 -12 2.5966 2.7593
-15 -3 -11 -5.0446 -7.3949
-15 -3 -10 4.9572 0.9344
-15 -3 -9 -8.5378 1.4274
-15 -3 -8 -10.8156 -1.4186
-15 -3 -7 1.9272 -1.0983
-15 -3 -6 15.7792 -9.4913
-15 -3 -5 -2.9083 11.2499
-15 -3 -4 -3.6182 12.6884
-15 -3 -3 11.1906 2.9503
-15 -3 -2 -12.9257 -3.2257
-15 -3 -1 -14.3320 6.2498
-15 -2 -19 -0.0919 -3.2462
-15 -2 -18 0.3092 -1.9209
-15 -2 -17 -8.7528 -1.9975
-15 -2 -16 7.3375 1.9017
-15 -2 -15 4.5119 -2.9676
-15 -2 -14 4.1250 1.0241
-15 -2 -13 3.8862 -5.0142
-15 -2 -12 0.7669 -10.2279
-15 -2 -11 2.3113 -9.7500
-15 -2 -10 -10.1493 -1.8319
-15 -2 -9 -4.3150 -9.3790
-15 -2 -8 -11.1565 -5.0971
-15 -2 -7 33.6484 7.9287
-15 -2 -6 9.8168 6.9362
-15 -2 -5 3.4441 -2.1987
-15 -2 -4 -14.1507 8.6602
-15 -2 -3 21.1569 -11.7801
-15 -2 -2 25.9353 -9.7845
-15 -2 -1 7.6912 -10.8238
-15 -1 -19 -1.1361 1.0180
-15 -1 -18 -3.8851 -2.2587
-15 -1 -17 7.9086 2.1683
-15 -1 -16 -0.5126 -1.1507
-15 -1 -15 -0.7073 -3.9673
-15 -1 -14 -3.1686 5.3334
-15 -1 -13 -10.1257 -2.7432
-15 -1 -12 -3.9446 6.0755
-15 -1 -11 -2.0714 1.2218
-15 -1 -10 15.9069 17.9140
-15 -1 -9 5.3155 0.4492
-15 -1 -8 -2.5821 -5.7047
-15 -1 -7 2.6356 -6.7900
-15 -1 -6 -4.5276 -2.4547
-15 -1 -5 5.3851 13.9128
-15 -1 -4 -1.8269 -6.6486
-15 -1 -3 -1.9602 -4.4880
-15 -1 -2 8.6627 -7.4929
-15 -1 -1 7.1782 -20.9949
-15 0 -20 0.1078 -5.4680
-15 0 -19 -1.1903 -2.1052
-15 0 -18 -2.7837 -4.1335
-15 0 -17 -0.3437 3.0121
-15 0 -16 0.6666 -3.7428
-15 0 -15 0.6728 10.0131
-15 0 -14 7.5789 4.6678
-15 0 -13 -14.5231 -4.5926
-15 0 -12 -11.7590 9.1359
-15 0 -11 9.4897 -17.4669
-15 0 -10 1.1192 -9.1884
-15 0 -9 18.8183 2.9435
-15 0 -8 14.2326 -5.5659
-15 0 -7 -13.3928 -5.4803
-15 0 -6 -3.3985 10.2783
-15 0 -5 20.4676 1.3542
-15 0 -4 -22.2570 -25.9012
-15 0 -3 9.6298 3.3904
-15 0 -2 45.5380 -6.0301
-15 0 -1 28.3688 -38.9677
-14 -13 -5 -13.5936 15.9690
-14 -13 -4 -2.5290 -7.7641
-14 -13 -3 6.1625 -4.0586
-14 -13 -2 -31.1117 -2.6892
-14 -13 -1 63.0165 -30.4195
-14 -12 -9 -18.2835 -12.9858
-14 -12 -8 10.9920 7.4402
-14 -12 -7 -31.4255 19.2524
-14 -12 -6 -16.9518 -4.9584
-14 -12 -5 38.6579 23.0901
-14 -12 -4 -1.7666 -6.4083
-14 -12 -3 -16.5166 -10.2672
-14 -12 -2 -57.5376 -43.8460
-14 -12 -1 -55.3917 117.8399
-14 -11 -11 5.3811 2.7855
-14 -11 -10 2.7744 -12.4820
-14 -11 -9 -9.3344 6.3080
-14 -11 -8 -4.2072 -4.3907
-14 -11 -7 -4.0498 15.8166
-14 -11 -6 2.1155 -10.8868
-14 -11 -5 6.7212 8.6173
-14 -11 -4 2.9029 -11.5475
-14 -11 -3 -11.6486 7.2220
-14 -11 -2 70.7180 25.3737
-14 -11 -1 2.3970 9.5106
-14 -10 -12 8.1731 -0.0445
-14 -10 -11 -8.0707 -6.2802
-14 -10 -10 17.4756 -2.5458
-14 -10 -9 0.6567 -0.6896
-14 -10 -8 11.0949 11.4096
-14 -10 -7 -52.4754 15.2771
-14 -10 -6 -8.6223 -10.9870
-14 -10 -5 -5.8249 9.7118
-14 -10 -4 -0.8628 10.4029
-14 -10 -3 -2.0117 -36.6923
-14 -10 -2 -37.9793 -46.0649
-14 -10 -1 42.3223 -18.8542
-14 -9 -14 -2.7356 1.8125
-14 -9 -13 3.2555 4.5693
-14 -9 -12 -15.2256 12.1524
-14 -9 -11 3.6808 -9.8709
-14 -9 -10 5.3259 9.8336
-14 -9 -9 9.4724 2.1375
-14 -9 -8 15.3882 -7.5998
-14 -9 -7 21.2036 1.4258
-14 -9 -6 19.7819 -3.4396
-14 -9 -5 -50.7911 -37.9944
-14 -9 -4 -5.9969 15.7595
-14 -9 -3 -12.9699 -4.2094
-14 -9 -2 -13.9516 16.4656
-14 -9 -1 -13.1581 1.1345
-14 -8 -15 -0.2231 -3.8985
-14 -8 -14 9.1847 -5.6283
-14 -8 -13 5.1046 -2.3567
-14 -8 -12 -0.7882 -7.5998
-14 -8 -11 -11.9754 -0.7928
-14 -8 -10 6.4462 0.5752
-14 -8 -9 -41.3491 16.8748
-14 -8 -8 14.8845 -1.8316
-14 -8 -7 -8.8258 3.8391
-14 -8 -6 27.5467 -24.0913
-14 -8 -5 -20.1281 -17.8939
-14 -8 -4 -30.1470 5.5934
-14 -8 -3 21.4845 -18.0292
-14 -8 -2 12.4835 9.9869
-14 -8 -1 -12.6886 -14.3091
-14 -7 -16 -1.2425 3.2377
-14 -7 -15 -2.7381 0.3795
-14 -7 -14 0.7445 -0.1550
-14 -7 -13 2.9956 2.0499
-14 -7 -12 -0.2038 -4.9396
-14 -7 -11 -0.8545 -5.0470
-14 -7 -10 5.3118 -7.9618
-14 -7 -9 -0.4402 -5.9914
-14 -7 -8 6.8390 24.9822
-14 -7 -7 -7.6653 -3.3055
-14 -7 -6 12.7842 -10.0233
-14 -7 -5 10.7370 -27.4864
-14 -7 -4 49.6477 31.5917
-14 -7 -3 -46.8936 -65.2388
-14 -7 -2 26.1299 -8.1876
-14 -7 -1 -34.6165 86.2656
-14 -6 -17 -7.9279 4.2059
-14 -6 -16 1.9904 -4.0856
-14 -6 -15 3.2188 9.7222
-14 -6 -14 -1.9478 -5.6934
-14 -6 -13 5.0647 9.1963
-14 -6 -12 -0.8030 4.4288
-14 -6 -11 -4.0699 -3.1238
-14 -6 -10 -14.6279 -17.4503
-14 -6 -9 0.6568 -12.1933
-14 -6 -8 -1.0194 12.7197
-14 -6 -7 2.2373 7.4081
-14 -6 -6 25.1824 -1.8166
-14 -6 -5 -4.6146 -61.7889
-14 -6 -4 -27.2819 -2.8855
-14 -6 -3 8.3639 4.6446
-14 -6 -2 16.0638 -29.6936
-14 -6 -1 33.3388 14.8484
-14 -5 -18 4.5013 3.1991
-14 -5 -17 1.6383 -2.3036
-14 -5 -16 2.7455 4.9906
-14 -5 -15 0.5165 3.6457
-14 -5 -14 5.5895 0.9752
-14 -5 -13 15.3054 0.9802
-14 -5 -12 -6.2845 3.3772
-14 -5 -11 0.5344 -1.2178
-14 -5 -10 8.6437 -6.9055
-14 -5 -9 0.7680 6.3320
-14 -5 -8 -12.7486 8.4985
-14 -5 -7 -16.3335 2.7587
-14 -5 -6 20.3859 28.9478
-14 -5 -5 -18.6531 1.2143
-14 -5 -4 -0.5546 -14.3744
-14 -5 -3 -38.5730 28.8119
-14 -5 -2 -42.3430 -1.6488
-14 -5 -1 -0.0104 -3.9935
-14 -4 -19 -1.8168 8.3909
-14 -4 -18 4.1729 0.2765
-14 -4 -17 -1.0527 -2.6091
-14 -4 -16 9.9747 -7.5771
-14 -4 -15 5.0809 -2.5381
-14 -4 -14 -3.5823 -4.0954
-14 -4 -13 5.4119 3.5002
-14 -4 -12 1.2403 -2.3964
-14 -4 -11 1.9675 -4.3533
-14 -4 -10 5.1733 6.8258
-14 -4 -9 2.7925 -10.9034
-14 -4 -8 0.0454 -3.1041
-14 -4 -7 7.5637 -5.8478
-14 -4 -6 -38.8644 46.8357
-14 -4 -5 -11.2511 -7.4833
-14 -4 -4 16.2640 57.3095
-14 -4 -3 15.2243 -2.6105
-14 -4 -2 5.7866 27.7825
-14 -4 -1 -14.1843 43.4209
-14 -3 -19 -2.1251 2.0175
-14 -3 -18 5.2007 2.0601
-14 -3 -17 1.3055 -2.7589
-14 -3 -16 7.1096 -0.4974
-14 -3 -15 -4.7056 -0.1189
-14 -3 -14 1.9885 2.4969
-14 -3 -13 6.9086 7.8381
-14 -3 -12 3.4872 4.0113
-14 -3 -11 -0.2227 -8.1553
-14 -3 -10 10.6430 -8.6671
-14 -3 -9 -0.5312 11.8283
-14 -3 -8 -15.0689 6.6239
-14 -3 -7 9.9006 -21.3877
-14 -3 -6 -25.0964 1.0688
-14 -3 -5 -27.8947 -4.4393
-14 -3 -4 -7.0272 18.2274
-14 -3 -3 -0.7340 23.4227
-14 -3 -2 12.2158 -2.1375
-14 -3 -1 6.6561 -7.4119
-14 -2 -20 -2.1360 -5.4503
-14 -2 -19 -0.8908 1.8910
-14 -2 -18 -1.6303 -1.3484
-14 -2 -17 0.2298 -1.2212
-14 -2 -16 -1.0110 -2.1436
-14 -2 -15 3.8948 2.5338
-14 -2 -14 0.7996 7.4493
-14 -2 -13 0.5671 2.8648
-14 -2 -12 -4.1575 5.9118
-14 -2 -11 -0.9550 -0.1036
-14 -2 -10 1.0637 9.9954
-14 -2 -9 8.9983 3.1384
-14 -2 -8 7.8986 -0.0626
-14 -2 -7 10.2627 -13.3264
-14 -2 -6 -15.3683 -7.3876
-14 -2 -5 2.8603 15.1957
-14 -2 -4 -7.7337 -11.1796
-14 -2 -3 20.5378 2.7066
-14 -2 -2 -8.2487 9.5776
-14 -2 -1 -7.8653 4.0722
-14 -1 -20 -5.1774 0.0112
-14 -1 -19 0.1794 -0.4475
-14 -1 -18 -1.9563 3.5691
-14 -1 -17 5.4392 7.2044
-14 -1 -16 1.9529 2.0086
-14 -1 -15 5.7272 1.8940
-14 -1 -14 3.3219 5.8618
-14 -1 -13 -10.9875 -5.3508
-14 -1 -12 2.7527 -0.2484
-14 -1 -11 8.2640 12.9311
-14 -1 -10 -12.3687 -5.2442
-14 -1 -9 -0.2733 -26.6911
-14 -1 -8 -7.2277 29.7563
-14 -1 -7 -6.7818 -10.1746
-14 -1 -6 12.5154 -24.3395
-14 -1 -5 9.6270 -12.7817
-14 -1 -4 -5.8937 4.6697
-14 -1 -3 -18.8584 18.3752
-14 -1 -2 -3.7984 10.7433
-14 -1 -1 -1.5769 -18.3670
-14 0 -21 -13.1479 -2.3082
-14 0 -20 5.5315 -0.8418
-14 0 -19 1.1126 0.3351
-14 0 -18 -4.2817 -4.2938
-14 0 -17 5.8610 -1.4591
-14 0 -16 -0.6999 2.4278
-14 0 -15 -4.2271 -9.8266
-14 0 -14 -5.7531 0.0696
-14 0 -13 -8.4118 -2.1198
-14 0 -12 -10.9939 5.5502
-14 0 -11 3.4358 -3.0838
-14 0 -10 3.8037 6.2220
-14 0 -9 10.6168 1.5940
-14 0 -8 -26.3471 -1.0852
-14 0 -7 3.6036 -5.0375
-14 0 -6 -15.4668 11.8584
-14 0 -5 -0.5007 8.5813
-14 0 -4 33.4565 50.9996
-14 0 -3 33.7174 27.5700
-14 0 -2 6.7567 -3.5534
-14 0 -1 43.7557 -38.0942
-13 -13 -8 22.1818 -28.0370
-13 -13 -6 -7.3948 -56.9650
-13 -13 -4 -14.7185 1.1276
-13 -13 -2 59.9432 -23.2813
-13 -12 -11 -14.7642 -4.8857
-13 -12 -10 9.3983 -12.7585
-13 -12 -9 5.0461 -8.6178
-13 -12 -8 -15.6880 -0.1678
-13 -12 -7 4.3280 1.7739
-13 -12 -6 0.1618 -13.2539
-13 -12 -5 5.6457 15.1606
-13 -12 -4 -11.5574 -11.6798
-13 -12 -3 7.1113 -15.1394
-13 -12 -2 -38.9065 -20.6503
-13 -12 -1 54.2552 -93.2261
-13 -11 -12 3.3848 -11.9825
-13 -11 -11 -9.9183 -1.2585
-13 -11 -10 -30.2650 -25.8967
-13 -11 -9 -13.7643 10.3900
-13 -11 -8 -22.2361 -10.9722
-13 -11 -7 -27.1065 53.3082
-13 -11 -6 -4.8256 13.8485
-13 -11 -5 5.8401 41.9702
-13 -11 -4 9.2559 -25.6091
-13 -11 -3 -14.6274 10.7805
-13 -11 -2 -20.5762 -21.1960
-13 -11 -1 -47.3803 65.0677
-13 -10 -14 2.3993 4.5572
-13 -10 -13 11.7869 -2.1006
-13 -10 -12 6.2930 2.2589
-13 -10 -11 -0.9007 -13.4636
-13 -10 -10 14.1208 -2.1650
-13 -10 -9 -16.1692 19.6970
-13 -10 -8 7.2217 -5.6648
-13 -10 -7 -22.3894 -14.6347
-13 -10 -6 -2.3338 23.8430
-13 -10 -5 0.7875 38.9035
-13 -10 -4 1.9096 17.4265
-13 -10 -3 31.0068 -2.3038
-13 -10 -2 23.4252 23.2322
-13 -10 -1 15.3682 6.4961
-13 -9 -15 -5.6758 0.3243
-13 -9 -14 3.0194 13.7390
-13 -9 -13 -0.2727 -0.0614
-13 -9 -12 14.7071 -4.4993
-13 -9 -11 9.8538 -11.6548
-13 -9 -10 -13.7010 -12.5179
-13 -9 -9 -10.4771 4.3168
-13 -9 -8 -11.5088 13.4825
-13 -9 -7 -16.8774 42.7102
-13 -9 -6 -19.2796 -11.2546
-13 -9 -5 6.9005 -34.1065
-13 -9 -4 12.0067 5.9813
-13 -9 -3 -2.2413 11.8443
-13 -9 -2 -1.8109 -48.6219
-13 -9 -1 -12.5975 -10.9767
-13 -8 -16 3.5822 3.8714
-13 -8 -15 -6.5422 -4.8170
-13 -8 -14 2.0321 6.4779
-13 -8 -13 -1.5179 -5.9272
-13 -8 -12 -0.4939 2.8506
-13 -8 -11 3.6709 -0.5986
-13 -8 -10 19.0595 22.4724
-13 -8 -9 1.4002 -2.5578
-13 -8 -8 4.3484 -6.6760
-13 -8 -7 -7.0050 19.1593
-13 -8 -6 -25.7054 27.8189
-13 -8 -5 2.6702 16.7321
-13 -8 -4 30.9871 33.7114
-13 -8 -3 32.8022 4.0582
-13 -8 -2 -18.3721 18.0924
-13 -8 -1 25.1009 -16.4597
-13 -7 -17 6.4077 0.6996
-13 -7 -16 -1.7926 5.4205
-13 -7 -15 -7.1101 1.2750
-13 -7 -14 2.9398 -1.9630
-13 -7 -13 9.7528 2.6985
-13 -7 -12 -8.1595 -3.1987
-13 -7 -11 -1.3247 1.6312
-13 -7 -10 -6.2844 14.2272
-13 -7 -9 27.0102 -4.3197
-13 -7 -8 9.1366 3.3775
-13 -7 -7 0.4845 11.2414
-13 -7 -6 13.6776 -55.1010
-13 -7 -5 2.3741 -31.4185
-13 -7 -4 9.0359 -21.4449
-13 -7 -3 -34.6199 2.7566
-13 -7 -2 -50.6059 -29.3146
-13 -7 -1 4.2903 -5.4649
-13 -6 -18 8.2631 2.3670
-13 -6 -17 -4.1074 4.4935
-13 -6 -16 -5.5393 0.2489
-13 -6 -15 -1.8769 4.9018
-13 -6 -14 -1.8481 3.3401
-13 -6 -13 -1.9028 -0.6828
-13 -6 -12 -3.9101 4.8389
-13 -6 -11 5.1085 2.3221
-13 -6 -10 1.0996 1.4434
-13 -6 -9 -12.5930 -8.0020
-13 -6 -8 6.9094 18.5470
-13 -6 -7 -30.6550 7.4047
-13 -6 -6 9.6460 -6.2310
-13 -6 -5 12.9102 0.3782
-13 -6 -4 4.5413 -3.0612
-13 -6 -3 -13.2144 -5.6513
-13 -6 -2 -17.9282 64.3404
-13 -6 -1 -33.9816 68.3798
-13 -5 -19 -3.3169 6.0212
-13 -5 -18 -0.5544 0.1599
-13 -5 -17 3.9558 -1.1824
-13 -5 -16 -1.5882 2.8577
-13 -5 -15 4.4251 -3.4805
-13 -5 -14 5.8948 8.6174
-13 -5 -13 -7.6458 -9.1148
-13 -5 -12 -0.0381 -1.5020
-13 -5 -11 -0.8523 9.9382
-13 -5 -10 3.6956 -3.7187
-13 -5 -9 -1.6490 -3.1641
-13 -5 -8 -8.0149 24.0873
-13 -5 -7 -12.1589 8.5013
-13 -5 -6 -6.5829 -8.9333
-13 -5 -5 9.5182 10.0442
-13 -5 -4 -19.8637 -34.3348
-13 -5 -3 15.4022 -30.5462
-13 -5 -2 -13.0340 15.0519
-13 -5 -1 19.8189 -7.5524
-13 -4 -19 3.0248 -0.8933
-13 -4 -18 0.2776 1.8049
-13 -4 -17 0.8721 -1.9878
-13 -4 -16 -1.8993 3.6621
-13 -4 -15 3.9390 2.2030
-13 -4 -14 2.0379 -5.9539
-13 -4 -13 3.1119 -1.2927
-13 -4 -12 -7.3189 2.8374
-13 -4 -11 -3.3542 -5.7504
-13 -4 -10 4.6995 -8.8667
-13 -4 -9 18.1114 -6.7137
-13 -4 -8 2.9680 3.6513
-13 -4 -7 9.4351 -3.7308
-13 -4 -6 -8.5846 16.1706
-13 -4 -5 -1.7339 4.6142
-13 -4 -4 -12.8949 10.6512
-13 -4 -3 16.6973 4.8578
-13 -4 -2 -7.2732 5.2053
-13 -4 -1 7.5594 6.5089
-13 -3 -20 -1.8539 0.5511
-13 -3 -19 0.3608 -5.3010
-13 -3 -18 0.1288 3.1547
-13 -3 -17 -5.1187 0.4911
-13 -3 -16 0.3482 0.8667
-13 -3 -15 -2.3705 4.0129
-13 -3 -14 0.5331 -2.1815
-13 -3 -13 -3.0523 1.3905
-13 -3 -12 -4.9232 3.8748
-13 -3 -11 -3.0492 -5.1584
-13 -3 -10 -3.3654 -2.2255
-13 -3 -9 -4.3937 1.4734
-13 -3 -8 -16.8431 -0.0751
-13 -3 -7 -4.1851 9.6778
-13 -3 -6 1.0516 -15.3899
-13 -3 -5 10.9880 -17.6604
-13 -3 -4 -11.3666 -5.0679
-13 -3 -3 -0.1226 16.7592
-13 -3 -2 2.1668 -7.3591
-13 -3 -1 -23.3224 12.7778
-13 -2 -21 -8.6875 -1.4344
-13 -2 -20 5.3642 -1.3884
-13 -2 -19 2.1112 1.4149
-13 -2 -18 1.2840 -1.3583
-13 -2 -17 1.2905 -3.5016
-13 -2 -16 -3.4859 1.4189
-13 -2 -15 0.3810 3.9808
-13 -2 -14 -1.1760 5.1928
-13 -2 -13 -2.2840 -1.1283
-13 -2 -12 4.2432 -5.7386
-13 -2 -11 0.2553 -1.4096
-13 -2 -10 6.0999 2.8491
-13 -2 -9 7.0725 11.3858
-13 -2 -8 -4.1070 -15.9072
-13 -2 -7 -25.1957 13.4073
-13 -2 -6 -30.6873 -6.0110
-13 -2 -5 -1.0621 -14.8338
-13 -2 -4 19.5028 12.7667
-13 -2 -3 32.1575 19.7718
-13 -2 -2 15.6375 -0.8176
-13 -2 -1 18.8931 -33.3937
-13 -1 -21 3.3690 6.2415
-13 -1 -20 -2.9347 2.7800
-13 -1 -19 3.4893 -2.7552
-13 -1 -18 -8.0189 6.8863
-13 -1 -17 -3.6296 -0.7443
-13 -1 -16 -1.4051 4.8355
-13 -1 -15 7.0387 9.6701
-13 -1 -14 -3.7528 -0.3339
-13 -1 -13 -4.2242 -4.0028
-13 -1 -12 -0.4485 -10.1596
-13 -1 -11 2.6835 -4.8640
-13 -1 -10 3.9153 10.1599
-13 -1 -9 -2.9211 5.3162
-13 -1 -8 14.6268 5.1132
-13 -1 -7 4.4810 -1.2588
-13 -1 -6 -2.5564 -14.9322
-13 -1 -5 2.6607 -2.7976
-13 -1 -4 1.9834 -2.1494
-13 -1 -3 19.9665 -18.5491
-13 -1 -2 -40.1045 -3.4144
-13 -1 -1 -7.0378 -35.6110
-13 0 -21 0.3373 -4.1579
-13 0 -20 0.6176 -3.9631
-13 0 -19 -0.5954 0.5639
-13 0 -18 0.1973 8.6226
-13 0 -17 -0.0613 3.4385
-13 0 -16 0.7701 -4.8856
-13 0 -15 -2.0592 5.9586
-13 0 -14 -1.8134 2.1877
-13 0 -13 -3.0160 13.0606
-13 0 -12 -0.5968 -1.6948
-13 0 -11 5.0697 -3.6604
-13 0 -10 -5.4175 10.7472
-13 0 -9 -4.0902 -3.6498
-13 0 -8 3.0600 -10.3679
-13 0 -7 -8.0150 14.1186
-13 0 -6 19.0095 -17.6930
-13 0 -5 34.4731 1.8436
-13 0 -4 -5.1118 -33.4583
-13 0 -3 0.1905 7.8025
-13 0 -2 -32.6400 15.0635
-13 0 -1 60.1536 -20.4153
-12 -12 -12 -1.6358 -2.3451
-12 -12 -10 38.5055 -8.2149
-12 -12 -8 -0.0252 -22.2838
-12 -12 -6 7.6789 30.2684
-12 -12 -4 3.9817 7.5957
-12 -12 -2 70.9377 20.4855
-12 -11 -14 2.1691 -6.6645
-12 -11 -13 -11.2503 -10.1105
-12 -11 -12 -2.0933 -3.7662
-12 -11 -11 -20.4873 1.3901
-12 -11 -10 5.3682 0.5171
-12 -11 -9 -4.6325 14.5845
-12 -11 -8 -33.5531 -30.4435
-12 -11 -7 13.4082 -3.8887
-12 -11 -6 11.5480 -18.2770
-12 -11 -5 13.9074 -17.1787
-12 -11 -4 -40.5856 -13.9687
-12 -11 -3 3.6931 -20.6638
-12 -11 -2 16.3215 -45.4667
-12 -11 -1 28.9765 -8.0391
-12 -10 -15 0.1167 -10.5401
-12 -10 -14 -1.1948 -5.3860
-12 -10 -13 -0.0385 10.8566
-12 -10 -12 5.0591 2.5061
-12 -10 -11 3.5819 -4.6747
-12 -10 -10 -2.4303 12.1678
-12 -10 -9 -16.7466 -8.4739
-12 -10 -8 41.5595 10.9245
-12 -10 -7 -22.4318 51.6417
-12 -10 -6 -7.1082 17.9894
-12 -10 -5 -13.3051 25.6910
-12 -10 -4 -11.3184 -18.5359
-12 -10 -3 1.7024 9.6532
-12 -10 -2 -19.0815 7.4491
-12 -10 -1 -23.6919 3.7555
-12 -9 -16 -3.5047 5.1666
-12 -9 -15 0.4540 -0.4210
-12 -9 -14 2.9960 0.4995
-12 -9 -13 -4.6984 -1.3578
-12 -9 -12 -2.5634 -2.6106
-12 -9 -11 2.4347 17.1694
-12 -9 -10 -4.7091 10.0664
-12 -9 -9 36.4254 -1.3064
-12 -9 -8 -20.4609 2.1960
-12 -9 -7 21.9195 11.5364
-12 -9 -6 6.5807 37.5400
-12 -9 -5 -8.8713 22.5401
-12 -9 -4 -0.5514 -10.1286
-12 -9 -3 66.6650 9.6013
-12 -9 -2 -29.2277 -11.1436
-12 -9 -1 -0.9794 -2.9999
-12 -8 -17 -0.4707 -2.2190
-12 -8 -16 3.4923 8.0395
-12 -8 -15 -1.6043 -3.4112
-12 -8 -14 2.5307 -2.8808
-12 -8 -13 -0.7770 1.9628
-12 -8 -12 -0.8440 2.4870
-12 -8 -11 -0.6488 19.7434
-12 -8 -10 8.2841 2.6581
-12 -8 -9 -13.3253 -0.0450
-12 -8 -8 19.3676 4.8214
-12 -8 -7 -26.9781 56.2147
-12 -8 -6 -23.6352 -4.1235
-12 -8 -5 5.3163 8.9088
-12 -8 -4 35.0397 52.1603
-12 -8 -3 28.7998 18.0338
-12 -8 -2 7.8702 17.7859
-12 -8 -1 -28.4787 33.1332
-12 -7 -18 -7.2535 -4.2869
-12 -7 -17 -2.3724 6.1786
-12 -7 -16 2.3608 8.5298
-12 -7 -15 7.7107 -4.6232
-12 -7 -14 7.2662 7.6385
-12 -7 -13 5.2575 0.3031
-12 -7 -12 17.1102 -11.9340
-12 -7 -11 -2.6119 -1.3992
-12 -7 -10 -15.5689 -6.9021
-12 -7 -9 2.1479 -13.3078
-12 -7 -8 -27.2400 48.8224
-12 -7 -7 -19.0441 34.0795
-12 -7 -6 29.3228 -12.4228
-12 -7 -5 13.2956 -5.6121
-12 -7 -4 -36.4690 -28.6899
-12 -7 -3 14.1426 -7.1595
-12 -7 -2 -22.5463 24.4618
-12 -7 -1 8.6937 15.9969
-12 -6 -19 6.4557 -7.0501
-12 -6 -18 1.1395 -1.0538
-12 -6 -17 -1.0388 0.3510
-12 -6 -16 1.4382 4.4407
-12 -6 -15 4.3784 -2.1625
-12 -6 -14 6.1190 -2.5685
-12 -6 -13 -2.0799 2.8090
-12 -6 -12 -14.0424 2.4487
-12 -6 -11 -7.2025 -4.4139
-12 -6 -10 -8.7271 2.5364
-12 -6 -9 -5.5306 14.3256
-12 -6 -8 11.3057 5.2990
-12 -6 -7 3.5752 -1.4364
-12 -6 -6 -8.0518 14.3266
-12 -6 -5 -6.9129 16.5271
-12 -6 -4 16.7258 -16.5606
-12 -6 -3 -20.5262 -7.3312
-12 -6 -2 -25.4259 3.0690
-12 -6 -1 20.4078 5.2595
-12 -5 -20 6.6285 -0.5873
-12 -5 -19 -1.9920 -4.5664
-12 -5 -18 0.7669 -2.6400
-12 -5 -17 1.3936 1.3577
-12 -5 -16 -0.9588 -0.3955
-12 -5 -15 5.3607 -3.5452
-12 -5 -14 -0.6141 3.6109
-12 -5 -13 -0.6083 7.9115
-12 -5 -12 -2.7431 0.3918
-12 -5 -11 -3.7808 5.7524
-12 -5 -10 -16.8989 -1.0655
-12 -5 -9 -6.1737 -11.1104
-12 -5 -8 7.5786 8.8878
-12 -5 -7 -6.4861 -12.7948
-12 -5 -6 -22.5678 6.7683
-12 -5 -5 0.3620 19.3183
-12 -5 -4 -11.6852 -10.0017
-12 -5 -3 11.6333 1.9633
-12 -5 -2 5.9823 24.0320
-12 -5 -1 -4.1831 7.5103
-12 -4 -20 -7.3129 -1.3843
-12 -4 -19 0.9196 -1.5370
-12 -4 -18 2.7266 4.8953
-12 -4 -17 -2.1145 2.7006
-12 -4 -16 -2.1053 -1.9202
-12 -4 -15 -0.9591 1.9347
-12 -4 -14 -8.9329 0.8890
-12 -4 -13 3.4504 0.5020
-12 -4 -12 -6.8771 9.9139
-12 -4 -11 2.7768 -8.0475
-12 -4 -10 -4.7661 0.3208
-12 -4 -9 3.1801 10.6571
-12 -4 -8 -11.6745 38.9591
-12 -4 -7 13.3933 -37.3282
-12 -4 -6 -2.7317 23.9217
-12 -4 -5 10.3773 3.5209
-12 -4 -4 -14.4305 -2.4502
-12 -4 -3 -5.1296 2.1691
-12 -4 -2 25.2357 14.6516
-12 -4 -1 17.5005 -45.4322
-12 -3 -21 3.6966 3.4899
-12 -3 -20 0.2836 3.0750
-12 -3 -19 -2.0064 4.5772
-12 -3 -18 3.8897 4.8167
-12 -3 -17 4.0523 -2.5214
-12 -3 -16 0.1515 3.7559
-12 -3 -15 -1.8354 -1.7411
-12 -3 -14 -4.2285 -0.2711
-12 -3 -13 -0.9844 1.9953
-12 -3 -12 -5.0158 -0.1362
-12 -3 -11 3.5535 3.0105
-12 -3 -10 7.0929 -5.8566
-12 -3 -9 9.9550 -11.8582
-12 -3 -8 -17.0751 11.5095
-12 -3 -7 -0.7908 1.6771
-12 -3 -6 2.6861 -18.7128
-12 -3 -5 8.7825 -5.3793
-12 -3 -4 20.2084 5.2240
-12 -3 -3 -14.9473 15.9097
-12 -3 -2 -20.7434 -0.7448
-12 -3 -1 -13.8511 -22.3486
-12 -2 -21 2.8749 -1.8742
-12 -2 -20 0.8540 -3.7718
-12 -2 -19 -3.0458 -6.0499
-12 -2 -18 1.5198 7.2524
-12 -2 -17 2.6187 3.6972
-12 -2 -16 -3.8642 -3.0519
-12 -2 -15 5.8293 2.6194
-12 -2 -14 0.7975 2.7814
-12 -2 -13 -0.4565 -7.8826
-12 -2 -12 2.5704 -1.5275
-12 -2 -11 -2.3896 -4.2892
-12 -2 -10 -2.3361 -4.8497
-12 -2 -9 -0.7654 12.4066
-12 -2 -8 15.1622 8.0153
-12 -2 -7 13.1436 0.2246
-12 -2 -6 18.7043 -4.0054
-12 -2 -5 -16.5560 -11.4842
-12 -2 -4 -21.1595 -12.0461
-12 -2 -3 -6.3592 -7.7071
-12 -2 -2 -3.0421 7.1176
-12 -2 -1 24.9009 -20.8146
-12 -1 -22 4.6660 -1.2023
-12 -1 -21 -1.7096 -1.4392
-12 -1 -20 -2.0354 -1.7782
-12 -1 -19 -0.3528 2.9242
-12 -1 -18 -1.7130 4.1916
-12 -1 -17 8.4035 -3.9421
-12 -1 -16 6.6873 -7.1475
-12 -1 -15 -1.0472 6.8576
-12 -1 -14 -0.3889 3.7879
-12 -1 -13 4.7095 -1.4207
-12 -1 -12 2.1090 2.6563
-12 -1 -11 -6.1689 10.9921
-12 -1 -10 11.0521 -3.6559
-12 -1 -9 1.7011 -5.1275
-12 -1 -8 7.2240 -11.4438
-12 -1 -7 18.9082 -2.9663
-12 -1 -6 -8.5875 -2.0809
-12 -1 -5 -3.5357 -6.8310
-12 -1 -4 14.7387 16.4096
-12 -1 -3 -13.2358 2.3209
-12 -1 -2 -4.3866 13.3556
-12 -1 -1 38.6061 -41.2259
-12 0 -22 -9.4831 -3.9737
-12 0 -21 1.2034 3.1489
-12 0 -20 -0.2112 2.3719
-12 0 -19 -3.7569 -5.2946
-12 0 -18 4.7332 -6.8401
-12 0 -17 -2.3976 -2.6539
-12 0 -16 -0.5420 3.3332
-12 0 -15 2.7016 -2.7483
-12 0 -14 4.5640 -1.5791
-12 0 -13 -0.0153 -2.6991
-12 0 -12 7.4152 -10.3678
-12 0 -11 -0.4780 7.1957
-12 0 -10 -14.8815 9.7043
-12 0 -9 16.9588 -12.2896
-12 0 -8 1.7290 -0.6893
-12 0 -7 -19.1599 28.1634
-12 0 -6 3.8336 26.9687
-12 0 -5 8.9644 -1.0997
-12 0 -4 15.8626 -6.8299
-12 0 -3 10.5543 28.9587
-12 0 -2 10.8705 36.9923
-12 0 -1 -11.2594 -34.7028
-11 -11 -14 3.0866 -12.7285
-11 -11 -12 7.3042 -4.8867
-11 -11 -10 -35.8645 -2.5733
-11 -11 -8 -18.5856 5.8925
-11 -11 -6 18.1801 -11.1249
-11 -11 -4 -12.2315 5.4826
-11 -11 -2 -17.7964 -32.6147
-11 -10 -16 2.9104 -6.0723
-11 -10 -15 -2.5422 -2.8355
-11 -10 -14 -3.6457 2.2126
-11 -10 -13 5.2228 -4.1619
-11 -10 -12 1.1898 -1.0497
-11 -10 -11 7.5949 7.0495
-11 -10 -10 -13.2447 29.5722
-11 -10 -9 -3.0897 -5.0867
-11 -10 -8 3.2222 1.6010
-11 -10 -7 -14.3888 10.8487
-11 -10 -6 -34.5729 -7.6690
-11 -10 -5 -2.6903 32.7257
-11 -10 -4 -51.4125 2.5778
-11 -10 -3 10.5133 5.9757
-11 -10 -2 10.6806 -20.9646
-11 -10 -1 -30.3341 27.8327
-11 -9 -17 -1.2591 0.8541
-11 -9 -16 -0.2898 2.3780
-11 -9 -15 5.1345 4.3055
-11 -9 -14 2.3465 8.9013
-11 -9 -13 2.9421 0.4220
-11 -9 -12 13.0202 -13.8979
-11 -9 -11 0.5804 17.9650
-11 -9 -10 0.9463 2.6612
-11 -9 -9 1.1103 8.4375
-11 -9 -8 -5.2791 -0.5486
-11 -9 -7 16.0194 2.7014
-11 -9 -6 -35.7714 21.9220
-11 -9 -5 7.6588 5.7583
-11 -9 -4 -4.9828 -24.9074
-11 -9 -3 1.1231 -3.6740
-11 -9 -2 -21.3419 -0.3135
-11 -9 -1 -48.9181 -0.0132
-11 -8 -18 0.6078 2.6909
-11 -8 -17 6.9761 -4.2187
-11 -8 -16 -0.6556 3.5567
-11 -8 -15 -2.9897 -3.4982
-11 -8 -14 0.3858 7.0888
-11 -8 -13 2.0175 5.6740
-11 -8 -12 -2.5201 -1.2947
-11 -8 -11 -3.7168 3.0362
-11 -8 -10 1.6702 2.0937
-11 -8 -9 18.3684 -5.2046
-11 -8 -8 9.1273 7.9091
-11 -8 -7 -11.1759 -1.1954
-11 -8 -6 -18.7158 1.0237
-11 -8 -5 3.9658 12.1934
-11 -8 -4 -17.8185 -7.4658
-11 -8 -3 -33.7017 15.8525
-11 -8 -2 -1.5924 31.3125
-11 -8 -1 3.2239 42.6828
-11 -7 -19 0.3344 10.7746
-11 -7 -18 5.2387 1.0637
-11 -7 -17 4.3303 -3.6061
-11 -7 -16 7.6512 -0.7473
-11 -7 -15 -4.2077 -2.2356
-11 -7 -14 -1.8105 1.8961
-11 -7 -13 -2.4256 2.5256
-11 -7 -12 7.6545 -8.3024
-11 -7 -11 3.0831 7.9470
-11 -7 -10 -6.6223 -3.0798
-11 -7 -9 -6.2911 -0.8132
-11 -7 -8 1.3068 -8.7637
-11 -7 -7 -5.8910 -5.0765
-11 -7 -6 -26.2248 6.7669
-11 -7 -5 -10.9747 -9.4563
-11 -7 -4 23.5579 17.5108
-11 -7 -3 -3.4281 15.7866
-11 -7 -2 4.6276 -32.5692
-11 -7 -1 -7.6187 -14.3926
-11 -6 -20 -11.2607 0.2359
-11 -6 -19 -1.8360 -1.9535
-11 -6 -18 -5.1236 0.4769
-11 -6 -17 -0.1291 1.6515
-11 -6 -16 -0.7453 -0.7430
-11 -6 -15 -2.7900 -1.7521
-11 -6 -14 -3.8466 3.6475
-11 -6 -13 -4.7840 -5.2767
-11 -6 -12 6.0972 -0.0930
-11 -6 -11 4.2700 -2.8442
-11 -6 -10 -9.1874 -4.1556
-11 -6 -9 4.2458 9.5621
-11 -6 -8 -4.5160 23.7543
-11 -6 -7 4.0833 1.4849
-11 -6 -6 -6.5428 3.3838
-11 -6 -5 3.5300 12.7619
-11 -6 -4 -15.2585 -12.7294
-11 -6 -3 -6.2059 -6.9569
-11 -6 -2 12.0123 53.1503
-11 -6 -1 3.6931 1.2978
-11 -5 -20 -1.9302 -1.1567
-11 -5 -19 -3.5205 2.7281
-11 -5 -18 -3.3837 1.2391
-11 -5 -17 -4.7006 1.4716
-11 -5 -16 4.4759 -1.2662
-11 -5 -15 0.0614 5.9973
-11 -5 -14 -4.2842 -2.3568
-11 -5 -13 -7.1504 -3.8388
-11 -5 -12 -1.7902 -6.0102
-11 -5 -11 10.4250 3.1976
-11 -5 -10 -4.9354 6.1753
-11 -5 -9 0.3145 -6.4767
-11 -5 -8 -16.0704 3.9972
-11 -5 -7 2.3256 6.8626
-11 -5 -6 -7.0263 5.8576
-11 -5 -5 0.9527 18.6522
-11 -5 -4 10.7836 -12.2164
-11 -5 -3 -12.7782 10.9837
-11 -5 -2 3.7873 -3.9533
-11 -5 -1 -7.9740 10.7646
-11 -4 -21 -5.6495 -0.8878
-11 -4 -20 -5.5561 1.2991
-11 -4 -19 -1.7997 4.2639
-11 -4 -18 -1.9327 -1.1314
-11 -4 -17 5.0619 -0.5616
-11 -4 -16 -3.4825 3.8066
-11 -4 -15 2.4527 4.8597
-11 -4 -14 1.1901 -5.7564
-11 -4 -13 -7.1689 -0.8782
-11 -4 -12 -11.8268 4.6666
-11 -4 -11 10.1013 11.0971
-11 -4 -10 2.4403 6.4838
-11 -4 -9 -0.4782 3.5297
-11 -4 -8 -4.6064 -7.5285
-11 -4 -7 -10.1622 5.1310
-11 -4 -6 -7.2636 -12.7874
-11 -4 -5 8.0502 -20.9535
-11 -4 -4 11.4120 -12.0953
-11 -4 -3 15.4277 14.7411
-11 -4 -2 20.3345 18.0065
-11 -4 -1 -0.3785 -14.2977
-11 -3 -22 -1.3243 0.7491
-11 -3 -21 -2.9557 1.0098
-11 -3 -20 -0.7451 2.4519
-11 -3 -19 -2.9167 1.6991
-11 -3 -18 0.0226 -0.2932
-11 -3 -17 -6.6381 -2.2750
-11 -3 -16 -6.9950 -2.8727
-11 -3 -15 1.3618 10.7044
-11 -3 -14 -2.0841 5.8999
-11 -3 -13 -3.6952 0.8722
-11 -3 -12 1.7530 -6.3860
-11 -3 -11 -5.2110 1.7968
-11 -3 -10 -5.7328 -4.7384
-11 -3 -9 -11.0696 6.4189
-11 -3 -8 -3.7271 7.5409
-11 -3 -7 11.0912 -0.4863
-11 -3 -6 -16.4232 -10.0221
-11 -3 -5 -6.4257 -4.2242
-11 -3 -4 4.6815 -6.7552
-11 -3 -3 -7.2634 16.3948
-11 -3 -2 -11.7123 9.4432
-11 -3 -1 -3.0800 -14.2730
-11 -2 -22 -1.8888 -0.5412
-11 -2 -21 2.5698 -1.4388
-11 -2 -20 1.9523 1.3625
-11 -2 -19 1.8038 2.1819
-11 -2 -18 -0.4362 1.4603
-11 -2 -17 -1.9466 0.8758
-11 -2 -16 4.1485 -4.5557
-11 -2 -15 -4.4195 0.1621
-11 -2 -14 1.9033 2.5349
-11 -2 -13 -0.5066 -2.5725
-11 -2 -12 -3.0408 0.5930
-11 -2 -11 -10.3950 7.9727
-11 -2 -10 -0.7980 6.9805
-11 -2 -9 8.1652 -6.9982
-11 -2 -8 -6.9392 -5.6393
-11 -2 -7 -3.5516 20.6258
-11 -2 -6 18.0898 -11.5406
-11 -2 -5 2.7969 -19.1096
-11 -2 -4 3.4833 19.5335
-11 -2 -3 14.9526 -4.6183
-11 -2 -2 16.3044 -0.8944
-11 -2 -1 1.9257 -5.0011
-11 -1 -22 4.7739 -0.9438
-11 -1 -21 -0.5590 0.9124
-11 -1 -20 -2.3166 0.4666
-11 -1 -19 -0.8782 4.4966
-11 -1 -18 2.3555 7.0103
-11 -1 -17 5.0264 -2.0039
-11 -1 -16 3.7187 -1.2731
-11 -1 -15 0.7994 7.0546
-11 -1 -14 1.0187 2.9261
-11 -1 -13 -3.5391 -3.1748
-11 -1 -12 7.0519 -11.5679
-11 -1 -11 -3.4106 -8.7798
-11 -1 -10 -7.5250 -3.5521
-11 -1 -9 6.7819 12.7866
-11 -1 -8 -4.0304 4.0248
-11 -1 -7 4.8662 -17.3393
-11 -1 -6 20.1728 -6.0496
-11 -1 -5 -5.8989 -10.6215
-11 -1 -4 -34.2100 -15.9329
-11 -1 -3 -32.7750 18.8573
-11 -1 -2 1.3428 53.6705
-11 -1 -1 2.8247 -9.2147
-11 0 -23 6.0234 2.3234
-11 0 -22 9.0982 -11.2991
-11 0 -21 -1.8306 -0.9261
-11 0 -20 -4.0005 -4.4082
-11 0 -19 1.2608 4.1476
-11 0 -18 -2.3438 7.3110
-11 0 -17 2.4683 0.8900
-11 0 -16 9.9052 -3.8232
-11 0 -15 0.5219 -0.6336
-11 0 -14 6.3292 0.7877
-11 0 -13 -3.0681 -1.7073
-11 0 -12 9.1948 4.1687
-11 0 -11 5.5965 -1.1759
-11 0 -10 13.2761 -3.7847
-11 0 -9 4.9247 -1.3747
-11 0 -8 -10.7397 7.7734
-11 0 -7 -0.2132 10.1796
-11 0 -6 -20.4925 18.6178
-11 0 -5 -3.1491 21.2797
-11 0 -4 19.4605 -5.9719
-11 0 -3 14.5757 -5.7820
-11 0 -2 -1.6376 -52.7428
-11 0 -1 13.0749 12.3849
-10 -10 -18 4.1628 -2.5083
-10 -10 -16 -1.3323 3.1964
-10 -10 -14 6.7690 -6.8345
-10 -10 -12 14.4501 4.4494
-10 -10 -10 4.8002 22.4285
-10 -10 -8 24.8548 0.1538
-10 -10 -6 -16.6254 -11.1272
-10 -10 -4 -31.3417 -25.4885
-10 -10 -2 -11.3745 33.8327
-10 -9 -18 0.3808 -4.0726
-10 -9 -17 -0.9007 -0.5878
-10 -9 -16 -1.6042 1.8490
-10 -9 -15 0.4835 -1.5897
-10 -9 -14 -8.0515 8.6191
-10 -9 -13 -2.0559 11.3129
-10 -9 -12 -7.8502 6.8758
-10 -9 -11 -2.9776 20.8553
-10 -9 -10 10.5470 9.3516
-10 -9 -9 29.9200 -13.6641
-10 -9 -8 17.6682 9.0720
-10 -9 -7 -8.2037 -1.6519
-10 -9 -6 -9.8258 -14.0836
-10 -9 -5 10.5196 21.6315
-10 -9 -4 -23.9172 -3.8702
-10 -9 -3 -1.2372 -14.7281
-10 -9 -2 -9.0475 23.5278
-10 -9 -1 17.4095 16.5006
-10 -8 -19 -6.5446 2.7472
-10 -8 -18 0.8058 -0.1921
-10 -8 -17 3.1022 5.0461
-10 -8 -16 5.1027 0.4110
-10 -8 -15 1.2537 -0.2903
-10 -8 -14 -3.8961 -3.6441
-10 -8 -13 6.3731 5.5902
-10 -8 -12 2.9014 -7.1051
-10 -8 -11 -11.1577 4.8903
-10 -8 -10 -18.4661 -2.8134
-10 -8 -9 15.5426 -3.5748
-10 -8 -8 30.0131 14.8617
-10 -8 -7 3.5637 8.6461
-10 -8 -6 -4.9716 -13.3924
-10 -8 -5 7.2388 12.8674
-10 -8 -4 16.6131 -0.8503
-10 -8 -3 15.5720 3.3531
-10 -8 -2 20.4185 37.5684
-10 -8 -1 14.1441 -20.1671
-10 -7 -20 -1.7793 -7.5051
-10 -7 -19 2.0149 -6.1819
-10 -7 -18 -0.2942 -2.5147
-10 -7 -17 -3.4219 -3.2398
-10 -7 -16 -0.8860 -0.3414
-10 -7 -15 -3.5529 -1.9883
-10 -7 -14 2.5160 2.6522
-10 -7 -13 -0.1383 -8.8600
-10 -7 -12 -16.7067 -1.1365
-10 -7 -11 -4.9416 -2.6089
-10 -7 -10 -1.9456 -4.1663
-10 -7 -9 -17.3934 27.0156
-10 -7 -8 -0.9539 -10.2366
-10 -7 -7 -22.2423 -6.7347
-10 -7 -6 -13.4839 -3.6655
-10 -7 -5 -8.8066 0.1935
-10 -7 -4 -21.5244 -1.2978
-10 -7 -3 -7.0908 14.5434
-10 -7 -2 15.9277 10.5872
-10 -7 -1 -19.8350 14.0158
-10 -6 -21 -2.0912 3.4179
-10 -6 -20 4.2352 -1.3679
-10 -6 -19 6.0342 -1.0477
-10 -6 -18 -6.3715 -5.9049
-10 -6 -17 0.3639 -0.9971
-10 -6 -16 -2.6638 -0.6372
-10 -6 -15 -1.6114 -3.1627
-10 -6 -14 -2.7633 -2.9799
-10 -6 -13 9.7955 6.8415
-10 -6 -12 -1.9639 10.5430
-10 -6 -11 17.3450 -5.6461
-10 -6 -10 26.7626 2.8171
-10 -6 -9 9.0340 -7.9852
-10 -6 -8 -6.7479 -6.0085
-10 -6 -7 -3.7190 -10.7481
-10 -6 -6 0.1254 5.5589
-10 -6 -5 3.4658 -11.1859
-10 -6 -4 -0.8467 6.1655
-10 -6 -3 -11.4087 4.0265
-10 -6 -2 0.0247 -45.6891
-10 -6 -1 49.3537 -67.8118
-10 -5 -21 3.7573 1.2871
-10 -5 -20 2.5880 -0.5212
-10 -5 -19 -7.2588 5.0492
-10 -5 -18 -0.3625 2.6867
-10 -5 -17 3.2952 -0.1704
-10 -5 -16 5.6072 -3.0796
-10 -5 -15 1.2453 3.1082
-10 -5 -14 12.4297 -4.2868
-10 -5 -13 5.6716 -7.1718
-10 -5 -12 -4.2487 -5.2577
-10 -5 -11 -5.0460 -10.3054
-10 -5 -10 -1.9915 3.8796
-10 -5 -9 -16.7125 -7.2132
-10 -5 -8 -20.5831 -12.4768
-10 -5 -7 -7.6948 12.6093
-10 -5 -6 9.8108 3.7523
-10 -5 -5 6.0526 4.7683
-10 -5 -4 -31.8552 -31.0760
-10 -5 -3 10.7342 30.9341
-10 -5 -2 -29.8242 -20.8758
-10 -5 -1 19.4251 -11.0785
-10 -4 -22 2.9914 5.5628
-10 -4 -21 0.4930 1.1070
-10 -4 -20 2.7270 -0.7494
-10 -4 -19 -0.2409 1.0676
-10 -4 -18 3.2482 8.0821
-10 -4 -17 3.3764 2.6114
-10 -4 -16 -2.3369 1.8729
-10 -4 -15 -0.3226 -1.4788
-10 -4 -14 9.9591 12.5141
-10 -4 -13 -3.0184 6.9497
-10 -4 -12 2.5852 4.2745
-10 -4 -11 6.5852 2.0829
-10 -4 -10 3.5378 -1.3578
-10 -4 -9 5.1035 1.6282
-10 -4 -8 -7.7387 -5.9288
-10 -4 -7 13.5183 5.6416
-10 -4 -6 6.7971 -1.1755
-10 -4 -5 12.5743 3.8421
-10 -4 -4 8.2308 -0.8692
-10 -4 -3 29.7300 -45.5095
-10 -4 -2 28.3411 19.0151
-10 -4 -1 12.8418 -60.5231
-10 -3 -22 -2.5483 2.8896
-10 -3 -21 0.4174 0.6668
-10 -3 -20 1.1809 -2.4335
-10 -3 -19 -1.3229 -4.8911
-10 -3 -18 -0.6565 2.3543
-10 -3 -17 -2.2241 -0.1141
-10 -3 -16 7.3024 3.3559
-10 -3 -15 -2.0011 0.6758
-10 -3 -14 -3.4320 6.9260
-10 -3 -13 -3.0016 -1.1556
-10 -3 -12 4.1676 -0.6406
-10 -3 -11 -3.4909 0.0144
-10 -3 -10 -1.5324 -5.1612
-10 -3 -9 2.5814 -4.2692
-10 -3 -8 4.6518 -0.1990
-10 -3 -7 -7.7628 -2.8419
-10 -3 -6 -18.8383 -2.3763
-10 -3 -5 0.2303 8.2068
-10 -3 -4 -17.7093 14.3078
-10 -3 -3 -1.5802 1.0145
-10 -3 -2 5.9122 5.7591
-10 -3 -1 8.5828 -18.6654
-10 -2 -23 3.0980 -3.1413
-10 -2 -22 -3.1187 1.9250
-10 -2 -21 -8.6882 4.1448
-10 -2 -20 -1.7318 2.1032
-10 -2 -19 0.2114 -0.2408
-10 -2 -18 -0.8848 -0.6205
-10 -2 -17 -0.5181 -0.8809
-10 -2 -16 0.0889 1.2871
-10 -2 -15 -6.5498 4.8371
-10 -2 -14 -0.8102 4.3024
-10 -2 -13 -0.7048 -7.9853
-10 -2 -12 -3.3061 0.5824
-10 -2 -11 -8.6626 -10.9706
-10 -2 -10 -1.7592 0.2438
-10 -2 -9 8.5744 -0.0603
-10 -2 -8 -1.5508 8.6760
-10 -2 -7 -19.3262 -16.2043
-10 -2 -6 8.7916 2.4412
-10 -2 -5 -4.9819 29.2829
-10 -2 -4 30.6336 48.7673
-10 -2 -3 -60.6982 58.3506
-10 -2 -2 -0.8661 -28.3910
-10 -2 -1 -0.6944 -7.8595
-10 -1 -23 0.3335 5.7199
-10 -1 -22 -9.9627 3.3731
-10 -1 -21 -0.6743 -2.6259
-10 -1 -20 -0.0899 -1.6418
-10 -1 -19 -3.6331 1.1358
-10 -1 -18 -3.5666 4.4480
-10 -1 -17 -2.7078 9.5638
-10 -1 -16 0.7464 0.4448
-10 -1 -15 3.3819 0.5626
-10 -1 -14 -2.4564 2.1644
-10 -1 -13 -6.2666 -2.8422
-10 -1 -12 4.9716 -9.5227
-10 -1 -11 1.3428 -10.1321
-10 -1 -10 -4.9842 9.9135
-10 -1 -9 -0.7847 -7.8714
-10 -1 -8 -0.8430 -1.4578
-10 -1 -7 12.0367 -4.6215
-10 -1 -6 -11.1967 14.4222
-10 -1 -5 -0.0780 19.6332
-10 -1 -4 8.4704 -8.3420
-10 -1 -3 1.9624 -0.5538
-10 -1 -2 22.6292 13.8147
-10 -1 -1 -29.1896 -4.8363
-10 0 -23 8.4477 3.1976
-10 0 -22 3.8935 1.5217
-10 0 -21 -6.8803 3.9006
-10 0 -20 -0.1556 -8.0412
-10 0 -19 -5.5019 -9.9984
-10 0 -18 -5.7757 -4.3398
-10 0 -17 -6.9149 8.8499
-10 0 -16 0.8107 3.6492
-10 0 -15 -0.4857 -2.6193
-10 0 -14 4.8121 -4.0188
-10 0 -13 -13.3726 11.0654
-10 0 -12 -6.2597 4.9002
-10 0 -11 12.7036 -10.1273
-10 0 -10 -18.0375 4.6134
-10 0 -9 -19.3167 1.2258
-10 0 -8 -3.7336 1.2913
-10 0 -7 -6.2574 1.9293
-10 0 -6 -15.1085 35.2973
-10 0 -5 -51.3788 43.2159
-10 0 -4 -1.1404 -4.4759
-10 0 -3 -16.3679 -37.8293
-10 0 -2 -1.7442 -21.0814
-10 0 -1 11.3818 19.4272
-9 -9 -18 5.4070 -3.7157
-9 -9 -16 4.7623 -8.1864
-9 -9 -14 -5.3182 -8.3226
-9 -9 -12 -4.8992 -5.6059
-9 -9 -10 6.8263 19.0718
-9 -9 -8 14.2543 -23.5649
-9 -9 -6 13.0491 -8.4303
-9 -9 -4 12.0334 -5.5681
-9 -9 -2 -6.6242 1.5821
-9 -8 -20 -0.7060 2.8331
-9 -8 -19 0.2242 6.3432
-9 -8 -18 3.2459 0.8071
-9 -8 -17 7.5943 1.0424
-9 -8 -16 -0.6529 -6.4162
-9 -8 -15 -4.4219 -2.3319
-9 -8 -14 3.1433 0.6379
-9 -8 -13 -3.1699 3.9943
-9 -8 -12 -1.1493 0.2750
-9 -8 -11 21.7179 -1.5825
-9 -8 -10 -2.9316 -11.8274
-9 -8 -9 6.0395 -0.2318
-9 -8 -8 -14.5683 13.7141
-9 -8 -7 -13.2464 -33.8381
-9 -8 -6 -3.1541 -13.1092
-9 -8 -5 3.6665 4.2010
-9 -8 -4 -25.4420 -0.6470
-9 -8 -3 -15.2735 17.9297
-9 -8 -2 19.7245 2.0089
-9 -8 -1 -11.1401 1.7599
-9 -7 -21 5.0207 -0.5706
-9 -7 -20 4.5769 2.1935
-9 -7 -19 0.7373 -4.0787
-9 -7 -18 4.3920 3.3947
-9 -7 -17 -3.9857 2.0929
-9 -7 -16 -0.7479 1.2524
-9 -7 -15 7.9167 4.6300
-9 -7 -14 1.8218 -10.0054
-9 -7 -13 -2.7293 -2.1472
-9 -7 -12 -14.8381 0.1981
-9 -7 -11 1.0937 8.0302
-9 -7 -10 6.5507 -11.3864
-9 -7 -9 6.4650 -13.6842
-9 -7 -8 -17.1125 -10.7049
-9 -7 -7 -12.5730 3.1144
-9 -7 -6 19.1200 1.1292
-9 -7 -5 5.0124 5.0233
-9 -7 -4 35.2296 5.0711
-9 -7 -3 -10.9751 2.4458
-9 -7 -2 -10.1732 -33.1500
-9 -7 -1 -39.7336 26.3916
-9 -6 -21 -0.7272 -3.7474
-9 -6 -20 3.1966 -0.8580
-9 -6 -19 2.4472 -5.3581
-9 -6 -18 -4.1347 -3.8677
-9 -6 -17 3.8665 8.5506
-9 -6 -16 -3.9169 0.4526
-9 -6 -15 -0.4162 -5.0412
-9 -6 -14 -4.8856 -1.1588
-9 -6 -13 -0.9887 0.3718
-9 -6 -12 -4.7452 17.7186
-9 -6 -11 4.8614 10.7950
-9 -6 -10 10.7440 -4.9209
-9 -6 -9 -2.3102 1.6400
-9 -6 -8 -8.9002 6.4844
-9 -6 -7 2.8772 -20.3623
-9 -6 -6 3.5854 -2.5260
-9 -6 -5 -2.3711 5.2464
-9 -6 -4 -2.5037 -7.2720
-9 -6 -3 32.3295 23.2708
-9 -6 -2 34.8445 -4.6037
-9 -6 -1 1.9725 6.1453
-9 -5 -22 -0.2258 -2.4067
-9 -5 -21 -0.9385 0.0511
-9 -5 -20 -3.9138 5.1605
-9 -5 -19 0.5152 -0.3895
-9 -5 -18 2.4128 0.8277
-9 -5 -17 2.0360 -1.0359
-9 -5 -16 1.9624 5.5784
-9 -5 -15 -6.2218 -9.1878
-9 -5 -14 3.6695 1.9392
-9 -5 -13 -6.6726 2.9702
-9 -5 -12 0.7800 -5.1859
-9 -5 -11 4.2804 -1.4685
-9 -5 -10 10.2809 -0.4337
-9 -5 -9 -7.7046 6.1841
-9 -5 -8 -11.5864 -6.6138
-9 -5 -7 8.1136 -27.0231
-9 -5 -6 12.1632 -42.6137
-9 -5 -5 -18.4352 5.3792
-9 -5 -4 5.9466 -0.6189
-9 -5 -3 -2.2302 32.2454
-9 -5 -2 -12.4949 -12.2055
-9 -5 -1 58.8784 -45.7866
-9 -4 -22 -3.6792 1.5143
-9 -4 -21 2.4498 -3.2918
-9 -4 -20 -3.5413 2.8995
-9 -4 -19 -4.4641 -1.6066
-9 -4 -18 -0.0281 11.7566
-9 -4 -17 -4.2425 3.6922
-9 -4 -16 4.5896 0.8614
-9 -4 -15 2.7237 3.3546
-9 -4 -14 4.1136 0.5534
-9 -4 -13 -1.0973 -5.2076
-9 -4 -12 2.1732 -2.5261
-9 -4 -11 4.9484 -11.2683
-9 -4 -10 -8.1604 9.5897
-9 -4 -9 -0.5342 -10.3921
-9 -4 -8 18.3822 -4.7020
-9 -4 -7 -14.4639 28.3739
-9 -4 -6 3.0206 -30.7950
-9 -4 -5 -17.6348 -13.7398
-9 -4 -4 0.8394 -0.8145
-9 -4 -3 -9.1551 -4.2593
-9 -4 -2 -16.4466 4.8438
-9 -4 -1 -38.1295 32.1968
-9 -3 -23 1.0734 1.5119
-9 -3 -22 1.0102 0.7579
-9 -3 -21 1.5360 -2.4842
-9 -3 -20 -0.9409 3.4992
-9 -3 -19 3.2122 -4.5032
-9 -3 -18 3.0860 -0.2587
-9 -3 -17 -8.5189 -1.5420
-9 -3 -16 -1.8255 -5.0054
-9 -3 -15 -3.1841 2.4971
-9 -3 -14 7.0647 5.0020
-9 -3 -13 -16.7283 -0.3021
-9 -3 -12 0.4646 -3.4331
-9 -3 -11 -12.0371 0.1223
-9 -3 -10 -4.7168 -4.8384
-9 -3 -9 -16.4332 -8.9967
-9 -3 -8 20.7608 3.0256
-9 -3 -7 -14.6886 8.2061
-9 -3 -6 3.0070 -1.2836
-9 -3 -5 2.8822 2.9299
-9 -3 -4 6.3908 -10.2238
-9 -3 -3 14.8794 -17.0216
-9 -3 -2 3.2200 14.1050
-9 -3 -1 10.3765 3.9887
-9 -2 -23 5.4790 4.9250
-9 -2 -22 3.0794 5.4984
-9 -2 -21 -1.9397 -2.3122
-9 -2 -20 -4.7617 -7.7071
-9 -2 -19 -3.7665 5.2136
-9 -2 -18 2.0243 -3.4740
-9 -2 -17 2.3647 0.0852
-9 -2 -16 -4.0056 5.3293
-9 -2 -15 -6.1567 -7.8659
-9 -2 -14 5.6227 2.8304
-9 -2 -13 -0.9241 2.7546
-9 -2 -12 15.1164 14.7775
-9 -2 -11 -5.2865 -7.3212
-9 -2 -10 4.6989 7.7058
-9 -2 -9 2.9951 5.2398
-9 -2 -8 -6.2927 -1.6659
-9 -2 -7 12.1666 12.4053
-9 -2 -6 -11.0643 3.1960
-9 -2 -5 0.4516 -18.3829
-9 -2 -4 -6.6741 11.1722
-9 -2 -3 1.2872 -20.7722
-9 -2 -2 -22.2893 -49.5271
-9 -2 -1 -33.1355 -25.8567
-9 -1 -23 -5.8321 -4.5989
-9 -1 -22 -4.7033 -0.6005
-9 -1 -21 -0.5403 0.2094
-9 -1 -20 -2.4299 6.4243
-9 -1 -19 -2.6715 1.8133
-9 -1 -18 0.6293 4.7676
-9 -1 -17 3.8508 -0.5959
-9 -1 -16 -0.0820 0.8629
-9 -1 -15 -8.6032 -7.1977
-9 -1 -14 0.0647 -3.7681
-9 -1 -13 -1.4820 5.3779
-9 -1 -12 5.5932 -5.4193
-9 -1 -11 10.1314 5.5429
-9 -1 -10 2.1075 -4.4852
-9 -1 -9 1.4417 -0.6461
-9 -1 -8 20.8821 9.4059
-9 -1 -7 -16.5019 -9.0483
-9 -1 -6 -34.5252 9.5308
-9 -1 -5 -10.3803 -5.9714
-9 -1 -4 7.0020 24.2330
-9 -1 -3 -2.4757 24.9011
-9 -1 -2 -4.6885 15.3982
-9 -1 -1 10.1274 13.7443
-9 0 -24 -5.0372 -5.6482
-9 0 -23 0.9714 6.1159
-9 0 -22 -1.9236 3.1428
-9 0 -21 5.9307 2.2229
-9 0 -20 2.3476 0.9465
-9 0 -19 -1.7307 -0.1282
-9 0 -18 4.1581 -2.1190
-9 0 -17 12.4481 7.4595
-9 0 -16 0.3971 11.1564
-9 0 -15 -2.7942 -5.5262
-9 0 -14 6.7167 -5.9551
-9 0 -13 0.2955 10.2938
-9 0 -12 9.8837 -0.4118
-9 0 -11 1.0027 3.9795
-9 0 -10 10.6221 -6.9311
-9 0 -9 13.2326 6.6067
-9 0 -8 22.7281 -12.8146
-9 0 -7 31.8538 -8.6140
-9 0 -6 -10.5123 -24.8106
-9 0 -5 22.8478 -39.4923
-9 0 -4 -14.6949 6.5919
-9 0 -3 2.1819 -2.1308
-9 0 -2 -75.6415 -40.0847
-9 0 -1 17.2641 -6.1849
-8 -8 -20 1.0909 -0.4827
-8 -8 -18 -2.2226 2.8920
-8 -8 -16 1.1377 -0.6212
-8 -8 -14 10.0529 2.6205
-8 -8 -12 4.9286 -10.2278
-8 -8 -10 -16.9840 13.1254
-8 -8 -8 13.5139 3.4941
-8 -8 -6 17.3059 -28.6603
-8 -8 -4 1.4341 16.9230
-8 -8 -2 3.2816 -17.2500
-8 -7 -21 -2.7502 3.0267
-8 -7 -20 -2.7437 -6.4031
-8 -7 -19 -0.9382 -1.4362
-8 -7 -18 1.2590 1.2298
-8 -7 -17 -4.8343 -2.0642
-8 -7 -16 -5.5216 1.4118
-8 -7 -15 -2.5546 -1.0058
-8 -7 -14 4.5213 2.1887
-8 -7 -13 -3.1246 10.4103
-8 -7 -12 -8.4807 3.0197
-8 -7 -11 -9.8288 4.9761
-8 -7 -10 2.4538 4.4144
-8 -7 -9 -2.1419 5.3182
-8 -7 -8 4.4625 13.8930
-8 -7 -7 17.8473 10.6293
-8 -7 -6 -4.7930 -10.5327
-8 -7 -5 -23.3819 -3.1216
-8 -7 -4 -24.7578 10.4914
-8 -7 -3 25.8984 18.0602
-8 -7 -2 19.0516 10.5523
-8 -7 -1 66.6599 -47.6668
-8 -6 -22 -7.8131 -4.1362
-8 -6 -21 -2.1291 -3.1029
-8 -6 -20 1.6768 -3.0150
-8 -6 -19 -2.2700 -3.6592
-8 -6 -18 -3.2730 1.8717
-8 -6 -17 -2.4403 3.4074
-8 -6 -16 -2.7996 -3.7891
-8 -6 -15 -1.5375 -2.8864
-8 -6 -14 -4.6988 2.0746
-8 -6 -13 -6.0154 5.8147
-8 -6 -12 1.4174 -17.4977
-8 -6 -11 5.1066 -0.2014
-8 -6 -10 -10.1712 4.6330
-8 -6 -9 -4.6630 2.1157
-8 -6 -8 0.1677 -2.4639
-8 -6 -7 1.7177 -2.9538
-8 -6 -6 7.0553 23.3911
-8 -6 -5 0.3445 -4.4328
-8 -6 -4 22.8763 -28.2454
-8 -6 -3 -9.6070 -24.1558
-8 -6 -2 -30.2738 11.6614
-8 -6 -1 -43.0492 32.0065
-8 -5 -22 10.6084 3.2289
-8 -5 -21 2.4634 3.0675
-8 -5 -20 -0.2223 -7.6222
-8 -5 -19 -0.1121 -3.5441
-8 -5 -18 3.1276 4.2631
-8 -5 -17 0.4264 -0.6979
-8 -5 -16 1.4083 -2.5646
-8 -5 -15 -3.5264 -2.1562
-8 -5 -14 -2.7435 1.4293
-8 -5 -13 -6.2051 8.5943
-8 -5 -12 -12.4857 -0.3425
-8 -5 -11 -5.0901 -5.4713
-8 -5 -10 -4.7314 -2.7921
-8 -5 -9 13.3766 13.4524
-8 -5 -8 -15.2522 -6.2423
-8 -5 -7 -6.1901 -8.1462
-8 -5 -6 -5.5451 33.7663
-8 -5 -5 16.4752 -16.6095
-8 -5 -4 -12.7550 -2.0450
-8 -5 -3 26.5854 4.8021
-8 -5 -2 37.8885 21.2765
-8 -5 -1 6.1429 -1.1374
-8 -4 -23 0.0644 5.9914
-8 -4 -22 -2.7916 -0.8741
-8 -4 -21 1.8658 -8.0248
-8 -4 -20 -1.6799 1.0448
-8 -4 -19 -3.8138 1.1762
-8 -4 -18 -6.0476 1.6578
-8 -4 -17 1.3054 -2.3722
-8 -4 -16 -1.4315 -2.1624
-8 -4 -15 -2.5298 2.1453
-8 -4 -14 3.6195 0.3257
-8 -4 -13 5.4656 -2.9647
-8 -4 -12 -2.1207 3.7900
-8 -4 -11 1.7667 -7.4132
-8 -4 -10 -0.5778 0.7754
-8 -4 -9 6.6441 1.3331
-8 -4 -8 5.7723 0.1395
-8 -4 -7 5.5071 -13.7211
-8 -4 -6 -3.9866 7.3291
-8 -4 -5 -12.6771 -6.0529
-8 -4 -4 0.0196 -23.3604
-8 -4 -3 11.4958 21.3029
-8 -4 -2 -39.3802 -61.7186
-8 -4 -1 55.1795 -97.7628
-8 -3 -23 -3.0265 -9.5717
-8 -3 -22 1.5220 2.3955
-8 -3 -21 1.0956 -1.9965
-8 -3 -20 0.4609 1.0959
-8 -3 -19 -4.3125 1.4021
-8 -3 -18 -6.8982 -6.1103
-8 -3 -17 -0.2379 0.1430
-8 -3 -16 -5.3284 3.1818
-8 -3 -15 1.7268 2.4635
-8 -3 -14 -1.0365 -3.1478
-8 -3 -13 -0.4274 -11.5994
-8 -3 -12 -12.5012 2.5963
-8 -3 -11 14.9434 -5.9750
-8 -3 -10 -8.3418 5.5305
-8 -3 -9 -7.6211 8.1402
-8 -3 -8 -9.4968 17.6655
-8 -3 -7 16.2059 -6.5533
-8 -3 -6 21.9888 17.7520
-8 -3 -5 16.7816 16.3119
-8 -3 -4 8.4175 27.1256
-8 -3 -3 53.6573 22.9235
-8 -3 -2 -24.2278 -10.6614
-8 -3 -1 -49.7758 26.4133
-8 -2 -24 -4.7719 11.0129
-8 -2 -23 2.8749 0.6068
-8 -2 -22 -2.1326 -1.1024
-8 -2 -21 -0.3527 0.8107
-8 -2 -20 -2.7183 2.5372
-8 -2 -19 0.8526 2.8256
-8 -2 -18 0.3895 -0.3104
-8 -2 -17 2.9497 -0.3764
-8 -2 -16 -3.6137 0.9861
-8 -2 -15 -4.4841 3.1080
-8 -2 -14 -2.3612 4.3523
-8 -2 -13 1.7659 -2.7508
-8 -2 -12 -7.7220 5.3620
-8 -2 -11 -6.0186 -2.7843
-8 -2 -10 6.5391 -0.9595
-8 -2 -9 -10.2990 -0.8649
-8 -2 -8 -1.8416 19.1690
-8 -2 -7 -13.8871 -4.1714
-8 -2 -6 2.1782 -6.6426
-8 -2 -5 -26.5884 -17.7232
-8 -2 -4 12.9342 23.1011
-8 -2 -3 -5.6475 -9.7315
-8 -2 -2 38.0665 7.6891
-8 -2 -1 -13.6347 21.4579
-8 -1 -24 -1.4429 -3.8580
-8 -1 -23 1.5422 2.9257
-8 -1 -22 -2.0562 -3.1303
-8 -1 -21 -2.0714 2.0391
-8 -1 -20 -0.2575 0.9218
-8 -1 -19 -1.8497 -4.4444
-8 -1 -18 -0.6989 1.6079
-8 -1 -17 6.7914 2.7815
-8 -1 -16 0.3040 1.7502
-8 -1 -15 -3.9833 2.1865
-8 -1 -14 2.4791 -2.5911
-8 -1 -13 8.7594 -3.5541
-8 -1 -12 -5.3594 7.9182
-8 -1 -11 -7.3584 4.2570
-8 -1 -10 3.7260 -2.3521
-8 -1 -9 -6.8645 0.1199
-8 -1 -8 6.4874 1.5564
-8 -1 -7 -11.9497 2.0126
-8 -1 -6 -2.6065 10.7375
-8 -1 -5 -15.2911 21.4078
-8 -1 -4 -9.9033 -10.5667
-8 -1 -3 19.1338 12.4564
-8 -1 -2 7.7375 36.0937
-8 -1 -1 8.2044 54.6599
-8 0 -24 -0.3407 -4.2314
-8 0 -23 -3.4554 -8.0558
-8 0 -22 0.2496 3.4803
-8 0 -21 1.6652 -0.6864
-8 0 -20 -1.1271 2.9945
-8 0 -19 -3.0320 -8.4354
-8 0 -18 5.8501 -6.0408
-8 0 -17 4.3047 6.8364
-8 0 -16 -4.0603 -1.2450
-8 0 -15 -1.2562 -0.1039
-8 0 -14 5.4970 10.2791
-8 0 -13 -10.9643 -1.6681
-8 0 -12 -9.7168 -3.6426
-8 0 -11 -11.6135 3.0708
-8 0 -10 -4.7061 3.4924
-8 0 -9 -1.0220 1.6223
-8 0 -8 -13.7118 -24.4498
-8 0 -7 -28.5494 4.0362
-8 0 -6 34.1582 -6.6630
-8 0 -5 -78.4110 46.5379
-8 0 -4 -24.0635 -4.2945
-8 0 -3 11.4781 -26.6767
-8 0 -2 44.9550 -16.2515
-8 0 -1 -35.6926 10.8584
-7 -7 -22 19.3956 5.9673
-7 -7 -20 0.1385 -8.2467
-7 -7 -18 -2.3124 0.4062
-7 -7 -16 -6.5454 -5.0515
-7 -7 -14 -8.9669 -3.4276
-7 -7 -12 -4.9627 1.6846
-7 -7 -10 2.3972 10.1439
-7 -7 -8 2.9444 4.6349
-7 -7 -6 18.8556 20.3243
-7 -7 -4 5.8458 16.0288
-7 -7 -2 100.8694 46.5715
-7 -6 -22 -6.4313 -0.2589
-7 -6 -21 0.7648 3.6443
-7 -6 -20 -3.5417 -0.1183
-7 -6 -19 4.2550 -5.4998
-7 -6 -18 0.0322 -6.3986
-7 -6 -17 -2.0450 1.4009
-7 -6 -16 -0.2775 -1.5063
-7 -6 -15 6.1967 3.8087
-7 -6 -14 -0.8166 -3.9262
-7 -6 -13 2.4439 -0.5012
-7 -6 -12 -5.1567 2.3203
-7 -6 -11 -0.8082 3.1467
-7 -6 -10 -4.1224 11.0356
-7 -6 -9 -0.7382 -6.9177
-7 -6 -8 -19.8450 6.2603
-7 -6 -7 2.1515 0.6045
-7 -6 -6 7.6895 19.9623
-7 -6 -5 -42.1451 -17.3975
-7 -6 -4 -18.9075 -13.4495
-7 -6 -3 10.1550 18.7671
-7 -6 -2 42.5248 7.2387
-7 -6 -1 5.8594 -12.2330
-7 -5 -23 -4.8625 -12.1801
-7 -5 -22 -5.1663 -1.1017
-7 -5 -21 -4.6929 1.6787
-7 -5 -20 5.0164 2.2939
-7 -5 -19 2.2075 1.9624
-7 -5 -18 -1.2985 -1.5158
-7 -5 -17 1.5599 4.4054
-7 -5 -16 1.0468 6.2846
-7 -5 -15 6.3290 -1.7539
-7 -5 -14 3.9133 -4.4852
-7 -5 -13 -0.1022 0.6262
-7 -5 -12 0.9045 -9.7882
-7 -5 -11 -4.2887 -4.6684
-7 -5 -10 13.8679 -6.5755
-7 -5 -9 -9.2690 -31.0924
-7 -5 -8 -0.7766 -5.6690
-7 -5 -7 -34.5733 44.6769
-7 -5 -6 -4.7520 -31.8591
-7 -5 -5 -4.2557 -18.2595
-7 -5 -4 5.1400 -5.3949
-7 -5 -3 -3.4334 16.6459
-7 -5 -2 -42.1904 5.2098
-7 -5 -1 -72.8104 74.9109
-7 -4 -23 -9.3020 -6.6967
-7 -4 -22 1.9771 1.9221
-7 -4 -21 2.5648 2.3996
-7 -4 -20 0.9375 -3.8665
-7 -4 -19 3.1095 -10.4473
-7 -4 -18 1.6176 -1.3573
-7 -4 -17 -3.4218 3.1401
-7 -4 -16 1.6314 -2.6057
-7 -4 -15 5.0738 2.6373
-7 -4 -14 -3.4759 5.4558
-7 -4 -13 0.7858 -6.4385
-7 -4 -12 1.2704 -0.8426
-7 -4 -11 1.9800 -4.9700
-7 -4 -10 -3.6486 -9.1021
-7 -4 -9 -17.6075 2.7967
-7 -4 -8 5.2112 -2.8358
-7 -4 -7 1.0872 -11.3465
-7 -4 -6 -12.8500 -22.5333
-7 -4 -5 -19.5392 -11.8446
-7 -4 -4 4.2409 -9.1008
-7 -4 -3 -15.2345 21.7032
-7 -4 -2 -28.1457 -24.0679
-7 -4 -1 -17.4423 18.8684
-7 -3 -24 3.7642 -2.5202
-7 -3 -23 -1.8096 -3.4308
-7 -3 -22 1.8855 -0.5054
-7 -3 -21 -0.4873 1.0818
-7 -3 -20 -2.1404 3.2909
-7 -3 -19 -1.1320 2.7097
-7 -3 -18 1.5301 1.6076
-7 -3 -17 1.1261 -3.1015
-7 -3 -16 -2.6432 6.5069
-7 -3 -15 -0.9870 2.5872
-7 -3 -14 6.3310 -1.6963
-7 -3 -13 0.6352 2.7681
-7 -3 -12 0.1026 3.7812
-7 -3 -11 2.6746 -6.0536
-7 -3 -10 15.6496 -2.5797
-7 -3 -9 -9.1885 10.4718
-7 -3 -8 11.0495 7.0480
-7 -3 -7 -26.0526 -18.4056
-7 -3 -6 10.0483 -18.4670
-7 -3 -5 11.6205 5.7973
-7 -3 -4 11.4418 16.6898
-7 -3 -3 2.1939 29.6695
-7 -3 -2 -86.7203 41.4346
-7 -3 -1 -22.9755 -13.1585
-7 -2 -24 -6.1760 -3.9793
-7 -2 -23 -3.4869 -7.9163
-7 -2 -22 3.6956 11.7974
-7 -2 -21 -1.6639 4.0122
-7 -2 -20 2.4264 1.6928
-7 -2 -19 1.4856 1.1984
-7 -2 -18 1.6931 -3.8032
-7 -2 -17 2.1243 0.0100
-7 -2 -16 -3.9480 9.0563
-7 -2 -15 2.8700 5.2987
-7 -2 -14 9.7602 5.1009
-7 -2 -13 4.0250 -2.9350
-7 -2 -12 9.6657 6.2072
-7 -2 -11 5.6838 -2.5109
-7 -2 -10 4.0829 -8.5478
-7 -2 -9 2.3359 2.9093
-7 -2 -8 23.9661 -27.0783
-7 -2 -7 23.8786 -0.4527
-7 -2 -6 -6.6706 -14.1358
-7 -2 -5 33.1983 12.9912
-7 -2 -4 -26.6141 28.8887
-7 -2 -3 9.6200 -41.1578
-7 -2 -2 -25.3135 -4.1912
-7 -2 -1 2.3138 -0.4623
-7 -1 -24 -4.3912 4.8354
-7 -1 -23 2.4280 -9.1093
-7 -1 -22 -0.0069 -1.2587
-7 -1 -21 -0.7157 0.4309
-7 -1 -20 -1.3228 3.1197
-7 -1 -19 3.4998 -0.1493
-7 -1 -18 1.0097 0.2956
-7 -1 -17 1.4035 -3.0654
-7 -1 -16 1.1175 -0.5458
-7 -1 -15 -4.1627 -2.2713
-7 -1 -14 1.0571 1.4949
-7 -1 -13 3.8298 2.5476
-7 -1 -12 8.6342 5.2528
-7 -1 -11 -9.9955 -2.1570
-7 -1 -10 5.5149 -13.9949
-7 -1 -9 -21.9963 8.7722
-7 -1 -8 -6.8845 -7.4922
-7 -1 -7 -18.7670 16.5780
-7 -1 -6 34.7273 21.1197
-7 -1 -5 -10.7963 15.8395
-7 -1 -4 -25.6074 4.1775
-7 -1 -3 6.9173 24.8107
-7 -1 -2 -23.6040 -9.1474
-7 -1 -1 -18.8255 27.9870
-7 0 -24 -2.0788 0.7894
-7 0 -23 -0.6962 1.0602
-7 0 -22 1.7447 -1.0780
-7 0 -21 6.2525 -5.9201
-7 0 -20 -1.1559 1.2263
-7 0 -19 -0.9592 -2.0621
-7 0 -18 4.8153 -5.2017
-7 0 -17 9.2656 0.9738
-7 0 -16 -2.8909 1.7289
-7 0 -15 -8.9916 -2.3224
-7 0 -14 -8.0290 -4.9509
-7 0 -13 1.2094 7.1263
-7 0 -12 2.1348 1.3217
-7 0 -11 -4.6995 0.6362
-7 0 -10 10.3946 8.0866
-7 0 -9 5.5193 -25.1232
-7 0 -8 4.5637 -10.8237
-7 0 -7 16.5244 20.0120
-7 0 -6 -31.9353 15.1148
-7 0 -5 -9.1313 48.7897
-7 0 -4 32.5225 22.1350
-7 0 -3 -18.7287 49.7848
-7 0 -2 20.1500 -54.1105
-7 0 -1 -14.3693 2.3518
-6 -6 -22 8.7680 -3.2702
-6 -6 -20 -3.2459 1.5687
-6 -6 -18 0.5831 2.9779
-6 -6 -16 5.9313 -0.1506
-6 -6 -14 -13.0005 -3.9131
-6 -6 -12 20.8760 14.0191
-6 -6 -10 4.2200 -4.6191
-6 -6 -8 -31.1222 -13.8365
-6 -6 -6 11.5021 15.7914
-6 -6 -4 15.8330 26.2215
-6 -6 -2 64.0566 -12.5795
-6 -5 -23 4.3336 5.9798
-6 -5 -22 1.6137 1.3403
-6 -5 -21 1.3694 2.0091
-6 -5 -20 3.2192 1.5986
-6 -5 -19 -3.2529 -1.3619
-6 -5 -18 4.1526 -1.3126
-6 -5 -17 3.2401 1.2133
-6 -5 -16 -3.9138 -0.9742
-6 -5 -15 1.8552 4.6201
-6 -5 -14 9.1275 1.1151
-6 -5 -13 7.7764 2.4391
-6 -5 -12 2.1163 -4.2393
-6 -5 -11 0.7781 12.5114
-6 -5 -10 -10.8334 -0.5358
-6 -5 -9 9.1967 2.5552
-6 -5 -8 21.7683 -13.0112
-6 -5 -7 6.5319 5.0587
-6 -5 -6 -11.5828 -11.8611
-6 -5 -5 0.7839 3.8778
-6 -5 -4 -14.3913 -14.5924
-6 -5 -3 27.0368 11.2583
-6 -5 -2 -76.0557 -44.3070
-6 -5 -1 82.2919 -20.1279
-6 -4 -24 -1.9366 -2.4406
-6 -4 -23 -6.4520 -7.2503
-6 -4 -22 -0.0307 3.3950
-6 -4 -21 0.5001 1.1411
-6 -4 -20 7.6548 -1.6889
-6 -4 -19 -4.4766 -0.0851
-6 -4 -18 -3.4336 -0.1023
-6 -4 -17 2.4530 2.7678
-6 -4 -16 -1.0209 -4.7677
-6 -4 -15 1.2713 5.1472
-6 -4 -14 5.4897 4.3978
-6 -4 -13 -0.9849 -0.3792
-6 -4 -12 3.6651 -1.1841
-6 -4 -11 -13.6353 11.8080
-6 -4 -10 0.3018 -4.9670
-6 -4 -9 -0.5219 -6.3017
-6 -4 -8 1.7017 -12.2671
-6 -4 -7 -11.7553 9.4723
-6 -4 -6 -10.9169 -0.6195
-6 -4 -5 24.4019 14.9294
-6 -4 -4 2.4439 -13.7173
-6 -4 -3 3.0256 -10.1356
-6 -4 -2 29.2003 -22.8207
-6 -4 -1 -0.2941 55.1715
-6 -3 -24 -5.6554 9.3695
-6 -3 -23 -0.3416 -4.8169
-6 -3 -22 -1.8221 5.9251
-6 -3 -21 -1.5524 -0.4126
-6 -3 -20 0.2824 1.1411
-6 -3 -19 2.2175 4.2311
-6 -3 -18 -0.8825 0.9513
-6 -3 -17 -3.1825 -4.5410
-6 -3 -16 3.4335 1.3352
-6 -3 -15 -4.8712 5.2244
-6 -3 -14 -1.6811 -4.5370
-6 -3 -13 2.6432 1.0478
-6 -3 -12 -13.2078 1.4060
-6 -3 -11 8.4097 -2.4078
-6 -3 -10 -3.7916 -8.4996
-6 -3 -9 0.9044 17.6613
-6 -3 -8 -9.4943 -6.2987
-6 -3 -7 11.5280 1.2867
-6 -3 -6 -15.5246 -13.2934
-6 -3 -5 16.6990 3.2615
-6 -3 -4 -29.0344 -4.9767
-6 -3 -3 -4.2114 26.2672
-6 -3 -2 5.6605 37.7245
-6 -3 -1 1.0405 5.4642
-6 -2 -24 -3.0635 2.7923
-6 -2 -23 0.5939 3.2424
-6 -2 -22 1.5365 0.1827
-6 -2 -21 2.6029 -1.4920
-6 -2 -20 -2.8743 3.3471
-6 -2 -19 1.4752 0.2025
-6 -2 -18 2.8903 1.3953
-6 -2 -17 -0.6573 -1.5641
-6 -2 -16 7.5528 2.8842
-6 -2 -15 2.8522 4.2410
-6 -2 -14 -9.2012 0.7793
-6 -2 -13 -4.3486 -2.9135
-6 -2 -12 -3.4377 4.7524
-6 -2 -11 0.8741 -2.6747
-6 -2 -10 9.4051 -0.3670
-6 -2 -9 1.9058 -6.5930
-6 -2 -8 -7.6119 -7.7042
-6 -2 -7 -14.0654 -5.4869
-6 -2 -6 21.5866 -13.2119
-6 -2 -5 -13.3844 7.3279
-6 -2 -4 1.8369 -43.2485
-6 -2 -3 5.5628 -1.2183
-6 -2 -2 10.3568 25.4647
-6 -2 -1 -54.7952 21.8516
-6 -1 -24 -1.0505 -1.4998
-6 -1 -23 -1.9624 -3.7837
-6 -1 -22 3.3256 1.9433
-6 -1 -21 -0.9744 1.3629
-6 -1 -20 0.1883 -0.3616
-6 -1 -19 -2.6388 -0.3331
-6 -1 -18 0.3108 -2.4465
-6 -1 -17 -0.7634 1.1820
-6 -1 -16 0.0019 -4.3568
-6 -1 -15 -2.6607 5.6278
-6 -1 -14 -7.4381 -2.5866
-6 -1 -13 6.9170 1.4629
-6 -1 -12 -6.5954 6.7950
-6 -1 -11 -0.9943 -2.4910
-6 -1 -10 -0.5740 0.0193
-6 -1 -9 -5.5931 10.5636
-6 -1 -8 -14.2614 13.4684
-6 -1 -7 17.2104 6.0197
-6 -1 -6 30.3209 -1.6153
-6 -1 -5 -37.8227 -25.9619
-6 -1 -4 24.6162 -4.3385
-6 -1 -3 -21.2615 34.3424
-6 -1 -2 7.5564 -7.8558
-6 -1 -1 23.9012 37.9280
-6 0 -25 2.8102 -27.1565
-6 0 -24 -0.1587 0.7610
-6 0 -23 -6.4069 3.8173
-6 0 -22 2.9205 1.9337
-6 0 -21 2.5183 3.0833
-6 0 -20 -0.6603 0.3337
-6 0 -19 3.2037 1.0559
-6 0 -18 2.7553 6.9858
-6 0 -17 6.2243 -1.6600
-6 0 -16 -0.2520 -1.9732
-6 0 -15 -2.4811 -6.1522
-6 0 -14 14.9244 5.5612
-6 0 -13 16.0814 -10.1488
-6 0 -12 -4.6593 -18.6487
-6 0 -11 -7.6530 -5.8550
-6 0 -10 2.2241 4.8682
-6 0 -9 -15.1902 -19.8953
-6 0 -8 10.9443 15.3975
-6 0 -7 5.6001 15.3636
-6 0 -6 -0.4352 -40.2169
-6 0 -5 -7.5941 -15.4514
-6 0 -4 -26.4097 1.6163
-6 0 -3 -22.5342 -31.7863
-6 0 -2 -15.6451 -17.3295
-6 0 -1 33.8286 -7.1113
-5 -5 -24 3.6388 -6.9935
-5 -5 -22 -5.9580 -0.9312
-5 -5 -20 -5.0014 -4.2114
-5 -5 -18 -5.3654 6.1436
-5 -5 -16 -0.5044 -2.7826
-5 -5 -14 4.5194 5.0215
-5 -5 -12 16.4614 13.4146
-5 -5 -10 -5.0162 13.0561
-5 -5 -8 37.0463 -0.6400
-5 -5 -6 17.6433 -26.0272
-5 -5 -4 -30.8448 -9.1182
-5 -5 -2 -17.4571 -7.2186
-5 -4 -24 -3.0280 3.3023
-5 -4 -23 1.7236 -3.6775
-5 -4 -22 5.7049 2.5811
-5 -4 -21 3.6748 1.5070
-5 -4 -20 5.3388 -7.5864
-5 -4 -19 -3.0814 4.5308
-5 -4 -18 -4.4333 -3.6088
-5 -4 -17 -1.6555 -0.6527
-5 -4 -16 -3.4644 5.2903
-5 -4 -15 1.3495 0.1691
-5 -4 -14 -3.1100 -2.6014
-5 -4 -13 -3.5238 4.5519
-5 -4 -12 -0.7261 4.6881
-5 -4 -11 -15.2447 6.5735
-5 -4 -10 -6.0274 8.2989
-5 -4 -9 2.3071 7.5229
-5 -4 -8 6.9443 -4.5982
-5 -4 -7 14.5931 11.8657
-5 -4 -6 21.1920 -11.6466
-5 -4 -5 -25.2429 24.3187
-5 -4 -4 11.2670 1.5424
-5 -4 -3 19.0334 24.2590
-5 -4 -2 -16.8688 -11.7784
-5 -4 -1 21.9862 -29.0083
-5 -3 -24 0.9566 -0.2630
-5 -3 -23 0.9804 -2.5448
-5 -3 -22 -3.2392 -4.0735
-5 -3 -21 -3.9945 -2.4035
-5 -3 -20 1.5541 0.1743
-5 -3 -19 1.5907 1.4394
-5 -3 -18 -1.7953 0.0353
-5 -3 -17 0.7994 0.8029
-5 -3 -16 -4.4635 -2.1320
-5 -3 -15 1.8047 -1.6592
-5 -3 -14 -1.3723 1.6151
-5 -3 -13 -8.4109 8.2452
-5 -3 -12 8.6396 -4.6481
-5 -3 -11 2.1269 7.6398
-5 -3 -10 -8.8581 -8.7296
-5 -3 -9 -16.4660 -6.3523
-5 -3 -8 2.2778 14.1914
-5 -3 -7 4.2260 5.5966
-5 -3 -6 -28.1825 23.3145
-5 -3 -5 -9.8190 14.4041
-5 -3 -4 36.6385 -5.4580
-5 -3 -3 -19.1497 -52.6067
-5 -3 -2 5.0700 13.2105
-5 -3 -1 6.1118 65.1285
-5 -2 -25 -0.0341 -11.2665
-5 -2 -24 -4.4815 5.8198
-5 -2 -23 0.2274 -8.7650
-5 -2 -22 0.8248 2.0807
-5 -2 -21 -1.6851 0.7570
-5 -2 -20 -2.2271 -5.7736
-5 -2 -19 -1.9311 1.0089
-5 -2 -18 -1.4830 0.7060
-5 -2 -17 1.4016 0.2262
-5 -2 -16 4.0802 5.3642
-5 -2 -15 -6.3405 5.6462
-5 -2 -14 -4.7542 8.7901
-5 -2 -13 -0.2423 9.8828
-5 -2 -12 -0.0729 -3.0658
-5 -2 -11 0.6348 2.1466
-5 -2 -10 -1.8545 -1.6993
-5 -2 -9 10.8099 -2.6171
-5 -2 -8 -0.8759 16.6258
-5 -2 -7 5.2511 -13.8972
-5 -2 -6 0.4943 -6.7355
-5 -2 -5 4.5758 12.5632
-5 -2 -4 -13.9138 -6.6546
-5 -2 -3 -32.9977 85.6374
-5 -2 -2 -23.9704 50.0613
-5 -2 -1 -3.5083 -50.8457
-5 -1 -25 -7.7638 3.8547
-5 -1 -24 0.4505 -6.3237
-5 -1 -23 3.1787 1.1815
-5 -1 -22 -4.3032 1.7424
-5 -1 -21 2.2453 -0.6471
-5 -1 -20 -1.0219 2.0633
-5 -1 -19 1.1118 0.5563
-5 -1 -18 0.0670 -1.7392
-5 -1 -17 -1.0029 2.3532
-5 -1 -16 -4.8501 -3.4665
-5 -1 -15 1.8974 -1.5032
-5 -1 -14 -0.5628 5.7862
-5 -1 -13 6.5821 2.7660
-5 -1 -12 -4.1360 -0.7361
-5 -1 -11 6.4491 -12.3175
-5 -1 -10 3.4358 11.4964
-5 -1 -9 6.3856 16.5512
-5 -1 -8 -2.8200 -12.7117
-5 -1 -7 -5.5943 -4.9629
-5 -1 -6 -30.6926 11.8414
-5 -1 -5 26.8986 -16.9381
-5 -1 -4 15.4650 -13.8635
-5 -1 -3 -54.0238 2.2622
-5 -1 -2 10.5157 28.4665
-5 -1 -1 -62.1757 35.1084
-5 0 -25 0.5413 -2.4582
-5 0 -24 1.9612 -8.2061
-5 0 -23 7.3646 1.5944
-5 0 -22 -1.4336 -1.3290
-5 0 -21 -0.2566 -1.1746
-5 0 -20 -3.5401 -2.0774
-5 0 -19 0.9307 6.3780
-5 0 -18 3.9624 2.3890
-5 0 -17 8.7429 6.7590
-5 0 -16 1.2881 5.1660
-5 0 -15 4.2529 -6.7762
-5 0 -14 -0.4230 -1.8077
-5 0 -13 -2.0046 -0.3606
-5 0 -12 -0.2159 3.2526
-5 0 -11 4.2461 16.8221
-5 0 -10 10.7356 17.4254
-5 0 -9 -5.3385 -5.8241
-5 0 -8 11.5295 -11.5192
-5 0 -7 -11.8603 -8.1364
-5 0 -6 4.4681 -6.3462
-5 0 -5 -15.2163 34.9278
-5 0 -4 -40.5213 81.5836
-5 0 -3 -33.2118 47.3268
-5 0 -2 -10.8030 31.0313
-5 0 -1 -64.5279 -80.6235
-4 -4 -24 1.2962 8.0172
-4 -4 -22 -5.4222 0.4567
-4 -4 -20 1.4074 1.2984
-4 -4 -18 3.6833 -5.0321
-4 -4 -16 9.1336 -8.8135
-4 -4 -14 -9.3645 -2.8862
-4 -4 -12 -4.0205 12.4348
-4 -4 -10 3.0546 12.6690
-4 -4 -8 7.6806 -4.9146
-4 -4 -6 -17.0030 -18.4081
-4 -4 -4 40.1257 39.9038
-4 -4 -2 2.4014 -17.9779
-4 -3 -25 -7.5693 4.0856
-4 -3 -24 3.3675 2.5834
-4 -3 -23 5.0101 5.6214
-4 -3 -22 -0.8586 -0.5698
-4 -3 -21 -3.5626 -1.5787
-4 -3 -20 3.0064 -3.5472
-4 -3 -19 -3.9890 2.3996
-4 -3 -18 1.8898 -6.0954
-4 -3 -17 -4.5151 -3.5147
-4 -3 -16 0.2407 4.1198
-4 -3 -15 3.6043 -1.2900
-4 -3 -14 2.1900 -1.1485
-4 -3 -13 6.5025 3.3746
-4 -3 -12 -7.6967 5.9947
-4 -3 -11 -5.5585 5.6835
-4 -3 -10 -1.8206 11.8797
-4 -3 -9 -2.7556 9.6853
-4 -3 -8 2.4102 -8.1607
-4 -3 -7 11.4910 10.2109
-4 -3 -6 10.0416 10.2859
-4 -3 -5 4.0505 -17.1533
-4 -3 -4 5.5370 33.1573
-4 -3 -3 -12.6011 -42.6369
-4 -3 -2 50.6450 32.7890
-4 -3 -1 -0.3689 105.5385
-4 -2 -25 5.8988 2.9633
-4 -2 -24 -3.4494 4.0764
-4 -2 -23 -0.1249 -4.5495
-4 -2 -22 2.3844 11.2581
-4 -2 -21 -1.5287 -2.4840
-4 -2 -20 -1.0428 0.3974
-4 -2 -19 1.3735 8.4062
-4 -2 -18 -0.6205 3.1762
-4 -2 -17 2.2789 -1.2522
-4 -2 -16 4.5227 4.5436
-4 -2 -15 0.8648 -7.4355
-4 -2 -14 2.4632 5.0503
-4 -2 -13 -5.4866 8.5099
-4 -2 -12 5.0944 -6.2398
-4 -2 -11 13.7036 7.1037
-4 -2 -10 14.2261 0.0881
-4 -2 -9 18.4311 -7.7922
-4 -2 -8 9.7658 -2.0151
-4 -2 -7 -2.2564 -24.1441
-4 -2 -6 7.6422 -18.3152
-4 -2 -5 -2.5753 -18.1576
-4 -2 -4 1.1518 -38.8476
-4 -2 -3 -87.6952 -44.0836
-4 -2 -2 -22.5409 31.8402
-4 -2 -1 -4.1420 32.8786
-4 -1 -25 0.2810 -6.6516
-4 -1 -24 -1.7855 1.4122
-4 -1 -23 -2.4229 1.4444
-4 -1 -22 3.3864 -0.1985
-4 -1 -21 0.5080 1.8492
-4 -1 -20 1.5864 -8.6004
-4 -1 -19 1.0293 1.9291
-4 -1 -18 -3.7374 1.3970
-4 -1 -17 -3.1108 5.4444
-4 -1 -16 0.0714 -1.4582
-4 -1 -15 -1.4395 3.1657
-4 -1 -14 -2.4013 -0.1352
-4 -1 -13 1.4485 7.3599
-4 -1 -12 3.6116 -2.1520
-4 -1 -11 4.9897 0.2321
-4 -1 -10 1.3716 23.6159
-4 -1 -9 1.1051 14.2633
-4 -1 -8 -3.9614 2.0350
-4 -1 -7 21.3452 -5.0226
-4 -1 -6 3.7959 31.5170
-4 -1 -5 5.5344 10.2040
-4 -1 -4 9.9009 11.7633
-4 -1 -3 36.9490 -14.3866
-4 -1 -2 30.0814 54.9082
-4 -1 -1 -3.2033 11.8409
-4 0 -25 3.0821 -1.6396
-4 0 -24 1.5286 -2.5401
-4 0 -23 -3.8212 2.3963
-4 0 -22 0.8007 6.2717
-4 0 -21 -10.9950 -2.0079
-4 0 -20 5.6451 3.9832
-4 0 -19 -3.5396 -0.5709
-4 0 -18 3.0164 -2.0383
-4 0 -17 5.3277 1.6721
-4 0 -16 -1.8068 -0.6545
-4 0 -15 -2.1841 -0.6326
-4 0 -14 -0.3584 -2.8043
-4 0 -13 -3.7376 -5.7800
-4 0 -12 -9.6198 -4.7221
-4 0 -11 7.1472 -2.3390
-4 0 -10 -2.8691 -12.0575
-4 0 -9 -16.5110 -4.0509
-4 0 -8 -10.3325 -1.3773
-4 0 -7 5.1203 12.0056
-4 0 -6 32.9923 -26.3743
-4 0 -5 33.7606 2.5876
-4 0 -4 -6.0048 -57.2996
-4 0 -3 101.8654 1.4533
-4 0 -2 -101.4200 -25.7927
-4 0 -1 -13.9016 -81.2089
-3 -3 -24 -4.4198 6.8216
-3 -3 -22 6.1808 3.2285
-3 -3 -20 -7.6492 -3.3912
-3 -3 -18 9.0292 -2.9465
-3 -3 -16 1.7301 1.8077
-3 -3 -14 2.7302 -5.7604
-3 -3 -12 0.9656 -3.3611
-3 -3 -10 -14.7382 19.3405
-3 -3 -8 -17.3014 8.6204
-3 -3 -6 19.3278 -9.1433
-3 -3 -4 -24.4495 74.0944
-3 -3 -2 7.6353 56.4061
-3 -2 -25 6.4338 -1.1108
-3 -2 -24 -4.9260 -1.0276
-3 -2 -23 3.3500 0.1162
-3 -2 -22 -2.3261 2.2238
-3 -2 -21 -4.1001 -2.1129
-3 -2 -20 -3.9087 1.2509
-3 -2 -19 -2.5496 -4.0758
-3 -2 -18 9.3397 0.0408
-3 -2 -17 0.6315 6.2316
-3 -2 -16 -0.2696 -4.9416
-3 -2 -15 -2.9305 0.2418
-3 -2 -14 0.6457 3.3695
-3 -2 -13 2.6077 8.7183
-3 -2 -12 6.8654 15.2255
-3 -2 -11 -6.9499 5.7787
-3 -2 -10 3.4532 -14.2985
-3 -2 -9 -1.3525 8.5604
-3 -2 -8 10.5309 24.0106
-3 -2 -7 -1.6666 -2.9603
-3 -2 -6 6.7383 20.2147
-3 -2 -5 -3.2263 51.1653
-3 -2 -4 39.2985 10.2467
-3 -2 -3 -24.8788 -32.8037
-3 -2 -2 -50.1935 -17.7163
-3 -2 -1 81.0437 -40.2471
-3 -1 -25 3.8842 -3.3602
-3 -1 -24 1.5645 2.6515
-3 -1 -23 -0.1590 -3.0337
-3 -1 -22 2.0042 -3.4096
-3 -1 -21 -3.2116 0.5351
-3 -1 -20 -4.2287 -0.5906
-3 -1 -19 0.1370 0.7608
-3 -1 -18 -4.7284 -3.4221
-3 -1 -17 3.8712 0.7531
-3 -1 -16 -6.0098 -7.0185
-3 -1 -15 -2.4026 -3.6160
-3 -1 -14 1.1874 -4.2950
-3 -1 -13 1.2872 4.3734
-3 -1 -12 -11.0796 0.1503
-3 -1 -11 0.1135 11.9679
-3 -1 -10 -7.6947 5.6523
-3 -1 -9 -30.8586 -4.6304
-3 -1 -8 -8.9072 4.4921
-3 -1 -7 1.5971 8.5270
-3 -1 -6 -5.8800 5.9635
-3 -1 -5 -41.5225 50.1018
-3 -1 -4 -32.0214 -30.0543
-3 -1 -3 55.8884 55.1668
-3 -1 -2 -21.2628 6.4075
-3 -1 -1 -72.0294 -53.0461
-3 0 -25 -0.1359 -3.6122
-3 0 -24 -1.5453 2.2450
-3 0 -23 -3.7548 0.4199
-3 0 -22 -2.2232 -1.1391
-3 0 -21 -5.9411 -4.6481
-3 0 -20 6.0141 -5.0512
-3 0 -19 4.1574 1.0708
-3 0 -18 2.9733 2.5564
-3 0 -17 1.3532 -1.6191
-3 0 -16 3.8476 -5.8114
-3 0 -15 -0.5840 5.7633
-3 0 -14 9.2438 7.1828
-3 0 -13 6.8529 -6.6429
-3 0 -12 0.4189 -2.1166
-3 0 -11 -5.3870 -14.0008
-3 0 -10 9.0195 -20.9732
-3 0 -9 -6.5069 13.3506
-3 0 -8 -0.6745 38.1033
-3 0 -7 -35.6860 4.4331
-3 0 -6 28.5938 -18.5306
-3 0 -5 -19.9055 -20.2864
-3 0 -4 -77.8351 5.3426
-3 0 -3 -65.6012 74.1324
-3 0 -2 41.6149 73.8758
-3 0 -1 10.5693 -102.9008
-2 -2 -24 0.4584 2.0087
-2 -2 -22 -0.4204 -1.6235
-2 -2 -20 1.6480 -6.2954
-2 -2 -18 -2.5451 0.4886
-2 -2 -16 -6.5926 -2.0794
-2 -2 -14 -0.5078 3.3076
-2 -2 -12 0.0224 -13.0796
-2 -2 -10 -2.5007 -3.7785
-2 -2 -8 -0.5915 -24.7282
-2 -2 -6 13.7243 11.7681
-2 -2 -4 58.6729 43.4250
-2 -2 -2 -34.6247 -27.9913
-2 -1 -25 10.0013 0.9697
-2 -1 -24 -1.0170 0.5956
-2 -1 -23 -1.0136 -2.5512
-2 -1 -22 -3.0142 1.2692
-2 -1 -21 0.2523 -1.4437
-2 -1 -20 0.7462 -0.0379
-2 -1 -19 1.8126 -4.6223
-2 -1 -18 1.3730 -4.3660
-2 -1 -17 -3.4632 -3.8297
-2 -1 -16 1.0126 6.1541
-2 -1 -15 -2.5272 3.4435
-2 -1 -14 6.9078 0.6879
-2 -1 -13 6.5025 11.9678
-2 -1 -12 10.1171 1.4127
-2 -1 -11 0.8336 6.2003
-2 -1 -10 -2.7874 9.6923
-2 -1 -9 10.9479 -9.4930
-2 -1 -8 14.1236 -22.5387
-2 -1 -7 7.0272 1.7000
-2 -1 -6 26.4297 -11.4966
-2 -1 -5 4.5340 23.3396
-2 -1 -4 -19.6974 7.1609
-2 -1 -3 74.3575 7.2506
-2 -1 -2 -77.0927 -154.3713
-2 -1 -1 35.5165 21.6992
-2 0 -25 -6.3886 0.3728
-2 0 -24 -0.0838 2.1969
-2 0 -23 0.1878 -3.5906
-2 0 -22 -0.2201 -0.6899
-2 0 -21 0.5138 2.7988
-2 0 -20 -2.5762 6.0662
-2 0 -19 -3.5244 -1.9798
-2 0 -18 -2.2073 2.3502
-2 0 -17 -0.4286 0.5808
-2 0 -16 1.1028 0.4569
-2 0 -15 -0.4132 1.1873
-2 0 -14 3.6108 -2.5647
-2 0 -13 -0.0057 -2.0208
-2 0 -12 -2.5607 0.1808
-2 0 -11 2.3373 6.8788
-2 0 -10 6.6792 1.9704
-2 0 -9 -2.4212 2.1727
-2 0 -8 -4.3483 -23.6724
-2 0 -7 17.4637 29.7295
-2 0 -6 -25.8838 -51.6334
-2 0 -5 18.2141 -36.8257
-2 0 -4 15.2408 54.5850
-2 0 -3 -67.6572 6.1129
-2 0 -2 57.1142 6.2612
-2 0 -1 18.9730 20.3304
-1 -1 -24 -4.6172 1.7475
-1 -1 -22 0.2695 -1.4975
-1 -1 -20 -2.3095 -0.0042
-1 -1 -18 -4.3089 0.8265
-1 -1 -16 -2.0384 -2.9721
-1 -1 -14 -8.5223 5.9906
-1 -1 -12 -4.5958 15.2417
-1 -1 -10 -14.4472 0.5005
-1 -1 -8 9.0971 17.2649
-1 -1 -6 -46.7697 19.5015
-1 -1 -4 45.7536 17.2692
-1 -1 -2 -28.0638 -67.5770
-1 0 -25 -0.2796 -0.2940
-1 0 -24 -1.9242 3.7333
-1 0 -23 -1.9062 -2.8265
-1 0 -22 -1.3489 -2.7840
-1 0 -21 -4.7437 5.2954
-1 0 -20 -1.1085 -0.8360
-1 0 -19 4.5072 -1.4726
-1 0 -18 -2.0112 -1.5938
-1 0 -17 2.8130 -0.7365
-1 0 -16 -3.2082 -0.9049
-1 0 -15 -5.3032 -0.9989
-1 0 -14 -2.4309 -4.8972
-1 0 -13 11.3442 0.8684
-1 0 -12 3.1704 -6.1272
-1 0 -11 -0.8655 18.4267
-1 0 -10 -13.3182 6.5887
-1 0 -9 -6.7257 -13.9720
-1 0 -8 -17.5449 18.7327
-1 0 -7 5.7381 9.7796
-1 0 -6 3.9311 48.4002
-1 0 -5 -11.4891 3.0980
-1 0 -4 -13.9640 -19.3231
-1 0 -3 -17.5529 -33.5780
-1 0 -2 -48.6545 33.7725
0 0 -24 -4.0604 0.2381
0 0 -22 -2.5903 5.9327
0 0 -20 12.8997 2.3499
0 0 -18 8.0083 11.7367
0 0 -16 -1.2979 -3.9160
0 0 -14 -0.7717 -2.0485
0 0 -12 12.7598 -0.7986
0 0 -10 -2.6178 8.0599
0 0 -8 -10.9505 -44.8514
0 0 -6 92.2549 -39.4886
0 0 -4 -122.3210 24.0537
0 0 -2 48.6570 179.3306
1 0 2 -48.6545 -33.7725
1 0 3 -17.5529 33.5780
1 0 4 -13.9640 19.3231
1 1 0 149.4339 -11.1504
1 1 2 -28.0638 67.5770
1 1 4 45.7536 -17.2692
1 1 6 -46.7697 -19.5015
2 0 0 65.5645 6.0076
2 0 2 57.1142 -6.2612
2 0 3 -67.6572 -6.1129
2 0 4 15.2408 -54.5850
2 0 5 18.2141 36.8257
2 0 6 -25.8838 51.6334
2 1 0 5.3946 1.8829
2 1 1 35.5165 -21.6992
2 1 2 -77.0927 154.3713
2 1 3 74.3575 -7.2506
2 1 4 -19.6974 -7.1609
2 1 5 4.5340 -23.3396
2 1 6 26.4297 11.4966
2 1 7 7.0272 -1.7000
2 1 8 14.1236 22.5387
2 2 0 -76.7203 -0.2021
2 2 2 -34.6247 27.9913
2 2 4 58.6729 -43.4250
2 2 6 13.7243 -11.7681
2 2 8 -0.5915 24.7282
3 0 0 -84.7110 -4.1741
3 0 1 10.5693 102.9008
3 0 2 41.6149 -73.8758
3 0 3 -65.6012 -74.1324
3 0 4 -77.8351 -5.3426
3 0 5 -19.9055 20.2864
3 0 6 28.5938 18.5306
3 0 7 -35.6860 -4.4331
3 0 8 -0.6745 -38.1033
3 1 0 57.9176 0.1692
3 1 1 -72.0294 53.0461
3 1 2 -21.2628 -6.4075
3 1 3 55.8884 -55.1668
3 1 4 -32.0214 30.0543
3 1 5 -41.5225 -50.1018
3 1 6 -5.8800 -5.9635
3 1 7 1.5971 -8.5270
3 1 8 -8.9072 -4.4921
3 2 0 -21.6483 -1.5693
3 2 1 81.0437 40.2471
3 2 2 -50.1935 17.7163
3 2 3 -24.8788 32.8037
3 2 4 39.2985 -10.2467
3 2 5 -3.2263 -51.1653
3 2 6 6.7383 -20.2147
3 2 7 -1.6666 2.9603
3 2 8 10.5309 -24.0106
3 3 0 44.5390 5.3912
3 3 2 7.6353 -56.4061
3 3 4 -24.4495 -74.0944
3 3 6 19.3278 9.1433
3 3 8 -17.3014 -8.6204
4 0 0 60.0285 -0.2986
4 0 1 -13.9016 81.2089
4 0 2 -101.4200 25.7927
4 0 3 101.8654 -1.4533
4 0 4 -6.0048 57.2996
4 0 5 33.7606 -2.5876
4 0 6 32.9923 26.3743
4 0 7 5.1203 -12.0056
4 0 8 -10.3325 1.3773
4 1 0 -61.8430 2.5607
4 1 1 -3.2033 -11.8409
4 1 2 30.0814 -54.9082
4 1 3 36.9490 14.3866
4 1 4 9.9009 -11.7633
4 1 5 5.5344 -10.2040
4 1 6 3.7959 -31.5170
4 1 7 21.3452 5.0226
4 1 8 -3.9614 -2.0350
4 2 0 -14.3599 -1.1098
4 2 1 -4.1420 -32.8786
4 2 2 -22.5409 -31.8402
4 2 3 -87.6952 44.0836
4 2 4 1.1518 38.8476
4 2 5 -2.5753 18.1576
4 2 6 7.6422 18.3152
4 2 7 -2.2564 24.1441
4 2 8 9.7658 2.0151
4 2 9 18.4311 7.7922
4 3 0 -25.0935 -2.2259
4 3 1 -0.3689 -105.5385
4 3 2 50.6450 -32.7890
4 3 3 -12.6011 42.6369
4 3 4 5.5370 -33.1573
4 3 5 4.0505 17.1533
4 3 6 10.0416 -10.2859
4 3 7 11.4910 -10.2109
4 3 8 2.4102 8.1607
4 3 9 -2.7556 -9.6853
4 4 0 50.8252 3.9786
4 4 2 2.4014 17.9779
4 4 4 40.1257 -39.9038
4 4 6 -17.0030 18.4081
4 4 8 7.6806 4.9146
5 0 0 -12.4378 -2.6011
5 0 1 -64.5279 80.6235
5 0 2 -10.8030 -31.0313
5 0 3 -33.2118 -47.3268
5 0 4 -40.5213 -81.5836
5 0 5 -15.2163 -34.9278
5 0 6 4.4681 6.3462
5 0 7 -11.8603 8.1364
5 0 8 11.5295 11.5192
5 1 0 -12.3405 -2.1093
5 1 1 -62.1757 -35.1084
5 1 2 10.5157 -28.4665
5 1 3 -54.0238 -2.2622
5 1 4 15.4650 13.8635
5 1 5 26.8986 16.9381
5 1 6 -30.6926 -11.8414
5 1 7 -5.5943 4.9629
5 1 8 -2.8200 12.7117
5 1 9 6.3856 -16.5512
5 2 0 -38.6031 4.7806
5 2 1 -3.5083 50.8457
5 2 2 -23.9704 -50.0613
5 2 3 -32.9977 -85.6374
5 2 4 -13.9138 6.6546
5 2 5 4.5758 -12.5632
5 2 6 0.4943 6.7355
5 2 7 5.2511 13.8972
5 2 8 -0.8759 -16.6258
5 2 9 10.8099 2.6171
5 3 0 -6.4202 -0.9163
5 3 1 6.1118 -65.1285
5 3 2 5.0700 -13.2105
5 3 3 -19.1497 52.6067
5 3 4 36.6385 5.4580
5 3 5 -9.8190 -14.4041
5 3 6 -28.1825 -23.3145
5 3 7 4.2260 -5.5966
5 3 8 2.2778 -14.1914
5 3 9 -16.4660 6.3523
5 4 0 -28.7134 0.1900
5 4 1 21.9862 29.0083
5 4 2 -16.8688 11.7784
5 4 3 19.0334 -24.2590
5 4 4 11.2670 -1.5424
5 4 5 -25.2429 -24.3187
5 4 6 21.1920 11.6466
5 4 7 14.5931 -11.8657
5 4 8 6.9443 4.5982
5 4 9 2.3071 -7.5229
5 5 0 24.9575 -6.2719
5 5 2 -17.4571 7.2186
5 5 4 -30.8448 9.1182
5 5 6 17.6433 26.0272
5 5 8 37.0463 0.6400
5 5 14 4.5194 -5.0215
6 0 0 59.2106 5.9691
6 0 1 33.8286 7.1113
6 0 2 -15.6451 17.3295
6 0 3 -22.5342 31.7863
6 0 4 -26.4097 -1.6163
6 0 6 -0.4352 40.2169
6 0 7 5.6001 -15.3636
6 0 8 10.9443 -15.3975
6 0 9 -15.1902 19.8953
6 1 0 4.1834 -3.8122
6 1 1 23.9012 -37.9280
6 1 2 7.5564 7.8558
6 1 3 -21.2615 -34.3424
6 1 4 24.6162 4.3385
6 1 5 -37.8227 25.9619
6 1 6 30.3209 1.6153
6 1 7 17.2104 -6.0197
6 1 8 -14.2614 -13.4684
6 1 9 -5.5931 -10.5636
6 2 0 20.7738 -2.1308
6 2 1 -54.7952 -21.8516
6 2 2 10.3568 -25.4647
6 2 3 5.5628 1.2183
6 2 4 1.8369 43.2485
6 2 5 -13.3844 -7.3279
6 2 6 21.5866 13.2119
6 2 7 -14.0654 5.4869
6 2 8 -7.6119 7.7042
6 2 9 1.9058 6.5930
6 3 0 8.2388 0.8583
6 3 1 1.0405 -5.4642
6 3 2 5.6605 -37.7245
6 3 3 -4.2114 -26.2672
6 3 4 -29.0344 4.9767
6 3 5 16.6990 -3.2615
6 3 6 -15.5246 13.2934
6 3 7 11.5280 -1.2867
6 3 8 -9.4943 6.2987
6 3 9 0.9044 -17.6613
6 4 0 4.2859 1.3611
6 4 1 -0.2941 -55.1715
6 4 2 29.2003 22.8207
6 4 3 3.0256 10.1356
6 4 4 2.4439 13.7173
6 4 5 24.4019 -14.9294
6 4 6 -10.9169 0.6195
6 4 7 -11.7553 -9.4723
6 4 8 1.7017 12.2671
6 4 9 -0.5219 6.3017
6 4 13 -0.9849 0.3792
6 4 14 5.4897 -4.3978
6 5 0 -42.4103 3.9524
6 5 1 82.2919 20.1279
6 5 2 -76.0557 44.3070
6 5 3 27.0368 -11.2583
6 5 4 -14.3913 14.5924
6 5 5 0.7839 -3.8778
6 5 6 -11.5828 11.8611
6 5 7 6.5319 -5.0587
6 5 8 21.7683 13.0112
6 5 9 9.1967 -2.5552
6 5 12 2.1163 4.2393
6 5 13 7.7764 -2.4391
6 5 14 9.1275 -1.1151
6 5 15 1.8552 -4.6201
6 6 0 46.8383 -14.9723
6 6 2 64.0566 12.5795
6 6 4 15.8330 -26.2215
6 6 6 11.5021 -15.7914
6 6 8 -31.1222 13.8365
6 6 12 20.8760 -14.0191
6 6 14 -13.0005 3.9131
6 6 16 5.9313 0.1506
7 0 0 -91.4451 -2.6638
7 0 1 -14.3693 -2.3518
7 0 2 20.1500 54.1105
7 0 3 -18.7287 -49.7848
7 0 4 32.5225 -22.1350
7 0 5 -9.1313 -48.7897
7 0 6 -31.9353 -15.1148
7 0 7 16.5244 -20.0120
7 0 8 4.5637 10.8237
7 0 9 5.5193 25.1232
7 1 0 8.9585 5.9164
7 1 1 -18.8255 -27.9870
7 1 2 -23.6040 9.1474
7 1 3 6.9173 -24.8107
7 1 4 -25.6074 -4.1775
7 1 5 -10.7963 -15.8395
7 1 6 34.7273 -21.1197
7 1 7 -18.7670 -16.5780
7 1 8 -6.8845 7.4922
7 1 9 -21.9963 -8.7722
7 2 0 -3.4104 -2.2436
7 2 1 2.3138 0.4623
7 2 2 -25.3135 4.1912
7 2 3 9.6200 41.1578
7 2 4 -26.6141 -28.8887
7 2 5 33.1983 -12.9912
7 2 6 -6.6706 14.1358
7 2 7 23.8786 0.4527
7 2 8 23.9661 27.0783
7 2 9 2.3359 -2.9093
7 3 0 18.3951 1.2852
7 3 1 -22.9755 13.1585
7 3 2 -86.7203 -41.4346
7 3 3 2.1939 -29.6695
7 3 4 11.4418 -16.6898
7 3 5 11.6205 -5.7973
7 3 6 10.0483 18.4670
7 3 7 -26.0526 18.4056
7 3 8 11.0495 -7.0480
7 3 9 -9.1885 -10.4718
7 3 13 0.6352 -2.7681
7 3 14 6.3310 1.6963
7 4 0 18.2938 -5.9235
7 4 1 -17.4423 -18.8684
7 4 2 -28.1457 24.0679
7 4 3 -15.2345 -21.7032
7 4 4 4.2409 9.1008
7 4 5 -19.5392 11.8446
7 4 6 -12.8500 22.5333
7 4 7 1.0872 11.3465
7 4 8 5.2112 2.8358
7 4 9 -17.6075 -2.7967
7 4 12 1.2704 0.8426
7 4 13 0.7858 6.4385
7 4 14 -3.4759 -5.4558
7 4 15 5.0738 -2.6373
7 5 0 -21.9812 3.4168
7 5 1 -72.8104 -74.9109
7 5 2 -42.1904 -5.2098
7 5 3 -3.4334 -16.6459
7 5 4 5.1400 5.3949
7 5 5 -4.2557 18.2595
7 5 6 -4.7520 31.8591
7 5 7 -34.5733 -44.6769
7 5 8 -0.7766 5.6690
7 5 9 -9.2690 31.0924
7 5 11 -4.2887 4.6684
7 5 12 0.9045 9.7882
7 5 13 -0.1022 -0.6262
7 5 14 3.9133 4.4852
7 5 15 6.3290 1.7539
7 5 16 1.0468 -6.2846
7 6 0 6.5652 4.8076
7 6 1 5.8594 12.2330
7 6 2 42.5248 -7.2387
7 6 3 10.1550 -18.7671
7 6 4 -18.9075 13.4495
7 6 5 -42.1451 17.3975
7 6 6 7.6895 -19.9623
7 6 7 2.1515 -0.6045
7 6 8 -19.8450 -6.2603
7 6 9 -0.7382 6.9177
7 6 10 -4.1224 -11.0356
7 6 11 -0.8082 -3.1467
7 6 12 -5.1567 -2.3203
7 6 13 2.4439 0.5012
7 6 14 -0.8166 3.9262
7 6 15 6.1967 -3.8087
7 6 16 -0.2775 1.5063
7 6 17 -2.0450 -1.4009
7 7 0 42.3967 -15.0310
7 7 2 100.8694 -46.5715
7 7 4 5.8458 -16.0288
7 7 6 18.8556 -20.3243
7 7 8 2.9444 -4.6349
7 7 10 2.3972 -10.1439
7 7 12 -4.9627 -1.6846
7 7 14 -8.9669 3.4276
7 7 16 -6.5454 5.0515
8 0 0 3.0940 -3.5439
8 0 1 -35.6926 -10.8584
8 0 2 44.9550 16.2515
8 0 3 11.4781 26.6767
8 0 4 -24.0635 4.2945
8 0 5 -78.4110 -46.5379
8 0 6 34.1582 6.6630
8 0 7 -28.5494 -4.0362
8 0 8 -13.7118 24.4498
8 0 9 -1.0220 -1.6223
8 1 0 8.4029 -1.8840
8 1 1 8.2044 -54.6599
8 1 2 7.7375 -36.0937
8 1 3 19.1338 -12.4564
8 1 4 -9.9033 10.5667
8 1 5 -15.2911 -21.4078
8 1 6 -2.6065 -10.7375
8 1 7 -11.9497 -2.0126
8 1 8 6.4874 -1.5564
8 1 9 -6.8645 -0.1199
8 2 0 75.2708 1.7210
8 2 1 -13.6347 -21.4579
8 2 2 38.0665 -7.6891
8 2 3 -5.6475 9.7315
8 2 4 12.9342 -23.1011
8 2 5 -26.5884 17.7232
8 2 6 2.1782 6.6426
8 2 7 -13.8871 4.1714
8 2 8 -1.8416 -19.1690
8 2 9 -10.2990 0.8649
8 2 13 1.7659 2.7508
8 2 14 -2.3612 -4.3523
8 3 0 4.9190 0.8958
8 3 1 -49.7758 -26.4133
8 3 2 -24.2278 10.6614
8 3 3 53.6573 -22.9235
8 3 4 8.4175 -27.1256
8 3 5 16.7816 -16.3119
8 3 6 21.9888 -17.7520
8 3 7 16.2059 6.5533
8 3 8 -9.4968 -17.6655
8 3 9 -7.6211 -8.1402
8 3 12 -12.5012 -2.5963
8 3 13 -0.4274 11.5994
8 3 14 -1.0365 3.1478
8 3 15 1.7268 -2.4635
8 4 0 -6.7493 4.0105
8 4 1 55.1795 97.7628
8 4 2 -39.3802 61.7186
8 4 3 11.4958 -21.3029
8 4 4 0.0196 23.3604
8 4 5 -12.6771 6.0529
8 4 6 -3.9866 -7.3291
8 4 7 5.5071 13.7211
8 4 8 5.7723 -0.1395
8 4 9 6.6441 -1.3331
8 4 11 1.7667 7.4132
8 4 12 -2.1207 -3.7900
8 4 13 5.4656 2.9647
8 4 14 3.6195 -0.3257
8 4 15 -2.5298 -2.1453
8 4 16 -1.4315 2.1624
8 5 0 -17.7439 -8.3121
8 5 1 6.1429 1.1374
8 5 2 37.8885 -21.2765
8 5 3 26.5854 -4.8021
8 5 4 -12.7550 2.0450
8 5 5 16.4752 16.6095
8 5 6 -5.5451 -33.7663
8 5 7 -6.1901 8.1462
8 5 8 -15.2522 6.2423
8 5 9 13.3766 -13.4524
8 5 10 -4.7314 2.7921
8 5 11 -5.0901 5.4713
8 5 12 -12.4857 0.3425
8 5 13 -6.2051 -8.5943
8 5 14 -2.7435 -1.4293
8 5 15 -3.5264 2.1562
8 5 16 1.4083 2.5646
8 5 17 0.4264 0.6979
8 6 0 -7.0255 3.4953
8 6 1 -43.0492 -32.0065
8 6 2 -30.2738 -11.6614
8 6 3 -9.6070 24.1558
8 6 4 22.8763 28.2454
8 6 5 0.3445 4.4328
8 6 6 7.0553 -23.3911
8 6 7 1.7177 2.9538
8 6 8 0.1677 2.4639
8 6 9 -4.6630 -2.1157
8 6 10 -10.1712 -4.6330
8 6 11 5.1066 0.2014
8 6 12 1.4174 17.4977
8 6 13 -6.0154 -5.8147
8 6 14 -4.6988 -2.0746
8 6 15 -1.5375 2.8864
8 6 16 -2.7996 3.7891
8 6 17 -2.4403 -3.4074
8 7 0 11.4935 3.3375
8 7 1 66.6599 47.6668
8 7 2 19.0516 -10.5523
8 7 3 25.8984 -18.0602
8 7 4 -24.7578 -10.4914
8 7 5 -23.3819 3.1216
8 7 6 -4.7930 10.5327
8 7 7 17.8473 -10.6293
8 7 8 4.4625 -13.8930
8 7 9 -2.1419 -5.3182
8 7 10 2.4538 -4.4144
8 7 11 -9.8288 -4.9761
8 7 12 -8.4807 -3.0197
8 7 13 -3.1246 -10.4103
8 7 14 4.5213 -2.1887
8 7 15 -2.5546 1.0058
8 7 16 -5.5216 -1.4118
8 7 17 -4.8343 2.0642
8 7 18 1.2590 -1.2298
8 8 0 27.3754 -8.2158
8 8 2 3.2816 17.2500
8 8 4 1.4341 -16.9230
8 8 6 17.3059 28.6603
8 8 8 13.5139 -3.4941
8 8 10 -16.9840 -13.1254
8 8 12 4.9286 10.2278
8 8 14 10.0529 -2.6205
8 8 16 1.1377 0.6212
8 8 18 -2.2226 -2.8920
9 0 0 -46.8329 4.9035
9 0 1 17.2641 6.1849
9 0 2 -75.6415 40.0847
9 0 3 2.1819 2.1308
9 0 4 -14.6949 -6.5919
9 0 5 22.8478 39.4923
9 0 6 -10.5123 24.8106
9 0 7 31.8538 8.6140
9 0 8 22.7281 12.8146
9 0 9 13.2326 -6.6067
9 0 13 0.2955 -10.2938
9 0 14 6.7167 5.9551
9 1 0 -0.3479 -2.3755
9 1 1 10.1274 -13.7443
9 1 2 -4.6885 -15.3982
9 1 3 -2.4757 -24.9011
9 1 4 7.0020 -24.2330
9 1 5 -10.3803 5.9714
9 1 6 -34.5252 -9.5308
9 1 7 -16.5019 9.0483
9 1 8 20.8821 -9.4059
9 1 9 1.4417 0.6461
9 1 12 5.5932 5.4193
9 1 13 -1.4820 -5.3779
9 1 14 0.0647 3.7681
9 1 15 -8.6032 7.1977
9 2 0 -17.0514 0.2565
9 2 1 -33.1355 25.8567
9 2 2 -22.2893 49.5271
9 2 3 1.2872 20.7722
9 2 4 -6.6741 -11.1722
9 2 5 0.4516 18.3829
9 2 6 -11.0643 -3.1960
9 2 7 12.1666 -12.4053
9 2 8 -6.2927 1.6659
9 2 9 2.9951 -5.2398
9 2 11 -5.2865 7.3212
9 2 12 15.1164 -14.7775
9 2 13 -0.9241 -2.7546
9 2 14 5.6227 -2.8304
9 2 15 -6.1567 7.8659
9 3 0 19.6744 -2.2417
9 3 1 10.3765 -3.9887
9 3 2 3.2200 -14.1050
9 3 3 14.8794 17.0216
9 3 4 6.3908 10.2238
9 3 5 2.8822 -2.9299
9 3 6 3.0070 1.2836
9 3 7 -14.6886 -8.2061
9 3 8 20.7608 -3.0256
9 3 9 -16.4332 8.9967
9 3 10 -4.7168 4.8384
9 3 11 -12.0371 -0.1223
9 3 12 0.4646 3.4331
9 3 13 -16.7283 0.3021
9 3 14 7.0647 -5.0020
9 3 15 -3.1841 -2.4971
9 3 16 -1.8255 5.0054
9 4 0 -20.4646 2.3120
9 4 1 -38.1295 -32.1968
9 4 2 -16.4466 -4.8438
9 4 3 -9.1551 4.2593
9 4 4 0.8394 0.8145
9 4 5 -17.6348 13.7398
9 4 6 3.0206 30.7950
9 4 7 -14.4639 -28.3739
9 4 8 18.3822 4.7020
9 4 9 -0.5342 10.3921
9 4 10 -8.1604 -9.5897
9 4 11 4.9484 11.2683
9 4 12 2.1732 2.5261
9 4 13 -1.0973 5.2076
9 4 14 4.1136 -0.5534
9 4 15 2.7237 -3.3546
9 4 16 4.5896 -0.8614
9 4 17 -4.2425 -3.6922
9 5 0 -4.0151 3.7088
9 5 1 58.8784 45.7866
9 5 2 -12.4949 12.2055
9 5 3 -2.2302 -32.2454
9 5 4 5.9466 0.6189
9 5 5 -18.4352 -5.3792
9 5 6 12.1632 42.6137
9 5 7 8.1136 27.0231
9 5 8 -11.5864 6.6138
9 5 9 -7.7046 -6.1841
9 5 10 10.2809 0.4337
9 5 11 4.2804 1.4685
9 5 12 0.7800 5.1859
9 5 13 -6.6726 -2.9702
9 5 14 3.6695 -1.9392
9 5 15 -6.2218 9.1878
9 5 16 1.9624 -5.5784
9 5 17 2.0360 1.0359
9 6 0 -0.5378 -5.5255
9 6 1 1.9725 -6.1453
9 6 2 34.8445 4.6037
9 6 3 32.3295 -23.2708
9 6 4 -2.5037 7.2720
9 6 5 -2.3711 -5.2464
9 6 6 3.5854 2.5260
9 6 7 2.8772 20.3623
9 6 8 -8.9002 -6.4844
9 6 9 -2.3102 -1.6400
9 6 10 10.7440 4.9209
9 6 11 4.8614 -10.7950
9 6 12 -4.7452 -17.7186
9 6 13 -0.9887 -0.3718
9 6 14 -4.8856 1.1588
9 6 15 -0.4162 5.0412
9 6 16 -3.9169 -0.4526
9 6 17 3.8665 -8.5506
9 6 18 -4.1347 3.8677
9 7 0 4.8428 2.0753
9 7 1 -39.7336 -26.3916
9 7 2 -10.1732 33.1500
9 7 3 -10.9751 -2.4458
9 7 4 35.2296 -5.0711
9 7 5 5.0124 -5.0233
9 7 6 19.1200 -1.1292
9 7 7 -12.5730 -3.1144
9 7 8 -17.1125 10.7049
9 7 9 6.4650 13.6842
9 7 10 6.5507 11.3864
9 7 11 1.0937 -8.0302
9 7 12 -14.8381 -0.1981
9 7 13 -2.7293 2.1472
9 7 14 1.8218 10.0054
9 7 15 7.9167 -4.6300
9 7 16 -0.7479 -1.2524
9 7 17 -3.9857 -2.0929
9 7 18 4.3920 -3.3947
9 8 0 -4.7275 1.0164
9 8 1 -11.1401 -1.7599
9 8 2 19.7245 -2.0089
9 8 3 -15.2735 -17.9297
9 8 4 -25.4420 0.6470
9 8 5 3.6665 -4.2010
9 8 6 -3.1541 13.1092
9 8 7 -13.2464 33.8381
9 8 8 -14.5683 -13.7141
9 8 9 6.0395 0.2318
9 8 10 -2.9316 11.8274
9 8 11 21.7179 1.5825
9 8 12 -1.1493 -0.2750
9 8 13 -3.1699 -3.9943
9 8 14 3.1433 -0.6379
9 8 15 -4.4219 2.3319
9 8 16 -0.6529 6.4162
9 8 17 7.5943 -1.0424
9 8 18 3.2459 -0.8071
9 9 0 37.4694 -0.2732
9 9 2 -6.6242 -1.5821
9 9 4 12.0334 5.5681
9 9 6 13.0491 8.4303
9 9 8 14.2543 23.5649
9 9 10 6.8263 -19.0718
9 9 12 -4.8992 5.6059
9 9 14 -5.3182 8.3226
9 9 16 4.7623 8.1864
9 9 18 5.4070 3.7157
10 0 0 -5.5662 -1.6801
10 0 1 11.3818 -19.4272
10 0 2 -1.7442 21.0814
10 0 3 -16.3679 37.8293
10 0 4 -1.1404 4.4759
10 0 5 -51.3788 -43.2159
10 0 6 -15.1085 -35.2973
10 0 7 -6.2574 -1.9293
10 0 8 -3.7336 -1.2913
10 0 9 -19.3167 -1.2258
10 0 12 -6.2597 -4.9002
10 0 13 -13.3726 -11.0654
10 0 14 4.8121 4.0188
10 0 15 -0.4857 2.6193
10 1 0 -10.1204 2.9251
10 1 1 -29.1896 4.8363
10 1 2 22.6292 -13.8147
10 1 3 1.9624 0.5538
10 1 4 8.4704 8.3420
10 1 5 -0.0780 -19.6332
10 1 6 -11.1967 -14.4222
10 1 7 12.0367 4.6215
10 1 8 -0.8430 1.4578
10 1 9 -0.7847 7.8714
10 1 11 1.3428 10.1321
10 1 12 4.9716 9.5227
10 1 13 -6.2666 2.8422
10 1 14 -2.4564 -2.1644
10 1 15 3.3819 -0.5626
10 1 16 0.7464 -0.4448
10 2 0 -20.7906 -0.7494
10 2 1 -0.6944 7.8595
10 2 2 -0.8661 28.3910
10 2 3 -60.6982 -58.3506
10 2 4 30.6336 -48.7673
10 2 5 -4.9819 -29.2829
10 2 6 8.7916 -2.4412
10 2 7 -19.3262 16.2043
10 2 8 -1.5508 -8.6760
10 2 9 8.5744 0.0603
10 2 10 -1.7592 -0.2438
10 2 11 -8.6626 10.9706
10 2 12 -3.3061 -0.5824
10 2 13 -0.7048 7.9853
10 2 14 -0.8102 -4.3024
10 2 15 -6.5498 -4.8371
10 2 16 0.0889 -1.2871
10 3 0 -12.6285 0.6636
10 3 1 8.5828 18.6654
10 3 2 5.9122 -5.7591
10 3 3 -1.5802 -1.0145
10 3 4 -17.7093 -14.3078
10 3 5 0.2303 -8.2068
10 3 6 -18.8383 2.3763
10 3 7 -7.7628 2.8419
10 3 8 4.6518 0.1990
10 3 9 2.5814 4.2692
10 3 10 -1.5324 5.1612
10 3 11 -3.4909 -0.0144
10 3 12 4.1676 0.6406
10 3 13 -3.0016 1.1556
10 3 14 -3.4320 -6.9260
10 3 15 -2.0011 -0.6758
10 3 16 7.3024 -3.3559
10 3 17 -2.2241 0.1141
10 4 0 17.8165 -2.3903
10 4 1 12.8418 60.5231
10 4 2 28.3411 -19.0151
10 4 3 29.7300 45.5095
10 4 4 8.2308 0.8692
10 4 5 12.5743 -3.8421
10 4 6 6.7971 1.1755
10 4 7 13.5183 -5.6416
10 4 8 -7.7387 5.9288
10 4 9 5.1035 -1.6282
10 4 10 3.5378 1.3578
10 4 11 6.5852 -2.0829
10 4 12 2.5852 -4.2745
10 4 13 -3.0184 -6.9497
10 4 14 9.9591 -12.5141
10 4 15 -0.3226 1.4788
10 4 16 -2.3369 -1.8729
10 4 17 3.3764 -2.6114
10 5 0 -1.3848 1.4404
10 5 1 19.4251 11.0785
10 5 2 -29.8242 20.8758
10 5 3 10.7342 -30.9341
10 5 4 -31.8552 31.0760
10 5 5 6.0526 -4.7683
10 5 6 9.8108 -3.7523
10 5 7 -7.6948 -12.6093
10 5 8 -20.5831 12.4768
10 5 9 -16.7125 7.2132
10 5 10 -1.9915 -3.8796
10 5 11 -5.0460 10.3054
10 5 12 -4.2487 5.2577
10 5 13 5.6716 7.1718
10 5 14 12.4297 4.2868
10 5 15 1.2453 -3.1082
10 5 16 5.6072 3.0796
10 5 17 3.2952 0.1704
10 5 18 -0.3625 -2.6867
10 6 0 -25.0735 1.3793
10 6 1 49.3537 67.8118
10 6 2 0.0247 45.6891
10 6 3 -11.4087 -4.0265
10 6 4 -0.8467 -6.1655
10 6 5 3.4658 11.1859
10 6 6 0.1254 -5.5589
10 6 7 -3.7190 10.7481
10 6 8 -6.7479 6.0085
10 6 9 9.0340 7.9852
10 6 10 26.7626 -2.8171
10 6 11 17.3450 5.6461
10 6 12 -1.9639 -10.5430
10 6 13 9.7955 -6.8415
10 6 14 -2.7633 2.9799
10 6 15 -1.6114 3.1627
10 6 16 -2.6638 0.6372
10 6 17 0.3639 0.9971
10 6 18 -6.3715 5.9049
10 7 0 -18.0613 -0.9881
10 7 1 -19.8350 -14.0158
10 7 2 15.9277 -10.5872
10 7 3 -7.0908 -14.5434
10 7 4 -21.5244 1.2978
10 7 5 -8.8066 -0.1935
10 7 6 -13.4839 3.6655
10 7 7 -22.2423 6.7347
10 7 8 -0.9539 10.2366
10 7 9 -17.3934 -27.0156
10 7 10 -1.9456 4.1663
10 7 11 -4.9416 2.6089
10 7 12 -16.7067 1.1365
10 7 13 -0.1383 8.8600
10 7 14 2.5160 -2.6522
10 7 15 -3.5529 1.9883
10 7 16 -0.8860 0.3414
10 7 17 -3.4219 3.2398
10 7 18 -0.2942 2.5147
10 8 0 2.7695 0.2378
10 8 1 14.1441 20.1671
10 8 2 20.4185 -37.5684
10 8 3 15.5720 -3.3531
10 8 4 16.6131 0.8503
10 8 5 7.2388 -12.8674
10 8 6 -4.9716 13.3924
10 8 7 3.5637 -8.6461
10 8 8 30.0131 -14.8617
10 8 9 15.5426 3.5748
10 8 10 -18.4661 2.8134
10 8 11 -11.1577 -4.8903
10 8 12 2.9014 7.1051
10 8 13 6.3731 -5.5902
10 8 14 -3.8961 3.6441
10 8 15 1.2537 0.2903
10 8 16 5.1027 -0.4110
10 8 17 3.1022 -5.0461
10 8 18 0.8058 0.1921
10 9 0 1.3459 -0.6390
10 9 1 17.4095 -16.5006
10 9 2 -9.0475 -23.5278
10 9 3 -1.2372 14.7281
10 9 4 -23.9172 3.8702
10 9 5 10.5196 -21.6315
10 9 6 -9.8258 14.0836
10 9 7 -8.2037 1.6519
10 9 8 17.6682 -9.0720
10 9 9 29.9200 13.6641
10 9 10 10.5470 -9.3516
10 9 11 -2.9776 -20.8553
10 9 12 -7.8502 -6.8758
10 9 13 -2.0559 -11.3129
10 9 14 -8.0515 -8.6191
10 9 15 0.4835 1.5897
10 9 16 -1.6042 -1.8490
10 9 17 -0.9007 0.5878
10 9 18 0.3808 4.0726
10 10 0 12.6139 3.0450
10 10 2 -11.3745 -33.8327
10 10 4 -31.3417 25.4885
10 10 6 -16.6254 11.1272
10 10 8 24.8548 -0.1538
10 10 10 4.8002 -22.4285
10 10 12 14.4501 -4.4494
10 10 14 6.7690 6.8345
10 10 16 -1.3323 -3.1964
10 10 18 4.1628 2.5083
11 0 0 -74.8446 -2.1037
11 0 1 13.0749 -12.3849
11 0 2 -1.6376 52.7428
11 0 3 14.5757 5.7820
11 0 4 19.4605 5.9719
11 0 5 -3.1491 -21.2797
11 0 6 -20.4925 -18.6178
11 0 7 -0.2132 -10.1796
11 0 8 -10.7397 -7.7734
11 0 9 4.9247 1.3747
11 0 10 13.2761 3.7847
11 0 11 5.5965 1.1759
11 0 12 9.1948 -4.1687
11 0 13 -3.0681 1.7073
11 0 14 6.3292 -0.7877
11 0 15 0.5219 0.6336
11 0 16 9.9052 3.8232
11 1 0 -12.6796 -1.9633
11 1 1 2.8247 9.2147
11 1 2 1.3428 -53.6705
11 1 3 -32.7750 -18.8573
11 1 4 -34.2100 15.9329
11 1 5 -5.8989 10.6215
11 1 6 20.1728 6.0496
11 1 7 4.8662 17.3393
11 1 8 -4.0304 -4.0248
11 1 9 6.7819 -12.7866
11 1 10 -7.5250 3.5521
11 1 11 -3.4106 8.7798
11 1 12 7.0519 11.5679
11 1 13 -3.5391 3.1748
11 1 14 1.0187 -2.9261
11 1 15 0.7994 -7.0546
11 1 16 3.7187 1.2731
11 2 0 12.2489 1.9843
11 2 1 1.9257 5.0011
11 2 2 16.3044 0.8944
11 2 3 14.9526 4.6183
11 2 4 3.4833 -19.5335
11 2 5 2.7969 19.1096
11 2 6 18.0898 11.5406
11 2 7 -3.5516 -20.6258
11 2 8 -6.9392 5.6393
11 2 9 8.1652 6.9982
11 2 10 -0.7980 -6.9805
11 2 11 -10.3950 -7.9727
11 2 12 -3.0408 -0.5930
11 2 13 -0.5066 2.5725
11 2 14 1.9033 -2.5349
11 2 15 -4.4195 -0.1621
11 2 16 4.1485 4.5557
11 2 17 -1.9466 -0.8758
11 3 0 -0.4218 -0.1886
11 3 1 -3.0800 14.2730
11 3 2 -11.7123 -9.4432
11 3 3 -7.2634 -16.3948
11 3 4 4.6815 6.7552
11 3 5 -6.4257 4.2242
11 3 6 -16.4232 10.0221
11 3 7 11.0912 0.4863
11 3 8 -3.7271 -7.5409
11 3 9 -11.0696 -6.4189
11 3 10 -5.7328 4.7384
11 3 11 -5.2110 -1.7968
11 3 12 1.7530 6.3860
11 3 13 -3.6952 -0.8722
11 3 14 -2.0841 -5.8999
11 3 15 1.3618 -10.7044
11 3 16 -6.9950 2.8727
11 3 17 -6.6381 2.2750
11 4 0 4.4818 -0.2005
11 4 1 -0.3785 14.2977
11 4 2 20.3345 -18.0065
11 4 3 15.4277 -14.7411
11 4 4 11.4120 12.0953
11 4 5 8.0502 20.9535
11 4 6 -7.2636 12.7874
11 4 7 -10.1622 -5.1310
11 4 8 -4.6064 7.5285
11 4 9 -0.4782 -3.5297
11 4 10 2.4403 -6.4838
11 4 11 10.1013 -11.0971
11 4 12 -11.8268 -4.6666
11 4 13 -7.1689 0.8782
11 4 14 1.1901 5.7564
11 4 15 2.4527 -4.8597
11 4 16 -3.4825 -3.8066
11 4 17 5.0619 0.5616
11 4 18 -1.9327 1.1314
11 5 0 9.3582 0.6231
11 5 1 -7.9740 -10.7646
11 5 2 3.7873 3.9533
11 5 3 -12.7782 -10.9837
11 5 4 10.7836 12.2164
11 5 5 0.9527 -18.6522
11 5 6 -7.0263 -5.8576
11 5 7 2.3256 -6.8626
11 5 8 -16.0704 -3.9972
11 5 9 0.3145 6.4767
11 5 10 -4.9354 -6.1753
11 5 11 10.4250 -3.1976
11 5 12 -1.7902 6.0102
11 5 13 -7.1504 3.8388
11 5 14 -4.2842 2.3568
11 5 15 0.0614 -5.9973
11 5 16 4.4759 1.2662
11 5 17 -4.7006 -1.4716
11 5 18 -3.3837 -1.2391
11 6 0 7.8350 -0.8775
11 6 1 3.6931 -1.2978
11 6 2 12.0123 -53.1503
11 6 3 -6.2059 6.9569
11 6 4 -15.2585 12.7294
11 6 5 3.5300 -12.7619
11 6 6 -6.5428 -3.3838
11 6 7 4.0833 -1.4849
11 6 8 -4.5160 -23.7543
11 6 9 4.2458 -9.5621
11 6 10 -9.1874 4.1556
11 6 11 4.2700 2.8442
11 6 12 6.0972 0.0930
11 6 13 -4.7840 5.2767
11 6 14 -3.8466 -3.6475
11 6 15 -2.7900 1.7521
11 6 16 -0.7453 0.7430
11 6 17 -0.1291 -1.6515
11 6 18 -5.1236 -0.4769
11 7 0 -12.6495 -1.0600
11 7 1 -7.6187 14.3926
11 7 2 4.6276 32.5692
11 7 3 -3.4281 -15.7866
11 7 4 23.5579 -17.5108
11 7 5 -10.9747 9.4563
11 7 6 -26.2248 -6.7669
11 7 7 -5.8910 5.0765
11 7 8 1.3068 8.7637
11 7 9 -6.2911 0.8132
11 7 10 -6.6223 3.0798
11 7 11 3.0831 -7.9470
11 7 12 7.6545 8.3024
11 7 13 -2.4256 -2.5256
11 7 14 -1.8105 -1.8961
11 7 15 -4.2077 2.2356
11 7 16 7.6512 0.7473
11 7 17 4.3303 3.6061
11 7 18 5.2387 -1.0637
11 8 0 -30.3059 2.5493
11 8 1 3.2239 -42.6828
11 8 2 -1.5924 -31.3125
11 8 3 -33.7017 -15.8525
11 8 4 -17.8185 7.4658
11 8 5 3.9658 -12.1934
11 8 6 -18.7158 -1.0237
11 8 7 -11.1759 1.1954
11 8 8 9.1273 -7.9091
11 8 9 18.3684 5.2046
11 8 10 1.6702 -2.0937
11 8 11 -3.7168 -3.0362
11 8 12 -2.5201 1.2947
11 8 13 2.0175 -5.6740
11 8 14 0.3858 -7.0888
11 8 15 -2.9897 3.4982
11 8 16 -0.6556 -3.5567
11 8 17 6.9761 4.2187
11 8 18 0.6078 -2.6909
11 9 0 -2.1690 -0.7753
11 9 1 -48.9181 0.0132
11 9 2 -21.3419 0.3135
11 9 3 1.1231 3.6740
11 9 4 -4.9828 24.9074
11 9 5 7.6588 -5.7583
11 9 6 -35.7714 -21.9220
11 9 7 16.0194 -2.7014
11 9 8 -5.2791 0.5486
11 9 9 1.1103 -8.4375
11 9 10 0.9463 -2.6612
11 9 11 0.5804 -17.9650
11 9 12 13.0202 13.8979
11 9 13 2.9421 -0.4220
11 9 14 2.3465 -8.9013
11 9 15 5.1345 -4.3055
11 9 16 -0.2898 -2.3780
11 9 17 -1.2591 -0.8541
11 10 0 12.1559 -0.6664
11 10 1 -30.3341 -27.8327
11 10 2 10.6806 20.9646
11 10 3 10.5133 -5.9757
11 10 4 -51.4125 -2.5778
11 10 5 -2.6903 -32.7257
11 10 6 -34.5729 7.6690
11 10 7 -14.3888 -10.8487
11 10 8 3.2222 -1.6010
11 10 9 -3.0897 5.0867
11 10 10 -13.2447 -29.5722
11 10 11 7.5949 -7.0495
11 10 12 1.1898 1.0497
11 10 13 5.2228 4.1619
11 10 14 -3.6457 -2.2126
11 10 15 -2.5422 2.8355
11 10 16 2.9104 6.0723
11 11 0 3.2504 0.0699
11 11 2 -17.7964 32.6147
11 11 4 -12.2315 -5.4826
11 11 6 18.1801 11.1249
11 11 8 -18.5856 -5.8925
11 11 10 -35.8645 2.5733
11 11 12 7.3042 4.8867
11 11 14 3.0866 12.7285
12 0 0 -16.6458 5.2031
12 0 1 -11.2594 34.7028
12 0 2 10.8705 -36.9923
12 0 3 10.5543 -28.9587
12 0 4 15.8626 6.8299
12 0 5 8.9644 1.0997
12 0 6 3.8336 -26.9687
12 0 7 -19.1599 -28.1634
12 0 8 1.7290 0.6893
12 0 9 16.9588 12.2896
12 0 10 -14.8815 -9.7043
12 0 11 -0.4780 -7.1957
12 0 12 7.4152 10.3678
12 0 13 -0.0153 2.6991
12 0 14 4.5640 1.5791
12 0 15 2.7016 2.7483
12 0 16 -0.5420 -3.3332
12 1 0 10.7809 -1.8754
12 1 1 38.6061 41.2259
12 1 2 -4.3866 -13.3556
12 1 3 -13.2358 -2.3209
12 1 4 14.7387 -16.4096
12 1 5 -3.5357 6.8310
12 1 6 -8.5875 2.0809
12 1 7 18.9082 2.9663
12 1 8 7.2240 11.4438
12 1 9 1.7011 5.1275
12 1 10 11.0521 3.6559
12 1 11 -6.1689 -10.9921
12 1 12 2.1090 -2.6563
12 1 13 4.7095 1.4207
12 1 14 -0.3889 -3.7879
12 1 15 -1.0472 -6.8576
12 1 16 6.6873 7.1475
12 1 17 8.4035 3.9421
12 2 0 2.3437 -2.4040
12 2 1 24.9009 20.8146
12 2 2 -3.0421 -7.1176
12 2 3 -6.3592 7.7071
12 2 4 -21.1595 12.0461
12 2 5 -16.5560 11.4842
12 2 6 18.7043 4.0054
12 2 7 13.1436 -0.2246
12 2 8 15.1622 -8.0153
12 2 9 -0.7654 -12.4066
12 2 10 -2.3361 4.8497
12 2 11 -2.3896 4.2892
12 2 12 2.5704 1.5275
12 2 13 -0.4565 7.8826
12 2 14 0.7975 -2.7814
12 2 15 5.8293 -2.6194
12 2 16 -3.8642 3.0519
12 2 17 2.6187 -3.6972
12 3 0 -2.5878 2.4579
12 3 1 -13.8511 22.3486
12 3 2 -20.7434 0.7448
12 3 3 -14.9473 -15.9097
12 3 4 20.2084 -5.2240
12 3 5 8.7825 5.3793
12 3 6 2.6861 18.7128
12 3 7 -0.7908 -1.6771
12 3 8 -17.0751 -11.5095
12 3 9 9.9550 11.8582
12 3 10 7.0929 5.8566
12 3 11 3.5535 -3.0105
12 3 12 -5.0158 0.1362
12 3 13 -0.9844 -1.9953
12 3 14 -4.2285 0.2711
12 3 15 -1.8354 1.7411
12 3 16 0.1515 -3.7559
12 3 17 4.0523 2.5214
12 3 18 3.8897 -4.8167
12 4 0 4.7127 -0.9326
12 4 1 17.5005 45.4322
12 4 2 25.2357 -14.6516
12 4 3 -5.1296 -2.1691
12 4 4 -14.4305 2.4502
12 4 5 10.3773 -3.5209
12 4 6 -2.7317 -23.9217
12 4 7 13.3933 37.3282
12 4 8 -11.6745 -38.9591
12 4 9 3.1801 -10.6571
12 4 10 -4.7661 -0.3208
12 4 11 2.7768 8.0475
12 4 12 -6.8771 -9.9139
12 4 13 3.4504 -0.5020
12 4 14 -8.9329 -0.8890
12 4 15 -0.9591 -1.9347
12 4 16 -2.1053 1.9202
12 4 17 -2.1145 -2.7006
12 4 18 2.7266 -4.8953
12 5 0 -9.3481 -1.4556
12 5 1 -4.1831 -7.5103
12 5 2 5.9823 -24.0320
12 5 3 11.6333 -1.9633
12 5 4 -11.6852 10.0017
12 5 5 0.3620 -19.3183
12 5 6 -22.5678 -6.7683
12 5 7 -6.4861 12.7948
12 5 8 7.5786 -8.8878
12 5 9 -6.1737 11.1104
12 5 10 -16.8989 1.0655
12 5 11 -3.7808 -5.7524
12 5 12 -2.7431 -0.3918
12 5 13 -0.6083 -7.9115
12 5 14 -0.6141 -3.6109
12 5 15 5.3607 3.5452
12 5 16 -0.9588 0.3955
12 5 17 1.3936 -1.3577
12 5 18 0.7669 2.6400
12 6 0 -15.3062 3.7157
12 6 1 20.4078 -5.2595
12 6 2 -25.4259 -3.0690
12 6 3 -20.5262 7.3312
12 6 4 16.7258 16.5606
12 6 5 -6.9129 -16.5271
12 6 6 -8.0518 -14.3266
12 6 7 3.5752 1.4364
12 6 8 11.3057 -5.2990
12 6 9 -5.5306 -14.3256
12 6 10 -8.7271 -2.5364
12 6 11 -7.2025 4.4139
12 6 12 -14.0424 -2.4487
12 6 13 -2.0799 -2.8090
12 6 14 6.1190 2.5685
12 6 15 4.3784 2.1625
12 6 16 1.4382 -4.4407
12 6 17 -1.0388 -0.3510
12 6 18 1.1395 1.0538
12 7 0 26.8906 -2.6500
12 7 1 8.6937 -15.9969
12 7 2 -22.5463 -24.4618
12 7 3 14.1426 7.1595
12 7 4 -36.4690 28.6899
12 7 5 13.2956 5.6121
12 7 6 29.3228 12.4228
12 7 7 -19.0441 -34.0795
12 7 8 -27.2400 -48.8224
12 7 9 2.1479 13.3078
12 7 10 -15.5689 6.9021
12 7 11 -2.6119 1.3992
12 7 12 17.1102 11.9340
12 7 13 5.2575 -0.3031
12 7 14 7.2662 -7.6385
12 7 15 7.7107 4.6232
12 7 16 2.3608 -8.5298
12 7 17 -2.3724 -6.1786
12 7 18 -7.2535 4.2869
12 8 0 33.3853 -1.7566
12 8 1 -28.4787 -33.1332
12 8 2 7.8702 -17.7859
12 8 3 28.7998 -18.0338
12 8 4 35.0397 -52.1603
12 8 5 5.3163 -8.9088
12 8 6 -23.6352 4.1235
12 8 7 -26.9781 -56.2147
12 8 8 19.3676 -4.8214
12 8 9 -13.3253 0.0450
12 8 10 8.2841 -2.6581
12 8 11 -0.6488 -19.7434
12 8 12 -0.8440 -2.4870
12 8 13 -0.7770 -1.9628
12 8 14 2.5307 2.8808
12 8 15 -1.6043 3.4112
12 8 16 3.4923 -8.0395
12 8 17 -0.4707 2.2190
12 9 0 -17.8318 2.4534
12 9 1 -0.9794 2.9999
12 9 2 -29.2277 11.1436
12 9 3 66.6650 -9.6013
12 9 4 -0.5514 10.1286
12 9 5 -8.8713 -22.5401
12 9 6 6.5807 -37.5400
12 9 7 21.9195 -11.5364
12 9 8 -20.4609 -2.1960
12 9 9 36.4254 1.3064
12 9 10 -4.7091 -10.0664
12 9 11 2.4347 -17.1694
12 9 12 -2.5634 2.6106
12 9 13 -4.6984 1.3578
12 9 14 2.9960 -0.4995
12 9 15 0.4540 0.4210
12 9 16 -3.5047 -5.1666
12 10 0 -0.0086 -0.2209
12 10 1 -23.6919 -3.7555
12 10 2 -19.0815 -7.4491
12 10 3 1.7024 -9.6532
12 10 4 -11.3184 18.5359
12 10 5 -13.3051 -25.6910
12 10 6 -7.1082 -17.9894
12 10 7 -22.4318 -51.6417
12 10 8 41.5595 -10.9245
12 10 9 -16.7466 8.4739
12 10 10 -2.4303 -12.1678
12 10 11 3.5819 4.6747
12 10 12 5.0591 -2.5061
12 10 13 -0.0385 -10.8566
12 10 14 -1.1948 5.3860
12 10 15 0.1167 10.5401
12 11 0 -29.0777 0.7503
12 11 1 28.9765 8.0391
12 11 2 16.3215 45.4667
12 11 3 3.6931 20.6638
12 11 4 -40.5856 13.9687
12 11 5 13.9074 17.1787
12 11 6 11.5480 18.2770
12 11 7 13.4082 3.8887
12 11 8 -33.5531 30.4435
12 11 9 -4.6325 -14.5845
12 11 10 5.3682 -0.5171
12 11 11 -20.4873 -1.3901
12 11 12 -2.0933 3.7662
12 11 13 -11.2503 10.1105
12 11 14 2.1691 6.6645
12 12 0 40.9751 -5.5235
12 12 2 70.9377 -20.4855
12 12 4 3.9817 -7.5957
12 12 6 7.6789 -30.2684
12 12 8 -0.0252 22.2838
12 12 10 38.5055 8.2149
12 12 12 -1.6358 2.3451
13 0 0 3.1741 -3.6723
13 0 1 60.1536 20.4153
13 0 2 -32.6400 -15.0635
13 0 3 0.1905 -7.8025
13 0 4 -5.1118 33.4583
13 0 5 34.4731 -1.8436
13 0 6 19.0095 17.6930
13 0 7 -8.0150 -14.1186
13 0 8 3.0600 10.3679
13 0 9 -4.0902 3.6498
13 0 10 -5.4175 -10.7472
13 0 11 5.0697 3.6604
13 0 12 -0.5968 1.6948
13 0 13 -3.0160 -13.0606
13 0 14 -1.8134 -2.1877
13 0 15 -2.0592 -5.9586
13 0 16 0.7701 4.8856
13 0 17 -0.0613 -3.4385
13 1 0 -20.9609 5.2483
13 1 1 -7.0378 35.6110
13 1 2 -40.1045 3.4144
13 1 3 19.9665 18.5491
13 1 4 1.9834 2.1494
13 1 5 2.6607 2.7976
13 1 6 -2.5564 14.9322
13 1 7 4.4810 1.2588
13 1 8 14.6268 -5.1132
13 1 9 -2.9211 -5.3162
13 1 10 3.9153 -10.1599
13 1 11 2.6835 4.8640
13 1 12 -0.4485 10.1596
13 1 13 -4.2242 4.0028
13 1 14 -3.7528 0.3339
13 1 15 7.0387 -9.6701
13 1 16 -1.4051 -4.8355
13 1 17 -3.6296 0.7443
13 2 0 4.8594 -1.3929
13 2 1 18.8931 33.3937
13 2 2 15.6375 0.8176
13 2 3 32.1575 -19.7718
13 2 4 19.5028 -12.7667
13 2 5 -1.0621 14.8338
13 2 6 -30.6873 6.0110
13 2 7 -25.1957 -13.4073
13 2 8 -4.1070 15.9072
13 2 9 7.0725 -11.3858
13 2 10 6.0999 -2.8491
13 2 11 0.2553 1.4096
13 2 12 4.2432 5.7386
13 2 13 -2.2840 1.1283
13 2 14 -1.1760 -5.1928
13 2 15 0.3810 -3.9808
13 2 16 -3.4859 -1.4189
13 2 17 1.2905 3.5016
13 2 18 1.2840 1.3583
13 3 0 4.4552 -2.3247
13 3 1 -23.3224 -12.7778
13 3 2 2.1668 7.3591
13 3 3 -0.1226 -16.7592
13 3 4 -11.3666 5.0679
13 3 5 10.9880 17.6604
13 3 6 1.0516 15.3899
13 3 7 -4.1851 -9.6778
13 3 8 -16.8431 0.0751
13 3 9 -4.3937 -1.4734
13 3 10 -3.3654 2.2255
13 3 11 -3.0492 5.1584
13 3 12 -4.9232 -3.8748
13 3 13 -3.0523 -1.3905
13 3 14 0.5331 2.1815
13 3 15 -2.3705 -4.0129
13 3 16 0.3482 -0.8667
13 3 17 -5.1187 -0.4911
13 3 18 0.1288 -3.1547
13 4 0 3.1600 3.3987
13 4 1 7.5594 -6.5089
13 4 2 -7.2732 -5.2053
13 4 3 16.6973 -4.8578
13 4 4 -12.8949 -10.6512
13 4 5 -1.7339 -4.6142
13 4 6 -8.5846 -16.1706
13 4 7 9.4351 3.7308
13 4 8 2.9680 -3.6513
13 4 9 18.1114 6.7137
13 4 10 4.6995 8.8667
13 4 11 -3.3542 5.7504
13 4 12 -7.3189 -2.8374
13 4 13 3.1119 1.2927
13 4 14 2.0379 5.9539
13 4 15 3.9390 -2.2030
13 4 16 -1.8993 -3.6621
13 4 17 0.8721 1.9878
13 4 18 0.2776 -1.8049
13 5 0 18.9360 -1.9948
13 5 1 19.8189 7.5524
13 5 2 -13.0340 -15.0519
13 5 3 15.4022 30.5462
13 5 4 -19.8637 34.3348
13 5 5 9.5182 -10.0442
13 5 6 -6.5829 8.9333
13 5 7 -12.1589 -8.5013
13 5 8 -8.0149 -24.0873
13 5 9 -1.6490 3.1641
13 5 10 3.6956 3.7187
13 5 11 -0.8523 -9.9382
13 5 12 -0.0381 1.5020
13 5 13 -7.6458 9.1148
13 5 14 5.8948 -8.6174
13 5 15 4.4251 3.4805
13 5 16 -1.5882 -2.8577
13 5 17 3.9558 1.1824
13 5 18 -0.5544 -0.1599
13 6 0 6.1029 -2.0435
13 6 1 -33.9816 -68.3798
13 6 2 -17.9282 -64.3404
13 6 3 -13.2144 5.6513
13 6 4 4.5413 3.0612
13 6 5 12.9102 -0.3782
13 6 6 9.6460 6.2310
13 6 7 -30.6550 -7.4047
13 6 8 6.9094 -18.5470
13 6 9 -12.5930 8.0020
13 6 10 1.0996 -1.4434
13 6 11 5.1085 -2.3221
13 6 12 -3.9101 -4.8389
13 6 13 -1.9028 0.6828
13 6 14 -1.8481 -3.3401
13 6 15 -1.8769 -4.9018
13 6 16 -5.5393 -0.2489
13 6 17 -4.1074 -4.4935
13 6 18 8.2631 -2.3670
13 7 0 -16.7864 4.9071
13 7 1 4.2903 5.4649
13 7 2 -50.6059 29.3146
13 7 3 -34.6199 -2.7566
13 7 4 9.0359 21.4449
13 7 5 2.3741 31.4185
13 7 6 13.6776 55.1010
13 7 7 0.4845 -11.2414
13 7 8 9.1366 -3.3775
13 7 9 27.0102 4.3197
13 7 10 -6.2844 -14.2272
13 7 11 -1.3247 -1.6312
13 7 12 -8.1595 3.1987
13 7 13 9.7528 -2.6985
13 7 14 2.9398 1.9630
13 7 15 -7.1101 -1.2750
13 7 16 -1.7926 -5.4205
13 7 17 6.4077 -0.6996
13 8 0 21.2414 -2.6424
13 8 1 25.1009 16.4597
13 8 2 -18.3721 -18.0924
13 8 3 32.8022 -4.0582
13 8 4 30.9871 -33.7114
13 8 5 2.6702 -16.7321
13 8 6 -25.7054 -27.8189
13 8 7 -7.0050 -19.1593
13 8 8 4.3484 6.6760
13 8 9 1.4002 2.5578
13 8 10 19.0595 -22.4724
13 8 11 3.6709 0.5986
13 8 12 -0.4939 -2.8506
13 8 13 -1.5179 5.9272
13 8 14 2.0321 -6.4779
13 8 15 -6.5422 4.8170
13 8 16 3.5822 -3.8714
13 9 0 1.0391 -0.4340
13 9 1 -12.5975 10.9767
13 9 2 -1.8109 48.6219
13 9 3 -2.2413 -11.8443
13 9 4 12.0067 -5.9813
13 9 5 6.9005 34.1065
13 9 6 -19.2796 11.2546
13 9 7 -16.8774 -42.7102
13 9 8 -11.5088 -13.4825
13 9 9 -10.4771 -4.3168
13 9 10 -13.7010 12.5179
13 9 11 9.8538 11.6548
13 9 12 14.7071 4.4993
13 9 13 -0.2727 0.0614
13 9 14 3.0194 -13.7390
13 9 15 -5.6758 -0.3243
13 10 0 23.0139 -0.6389
13 10 1 15.3682 -6.4961
13 10 2 23.4252 -23.2322
13 10 3 31.0068 2.3038
13 10 4 1.9096 -17.4265
13 10 5 0.7875 -38.9035
13 10 6 -2.3338 -23.8430
13 10 7 -22.3894 14.6347
13 10 8 7.2217 5.6648
13 10 9 -16.1692 -19.6970
13 10 10 14.1208 2.1650
13 10 11 -0.9007 13.4636
13 10 12 6.2930 -2.2589
13 10 13 11.7869 2.1006
13 10 14 2.3993 -4.5572
13 11 0 -13.2975 1.0078
13 11 1 -47.3803 -65.0677
13 11 2 -20.5762 21.1960
13 11 3 -14.6274 -10.7805
13 11 4 9.2559 25.6091
13 11 5 5.8401 -41.9702
13 11 6 -4.8256 -13.8485
13 11 7 -27.1065 -53.3082
13 11 8 -22.2361 10.9722
13 11 9 -13.7643 -10.3900
13 11 10 -30.2650 25.8967
13 11 11 -9.9183 1.2585
13 11 12 3.3848 11.9825
13 12 0 -22.2103 2.1158
13 12 1 54.2552 93.2261
13 12 2 -38.9065 20.6503
13 12 3 7.1113 15.1394
13 12 4 -11.5574 11.6798
13 12 5 5.6457 -15.1606
13 12 6 0.1618 13.2539
13 12 7 4.3280 -1.7739
13 12 8 -15.6880 0.1678
13 12 9 5.0461 8.6178
13 12 10 9.3983 12.7585
13 12 11 -14.7642 4.8857
13 13 0 38.2422 -8.3245
13 13 2 59.9432 23.2813
13 13 4 -14.7185 -1.1276
13 13 6 -7.3948 56.9650
13 13 8 22.1818 28.0370
14 0 0 17.9945 -1.9675
14 0 1 43.7557 38.0942
14 0 2 6.7567 3.5534
14 0 3 33.7174 -27.5700
14 0 4 33.4565 -50.9996
14 0 5 -0.5007 -8.5813
14 0 6 -15.4668 -11.8584
14 0 7 3.6036 5.0375
14 0 8 -26.3471 1.0852
14 0 9 10.6168 -1.5940
14 0 10 3.8037 -6.2220
14 0 11 3.4358 3.0838
14 0 12 -10.9939 -5.5502
14 0 13 -8.4118 2.1198
14 0 14 -5.7531 -0.0696
14 0 15 -4.2271 9.8266
14 0 16 -0.6999 -2.4278
14 0 17 5.8610 1.4591
14 1 0 -9.7301 -2.8976
14 1 1 -1.5769 18.3670
14 1 2 -3.7984 -10.7433
14 1 3 -18.8584 -18.3752
14 1 4 -5.8937 -4.6697
14 1 5 9.6270 12.7817
14 1 6 12.5154 24.3395
14 1 7 -6.7818 10.1746
14 1 8 -7.2277 -29.7563
14 1 9 -0.2733 26.6911
14 1 10 -12.3687 5.2442
14 1 11 8.2640 -12.9311
14 1 12 2.7527 0.2484
14 1 13 -10.9875 5.3508
14 1 14 3.3219 -5.8618
14 1 15 5.7272 -1.8940
14 1 16 1.9529 -2.0086
14 1 17 5.4392 -7.2044
14 1 18 -1.9563 -3.5691
14 2 0 -17.3307 3.3230
14 2 1 -7.8653 -4.0722
14 2 2 -8.2487 -9.5776
14 2 3 20.5378 -2.7066
14 2 4 -7.7337 11.1796
14 2 5 2.8603 -15.1957
14 2 6 -15.3683 7.3876
14 2 7 10.2627 13.3264
14 2 8 7.8986 0.0626
14 2 9 8.9983 -3.1384
14 2 10 1.0637 -9.9954
14 2 11 -0.9550 0.1036
14 2 12 -4.1575 -5.9118
14 2 13 0.5671 -2.8648
14 2 14 0.7996 -7.4493
14 2 15 3.8948 -2.5338
14 2 16 -1.0110 2.1436
14 2 17 0.2298 1.2212
14 2 18 -1.6303 1.3484
14 3 0 -9.7786 -1.0329
14 3 1 6.6561 7.4119
14 3 2 12.2158 2.1375
14 3 3 -0.7340 -23.4227
14 3 4 -7.0272 -18.2274
14 3 5 -27.8947 4.4393
14 3 6 -25.0964 -1.0688
14 3 7 9.9006 21.3877
14 3 8 -15.0689 -6.6239
14 3 9 -0.5312 -11.8283
14 3 10 10.6430 8.6671
14 3 11 -0.2227 8.1553
14 3 12 3.4872 -4.0113
14 3 13 6.9086 -7.8381
14 3 14 1.9885 -2.4969
14 3 15 -4.7056 0.1189
14 3 16 7.1096 0.4974
14 3 17 1.3055 2.7589
14 3 18 5.2007 -2.0601
14 4 0 10.4828 -1.7150
14 4 1 -14.1843 -43.4209
14 4 2 5.7866 -27.7825
14 4 3 15.2243 2.6105
14 4 4 16.2640 -57.3095
14 4 5 -11.2511 7.4833
14 4 6 -38.8644 -46.8357
14 4 7 7.5637 5.8478
14 4 8 0.0454 3.1041
14 4 9 2.7925 10.9034
14 4 10 5.1733 -6.8258
14 4 11 1.9675 4.3533
14 4 12 1.2403 2.3964
14 4 13 5.4119 -3.5002
14 4 14 -3.5823 4.0954
14 4 15 5.0809 2.5381
14 4 16 9.9747 7.5771
14 4 17 -1.0527 2.6091
14 4 18 4.1729 -0.2765
14 5 0 2.2689 4.1694
14 5 1 -0.0104 3.9935
14 5 2 -42.3430 1.6488
14 5 3 -38.5730 -28.8119
14 5 4 -0.5546 14.3744
14 5 5 -18.6531 -1.2143
14 5 6 20.3859 -28.9478
14 5 7 -16.3335 -2.7587
14 5 8 -12.7486 -8.4985
14 5 9 0.7680 -6.3320
14 5 10 8.6437 6.9055
14 5 11 0.5344 1.2178
14 5 12 -6.2845 -3.3772
14 5 13 15.3054 -0.9802
14 5 14 5.5895 -0.9752
14 5 15 0.5165 -3.6457
14 5 16 2.7455 -4.9906
14 5 17 1.6383 2.3036
14 5 18 4.5013 -3.1991
14 6 0 7.1369 -2.6567
14 6 1 33.3388 -14.8484
14 6 2 16.0638 29.6936
14 6 3 8.3639 -4.6446
14 6 4 -27.2819 2.8855
14 6 5 -4.6146 61.7889
14 6 6 25.1824 1.8166
14 6 7 2.2373 -7.4081
14 6 8 -1.0194 -12.7197
14 6 9 0.6568 12.1933
14 6 10 -14.6279 17.4503
14 6 11 -4.0699 3.1238
14 6 12 -0.8030 -4.4288
14 6 13 5.0647 -9.1963
14 6 14 -1.9478 5.6934
14 6 15 3.2188 -9.7222
14 6 16 1.9904 4.0856
14 6 17 -7.9279 -4.2059
14 7 0 -77.2781 -1.6020
14 7 1 -34.6165 -86.2656
14 7 2 26.1299 8.1876
14 7 3 -46.8936 65.2388
14 7 4 49.6477 -31.5917
14 7 5 10.7370 27.4864
14 7 6 12.7842 10.0233
14 7 7 -7.6653 3.3055
14 7 8 6.8390 -24.9822
14 7 9 -0.4402 5.9914
14 7 10 5.3118 7.9618
14 7 11 -0.8545 5.0470
14 7 12 -0.2038 4.9396
14 7 13 2.9956 -2.0499
14 7 14 0.7445 0.1550
14 7 15 -2.7381 -0.3795
14 7 16 -1.2425 -3.2377
14 8 0 -33.9959 2.9713
14 8 1 -12.6886 14.3091
14 8 2 12.4835 -9.9869
14 8 3 21.4845 18.0292
14 8 4 -30.1470 -5.5934
14 8 5 -20.1281 17.8939
14 8 6 27.5467 24.0913
14 8 7 -8.8258 -3.8391
14 8 8 14.8845 1.8316
14 8 9 -41.3491 -16.8748
14 8 10 6.4462 -0.5752
14 8 11 -11.9754 0.7928
14 8 12 -0.7882 7.5998
14 8 13 5.1046 2.3567
14 8 14 9.1847 5.6283
14 8 15 -0.2231 3.8985
14 9 0 36.3910 -0.8806
14 9 1 -13.1581 -1.1345
14 9 2 -13.9516 -16.4656
14 9 3 -12.9699 4.2094
14 9 4 -5.9969 -15.7595
14 9 5 -50.7911 37.9944
14 9 6 19.7819 3.4396
14 9 7 21.2036 -1.4258
14 9 8 15.3882 7.5998
14 9 9 9.4724 -2.1375
14 9 10 5.3259 -9.8336
14 9 11 3.6808 9.8709
14 9 12 -15.2256 -12.1524
14 9 13 3.2555 -4.5693
14 9 14 -2.7356 -1.8125
14 10 0 -15.1747 1.4959
14 10 1 42.3223 18.8542
14 10 2 -37.9793 46.0649
14 10 3 -2.0117 36.6923
14 10 4 -0.8628 -10.4029
14 10 5 -5.8249 -9.7118
14 10 6 -8.6223 10.9870
14 10 7 -52.4754 -15.2771
14 10 8 11.0949 -11.4096
14 10 9 0.6567 0.6896
14 10 10 17.4756 2.5458
14 10 11 -8.0707 6.2802
14 10 12 8.1731 0.0445
14 11 0 38.4160 -3.9517
14 11 1 2.3970 -9.5106
14 11 2 70.7180 -25.3737
14 11 3 -11.6486 -7.2220
14 11 4 2.9029 11.5475
14 11 5 6.7212 -8.6173
14 11 6 2.1155 10.8868
14 11 7 -4.0498 -15.8166
14 11 8 -4.2072 4.3907
14 11 9 -9.3344 -6.3080
14 11 10 2.7744 12.4820
14 11 11 5.3811 -2.7855
14 12 0 -27.7091 2.1719
14 12 1 -55.3917 -117.8399
14 12 2 -57.5376 43.8460
14 12 3 -16.5166 10.2672
14 12 4 -1.7666 6.4083
14 12 5 38.6579 -23.0901
14 12 6 -16.9518 4.9584
14 12 7 -31.4255 -19.2524
14 12 8 10.9920 -7.4402
14 12 9 -18.2835 12.9858
14 13 0 -33.4946 2.8817
14 13 1 63.0165 30.4195
14 13 2 -31.1117 2.6892
14 13 3 6.1625 4.0586
14 13 4 -2.5290 7.7641
14 13 5 -13.5936 -15.9690
15 0 0 -12.1169 3.6388
15 0 1 28.3688 38.9677
15 0 2 45.5380 6.0301
15 0 3 9.6298 -3.3904
15 0 4 -22.2570 25.9012
15 0 5 20.4676 -1.3542
15 0 6 -3.3985 -10.2783
15 0 7 -13.3928 5.4803
15 0 8 14.2326 5.5659
15 0 9 18.8183 -2.9435
15 0 10 1.1192 9.1884
15 0 11 9.4897 17.4669
15 0 12 -11.7590 -9.1359
15 0 13 -14.5231 4.5926
15 0 14 7.5789 -4.6678
15 0 15 0.6728 -10.0131
15 0 16 0.6666 3.7428
15 0 17 -0.3437 -3.0121
15 1 0 2.5479 -0.4717
15 1 1 7.1782 20.9949
15 1 2 8.6627 7.4929
15 1 3 -1.9602 4.4880
15 1 4 -1.8269 6.6486
15 1 5 5.3851 -13.9128
15 1 6 -4.5276 2.4547
15 1 7 2.6356 6.7900
15 1 8 -2.5821 5.7047
15 1 9 5.3155 -0.4492
15 1 10 15.9069 -17.9140
15 1 11 -2.0714 -1.2218
15 1 12 -3.9446 -6.0755
15 1 13 -10.1257 2.7432
15 1 14 -3.1686 -5.3334
15 1 15 -0.7073 3.9673
15 1 16 -0.5126 1.1507
15 1 17 7.9086 -2.1683
15 1 18 -3.8851 2.2587
15 2 0 3.9062 -1.0015
15 2 1 7.6912 10.8238
15 2 2 25.9353 9.7845
15 2 3 21.1569 11.7801
15 2 4 -14.1507 -8.6602
15 2 5 3.4441 2.1987
15 2 6 9.8168 -6.9362
15 2 7 33.6484 -7.9287
15 2 8 -11.1565 5.0971
15 2 9 -4.3150 9.3790
15 2 10 -10.1493 1.8319
15 2 11 2.3113 9.7500
15 2 12 0.7669 10.2279
15 2 13 3.8862 5.0142
15 2 14 4.1250 -1.0241
15 2 15 4.5119 2.9676
15 2 16 7.3375 -1.9017
15 2 17 -8.7528 1.9975
15 2 18 0.3092 1.9209
15 3 0 -0.6111 1.1438
15 3 1 -14.3320 -6.2498
15 3 2 -12.9257 3.2257
15 3 3 11.1906 -2.9503
15 3 4 -3.6182 -12.6884
15 3 5 -2.9083 -11.2499
15 3 6 15.7792 9.4913
15 3 7 1.9272 1.0983
15 3 8 -10.8156 1.4186
15 3 9 -8.5378 -1.4274
15 3 10 4.9572 -0.9344
15 3 11 -5.0446 7.3949
15 3 12 2.5966 -2.7593
15 3 13 10.8057 -2.5935
15 3 14 -8.1486 1.1937
15 3 15 -1.1374 4.6574
15 3 16 2.9868 1.7538
15 3 17 -2.1158 1.0052
15 3 18 4.2972 9.0949
15 4 0 18.0171 -1.0763
15 4 1 -7.2115 -1.9616
15 4 2 7.9610 -42.6318
15 4 3 32.9673 19.6905
15 4 4 -11.7846 8.6687
15 4 5 -11.8290 -23.9018
15 4 6 3.1533 -12.2619
15 4 7 0.6855 17.8840
15 4 8 2.5388 13.6664
15 4 9 8.7548 2.4640
15 4 10 -0.0766 -1.4065
15 4 11 6.5507 -5.2708
15 4 12 0.1108 2.2722
15 4 13 -2.7822 5.0955
15 4 14 2.1926 -2.6297
15 4 15 -0.2593 -0.0732
15 4 16 -1.8263 -4.9406
15 4 17 -2.7513 4.9198
15 5 0 -12.5954 -1.3403
15 5 1 3.8273 -52.9433
15 5 2 6.9237 35.0986
15 5 3 -37.6910 -7.4421
15 5 4 43.6601 -27.8931
15 5 5 -14.7635 29.0461
15 5 6 11.6595 12.3123
15 5 7 7.7969 2.5519
15 5 8 -5.5650 8.6037
15 5 9 5.4568 -12.8221
15 5 10 12.1871 9.3233
15 5 11 5.3686 5.3052
15 5 12 -8.2187 -4.6127
15 5 13 -6.3170 -0.8588
15 5 14 -0.8749 3.1207
15 5 15 -1.5927 -0.7322
15 5 16 1.4596 -3.7149
15 5 17 -4.9740 0.8573
15 6 0 -7.0005 3.7201
15 6 1 16.2532 5.1631
15 6 2 -23.4236 3.4856
15 6 3 26.9039 22.0608
15 6 4 -1.4532 16.3353
15 6 5 -30.5518 -28.6685
15 6 6 8.0867 -15.8329
15 6 7 -1.5932 -13.1926
15 6 8 16.8964 -7.1053
15 6 9 -19.7743 -3.0188
15 6 10 2.4578 -2.2563
15 6 11 -6.5494 -3.2363
15 6 12 0.9086 4.8179
15 6 13 -10.2117 5.5776
15 6 14 4.7532 2.6595
15 6 15 -3.4753 0.2870
15 6 16 -0.7828 -0.6685
15 7 0 16.8077 -2.2341
15 7 1 -33.4786 -23.6087
15 7 2 14.2795 21.2105
15 7 3 19.7038 22.6118
15 7 4 23.4118 -40.1044
15 7 5 14.8100 29.7458
15 7 6 29.1232 26.9269
15 7 7 -6.7004 -16.4182
15 7 8 12.5992 3.9761
15 7 9 9.4952 4.3062
15 7 10 -7.5399 -5.4538
15 7 11 -9.7845 9.9498
15 7 12 -1.8031 -5.1018
15 7 13 -1.2229 10.2774
15 7 14 -6.3352 -6.5604
15 7 15 -3.1936 -1.4732
15 8 0 -8.7842 -0.3175
15 8 1 -10.3542 -1.7262
15 8 2 -16.2516 -17.5742
15 8 3 -15.6477 -3.9671
15 8 4 13.8760 -8.5958
15 8 5 9.9788 -3.8102
15 8 6 -2.2728 -42.1787
15 8 7 8.1322 2.8895
15 8 8 10.4310 0.6512
15 8 9 -2.4889 18.4206
15 8 10 20.4223 -24.9354
15 8 11 -4.9480 11.1903
15 8 12 17.3525 1.2956
15 8 13 5.4980 4.2851
15 8 14 5.3436 -1.4003
15 9 0 22.7203 0.0195
15 9 1 -4.0449 -7.7372
15 9 2 12.2543 -57.8319
15 9 3 -10.8855 -37.1005
15 9 4 18.6422 5.9181
15 9 5 9.7882 12.5009
15 9 6 10.8721 -14.2130
15 9 7 -0.6387 -3.8930
15 9 8 -16.3436 -4.9346
15 9 9 -12.5894 -21.3871
15 9 10 -7.6586 -0.1717
15 9 11 0.4820 6.6666
15 9 12 -0.9591 2.4775
15 10 0 -16.0992 0.9769
15 10 1 53.5762 35.2559
15 10 2 18.5243 -2.0603
15 10 3 1.1881 -28.0151
15 10 4 5.3157 0.0405
15 10 5 10.2384 -31.0909
15 10 6 -10.4794 -11.8317
15 10 7 4.9089 12.4964
15 10 8 -3.8672 -4.8444
15 10 9 6.0098 -18.9284
15 10 10 -5.0289 -9.5283
15 11 0 -13.4884 2.1128
15 11 1 56.5950 32.6852
15 11 2 16.6976 -31.0510
15 11 3 13.6090 -19.8509
15 11 4 0.9601 16.5848
15 11 5 8.2655 -19.1079
15 11 6 -10.1026 16.3928
15 11 7 -20.5081 -29.8744
15 11 8 9.7200 -2.0470
15 12 0 49.3407 -4.9772
15 12 1 19.1313 22.7798
15 12 2 31.1860 18.4570
15 12 3 -9.5836 -4.6238
15 12 4 10.5735 -9.9593
15 12 5 -0.8499 -5.5065
16 0 0 26.6258 -0.6127
16 0 1 14.2243 -9.9328
16 0 2 -16.2943 -19.9481
16 0 3 -14.6261 -19.1124
16 0 4 -15.0590 24.6158
16 0 5 -9.6947 -40.1098
16 0 6 3.4309 -41.0668
16 0 7 9.6502 2.9352
16 0 8 29.6484 7.4367
16 0 9 -3.5931 -1.5688
16 0 10 7.6568 -22.0968
16 0 11 29.9679 4.4120
16 0 12 3.8489 -13.8759
16 0 13 -16.8681 7.3419
16 0 14 3.5478 -11.5314
16 0 15 9.2153 3.4738
16 0 16 -3.9058 7.0296
16 0 17 -9.1143 3.9137
16 0 18 1.2202 1.3180
16 1 0 21.9822 -1.0487
16 1 1 0.6968 36.7310
16 1 2 21.0690 -10.5080
16 1 3 -13.1998 -6.8728
16 1 4 -26.8857 -11.5495
16 1 5 -5.2026 -6.8921
16 1 6 8.9511 13.1275
16 1 7 4.6657 -9.6153
16 1 8 -3.4137 5.9467
16 1 9 -14.6034 8.4997
16 1 10 -2.1000 -17.4127
16 1 11 -3.7688 1.5893
16 1 12 8.3654 -16.8347
16 1 13 -1.7794 -0.6170
16 1 14 -5.0884 -6.4554
16 1 15 2.0688 -0.3989
16 1 16 0.9203 4.0868
16 1 17 -3.2909 0.7987
16 1 18 -0.3197 6.7289
16 2 0 -18.4322 0.8361
16 2 1 -35.4355 -29.3094
16 2 2 -9.7863 -2.2864
16 2 3 9.4923 -10.8553
16 2 4 4.6469 -17.2192
16 2 5 2.8442 -18.0282
16 2 6 11.2273 -22.3953
16 2 7 30.9978 -1.0844
16 2 8 -0.0144 -0.2624
16 2 9 -1.1558 28.3245
16 2 10 -12.0801 -15.1304
16 2 11 8.4798 -8.3353
16 2 12 -9.1550 7.1051
16 2 13 -3.7717 6.3544
16 2 14 0.7633 0.9443
16 2 15 -0.6783 3.5390
16 2 16 3.6491 -1.6176
16 2 17 -2.4742 3.3549
16 2 18 -8.1062 1.6209
16 3 0 -20.6430 0.6290
16 3 1 -31.2403 3.5989
16 3 2 2.2684 -29.0123
16 3 3 8.8090 1.1499
16 3 4 26.0026 -7.8066
16 3 5 7.2412 -11.1411
16 3 6 -26.7324 -5.0628
16 3 7 -21.6614 -25.0421
16 3 8 -8.1746 -0.5240
16 3 9 -22.0752 27.4349
16 3 10 8.1586 -5.0910
16 3 11 9.9810 -14.5282
16 3 12 4.6176 -2.7827
16 3 13 12.1628 -7.2941
16 3 14 -1.1413 -4.4836
16 3 15 2.4732 5.8536
16 3 16 -6.0744 3.5723
16 3 17 -2.1604 4.2394
16 4 0 -2.6898 0.5087
16 4 1 13.4840 -33.4077
16 4 2 -15.2463 -10.3150
16 4 3 -46.8936 6.3316
16 4 4 -15.4799 -27.0375
16 4 5 -17.0265 8.8948
16 4 6 3.5239 9.7181
16 4 7 1.2502 -10.2378
16 4 8 2.8901 -2.8579
16 4 9 -21.6208 -22.5777
16 4 10 -5.7369 -10.9455
16 4 11 1.4529 8.5970
16 4 12 0.6022 8.0199
16 4 13 12.9239 -6.8880
16 4 14 -1.3569 -3.7722
16 4 15 -7.4913 -3.0698
16 4 16 10.3283 1.1647
16 5 0 11.0156 -1.5060
16 5 1 20.0699 12.3189
16 5 2 18.6907 30.7168
16 5 3 29.2356 19.8177
16 5 4 -5.0480 -18.6955
16 5 5 -50.3430 -16.7987
16 5 6 11.4664 -13.1170
16 5 7 -14.6726 -14.7319
16 5 8 -10.3224 10.4891
16 5 9 -8.6266 -16.9324
16 5 10 -8.7023 -3.8646
16 5 11 -2.4945 -6.9163
16 5 12 8.8199 3.5195
16 5 13 4.7871 -6.3739
16 5 14 0.6750 2.4987
16 5 15 -1.3793 -0.0957
16 6 0 -16.3886 -0.8016
16 6 1 -26.3072 -71.2214
16 6 2 18.0380 9.1415
16 6 3 -35.1431 51.1838
16 6 4 1.1568 -65.4404
16 6 5 7.9499 13.7262
16 6 6 33.8585 -8.7980
16 6 7 -16.0101 -27.9045
16 6 8 -0.1533 5.9792
16 6 9 -18.9585 24.8213
16 6 10 11.1296 -6.1344
16 6 11 7.5720 10.3955
16 6 12 9.7128 3.7370
16 6 13 -3.5111 0.0386
16 6 14 -2.0908 -0.3047
16 7 0 -19.8576 2.3235
16 7 1 -42.7655 -18.1016
16 7 2 -10.5335 -9.4325
16 7 3 -28.5136 -35.5886
16 7 4 -8.8734 12.7425
16 7 5 11.0771 16.6168
16 7 6 36.0242 -19.3275
16 7 7 -11.8336 1.2366
16 7 8 28.9040 5.9478
16 7 9 5.5367 -4.3072
16 7 10 -2.1312 -3.4895
16 7 11 -0.9386 -2.2274
16 7 12 11.0076 -0.3583
16 7 13 5.2054 -3.3214
16 8 0 -2.5170 -1.0703
16 8 1 -25.5141 -2.3986
16 8 2 17.8239 -36.5243
16 8 3 18.8507 1.2834
16 8 4 28.0680 3.1573
16 8 5 6.1417 11.4450
16 8 6 -16.0856 -14.5696
16 8 7 -7.9124 -1.0581
16 8 8 3.8692 12.0441
16 8 9 -5.7451 14.8782
16 8 10 5.8132 10.9903
16 8 11 5.0854 4.2253
16 8 12 1.3674 2.0780
16 9 0 -12.1482 0.3194
16 9 1 5.6801 5.6299
16 9 2 33.8229 -29.7612
16 9 3 18.6575 -20.7540
16 9 4 8.8175 35.1549
16 9 5 -3.1238 -12.1062
16 9 6 -8.6246 -2.4584
16 9 7 -5.1489 12.8477
16 9 8 2.0713 13.3465
16 9 9 6.5313 -9.8856
16 9 10 -3.5195 -0.5985
16 10 0 32.3736 -1.5915
16 10 1 29.2050 7.9893
16 10 2 22.6974 -17.8367
16 10 3 1.4109 50.1691
16 10 4 -16.5611 14.4342
16 10 5 8.3766 5.4658
16 10 6 4.8139 19.2678
16 10 7 4.0678 -17.0865
16 10 8 -21.5238 -8.1127
16 11 0 -12.9002 1.4918
16 11 1 47.7052 10.5483
16 11 2 14.8720 26.3474
16 11 3 0.9351 19.7182
16 11 4 17.3739 4.8650
16 11 5 7.1522 8.5172
17 0 0 -13.1330 1.7964
17 0 1 -31.8747 2.8033
17 0 2 30.2340 25.1343
17 0 3 -16.7644 4.6009
17 0 4 -20.6479 6.5877
17 0 5 50.8429 22.3361
17 0 6 64.7209 -37.8361
17 0 7 22.0441 21.0074
17 0 8 -3.6349 21.6900
17 0 9 12.5308 -6.2124
17 0 10 -17.9395 -6.1708
17 0 11 -14.1073 10.6629
17 0 12 5.2627 6.3753
17 0 13 -6.0742 9.9308
17 0 14 3.2612 3.2921
17 0 15 3.3987 2.8596
17 0 16 -0.6911 0.3243
17 0 17 7.5025 12.3800
17 1 0 -14.8734 2.0133
17 1 1 44.5693 47.3732
17 1 2 -3.3947 3.7945
17 1 3 -27.9139 -31.1559
17 1 4 3.7818 -12.8184
17 1 5 -26.4536 9.0969
17 1 6 36.2914 -4.4361
17 1 7 -33.4457 -22.9499
17 1 8 -11.1818 -7.5153
17 1 9 3.6071 -5.1844
17 1 10 -4.8850 -0.7696
17 1 11 2.6479 -7.8540
17 1 12 2.9134 5.5231
17 1 13 -1.3717 -1.8345
17 1 14 -2.1176 -0.7826
17 1 15 1.1563 0.6173
17 1 16 -7.5580 0.3037
17 1 17 3.8293 0.7885
17 2 0 27.1627 -4.0885
17 2 1 11.6429 -3.4625
17 2 2 43.4307 -18.9475
17 2 3 13.3573 12.9081
17 2 4 10.0235 -13.8353
17 2 5 2.4113 24.2852
17 2 6 -6.6885 24.9323
17 2 7 -7.8942 8.2381
17 2 8 -4.5120 7.8244
17 2 9 1.3484 2.4395
17 2 10 -2.1516 6.1343
17 2 11 2.3357 10.1980
17 2 12 -3.0194 -1.5768
17 2 13 1.7133 17.5519
17 2 14 -2.8306 -1.8131
17 2 15 2.6142 -0.0320
17 2 16 0.3515 -0.8738
17 2 17 -1.3979 4.7393
17 3 0 -3.7360 0.9846
17 3 1 -14.8509 -58.3282
17 3 2 -7.3398 -6.9259
17 3 3 -36.2386 36.0071
17 3 4 8.8659 -21.6287
17 3 5 16.6528 -10.9457
17 3 6 13.6672 51.8968
17 3 7 -18.1102 -19.6278
17 3 8 2.3030 0.1816
17 3 9 -3.9477 4.6641
17 3 10 -5.4466 -5.5133
17 3 11 -20.9242 -1.9405
17 3 12 6.5785 -0.4558
17 3 13 11.2228 5.5712
17 3 14 -4.1014 3.9938
17 3 15 -4.7405 4.7221
17 3 16 1.4834 1.4386
17 4 0 -13.1384 0.8133
17 4 1 -12.7617 31.6766
17 4 2 -9.6985 60.2689
17 4 3 14.2102 -0.9147
17 4 4 -39.8911 -0.9590
17 4 5 -9.5951 -2.9229
17 4 6 32.5285 3.9903
17 4 7 2.4006 17.9226
17 4 8 5.3431 -4.6261
17 4 9 -5.1876 12.3401
17 4 10 -13.4673 12.3026
17 4 11 0.2447 -2.1302
17 4 12 2.6732 -3.4255
17 4 13 -7.9074 4.7115
17 4 14 -2.1534 0.8596
17 4 15 1.3192 0.8921
17 5 0 9.6472 1.1997
17 5 1 1.8003 -24.5648
17 5 2 -25.8241 18.6264
17 5 3 -8.3872 -37.3143
17 5 4 -6.4115 -9.4956
17 5 5 -14.0567 -1.2409
17 5 6 14.2643 12.0800
17 5 7 4.8745 1.7270
17 5 8 17.3240 0.0805
17 5 9 10.8804 -7.4406
17 5 10 -6.8280 -12.6680
17 5 11 2.8478 10.2091
17 5 12 3.7813 1.3057
17 5 13 -0.5347 5.6685
17 5 14 0.4783 5.8796
17 6 0 9.5280 -1.5217
17 6 1 26.2205 11.3463
17 6 2 12.6965 -13.5756
17 6 3 13.1547 -10.9933
17 6 4 12.9834 -44.5201
17 6 5 22.9601 11.9364
17 6 6 -34.2063 -24.1139
17 6 7 -0.7338 1.6389
17 6 8 -17.1521 4.1065
17 6 9 3.0599 -4.8506
17 6 10 23.5014 13.5847
17 6 11 0.8535 1.3862
17 6 12 6.2117 -5.3517
17 6 13 -6.2549 5.6980
17 7 0 -1.5594 -0.9306
17 7 1 -20.9036 -68.4249
17 7 2 1.6942 -54.7252
17 7 3 10.0209 -56.7358
17 7 4 40.0705 -19.3304
17 7 5 49.4277 -16.5411
17 7 6 15.0652 -0.0971
17 7 7 17.8215 -40.2894
17 7 8 12.2010 -10.7599
17 7 9 -10.2907 6.4509
17 7 10 -5.7327 -8.9773
17 7 11 10.8801 7.9684
17 8 0 -6.5988 1.2166
17 8 1 -10.0934 -7.1759
17 8 2 -27.7592 8.8460
17 8 3 35.4135 4.8366
17 8 4 -20.5708 23.6825
17 8 5 7.9393 -22.3679
17 8 6 27.7532 -7.6174
17 8 7 0.3552 -21.8563
17 8 8 3.0802 -5.6935
17 8 9 8.4677 19.1441
17 8 10 12.1776 1.8761
17 9 0 -4.3117 0.0881
17 9 1 -23.7411 -13.2458
17 9 2 7.8753 -24.9613
17 9 3 9.4456 -38.4527
17 9 4 12.3015 16.2589
17 9 5 -15.7325 -18.2455
17 9 6 12.8988 1.8494
17 9 7 -0.1114 -0.3375
17 10 0 7.8695 -0.0073
17 10 1 -12.1853 27.3344
17 10 2 26.7151 27.7214
17 10 3 -14.9887 -13.4791
17 10 4 -17.0270 6.8534
18 0 0 29.5918 -6.0181
18 0 1 29.5132 -25.9662
18 0 2 77.8505 -18.2900
18 0 3 -9.9394 3.1781
18 0 4 -30.8543 -13.2124
18 0 5 -61.5022 -7.5642
18 0 6 9.7322 30.1435
18 0 7 12.5227 -27.7742
18 0 8 -40.9222 6.9333
18 0 9 23.2566 -19.5370
18 0 10 -4.7131 -11.2625
18 0 11 4.8134 -20.9312
18 0 12 -3.9218 -5.1637
18 0 13 -7.9019 -11.9955
18 0 14 0.7925 2.3358
18 0 15 2.0331 7.6073
18 0 16 -0.7910 3.7750
18 0 17 4.4338 4.9046
18 1 0 -14.0041 3.2898
18 1 1 -62.2043 -86.4367
18 1 2 -25.4211 2.9791
18 1 3 32.9909 16.0644
18 1 4 18.7325 -17.0569
18 1 5 -26.8448 9.2726
18 1 6 -8.4922 11.4093
18 1 7 -20.5696 -2.4606
18 1 8 25.9594 -3.7760
18 1 9 -7.0217 2.6792
18 1 10 -8.4113 -9.3386
18 1 11 -6.6175 6.6654
18 1 12 6.1102 0.9422
18 1 13 -1.0232 -15.6350
18 1 14 3.5922 1.8297
18 1 15 1.7190 -1.6369
18 1 16 -3.7750 -0.8398
18 2 0 -20.8728 2.9862
18 2 1 49.4106 43.5586
18 2 2 -55.7528 23.8112
18 2 3 -12.6787 -36.0126
18 2 4 6.7779 1.4205
18 2 5 -23.9424 -0.8714
18 2 6 0.6832 1.4881
18 2 7 0.5066 -7.4847
18 2 8 19.3428 -1.9133
18 2 9 2.5113 -27.7404
18 2 10 1.6423 0.7069
18 2 11 -19.3442 -3.5924
18 2 12 -5.9943 3.4728
18 2 13 6.6023 2.3187
18 2 14 6.6754 4.6323
18 2 15 1.3716 4.8320
18 3 0 40.7657 -3.6078
18 3 1 -35.7791 -0.4606
18 3 2 45.3831 -3.0316
18 3 3 23.0569 -16.8114
18 3 4 -15.3804 -10.0744
18 3 5 20.0419 6.9715
18 3 6 14.0437 -25.3173
18 3 7 -10.3622 10.8436
18 3 8 -36.3344 6.6752
18 3 9 -15.4963 2.1887
18 3 10 -2.2371 1.3342
18 3 11 10.6788 -4.6516
18 3 12 -11.4679 -6.6087
18 3 13 4.4800 8.1637
18 3 14 4.5865 6.8037
18 4 0 -2.4148 0.0972
18 4 1 0.9212 4.7502
18 4 2 -6.5231 12.8818
18 4 3 -26.3073 4.2087
18 4 4 -15.2534 -0.6841
18 4 5 2.7271 13.8917
18 4 6 -7.9404 -16.2394
18 4 7 12.9368 3.9469
18 4 8 -22.1103 -6.1381
18 4 9 -2.8400 15.3344
18 4 10 -7.3149 -0.2952
18 4 11 -4.1209 -5.1828
18 4 12 -3.9776 -7.3797
18 4 13 -0.7782 0.4123
18 5 0 11.8464 -0.0242
18 5 1 42.4706 10.9369
18 5 2 17.8586 -40.9309
18 5 3 56.6766 -4.3173
18 5 4 -9.2028 28.4502
18 5 5 -5.3997 17.9510
18 5 6 0.4080 29.1028
18 5 7 7.6900 1.1650
18 5 8 9.4292 -5.9509
18 5 9 11.7280 -17.2472
18 5 10 -2.0455 1.6789
18 5 11 3.8839 -3.3556
18 5 12 -4.9409 3.5653
18 6 0 -26.9905 2.2352
18 6 1 25.9305 68.7812
18 6 2 -17.8028 -17.2283
18 6 3 21.3460 7.6389
18 6 4 -19.2573 1.0688
18 6 5 13.9810 -9.5730
18 6 6 48.0479 1.5017
18 6 7 22.2462 -22.2826
18 6 8 -13.0290 -9.6604
18 6 9 4.4778 -4.1473
18 6 10 -1.9678 -3.7501
18 6 11 6.6133 1.2266
18 7 0 11.9040 -0.9984
18 7 1 35.5326 35.9108
18 7 2 11.5325 -5.1422
18 7 3 48.0447 -49.5307
18 7 4 -24.3491 34.0443
18 7 5 -13.1882 -16.4300
18 7 6 26.6580 5.5232
18 7 7 -4.2303 -13.9059
18 7 8 2.0716 3.0308
18 7 9 11.3396 0.9906
18 8 0 11.5612 -1.4439
18 8 1 -22.9572 -0.4823
18 8 2 -19.8646 -4.3660
18 8 3 -24.7061 -19.8574
18 8 4 -37.2365 8.4839
18 8 5 38.9828 18.5620
18 8 6 30.3431 19.2238
18 8 7 -5.7685 -1.8017
18 9 0 -18.8585 1.6601
18 9 1 -17.5883 -1.8404
18 9 2 -6.8693 -7.2734
18 9 3 26.3209 -9.6265
19 0 0 -18.3146 3.8909
19 0 1 93.0417 88.7806
19 0 2 -54.0707 43.3037
19 0 3 20.3892 17.4820
19 0 4 12.0905 -27.1696
19 0 5 -59.0375 2.6298
19 0 6 -2.1306 19.4507
19 0 7 -19.5095 -37.1714
19 0 8 38.7666 19.6516
19 0 9 3.3862 -3.1832
19 0 10 -0.7984 29.1850
19 0 11 -10.0951 12.6983
19 0 12 11.5773 11.8640
19 0 13 1.0720 4.3199
19 0 14 -4.2241 -5.5827
19 0 15 2.2437 -8.6201
19 1 0 49.3637 -7.4832
19 1 1 3.3602 1.3218
19 1 2 105.7610 -21.9127
19 1 3 3.5324 0.9562
19 1 4 -17.8092 -12.2578
19 1 5 16.3015 11.2707
19 1 6 -49.8849 66.1027
19 1 7 -11.1307 5.0522
19 1 8 37.0685 4.2685
19 1 9 3.3554 -1.0169
19 1 10 -17.5235 -13.7042
19 1 11 -10.8414 0.5596
19 1 12 6.6874 -12.9388
19 1 13 7.7245 0.8285
19 1 14 -8.7040 -1.5870
19 1 15 -2.2674 -1.1120
19 2 0 -27.8272 2.7611
19 2 1 -82.7301 -64.5025
19 2 2 -39.6660 11.9046
19 2 3 7.6420 -37.5445
19 2 4 36.0389 8.4617
19 2 5 19.6620 7.8895
19 2 6 39.2496 -26.8427
19 2 7 -11.1046 7.1388
19 2 8 -30.1989 3.6542
19 2 9 -16.2805 29.6393
19 2 10 0.6797 25.0768
19 2 11 -11.4273 -1.4238
19 2 12 6.3162 -3.8340
19 2 13 -6.3326 1.2478
19 2 14 5.5351 0.2000
19 3 0 -20.1276 1.9274
19 3 1 47.5156 32.7982
19 3 2 -21.5035 41.5505
19 3 3 -23.3864 -19.7045
19 3 4 2.5991 11.6495
19 3 5 27.4518 32.0400
19 3 6 -15.7121 11.8877
19 3 7 12.3330 2.7571
19 3 8 -21.8812 4.0480
19 3 9 -11.5090 19.0793
19 3 10 -13.5914 -0.0538
19 3 11 3.8303 -0.7750
19 3 12 -6.0591 10.1575
19 3 13 3.7883 -2.0768
19 4 0 13.3924 -0.6233
19 4 1 26.8389 29.1117
19 4 2 -15.9005 10.6895
19 4 3 39.6710 24.5317
19 4 4 -6.1065 11.7974
19 4 5 3.2463 41.9942
19 4 6 9.7664 6.3936
19 4 7 15.2091 -8.4002
19 4 8 -5.9180 4.9819
19 4 9 -0.1919 9.6852
19 4 10 -5.2113 -3.9091
19 4 11 -5.0924 -5.3240
19 4 12 -3.6555 -1.7070
19 5 0 -1.2157 -0.7738
19 5 1 11.4270 18.7430
19 5 2 -38.9670 44.0336
19 5 3 14.6983 -0.1066
19 5 4 -18.0516 33.0444
19 5 5 -1.0420 12.9400
19 5 6 10.5494 20.0609
19 5 7 16.2489 16.4614
19 5 8 -1.7447 -2.8086
19 5 9 9.8613 -8.2402
19 5 10 0.8074 0.8986
19 6 0 28.0781 -1.4853
19 6 1 51.4987 11.4071
19 6 2 -26.4595 -21.9556
19 6 3 -20.8146 -44.8570
19 6 4 -31.2384 6.1090
19 6 5 6.2427 36.7238
19 6 6 20.0259 14.2346
19 6 7 9.2236 22.6762
19 6 8 7.2402 -0.6353
19 7 0 -24.4419 3.2098
19 7 1 -12.5217 -1.6937
19 7 2 -17.1591 -22.1053
19 7 3 -23.5147 -32.1502
19 7 4 4.2862 -1.1582
19 7 5 26.7685 -15.7368
19 7 6 4.4112 -29.9600
19 8 0 2.4594 -1.0830
20 0 0 -22.8061 4.1616
20 0 1 -90.2997 -120.1310
20 0 2 12.7903 -19.7360
20 0 3 -12.4006 -25.8771
20 0 4 -4.3216 -37.6826
20 0 5 27.3428 -19.9847
20 0 6 -12.9731 36.6175
20 0 7 -11.8956 -8.2558
20 0 8 27.0133 -9.2546
20 0 9 15.1498 -13.0138
20 0 10 1.8509 10.9087
20 0 11 -25.1645 -10.4767
20 0 12 -1.9812 -0.9150
20 0 13 -6.9651 6.0107
20 0 14 2.4388 1.1264
20 1 0 -28.9326 3.4703
20 1 1 84.3567 82.1990
20 1 2 -11.8610 -20.5906
20 1 3 1.3429 33.1730
20 1 4 5.4738 0.2716
20 1 5 0.9708 -20.9761
20 1 6 -6.3878 18.7188
20 1 7 14.1551 -9.5076
20 1 8 -26.0768 1.1244
20 1 9 2.5554 1.0842
20 1 10 -17.6673 -11.2973
20 1 11 7.1550 0.3534
20 1 12 -1.6568 10.1663
20 1 13 7.1411 -10.5573
20 2 0 38.4502 -4.7450
20 2 1 5.0893 -1.8214
20 2 2 85.2174 -38.1834
20 2 3 6.9487 13.1985
20 2 4 -9.5568 -12.1191
20 2 5 6.5075 0.5539
20 2 6 12.1385 -0.6434
20 2 7 0.6776 -11.9456
20 2 8 -13.0551 5.1097
20 2 9 5.2595 11.7807
20 2 10 0.5941 0.5049
20 2 11 -8.2992 -6.0661
20 2 12 -7.4525 -12.8262
20 3 0 -17.6736 0.9712
20 3 1 -32.7327 -33.5380
20 3 2 -12.8766 46.9438
20 3 3 8.5577 -27.6968
20 3 4 20.9761 -0.8862
20 3 5 -8.7874 9.7990
20 3 6 -8.4000 -19.5209
20 3 7 -13.3999 0.5177
20 3 8 -14.1960 30.9395
20 3 9 -2.6536 13.3830
20 3 10 -0.5742 0.9441
20 3 11 2.7176 4.2226
20 4 0 -3.6672 -0.3100
20 4 1 -19.3813 -3.0779
20 4 2 -7.5347 7.1782
20 4 3 -1.8613 13.1897
20 4 4 -21.5388 27.7599
20 4 5 12.0954 32.9875
20 4 6 -9.6230 -18.8797
20 4 7 -4.9386 3.1729
20 4 8 -1.5572 3.1325
20 4 9 -6.7249 -2.4114
20 5 0 -17.0770 2.3756
20 5 1 20.9464 -14.1576
20 5 2 6.2914 -14.5173
20 5 3 -47.0022 -20.9448
20 5 4 -2.8413 1.5184
20 5 5 26.3322 9.6473
20 5 6 -11.7037 11.3008
20 5 7 -27.6235 3.2880
20 6 0 16.9572 -1.5813
20 6 1 26.6354 30.3922
20 6 2 14.6029 -31.2608
20 6 3 -10.1914 13.7000
20 6 4 -4.4486 24.5476
20 6 5 -5.8354 -11.6008
21 0 0 54.8693 -6.9502
21 0 1 8.9165 6.4704
21 0 2 142.2856 -65.1500
21 0 3 2.5596 7.1429
21 0 4 13.8442 -4.0685
21 0 5 17.9037 -6.3192
21 0 6 17.9250 0.0428
21 0 7 -21.6291 -6.7890
21 0 8 -25.0914 7.0175
21 0 9 -4.3500 8.6271
21 0 10 11.1079 21.0564
21 0 11 0.5546 10.4175
21 0 12 4.6680 -4.9566
21 1 0 -13.8597 2.7665
21 1 1 -57.9892 -52.0071
21 1 2 -37.5239 -8.4015
21 1 3 -10.7594 -10.5801
21 1 4 5.5380 6.5387
21 1 5 24.5217 -0.4794
21 1 6 50.5462 -5.8712
21 1 7 -6.3317 11.8919
21 1 8 -15.4232 -4.5323
21 1 9 2.7087 -18.6721
21 1 10 -6.3089 -9.9543
21 1 11 7.2016 5.4993
21 2 0 -14.9484 1.3285
21 2 1 43.1849 56.6592
21 2 2 -17.0759 37.7633
21 2 3 -3.8765 -31.4981
21 2 4 5.0360 -0.6770
21 2 5 9.6639 -16.5297
21 2 6 15.6041 -26.7146
21 2 7 -18.9734 -17.1464
21 2 8 12.6721 0.2531
21 2 9 -22.2322 12.8421
21 2 10 -7.3576 4.3304
21 3 0 8.3537 -0.5147
21 3 1 -9.5586 -9.1874
21 3 2 -5.2684 5.8442
21 3 3 19.0615 0.5912
21 3 4 -0.7010 1.0649
21 3 5 -0.7379 34.1254
21 3 6 -12.8612 -1.5314
21 3 7 -3.9059 10.1335
21 3 8 -1.6189 -14.9321
21 4 0 -9.2149 -0.9589
21 4 1 14.3176 -8.3986
21 4 2 17.1846 3.0976
21 4 3 -4.4548 4.6889
21 4 4 27.3811 -23.3923
21 4 5 1.2349 -10.0063
21 4 6 -14.2733 12.4260
21 5 0 11.6891 -1.6363
21 5 1 18.0178 9.8105
21 5 2 -23.7544 1.0893
22 0 0 -17.4526 2.1132
22 0 1 45.1631 70.8414
22 0 2 -21.3068 -0.6105
22 0 3 -25.8068 -46.7260
22 0 4 -12.9127 14.7729
22 0 5 -21.9599 10.6164
22 0 6 23.8227 -33.9682
22 0 7 3.0966 -12.3003
22 0 8 5.3539 20.3949
22 0 9 -3.2816 1.4206
22 0 10 -4.8128 3.0589
22 1 0 20.3911 -2.7947
22 1 1 -8.1848 -8.6221
22 1 2 41.7067 -23.7457
22 1 3 -5.1760 -12.7678
22 1 4 6.4636 3.8105
22 1 5 16.0520 14.3671
22 1 6 15.8376 -22.9284
22 1 7 -11.6345 4.2054
22 1 8 -0.5016 -2.0967
22 1 9 13.0255 6.5222
22 2 0 -6.2293 0.4480
22 2 1 -8.7985 -7.5201
22 2 2 1.8202 -9.5245
22 2 3 -6.4797 -8.8582
22 2 4 14.8731 9.7689
22 2 5 -0.3891 -7.2837
22 2 6 17.0030 -8.5220
22 2 7 14.3895 -13.7260
22 3 0 11.6626 -0.7597
22 3 1 18.2854 -19.4513
22 3 2 13.1219 8.1754
22 3 3 -5.6199 -11.6169
22 3 4 -4.2936 8.5570
23 0 0 -13.4724 1.1736
23 0 1 -18.9307 -32.2867
23 0 2 -12.2008 4.3432
23 0 3 -3.1424 10.6536
23 0 4 29.1587 -7.6819
23 0 5 6.2314 -22.6254
23 0 6 17.3283 -16.0475
23 0 7 5.0977 -34.1201
23 1 0 3.9229 0.0921
23 1 1 6.6839 11.9579
23 1 2 -5.6442 15.0344
23 1 3 4.8884 8.6372
23 1 4 4.9945 -1.9763
23 1 5 2.4446 0.1013
24 0 0 -7.2085 0.4877
24 0 1 12.4978 13.9306
0 0 0 0.0 0.0
;
_olex2_submission_special_instructions 'No special instructions were received'
_oxdiff_exptl_absorpt_empirical_details
;
Empirical correction (ABSPACK) includes:
- Absorption correction using spherical harmonics
- Frame scaling
- Detector area scaling
;
_oxdiff_exptl_absorpt_empirical_full_max 1.242
_oxdiff_exptl_absorpt_empirical_full_min 0.845
loop_
_space_group_symop_operation_xyz
'x, y, z'
'-y, x-y, z'
'-x+y, -x, z'
'-x, -y, z+1/2'
'y, -x+y, z+1/2'
'x-y, x, z+1/2'
'-y, -x, z'
'-x+y, y, z'
'x, x-y, z'
'y, x, z+1/2'
'x-y, -y, z+1/2'
'-x, -x+y, z+1/2'
loop_
_atom_site_label
_atom_site_type_symbol
_atom_site_fract_x
_atom_site_fract_y
_atom_site_fract_z
_atom_site_U_iso_or_equiv
_atom_site_adp_type
_atom_site_occupancy
_atom_site_site_symmetry_order
_atom_site_calc_flag
_atom_site_refinement_flags_posn
_atom_site_refinement_flags_adp
_atom_site_refinement_flags_occupancy
Zr1 Zr 0.38325(2) 0.61675(2) 0.65686(5) 0.0351(3) Uani 1 2 d S T P
Zr2 Zr 0.28270(2) 0.56541(4) 0.52673(6) 0.0371(3) Uani 1 2 d S T P
O6 O 0.2793(2) 0.5587(4) 0.6291(5) 0.0379(15) Uani 1 2 d S TU P
O7 O 0.3759(2) 0.6241(2) 0.5619(5) 0.0379(15) Uani 1 2 d S T P
O1 O 0.3014(3) 0.4838(3) 0.5500(4) 0.0377(15) Uani 1 1 d . . .
O008 O 0.5565(3) 0.3266(3) 0.2372(4) 0.0415(16) Uani 1 1 d . . .
O4 O 0.3333 0.6667 0.4801(7) 0.030(3) Uani 1 6 d S TU P
O3 O 0.2165(5) 0.5475(5) 0.4445(5) 0.076(3) Uani 1 1 d . . .
N1 N 0.3732(5) 0.2336(5) 0.5105(6) 0.065(3) Uani 1 1 d . . .
C2 C 0.3228(4) 0.4063(4) 0.5980(5) 0.038(2) Uani 1 1 d . U .
C1 C 0.3339(6) 0.4774(5) 0.5923(7) 0.052(2) Uani 1 1 d . U .
C15 C 0.5015(7) 0.2507(4) 0.3164(8) 0.049(4) Uani 1 2 d S T P
C16 C 0.5378(7) 0.2689(3) 0.2560(7) 0.038(3) Uani 1 2 d S T P
C3 C 0.3423(7) 0.3868(6) 0.6494(8) 0.068(3) Uani 1 1 d . . .
H3 H 0.3601 0.4170 0.6815 0.081 Uiso 1 1 calc R . .
C5 C 0.3137(5) 0.2828(5) 0.6059(7) 0.053(3) Uani 1 1 d . . .
C7 C 0.2953(7) 0.3588(6) 0.5512(7) 0.063(3) Uani 1 1 d . . .
H7 H 0.2777 0.3676 0.5166 0.075 Uiso 1 1 calc R . .
C11 C 0.3952(7) 0.1976(4) 0.4812(9) 0.053(4) Uani 1 2 d S T P
C10 C 0.3404(7) 0.2008(7) 0.5631(8) 0.073(4) Uani 1 1 d . . .
C6 C 0.2942(7) 0.3011(7) 0.5558(8) 0.071(4) Uani 1 1 d . . .
H6 H 0.2791 0.2723 0.5225 0.085 Uiso 1 1 calc R . .
C14 C 0.4827(8) 0.2922(8) 0.3412(8) 0.081(4) Uani 1 1 d . U .
H14 H 0.4935 0.3318 0.3217 0.098 Uiso 1 1 calc R . .
C4 C 0.3375(6) 0.3251(6) 0.6573(9) 0.073(4) Uani 1 1 d . . .
H4 H 0.3492 0.3128 0.6937 0.088 Uiso 1 1 calc R . .
C12 C 0.4281(9) 0.2141(4) 0.4216(10) 0.070(5) Uani 1 2 d S T P
C8 C 0.3128(7) 0.2188(7) 0.6091(7) 0.061(3) Uani 1 1 d . U .
C13 C 0.4471(8) 0.2752(8) 0.3961(8) 0.079(4) Uani 1 1 d . U .
H13 H 0.4364 0.3044 0.4151 0.095 Uiso 1 1 calc R . .
C9 C 0.2857(6) 0.1741(6) 0.6610(8) 0.068(4) Uani 1 1 d . . .
H9 H 0.2683 0.1854 0.6943 0.082 Uiso 1 1 calc R . .
O2 O 0.3333 0.6667 0.6792(10) 0.060(5) Uani 1 6 d S TU P
O5 O 0.3682(3) 0.5185(3) 0.6324(4) 0.0443(17) Uani 1 1 d . U .
loop_
_atom_site_aniso_label
_atom_site_aniso_U_11
_atom_site_aniso_U_22
_atom_site_aniso_U_33
_atom_site_aniso_U_23
_atom_site_aniso_U_13
_atom_site_aniso_U_12
Zr1 0.0177(4) 0.0177(4) 0.0698(8) 0.0003(2) -0.0003(2) 0.0087(4)
Zr2 0.0193(4) 0.0187(5) 0.0732(8) -0.0002(5) -0.0001(2) 0.0093(3)
O6 0.019(2) 0.022(3) 0.075(4) -0.002(3) -0.0010(17) 0.0109(16)
O7 0.019(2) 0.022(3) 0.075(4) -0.002(3) -0.0010(17) 0.0109(16)
O1 0.020(3) 0.017(3) 0.077(5) 0.000(3) 0.002(3) 0.011(2)
O008 0.031(3) 0.023(3) 0.073(5) 0.003(3) 0.003(3) 0.016(2)
O4 0.021(4) 0.021(4) 0.050(8) 0.000 0.000 0.0103(19)
O3 0.048(5) 0.067(6) 0.102(8) 0.000(5) -0.006(5) 0.021(5)
N1 0.045(5) 0.046(6) 0.105(9) 0.001(5) -0.002(5) 0.024(5)
C2 0.027(4) 0.015(4) 0.070(6) -0.002(4) 0.001(4) 0.009(3)
C1 0.039(5) 0.039(5) 0.078(6) -0.004(5) -0.002(5) 0.019(4)
C15 0.036(7) 0.041(6) 0.068(10) 0.002(3) 0.003(7) 0.018(4)
C16 0.035(7) 0.016(4) 0.071(9) 0.001(3) 0.002(6) 0.018(3)
C3 0.064(8) 0.049(7) 0.098(10) 0.008(7) 0.014(8) 0.035(6)
C5 0.034(5) 0.030(5) 0.099(9) 0.001(5) 0.005(5) 0.018(4)
C7 0.061(7) 0.042(6) 0.094(9) -0.001(6) -0.006(7) 0.032(6)
C11 0.027(7) 0.041(6) 0.087(12) -0.001(3) -0.002(7) 0.014(3)
C10 0.057(8) 0.069(8) 0.100(11) 0.012(8) 0.010(8) 0.036(7)
C6 0.061(8) 0.046(7) 0.109(11) 0.000(7) -0.007(7) 0.029(6)
C14 0.074(8) 0.080(8) 0.098(9) 0.010(7) 0.003(7) 0.045(7)
C4 0.050(7) 0.052(7) 0.122(12) 0.009(8) 0.006(8) 0.029(6)
C12 0.038(9) 0.074(10) 0.085(14) 0.001(4) 0.002(8) 0.019(4)
C8 0.055(6) 0.049(6) 0.085(8) -0.002(5) 0.008(5) 0.029(5)
C13 0.071(8) 0.080(8) 0.095(9) 0.000(7) 0.006(7) 0.044(7)
C9 0.039(6) 0.048(7) 0.113(11) 0.007(7) 0.002(7) 0.018(5)
O2 0.057(6) 0.057(6) 0.066(10) 0.000 0.000 0.029(3)
O5 0.033(3) 0.031(3) 0.073(5) -0.002(3) 0.004(3) 0.019(3)
loop_
_atom_type_symbol
_atom_type_description
_atom_type_scat_dispersion_real
_atom_type_scat_dispersion_imag
_atom_type_scat_source
C C 0.0181 0.0091 'International Tables Vol C Tables 4.2.6.8 and 6.1.1.4'
H H 0.0000 0.0000 'International Tables Vol C Tables 4.2.6.8 and 6.1.1.4'
N N 0.0311 0.0180 'International Tables Vol C Tables 4.2.6.8 and 6.1.1.4'
O O 0.0492 0.0322 'International Tables Vol C Tables 4.2.6.8 and 6.1.1.4'
Zr Zr -0.1862 2.2449 'International Tables Vol C Tables 4.2.6.8 and 6.1.1.4'
loop_
_geom_angle_atom_site_label_1
_geom_angle_atom_site_label_2
_geom_angle_atom_site_label_3
_geom_angle
_geom_angle_site_symmetry_1
_geom_angle_site_symmetry_3
Zr1 Zr1 Zr1 60.0 2_665 3_565
Zr1 Zr1 Zr2 60.003(19) 2_665 2_665
Zr1 Zr1 Zr2 90.411(18) 2_665 .
Zr1 Zr1 Zr2 60.002(19) 3_565 .
Zr2 Zr1 Zr1 90.411(18) 2_665 3_565
Zr2 Zr1 Zr2 60.95(4) 2_665 .
O6 Zr1 Zr1 93.74(19) 2_665 3_565
O6 Zr1 Zr1 37.09(19) 2_665 2_665
O6 Zr1 Zr1 93.74(19) . 2_665
O6 Zr1 Zr1 37.09(19) . 3_565
O6 Zr1 Zr2 38.5(3) 2_665 2_665
O6 Zr1 Zr2 38.5(3) . .
O6 Zr1 Zr2 95.3(3) 2_665 .
O6 Zr1 Zr2 95.3(3) . 2_665
O6 Zr1 O6 119.3(5) 2_665 .
O6 Zr1 O008 139.6(3) 2_665 10
O6 Zr1 O008 72.7(3) . 10
O6 Zr1 O008 139.6(3) . 4_665
O6 Zr1 O008 72.7(3) 2_665 4_665
O6 Zr1 O5 140.6(3) 2_665 .
O6 Zr1 O5 74.8(3) 2_665 7_665
O6 Zr1 O5 74.8(3) . .
O6 Zr1 O5 140.6(3) . 7_665
O7 Zr1 Zr1 82.9(2) . 3_565
O7 Zr1 Zr1 82.9(2) . 2_665
O7 Zr1 Zr2 32.25(8) . 2_665
O7 Zr1 Zr2 32.25(8) . .
O7 Zr1 O6 70.5(3) . .
O7 Zr1 O6 70.5(3) . 2_665
O7 Zr1 O008 141.79(19) . 4_665
O7 Zr1 O008 141.79(19) . 10
O7 Zr1 O5 82.4(3) . 7_665
O7 Zr1 O5 82.4(3) . .
O008 Zr1 Zr1 109.58(16) 10 2_665
O008 Zr1 Zr1 109.58(17) 4_665 3_565
O008 Zr1 Zr1 73.85(16) 10 3_565
O008 Zr1 Zr1 73.85(16) 4_665 2_665
O008 Zr1 Zr2 164.24(16) 10 2_665
O008 Zr1 Zr2 164.24(16) 4_665 .
O008 Zr1 Zr2 109.89(18) 10 .
O008 Zr1 Zr2 109.90(18) 4_665 2_665
O008 Zr1 O008 75.7(4) 4_665 10
O2 Zr1 Zr1 32.7(2) . 3_565
O2 Zr1 Zr1 32.7(2) . 2_665
O2 Zr1 Zr2 85.1(5) . .
O2 Zr1 Zr2 85.1(5) . 2_665
O2 Zr1 O6 69.8(3) . .
O2 Zr1 O6 69.8(3) . 2_665
O2 Zr1 O7 95.4(7) . .
O2 Zr1 O008 81.2(5) . 10
O2 Zr1 O008 81.2(5) . 4_665
O2 Zr1 O5 142.98(19) . 7_665
O2 Zr1 O5 142.98(19) . .
O5 Zr1 Zr1 111.15(18) 7_665 2_665
O5 Zr1 Zr1 163.8(2) . 2_665
O5 Zr1 Zr1 163.8(2) 7_665 3_565
O5 Zr1 Zr1 111.15(18) . 3_565
O5 Zr1 Zr2 108.9(2) . 2_665
O5 Zr1 Zr2 108.9(2) 7_665 .
O5 Zr1 Zr2 73.5(2) . .
O5 Zr1 Zr2 73.5(2) 7_665 2_665
O5 Zr1 O008 78.4(3) 7_665 4_665
O5 Zr1 O008 122.3(3) 7_665 10
O5 Zr1 O008 122.3(3) . 4_665
O5 Zr1 O008 78.4(3) . 10
O5 Zr1 O5 73.7(4) 7_665 .
Zr1 Zr2 Zr1 60.00(4) 3_565 .
Zr1 Zr2 Zr2 89.588(18) . 3_565
Zr1 Zr2 Zr2 59.526(19) 3_565 3_565
Zr1 Zr2 Zr2 89.589(18) 3_565 2_665
Zr1 Zr2 Zr2 59.525(19) . 2_665
Zr2 Zr2 Zr2 60.0 3_565 2_665
O6 Zr2 Zr1 37.44(13) . .
O6 Zr2 Zr1 37.44(12) . 3_565
O6 Zr2 Zr2 93.02(19) . 2_665
O6 Zr2 Zr2 93.02(19) . 3_565
O7 Zr2 Zr1 83.5(3) 3_565 .
O7 Zr2 Zr1 33.0(3) 3_565 3_565
O7 Zr2 Zr1 83.5(3) . 3_565
O7 Zr2 Zr1 33.0(3) . .
O7 Zr2 Zr2 30.3(3) . 2_665
O7 Zr2 Zr2 82.1(2) 3_565 2_665
O7 Zr2 Zr2 82.1(2) . 3_565
O7 Zr2 Zr2 30.3(3) 3_565 3_565
O7 Zr2 O6 70.2(3) . .
O7 Zr2 O6 70.2(3) 3_565 .
O7 Zr2 O7 93.0(5) . 3_565
O7 Zr2 O1 83.7(3) . .
O7 Zr2 O1 143.0(4) . 8
O7 Zr2 O1 143.0(4) 3_565 .
O7 Zr2 O1 83.7(3) 3_565 8
O7 Zr2 O4 69.5(3) . .
O7 Zr2 O4 69.5(3) 3_565 .
O7 Zr2 O3 144.7(4) . .
O7 Zr2 O3 144.7(4) 3_565 8
O7 Zr2 O3 87.8(4) 3_565 .
O7 Zr2 O3 87.8(4) . 8
O1 Zr2 Zr1 73.81(19) 8 3_565
O1 Zr2 Zr1 110.4(2) 8 .
O1 Zr2 Zr1 110.4(2) . 3_565
O1 Zr2 Zr1 73.81(19) . .
O1 Zr2 Zr2 163.40(19) . 3_565
O1 Zr2 Zr2 109.36(16) 8 3_565
O1 Zr2 Zr2 163.40(19) 8 2_665
O1 Zr2 Zr2 109.36(16) . 2_665
O1 Zr2 O6 74.1(3) 8 .
O1 Zr2 O6 74.1(3) . .
O1 Zr2 O1 77.6(3) . 8
O1 Zr2 O4 140.25(18) 8 .
O1 Zr2 O4 140.25(18) . .
O1 Zr2 O3 72.2(3) . 8
O1 Zr2 O3 115.6(3) . .
O1 Zr2 O3 72.2(3) 8 .
O1 Zr2 O3 115.6(3) 8 8
O4 Zr2 Zr1 95.6(3) . .
O4 Zr2 Zr1 95.6(3) . 3_565
O4 Zr2 Zr2 39.2(2) . 3_565
O4 Zr2 Zr2 39.2(2) . 2_665
O4 Zr2 O6 120.0(4) . .
O3 Zr2 Zr1 170.5(3) 8 3_565
O3 Zr2 Zr1 170.5(3) . .
O3 Zr2 Zr1 113.4(3) 8 .
O3 Zr2 Zr1 113.4(3) . 3_565
O3 Zr2 Zr2 115.6(3) 8 3_565
O3 Zr2 Zr2 81.0(3) 8 2_665
O3 Zr2 Zr2 81.0(3) . 3_565
O3 Zr2 Zr2 115.6(3) . 2_665
O3 Zr2 O6 141.4(3) 8 .
O3 Zr2 O6 141.4(3) . .
O3 Zr2 O4 77.8(4) . .
O3 Zr2 O4 77.8(4) 8 .
O3 Zr2 O3 72.2(6) 8 .
Zr1 O6 Zr1 105.8(4) 3_565 .
Zr1 O6 Zr2 104.1(3) 3_565 .
Zr1 O6 Zr2 104.1(3) . .
Zr2 O7 Zr1 114.8(3) . .
Zr2 O7 Zr1 114.8(3) 2_665 .
Zr2 O7 Zr2 119.3(5) 2_665 .
C1 O1 Zr2 131.6(7) . .
C16 O008 Zr1 132.2(8) . 4_664
Zr2 O4 Zr2 101.6(4) 3_565 .
Zr2 O4 Zr2 101.6(4) 3_565 2_665
Zr2 O4 Zr2 101.6(4) . 2_665
C11 N1 C10 109.2(11) . .
C3 C2 C1 121.0(11) . .
C3 C2 C7 115.6(10) . .
C7 C2 C1 123.4(11) . .
O1 C1 C2 113.6(10) . .
O5 C1 O1 128.3(10) . .
O5 C1 C2 117.7(11) . .
C14 C15 C16 119.0(10) 9 .
C14 C15 C16 119.0(10) . .
C14 C15 C14 121.7(19) 9 .
O008 C16 O008 127.3(14) . 9
O008 C16 C15 115.5(7) . .
O008 C16 C15 115.5(7) 9 .
C2 C3 H3 117.5 . .
C2 C3 C4 125.0(15) . .
C4 C3 H3 117.5 . .
C6 C5 C4 120.4(12) . .
C6 C5 C8 121.6(13) . .
C4 C5 C8 117.9(12) . .
C2 C7 H7 119.7 . .
C6 C7 C2 120.6(14) . .
C6 C7 H7 119.7 . .
N1 C11 N1 109.2(16) . 9
N1 C11 C12 125.0(8) . .
N1 C11 C12 125.0(8) 9 .
C10 C10 N1 106.1(7) 9 .
C8 C10 N1 131.0(13) . .
C8 C10 C10 122.9(8) . 9
C5 C6 H6 118.5 . .
C7 C6 C5 123.1(15) . .
C7 C6 H6 118.5 . .
C15 C14 H14 120.0 . .
C15 C14 C13 119.9(15) . .
C13 C14 H14 120.0 . .
C3 C4 C5 115.0(15) . .
C3 C4 H4 122.5 . .
C5 C4 H4 122.5 . .
C13 C12 C11 119.0(11) . .
C13 C12 C11 119.0(11) 9 .
C13 C12 C13 122(2) . 9
C10 C8 C5 120.2(13) . .
C10 C8 C9 117.1(13) . .
C9 C8 C5 122.7(12) . .
C14 C13 H13 120.8 . .
C12 C13 C14 118.3(15) . .
C12 C13 H13 120.8 . .
C8 C9 H9 120.0 . .
C9 C9 C8 120.0(8) 9 .
C9 C9 H9 120.0 9 .
Zr1 O2 Zr1 114.7(5) 3_565 2_665
Zr1 O2 Zr1 114.7(5) 3_565 .
Zr1 O2 Zr1 114.7(5) 2_665 .
C1 O5 Zr1 132.6(7) . .
loop_
_geom_bond_atom_site_label_1
_geom_bond_atom_site_label_2
_geom_bond_distance
_geom_bond_site_symmetry_2
Zr1 Zr1 3.4901(15) 2_665
Zr1 Zr1 3.4901(15) 3_565
Zr1 Zr2 3.4903(15) .
Zr1 Zr2 3.4902(15) 2_665
Zr1 O6 2.188(6) .
Zr1 O6 2.188(6) 2_665
Zr1 O7 2.093(12) .
Zr1 O008 2.222(8) 4_665
Zr1 O008 2.222(8) 10
Zr1 O2 2.073(5) .
Zr1 O5 2.202(7) .
Zr1 O5 2.202(7) 7_665
Zr2 Zr1 3.4902(15) 3_565
Zr2 Zr2 3.5401(16) 2_665
Zr2 Zr2 3.5400(16) 3_565
Zr2 O6 2.238(12) .
Zr2 O7 2.051(5) 3_565
Zr2 O7 2.051(5) .
Zr2 O1 2.212(6) .
Zr2 O1 2.212(6) 8
Zr2 O4 2.284(7) .
Zr2 O3 2.264(11) .
Zr2 O3 2.264(11) 8
O6 Zr1 2.188(6) 3_565
O7 Zr2 2.051(5) 2_665
O1 C1 1.250(16) .
O008 Zr1 2.222(7) 4_664
O008 C16 1.257(9) .
O4 Zr2 2.284(7) 2_665
O4 Zr2 2.283(7) 3_565
N1 C11 1.342(15) .
N1 C10 1.379(19) .
C2 C1 1.550(13) .
C2 C3 1.369(19) .
C2 C7 1.403(17) .
C1 O5 1.247(16) .
C15 C16 1.51(2) .
C15 C14 1.357(18) 9
C15 C14 1.357(18) .
C16 O008 1.257(9) 9
C3 H3 0.9300 .
C3 C4 1.397(18) .
C5 C6 1.33(2) .
C5 C4 1.41(2) .
C5 C8 1.483(16) .
C7 H7 0.9300 .
C7 C6 1.337(18) .
C11 N1 1.342(15) 9
C11 C12 1.46(3) .
C10 C10 1.42(3) 9
C10 C8 1.37(2) .
C6 H6 0.9300 .
C14 H14 0.9300 .
C14 C13 1.40(2) .
C4 H4 0.9300 .
C12 C13 1.381(19) 9
C12 C13 1.381(19) .
C8 C9 1.45(2) .
C13 H13 0.9300 .
C9 C9 1.46(3) 9
C9 H9 0.9300 .
O2 Zr1 2.073(5) 2_665
O2 Zr1 2.073(5) 3_565
loop_
_refln_index_h
_refln_index_k
_refln_index_l
_refln_F_squared_meas
_refln_F_squared_sigma
_refln_scale_group_code
0 0 -2 504319 2518.33 1
0 0 -3 -51.2358 138.064 1
0 0 -4 128292 1829.3 1
0 0 -5 0.35529 194.384 1
0 0 -6 67870 1633.69 1
0 0 -7 -257.367 275.615 1
0 0 -8 177751 3063.45 1
0 0 -9 -409.727 372.944 1
0 0 -10 129927 3001.04 1
0 0 -11 106.063 333.822 1
0 0 -12 6619.65 835.387 1
0 0 -13 -190.922 328.158 1
0 0 -14 22011.9 1581.14 1
0 0 -15 -28.0561 354.729 1
0 0 -16 10241.5 658.16 3
0 0 -17 -45.7818 199.163 3
0 0 -18 2830.63 407.995 3
0 0 -19 427.528 264.565 3
0 0 -20 1849.93 370.378 3
0 0 -21 -82.7547 201.504 3
0 0 -22 3066.58 409.767 3
0 0 -23 -690.825 238.467 3
0 0 -24 1025.71 275.417 3
0 0 -25 211.369 149.53 3
1 -1 -2 37873.5 704.394 1
0 1 -2 35953.5 698.942 1
1 0 -2 36593.5 493.216 2
0 -1 -2 36473.6 671.64 1
1 0 2 36877.6 484.428 2
1 0 -2 37473.6 721.472 1
1 0 3 21158.3 363.239 2
-1 1 -3 19801.7 634.297 1
0 1 -3 21824.8 680.435 1
1 0 -3 22105.8 683.489 1
-1 0 -3 20552.9 628.688 1
1 -1 -3 21678 671.249 1
1 0 -3 20564.1 368.943 2
0 -1 -3 20621.7 640.606 1
1 0 -4 1140.45 222.934 1
-1 1 -4 979.251 219.607 1
0 1 -4 662.523 210.476 1
1 -1 -4 1155.54 256.386 1
-1 0 -4 1120.92 263.703 1
1 0 4 815.893 85.1327 2
1 0 -4 1084.62 95.6241 2
0 -1 -4 1062.6 210.192 1
1 -1 -5 9308.42 586.002 1
1 0 -5 8119.68 565.761 1
0 -1 -5 8633.18 575.219 1
0 1 -5 8411.12 583.134 1
-1 0 -5 8572.18 566.735 1
-1 1 -5 8478.11 563.408 1
-1 0 -6 10424.3 657.635 1
-1 1 -6 11142.2 701.2 1
0 1 -6 10945.3 691.725 1
1 -1 -6 9824.62 649.144 1
0 -1 -6 10103.4 662.851 1
1 0 -6 10407.3 670.637 1
0 1 -7 34311.1 1282.45 1
1 0 -7 32483.9 1246.74 1
-1 0 -7 34241.2 1270.37 1
-1 1 -7 32329 1236.86 1
0 -1 -7 33353.9 1251.8 1
1 -1 -7 33555.4 1252.04 1
-1 1 -8 25982.5 1208.02 1
0 1 -8 26082.5 1197.93 1
-1 0 -8 26475.3 1211.03 1
1 0 -8 26023.4 1205.15 1
0 -1 -8 26026.2 1197.91 1
1 -1 -8 26084.5 1201.92 1
-1 1 -9 76409.1 2195.17 1
1 -1 -9 74411.8 2152.58 1
0 1 -9 77116.6 2188.07 1
-1 0 -9 77309.4 2173.72 1
0 -1 -9 75510.7 2157.67 1
1 0 -9 76388.7 2186.31 1
-1 0 -10 19474.8 1192.54 1
0 -1 -10 18885.5 1160.55 1
0 1 -10 19582.4 1206.28 1
-1 1 -10 20220.1 1225.93 1
1 0 -10 20777.6 1252 1
1 -1 -10 18884.4 1163.43 1
1 -1 -11 25105.9 1437.4 1
0 -1 -11 24528.3 1406.16 1
1 0 -11 24746.7 1430.14 1
-1 1 -11 25975.3 1455.92 1
0 1 -11 25144.3 1441.35 1
-1 0 -11 25563.2 1427.8 1
1 -1 -12 431.067 287.836 1
0 1 -12 919.49 394.992 1
-1 1 -12 724.975 358.546 1
0 -1 -12 546.305 335.5 1
-1 0 -12 480.018 366.74 1
1 0 -12 306.102 290.811 1
0 -1 -13 9854.43 1016.13 1
1 -1 -13 10848.2 1081.82 1
1 0 -13 10825.3 1068.5 1
-1 0 -13 9709.15 1018.24 1
-1 1 -13 10122.9 1030.93 1
0 1 -13 10562.1 1061.14 1
0 -1 -14 4044.46 735.726 1
0 1 -14 2754.51 624.804 1
-1 1 -14 2949.64 671.305 1
-1 0 -14 2540.34 608.688 1
-1 0 -15 7850.26 991.921 1
0 1 -15 10006.1 1146.24 1
-1 1 -15 7926.43 1036.42 1
-1 1 -16 1264.5 268.533 3
0 1 -16 2081.58 328.467 3
1 -1 -16 1844.97 314.245 3
0 -1 -16 1158.66 282.106 3
-1 1 -16 1342.15 552.749 1
-1 0 -16 1240.88 278.8 3
1 0 -16 1556.29 297.18 3
1 -1 -17 1894.92 319.826 3
1 0 -17 2546.13 379.582 3
-1 0 -17 2714.44 395.679 3
-1 1 -17 2578.6 394.707 3
0 1 -17 2400.49 382.699 3
0 -1 -17 2025.11 353.713 3
1 -1 -18 287.341 219.171 3
0 -1 -18 207.499 235.531 3
1 0 -18 439.763 230.829 3
-1 0 -18 358.462 228.008 3
0 1 -18 458.427 254.399 3
-1 1 -18 335.66 221.167 3
1 0 -19 -11.0457 217.08 3
0 -1 -19 101.378 206.129 3
0 1 -19 262.289 224.241 3
1 -1 -19 494.469 252.028 3
-1 0 -19 231.566 250.792 3
-1 1 -19 265.518 243.077 3
1 -1 -20 -158.342 228.576 3
1 0 -20 -224.821 226.868 3
0 1 -20 33.1207 236.274 3
0 -1 -20 560.471 257.616 3
-1 1 -20 -227.067 235.839 3
-1 0 -20 -9.04708 223.288 3
1 0 -21 239.54 209.536 3
-1 0 -21 109.732 237.873 3
0 1 -21 119.768 216.882 3
0 -1 -21 85.6159 204.7 3
1 -1 -21 227.417 226.145 3
-1 1 -21 546.377 287.587 3
-1 1 -22 208.065 221.716 3
1 -1 -22 75.0467 189.861 3
1 0 -22 75.8227 192.385 3
0 -1 -22 174.287 195.345 3
-1 0 -22 -19.6188 227.124 3
0 1 -22 752.6 292.754 3
0 -1 -23 785.538 236.289 3
-1 0 -23 1078.4 304.239 3
1 -1 -23 652.559 236.213 3
0 1 -23 608.197 242.451 3
-1 1 -23 1421.06 319.539 3
1 0 -23 686.517 224.332 3
0 -1 -24 9.94694 159.78 3
1 0 -24 269.059 223.282 3
1 -1 -24 140.65 154.033 3
-1 1 -24 -143.266 208.703 3
0 1 -24 42.7992 166.955 3
-1 0 -24 -129.415 191.466 3
0 1 -25 151.801 183.172 3
-1 0 -25 34.0029 159.02 3
-1 1 -25 122.659 198.694 3
1 1 0 207543 1530.46 2
1 1 -1 35.7911 85.2857 2
1 1 1 8.6414 71.0503 2
1 1 -2 21884.4 509.763 2
1 1 -2 22473.2 579.364 1
-1 -1 -2 21471.3 503.005 1
1 1 2 20786.2 503.895 2
2 -1 -3 -62.6343 86.0985 2
2 -1 3 65.9691 87.1215 2
1 1 -3 -61.118 130.397 1
1 -2 -3 103.018 140.811 1
-1 -1 -3 46.7399 139.226 1
-1 2 -3 138.38 138.261 1
-1 -1 -4 30065.8 875.188 1
1 -2 -4 32667 925.466 1
-1 2 -4 31383.6 905.386 1
1 1 -4 33571.8 966.594 1
2 -1 -4 30951.8 608.015 2
2 -1 4 31972.7 589.883 2
-1 2 -5 184.852 203.223 1
1 1 -5 69.0829 254.719 1
2 -1 -5 -28.5719 89.9845 2
-2 1 -5 278.708 254.961 1
1 -2 -5 14.8074 200.187 1
2 -1 5 -5.87012 78.452 2
2 -1 -5 -153.907 216.326 1
-1 -1 -5 -11.057 229.898 1
2 -1 -6 16928.9 836.062 1
1 1 -6 15480.3 807.143 1
1 -2 -6 16213.6 817.618 1
2 -1 6 13168.6 323.139 2
-1 2 -6 14889.3 793.275 1
-2 1 -6 15458.6 791.127 1
-1 -1 -6 16237.7 809.76 1
2 -1 -6 13324.9 356.186 2
-2 1 -7 -262.485 281.04 1
-1 2 -7 -184.846 302.013 1
1 -2 -7 16.237 237.904 1
1 1 -7 -312.978 306.971 1
-1 -1 -7 -135.912 276.017 1
2 -1 -7 -279.811 294.137 1
-1 2 -8 32193.2 1338.49 1
1 -2 -8 32087.6 1324.56 1
-2 1 -8 30672.9 1311.04 1
-1 -1 -8 31780.5 1311.76 1
2 -1 -8 31262.5 1331.17 1
1 1 -8 31413.5 1326.33 1
2 -1 -9 -177.087 328.03 1
-1 2 -9 -41.2643 307.13 1
1 -2 -9 339.157 337.959 1
-1 -1 -9 251.316 280.103 1
1 1 -9 -56.8533 279.853 1
-2 1 -9 -393.284 343.577 1
1 -2 -10 43362.4 1757.8 1
-2 1 -10 43609.9 1774.98 1
-1 2 -10 40496.1 1714.06 1
-1 -1 -10 40666.3 1696.02 1
1 1 -10 38555.1 1683.34 1
2 -1 -10 41078.8 1746.73 1
1 -2 -11 -491.852 410.526 1
-2 1 -11 -361.939 351.116 1
-1 -1 -11 -379.21 352.244 1
-1 2 -11 76.4208 314.278 1
1 1 -11 -554.952 390.722 1
1 -2 -12 739.12 440.353 1
-1 -1 -12 415.779 388.527 1
1 1 -12 1151.52 458.204 1
-1 2 -12 779.591 439.988 1
-2 1 -12 283.11 371.552 1
-2 1 -13 39.6351 353.124 1
-1 2 -13 -45.9261 313.286 1
-1 -1 -13 501.747 400.513 1
1 1 -13 -24.3021 310.906 1
-1 -1 -14 8739.67 1021.01 1
-2 1 -14 8111.9 993.283 1
-1 2 -14 9164.94 1056.4 1
-1 2 -15 -315.275 403.848 1
-1 -1 -15 -379.98 369.033 1
-2 1 -15 119.366 325.037 1
1 -2 -16 3985.43 419.498 3
-2 1 -16 4936.23 814.728 1
-1 -1 -16 4364.98 440.772 3
1 1 -16 4046.71 446.997 3
-1 2 -16 5161.69 506.452 3
-2 1 -16 5629.05 527.226 3
-1 2 -16 4105.18 897.832 1
2 -1 -16 3697.5 410.339 3
-2 1 -17 54.6389 212.739 3
1 1 -17 223.667 209.677 3
-1 2 -17 300.804 229.133 3
-1 -1 -17 -61.4123 214.067 3
2 -1 -17 26.7786 200.683 3
-2 1 -17 9.72756 290.303 1
1 -2 -17 -31.8752 174.41 3
-1 2 -18 793.504 334.815 3
-2 1 -18 2014.23 379.57 3
1 -2 -18 974.096 262.024 3
1 1 -18 1207.95 323.863 3
-1 -1 -18 1360.37 322.815 3
2 -1 -18 1078.47 285.296 3
-1 -1 -19 100.522 248.47 3
-1 2 -19 -250.186 266.262 3
1 -2 -19 169.542 200.821 3
-2 1 -19 373.031 287.763 3
2 -1 -19 -69.758 215.055 3
1 1 -19 -98.3195 231.946 3
1 1 -20 512.779 275.191 3
2 -1 -20 302.151 229.269 3
-2 1 -20 68.3642 259.064 3
-1 2 -20 251.911 250.199 3
-1 -1 -20 -46.2255 221.011 3
1 -2 -20 958.791 273.72 3
1 1 -21 128.63 241.423 3
-1 -1 -21 87.972 216.26 3
-2 1 -21 -33.0427 255.1 3
-1 2 -21 294.327 232.914 3
1 -2 -21 -155.979 186.284 3
2 -1 -21 -164.542 189.172 3
-1 -1 -22 555.07 224.376 3
1 -2 -22 946.738 265.875 3
-2 1 -22 778.433 311.686 3
2 -1 -22 943.225 240.234 3
-1 2 -22 706.463 284.227 3
1 1 -22 913.784 273.481 3
1 1 -23 50.204 204.552 3
-2 1 -23 202.25 232.265 3
-1 2 -23 -481.459 247.455 3
1 -2 -23 -42.9408 164.821 3
-1 -1 -23 235.417 203.316 3
2 -1 -23 -253.699 216.636 3
1 1 -24 655.215 226.175 3
-1 2 -24 368.358 223.7 3
-2 1 -24 775.199 256.654 3
-1 -1 -24 324.329 200.694 3
-1 2 -25 35.2175 154.135 3
-2 1 -25 78.2335 163.315 3
-1 -1 -25 -14.5139 129.133 3
1 1 -25 97.07 148.667 3
2 0 0 101120 1137.39 2
0 2 -1 190749 1195.34 1
2 0 -1 188368 1575.21 2
0 2 -2 19909.2 541.08 1
0 -2 -2 21313 495.095 1
2 0 -2 20505.1 526.75 2
2 0 2 19886.9 519.898 2
0 -2 -3 16394.7 552.501 1
2 0 3 15334.4 452.216 2
2 0 -3 15719.2 462.403 2
0 2 -3 16769.1 597.532 1
2 0 4 12384 413.815 2
2 0 -4 11568.8 406.728 2
-2 0 -4 11841 565.581 1
0 -2 -4 13016.6 591.374 1
2 0 -4 13660.1 640.352 1
0 2 -4 13105.4 625.652 1
2 0 -5 27624.3 1001.44 1
-2 0 -5 25672.6 906.557 1
2 0 -5 25167.8 571.757 2
2 0 5 24426.4 557.734 2
0 2 -5 26271.8 957.925 1
0 -2 -5 26749.1 929.601 1
-2 2 -5 25456.4 927.075 1
2 0 -6 6871.39 299.843 2
0 2 -6 8714.8 654.882 1
2 -2 -6 7864.13 605.084 1
0 -2 -6 8018.75 606.941 1
-2 2 -6 8154.73 612.118 1
2 0 -6 8014.38 646.495 1
-2 0 -6 7805.51 602.229 1
2 -2 6 6647.43 279.328 2
0 -2 -7 25481 1088.38 1
0 2 -7 24395.6 1100.13 1
-2 0 -7 25308.4 1103.1 1
-2 2 -7 22497.1 1055.92 1
2 -2 -7 19951.5 427.509 2
2 0 -7 24029.3 1100.05 1
2 -2 -7 24022.5 1093.52 1
-2 0 -8 6202.89 636.107 1
0 -2 -8 6848.69 650.156 1
0 2 -8 6189.37 647.513 1
-2 2 -8 6532.03 672.076 1
2 -2 -8 6227.05 642.106 1
2 0 -8 6526.8 649.571 1
-2 2 -9 29318.7 1385.07 1
2 -2 -9 27579.7 1337.28 1
0 -2 -9 28259.8 1327.73 1
-2 0 -9 30192.3 1381.57 1
2 0 -9 29107 1394.52 1
0 2 -9 28102.6 1362.23 1
-2 0 -10 5946.46 677.802 1
0 -2 -10 7100.72 747.357 1
2 0 -10 7217.49 780.448 1
-2 2 -10 6852.25 771.172 1
0 2 -10 6837.71 759.114 1
0 -2 -11 3202.14 572.547 1
-2 2 -11 2702.97 569.808 1
-2 0 -11 2933.93 584.775 1
2 0 -11 2556.89 532.03 1
0 2 -11 2563.93 532.307 1
-2 0 -12 590.636 353.182 1
0 -2 -12 559.45 358.165 1
-2 2 -12 677.178 420.015 1
0 2 -12 -90.7055 286.093 1
-2 2 -13 6603.08 893.516 1
0 -2 -13 5479.76 812.846 1
-2 0 -13 5875.12 801.996 1
0 2 -13 6689.81 865.593 1
-2 0 -14 1710.29 522.375 1
-2 2 -14 2047.12 563.586 1
0 2 -14 2025.04 526.814 1
0 2 -15 5118.1 835.815 1
-2 0 -15 4543.78 785.626 1
-2 2 -15 5001.25 844.052 1
0 -2 -16 665.907 220.76 3
2 0 -16 783.653 250.637 3
0 2 -16 638.389 233.813 3
-2 0 -16 772.564 405.022 1
-2 2 -16 520.105 416.841 1
-2 0 -16 764.324 262.109 3
2 -2 -16 331.118 189.931 3
-2 2 -16 318.515 223.386 3
2 0 -17 506.133 229.855 3
-2 2 -17 193.252 236.981 3
2 -2 -17 399.965 199.133 3
-2 0 -17 627.452 256.527 3
0 -2 -17 454.44 211.642 3
-2 2 -17 -329.803 455.02 1
0 2 -17 605.138 257.017 3
-2 0 -17 852.061 385.06 1
-2 0 -18 -198.124 232.376 3
2 0 -18 -42.8798 226.445 3
2 -2 -18 -199.85 224.774 3
-2 2 -18 143.888 234.415 3
0 -2 -18 -69.1429 212.171 3
0 2 -18 -17.9672 208.138 3
2 -2 -19 332.848 197.483 3
-2 0 -19 115.565 225.144 3
-2 2 -19 141.542 235.435 3
0 2 -19 -162.222 231.217 3
0 -2 -19 158.33 255.982 3
2 0 -19 -47.879 196.045 3
-2 2 -20 578.317 292.27 3
0 -2 -20 172.009 207.739 3
2 0 -20 303.024 208.417 3
-2 0 -20 503.212 297.725 3
2 -2 -20 287.886 197.286 3
0 2 -20 249.796 250.694 3
0 -2 -21 1647.66 324.457 3
-2 2 -21 1118.2 324.227 3
-2 0 -21 1607.31 357.096 3
2 -2 -21 784.387 252.427 3
0 2 -21 944.352 299.89 3
2 0 -21 971.485 286.103 3
0 -2 -22 437.185 223.989 3
-2 2 -22 612.397 265.708 3
2 0 -22 180.396 219.98 3
2 -2 -22 460.702 212.578 3
0 2 -22 176.551 212.097 3
-2 0 -22 438.097 265.935 3
0 2 -23 799.337 259.679 3
-2 0 -23 955.709 290.274 3
-2 2 -23 649.652 275.124 3
2 0 -23 742.36 223.466 3
0 -2 -23 611.607 231.731 3
-2 0 -24 -8.22516 203.394 3
0 -2 -24 -27.4809 143.538 3
0 2 -24 399.041 210.28 3
-2 2 -24 95.4829 187.733 3
2 0 -24 66.4727 172.127 3
0 2 -25 16.2326 143.693 3
-2 2 -25 125.949 167.306 3
-2 0 -25 7.98559 167.264 3
2 1 0 977.381 171.159 2
3 -1 0 765.571 170.304 2
2 1 -1 12488.4 479.187 2
3 -1 -1 11847.6 462.085 2
2 1 1 12095.3 465.037 2
3 -1 1 12013.4 465.256 2
3 -1 -2 1616.4 209.233 2
-1 -2 -2 1681.8 162.391 1
2 1 -2 1353.57 195.5 2
3 -1 2 1747.35 205.313 2
2 1 2 1566.99 210.496 2
1 2 -2 1613.06 187.866 1
3 -1 -3 1725.98 209.036 2
-1 -2 -3 1919.79 239.038 1
2 1 3 1509.83 208.423 2
2 1 -3 1535.24 202.613 2
1 2 -3 1718.97 246.497 1
3 -1 3 1843.39 222.004 2
-1 3 -3 1764.85 262.161 1
-1 -2 -4 4446.23 362.509 1
1 -3 -4 4374.36 355.263 1
2 1 4 3904.3 282.727 2
3 -1 4 4015.7 281.188 2
-1 3 -4 3962.32 371.394 1
1 2 -4 4001.93 388.544 1
-2 -1 -4 4116.99 369.862 1
2 1 -4 4147.73 294.36 2
3 -1 -4 4092.86 288.025 2
2 1 -4 4603.68 398.531 1
3 -2 -5 18941.9 596.964 2
3 -1 -5 19960.2 608.689 2
2 1 -5 22797.7 921.935 1
1 -3 -5 20375.3 828.997 1
-1 -2 -5 21819.4 858.191 1
-2 3 -5 20280.3 852.284 1
1 2 -5 22219.9 919.789 1
-2 -1 -5 20924.4 825.369 1
3 -1 5 20469.2 594.446 2
3 -2 5 20045.6 585.21 2
-1 3 -5 21351.9 880.753 1
3 -1 -6 3648.71 266.675 2
2 1 -6 3127.17 427.759 1
-1 -2 -6 3635.88 433.486 1
-3 2 -6 3664.86 454.675 1
-2 3 -6 3664.9 444.246 1
-3 1 -6 3581.29 442.906 1
-1 3 -6 4256.71 470.942 1
3 -1 6 3380.09 252.589 2
3 -2 -6 3624.72 274.154 2
1 -3 -6 3781.95 407.678 1
-2 -1 -6 4144.83 461.563 1
1 2 -6 3790.06 467.564 1
3 -2 6 3437.73 260.249 2
3 -1 -7 14685.4 485.732 2
3 -2 -7 15132.1 498.72 2
-2 3 -7 16947 930.411 1
-3 2 -7 15633.9 875.487 1
-3 1 -7 16546.3 896.546 1
-1 3 -7 17933.1 955.621 1
2 1 -7 18457.7 987.464 1
1 2 -7 16795.2 933.599 1
1 -3 -7 17767.6 924.108 1
-2 -1 -7 16546.6 901.334 1
3 -1 7 14020.4 453.238 2
3 -2 7 14495.9 458.436 2
-1 -2 -7 18718.3 945.472 1
2 1 -8 1546.16 377.412 1
1 -3 -8 1148.96 366.542 1
-3 2 -8 1492.55 411.189 1
3 -2 -8 745.51 108.92 2
-2 -1 -8 1617.37 394.903 1
-1 -2 -8 1526.22 363.255 1
1 2 -8 1227.07 391.273 1
2 -3 -8 914.253 123.433 2
2 -3 8 742.986 97.9316 2
3 -2 8 902.854 106.88 2
-3 1 -8 1335.25 388.798 1
-1 3 -8 1651.72 416.72 1
-2 3 -8 982.689 331.416 1
-3 1 -9 9562.79 832.901 1
-1 -2 -9 10182.4 838.017 1
-1 3 -9 10659.9 866.969 1
-3 2 -9 10596.8 866.699 1
1 2 -9 9920.98 822.769 1
-2 3 -9 10714.2 879.389 1
-2 -1 -9 10787.7 858.734 1
2 1 -9 10332.7 854.861 1
1 -3 -9 10595 837.702 1
-2 3 -10 2997.46 585.297 1
-3 2 -10 3294.29 605.172 1
-3 1 -10 3370.47 559.209 1
2 1 -10 2988.03 526.873 1
-1 -2 -10 2805.79 516.14 1
-2 -1 -10 2596.65 491.837 1
1 2 -10 2707.82 515.045 1
-1 3 -10 3202.15 571.162 1
1 -3 -10 1836.33 442.072 1
-2 3 -11 725.746 377.914 1
-3 1 -11 130.871 341.475 1
1 2 -11 62.7921 321.024 1
-1 -2 -11 97.1028 326.519 1
-1 3 -11 383.159 294.792 1
1 -3 -11 8.81626 286.228 1
2 1 -11 -273.826 361.11 1
-3 2 -11 334.343 297.055 1
-2 -1 -11 90.0201 310.527 1
1 2 -12 -278.605 387.556 1
-1 3 -12 376.66 358.839 1
-3 1 -12 -87.044 366.993 1
-2 3 -12 -18.2827 326.359 1
-3 2 -12 309.888 380.585 1
-2 -1 -12 131.318 289.77 1
-1 -2 -12 396.574 328.559 1
-3 2 -13 3054.63 672.103 1
-2 -1 -13 1994.56 504.082 1
-1 -2 -13 2253.44 540.948 1
-2 3 -13 1975.78 574.05 1
1 2 -13 1816.72 479.507 1
-3 1 -13 2180.19 561.666 1
-1 3 -13 1818.18 530.357 1
-1 -2 -14 1203.78 479.385 1
-2 3 -14 2226.11 619.175 1
-3 2 -14 1541.29 552.652 1
-2 -1 -14 1737.35 491.954 1
-3 1 -14 1474.68 519.939 1
-1 3 -14 1255.47 459.683 1
-1 3 -15 2338.58 649.855 1
-3 2 -15 1829.61 594.248 1
-2 3 -15 1724.45 533.277 1
-3 1 -15 2367.02 652.185 1
-1 -2 -15 909.439 421.697 1
-3 1 -15 2335.64 353.866 3
-2 -1 -15 1765.34 595.751 1
-2 3 -15 1641.42 289.839 3
-3 2 -15 1514.52 301.261 3
1 -3 -16 1014.65 222.866 3
-1 -2 -16 539.19 210.386 3
2 1 -16 381.009 216.803 3
-3 2 -16 381.618 396.256 1
-2 3 -16 716.725 431.494 1
-2 3 -16 528.88 236.398 3
-3 1 -16 -15.1203 324.98 1
-3 1 -16 799.689 282.924 3
-1 3 -16 700.868 417.454 1
-1 3 -16 842.338 253.533 3
-3 2 -16 951.745 284.659 3
1 2 -16 365.141 219.429 3
-2 -1 -16 637.782 237.762 3
-2 -1 -16 498.14 395.685 1
3 -1 -16 321.262 167.185 3
-2 3 -17 1333.68 577.906 1
3 -2 -17 318.283 193.539 3
2 -3 -17 444.97 196.744 3
2 1 -17 521.915 209.294 3
-2 3 -17 535.151 240.862 3
-2 -1 -17 620.893 272.142 3
-1 3 -17 1307.87 336.779 3
-3 2 -17 473.322 280.117 3
-3 2 -17 892.131 436.371 1
3 -1 -17 717.581 259.873 3
1 -3 -17 770.799 261.768 3
-3 1 -17 989.587 305.55 3
1 2 -17 1067.9 305.859 3
-1 -2 -17 846.687 262.602 3
-3 1 -17 227.173 490.25 1
-2 3 -18 544.176 292.855 3
-3 2 -18 288.113 268.833 3
3 -2 -18 299.486 220.102 3
-3 2 -18 565.267 369.662 1
3 -1 -18 20.1963 207.893 3
-1 3 -18 3.60496 232.37 3
2 1 -18 140.869 199.115 3
-3 1 -18 -188.701 258.735 3
-1 -2 -18 -41.7208 217.017 3
-2 -1 -18 28.1985 215.04 3
2 -3 -18 8.48634 176.017 3
1 -3 -18 366.691 194.593 3
1 2 -18 59.1461 203.939 3
-3 1 -18 617.811 383.43 1
1 -3 -19 205.057 187.643 3
2 -3 -19 -85.8564 199.844 3
-2 -1 -19 161.2 228.151 3
1 2 -19 287.394 267.628 3
-2 3 -19 88.4372 246.583 3
2 1 -19 630.896 253.111 3
-1 -2 -19 246.983 243.688 3
-1 3 -19 174.476 249.825 3
3 -1 -19 199.22 212.092 3
3 -2 -19 168.59 196.222 3
-3 2 -19 582.537 291.291 3
-3 1 -19 660.342 302.891 3
2 1 -20 376.547 218.28 3
1 -3 -20 -270.616 252.993 3
2 -3 -20 -305.582 223.785 3
-1 -2 -20 49.9367 221.514 3
-2 3 -20 184.878 230.857 3
1 2 -20 457.434 243.96 3
-3 2 -20 8.60352 284.777 3
-2 -1 -20 226.234 217.308 3
3 -1 -20 -38.3647 223.028 3
-3 1 -20 -46.2292 254.27 3
-1 3 -20 -70.9643 256.436 3
-3 1 -21 276.918 261.323 3
2 1 -21 505.78 235.565 3
-2 3 -21 299.731 271.592 3
1 -3 -21 449.078 233.403 3
-3 2 -21 1108.43 347.434 3
-1 3 -21 459.224 266.798 3
-2 -1 -21 210.707 252.626 3
3 -1 -21 237.583 214.357 3
-1 -2 -21 515.352 256.17 3
1 2 -21 46.8155 231.975 3
-2 -1 -22 -138.353 232.558 3
1 -3 -22 -41.4358 169.259 3
2 1 -22 303.043 220.706 3
-3 2 -22 330.567 245.309 3
-2 3 -22 -153.146 293.519 3
-3 1 -22 -17.4166 246.379 3
1 2 -22 54.2945 216.07 3
-1 -2 -22 665.392 253.92 3
-1 3 -22 170.421 287.199 3
-2 -1 -23 214.761 218.353 3
2 1 -23 542.503 215.8 3
-1 -2 -23 239.664 196.818 3
-3 1 -23 419.279 244.224 3
-2 3 -23 685.771 266.998 3
-3 2 -23 294.44 247.437 3
-1 3 -23 843.495 284.735 3
1 2 -23 9.6127 191.353 3
1 2 -24 424.707 213.36 3
-3 2 -24 11.53 192.458 3
-3 1 -24 -84.402 192.54 3
-1 -2 -24 96.4539 171.413 3
-2 3 -24 -31.5033 203.736 3
2 1 -24 -32.3578 157.605 3
-1 3 -24 370.718 215.107 3
-2 -1 -24 17.4255 164.021 3
-1 3 -25 -259.654 194.059 3
-3 1 -25 -102.794 169.535 3
-2 -1 -25 -115.884 158.78 3
-3 2 -25 138.135 163.144 3
-2 3 -25 103.437 170.699 3
3 0 0 22862.5 684.928 2
3 0 1 7399.65 405.117 2
0 3 -1 6771.35 253.156 1
3 0 -1 6391.99 384.567 2
3 0 2 54177 1021.35 2
0 3 -2 52754.2 898.079 1
3 0 -2 52374.5 1038.61 2
0 3 -3 18086.8 643.109 1
3 0 3 17933.3 597.42 2
0 -3 -3 18006 559.655 1
3 0 -3 18597.7 622.246 2
0 3 -4 14576.2 656.736 1
3 0 -4 14369.4 542.451 2
3 0 4 12638.5 526.057 2
0 -3 -4 14799.2 602.893 1
3 0 5 13271.2 534.878 2
0 -3 -5 15169.3 717.83 1
-3 0 -5 14263.1 715.243 1
3 0 -5 14522.9 555.536 2
0 3 -5 16177.3 785.503 1
-3 0 -6 13165.6 741.69 1
3 0 -6 13604.8 532.966 2
-3 3 -6 13932.5 793.126 1
3 0 6 11576.4 502.206 2
0 3 -6 14659.9 808.495 1
0 -3 -6 14350.8 746.111 1
-3 3 -7 9799.38 735.567 1
0 3 -7 9702.01 734.923 1
3 -3 7 7096.9 383.79 2
3 0 -7 7556.22 392.827 2
-3 0 -7 8848.52 667.715 1
0 -3 -7 9079.84 681.186 1
3 -3 8 4873.94 270.479 2
0 -3 -8 7496.42 667.973 1
-3 0 -8 8032.52 715.074 1
0 3 -8 6658.98 675.134 1
-3 3 -8 6931.17 675.173 1
3 -3 -8 5053.09 299.269 2
0 3 -9 553.715 312.373 1
0 -3 -9 567.336 264.507 1
-3 0 -9 252.649 297.946 1
-3 3 -9 141.008 280.688 1
0 -3 -10 4080.1 578.758 1
-3 3 -10 4735.11 671.481 1
-3 0 -10 3702.76 573.178 1
0 3 -10 4213.95 637.716 1
0 3 -11 2593.9 531.641 1
-3 3 -11 2411.2 569.242 1
-3 0 -11 2403.88 512.419 1
0 -3 -11 2392.85 493.899 1
-3 0 -12 374.386 379.46 1
0 3 -12 207.59 280.162 1
0 -3 -12 -188.399 331.735 1
-3 3 -12 -118.565 323.352 1
-3 3 -13 2904.97 618.662 1
-3 0 -13 2569.79 576.359 1
0 3 -13 3481.74 674.778 1
-3 3 -14 1759 559.666 1
0 3 -14 1609.04 477.789 1
-3 0 -14 2951.82 647.044 1
0 3 -15 702.782 434.476 1
0 3 -15 293.652 200.861 3
-3 0 -15 686.434 201.339 3
-3 0 -15 -60.5943 397.92 1
-3 3 -15 391.016 215.722 3
-3 3 -15 496.857 420.682 1
-3 0 -16 1609.44 330.527 3
-3 3 -16 1159.24 421.224 1
3 0 -16 892.446 248.187 3
-3 3 -16 1787.59 334.024 3
0 3 -16 1506.44 314.389 3
-3 0 -16 1245.62 526.86 1
0 -3 -16 1505.06 281.72 3
3 0 -17 -31.5805 190.22 3
0 3 -17 -154.874 197.464 3
-3 0 -17 1036.49 797.78 1
-3 3 -17 -1128.36 734.073 1
-3 3 -17 243.009 261.643 3
-3 0 -17 -434.861 271.399 3
0 -3 -17 -242.431 240.167 3
-3 3 -18 899.924 318.104 3
-3 3 -18 508.158 492.847 1
0 3 -18 364.918 233.778 3
-3 0 -18 320.909 231.754 3
0 -3 -18 201.563 227.199 3
3 0 -18 315.464 233.47 3
-3 0 -19 124.814 239.922 3
3 0 -19 83.3219 224.636 3
0 -3 -19 -245.578 243.966 3
0 3 -19 315.616 251.192 3
-3 3 -19 99.8017 267.604 3
0 -3 -20 944.922 323.854 3
-3 3 -20 531.864 313.887 3
0 3 -20 841.254 312.367 3
3 0 -20 126.561 217.567 3
-3 0 -20 600.028 328.066 3
0 3 -21 134.764 281.014 3
3 0 -21 -176.93 186.4 3
-3 0 -21 338.371 292.091 3
0 -3 -21 -13.8243 201.015 3
-3 3 -21 -222.398 274.626 3
0 3 -22 827.632 309.068 3
3 0 -22 467.47 216.718 3
-3 0 -22 857.687 297.811 3
-3 3 -22 944.796 318.468 3
0 -3 -22 642.752 229.878 3
0 3 -23 49.7555 205.554 3
0 -3 -23 -153.991 200.521 3
-3 0 -23 -40.699 217.146 3
-3 3 -23 -118.362 233.803 3
0 3 -24 378.365 226.582 3
-3 0 -24 693.453 245.607 3
-3 3 -24 134.116 201.831 3
-3 0 -25 -120.635 159.354 3
0 3 -25 22.8189 156.635 3
-3 3 -25 -372.479 176.195 3
2 2 0 21699.3 719.819 2
2 2 -1 -63.3391 158.993 2
2 2 1 79.4142 177.04 2
2 2 2 763.279 210.756 2
2 2 -2 500.448 211.42 2
4 -2 -2 362.905 193.395 2
4 -2 2 828.881 215.996 2
-2 -2 -3 17.0382 151.519 1
4 -2 3 68.4477 155.22 2
4 -2 -3 -58.5245 162.534 2
4 -2 -4 34542.3 925.705 2
-2 -2 -4 32971.5 909.555 1
4 -2 4 36489.1 906.221 2
2 2 -4 36215 1068.54 1
2 2 -5 12.9293 224.696 1
-2 -2 -5 149.387 215.1 1
4 -2 -5 -25.8017 146.564 2
4 -2 5 -79.0183 138.451 2
-2 4 -5 -136.987 227.426 1
2 2 -6 13431 790.922 1
4 -2 6 12512.8 534.589 2
-2 -2 -6 12543 715.155 1
-2 4 -6 12298.1 748.349 1
4 -2 -6 11622.9 541.474 2
4 -2 7 -41.5274 121.357 2
-2 4 -7 97.1819 241.267 1
-2 -2 -7 32.7614 226.656 1
2 2 -7 -54.7701 232.037 1
4 -2 -7 -12.3626 115.9 2
-4 2 -7 46.6431 249.837 1
4 -2 8 3551.54 280.062 2
-2 -2 -8 4875.25 576.556 1
-2 4 -8 4437.6 582.152 1
-4 2 -8 4510.21 554.855 1
2 2 -8 4648.06 586.616 1
4 -2 -8 3847.66 294.178 2
-2 4 -9 256.281 346.192 1
-2 -2 -9 -144.894 272.844 1
2 2 -9 -160.08 309.645 1
-4 2 -9 -121.335 324.872 1
-2 4 -10 2960.84 549.481 1
-2 -2 -10 3376.02 562.482 1
2 2 -10 2813.07 544.87 1
-4 2 -10 3562.84 605.942 1
-4 2 -11 -0.93204 342.366 1
-2 -2 -11 49.5528 308.277 1
2 2 -11 380.317 334.822 1
-2 4 -11 418.582 394.771 1
-2 -2 -12 1759.72 495.309 1
-2 4 -12 1799.12 518.61 1
-4 2 -12 1028.56 354.022 1
-2 -2 -13 -120.467 355.307 1
-4 2 -13 178.29 333.735 1
-2 4 -13 540.2 440.17 1
-2 4 -14 313.052 341.643 1
-4 2 -14 637.841 343.913 1
-2 -2 -14 284.548 316.46 1
-2 -2 -15 268.501 338.279 1
-2 4 -15 -222.271 418.672 1
-4 2 -15 76.7119 333.378 1
-2 4 -15 -99.1197 177.013 3
-4 2 -15 -19.1796 171.063 3
-2 4 -16 198.262 199.818 3
-4 2 -16 -199.456 424.034 1
-2 4 -16 237.531 332.661 1
-4 2 -16 -55.5261 226.681 3
2 2 -16 172.333 201.241 3
-2 -2 -16 235.832 241.775 3
-4 2 -17 206.742 397.985 1
-2 4 -17 72.2771 246.913 3
-2 -2 -17 -134.996 187.892 3
-4 2 -17 -373.225 264.388 3
-2 4 -17 -21.7722 361.342 1
2 2 -17 -154.311 204.457 3
-2 -2 -18 -0.97672 217.475 3
-4 2 -18 -45.0521 382.567 1
2 2 -18 170.471 256.808 3
-2 4 -18 -81.4639 255.518 3
-4 2 -18 322.314 287.848 3
-2 -2 -19 122.684 234.538 3
2 2 -19 -118.128 247.211 3
-2 4 -19 -99.8647 235.145 3
-4 2 -19 83.9472 264.64 3
-2 4 -20 100.49 262.642 3
-2 -2 -20 444.583 269.247 3
-4 2 -20 892.891 349.755 3
2 2 -20 537.504 247.939 3
-2 4 -21 -168.549 249.376 3
-4 2 -21 -207.589 273.816 3
2 2 -21 219.536 236.083 3
-2 -2 -21 -151.499 206.784 3
-2 -2 -22 551.965 240.355 3
-4 2 -22 866.436 345.982 3
-2 4 -22 43.9216 249.69 3
2 2 -22 -154.558 227.849 3
-2 4 -23 -394.18 274.451 3
-4 2 -23 -213.293 241.3 3
-2 -2 -23 -50.8858 180.496 3
2 2 -23 102.858 188.228 3
-4 2 -24 245.551 218.79 3
-2 4 -24 209.464 217.618 3
-2 -2 -24 88.8971 187.665 3
2 2 -24 -80.5688 162.563 3
-4 2 -25 -98.8413 168.356 3
-2 4 -25 280.169 183.136 3
-2 -2 -25 -137.68 141.391 3
4 -1 0 3664.56 325.06 2
3 1 0 4203.99 354.898 2
4 -1 1 2080.87 296.939 2
3 1 -1 1818.77 258.068 2
4 -1 -1 1393.69 238.589 2
3 1 1 1949.29 282.32 2
3 1 2 12587.3 569.835 2
1 3 -2 12888.3 467.541 1
4 -1 2 13896.9 591.479 2
-1 -3 -2 13033.6 377.265 1
4 -1 -2 13844.2 606.845 2
3 1 -2 12601.9 591.039 2
3 1 3 34934.5 926.076 2
4 -1 3 35924.6 940.46 2
4 -1 -3 38394.5 978.617 2
3 1 -3 37009.5 950.398 2
-1 -3 -3 35722.3 791.18 1
-1 4 -3 35402.1 903.715 1
1 3 -3 36023.7 914.655 1
3 1 4 15533.9 641.586 2
-1 -3 -4 17489.4 667.366 1
-1 4 -4 16054.5 705.111 1
1 3 -4 17197.4 739.208 1
3 1 -4 17120.7 676.365 2
4 -1 4 17021.5 660.229 2
4 -1 -4 18280.4 682.523 2
3 1 -5 485.666 160.451 2
4 -1 -5 536.173 171.428 2
-1 4 -5 752.983 254.492 1
-1 -3 -5 824.358 252.392 1
-3 -1 -5 1013.88 283.957 1
1 3 -5 702.347 269.573 1
4 -1 5 736.491 188.406 2
3 1 5 405.114 167.229 2
-3 4 -6 8224.37 655.88 1
-1 -3 -6 8088.58 588.567 1
4 -3 6 7785.73 439.324 2
4 -3 -6 7620.37 447.129 2
4 -1 -6 7838.02 452.462 2
1 3 -6 8547.7 636.73 1
4 -1 6 6798.55 423.611 2
-1 4 -6 8301.12 647.812 1
3 1 -6 7503.7 448.338 2
-3 -1 -6 7799.39 588.541 1
-1 -3 -7 1284.88 338.953 1
4 -1 -7 1496.65 225.042 2
4 -3 -7 1172.87 210.747 2
4 -3 7 1107.63 190.846 2
1 -4 -7 1467.61 323.818 1
-3 4 -7 1291.12 339.892 1
1 3 -7 1356.71 343.235 1
-3 -1 -7 1567.74 362.118 1
4 -1 7 1002.61 181.504 2
-4 1 -7 1654.83 385.396 1
-4 3 -7 1774.35 428.228 1
-1 4 -7 1500.84 382.171 1
4 -3 8 401.215 134.583 2
4 -1 -8 568.629 152.006 2
1 -4 -8 434.025 297.198 1
-1 -3 -8 1304.08 410.318 1
-3 4 -8 410.594 290.192 1
-1 4 -8 848.711 347.634 1
-3 -1 -8 298.427 264.266 1
-4 1 -8 896.901 365.211 1
4 -1 8 439.163 137.038 2
4 -3 -8 238.775 126.173 2
1 3 -8 428.277 309.273 1
-4 3 -8 499.924 306.395 1
-4 1 -9 1171.99 401.154 1
-3 -1 -9 1585.76 433.561 1
-3 4 -9 1929.07 476.442 1
-1 -3 -9 1268.84 371.847 1
-4 3 -9 1530.65 464.758 1
-1 4 -9 1670.45 424.364 1
1 3 -9 1492.25 386.287 1
-3 -1 -10 2803.42 529.957 1
-4 3 -10 3161.29 594.872 1
-3 4 -10 3678.86 640.774 1
-1 -3 -10 2981.07 506.323 1
1 3 -10 2913.31 534.521 1
-1 4 -10 3742.02 604.299 1
-4 1 -10 3329.49 588.162 1
-4 3 -11 2411.12 570.341 1
-4 1 -11 2558.1 535.728 1
-1 -3 -11 2357.84 495.471 1
-1 4 -11 2236.1 522.788 1
-3 4 -11 2484.71 568.484 1
1 3 -11 2097.58 505.348 1
-3 -1 -11 2242.4 512.149 1
1 3 -12 1349.69 440.603 1
-1 -3 -12 1578.8 484.802 1
-3 -1 -12 1086.54 419.592 1
-4 3 -12 913.075 409.73 1
-3 4 -12 1561.34 498.58 1
-4 1 -12 1343.85 497.194 1
-1 4 -12 1460.71 483.134 1
1 3 -13 1387.01 461.077 1
-3 -1 -13 1928.93 547.042 1
-1 4 -13 789.024 440.585 1
-4 1 -13 1722.87 498.621 1
-1 -3 -13 885.372 449.818 1
-4 3 -13 1237.72 474.741 1
-3 4 -13 1219.87 443.62 1
-3 -1 -14 1383.17 491.153 1
-1 4 -14 1150.68 450.66 1
-3 4 -14 1192.73 494.986 1
-4 1 -14 1035.91 439.645 1
-1 -3 -14 74.6343 364.275 1
-4 3 -14 520.971 389.869 1
-4 3 -15 638.855 264.2 3
-1 4 -15 -310.189 399.399 1
-4 3 -15 -339.847 433.157 1
-1 4 -15 475.109 230.932 3
-4 1 -15 928.039 291.298 3
-3 4 -15 585.86 259.98 3
1 3 -15 704.344 230.738 3
-3 -1 -15 265.322 203.397 3
-4 1 -15 354.277 430.895 1
-3 4 -15 413.119 303.15 1
-3 -1 -15 359.322 458.822 1
-4 1 -16 143.794 234.749 3
-3 -1 -16 315.9 368.575 1
1 -4 -16 -136.204 184.515 3
-3 -1 -16 141.829 207.095 3
3 1 -16 -88.1663 166.618 3
-3 4 -16 -168.181 364.542 1
-1 4 -16 -321.169 253.974 3
-4 3 -16 -70.1156 396.491 1
1 3 -16 172.114 222.74 3
-3 4 -16 -148.42 208.967 3
-4 3 -16 -108.738 180.216 3
-1 4 -16 998.805 534.542 1
-1 -3 -16 -193.962 201.841 3
-4 1 -16 -753.753 587.137 1
-1 -3 -17 642.615 257.962 3
-4 3 -17 386.133 236.699 3
-1 4 -17 355.843 240.904 3
-3 -1 -17 317.319 451.455 1
1 -4 -17 658.238 219.394 3
-4 1 -17 313.756 229.403 3
-4 3 -17 520.789 445.427 1
-3 -1 -17 528.269 299.291 3
-3 4 -17 655.581 543.835 1
3 1 -17 537.904 214.445 3
-3 4 -17 995.616 277.592 3
4 -1 -17 225.626 192.308 3
-4 1 -17 757.557 415.406 1
1 3 -17 1145.22 336.488 3
-3 4 -18 -849.174 507.956 1
3 1 -18 224.281 229.682 3
-4 1 -18 -5.36961 369.444 1
-3 4 -18 -49.6286 257.604 3
-4 3 -18 192.338 350.644 1
4 -1 -18 17.6195 203.217 3
1 3 -18 164.093 202.924 3
-1 -3 -18 357.836 217.668 3
-4 1 -18 221.679 238.831 3
-3 -1 -18 242.62 217.599 3
-1 4 -18 364.509 241.211 3
1 -4 -18 246.156 210.707 3
-4 3 -18 677.518 308.145 3
-1 -3 -19 100.36 223.415 3
-3 -1 -19 -139.194 256.93 3
-4 1 -19 -33.4748 245.638 3
1 -4 -19 141.02 192.627 3
3 1 -19 -170.799 242.867 3
4 -1 -19 643.268 228.555 3
-4 3 -19 113.699 261.876 3
-3 4 -19 217.746 248.732 3
-1 4 -19 -192.789 274.732 3
1 3 -19 -90.4349 226.317 3
3 1 -20 258.809 228.17 3
-1 4 -20 351.702 262.879 3
1 -4 -20 162.22 204.846 3
-1 -3 -20 410.189 278.791 3
1 3 -20 268.667 246.22 3
-3 4 -20 -182.263 252.824 3
-4 3 -20 -29.1012 272.594 3
-4 1 -20 522.431 314.629 3
-3 -1 -20 -144.699 272.38 3
1 -4 -21 -5.96661 181.399 3
1 3 -21 -164.277 220.14 3
-3 -1 -21 119.088 247.112 3
-1 4 -21 505.68 309.03 3
-4 3 -21 -16.5535 288.502 3
-1 -3 -21 293.932 231.352 3
3 1 -21 156.156 232.978 3
-4 1 -21 157.24 262.445 3
-3 4 -21 188.833 291.226 3
-3 4 -22 83.9893 238.126 3
-1 -3 -22 235.981 204.037 3
-4 1 -22 498.017 274.859 3
-3 -1 -22 38.4947 243.025 3
-4 3 -22 103.646 245.058 3
3 1 -22 -295.737 223.815 3
1 3 -22 -85.55 201.791 3
-1 4 -22 160.794 233.689 3
-3 4 -23 -64.2045 235.597 3
-4 3 -23 -312.794 260.044 3
-4 1 -23 -348.823 238.3 3
1 3 -23 142.515 203.178 3
-1 4 -23 -267.511 230.999 3
-1 -3 -23 -103.326 167.741 3
-3 -1 -23 114.803 188.37 3
3 1 -23 66.9006 161.757 3
-1 -3 -24 -38.1436 134.016 3
-4 1 -24 162.355 208.34 3
-4 3 -24 268.603 241.379 3
-1 4 -24 -68.4466 188.481 3
-3 4 -24 -321.295 225.821 3
1 3 -24 348.017 201.109 3
-3 -1 -24 -186.728 182.738 3
-4 3 -25 -239.982 198.971 3
-4 1 -25 140.113 167.32 3
-1 4 -25 248.67 187.832 3
-3 -1 -25 89.4699 158.01 3
-3 4 -25 130.405 181.016 3
4 0 0 22719.4 798.643 2
4 0 1 7865.7 469.602 2
0 4 -1 7363.92 268.19 1
4 0 -1 6899.22 446.139 2
0 4 -2 13467.8 472.646 1
4 0 -2 13028.4 594.93 2
4 0 2 13255.7 597.997 2
4 0 3 82738.9 1448.45 2
4 0 -3 82475.6 1464.58 2
0 4 -3 82153.9 1359.67 1
0 4 -4 63122.8 1377.09 1
4 0 -4 61516.3 1280.5 2
4 0 4 60176.5 1263.71 2
0 -4 -4 59003.7 1159.15 1
0 4 -5 17356 811.834 1
0 -4 -5 16722.5 719.476 1
4 0 -5 15873.3 673.96 2
4 0 5 16729.9 675.772 2
-4 0 -6 18851.9 916.933 1
4 0 6 18350.5 711.717 2
0 4 -6 20582.1 966.857 1
0 -4 -6 19243.9 865.203 1
4 0 -6 17413.9 720.869 2
4 0 -7 783.103 201.617 2
0 4 -7 922.535 309.913 1
-4 4 -7 1224.09 372.842 1
0 -4 -7 622.621 271.077 1
4 0 7 842.395 191.099 2
-4 0 -7 1475.13 358.14 1
0 4 -8 157.898 259.917 1
4 -4 -8 252.591 137.84 2
-4 0 -8 250.983 281.519 1
4 -4 8 145.884 122.162 2
0 -4 -8 148.565 247.502 1
-4 4 -8 423.318 293.489 1
0 4 -9 3393.84 552.304 1
-4 0 -9 2945.07 488.302 1
-4 4 -9 3268.52 559.995 1
0 -4 -9 3456.38 520.016 1
-4 4 -10 18654.7 1241.11 1
-4 0 -10 20060.5 1252.17 1
0 -4 -10 19423.2 1197.84 1
0 4 -10 18490.6 1211.35 1
0 -4 -11 1911.94 435.491 1
0 4 -11 1701.8 480.042 1
-4 4 -11 1503.22 510.66 1
-4 0 -11 1703.31 494.844 1
-4 4 -12 9445.42 999.15 1
-4 0 -12 10182.5 1034.19 1
0 4 -12 9178.4 963.001 1
0 4 -13 1079.81 403.973 1
-4 4 -13 591.626 353.182 1
-4 0 -13 1243.61 478.513 1
-4 4 -14 3841.96 730.013 1
-4 0 -14 3771.63 730.192 1
0 4 -14 3198.19 684.964 1
-4 0 -15 -376.783 497.01 1
0 4 -15 1041.25 463.026 1
-4 4 -15 836.959 281.129 3
-4 0 -15 747.68 236.723 3
0 4 -15 749.443 244.606 3
-4 4 -15 588.143 344.087 1
0 -4 -16 456.35 208.702 3
-4 4 -16 109.147 351.323 1
-4 0 -16 304.278 393.186 1
-4 0 -16 67.1018 213.73 3
0 4 -16 -162.733 231.842 3
4 0 -16 44.9825 171.224 3
-4 4 -16 578.267 277.917 3
-4 4 -17 -36.6492 229.813 3
-4 0 -17 -298.456 250.878 3
0 -4 -17 40.5818 190.818 3
-4 4 -17 70.3203 405.25 1
4 0 -17 -24.7586 177.359 3
-4 0 -17 350.793 353.765 1
0 4 -17 -36.0091 226.546 3
-4 0 -18 970.35 298.415 3
-4 4 -18 886.473 289.507 3
-4 4 -18 1609 678.993 1
4 0 -18 769.407 276.834 3
0 -4 -18 513.762 219.173 3
0 4 -18 894.278 314.745 3
-4 0 -18 568.285 451.545 1
-4 0 -19 -25.6074 265.764 3
0 -4 -19 421.245 242.122 3
-4 4 -19 -211.803 289.895 3
4 0 -19 23.6604 192.987 3
0 4 -19 199.378 265.397 3
-4 0 -20 883.589 316.469 3
0 4 -20 513.716 297.048 3
-4 4 -20 1098.17 354.632 3
0 -4 -20 221.29 200.011 3
4 0 -20 611.039 238.387 3
4 0 -21 260.887 201.068 3
-4 0 -21 102.264 237.727 3
0 4 -21 145.74 250.267 3
0 -4 -21 294.592 202.4 3
-4 4 -21 117.057 270.772 3
-4 0 -22 687.03 288.742 3
0 4 -22 343.623 279.541 3
0 -4 -22 86.0499 167.477 3
-4 4 -23 40.9315 229.86 3
0 4 -23 -120.311 204.132 3
-4 0 -23 -159.022 249.948 3
0 4 -24 -57.66 198.432 3
-4 0 -24 -105.471 185.943 3
-4 4 -25 280.381 185.139 3
-4 0 -25 101.02 163.699 3
5 -2 0 3440.73 362.595 2
3 2 0 3310.67 350.45 2
3 2 1 44738.1 1145.3 2
5 -2 1 40890.7 1111.65 2
3 2 -1 43209.5 1127.87 2
5 -2 -1 43032.1 1117.32 2
3 2 2 11351.4 614.335 2
3 2 -2 11983.8 622.391 2
-2 -3 -2 9989.84 352.302 1
5 -2 -2 11581.3 619.3 2
5 -2 2 10784.7 576.77 2
5 -2 -3 4667.79 417.106 2
-2 -3 -3 4150.49 306.771 1
5 -2 3 4488.71 398.427 2
3 2 -3 4789.22 428.21 2
3 2 3 3900.48 378.671 2
5 -2 -4 1865.05 314.542 2
-2 5 -4 2251.42 314.69 1
5 -3 -4 2508.32 320.664 2
-2 -3 -4 2593.48 304.112 1
-3 -2 -4 2017.8 267.227 1
3 2 4 2182.94 305.667 2
3 2 -4 2406.25 325.213 2
5 -3 4 2554.08 314.926 2
5 -2 4 2142.49 297.482 2
2 3 -5 4225.8 452.043 1
5 -3 -5 3547.51 404.714 2
5 -2 -5 3981.48 389.962 2
-3 -2 -5 3994.39 401.858 1
5 -3 5 2843.23 350.217 2
-2 5 -5 4039.14 427.907 1
5 -2 5 4064.13 360.613 2
-2 -3 -5 4230.41 398.716 1
-3 -2 -6 224.154 217.799 1
2 3 -6 724.456 268.038 1
5 -3 6 516.12 201.933 2
5 -2 -6 627.451 191.78 2
-2 -3 -6 403.036 213.703 1
5 -2 6 429.575 194.551 2
5 -3 -6 629.057 193.725 2
-2 5 -6 766.777 299.625 1
-3 5 -6 673.298 315.47 1
2 3 -7 659.26 299.716 1
5 -2 -7 422.951 176.36 2
-3 -2 -7 417.741 273.87 1
5 -3 7 703.791 205.895 2
-3 5 -7 144.135 283.927 1
5 -2 7 631.388 189.539 2
5 -3 -7 309.169 179.353 2
-2 -3 -7 343.459 263.917 1
-2 5 -7 115.46 255.566 1
2 3 -8 593.629 272.251 1
5 -2 8 90.4562 132.412 2
5 -3 -8 91.4254 140.891 2
5 -3 8 170.754 131.242 2
5 -2 -8 154.808 142.506 2
-2 5 -8 596.886 347.895 1
-5 2 -8 254.529 324.269 1
-2 -3 -8 585.921 281.939 1
-3 5 -8 471.437 292.88 1
-3 -2 -8 390.629 261.662 1
-5 3 -8 308.991 330.773 1
-2 -3 -9 8884.85 788.725 1
-3 5 -9 7795.66 778.553 1
5 -3 -9 6669.25 427.985 2
-5 2 -9 7958.43 786.375 1
5 -2 -9 6336.31 421.869 2
-2 5 -9 8651.03 817.697 1
-5 3 -9 7390.72 748.767 1
2 3 -9 8638.58 799.462 1
-3 -2 -9 9162.27 811.901 1
-3 5 -10 6210.57 760.359 1
2 3 -10 5618.93 678.441 1
-5 3 -10 5357.9 711.596 1
-2 5 -10 5920.97 737.207 1
-2 -3 -10 5012.39 624.921 1
-3 -2 -10 6212.09 714.732 1
-5 2 -10 5132.27 704.943 1
-2 5 -11 2452.01 560.213 1
-2 -3 -11 2981.14 532.877 1
-3 5 -11 2589.29 561.11 1
-5 3 -11 2240.97 532.563 1
-3 -2 -11 2569.21 515.202 1
-5 2 -11 3518.22 658.799 1
-3 5 -12 149.739 293.578 1
-2 -3 -12 443.69 351.999 1
-5 2 -12 -207.895 340.641 1
-3 -2 -12 135.927 315.27 1
-5 3 -12 80.1326 377.978 1
-2 5 -12 -280.076 365.798 1
-3 5 -13 620.493 440.633 1
-5 2 -13 -104.74 320.239 1
-3 -2 -13 520.387 351.748 1
-2 5 -13 873.766 422.964 1
-5 3 -13 109.413 332.087 1
-2 -3 -13 1449.73 455.319 1
-2 5 -14 532.664 340.748 1
-5 3 -14 372.194 408.022 1
-5 2 -14 668.016 458.691 1
-2 -3 -14 630.162 400.257 1
-3 5 -14 626.619 380.249 1
-3 -2 -14 1726.15 582.721 1
-3 5 -15 588.878 235.707 3
-5 2 -15 497.391 364.222 1
-3 -2 -15 482.357 218.677 3
-3 -2 -15 -29.3815 324.617 1
-5 3 -15 40.7636 218.339 3
-3 5 -15 1051.35 465.962 1
3 2 -15 499.551 214.878 3
-2 -3 -15 519.21 224.791 3
-5 2 -15 270.354 187.363 3
-2 5 -15 718.043 228.767 3
-2 5 -15 -33.1353 313.624 1
-2 -3 -15 467.802 371.962 1
2 3 -15 691.865 231.671 3
-5 3 -15 808.38 469.72 1
-5 2 -16 487.243 434.078 1
-5 3 -16 346.184 254.637 3
-3 5 -16 452.905 396.796 1
-2 -3 -16 524.913 249.773 3
-5 3 -16 622.145 448.124 1
-5 2 -16 330.048 194.1 3
-2 5 -16 -123.912 214.696 3
-2 5 -16 232.99 374.758 1
-3 5 -16 126.717 218.216 3
-3 -2 -16 352.897 241.789 3
3 2 -16 -215.191 227.109 3
-2 5 -16 242.099 197.837 5
2 3 -16 263.065 188.382 3
-3 -2 -16 685.453 436.358 1
-2 -3 -17 161.776 253.899 3
-2 5 -17 1207.49 542.002 1
3 2 -17 -39.7993 199.851 3
2 3 -17 -14.5335 222.48 3
-5 2 -17 720.665 468.818 1
-3 5 -17 260.231 238.407 3
-5 3 -17 106.618 250.871 3
-5 3 -17 -634.493 527.864 1
-3 5 -17 498.46 459.552 1
-5 2 -17 736.196 295.115 3
-2 5 -17 143.721 273.751 3
-3 -2 -17 495.494 263.549 3
-3 5 -17 -256.533 196.253 5
2 3 -18 156.087 226.098 3
-3 -2 -18 50.8638 216.859 3
-5 3 -18 -357.9 280.617 3
-5 3 -18 -795.847 496.825 1
-2 5 -18 25.2354 230.003 3
3 2 -18 65.0398 230.288 3
-2 -3 -18 189.296 225.127 3
-3 5 -18 577.488 276.598 3
-3 5 -18 445.706 398.542 1
-5 2 -18 -481.271 374.619 1
-5 2 -18 -223.555 261.428 3
-2 5 -19 80.1581 255.82 3
2 3 -19 26.3201 219.207 3
-3 -2 -19 -41.7138 229.872 3
3 2 -19 171.839 210.349 3
-5 2 -19 557.556 314.44 3
-2 -3 -19 308.352 243.045 3
-3 5 -19 498.489 339.74 3
-5 3 -19 234.264 293.052 3
-2 -3 -20 516.401 253.269 3
-5 2 -20 328.683 315.509 3
2 3 -20 -70.3399 247.983 3
-2 5 -20 486.294 269.701 3
3 2 -20 -298.52 231.355 3
-5 3 -20 508.447 283.677 3
-3 5 -20 -53.0152 253.673 3
-3 -2 -20 -84.8434 221.233 3
-5 3 -21 77.5728 267.833 3
-2 5 -21 273.539 279.008 3
2 3 -21 -10.953 255.144 3
-5 2 -21 357.121 261.285 3
-3 5 -21 397.82 302.728 3
-3 -2 -21 45.5537 224.19 3
3 2 -21 -14.4593 202.987 3
-2 -3 -21 -101.124 221.825 3
-5 3 -22 119.116 276.083 3
3 2 -22 206.121 205.247 3
2 3 -22 184.555 223.115 3
-2 -3 -22 148.468 201.654 3
-5 2 -22 -204.308 241.36 3
-3 -2 -22 619.92 269.855 3
-3 5 -22 -234.216 265.798 3
-2 5 -22 -352.133 274.548 3
-5 2 -23 -171.205 234.889 3
3 2 -23 244.213 168.855 3
-3 5 -23 -99.6379 225.983 3
-2 -3 -23 -49.1539 169.677 3
-5 3 -23 -448.998 262 3
-3 -2 -23 224.829 226.438 3
-2 5 -23 127.6 218.837 3
2 3 -23 59.6656 205.391 3
-2 -3 -24 8.95851 138.484 3
-2 5 -24 321.358 214.061 3
-3 -2 -24 -50.1132 183.823 3
-3 5 -24 187.24 199.327 3
-5 3 -24 58.3247 209.65 3
-5 2 -24 -239.679 199.772 3
-2 5 -25 149.911 161.165 3
-3 -2 -25 -118.214 161.3 3
-5 2 -25 14.8647 170.262 3
-5 3 -25 152.463 190.976 3
-3 5 -25 23.6436 165.875 3
4 1 0 63967.3 1380.55 2
5 -1 0 64104.9 1396.21 2
5 -1 1 3526.89 385.626 2
4 1 1 3505.18 391.648 2
4 1 -1 3604.82 388.864 2
5 -1 -1 3687.38 389.423 2
5 -1 -2 23834.9 867.865 2
4 1 2 24036.6 851.142 2
-1 5 -2 23319.2 644.188 1
4 1 -2 24061.3 862.331 2
5 -1 2 23391 848.205 2
1 4 -2 24945.5 621.178 1
4 1 -3 79061.9 1599.83 2
5 -1 3 82301.1 1592.83 2
4 1 3 79993.7 1578.51 2
-1 -4 -3 79339.4 1095.99 1
5 -1 -3 79314.7 1623.85 2
1 4 -3 81631.3 1376.83 1
-1 5 -3 76302.9 1352.27 1
4 1 -4 815.903 245.555 2
-1 5 -4 965.692 260.429 1
5 -1 -4 1388.17 282.75 2
5 -1 4 897.255 231.186 2
-1 -4 -4 1088.74 204.251 1
4 1 4 1083.86 254.225 2
1 4 -4 933.545 232.477 1
-1 -4 -5 28184.9 925.738 1
1 4 -5 28680.8 1047.53 1
4 1 -5 28032.4 969.867 2
5 -1 -5 29007 981.117 2
4 1 5 28286.4 957.964 2
-1 5 -5 28134.7 1067.24 1
5 -1 5 28790.4 946.827 2
-4 -1 -6 3342.63 446.783 1
4 1 6 3477.03 355.292 2
-1 -4 -6 3339.92 381.55 1
1 4 -6 3388.49 437.997 1
-1 5 -6 3169.83 430.247 1
5 -1 -6 3382.5 346.727 2
4 1 -6 3332.36 353.232 2
5 -1 6 3012.59 324.666 2
5 -4 -7 509.703 169.006 2
-1 5 -7 683.659 291.441 1
-4 -1 -7 625.097 270.498 1
5 -1 7 390.128 171.741 2
5 -1 -7 284.365 169.219 2
-5 1 -7 371.019 281.702 1
-4 5 -7 996.59 358.511 1
5 -4 7 774.995 201.115 2
-1 -4 -7 586.059 229.155 1
1 4 -7 676.726 250.726 1
-1 5 -8 10429.1 831.703 1
5 -1 -8 8404.18 522.135 2
-5 4 -8 8729.31 767.877 1
-4 5 -8 9977.45 816.227 1
5 -4 -8 8261.83 526.469 2
5 -1 8 8039.63 507.853 2
-4 -1 -8 8831.93 744.736 1
1 4 -8 9028.64 758.824 1
-1 -4 -8 9543.6 737.517 1
-5 1 -8 8742.42 749.746 1
5 -4 8 8859.33 520.176 2
1 4 -9 8761.66 812.45 1
5 -1 -9 7903.58 492.357 2
-5 1 -9 9828.58 859.167 1
-1 5 -9 9401.66 831.492 1
5 -4 -9 8490.53 511.334 2
-1 -4 -9 9776.61 803.075 1
-4 5 -9 8771.35 831.884 1
-4 -1 -9 9035.16 822.103 1
-5 4 -9 10503 904.332 1
-1 5 -10 15244.1 1110.54 1
-4 -1 -10 15436.3 1121.88 1
-4 5 -10 13977.6 1094.27 1
1 4 -10 15843.6 1127.56 1
-5 4 -10 15664.9 1137.87 1
-5 1 -10 15544.9 1151.41 1
-1 -4 -10 15900.1 1085.99 1
-4 -1 -11 10855.7 993 1
-1 -4 -11 11851.8 1030.71 1
1 4 -11 11553.2 1027.36 1
-1 5 -11 11595.5 1049.85 1
-5 1 -11 11380.1 1049.96 1
-4 5 -11 12217.1 1087.37 1
-5 4 -11 10905.4 1042.15 1
-5 4 -12 435.529 318.362 1
-1 -4 -12 97.2794 283.89 1
-4 -1 -12 -62.1998 295.051 1
-4 5 -12 79.9304 343.105 1
-1 5 -12 -118.117 367.805 1
-5 1 -12 -735.682 433.098 1
1 4 -12 368.817 326.759 1
1 4 -13 7053.55 915.956 1
-1 5 -13 7326.04 934.123 1
-5 1 -13 6913.4 929.052 1
-5 4 -13 7282.23 1004.51 1
-4 5 -13 8411.57 1042.79 1
-4 -1 -13 6216.6 886.618 1
-5 4 -14 2259.11 673.477 1
-5 1 -14 1682.19 583.921 1
-4 -1 -14 1921.47 645.756 1
-4 5 -14 1769.14 555.614 1
-1 5 -14 977.924 369.612 1
-4 5 -15 11.9275 454.038 1
-5 1 -15 474.004 319.845 1
-4 -1 -15 241.721 378.422 1
1 4 -15 490.732 221.728 3
-5 1 -15 -22.2069 202.135 3
-4 5 -15 292.225 194.897 3
-5 4 -15 219.548 381.578 1
-4 -1 -15 136.997 202.283 3
-1 5 -15 428.45 239.434 3
-1 5 -15 -40.2696 378.78 1
-1 -4 -15 170.826 159.575 3
-5 4 -15 242.784 200.897 3
-5 4 -16 -108.513 192.162 3
-5 4 -16 123.726 330.259 1
-5 1 -16 110.728 389.469 1
-4 -1 -16 1147.23 502.009 1
-1 -4 -16 249.362 214.282 3
-4 5 -16 1.60799 411.097 1
1 4 -16 -277.207 248.463 3
-1 5 -16 36.8878 234.549 3
4 1 -16 357.228 237.197 3
-5 1 -16 -12.8013 211.279 3
-4 -1 -16 -65.6123 210.228 3
-4 5 -16 102.777 210.322 3
-1 5 -16 -28.2465 390.742 1
-1 5 -17 2262.56 405.076 3
-4 -1 -17 2599.91 395.65 3
-5 1 -17 1875.04 650.552 1
-5 4 -17 2639.95 696.713 1
-1 -4 -17 1691.22 330.268 3
-4 5 -17 2545.27 399.22 3
1 4 -17 2298.07 360.743 3
4 1 -17 2018.14 335.351 3
-5 1 -17 2385.16 403.421 3
1 -5 -17 1399.66 260.046 3
-5 4 -17 1978.04 392.139 3
-4 5 -17 2707.74 744.334 1
-4 -1 -17 1598.72 603.317 1
-1 5 -18 49.6432 234.576 3
-4 5 -18 -213.846 459.236 1
-5 4 -18 -258.69 275.956 3
-4 -1 -18 113.622 230.148 3
-4 5 -18 -101.279 168.417 5
4 1 -18 202.382 218.842 3
-4 5 -18 86.0552 231.197 3
1 4 -18 -68.7002 226.925 3
-5 1 -18 783.806 346.587 3
1 -5 -18 26.7206 171.915 3
-5 4 -18 -59.6777 474.296 1
-5 1 -18 -627.33 593.525 1
-1 -4 -18 51.9733 217.885 3
-5 4 -19 1780.5 415.74 3
-1 -4 -19 1581.27 324.473 3
4 1 -19 1960.92 317.015 3
-4 -1 -19 1919.19 401.097 3
1 4 -19 2220.02 392.497 3
-1 5 -19 2045.39 402.14 3
-4 5 -19 2697.75 467.018 3
-5 1 -19 1759.85 389.132 3
-1 5 -20 -56.6726 241.575 3
-4 5 -20 -35.5647 275.713 3
4 1 -20 153.245 198.221 3
-5 4 -20 -155.211 285.976 3
-1 -4 -20 5.41515 190.711 3
1 4 -20 -284.148 298.227 3
-5 1 -20 -287.658 296.308 3
-4 -1 -20 -54.2053 241.419 3
-4 5 -21 949.596 341.061 3
-1 -4 -21 493.659 250.171 3
-1 5 -21 1076.52 344.428 3
4 1 -21 491.596 265.769 3
-5 4 -21 900.847 334.226 3
-5 1 -21 787.348 304.194 3
-4 -1 -21 769.396 300.26 3
1 4 -21 946.605 311.182 3
-1 5 -22 300.716 241.417 3
4 1 -22 438.964 211.064 3
-5 1 -22 671.653 273.827 3
1 4 -22 290.119 232.492 3
-4 5 -22 -300.059 290.509 3
-5 4 -22 299.718 270.783 3
-1 -4 -22 302.305 182.676 3
-4 -1 -22 185.058 267.673 3
-1 5 -23 -307.96 215.67 3
-4 5 -23 -230.436 232.444 3
-1 -4 -23 -89.6123 153.132 3
-5 1 -23 264.072 253.475 3
-4 -1 -23 -17.5813 208.834 3
1 4 -23 -130.695 193.908 3
-5 4 -23 12.2496 223.775 3
-5 4 -24 197.424 215.477 3
-4 -1 -24 146.864 172.393 3
-5 1 -24 116.769 193.356 3
-4 5 -24 204.132 215.445 3
-1 5 -24 -80.8082 206.338 3
-5 4 -25 -19.5416 188.878 3
-4 5 -25 107.766 171.95 3
-4 -1 -25 141.247 167.614 3
-5 1 -25 80.8601 159.865 3
5 0 0 4713.68 425.447 2
0 5 -1 3211.86 195.098 1
5 0 -1 2993.75 359.914 2
5 0 1 3385.44 398.88 2
5 0 -2 16104.6 744.241 2
0 5 -2 17075.4 542.561 1
5 0 2 17598.8 769.362 2
5 0 3 50687.8 1301.96 2
0 5 -3 50658.1 1110.73 1
5 0 -3 51223.3 1317.64 2
0 5 -4 126164 1969.95 1
5 0 -4 128990 2079.49 2
5 0 4 123028 2036.79 2
5 0 5 36527.9 1113.83 2
5 0 -5 37357.5 1147.11 2
0 5 -5 37916.3 1221.77 1
5 0 6 21472.4 870.953 2
5 0 -6 21123.9 881.425 2
0 5 -6 22953.3 1027.18 1
5 0 -7 15666.1 764.436 2
-5 0 -7 17172.4 972.447 1
5 0 7 14726.9 756.863 2
0 5 -7 16684.7 965.145 1
-5 0 -8 7183.12 688.591 1
5 0 -8 6277.31 493.085 2
-5 5 -8 8384.44 776.685 1
5 0 8 7256.02 518.536 2
0 5 -8 7725.08 714.173 1
0 5 -9 22569.4 1263.14 1
-5 5 -9 21502.7 1280.69 1
5 -5 -9 18973.7 812.969 2
-5 0 -9 22402.4 1256.23 1
-5 0 -10 18404.9 1247.62 1
0 5 -10 18256.2 1220.09 1
-5 5 -10 17709.8 1251.63 1
-5 0 -11 3991.15 651.635 1
0 5 -11 4773.07 678.512 1
-5 5 -11 5523.77 827.083 1
-5 0 -12 21125.9 1470.96 1
0 5 -12 20156.7 1423.6 1
-5 5 -12 20959.3 1498.13 1
0 5 -13 2403.17 577.582 1
-5 0 -13 1380.05 461.89 1
-5 5 -13 2251.43 620.471 1
0 5 -14 8186.39 1011.45 1
-5 5 -14 7789.88 990.364 1
-5 0 -14 7143.06 981.42 1
-5 0 -15 1924.87 343.845 3
0 5 -15 2026.85 337.2 3
0 -5 -15 1112.43 258.36 3
-5 5 -15 2200.68 354.121 3
-5 0 -15 953.442 454.079 1
-5 5 -15 2428.45 707.229 1
-5 5 -16 528.845 278.267 3
-5 0 -16 338.789 382.749 1
-5 0 -16 685.668 288.515 3
0 5 -16 912.016 296.877 3
0 -5 -16 180.889 173.42 3
-5 5 -16 795.907 422.642 1
-5 0 -17 1886.7 396.917 3
-5 0 -17 1421.47 589.375 1
-5 5 -17 1552.35 354.247 3
0 -5 -17 1733.68 313.323 3
0 5 -17 1804.51 390.856 3
-5 5 -17 2368.31 734.082 1
5 0 -17 980.822 273.151 3
0 -5 -18 1664.14 315.225 3
-5 5 -18 1191.58 697.602 1
-5 0 -18 2213.5 406.63 3
-5 5 -18 3027.05 474.236 3
0 5 -18 2183.56 407.793 3
-5 0 -18 1821.68 631.833 1
5 0 -18 1946.96 325.288 3
-5 5 -19 215.025 200.5 5
-5 0 -19 -104.017 280.572 3
-5 5 -19 848.365 317.816 3
0 5 -19 493.012 281.47 3
0 -5 -19 228.296 208.585 3
-5 5 -20 1029.69 327.158 3
0 -5 -20 1138.18 257.13 3
-5 0 -20 1082.1 365.287 3
0 5 -20 1075.33 318.992 3
-5 5 -21 301.056 275.4 3
-5 0 -21 1114.06 311.036 3
0 -5 -21 405.418 210.088 3
0 5 -21 610.84 287.012 3
-5 5 -22 594.175 317.715 3
-5 0 -22 412.804 250.435 3
0 5 -22 575.237 270.243 3
-5 5 -23 7.69383 230.701 3
-5 0 -23 -23.6036 215.191 3
0 5 -23 264.565 246.412 3
-5 0 -24 60.3709 194.78 3
0 5 -24 -89.8201 198.353 3
-5 5 -24 -86.7507 222.128 3
-5 5 -25 193.391 201.598 3
-5 0 -25 70.1465 153.49 3
6 -3 0 4928.52 440.03 2
6 -3 -1 -8.44416 232.624 2
6 -3 1 -7.56648 229.25 2
6 -3 -2 20101.2 868.008 2
6 -3 2 21081.2 856.566 2
6 -3 3 -14.1093 228.169 2
-3 -3 -3 81.6825 136.366 1
6 -3 -3 26.687 205.32 2
6 -3 4 22699 941.938 2
-3 -3 -4 22377.9 767.227 1
6 -3 -4 24284.3 946.628 2
6 -3 -5 235.667 191.403 2
-3 -3 -5 -112.572 211.129 1
6 -3 5 45.2947 182.353 2
-3 6 -6 2497.49 374.725 1
6 -3 6 2975.84 360.138 2
6 -3 -6 2401.39 335.908 2
-3 -3 -6 2575.62 402.073 1
6 -3 7 63.8916 161.333 2
-3 6 -7 205.001 271.78 1
-3 -3 -7 25.6255 222.261 1
6 -3 -7 -63.3752 162.305 2
-3 -3 -8 4307.16 562.666 1
-3 6 -8 4661.99 609.81 1
6 -3 -8 4309.09 418.644 2
6 -3 8 4222.9 406.317 2
-3 6 -9 77.3731 316.082 1
-6 3 -9 -276.963 327.618 1
6 -3 9 -125.453 154.895 2
6 -3 -9 -192.444 158.408 2
-3 -3 -9 138.821 275.557 1
-3 -3 -10 8151.31 815.489 1
-3 6 -10 6796.58 795.132 1
-6 3 -10 7825.37 860.043 1
-6 3 -11 -269.656 317.41 1
-3 6 -11 -33.1869 355.764 1
-3 -3 -11 -227.614 251.941 1
-3 -3 -12 844.108 404.631 1
-3 6 -12 1493.69 471.841 1
-6 3 -12 891.889 431.029 1
-6 3 -13 -391.348 339.897 1
-3 -3 -13 207.103 325.153 1
-3 6 -13 -31.0207 315.232 1
-3 -3 -14 3535.27 731.708 1
-3 6 -14 4163.12 769.768 1
-6 3 -14 3322.35 710.079 1
-3 6 -15 352.153 377.363 1
-6 3 -15 -11.2813 216.176 3
-3 -3 -15 -66.493 340.802 1
3 3 -15 212.155 192.257 3
-6 3 -15 26.2113 305.063 1
-3 -3 -15 38.6396 199.66 3
-3 6 -15 102.521 227.904 3
3 3 -16 872.989 247.284 3
-3 6 -16 497.003 209.671 5
-6 3 -16 803.074 294.177 3
-3 6 -16 1040.45 302.117 3
-6 3 -16 1263.07 468.526 1
-3 6 -16 653.673 334.817 1
-3 -3 -16 1018.91 258.67 3
3 3 -17 352.428 222.052 3
-3 -3 -17 7.81395 226.359 3
-6 3 -17 529.589 447.148 1
-3 6 -17 1.7523 464.543 1
-3 6 -17 -11.0431 211.53 3
-3 6 -17 -54.9722 202.073 5
-6 3 -17 -229.185 236.181 3
-6 3 -18 158.929 290.425 3
-3 6 -18 202.759 173.568 5
3 3 -18 184.655 237.232 3
-3 6 -18 598.669 310.023 3
-3 6 -18 260.792 506.182 1
-3 -3 -18 -170.201 264.431 3
-6 3 -18 1281.35 671.777 1
-3 6 -19 334.342 300.118 3
-3 6 -19 -118.231 178.938 5
-6 3 -19 -290.282 288.062 3
-3 -3 -19 -101.594 231.767 3
3 3 -19 -14.4521 221.203 3
-3 -3 -20 217.248 251.097 3
-6 3 -20 12.7597 285.097 3
3 3 -20 51.116 219.731 3
-3 6 -20 -91.7429 253.423 3
-3 -3 -21 -3.23786 218.307 3
3 3 -21 60.3293 209.106 3
-6 3 -21 -372.253 301.71 3
-3 6 -21 284.238 262.193 3
-3 -3 -22 151.696 227.493 3
-3 6 -22 285.993 275.837 3
-6 3 -22 -302.447 297.974 3
3 3 -22 318.728 242.606 3
-3 6 -23 -151.219 241.143 3
-3 -3 -23 -203.912 192.446 3
-6 3 -23 331.801 224.354 3
-3 -3 -24 -109.796 177.872 3
-6 3 -24 187.74 211.001 3
-3 6 -24 -125.819 224.088 3
-3 -3 -25 23.5833 101.183 3
-6 3 -25 156.61 170.156 3
-3 6 -25 85.0354 174.282 3
6 -2 0 2987.88 383.897 2
4 2 0 2472.36 367.102 2
6 -2 -1 30139.2 1096.11 2
4 2 -1 33813.3 1112.64 2
4 2 1 32783.4 1089.45 2
6 -2 1 32833.9 1082.34 2
6 -2 -2 6228.02 505.726 2
4 2 -2 6756.18 515.577 2
4 2 2 6073.85 498.424 2
-2 -4 -2 5933.62 231.165 1
6 -2 2 5600.58 472.752 2
6 -2 -3 18886 834.872 2
4 2 -3 17775.1 839.853 2
6 -2 3 18698.7 823.45 2
4 2 3 17693.4 800.131 2
-2 -4 -3 17422.1 538.016 1
-2 6 -4 6312.2 488.689 1
6 -2 -4 6607.49 539.753 2
-2 -4 -4 6336.91 400.651 1
6 -2 4 7076.65 535.682 2
4 2 -4 6762.97 542.477 2
4 2 4 7222.07 537.773 2
-4 -2 -5 613.356 229.24 1
4 2 -5 581.015 215.771 2
6 -4 5 809.191 234.074 2
6 -2 -5 864.463 238.445 2
6 -4 -5 741.651 247.111 2
4 2 5 945.139 262.757 2
-2 6 -5 781.376 252.6 1
-2 -4 -5 737.31 215.393 1
6 -2 5 835.72 244.828 2
6 -4 -6 775.431 262.063 2
-2 -4 -6 636.717 239.899 1
6 -2 -6 794.964 220.424 2
-4 -2 -6 444.917 229.472 1
6 -4 6 224.261 176.088 2
-2 6 -6 470.227 254.138 1
6 -2 6 563.874 218.019 2
2 4 -6 691.978 256.413 1
2 4 -7 223.605 272.034 1
-4 -2 -7 96.5205 225.286 1
-2 -4 -7 128.12 222.474 1
-4 6 -7 280.077 250.19 1
6 -2 -7 253.87 183.065 2
-2 6 -7 319.159 327.447 1
6 -2 7 236.796 170.985 2
6 -4 7 242.773 169.204 2
6 -4 -7 79.7325 183.063 2
6 -4 -8 2298.18 344.829 2
-2 6 -8 2297.53 446.221 1
-6 2 -8 2500.47 479.269 1
-4 -2 -8 3688.4 534.851 1
2 4 -8 3145.34 511.459 1
6 -2 8 2049.96 293.714 2
-2 -4 -8 2589.62 435.524 1
6 -4 8 2396.44 323.065 2
-4 6 -8 2429.84 487.576 1
6 -2 -8 2338.15 330.593 2
6 -2 -9 18354.6 811.133 2
2 4 -9 21781.8 1246.53 1
-6 2 -9 21209.1 1249.29 1
6 -2 9 18956.5 818.389 2
-6 4 -9 21874.6 1296.6 1
-2 -4 -9 22117.4 1184.45 1
-4 -2 -9 23431.9 1269.03 1
6 -4 -9 19155.7 842.746 2
-2 6 -9 21434.6 1244.8 1
-4 6 -9 22322.5 1310.01 1
6 -4 9 19933.8 831.66 2
-4 -2 -10 3915.2 600.938 1
-2 -4 -10 3537.11 547.163 1
-6 2 -10 4182.46 672.781 1
-2 6 -10 3750.11 616.014 1
-6 4 -10 3992.13 637.911 1
-4 6 -10 3705.97 645.344 1
-2 -4 -11 7662.16 812.502 1
-6 4 -11 7156.37 888.756 1
-4 -2 -11 8168.09 871.521 1
-6 2 -11 7150.96 863.552 1
-2 6 -11 8350.65 895.657 1
-4 6 -11 8824.26 951.772 1
-2 6 -12 3201.29 659.472 1
-6 4 -12 3724.16 729.46 1
-4 6 -12 2641.73 566.487 1
-2 -4 -12 3385.72 594.023 1
-6 2 -12 2973.71 650.681 1
-4 -2 -12 3189.14 588.934 1
-6 2 -13 3479.03 697.222 1
-4 6 -13 4028.64 764.497 1
-6 4 -13 4106.48 758.704 1
-4 -2 -13 3483.84 657.054 1
-2 -4 -13 3102.21 621.259 1
-2 6 -13 3398.74 652.382 1
-6 4 -14 2206.53 607.194 1
-4 6 -14 1802.99 555.867 1
-2 6 -14 1864.69 594.073 1
-4 -2 -14 862.465 386.852 1
-6 2 -14 2465.9 573.989 1
-4 6 -15 3574.69 774.612 1
-6 4 -15 3923.73 455.885 3
-6 4 -15 4135.29 868.789 1
-4 -2 -15 4115.25 773.833 1
-2 6 -15 3299.7 741.983 1
2 4 -15 3650.64 421.64 3
-2 6 -15 4312.79 469.665 3
-6 2 -15 3502.75 431.299 3
-4 -2 -15 3845.7 431.856 3
-6 2 -15 3749.01 767.903 1
-2 6 -15 3363.1 373.944 5
4 2 -15 3372.63 400.037 3
-4 6 -15 3248.93 421.266 3
-2 -4 -15 3161.91 377.964 3
-2 6 -16 -38.6647 352.477 1
-4 -2 -16 222.98 407.593 1
-2 6 -16 623.892 220.575 5
-2 6 -16 906.094 302.315 3
2 4 -16 284.001 213.546 3
-4 -2 -16 613.948 257.415 3
-4 6 -16 360.029 311.843 1
-6 4 -16 1370.37 330.304 3
-2 -4 -16 766.149 247.999 3
-6 2 -16 556.439 403.036 1
-6 4 -16 736.998 350.135 1
-4 6 -16 528.882 260.349 3
-6 2 -16 967.793 272.853 3
4 2 -16 481.813 241.296 3
-4 -2 -17 51.8053 437.05 1
-4 -2 -17 1216.1 339.953 3
-4 6 -17 838.705 286.983 3
-2 6 -17 -121.456 446.046 1
-2 -4 -17 975.781 308.919 3
-2 6 -17 634.948 291.928 3
2 4 -17 1286.18 315.593 3
-6 2 -17 1845.64 640.414 1
-6 4 -17 1015.41 323.975 3
-6 2 -17 990.824 288.581 3
-4 6 -17 666.787 418.01 1
-2 6 -17 754.53 225.036 5
-6 4 -17 1115.68 470.79 1
4 2 -17 785.636 233.075 3
2 4 -18 1778.75 360.602 3
-4 -2 -18 1051.95 352.52 3
-4 6 -18 1627.43 413.035 3
-6 4 -18 1596.25 381.553 3
-4 6 -18 1118.24 599.187 1
-2 -4 -18 699.965 279.797 3
-6 2 -18 1201.02 335.691 3
-6 4 -18 1011.13 480.794 1
4 2 -18 1174.9 303.93 3
-4 6 -18 1258.8 278.207 5
-2 6 -18 1242.77 346.845 3
-6 2 -18 1005.74 582.159 1
-2 6 -18 1262.9 271.723 5
-4 6 -19 538.044 312.103 3
-6 4 -19 20.7882 258.541 3
-2 -4 -19 404.741 257.006 3
-6 2 -19 -409.388 312.825 3
2 4 -19 52.2464 244.059 3
-2 6 -19 -92.9449 291.361 3
-4 -2 -19 29.1181 235.69 3
4 2 -19 -75.7178 201.627 3
-4 6 -19 -4.4206 185.814 5
-6 4 -20 424.265 321.699 3
-4 -2 -20 958.377 336.695 3
4 2 -20 1026.17 281.043 3
-6 2 -20 1447.06 380.818 3
-4 6 -20 903.36 355.482 3
-2 -4 -20 460.048 222.795 3
2 4 -20 503.626 278.662 3
-2 6 -20 896.528 348.917 3
2 4 -21 424.802 275.107 3
-2 -4 -21 123.033 211.226 3
-6 4 -21 319.678 262.158 3
-4 -2 -21 254.954 234.762 3
-2 6 -21 569.51 307.911 3
-6 2 -21 25.3526 264.772 3
-4 6 -21 454.08 291.674 3
4 2 -21 -223.163 210.532 3
-4 -2 -22 -152.351 219.192 3
-4 6 -22 249.839 248.666 3
4 2 -22 -279.341 242.463 3
-6 2 -22 111.112 255.613 3
-2 6 -22 -40.6435 275.126 3
2 4 -22 267.178 212.398 3
-2 -4 -22 -287.463 203.118 3
-6 4 -22 -16.964 271.153 3
-4 -2 -23 318.536 229.738 3
2 4 -23 511.038 240.749 3
-6 4 -23 607.005 300.492 3
-2 6 -23 400.153 260.96 3
-2 -4 -23 63.7011 164.223 3
-6 2 -23 380.632 254.92 3
-4 6 -23 -219.075 256.925 3
-2 -4 -24 73.9225 136.161 3
-4 6 -24 290.491 213.748 3
-6 4 -24 340.766 235.872 3
-6 2 -24 -87.202 206.887 3
-4 -2 -24 -32.9908 167.537 3
-2 6 -24 -135.37 207.613 3
-6 4 -25 190.304 196.278 3
-4 -2 -25 -55.83 130.319 3
-6 2 -25 -155.486 189.445 3
-4 6 -25 115.965 171.953 3
5 1 0 3287.83 395.879 2
6 -1 0 3789.39 418.491 2
5 1 1 31683.5 1102.95 2
5 1 -1 31917.3 1088.95 2
6 -1 -1 33338.6 1124.88 2
6 -1 1 31335.9 1105.87 2
6 -1 2 17052.8 816.714 2
-1 6 -2 15855.9 559.565 1
6 -1 -2 16984.7 820.367 2
5 1 -2 17507.3 820.734 2
5 1 2 17561.6 816.487 2
1 5 -3 32956.7 880.871 1
5 1 3 32554.2 1135.85 2
5 1 -3 34843.6 1160.13 2
-1 6 -3 30614.5 891.696 1
6 -1 3 34458.3 1140.14 2
6 -1 -3 34910.4 1154.22 2
1 5 -4 79910.4 1574.64 1
-1 6 -4 77863.5 1597.28 1
6 -1 -4 84376.4 1798.89 2
5 1 4 80199.9 1764.49 2
6 -1 4 82046 1733.62 2
5 1 -4 80878 1783.28 2
6 -1 5 11551.1 673.968 2
1 5 -5 11129.7 668.184 1
5 1 5 12470.4 703.307 2
6 -1 -5 12761.3 722.627 2
-1 -5 -5 11421 575.958 1
5 1 -5 12490.6 713.704 2
-1 6 -5 12728.5 727.201 1
6 -1 -6 7384.58 570.709 2
-1 6 -6 7878.67 632.241 1
-1 -5 -6 6750.34 516.658 1
6 -1 6 6456.17 546.822 2
1 5 -6 7552.68 621.946 1
5 1 -6 7735.11 578.774 2
5 1 6 7089.17 556.45 2
-5 -1 -7 10599.1 766.342 1
5 1 7 9452.09 637.327 2
6 -1 -7 10110.8 651.421 2
-1 6 -7 9938.92 756.047 1
6 -1 7 9505.68 607.115 2
1 5 -7 10176 762.792 1
-1 -5 -7 10019.9 671.777 1
5 1 -7 9540.99 639.639 2
-1 6 -8 12591.2 901.132 1
6 -5 8 11304.7 716.546 2
-5 -1 -8 12568.1 884.382 1
6 -1 8 12065.9 696.494 2
-1 -5 -8 12313.7 898.36 1
-5 6 -8 12673.8 961.406 1
-6 1 -8 12366 932.298 1
1 5 -8 12229.3 891.858 1
6 -5 -8 11149 696.24 2
6 -1 -8 10966.7 677.815 2
6 -1 9 14728.8 763.597 2
-1 -5 -9 14676.7 973.491 1
1 5 -9 16722.8 1094.66 1
-1 6 -9 16882.2 1112.4 1
6 -1 -9 12906.4 715.603 2
6 -5 9 14626.2 759.994 2
-6 5 -9 16725.1 1164.86 1
-5 6 -9 15520.2 1112.58 1
-5 -1 -9 16803.9 1110.59 1
6 -5 -9 14558.6 775.752 2
-6 1 -9 14940.3 1067.25 1
-6 1 -10 22182.7 1371.17 1
-1 6 -10 22317.3 1360.69 1
-5 6 -10 23526.2 1450.81 1
-6 5 -10 22675.4 1426.29 1
-1 -5 -10 22270.6 1287.04 1
1 5 -10 22442.3 1340.56 1
-5 -1 -10 23912 1386.74 1
1 5 -11 7295.31 840.026 1
-5 6 -11 7789.99 940.207 1
-1 6 -11 7712.77 873.517 1
-5 -1 -11 6997.42 854.065 1
-6 5 -11 7317.45 873.817 1
-6 1 -11 6797.43 841.137 1
-1 -5 -11 6714.49 758.051 1
-1 6 -12 17759.9 1342.16 1
-6 5 -12 16581.6 1372.8 1
1 5 -12 17049.8 1312.88 1
-6 1 -12 18190.9 1402.72 1
-5 -1 -12 17180.1 1320.13 1
-5 6 -12 20401.6 1514.7 1
-5 -1 -13 4897.54 791.552 1
-1 6 -13 5140.16 817.761 1
-6 5 -13 4817.18 820.181 1
-6 1 -13 4857.13 794.801 1
-5 6 -13 6000.6 926.589 1
-5 -1 -14 4035.7 752.385 1
-5 6 -14 3590.47 409.385 3
-1 6 -14 3339.69 664.161 1
-5 -1 -14 3096.05 400.868 3
-5 6 -14 2693.3 659.765 1
-6 1 -14 3815.65 778.664 1
-6 5 -14 4044.19 794.377 1
-1 6 -14 3324.72 407.868 3
-6 5 -14 3809.51 430.304 3
-6 1 -14 3539.15 423.8 3
-1 6 -15 2572.05 325.564 5
-1 -5 -15 2515.18 348.611 3
-5 6 -15 3153.18 743.744 1
-1 6 -15 3289.76 418.222 3
5 1 -15 2590.1 351.478 3
1 5 -15 3268.27 440.099 3
-5 -1 -15 3374.88 411.553 3
-1 6 -15 3374.22 753.88 1
-6 1 -15 4223.96 850.516 1
-6 5 -15 3762.62 450.72 3
-5 -1 -15 3912.85 775.597 1
-6 5 -15 2907.4 706.911 1
-5 6 -15 3245.63 420.779 3
-6 1 -15 3736.33 453.603 3
-1 6 -16 1579.9 334.449 3
-5 6 -16 1007.37 530.093 1
-6 1 -16 1794.09 360.189 3
-5 -1 -16 1574.62 346.509 3
-1 -5 -16 1224.01 278.89 3
-6 5 -16 1762.23 330.043 3
-1 6 -16 1192.46 256.716 5
1 5 -16 1751.06 364.507 3
5 1 -16 1401.04 277.906 3
-6 5 -16 1956.62 663.855 1
-5 6 -16 1840.1 369.77 3
-5 -1 -16 1555.97 487.319 1
-6 1 -16 1623.47 626.539 1
-1 6 -17 914.035 220.199 5
-5 6 -17 1004.81 516.035 1
1 5 -17 1109.06 346.028 3
5 1 -17 1042.73 278.104 3
-6 1 -17 1688.42 612.804 1
-6 5 -17 1505.25 382.956 3
-1 6 -17 695.314 279.458 3
-6 5 -17 660.577 554.63 1
-1 -5 -17 1250.99 305.395 3
-5 6 -17 1282.73 344.531 3
-5 -1 -17 364.19 361.485 1
-5 -1 -17 1507.13 354.131 3
-6 1 -17 745.998 311.537 3
1 5 -18 3496.84 482.741 3
-5 6 -18 3965.6 508.047 3
5 1 -18 2529.75 389.405 3
-1 -5 -18 3011.26 410.167 3
-5 -1 -18 621.25 403.832 1
-1 6 -18 4365.51 534.646 3
-5 -1 -18 3999.83 503.552 3
-6 1 -18 1087.98 495.612 1
-6 1 -18 4239.33 545.185 3
-6 5 -18 4011.06 515.432 3
5 1 -19 809.74 294.684 3
1 5 -19 1538.96 357.032 3
-5 6 -19 977.426 309.376 3
-1 6 -19 1651.22 364.84 3
-5 -1 -19 1555.93 387.264 3
-6 1 -19 1083.05 341.053 3
-1 -5 -19 873.309 263.064 3
-6 5 -19 1740.46 396.324 3
-5 6 -19 1259.36 328.997 5
-1 -5 -20 1943.65 337.534 3
-6 5 -20 2293.4 419.715 3
-1 6 -20 2183.1 434.005 3
-5 6 -20 1584.67 413.331 3
5 1 -20 1951.47 338.944 3
-5 -1 -20 1799.67 356.08 3
-6 1 -20 1972.27 437.049 3
-6 5 -20 1480.07 287.561 5
-5 6 -20 1552.09 318.967 5
1 5 -20 2339.47 412.351 3
1 5 -21 688.871 286.653 3
-1 -5 -21 701.76 247.631 3
5 1 -21 887.481 241.363 3
-5 6 -21 710.676 327.544 3
-5 -1 -21 657.07 278.93 3
-6 5 -21 843.38 327.329 3
-1 6 -21 914.037 342.927 3
-6 1 -21 1334.1 385.433 3
-5 -1 -22 335.107 242.002 3
-1 -5 -22 416.833 202.952 3
-1 6 -22 745.274 299.884 3
1 5 -22 294.325 234.348 3
-5 6 -22 358.372 292.531 3
-6 5 -22 787.409 321.681 3
-6 1 -22 404.606 268.993 3
-5 6 -23 605.863 274.187 3
-6 1 -23 651.135 257.065 3
-6 5 -23 335.623 252.51 3
-1 6 -23 550.208 257.847 3
1 5 -23 853.333 257.969 3
-5 -1 -23 215.798 222.201 3
-6 1 -24 106.6 191.701 3
-5 6 -24 121.622 215.079 3
-1 6 -24 271.299 218.068 3
-6 5 -24 147.731 243.065 3
-5 -1 -24 -229.743 178.169 3
-5 6 -25 5.35924 186.603 3
-6 5 -25 110.851 190.841 3
-6 1 -25 394.84 188.005 3
-5 -1 -25 214.987 189.049 3
6 0 0 6922.99 546.469 2
6 0 1 27120.2 1056.12 2
6 0 -1 28261.8 1067.34 2
0 6 -1 25581 450.641 1
0 6 -2 1568.83 183.794 1
6 0 2 1247.18 302.061 2
6 0 -2 1399.81 307.277 2
0 6 -3 74018.3 1354.48 1
6 0 3 76124.6 1754.65 2
6 0 -4 16790.2 857.516 2
0 6 -4 16472.9 732.479 1
6 0 4 16963.6 830.623 2
6 0 -5 54506.7 1550.61 2
0 6 -5 53929.6 1467.1 1
6 0 -6 5875.51 541.573 2
6 0 6 5575.87 517.653 2
0 6 -6 5561.62 541.289 1
6 0 -7 3758.54 443.966 2
6 0 7 4321.45 460.63 2
0 6 -7 4873.8 549.25 1
6 0 8 20241.4 946.96 2
-6 0 -8 20896.3 1168.88 1
0 6 -8 20938.1 1157.47 1
6 0 -8 20238.7 942.886 2
6 -6 9 34521.9 1217.46 2
-6 6 -9 39659.9 1792.78 1
0 6 -9 37031.8 1645.68 1
-6 0 -9 35263.9 1601.46 1
6 -6 -9 34987.4 1251.46 2
0 6 -10 5590.56 701.841 1
-6 0 -10 5417.97 718.739 1
-6 6 -10 6668.66 817.775 1
0 6 -11 45314.5 2014.53 1
-6 6 -11 47918.5 2204.53 1
-6 0 -11 47261 2094.93 1
-6 0 -12 1462.78 470.965 1
-6 6 -12 1147.41 427.725 1
0 6 -12 1438.05 462.15 1
0 6 -13 14022.8 1273.56 1
-6 0 -13 15496 1367.62 1
-6 6 -13 15424 1425.46 1
-6 6 -14 8292.03 1129.56 1
-6 6 -14 8837.38 618.544 3
0 6 -14 8260.42 597.597 3
-6 0 -14 7154.17 987.446 1
-6 0 -14 7971.2 604.759 3
0 6 -14 7460.36 966.178 1
0 6 -15 779.942 280.429 3
-6 6 -15 1407.81 320.839 3
-6 6 -15 1362.1 615.035 1
0 -6 -15 917.79 258.663 3
-6 0 -15 718.373 283.217 3
-6 0 -15 676.184 449.565 1
0 6 -15 584.422 172.107 5
0 6 -16 2516.95 333.489 5
0 -6 -16 2285.26 322.752 3
-6 0 -16 3627.63 463.468 3
0 6 -16 2608.67 401.456 3
-6 6 -16 3389.54 450.519 3
-6 6 -16 2208.25 671.483 1
-6 0 -17 2510.51 417.455 3
0 -6 -17 1499.1 271.742 3
-6 6 -17 1832.74 689.999 1
-6 6 -17 2240.08 401.052 3
-6 0 -17 1807.93 585.336 1
0 6 -17 1875.69 381.211 3
0 -6 -18 622.071 256.642 3
-6 6 -18 622.939 310.671 3
0 6 -18 544.623 304.267 3
-6 0 -18 127.739 255.81 3
0 6 -19 4730.48 546.487 3
0 -6 -19 3566.97 422.312 3
-6 0 -19 4717.38 548.539 3
-6 6 -19 5041.02 570.838 3
-6 0 -20 254.768 314.336 3
-6 6 -20 473.317 218.534 5
0 -6 -20 233.023 168.527 3
0 6 -20 742.667 344.393 3
-6 6 -20 419.117 326.262 3
0 6 -21 2028.36 411.734 3
-6 6 -21 2257.22 447.798 3
-6 0 -21 1642.12 405.398 3
0 6 -22 681.795 291.649 3
-6 0 -22 601.65 273.905 3
-6 6 -22 674.565 360.22 3
-6 6 -23 -442.897 298.002 3
0 6 -23 87.5693 219.363 3
-6 0 -23 187.313 217.958 3
-6 0 -24 185.712 188.086 3
-6 6 -24 587.608 263.397 3
-6 6 -25 -147.168 184.971 3
-6 0 -25 4.62055 159.056 3
7 -3 0 8534.62 617.654 2
4 3 0 7766.71 634.812 2
4 3 1 6672.64 573.371 2
4 3 -1 6512.12 564.596 2
7 -3 1 6417.56 567.048 2
7 -3 -1 6327.47 529.71 2
7 -3 2 27529.7 1088.9 2
7 -4 -2 28759 1120.89 2
4 3 2 27329.8 1086.55 2
7 -3 -2 29216.2 1123.13 2
-3 -4 -2 25799.3 555.289 1
4 3 -2 27114 1094.95 2
7 -4 2 29581.2 1091.83 2
-3 -4 -3 714.502 164.487 1
7 -4 3 192.934 230.009 2
7 -3 3 890.571 295.596 2
7 -4 -3 701.225 295.67 2
7 -3 -3 963.294 300.021 2
7 -3 4 12466 740.394 2
7 -4 -4 11394.3 748.014 2
-3 -4 -4 11750 562.039 1
7 -4 4 12937.5 738.117 2
-4 -3 -4 11173 592.855 1
7 -3 -4 11420.7 746.245 2
-3 -4 -5 2262.75 301.295 1
-4 -3 -5 2037.2 314.815 1
-3 7 -5 2043.28 363.309 1
7 -4 5 1988.46 327.251 2
7 -4 -5 2404.41 371.157 2
7 -3 -5 2268.64 384.797 2
7 -3 5 2063.6 349.507 2
-4 7 -6 600.763 299.551 1
-3 7 -6 508.316 268.948 1
7 -4 -6 835.913 286.526 2
7 -3 -6 696.174 227.522 2
-4 -3 -6 631.727 252.594 1
-3 -4 -6 1078.39 273.863 1
7 -4 6 1270.09 288.495 2
7 -3 6 320.394 199.106 2
-3 -4 -7 437.701 238.369 1
7 -4 -7 -29.1492 199.715 2
-4 7 -7 437.956 342.927 1
7 -4 7 440.78 218.483 2
7 -3 7 183.139 195.826 2
-3 7 -7 533.09 299.167 1
7 -3 -7 523.644 224.316 2
-4 -3 -7 371.59 227.644 1
-4 -3 -8 2816.06 442.4 1
7 -4 -8 2947.12 411.788 2
7 -3 -8 2718.06 382.419 2
-3 7 -8 2502.13 472.656 1
-4 7 -8 2398.89 468.666 1
-3 -4 -8 2316.75 401.578 1
7 -3 8 2364.25 345.622 2
7 -4 8 2693.92 368.804 2
-4 7 -9 10039.2 925.12 1
7 -4 -9 8945.98 650.106 2
-3 -4 -9 10487.7 866.257 1
-4 -3 -9 10288.7 862.46 1
7 -3 -9 9214.84 650.218 2
-7 4 -9 11340.6 1013.04 1
7 -4 9 9092.27 635.757 2
-3 7 -9 10322.6 900.66 1
7 -3 9 9627.07 653.65 2
-7 3 -9 11414.1 998.768 1
-7 3 -10 2808.09 617.743 1
-3 7 -10 2677.97 514.624 1
-7 4 -10 2234.7 546.858 1
-3 -4 -10 2258.01 470.306 1
-4 -3 -10 2244.78 482.524 1
-4 7 -10 2833.47 545.391 1
-4 7 -11 1516.7 472.246 1
-3 7 -11 1221.47 416.724 1
-7 4 -11 1502.46 546.636 1
-4 -3 -11 1388.12 403.396 1
-3 -4 -11 1666.76 440.479 1
-7 3 -11 973.819 375.557 1
-3 7 -12 1655.66 520.101 1
-7 3 -12 1641.7 529.171 1
-4 7 -12 1882.16 516.75 1
-3 -4 -12 1110.91 341.586 1
-4 -3 -12 1799.3 485.513 1
-7 4 -12 2370.36 627.64 1
-3 -4 -13 965.175 386.935 1
-4 -3 -13 1664.89 517.575 1
-7 3 -13 1276.19 475.987 1
-3 7 -13 1585.42 543.355 1
-4 7 -13 1560.96 507.616 1
-7 4 -13 1247.82 449.362 1
-7 3 -14 643.695 446.468 1
-4 -3 -14 530.766 290.09 1
-3 7 -14 -123.104 336.084 1
-3 -4 -14 176.988 327.402 1
-4 -3 -14 227.944 215.255 3
-3 7 -14 234.728 196.994 3
-7 3 -14 570.837 226.223 3
-3 -4 -14 605.863 227.552 3
-7 4 -14 803.03 429.996 1
-7 4 -14 189.78 184.312 3
-4 7 -14 353.902 366.269 1
3 4 -14 458.247 237.393 3
-4 7 -14 535.824 234.571 3
-4 -3 -15 1386.79 535.289 1
-3 7 -15 1416.27 524.882 1
-7 3 -15 1688.74 649.438 1
-7 4 -15 1285.34 624.771 1
-7 4 -15 1883.93 367.762 3
-4 -3 -15 1469.87 319.676 3
-3 -4 -15 805.022 236.734 3
3 4 -15 1880.34 330.251 3
-3 7 -15 1755.89 320.23 5
-4 7 -15 689.118 448.636 1
-7 3 -15 1531.19 308.804 3
4 3 -15 1468.97 300.747 3
-3 7 -15 1480.79 320.077 3
-4 7 -15 1665.15 328.791 3
3 4 -16 159.044 207.139 3
-7 4 -16 -667.552 363.256 1
-3 7 -16 -379.033 485.734 1
-4 7 -16 88.2704 197.428 3
-3 -4 -16 184.167 214.032 3
4 3 -16 269.427 228.526 3
-7 3 -16 441.396 277.724 3
-4 7 -16 -424.933 441.201 1
-3 7 -16 318.489 223.123 3
-7 3 -16 103.368 385.037 1
-7 4 -16 28.1381 227.859 3
-4 -3 -16 101.476 197.677 3
-4 -3 -16 139.212 415.323 1
-3 7 -16 -63.2277 186.118 5
-3 7 -17 87.047 186.85 5
-4 7 -17 -181.017 385.291 1
-4 7 -17 129.006 218.653 5
-3 7 -17 -718.63 494.52 1
-4 7 -17 504.583 308.559 3
-7 3 -17 109.206 413.49 1
-4 -3 -17 685.451 311.368 3
-3 7 -17 400.052 276.911 3
3 4 -17 65.0686 230.352 3
-7 4 -17 301.036 385.428 1
-7 4 -17 372.006 277.785 3
-7 3 -17 -54.8954 229.912 3
4 3 -17 227.389 216.158 3
-3 -4 -17 -75.9867 226.66 3
-4 7 -18 1139.69 307.93 5
3 4 -18 1069.62 292.175 3
-4 7 -18 814.086 324.179 3
-3 7 -18 922.676 329.258 3
4 3 -18 940.45 316.02 3
-3 -4 -18 763.092 279.241 3
-4 -3 -18 779.417 297.693 3
-7 4 -18 231.302 250.983 3
-3 7 -18 507.894 248.862 5
-7 3 -18 1249.42 353.939 3
-4 -3 -19 -18.9037 242.203 3
-3 7 -19 164.844 259.883 3
-4 7 -19 -268.777 308.164 3
4 3 -19 76.4928 205.542 3
-7 4 -19 201.281 279.144 3
-4 7 -19 -374.896 251.181 5
-3 -4 -19 55.8096 219.681 3
3 4 -19 95.8789 207.879 3
-7 3 -19 -293.518 296.783 3
-3 7 -19 165.091 191.956 5
-4 7 -20 240.255 324.417 3
-4 7 -20 -134.763 216.783 5
-3 7 -20 209.944 199.6 5
-7 3 -20 914.644 359.467 3
3 4 -20 847.656 285.632 3
-3 7 -20 -335.119 292.399 3
-7 4 -20 458.136 300.144 3
4 3 -20 92.8818 220.269 3
-3 -4 -20 -10.4056 210.193 3
-4 -3 -20 424.279 268.072 3
-7 3 -21 327.629 276.924 3
3 4 -21 336.26 237.672 3
-4 7 -21 -1.59115 297.707 3
4 3 -21 -122.349 186.955 3
-3 7 -21 263.819 263.105 3
-7 4 -21 109.655 270.696 3
-3 -4 -21 303.523 225.582 3
-4 -3 -21 155.815 246.573 3
-7 3 -22 201.811 247.926 3
-3 -4 -22 -52.5754 184.488 3
-7 4 -22 -48.0666 256.113 3
-3 7 -22 166.223 247.246 3
-4 7 -22 -128.335 275.018 3
-4 -3 -22 403.326 244.31 3
-3 -4 -23 535.669 212.742 3
-4 7 -23 179.349 240.544 3
-7 4 -23 863.057 323.062 3
-4 -3 -23 405.249 188.671 3
-3 7 -23 103.716 236.913 3
-7 3 -23 409.281 249.876 3
-7 3 -24 84.2451 220.464 3
-4 -3 -24 -6.85586 162 3
-4 7 -24 -20.0604 193.726 3
-3 -4 -24 69.14 136.838 3
-3 7 -24 305.094 217.887 3
-7 4 -24 -150.219 226.659 3
-7 3 -25 -6.51014 173.881 3
-4 7 -25 -1.22904 177.898 3
-4 -3 -25 2.60579 108.552 3
-7 4 -25 -232.931 193.34 3
7 -2 0 52223.3 1516.45 2
5 2 0 53458.6 1492.99 2
5 2 -1 7729.31 614.347 2
7 -2 1 7644.56 613.935 2
7 -2 -1 8053.13 639.652 2
5 2 1 7676.67 620.862 2
5 2 -2 34417.6 1220.14 2
7 -2 2 36416.9 1248.16 2
5 2 2 36220 1242.11 2
7 -2 -2 35174.4 1269.59 2
7 -2 3 1082.49 297.71 2
-2 -5 -3 601.258 106.114 1
5 2 -3 905.474 285.126 2
5 2 3 833.801 295.189 2
7 -2 -3 885.755 292.519 2
-2 7 -3 790.058 214.871 1
5 2 4 2463.11 375.296 2
7 -2 -4 3259.01 425.436 2
5 2 -4 3253.84 425.26 2
-2 7 -4 2676.88 344.131 1
-2 -5 -4 2643.69 245.705 1
7 -2 4 2984.86 407.537 2
-2 -5 -5 9045.61 513.005 1
7 -2 5 10697.8 688.758 2
5 2 -5 9773.95 676.521 2
5 2 5 10292.8 701.322 2
-2 7 -5 10170.9 675.913 1
7 -2 -5 10411.7 709.488 2
5 2 -6 4401.63 489.314 2
7 -2 6 4266.52 454.019 2
7 -2 -6 4230.1 470.96 2
-5 -2 -6 4332.42 483.491 1
7 -5 6 3347.59 495.219 2
7 -5 -6 4318.17 473.966 2
-2 7 -6 4335.34 508.167 1
-2 -5 -6 4130.2 397.956 1
7 -5 7 1592.48 311.284 2
-2 -5 -7 1380.92 299.189 1
7 -5 -7 1521.92 337.285 2
-2 7 -7 1816.86 391.543 1
-5 7 -7 2049.29 441.954 1
7 -2 7 1478.01 278.475 2
7 -2 -7 1557.24 311.288 2
-5 -2 -7 1381.67 340.283 1
7 -5 8 20495.1 965.645 2
7 -2 8 19519.7 946.657 2
-2 7 -8 20306.3 1156.14 1
7 -5 -8 19980.8 980.85 2
-2 -5 -8 20023.9 1043.49 1
7 -2 -8 18751.6 925.195 2
-5 7 -8 19712.3 1181.84 1
-5 -2 -8 21110 1151.19 1
-7 2 -9 12534.5 1030.98 1
7 -2 -9 11559.7 730.539 2
-7 5 -9 14298.4 1128.62 1
-2 7 -9 13102 1002.08 1
7 -5 -9 12010.9 761.29 2
-5 7 -9 13459.8 1053.89 1
7 -5 9 11106 731.769 2
-5 -2 -9 11781.9 944.663 1
7 -2 9 12152.9 751.466 2
-2 -5 -9 12509.5 883.951 1
-2 7 -10 5001.54 680.818 1
-2 -5 -10 5632.15 669.793 1
-5 7 -10 5611.35 794.022 1
-7 2 -10 6121.96 803.578 1
-7 5 -10 5055.67 723.11 1
-5 -2 -10 5512.87 722.13 1
-2 7 -11 15996.7 1243.69 1
-7 5 -11 16729.4 1322.77 1
-5 -2 -11 16578.3 1252.97 1
-2 -5 -11 14691.1 1135.66 1
-7 2 -11 15932.1 1280.32 1
-5 7 -11 16637.2 1311.45 1
-7 5 -12 976.19 509.212 1
-5 -2 -12 1055.16 377.423 1
-2 -5 -12 1116.78 415.686 1
-2 7 -12 602.768 424.783 1
-7 2 -12 714.915 382.834 1
-5 7 -12 957.201 470.75 1
-2 7 -13 8175.36 1010.99 1
-5 7 -13 9223.69 1081.23 1
-7 5 -13 9118.58 1121.02 1
-7 2 -13 7924.97 1024.62 1
-5 -2 -13 7910.77 985.451 1
-7 5 -14 5440.11 903.531 1
-7 2 -14 5959.64 538.1 3
-5 -2 -14 3663.99 682.558 1
-5 -2 -14 6052.71 521.158 3
-5 7 -14 5802.04 507.379 3
-7 5 -14 6180.47 519.671 3
-7 2 -14 4719.9 840.997 1
2 5 -14 6058.35 499.586 3
-5 7 -14 4991.03 855.238 1
-2 7 -14 4888.66 831.794 1
-2 7 -14 5826.67 522.063 3
-7 5 -15 118.232 211.28 3
-7 5 -15 -23.0665 372.549 1
-5 -2 -15 17.6408 218.724 3
-7 2 -15 -4.76231 436.835 1
-5 7 -15 1323.71 324.737 3
-5 -2 -15 774.447 433.732 1
-2 7 -15 342.11 265.088 3
-7 2 -15 293.839 245.679 3
-2 7 -15 -47.0147 400.142 1
5 2 -15 186.085 155.737 3
-2 -5 -15 -198.921 205.447 3
-5 7 -15 -451.037 508.948 1
-2 7 -15 210.202 179.614 5
2 5 -15 590.382 266.726 3
-7 5 -16 3037.66 729.734 1
-5 -2 -16 3573.87 464.307 3
-2 7 -16 2886.63 383.216 5
-2 7 -16 1716.44 521.088 1
2 5 -16 3426.77 446.003 3
-5 7 -16 3658.73 844.923 1
-2 7 -16 3556.33 464.463 3
5 2 -16 2915.15 382.584 3
-7 2 -16 3172.79 697.407 1
-7 2 -16 3704.91 472.178 3
-7 5 -16 3227.38 442.29 3
-5 -2 -16 1937.36 570.775 1
-2 -5 -16 2770.09 389.814 3
-5 7 -16 3554.49 462.007 3
-7 5 -17 3332.6 475.125 3
-5 -2 -17 2270.69 675.268 1
2 5 -17 2772.65 435.055 3
-2 7 -17 2447.53 366.406 5
-7 5 -17 2328.95 818.661 1
-5 7 -17 3328.23 849.899 1
-7 2 -17 3417.97 484.842 3
-2 -5 -17 2836.76 405.595 3
5 2 -17 2726.47 390.549 3
-5 7 -17 3179.8 450.227 3
-2 7 -17 3576.99 488.355 3
-7 2 -17 2642.99 750.107 1
-5 -2 -17 2593.9 430.54 3
-2 -5 -18 285.772 221.712 3
-5 7 -18 569.231 296.288 3
5 2 -18 325.462 212.97 3
-2 7 -18 501.468 264.198 5
-5 7 -18 75.754 200.947 5
-7 5 -18 560.708 266.453 3
-7 2 -18 508.118 316.268 3
-5 -2 -18 406.785 301.914 3
-2 7 -18 616.742 299.333 3
2 5 -19 2723.86 445.659 3
-2 -5 -19 2617.55 390.51 3
5 2 -19 2260.62 349.887 3
-5 7 -19 2256.79 374.984 5
-7 5 -19 3028.76 489.289 3
-2 7 -19 3151.56 487.829 3
-7 2 -19 3401.56 507.751 3
-5 7 -19 3385.9 503.462 3
-5 -2 -19 3001.75 461.08 3
-2 7 -19 1924.76 333.603 5
-2 -5 -20 -80.2358 191.054 3
-7 5 -20 152.998 262.65 3
-2 7 -20 83.7232 259.315 3
5 2 -20 41.5511 201.41 3
-5 7 -20 63.2237 288.057 3
2 5 -20 -86.2627 260.72 3
-5 7 -20 125.952 222.338 5
-7 2 -20 -82.2981 280.445 3
-5 -2 -20 -120.622 264.841 3
-2 7 -21 1443.04 358.107 3
-5 -2 -21 1425.86 363.468 3
-7 2 -21 1339.84 356.554 3
-2 -5 -21 684.49 238.44 3
-5 7 -21 400.171 219.838 5
-7 5 -21 662.644 337.116 3
-5 7 -21 854.103 312.224 3
2 5 -21 772.177 300.458 3
-7 5 -22 848.571 341.31 3
-5 -2 -22 953.443 291.914 3
-2 7 -22 645.142 283.916 3
2 5 -22 541.33 257.621 3
-7 2 -22 183.269 256.892 3
-5 7 -22 645.726 319.187 3
-2 -5 -22 466.462 223.598 3
-5 -2 -23 311.216 221.904 3
-7 5 -23 -10.5176 230.354 3
-7 2 -23 -6.39318 246.415 3
-5 7 -23 474.773 274.723 3
-2 7 -23 449.767 279.599 3
-2 -5 -23 69.1192 158.2 3
-2 7 -24 -19.4983 213.48 3
-7 2 -24 -61.7005 203.474 3
-5 7 -24 80.4051 199.207 3
-7 5 -24 257.403 215.702 3
-5 -2 -24 217.487 186.216 3
-7 5 -25 356.266 173.74 3
-5 7 -25 49.3685 175.846 3
-5 -2 -25 -31.9108 138.615 3
-7 2 -25 55.3357 163.971 3
7 -1 0 5606.45 533.951 2
6 1 0 5621.63 531.126 2
-1 7 0 4875.58 192.02 1
6 1 1 23358 1024.61 2
7 -1 -1 22263.1 1007.99 2
-1 7 -1 20330.4 512.393 1
7 -1 1 22299.2 989.055 2
6 1 -1 22125.8 1008.66 2
7 -1 2 37118.4 1289.77 2
6 1 -2 38308.9 1335.85 2
7 -1 -2 38870.4 1335.48 2
6 1 2 37310 1305.74 2
-1 7 -2 35119.5 844.296 1
6 1 -3 15528.3 872.964 2
6 1 3 16104.4 865.232 2
-1 7 -3 15356.2 642.576 1
7 -1 -3 18041 900.032 2
7 -1 3 18059.2 896.11 2
7 -1 4 46960.4 1448.9 2
1 6 -4 45424.3 1207.76 1
6 1 4 47204.3 1478.36 2
7 -1 -4 47638 1494.74 2
6 1 -4 46680.9 1505.23 2
-1 7 -4 45998.6 1255.36 1
7 -1 -5 9938.37 697.551 2
6 1 -5 9709.22 701.489 2
1 6 -5 9533.03 639.69 1
-1 7 -5 9016.76 637.233 1
6 1 5 10494.9 719.978 2
7 -1 5 10036.9 704.887 2
7 -1 6 13264.1 787.936 2
-1 7 -6 13026.1 823.398 1
7 -1 -6 12014 773.168 2
1 6 -6 11943.5 774.219 1
6 1 6 12124.2 779.068 2
6 1 -6 10379.1 774.827 2
7 -1 -7 11730 758.701 2
-1 7 -7 12733 871.943 1
7 -1 7 11801.3 758.832 2
6 1 7 12090.4 780.164 2
1 6 -7 12149.2 834.665 1
6 1 -7 11970.1 783.308 2
-6 -1 -7 13255 890.738 1
1 6 -8 12858.3 930.87 1
7 -1 -8 11347.4 778.86 2
-6 7 -8 13635.5 1051.17 1
7 -6 -8 12442.9 813.161 2
7 -1 8 12565.4 795.181 2
-7 1 -8 13045.8 986.324 1
-6 -1 -8 12833.3 927.481 1
7 -6 8 12639.7 828.205 2
-1 7 -8 12684.6 928.092 1
7 -1 -9 13291.6 818.662 2
-1 7 -9 15658.7 1090.11 1
-7 1 -9 14382.1 1067.33 1
7 -6 9 13674.9 820.914 2
-6 7 -9 15554.5 1159.25 1
-6 -1 -9 14342.3 1059.39 1
1 6 -9 13366.7 997.315 1
7 -6 -9 13650.8 834.774 2
7 -1 9 14322.5 846.565 2
-7 6 -9 16402.3 1208.54 1
-6 7 -10 26520.3 1585.41 1
-6 -1 -10 26102.6 1500.34 1
-7 1 -10 25177.6 1483.32 1
-7 6 -10 27672.1 1644.84 1
-1 7 -10 25866.7 1478.6 1
1 6 -10 26723.9 1485.31 1
-1 7 -11 11928.5 1075.85 1
1 6 -11 11962.7 1072.62 1
-7 6 -11 12207 1148.17 1
-6 7 -11 13773 1248.74 1
-7 1 -11 11565.9 1101.83 1
-6 -1 -11 10724.1 1030.34 1
-6 -1 -12 21111.8 1514.4 1
-7 6 -12 22046.3 1643.65 1
-6 7 -12 21315.5 1591.72 1
-1 7 -12 20432.7 1458.37 1
-7 1 -12 20308.7 1514.43 1
-1 7 -13 6270.27 856.219 1
-7 6 -13 8094.93 1076.73 1
-6 7 -13 8023.02 1056.33 1
-6 -1 -13 6342.29 899.516 1
-7 1 -13 7671.57 1004.15 1
-1 7 -14 2662.57 365.904 3
-6 7 -14 2686.67 370.395 3
-7 6 -14 3079.29 745.369 1
-6 7 -14 3258.48 752.899 1
-6 -1 -14 3122.16 695.798 1
-7 1 -14 3368.79 423.294 3
-7 6 -14 3170.89 408.096 3
-1 7 -14 2113.47 318.407 5
-1 7 -14 3458.37 766.853 1
-7 1 -14 3725.93 776.611 1
-6 -1 -14 3143.34 415.545 3
1 6 -14 2801.03 378.252 3
-6 7 -15 2719.95 398.104 3
-7 1 -15 2796.53 415.795 3
1 6 -15 2578.1 384.975 3
-7 6 -15 2379.56 382.868 3
-1 7 -15 1981.58 315.294 5
6 1 -15 1747.56 318.228 3
-6 -1 -15 2597.45 679.107 1
-7 1 -15 1768.55 563.19 1
-6 -1 -15 2197.87 355.212 3
-6 7 -15 2068.83 586.338 1
-1 7 -15 2322.76 371.737 3
-1 -6 -15 2205.68 327.109 3
-1 7 -15 2060.83 592.881 1
1 6 -15 1496.96 269.983 5
-7 6 -15 2494.48 697.009 1
-7 1 -16 1591.55 595.921 1
-6 -1 -16 2139.11 405.303 3
-7 6 -16 2355.86 747.017 1
-6 -1 -16 1523.31 581.316 1
1 6 -16 986.099 211.008 5
6 1 -16 1787.3 340.824 3
-1 7 -16 1609.46 325.757 3
-7 1 -16 2071.18 383.719 3
-1 7 -16 2054.24 326.739 5
1 6 -16 1344.52 323.285 3
-6 7 -16 1541.14 379.015 3
-1 -6 -16 1413.62 296.153 3
-7 6 -16 1844.95 392.216 3
-6 7 -16 1774.49 677.056 1
-7 6 -17 3031.42 459.56 3
1 6 -17 3021.74 427.625 3
-7 1 -17 3177.32 462.121 3
-6 7 -17 1283.52 527.89 1
-6 -1 -17 2309.12 654.596 1
-1 7 -17 2337.95 346.662 5
-1 7 -17 2790.53 435.108 3
6 1 -17 2018.87 343.299 3
-6 -1 -17 3036.33 483.835 3
-6 7 -17 2533.3 424.189 3
-1 -6 -17 2299.94 360.056 3
-7 6 -17 1911.15 680.491 1
-7 1 -17 2108.74 718.829 1
-7 1 -18 4381.93 527.785 3
-1 -6 -18 4058.13 458.993 3
-6 -1 -18 5401.77 575.22 3
-1 7 -18 5718.03 603.127 3
-6 7 -18 5016.57 603.121 3
1 6 -18 4391.74 544.898 3
-1 7 -18 3789.08 419.949 5
-7 6 -18 5359.57 605.228 3
6 1 -18 3696.84 436.248 3
-1 -6 -19 984.71 264.099 3
-6 7 -19 1294.78 409.276 3
-1 7 -19 1552.66 376.034 3
-1 7 -19 450.089 217.46 5
1 6 -19 1773.88 408.951 3
-7 6 -19 1898.8 412.14 3
-7 1 -19 1621.1 399.889 3
-6 7 -19 1089.07 293.592 5
-6 -1 -19 1232.91 355.568 3
-6 7 -20 2835.87 398.928 5
1 6 -20 3617.44 487.337 3
-1 7 -20 3033.67 476.026 3
-6 7 -20 3114.72 471.781 3
-1 -6 -20 2274.82 330.68 3
-6 -1 -20 3483.09 492.244 3
-7 6 -20 3365.55 507.74 3
-7 6 -20 2440.66 376.107 5
-7 1 -20 2803.6 467.212 3
-6 -1 -21 1291.19 365.374 3
-1 7 -21 931.707 349.182 3
-1 -6 -21 820.198 249.631 3
-7 6 -21 169.476 216.138 5
-6 7 -21 778.189 347.675 3
1 6 -21 899.176 318.778 3
-7 1 -21 1074.66 344.689 3
-7 6 -21 964.146 371.507 3
-6 7 -21 149.87 188.593 5
-6 7 -22 518.005 316.507 3
-7 6 -22 518.297 293.986 3
1 6 -22 666.223 295.86 3
-6 -1 -22 899.334 310.828 3
-1 7 -22 358.757 272.679 3
-7 1 -22 396.944 276.367 3
-7 1 -23 1015.8 305.972 3
-7 6 -23 142.879 230.264 3
-6 -1 -23 376.279 226.823 3
-1 7 -23 935.183 285.135 3
-6 7 -23 696.346 319.062 3
-6 7 -24 445.627 228.205 3
-6 -1 -24 249.486 178.324 3
-7 6 -24 91.5402 207.257 3
-7 1 -24 -43.19 190.261 3
7 0 0 168.082 260.296 2
7 0 1 8899.01 679.485 2
7 0 -1 7841.19 670.458 2
7 0 2 43513.1 1484.25 2
0 7 -2 39625.2 792.7 1
7 0 -2 44322.3 1485.96 2
7 0 -3 25878.7 1178.79 2
7 0 3 28556.2 1176.71 2
0 7 -3 26996.6 819.451 1
7 0 4 60832.6 1718.36 2
7 0 -4 62419.5 1758.11 2
0 7 -4 56317.7 1357.34 1
7 0 -5 8684.83 697.613 2
0 7 -5 8257.44 586.435 1
7 0 5 8997.03 702.117 2
7 0 -6 31111.5 1284.67 2
7 0 6 30148.5 1236.96 2
0 7 -6 29905.9 1213.35 1
7 0 -7 18539.8 999.269 2
7 0 7 19549.5 1025.29 2
0 7 -7 19018.4 1041.58 1
7 0 -8 15741.5 944.498 2
7 0 8 16955.7 945.406 2
-7 0 -8 16969.9 1091.35 1
0 7 -8 17240.3 1067.42 1
-7 0 -9 5690.29 680.9 1
0 7 -9 5433.16 670.176 1
7 0 -9 4601.02 529.536 2
-7 7 -9 4774.63 727.638 1
7 -7 9 4191.86 504.997 2
-7 0 -10 22681.9 1428.84 1
0 7 -10 20610.6 1343.1 1
-7 7 -10 22388.9 1516.17 1
0 7 -11 10120 997.792 1
-7 7 -11 9778.85 1042.03 1
-7 0 -11 9480.5 995.645 1
0 7 -12 18961 1418.88 1
-7 7 -12 22035 1643.55 1
-7 0 -12 19372.5 1468.11 1
-7 0 -13 7144.13 972.289 1
0 7 -13 5579.65 829.48 1
-7 7 -13 6369.63 966.969 1
-7 0 -14 8205.3 627.678 3
-7 7 -14 7590.84 1120.51 1
0 7 -14 8395.08 627.475 3
0 7 -14 6067.61 483.076 5
-7 7 -14 8541.04 624.798 3
-7 0 -14 6370.45 984.241 1
-7 0 -15 3981.68 463.994 3
-7 7 -15 3775.75 855.563 1
0 7 -15 2602.84 337.508 5
0 -7 -15 2714.48 340.687 3
0 7 -15 4720.08 530.996 3
-7 0 -15 2981.45 746.96 1
-7 7 -15 3268.35 425.598 3
0 -7 -16 1035.96 264.192 3
-7 0 -16 874.389 456.726 1
0 7 -16 1784.29 360.322 3
-7 7 -16 1969.94 362.564 3
-7 0 -16 2533.42 420.841 3
-7 7 -16 2143.58 605.486 1
0 7 -16 1235 274.512 5
0 7 -17 3516.9 459.233 3
0 -7 -17 2584 364.044 3
-7 7 -17 3200.46 842.78 1
-7 0 -17 3796.65 514.92 3
0 7 -17 3452.52 403.946 5
-7 7 -17 3784.68 531.48 3
0 7 -18 3316.22 402.738 5
0 7 -18 4228.33 537.39 3
-7 7 -18 4758.76 552.41 3
-7 0 -18 4631.87 562.844 3
0 7 -19 1428.83 370.282 3
-7 7 -19 951.023 387.112 3
-7 0 -19 1156.58 377.933 3
-7 7 -20 2583.45 400.026 5
-7 0 -20 3086.05 502.078 3
0 7 -20 2214.09 443.279 3
-7 7 -20 2552.28 471.739 3
-7 0 -21 547.416 307.615 3
-7 7 -21 568.106 277.178 5
-7 7 -21 1025.37 400.983 3
0 7 -21 274.396 273.167 3
-7 7 -22 473.146 324.097 3
0 7 -22 537.867 284.567 3
-7 0 -22 277.681 248.904 3
-7 7 -23 341.948 247.679 3
-7 0 -23 599.554 254.135 3
-7 0 -24 194.845 214.241 3
-7 7 -24 232.188 212.562 3
8 -4 0 12265.5 783.827 2
8 -4 -1 186.52 269.487 2
8 -4 1 -249.927 282.991 2
8 -4 -2 2830.32 418.111 2
8 -4 2 2803.11 428.149 2
8 -4 -3 362.21 302.437 2
-4 -4 -3 91.8348 142.26 1
8 -4 3 -193.93 269.224 2
8 -4 -4 2200.74 408.935 2
-4 -4 -4 1815.83 249.773 1
8 -4 4 1936.41 360.244 2
-4 -4 -5 215.218 202.597 1
8 -4 -5 -231.853 247.429 2
8 -4 5 54.0095 225.161 2
-4 8 -6 2156.02 415.692 1
-4 -4 -6 1913.02 350.816 1
8 -4 -6 2132.56 399.704 2
8 -4 6 2068.7 403.382 2
-4 8 -7 335.878 312.178 1
-4 -4 -7 72.9863 198.158 1
8 -4 7 170.721 233.592 2
8 -4 -7 67.1796 229.709 2
-4 8 -8 5669.82 668.449 1
8 -4 8 6031.25 566.551 2
8 -4 -8 6946.01 628.949 2
-4 -4 -8 6947.27 657.994 1
8 -4 9 -118.25 218.368 2
-4 8 -9 55.8728 305.506 1
8 -4 -9 159.674 153.119 2
-4 -4 -9 -131.608 254.24 1
-4 8 -10 8164.17 884.964 1
-8 4 -10 7490.61 907.285 1
-4 -4 -10 7979.08 826.902 1
-4 8 -11 -141.716 325.563 1
-4 -4 -11 471.945 337.591 1
-8 4 -11 -110.985 356.118 1
-8 4 -12 164.327 344.944 1
-4 -4 -12 577.706 410.579 1
-4 8 -12 -528.858 396.887 1
-4 8 -13 440.494 404.416 1
-8 4 -13 283.188 399.327 1
-4 -4 -13 -315.931 400.798 1
-8 4 -14 889.012 255.852 3
-4 -4 -14 916.507 283.384 3
-4 8 -14 1411.14 509.56 1
4 4 -14 862.896 242.361 3
-4 8 -14 899.195 278.573 3
-4 -4 -14 398.538 284.793 1
-8 4 -14 740.408 508.875 1
-8 4 -15 84.0627 219.858 3
-4 -4 -15 257.377 208.376 3
-4 8 -15 -7.30424 237.847 3
4 4 -15 -297.268 230.121 3
-8 4 -15 180.876 372.386 1
-4 8 -15 -521.025 494.179 1
-4 8 -16 1256.33 299.78 5
-8 4 -16 907.536 317.033 3
4 4 -16 1035.75 320.43 3
-8 4 -16 -278.247 549.15 1
-4 8 -16 581.938 270.666 3
-4 -4 -16 960.322 291.014 3
-4 8 -16 994.458 538.84 1
-4 -4 -17 -182.542 225.635 3
-4 8 -17 -594.739 727.438 1
-8 4 -17 14.71 276.811 3
-8 4 -17 -754.56 545.515 1
4 4 -17 -14.0741 198.133 3
-4 8 -17 -175.034 208.726 5
-4 8 -17 57.9033 262.089 3
-4 -4 -18 -168.817 267.951 3
4 4 -18 -162.28 226.795 3
-8 4 -18 -243.171 274.032 3
-4 8 -18 -249.069 244.662 5
-4 8 -18 -186.342 262.26 3
-4 8 -19 137.665 283.193 3
-4 -4 -19 114.026 253.752 3
4 4 -19 507.318 256.386 3
-8 4 -19 98.1786 288.279 3
-4 8 -19 226.68 223.306 5
-8 4 -20 -146.648 275.823 3
-4 8 -20 259.504 217.531 5
4 4 -20 -179.582 215.652 3
-4 8 -20 -88.338 300.079 3
-4 -4 -20 123.571 244.878 3
-4 8 -21 36.566 181.072 5
-4 8 -21 -454.203 328.633 3
-4 -4 -21 -105.525 203.71 3
-8 4 -21 49.4087 269.925 3
-8 4 -22 -68.3422 254.337 3
-4 -4 -22 11.1329 201.715 3
-4 8 -22 62.0988 260.868 3
-8 4 -23 304.081 241.407 3
-4 -4 -23 34.8399 163.559 3
-4 8 -23 177.572 245.551 3
-4 8 -24 8.7813 199.963 3
-4 -4 -24 10.1983 133.608 3
-8 4 -24 -209.554 225.364 3
8 -3 0 1868.6 385.429 2
5 3 0 2175.4 398.107 2
8 -3 -1 30322.5 1203.1 2
5 3 -1 28629.6 1200.71 2
8 -3 1 29582.8 1188.92 2
5 3 1 29256.7 1214.18 2
5 3 2 2930.26 455.695 2
8 -3 -2 3337.58 484.134 2
8 -3 2 3552.73 466.127 2
5 3 -2 3220.09 468.073 2
5 3 -3 5322.33 551.546 2
-3 -5 -3 4698.67 255.38 1
8 -5 -3 4710.33 558.562 2
8 -5 3 5842.71 568.142 2
8 -3 3 5135.09 516.318 2
5 3 3 5628.29 561.752 2
8 -3 -3 5567.78 573.908 2
8 -3 4 4605.44 504.729 2
8 -3 -4 4760.83 547.537 2
-3 8 -4 4567.44 451.552 1
-3 -5 -4 3976.01 314.607 1
8 -5 4 4968.83 516.349 2
8 -5 -4 4529.32 548.652 2
-3 -5 -5 13214.1 636.663 1
-5 -3 -5 13017.7 723.29 1
8 -3 5 13882.1 859.573 2
8 -5 -5 14873.8 892.577 2
-3 8 -5 13048.2 791.203 1
8 -3 -5 14939.1 902.581 2
-3 8 -6 190.349 242.638 1
-3 -5 -6 47.3678 167.093 1
-5 -3 -6 -227.426 234.772 1
8 -3 -6 289.734 249.34 2
8 -3 6 167.196 209.99 2
8 -5 -6 315.133 254.288 2
8 -5 6 301.802 225.536 2
8 -3 7 2979.62 436.162 2
-3 -5 -7 3385.28 418.784 1
-3 8 -7 3237.43 495.422 1
8 -3 -7 2695.2 403.963 2
-5 -3 -7 2705.71 429.989 1
8 -5 -7 2969.64 459.907 2
8 -5 7 3369.78 470.597 2
-5 8 -7 3149.06 488.567 1
8 -5 -8 2403.71 399.543 2
8 -3 -8 2766.65 422.489 2
-3 8 -8 2209.43 485.703 1
-3 -5 -8 2293.06 398.269 1
8 -5 8 2556.42 396.468 2
-5 8 -8 1987.72 446.208 1
8 -3 8 2443.06 382.773 2
-5 -3 -8 2444.29 443.692 1
-8 3 -9 5317.03 735.915 1
-3 -5 -9 5909.48 670.125 1
8 -3 -9 4894.15 525.705 2
8 -5 9 5627.47 553.318 2
8 -5 -9 5677.7 589.579 2
-3 8 -9 5208.19 674.721 1
-5 8 -9 6249.82 757.579 1
-5 -3 -9 5595.71 666.509 1
8 -3 9 5051.71 541.704 2
-5 8 -10 7254.45 868.536 1
-3 8 -10 7423.87 842.321 1
-3 -5 -10 8994.2 822.668 1
-8 3 -10 8916.81 943.374 1
-5 -3 -10 8179.19 847.29 1
-8 5 -10 8491.09 958.31 1
-5 -3 -11 2990.12 553.283 1
-3 -5 -11 3030.22 549.9 1
-5 8 -11 3325.5 687.285 1
-3 8 -11 3156.75 603.839 1
-8 3 -11 2904.34 661.931 1
-8 5 -11 2684.69 592.931 1
-3 -5 -12 5589.09 761.924 1
-5 8 -12 6294.37 907.542 1
-5 -3 -12 4393.25 670.277 1
-8 3 -12 4736.59 805.788 1
-3 8 -12 6247.65 874.209 1
-8 5 -12 5604.05 863.936 1
-3 8 -13 178.715 369.517 1
-8 5 -13 -177.732 472.792 1
-5 -3 -13 110.257 299.176 1
-8 3 -13 -631.908 394.169 1
-5 8 -13 -484.417 439.54 1
3 5 -14 523.934 201.841 3
-8 3 -14 1199.03 305.904 3
-3 -5 -14 897.076 282.009 3
-3 8 -14 775.314 235.758 5
-5 8 -14 704.968 233.774 3
-8 3 -14 807.57 495.292 1
-5 -3 -14 892.546 258.663 3
-3 8 -14 1090.98 297.492 3
5 3 -14 1192.97 287.578 3
-5 8 -14 844.979 535.681 1
-8 5 -14 1366.95 609.61 1
-3 8 -14 1560.24 593.94 1
-5 -3 -14 699.666 334.996 1
-8 5 -14 905.416 281.95 3
-8 5 -15 825.164 291.879 3
-5 8 -15 831.342 425.632 1
-3 8 -15 1134.91 302.792 3
-8 3 -15 1373.8 479.759 1
-3 -5 -15 694.438 250.058 3
3 5 -15 970.853 288.663 3
-5 -3 -15 775.89 290.865 3
-3 8 -15 976.319 280.279 5
5 3 -15 363.024 208.58 3
-3 8 -15 2058.12 643.275 1
-5 8 -15 873.35 295.049 3
-8 3 -15 1386.91 346.397 3
-8 5 -15 1477.05 609.318 1
-5 -3 -15 1068.77 436.154 1
-5 8 -16 428.002 229.064 3
-3 8 -16 224.225 342.904 1
5 3 -16 413.244 256.007 3
-8 3 -16 983.807 447.431 1
-5 -3 -16 967.481 547.088 1
-3 8 -16 820.011 283.02 5
-3 -5 -16 887.23 291.883 3
-5 8 -16 224.795 344.275 1
-8 5 -16 403.281 455.454 1
-5 -3 -16 808.233 271.979 3
-8 3 -16 1064.37 334.831 3
-8 5 -16 1207.92 319.761 3
3 5 -16 737.685 293.481 3
-3 8 -16 460.131 225.955 3
-3 8 -17 1127.44 577.296 1
3 5 -17 239.281 256.292 3
-3 -5 -17 193.624 253.896 3
-5 8 -17 310.974 263.627 3
-3 8 -17 469.489 258.913 5
-8 3 -17 78.9914 503.62 1
-3 8 -17 823.435 323.626 3
-5 8 -17 950.558 500.678 1
-8 5 -17 1290.86 596.755 1
-5 8 -17 334.414 232.886 5
-8 5 -17 473.28 255.498 3
5 3 -17 739.223 254.427 3
-8 3 -17 725.455 360.378 3
-5 -3 -17 396.71 265.016 3
3 5 -18 1414.54 371.367 3
-8 5 -18 82.7908 281.497 3
-5 8 -18 1481.9 382.572 3
-5 8 -18 1083.25 324.585 5
-3 8 -18 1013.91 364.956 3
5 3 -18 763.482 318.519 3
-3 -5 -18 351.09 272.128 3
-3 8 -18 862.086 275.598 5
-5 -3 -18 780.703 288.485 3
-8 3 -18 1277.59 384.458 3
3 5 -19 -310.694 240.793 3
-5 8 -19 461.631 326.113 3
-3 8 -19 332.47 227.741 5
-8 5 -19 133.632 316.459 3
-5 8 -19 520.761 250.75 5
-3 8 -19 -215.082 286.572 3
5 3 -19 154.553 208.899 3
-5 -3 -19 738.538 327.887 3
-3 -5 -19 939.045 280.853 3
-8 3 -19 402.331 314.573 3
-3 8 -20 632.387 255.397 5
-5 8 -20 664.923 331.128 3
-3 -5 -20 832.076 265.519 3
-8 5 -20 1334.42 391.219 3
-5 -3 -20 872.042 318.051 3
-8 3 -20 1003.65 374.673 3
3 5 -20 716.111 310.812 3
-5 8 -20 193.777 195.8 5
-3 8 -20 736.13 299.127 3
-8 5 -21 205.667 225.863 5
-8 5 -21 324.083 311.68 3
-3 -5 -21 107.67 214.52 3
-5 8 -21 -84.964 217.732 5
-3 8 -21 249.482 266.153 3
-8 3 -21 -62.617 281.086 3
-5 8 -21 315.206 270.584 3
-5 -3 -21 162.188 240.993 3
-8 5 -22 383.726 284.652 3
-3 8 -22 301.963 270.536 3
-8 3 -22 734.577 312.717 3
-3 -5 -22 692.366 239.845 3
-5 -3 -22 107.477 235.836 3
-5 8 -22 -70.2263 253.567 3
-8 3 -23 160.028 231.817 3
-3 -5 -23 -132.384 179.75 3
-3 8 -23 218.869 247.932 3
-8 5 -23 171.767 220.589 3
-5 8 -23 -98.0594 253.619 3
-5 -3 -23 91.144 181.911 3
-5 -3 -24 -236.522 164.25 3
-3 8 -24 -70.1313 188.482 3
-5 8 -24 318.3 215.8 3
-8 3 -24 187.81 214.748 3
-8 5 -24 285.27 223.908 3
-3 -5 -24 91.8417 128.192 3
8 -2 0 6434.19 602.042 2
6 2 0 6538.7 617.473 2
8 -2 -1 32931.9 1288.55 2
6 2 -1 33136.8 1296.26 2
6 2 1 32047.9 1278.22 2
8 -2 1 32643 1277.93 2
6 2 2 10436.6 760.09 2
-2 8 -2 10857 511.328 1
6 2 -2 11707.3 809.86 2
8 -2 2 11355.7 777.611 2
8 -2 -2 10626.8 760.179 2
8 -2 3 13217.6 813.439 2
6 2 3 11988.7 805.848 2
-2 8 -3 12492 616.584 1
6 2 -3 14408.9 861.664 2
8 -2 -3 14807.5 884.318 2
6 2 -4 10143.8 766.727 2
8 -2 4 10676.7 746.456 2
6 2 4 11145.4 787.867 2
-2 8 -4 9524.69 614.768 1
8 -2 -4 11320.6 789.428 2
8 -2 5 1968.68 359.865 2
8 -2 -5 1828.22 370.273 2
6 2 5 1750.38 343.787 2
-2 8 -5 1664.65 331.325 1
6 2 -5 1425.57 352.33 2
8 -6 -6 1540.43 351.58 2
-6 -2 -6 1545.63 359.478 1
8 -6 6 1053.1 272.474 2
6 2 -6 1476.07 344.897 2
-2 8 -6 1515.42 371.703 1
8 -2 6 1186.01 312.37 2
8 -2 -6 1032.3 307.248 2
6 2 6 1439.2 353.511 2
8 -6 -7 12830.1 838.969 2
8 -2 -7 11811.8 809.214 2
-2 -6 -7 11987.5 715.669 1
-2 8 -7 12539.5 868.649 1
8 -6 7 12660.4 812.34 2
8 -2 7 10571.3 816.809 2
-6 -2 -7 11831.7 848.141 1
8 -2 8 12004.1 809.461 2
8 -6 8 11231.5 783.906 2
-2 -6 -8 10826.6 751.455 1
-6 8 -8 13327.2 1056.36 1
-2 8 -8 12209.7 928.513 1
-6 -2 -8 12696 925.637 1
8 -6 -8 12041.8 829.766 2
8 -2 -8 11835.4 806.712 2
-6 -2 -9 6089.24 707.92 1
-2 8 -9 5408.03 690.363 1
8 -2 9 4618.43 515.451 2
-8 2 -9 6025.05 767.432 1
8 -2 -9 5177.04 554.426 2
8 -6 9 5328.83 559.074 2
-6 8 -9 4845.67 672.966 1
8 -6 -9 5174.5 557.807 2
-8 2 -10 22260.3 1456.5 1
-2 8 -10 21394.6 1387.24 1
-8 6 -10 21832 1531.73 1
-6 -2 -10 21354.7 1346.2 1
-6 8 -10 23530.3 1509.78 1
-8 6 -11 4372.24 732.702 1
-8 2 -11 4270.85 693.086 1
-6 8 -11 5193.51 792.161 1
-6 -2 -11 5798.42 812.78 1
-2 8 -11 5055.91 759.078 1
-2 8 -12 12905.5 1201.56 1
-6 -2 -12 10644.1 1054.38 1
-8 2 -12 11994 1209.19 1
-8 6 -12 12186.9 1267.12 1
-6 8 -12 12395.8 1230 1
-6 -2 -13 3740.95 706.166 1
-8 2 -13 4413.55 811.547 1
-8 6 -13 4982.99 892.26 1
-2 8 -13 3696.59 422.995 3
-2 8 -13 3501.8 686.305 1
-6 8 -13 5463.46 900.529 1
-8 2 -14 2399.76 703.857 1
-6 -2 -14 3123.77 405.444 3
6 2 -14 1954.86 300.829 3
-8 2 -14 3200.76 421.275 3
-2 8 -14 3433.63 415.52 5
2 6 -14 2617.48 329.343 5
-6 8 -14 2383.44 696.59 1
-8 6 -14 3131.88 423.933 3
-6 8 -14 3270.63 420.988 3
-8 6 -14 3326.47 803.205 1
-6 -2 -14 2667.36 607.049 1
-2 -6 -14 2380.17 345.571 3
-2 8 -14 3005.52 406.79 3
-2 8 -14 1728.97 519.492 1
2 6 -14 2579.96 378.784 3
-6 8 -15 1297.76 521.477 1
-6 8 -15 2574.51 423.708 3
6 2 -15 1583.83 301.347 3
2 6 -15 1993.67 352.254 3
-6 -2 -15 1536.91 613.474 1
2 6 -15 1439.43 245.437 5
-2 -6 -15 2023.28 329.446 3
-6 -2 -15 2017.93 384.322 3
-2 8 -15 2427.15 377.903 3
-8 6 -15 2113.88 372.365 3
-8 2 -15 1442.76 677.965 1
-2 8 -15 1604.15 558.526 1
-8 2 -15 1875.63 371.477 3
-2 8 -15 1737.89 322.199 5
-8 6 -15 2988.75 821.396 1
6 2 -16 707.89 266.807 3
-8 6 -16 180.607 364.145 1
-2 -6 -16 197.245 191.982 3
-2 8 -16 677.39 279.208 3
-6 8 -16 363.841 237.23 3
-8 2 -16 1260.26 357.74 3
-6 -2 -16 1225.95 341.275 3
-8 2 -16 510.731 355.581 1
-8 6 -16 777.624 288.804 3
-6 -2 -16 455.208 395.409 1
-2 8 -16 -303.853 394.658 1
2 6 -16 428.322 257.512 3
-6 8 -16 741.228 456.92 1
-2 8 -16 649.184 247.539 5
-2 8 -17 1182.86 267.583 5
-6 -2 -17 858.048 318.848 3
-2 -6 -17 1134.54 299.919 3
-6 -2 -17 500.896 552.81 1
6 2 -17 1170.31 323.14 3
-8 2 -17 761.685 486.4 1
-6 8 -17 1937.3 677.949 1
-6 8 -17 2064.81 406.38 3
-8 6 -17 188.477 481.757 1
-8 6 -17 1782.11 397.875 3
-2 8 -17 1750.48 380.027 3
2 6 -17 1597.32 351.271 3
-8 2 -17 1576.89 398.33 3
-6 -2 -18 3183.16 466.502 3
-6 8 -18 2666.03 394.372 5
-8 2 -18 2914.26 458.743 3
2 6 -18 2326.76 436.602 3
-2 8 -18 2185.53 356.782 5
-6 8 -18 3914.56 535.424 3
-8 6 -18 2872.67 484.786 3
6 2 -18 2594.82 372.248 3
-2 -6 -18 1383.97 306.53 3
-2 8 -18 2584.59 434.242 3
-6 8 -19 570.19 262.252 5
-2 8 -19 1264.03 356.396 3
2 6 -19 1136.28 332.1 3
-6 -2 -19 1135.46 356.719 3
-8 6 -19 1114.49 383.291 3
-2 -6 -19 1273.19 301.327 3
-6 8 -19 1216.28 418.046 3
-8 2 -19 1471.42 408.911 3
-2 8 -19 863.273 274.501 5
-6 8 -20 1939.35 350.111 5
-6 -2 -20 2824.01 448.253 3
-2 8 -20 1153.48 258.544 5
-2 -6 -20 1981.01 334.727 3
-2 8 -20 1956.1 403.631 3
-6 8 -20 1896.17 441.853 3
-8 2 -20 2271.99 434.282 3
2 6 -20 2228.16 420.286 3
-8 6 -20 2117.52 470.783 3
-6 -2 -21 748.433 280.661 3
-8 6 -21 443.594 258.83 5
-2 8 -21 1164.59 326.904 3
-2 -6 -21 408.861 189.823 3
-6 8 -21 279.568 211.525 5
-8 2 -21 -238.255 292.591 3
-8 6 -21 704.073 365.177 3
2 6 -21 726.344 281.83 3
-6 8 -21 431.258 299.535 3
-6 8 -22 404.263 322.747 3
-6 8 -22 151.184 188.273 5
-8 2 -22 592.826 311.228 3
-6 -2 -22 525.13 271.422 3
-8 6 -22 422.244 285.533 3
-2 -6 -22 13.8912 168.483 3
-2 8 -22 265.499 254.53 3
-8 6 -23 -172.587 240.218 3
-2 8 -23 532.462 259.966 3
-8 2 -23 302.598 217.888 3
-6 8 -23 325.688 248.067 3
-6 -2 -23 -81.246 190.304 3
-6 8 -24 -79.3605 223.905 3
-6 -2 -24 418.684 201.441 3
-8 2 -24 188.765 205.892 3
-8 6 -24 194.476 192.645 3
8 -1 0 11912.2 806.8 2
7 1 0 11249.8 797.832 2
8 -1 -1 5824.07 591.314 2
8 -1 1 6462.43 626.296 2
7 1 1 5590.77 626.653 2
7 1 -1 5768.6 621.958 2
-1 8 -1 4845.24 238.707 1
8 -1 -2 23135 1103.63 2
7 1 2 23243.8 1111.14 2
8 -1 2 23145.8 1087.78 2
7 1 -2 22690.5 1109.44 2
-1 8 -2 20664.8 633.707 1
-1 8 -3 45339.7 1126.59 1
8 -1 3 51941.6 1637.91 2
7 1 -3 51588.9 1692.62 2
7 1 3 51608.4 1655.95 2
8 -1 -3 50280.9 1646.71 2
8 -1 4 11046.6 794.041 2
8 -1 -4 12917.9 848.961 2
7 1 -4 12674.3 843.408 2
-1 8 -4 11926.9 645.089 1
7 1 4 12430.1 821.35 2
8 -1 5 58138.3 1748.37 2
7 1 5 54936.1 1729.48 2
8 -1 -5 56212.9 1767.65 2
1 7 -5 54869.9 1482.71 1
7 1 -5 58555.2 1809.2 2
-1 8 -5 53921.6 1523.04 1
8 -1 -6 11300.9 797.931 2
8 -1 6 10423.4 767.89 2
7 1 -6 10747.6 825.211 2
-1 8 -6 11304.2 783.076 1
1 7 -6 10408.2 727.483 1
7 1 6 11261.6 803.644 2
8 -1 7 1723.56 386.705 2
7 1 7 2079.55 371.019 2
1 7 -7 1723.66 359.748 1
-1 8 -7 2093.03 404.589 1
8 -1 -7 1897.08 377.72 2
7 1 -7 1762.71 343.302 2
-7 -1 -7 2212.1 428.024 1
1 7 -8 20916 1188.78 1
8 -7 8 19530.2 1074.04 2
-7 -1 -8 20563.2 1186.4 1
7 1 -8 19780.3 1089.13 2
8 -7 -8 19993.4 1115.35 2
8 -1 -8 19175 1056.17 2
-1 8 -8 22958.4 1260.39 1
8 -1 8 20003.2 1085.44 2
8 -7 9 14926 928.257 2
1 7 -9 13430.4 1024.88 1
-8 1 -9 14376.4 1116.45 1
8 -1 -9 12005.4 860.294 2
-7 -1 -9 14710.9 1104.6 1
8 -7 -9 14228.7 928.089 2
8 -1 9 14629.8 963.665 2
-1 8 -9 15346.1 1093.34 1
-7 8 -9 15195.7 1207.53 1
-7 -1 -10 1812.48 470.176 1
-8 1 -10 2018.35 519.072 1
-8 7 -10 2178.65 562.546 1
-1 8 -10 1213.24 413.945 1
-7 8 -10 1869.45 565.963 1
1 7 -10 1598.09 419.29 1
-1 8 -11 29809.7 1699.5 1
-8 1 -11 31887 1829.85 1
-7 8 -11 31593.9 1885.26 1
-7 -1 -11 31737.5 1797.36 1
-8 7 -11 32301.6 1894.72 1
-8 1 -12 10.149 362.357 1
-7 8 -12 9.54493 416.554 1
-8 7 -12 101.434 429.036 1
-1 8 -12 84.2383 305.131 1
-7 -1 -12 -819.92 417.307 1
-7 8 -13 10248.6 649.924 3
-8 7 -13 10559.7 659.983 3
-7 -1 -13 10674.4 1163.5 1
1 7 -13 11486.4 685.636 3
-1 8 -13 11412.8 690.181 3
-8 1 -13 12133.9 717.293 3
-7 -1 -13 12114.6 728.068 3
-8 1 -13 13636 1356.13 1
-8 7 -13 11875.9 1306.93 1
-1 8 -13 10399.4 1168.1 1
-7 8 -13 11079.5 1281.76 1
-7 -1 -14 162.103 384.572 1
-8 7 -14 748.992 489.382 1
1 7 -14 1227.87 260.315 5
-1 8 -14 679.622 239.661 3
-8 1 -14 1392.22 304.28 3
-8 7 -14 925.352 272.094 3
1 7 -14 1244.87 302.549 3
-1 8 -14 976.146 256.496 5
-1 -7 -14 956.305 244.106 3
-1 8 -14 769.117 355.744 1
-7 -1 -14 1208.2 297.414 3
-8 1 -14 1855.67 590.652 1
-7 8 -14 1253.8 561.111 1
-7 8 -14 1464.21 312.16 3
-7 -1 -15 6.22668 402.601 1
-7 8 -15 453.539 331.157 1
-8 7 -15 -69.0879 215.356 3
1 7 -15 77.196 180.787 5
-8 7 -15 -742.495 602.383 1
-1 -7 -15 -260.298 196.738 3
-8 1 -15 459.442 287.471 3
1 7 -15 -118.916 222.603 3
-7 8 -15 -139.701 292.358 3
-1 8 -15 232.914 243.593 5
-1 8 -15 121.56 225.221 3
-7 -1 -15 -87.7034 248.687 3
-8 1 -15 -612.532 495.632 1
-1 8 -16 2072.66 345.818 5
-7 8 -16 2621.15 427.656 3
-7 8 -16 1654.31 673.473 1
-7 -1 -16 2364.45 411.681 3
-8 7 -16 2561.6 410.983 3
-8 7 -16 2178.81 698.843 1
-8 1 -16 2149.86 390.426 3
-8 1 -16 2403.74 716.389 1
-1 -7 -16 1814.74 331.549 3
1 7 -16 2043.9 382.934 3
-1 8 -16 2816.15 420.442 3
-7 -1 -16 1682.43 632.577 1
1 7 -16 2041.72 315.987 5
-7 8 -17 2662.58 736.439 1
-1 -7 -17 2463.44 365.663 3
-7 -1 -17 3041.16 441.781 3
1 7 -17 3057.52 466.943 3
-8 1 -17 3003.68 474.448 3
1 7 -17 2477.21 346.912 5
-8 1 -17 1237.85 476.378 1
-7 8 -17 2815.59 452.345 3
-8 7 -17 2404.16 427.751 3
-1 8 -17 3116.69 458.985 3
-7 -1 -17 1894.54 712.259 1
-8 7 -17 1133.84 615.134 1
-1 8 -17 1905.94 328.887 5
-7 -1 -18 478.815 312.926 3
-8 7 -18 -13.9496 252.608 3
-7 8 -18 557.538 306.096 3
-1 -7 -18 326.728 207.514 3
-1 8 -18 929.577 302.338 5
-1 8 -18 241.2 283.876 3
-8 1 -18 243.802 283.983 3
1 7 -18 777.37 284.066 3
-8 1 -19 5270.25 603.645 3
-1 8 -19 5404.07 602.466 3
-1 -7 -19 3899.92 428.824 3
1 7 -19 4248.48 538.145 3
-7 8 -19 4712.76 501.208 5
-1 8 -19 3371.9 409.599 5
-7 8 -19 4203.78 562.752 3
-7 -1 -19 5342.14 604.78 3
-8 7 -19 4395.33 568.019 3
-7 8 -20 227.837 210.768 5
-7 8 -20 273.852 307.617 3
-7 -1 -20 317.8 308.141 3
1 7 -20 609.419 304.044 3
-1 8 -20 646.458 324.972 3
-8 7 -20 575.308 250.835 5
-8 7 -20 567.851 318.752 3
-1 -7 -20 325.246 188.583 3
-8 1 -20 843.621 349.462 3
-7 8 -21 859.426 244.43 5
-7 8 -21 1853.11 413.111 3
1 7 -21 1420.47 363.899 3
-7 -1 -21 741.492 321.61 3
-1 8 -21 1072.52 337.299 3
-8 7 -21 1121.93 370.863 3
-8 7 -21 770.684 270.348 5
-8 1 -21 1259.57 348.877 3
-8 1 -22 692.59 312.261 3
-7 8 -22 378.885 202.318 5
-8 7 -22 300.623 186.072 5
-7 8 -22 366.242 290.586 3
-1 8 -22 527.435 294.95 3
-8 7 -22 495.461 278.365 3
-7 -1 -22 410.704 251.191 3
-8 1 -23 -56.3009 225.744 3
-7 8 -23 316.894 249.341 3
-7 -1 -23 273.283 229.627 3
-8 7 -23 374.946 275.828 3
-8 7 -24 -34.2656 210.937 3
-7 8 -24 -47.5356 191.223 3
-7 -1 -24 102.721 175.269 3
-8 1 -24 339.984 204.202 3
8 0 0 112.364 282.185 2
8 0 -1 10080.3 787.832 2
8 0 1 9153.3 730.825 2
8 0 -2 32820.9 1373.92 2
8 0 2 32131.6 1338.35 2
8 0 3 53685.4 1731.14 2
8 0 -3 54316.2 1758.69 2
8 0 4 31563.8 1346.53 2
8 0 -4 34082.1 1407.21 2
8 0 -5 20809.8 1141.36 2
0 8 -5 19209.9 882.889 1
8 0 5 21839.5 1134.22 2
8 0 -6 55321.8 1830.84 2
0 8 -6 49654.2 1553.76 1
8 0 6 53641 1784.48 2
0 8 -7 22370.7 1146.82 1
8 0 7 23370.4 1193.92 2
8 0 -7 23318.3 1221.36 2
-8 0 -8 19560.7 1216.71 1
0 8 -8 16689.5 1069.87 1
8 0 8 16692.2 1032.19 2
8 0 -8 16501.8 1049.65 2
8 -8 9 12922.4 901.662 2
-8 0 -9 13084.1 1060.76 1
-8 8 -9 14645.1 1209.2 1
8 0 9 12795.5 917.769 2
8 0 -9 12353.8 886.921 2
0 8 -9 12809.1 1014.01 1
-8 0 -10 11804.4 1070.68 1
0 8 -10 10737.8 985.394 1
-8 8 -10 12242.4 1163.77 1
-8 8 -11 4077.28 767.853 1
0 8 -11 4126.02 674.035 1
-8 0 -11 3672.6 683.601 1
0 8 -12 12392.2 1182.43 1
-8 0 -12 15514.6 1357.59 1
-8 8 -12 15756.1 1438.56 1
0 8 -13 2477.2 351.016 5
-8 0 -13 1882.87 348.471 3
0 8 -13 2065.95 309.036 3
-8 8 -13 2102.66 694.279 1
-8 0 -13 1181.46 556.093 1
-8 8 -13 1566.85 308.371 3
-8 8 -14 6399.59 1037.09 1
-8 8 -14 7421.39 599.264 3
-8 0 -14 7563.99 1082.66 1
-8 0 -14 8216.55 642.936 3
0 8 -14 7462.09 557.594 5
0 8 -14 7371.26 600.017 3
-8 0 -15 -113.654 447.186 1
-8 0 -15 340.402 269.026 3
0 8 -15 135.707 184.079 5
0 8 -15 109.409 211.941 3
-8 8 -15 719.021 489.807 1
-8 8 -15 178.267 236.18 3
-8 0 -16 1309.17 364.522 3
-8 0 -16 1215.67 586.006 1
-8 8 -16 981.149 312.779 3
-8 8 -16 846.211 523.611 1
0 8 -16 566.472 258.723 5
0 8 -16 1098.24 310.077 3
0 8 -17 896.116 228.944 5
-8 0 -17 1630.33 390.301 3
0 8 -17 1119.22 348.229 3
-8 8 -17 1204.92 369.353 3
-8 8 -18 1506.15 396.534 3
-8 0 -18 1229.52 377.931 3
0 8 -18 1536.6 385.338 3
0 8 -18 1034.62 262.373 5
0 8 -19 1256.09 368.27 3
-8 8 -19 1531.6 387.895 3
0 8 -19 699.162 226.786 5
-8 0 -19 1372.61 380.696 3
0 8 -20 1296.5 374.863 3
-8 8 -20 1234.3 313.253 5
-8 0 -20 1744.16 414.726 3
-8 8 -20 892.183 362.563 3
-8 8 -21 240.941 212.699 5
-8 0 -21 183.208 256.253 3
-8 8 -21 1007.55 353.044 3
0 8 -21 473.105 276.526 3
-8 0 -22 80.0205 254.353 3
-8 8 -22 444.608 272.831 3
-8 8 -22 30.4223 178.718 5
-8 0 -23 266.628 238.658 3
-8 8 -23 146.051 242.977 3
-8 0 -24 271.374 182.36 3
-8 8 -24 28.1873 184.8 3
9 -4 0 1309.98 356.827 2
9 -5 0 1375.62 415.393 2
9 -5 -1 936.645 367.25 2
9 -4 1 956.679 362.811 2
9 -4 -1 961.748 302.164 2
9 -5 1 584.934 329.542 2
9 -4 -2 141.757 298.591 2
9 -4 2 -177.138 269.451 2
9 -5 -2 193.227 257.929 2
-4 -5 -2 -2.96143 71.209 1
9 -5 2 -143.991 269.785 2
9 -4 3 1363 361.357 2
9 -4 -3 1147.23 333.949 2
9 -5 -3 1347.88 387.57 2
-4 -5 -3 932.941 147.923 1
9 -5 3 1066.36 343.33 2
-4 -5 -4 450.276 138.406 1
9 -4 4 439.418 289.597 2
9 -5 -4 289.344 243.454 2
-5 -4 -4 426.006 190.039 1
9 -5 4 557.585 276.212 2
9 -4 -4 555.276 270.295 2
9 -5 -5 429.616 282.948 2
9 -4 5 65.8019 256.195 2
-4 -5 -5 382.075 148.618 1
9 -4 -5 -1.32664 300.412 2
9 -5 5 -16.2457 274.817 2
-5 -4 -5 304.85 221.817 1
-4 9 -5 329.052 246.881 1
9 -5 -6 362.122 254.784 2
-5 -4 -6 574.723 239.342 1
9 -4 -6 661.544 307.085 2
9 -5 6 583.196 229.348 2
-4 -5 -6 630.742 211.473 1
9 -4 6 939.407 326.657 2
-4 9 -6 401.066 302.761 1
-5 9 -7 1866.73 448.47 1
9 -4 -7 1484.7 355.003 2
9 -4 7 2295.53 395.361 2
9 -5 7 1946.06 381.256 2
-4 9 -7 1739.78 399.149 1
-4 -5 -7 2505.61 392.228 1
-5 -4 -7 2082.83 369.128 1
9 -5 -7 1626.49 356.46 2
-5 9 -8 311.273 301.002 1
9 -4 8 918.614 307.513 2
9 -5 8 844.6 297.147 2
9 -4 -8 1041.79 268.854 2
-5 -4 -8 947.876 295.712 1
9 -5 -8 545.124 274.819 2
-4 -5 -8 843.516 294.432 1
-4 9 -8 1238.39 442.005 1
-5 -4 -9 2149.93 460.769 1
-4 -5 -9 2232.58 415.432 1
9 -5 9 1965.49 378.585 2
-5 9 -9 1772.14 461.138 1
9 -5 -9 1284.96 363.255 2
9 -4 -9 1917.25 392.983 2
-4 9 -9 1826.49 491.277 1
9 -4 9 1665.71 360.402 2
-5 9 -10 796.26 354.132 1
-4 9 -10 1335.31 436.219 1
-9 5 -10 1073.05 464.692 1
-5 -4 -10 1831.83 456.519 1
-9 4 -10 1076.51 463.059 1
-4 -5 -10 1001.05 325.773 1
-4 -5 -11 1833.83 408.506 1
-9 4 -11 1765.84 549.926 1
-5 -4 -11 1936.92 471.812 1
-4 9 -11 1708.94 448.883 1
-5 9 -11 2412.29 568.706 1
-9 5 -11 2104.43 607.498 1
-5 9 -12 1232.65 436.025 1
-9 4 -12 304.349 426.58 1
-9 5 -12 286.707 400.345 1
-4 9 -12 857.744 401.061 1
-5 -4 -12 310.197 412.693 1
-4 -5 -12 613.397 283.183 1
-4 9 -13 318.411 186.376 3
-9 5 -13 201.57 198.022 3
-9 4 -13 -119.062 221.353 3
-5 -4 -13 23.156 214.889 3
-4 -5 -13 354.5 232.743 3
-5 9 -13 -47.4189 341.913 1
-4 -5 -13 784.915 405.93 1
-5 9 -13 446.586 256.66 3
-4 9 -13 794.74 553.471 1
-9 4 -13 937.861 534.02 1
4 5 -13 315.369 206.28 3
-9 5 -13 735.066 480.176 1
-5 -4 -13 683.372 399.867 1
4 5 -14 -287.426 264.48 3
-4 9 -14 -771.413 573.285 1
-4 9 -14 -115.341 196.54 5
-9 5 -14 62.4035 226.165 3
-5 9 -14 154.447 443.23 1
-5 9 -14 -379.686 242.364 3
-4 -5 -14 -12.638 179.433 3
-5 -4 -14 -518.758 472.162 1
-4 9 -14 144.718 222.787 3
-9 4 -14 -279.208 498.924 1
-9 4 -14 161.132 217.884 3
-9 5 -14 -659.472 505.772 1
5 4 -14 -83.4214 186.21 3
-5 -4 -14 -135.591 245.31 3
5 4 -15 138.464 210.382 3
-5 -4 -15 256.012 246.389 3
-4 -5 -15 -15.6359 207.963 3
-9 4 -15 100.231 521.223 1
-4 9 -15 -257.52 224.967 3
-4 9 -15 -239.727 378.563 1
-5 9 -15 -30.2008 325.165 1
-9 5 -15 165.629 418.821 1
4 5 -15 224.319 231.069 3
-5 9 -15 -212.402 224.03 3
-4 9 -15 555.06 252.715 5
-9 4 -15 -96.9175 233.065 3
-9 5 -15 -31.1894 242.69 3
-4 9 -16 272.726 241.974 5
-9 4 -16 -851.88 474.544 1
4 5 -16 -183.59 250.229 3
-5 9 -16 -536.75 541.86 1
-5 9 -16 -75.6723 220.566 3
5 4 -16 -227.493 268.531 3
-4 -5 -16 -21.5997 245.994 3
-9 5 -16 -422.76 598.79 1
-4 9 -16 -379.826 286.238 3
-5 9 -16 -100.573 222.726 5
-5 -4 -16 395.814 287.858 3
-9 5 -16 -31.2163 274.893 3
-4 9 -16 481.359 366.189 1
-9 4 -16 -30.3541 225.306 3
-4 9 -17 505.175 282.557 3
-5 -4 -17 441.658 292.5 3
-4 9 -17 213.649 221.077 5
5 4 -17 28.2631 232.611 3
-9 5 -17 535.602 309.651 3
-9 4 -17 1130.43 518.026 1
-4 -5 -17 -23.5302 231.322 3
-5 9 -17 628.567 272.8 5
-9 4 -17 181.345 264.288 3
-4 9 -17 330.648 326.249 1
-5 9 -17 658.435 305.005 3
-5 9 -17 534.553 441.825 1
4 5 -17 -5.2022 257.808 3
-9 5 -18 298.538 284.543 3
-4 -5 -18 344.253 249.523 3
5 4 -18 399.901 237.696 3
4 5 -18 311.1 220.735 3
-9 4 -18 609.718 316.335 3
-4 9 -18 220.074 213.123 5
-5 -4 -18 145.011 255.142 3
-4 9 -18 143.891 259.675 3
-5 9 -18 137.184 270.9 3
-5 9 -18 449.35 261.762 5
-4 -5 -19 164.265 245.936 3
-4 9 -19 3.79255 230.957 5
4 5 -19 -340.595 282.228 3
-9 5 -19 -213.946 322.035 3
-4 9 -19 -273.604 285.324 3
-5 9 -19 37.8399 306.488 3
-5 9 -19 -90.3862 234.347 5
-5 -4 -19 26.8525 245.646 3
-9 4 -19 187.763 292.066 3
-4 -5 -20 -180.822 206.61 3
-5 9 -20 124.341 286.535 3
-4 9 -20 355.746 301.625 3
-9 5 -20 -62.6529 281.054 3
-4 9 -20 -77.802 198.451 5
-9 4 -20 -255.685 326.108 3
-5 9 -20 108.223 200.449 5
-5 -4 -20 -201.039 249.084 3
-4 9 -21 402.578 314.048 3
-9 4 -21 88.4582 327.58 3
-4 9 -21 30.2772 184.713 5
-5 -4 -21 95.0306 250.422 3
-4 -5 -21 -179.031 208.15 3
-9 5 -21 318.137 293.417 3
-5 9 -21 -26.9389 178.864 5
-5 9 -21 -233.454 298.46 3
-5 9 -22 38.9496 166.9 5
-4 9 -22 311.418 273.332 3
-5 -4 -22 42.3231 197.521 3
-9 4 -22 91.6109 240.878 3
-4 -5 -22 302.378 180.783 3
-5 9 -22 116.281 258.007 3
-9 5 -22 316.226 267.73 3
-9 5 -23 135.208 225.61 3
-4 9 -23 -125.651 216.443 3
-4 -5 -23 -47.2954 164.312 3
-5 -4 -23 -47.6035 184.877 3
-9 4 -23 29.4193 221.563 3
-5 9 -23 6.19662 219.496 3
-4 9 -24 -263.101 206.791 3
-9 4 -24 101.323 192.857 3
-5 -4 -24 -98.9497 145.268 3
-5 9 -24 99.1661 230.839 3
-9 5 -24 46.7537 187 3
9 -3 0 268.074 328.766 2
6 3 0 -79.5069 299.608 2
6 3 1 5417.86 614.999 2
9 -3 1 5716.26 653.962 2
9 -3 -1 4334.45 573.12 2
6 3 -1 5419.71 617.28 2
9 -3 2 5449.42 590.058 2
6 3 -2 5753.93 639.34 2
6 3 2 5452.32 589.062 2
9 -3 -2 5813.12 593.945 2
6 3 3 6790.18 667.716 2
9 -3 -3 6992.28 685.592 2
6 3 -3 6339.82 653.996 2
9 -3 3 7221.95 671.548 2
9 -6 -4 4043.53 570.871 2
6 3 -4 4162.63 551.027 2
9 -3 -4 4400.76 542.727 2
-3 9 -4 4245.59 437.097 1
9 -3 4 4728.59 515.388 2
9 -6 4 4079.31 525.511 2
9 -3 -5 7235.73 699.853 2
-3 9 -5 6041.69 570.759 1
-6 -3 -5 6767.57 553.228 1
9 -6 -5 6732.45 701.599 2
9 -3 5 6191.97 609.506 2
9 -6 5 6986.5 660.192 2
-3 9 -6 1191.82 329.281 1
9 -3 -6 935.389 326.02 2
-6 -3 -6 1179.09 317.733 1
-3 -6 -6 1087.68 225.017 1
9 -6 6 1153.29 310.394 2
9 -3 6 1061.54 299.965 2
9 -6 -6 1011.14 293.007 2
9 -6 -7 3604.75 522.544 2
9 -3 7 4292.07 524.213 2
-3 -6 -7 4042.74 434.197 1
9 -3 -7 4713.96 581.995 2
-3 9 -7 3961.2 539.492 1
9 -6 7 4877.52 574.157 2
-6 -3 -7 4158.18 520.409 1
9 -6 8 719.288 298.472 2
9 -6 -8 -4.27329 245.495 2
9 -3 8 594.254 268.752 2
-6 -3 -8 502.936 278.747 1
-3 -6 -8 197.822 164.359 1
-6 9 -8 60.9637 328.095 1
-3 9 -8 267.629 277.758 1
9 -3 -8 12.28 208.235 2
9 -6 9 8937.03 776.122 2
9 -3 -9 8188.36 732.331 2
9 -3 9 7785.05 714.807 2
-6 9 -9 8450.21 901.857 1
-3 -6 -9 8473.57 727.549 1
-6 -3 -9 8212.58 809.914 1
-3 9 -9 8837.63 869.86 1
9 -6 -9 9529.57 804.494 2
-6 9 -10 269.179 340.172 1
-3 9 -10 188.789 281.81 1
-9 3 -10 382.018 384.908 1
-6 -3 -10 -456.517 365.464 1
-9 6 -10 383.266 426.886 1
-3 -6 -10 196.816 217.73 1
-9 6 -11 11061.9 1164.96 1
-6 -3 -11 10349.3 1002.06 1
-6 9 -11 11781 1186.39 1
-9 3 -11 10395.5 1110.78 1
-3 9 -11 9931.22 1048.93 1
-3 9 -12 -124.83 322.444 1
-9 6 -12 -33.4208 459.105 1
-9 3 -12 363.094 444.549 1
-6 9 -12 -475.599 481.625 1
-6 -3 -12 164.867 282.639 1
-6 9 -13 3609.96 416.893 3
-6 -3 -13 3438.5 655.527 1
-6 -3 -13 3492.53 413.66 3
-3 9 -13 3941.56 739.192 1
-6 9 -13 2963.95 649.875 1
-3 9 -13 4048.34 431.666 3
-9 3 -13 4069.3 496.444 3
-9 6 -13 3189.16 409.563 3
-3 9 -13 3279.18 393.423 5
-9 3 -13 3560.4 786.872 1
-9 6 -13 3347.91 788.918 1
3 6 -13 3600.49 414.681 3
-3 -6 -13 2498.89 352.527 3
-3 9 -14 183.831 194.419 5
3 6 -14 198.501 167.516 5
-9 3 -14 141.844 202.672 3
6 3 -14 464.138 249.27 3
-3 9 -14 -523.39 442.515 1
-3 -6 -14 87.7888 222.138 3
-9 3 -14 -422.312 507.794 1
-3 9 -14 265.776 225.128 3
-6 9 -14 399.15 290.019 3
-6 -3 -14 126.779 213.178 3
-6 -3 -14 37.3599 312.652 1
3 6 -14 -24.2044 217.96 3
-6 9 -14 764.232 502.764 1
-9 6 -14 622.412 506.366 1
-9 6 -14 333.338 197.026 3
-3 9 -15 -68.5853 206.583 5
-6 -3 -15 100.897 233.37 3
6 3 -15 614.716 255.658 3
-6 -3 -15 82.7458 276.426 1
-9 6 -15 194.045 236.767 3
3 6 -15 98.3707 216.355 3
-6 9 -15 27.8561 218.236 3
-3 9 -15 220.886 227.468 3
-9 3 -15 -160.695 255.119 3
3 6 -15 49.3671 181.536 5
-6 9 -15 -85.1242 306.679 1
-9 6 -15 553.974 428.32 1
-9 3 -15 -144.091 402.175 1
-3 -6 -15 290.134 235.657 3
-3 -6 -16 -140.719 213.725 3
3 6 -16 -139.269 223.017 3
-3 9 -16 108.255 208.759 5
-6 -3 -16 213.054 273.767 3
-3 9 -16 430.909 381.665 1
-6 9 -16 1002.31 574.387 1
-9 3 -16 15.0379 239.777 3
-9 6 -16 137.782 231.12 3
-6 9 -16 266.229 247.324 3
6 3 -16 -397.43 247.45 3
-3 9 -16 336.432 258.509 3
-9 3 -16 371.766 411.571 1
-9 6 -16 -365.084 493.94 1
-6 9 -17 2360.1 389.629 5
6 3 -17 1827.7 355.749 3
-6 9 -17 2535.56 456.008 3
-3 9 -17 2739.05 456.774 3
-6 -3 -17 2272.54 421.586 3
-9 6 -17 2210.93 442.013 3
-3 -6 -17 2280.17 361.493 3
3 6 -17 2138.47 406.655 3
-9 3 -17 2286.89 434.836 3
-3 9 -17 2018.73 354.787 5
3 6 -18 -177.146 262.784 3
-9 6 -18 -315.936 249.968 3
-6 -3 -18 360.332 285.839 3
-6 9 -18 222.448 306.14 3
-3 9 -18 313.726 244.164 5
-3 -6 -18 205.768 207.356 3
-3 9 -18 -150.069 256.937 3
-6 9 -18 -30.5033 222.085 5
-9 3 -18 -439.777 291.203 3
-6 -3 -19 2066.25 426.587 3
-6 9 -19 2402.55 456.757 3
-6 9 -19 1998.77 372.215 5
-9 3 -19 1264.06 379.188 3
3 6 -19 1370 344.25 3
-3 9 -19 1298.51 301.797 5
-9 6 -19 1925.75 419.083 3
-3 -6 -19 1640.44 336.807 3
-3 9 -19 1654.38 426.889 3
-6 9 -20 -393.546 229.483 5
-3 -6 -20 81.6622 205.13 3
-6 -3 -20 -374.858 291.296 3
-6 9 -20 -278.178 272.094 3
-9 3 -20 280.263 305.933 3
-3 9 -20 446.593 333.46 3
-3 9 -20 105.97 195.653 5
-9 6 -20 432.213 289.801 3
-9 6 -21 437.337 237.914 5
-6 -3 -21 505.402 267.946 3
-9 3 -21 349.403 286.928 3
-3 9 -21 706.482 333.625 3
-9 6 -21 341.458 292.975 3
-6 9 -21 889.828 340.107 3
-3 -6 -21 351.718 220.686 3
-6 9 -21 437.297 237.833 5
-3 9 -21 373.321 222.655 5
-9 6 -22 220.538 280.659 3
-6 9 -22 212.445 276.486 3
-3 9 -22 69.7193 248.971 3
-9 6 -22 191.51 191.498 5
-6 9 -22 48.4638 173.045 5
-6 -3 -22 16.7191 204.084 3
-9 3 -22 -9.55132 276.911 3
-3 -6 -22 348.946 177.963 3
-6 9 -23 77.2877 218.992 3
-9 3 -23 101.659 225.943 3
-9 6 -23 115.781 235.818 3
-6 -3 -23 -39.5509 182.88 3
-3 -6 -23 86.4006 151.376 3
-3 9 -23 106.331 230.219 3
-9 6 -24 410.597 223.534 3
-6 9 -24 251.789 205.612 3
-9 3 -24 203.557 202.195 3
-6 -3 -24 -64.174 163.694 3
9 -2 0 4018.73 553.434 2
7 2 0 3747.73 510.174 2
7 2 1 5446.41 614.321 2
-2 9 -1 5445.26 389.917 1
9 -2 -1 4430.99 546.677 2
9 -2 1 4764.78 571.503 2
7 2 -1 4726.68 571.227 2
9 -2 2 22958.4 1156.31 2
7 2 -2 22025.2 1158.27 2
-2 9 -2 19325.6 682.652 1
7 2 2 23788.1 1196.55 2
9 -2 -2 22094.9 1167.6 2
-2 9 -3 14091.8 668.366 1
9 -2 -3 15913.4 967.173 2
9 -2 3 16520.2 979.229 2
7 2 3 17402.8 1018.67 2
7 2 -3 15666.5 991.76 2
7 2 -4 20665.7 1143.56 2
9 -2 -4 21670.1 1157.48 2
7 2 4 20988.9 1146.42 2
-2 9 -4 19907.2 884.306 1
9 -2 4 20287.4 1107.82 2
9 -2 5 3987.07 529.58 2
7 2 5 4233.34 564.818 2
9 -2 -5 3771.43 535.468 2
7 2 -5 3075.13 482.102 2
-2 9 -5 3697.64 460.282 1
9 -7 6 2097.17 443.372 2
-2 9 -6 2292.2 391.844 1
7 2 6 1794.86 390.13 2
9 -2 -6 2424.76 458.452 2
9 -2 6 2918.31 448.934 2
7 2 -6 2374.45 467.214 2
9 -7 -7 11130 869.248 2
-2 9 -7 11925.4 887.772 1
9 -2 7 12122 873.002 2
9 -7 7 12016.8 895.562 2
9 -2 -7 11159.5 857.818 2
-7 -2 -7 11996.8 867.978 1
-7 -2 -8 2792.47 480.558 1
9 -2 8 3017.61 476.783 2
9 -2 -8 3082.5 492.092 2
-2 9 -8 3319.71 534.86 1
9 -7 -8 3811.24 550.634 2
-7 9 -8 3283.58 592.021 1
9 -7 8 2607.2 427.282 2
-7 -2 -9 4031.28 594.968 1
-9 2 -9 4793.62 720.844 1
-2 9 -9 4607.4 671.143 1
9 -2 9 3938.77 543.862 2
9 -7 9 4660.26 575.789 2
9 -2 -9 4670.58 600.776 2
-7 9 -9 5139.72 743.861 1
9 -7 -9 4110.11 555.667 2
-2 9 -10 9771.95 957.33 1
-7 -2 -10 9091.85 938.969 1
-7 9 -10 10398.9 1069.41 1
-9 2 -10 9462.46 1001.36 1
-9 7 -10 10831.1 1117.27 1
-7 9 -11 3190.83 665.278 1
-9 7 -11 3955.98 776.042 1
-7 -2 -11 3918.02 711.065 1
-9 2 -11 2870.15 660.959 1
-2 9 -11 3594.12 663.699 1
-7 -2 -12 11357.9 1161.44 1
-2 9 -12 10591.8 1105.12 1
-9 7 -12 12078.1 1281.52 1
-7 9 -12 12403.1 1284.98 1
-9 2 -12 11277.8 1182.54 1
-9 7 -13 970.682 511.018 1
-2 9 -13 1610.96 495.062 1
-7 9 -13 2103.43 320.772 3
2 7 -13 1195.19 236.311 5
2 7 -13 2232.04 341.22 3
-9 2 -13 1599.21 322.648 3
-2 -7 -13 1409.45 256.901 3
-2 9 -13 1971.91 340.265 3
-2 9 -13 1332.95 271.967 5
-9 7 -13 1943.43 328.357 3
-9 2 -13 2255.77 631.517 1
-7 -2 -13 2026.3 351.219 3
-7 -2 -13 2590.42 629.862 1
-7 9 -13 2217.1 669.724 1
-2 -7 -14 1781.71 313.725 3
-9 7 -14 2613.03 701.143 1
-7 -2 -14 1123.67 482.309 1
2 7 -14 2531.07 380.335 3
-7 -2 -14 2137.86 375.891 3
-2 9 -14 2129.66 349.222 5
-9 2 -14 2669.78 695.321 1
-7 9 -14 2897.32 778.341 1
-7 9 -14 2628.22 396.114 3
-9 7 -14 2060.74 343.802 3
2 7 -14 1544.28 287.372 5
-2 9 -14 2432.56 378.861 3
7 2 -14 1936.38 324.86 3
-9 2 -14 2694.55 405.731 3
-2 9 -14 1308.39 525.644 1
-7 -2 -15 -72.4559 420.347 1
2 7 -15 822.744 233.725 5
-9 7 -15 901.027 256.848 3
-7 -2 -15 1643.32 356.083 3
-2 9 -15 554.158 235.582 5
-7 9 -15 662.805 281.612 3
-2 9 -15 1231.04 628.104 1
-2 -7 -15 674.568 217.711 3
2 7 -15 489.843 225.599 3
-7 9 -15 1682.62 605.186 1
-9 2 -15 550.832 467.831 1
-9 2 -15 1434.47 351.378 3
-2 9 -15 1066.11 301.482 3
-9 7 -15 438.938 607.255 1
-9 7 -16 1277.7 347.098 3
-9 2 -16 1061.53 367.22 3
-9 7 -16 1758.03 608.209 1
-2 9 -16 1577.86 336.757 5
-7 -2 -16 1077.28 330.708 3
2 7 -16 1035.43 307.619 3
-7 9 -16 1425.3 620.301 1
-7 -2 -16 971.51 570.5 1
-9 2 -16 1595.01 615.525 1
-2 -7 -16 1806.73 347.35 3
-2 9 -16 1144.43 315.052 3
-7 9 -16 1135.92 333.031 3
2 7 -16 1261.56 257.917 5
-2 -7 -17 1014.17 270.382 3
-7 -2 -17 1485.85 378.179 3
-9 7 -17 1494.93 370.364 3
-2 9 -17 1597.44 342.084 5
-2 9 -17 1648.74 399.077 3
-7 9 -17 1196.31 341.747 3
2 7 -17 1686.74 363.219 3
2 7 -17 1064.85 239.794 5
-9 2 -17 1729.95 403.771 3
-7 -2 -18 2630.67 436.941 3
2 7 -18 2740.2 464.859 3
-7 9 -18 2279.78 418.975 3
-9 7 -18 2400.29 445.676 3
-2 9 -18 2158.8 429.547 3
-9 2 -18 2542.13 436.784 3
-2 9 -18 1999.65 361.65 5
-2 -7 -18 2349.38 353.655 3
-7 9 -18 1991.34 399.279 5
-7 9 -19 311.989 321.675 3
-7 -2 -19 150.075 272.342 3
2 7 -19 293.103 280.938 3
-2 9 -19 867.851 367.961 3
-9 7 -19 -3.31492 272.051 3
-2 -7 -19 192.739 208.729 3
-7 9 -19 -86.706 251.656 5
-2 9 -19 248.539 226.783 5
-9 2 -19 829.081 352.721 3
-2 -7 -20 1146.12 275.964 3
-9 2 -20 1632.52 406.882 3
-9 7 -20 1954.61 425.022 3
2 7 -20 1421.27 325.593 3
-2 9 -20 956.324 246.884 5
-2 9 -20 1143.71 366.087 3
-7 -2 -20 1674.56 394.992 3
-7 9 -20 1218.98 348.215 3
-7 9 -20 1179.24 279.945 5
-9 7 -21 68.5445 203.324 5
-2 9 -21 -67.4689 265.846 3
-2 9 -21 44.3349 169.39 5
-2 -7 -21 449.318 227.915 3
-9 2 -21 -0.49418 271.878 3
-7 9 -21 117.469 239.088 5
-9 7 -21 -592.401 267.863 3
-7 -2 -21 499.512 303.611 3
-7 9 -21 69.3379 292.713 3
-9 7 -22 -138.475 168.298 5
-7 9 -22 -82.1397 181.107 5
-9 7 -22 307.106 294.63 3
-9 2 -22 -252.221 279.222 3
-7 -2 -22 -5.42609 231.296 3
-2 9 -22 342.733 281.953 3
-7 9 -22 -10.0718 271.23 3
-9 2 -23 179.342 208.072 3
-7 -2 -23 18.1793 176.805 3
-9 7 -23 230.431 244.138 3
-7 9 -23 358.963 269.939 3
-9 2 -24 -50.141 172.741 3
-7 9 -24 -86.0983 191.22 3
-9 7 -24 -264.259 223.32 3
-7 -2 -24 397.215 176.521 3
8 1 0 472.116 296.736 2
9 -1 0 454.549 296.202 2
9 -1 -1 13727.3 931.649 2
8 1 -1 13690.8 948.062 2
8 1 1 13109.7 924.912 2
9 -1 1 13863 930.048 2
8 1 -2 31031.1 1415.93 2
8 1 2 31370.8 1396.56 2
9 -1 2 30468.1 1367.08 2
9 -1 -2 30428.5 1375.51 2
8 1 3 37171.2 1521.17 2
8 1 -3 39427.8 1579.33 2
9 -1 3 37577.5 1496.48 2
9 -1 -3 37400.7 1521.19 2
-1 9 -3 33130.9 916.355 1
-1 9 -4 39210.2 1160.62 1
8 1 4 45115.9 1672.25 2
8 1 -4 43770.6 1665.9 2
9 -1 -4 43561.2 1650.44 2
9 -1 4 44033 1625.39 2
8 1 5 16032.5 1033.27 2
-1 9 -5 15645.3 835.555 1
9 -1 -5 16845.1 1064.13 2
9 -1 5 16158 1026.82 2
8 1 -5 18219.1 1103.75 2
8 1 6 22317.3 1226.98 2
9 -1 -6 22359.2 1205.65 2
9 -1 6 21179 1186.13 2
8 1 -6 21678.1 1223.8 2
-1 9 -6 21489.6 1065.55 1
-1 9 -7 17843.6 1052.14 1
8 1 -7 17818.2 1115.89 2
8 1 7 18790 1134.98 2
9 -1 7 17927.3 1115.83 2
9 -1 -7 18522.9 1137.27 2
8 1 -8 4159.59 588.128 2
9 -8 8 4545.68 580.755 2
-1 9 -8 3983.07 568.873 1
-8 -1 -8 4401.26 590.086 1
9 -1 8 3733.03 546.203 2
9 -1 -8 3623.36 554.256 2
9 -8 -8 4212.14 561.636 2
9 -8 -9 7482.39 738.295 2
-8 9 -9 8303.07 970.809 1
-8 -1 -9 6831.92 787.138 1
9 -1 9 7624.18 752.645 2
9 -8 9 7362.96 720.582 2
-9 1 -9 7239.5 835.453 1
9 -1 -9 5699.33 658.045 2
-1 9 -9 6739.04 769.222 1
-8 9 -10 6151.34 883.426 1
-1 9 -10 7241.82 832.462 1
-9 8 -10 7240.92 935.036 1
-9 1 -10 8079.69 915.819 1
-8 -1 -10 7564.69 860.225 1
-9 1 -11 2927.34 589.63 1
-8 9 -11 3024.04 733.784 1
-8 -1 -11 3058.67 637.6 1
-1 9 -11 1782.34 483.836 1
-9 8 -11 3625.68 743.438 1
-8 -1 -12 6821.95 942.807 1
-1 9 -12 6118.64 865.629 1
-9 1 -12 6805.5 965.2 1
-9 8 -12 7288.06 1046.9 1
-8 9 -12 7290.15 1053.74 1
1 8 -13 2627.34 350.445 5
1 8 -13 2324.08 340.675 3
-9 8 -13 2866.91 702.853 1
-8 9 -13 2305.46 637.349 1
-8 -1 -13 3258.71 412.074 3
-9 1 -13 2035.62 597.103 1
-8 -1 -13 3322.01 731.029 1
-1 9 -13 3101.76 426.827 3
-1 9 -13 2983.75 633.657 1
-9 1 -13 2816.9 402.696 3
-1 9 -13 2781.62 366.751 5
-8 9 -13 2968.17 376.878 3
-9 8 -13 2133.56 353.54 3
1 8 -14 1399.24 332.91 3
-8 -1 -14 1408.95 346.196 3
-9 1 -14 1792.77 586.223 1
-8 9 -14 1285.03 606.58 1
-1 9 -14 837.505 264.981 3
-1 9 -14 1644.97 335.795 5
-8 -1 -14 989.23 452.339 1
-8 9 -14 1124.73 283.04 3
-9 8 -14 982.093 467.515 1
-9 8 -14 962.959 287.835 3
-9 1 -14 1175.82 305.329 3
-1 -8 -14 1081.24 262.343 3
1 8 -14 1270.6 234.933 5
-9 1 -15 639.438 290.026 3
-8 -1 -15 849.757 430.468 1
-8 9 -15 1665.95 691.897 1
1 8 -15 128.647 207.193 3
-8 -1 -15 832.374 301.473 3
-9 1 -15 479.508 476.384 1
-8 9 -15 515.779 267.5 3
-9 8 -15 407.016 230.644 3
1 8 -15 360.342 209.62 5
-1 9 -15 530.084 250.111 5
-9 8 -15 -815.434 483.923 1
-1 -8 -15 15.4381 181.18 3
-1 9 -15 876.894 300.307 3
-9 1 -16 1314.98 358.98 3
-1 -8 -16 583.285 244.642 3
-8 -1 -16 1218.28 365.038 3
-8 9 -16 1112.56 338.296 3
1 8 -16 342.65 236.714 3
-8 -1 -16 807.631 453.536 1
-9 8 -16 2111.97 832.653 1
-9 1 -16 -126.938 374.383 1
1 8 -16 441.407 207.018 5
-8 9 -16 638.387 521.441 1
-1 9 -16 580.056 302.57 3
-1 9 -16 792.136 261.806 5
-9 8 -16 665.109 282.701 3
-8 9 -17 1665.76 386.533 3
-9 8 -17 1895.23 402.349 3
-1 -8 -17 1346.14 294.669 3
-1 9 -17 1575.47 364.503 3
-9 1 -17 1391.36 370.48 3
1 8 -17 2196.21 416.613 3
-8 -1 -17 2284.5 424.334 3
1 8 -17 1633.48 311.935 5
-1 9 -17 2460.43 376.551 5
-1 9 -18 554.744 211.94 5
-8 9 -18 860.627 332.454 3
-8 -1 -18 1341.17 371.414 3
-1 -8 -18 972.606 264.052 3
-9 1 -18 879.37 341.876 3
1 8 -18 1616.51 401.195 3
-1 9 -18 1470.49 380.215 3
1 8 -18 679.818 253.953 5
-9 8 -18 1162.24 364.916 3
-8 9 -19 1225.77 339.033 5
-1 -8 -19 695.239 202.257 3
1 8 -19 1634.18 389.796 3
-1 9 -19 625.881 233.526 5
-9 1 -19 1043.75 364.197 3
-8 9 -19 586.35 356.029 3
-8 -1 -19 945.79 353.948 3
-9 8 -19 809.218 335.8 3
-1 9 -19 683.015 336.011 3
-8 -1 -20 424.307 304.209 3
-1 9 -20 808.063 340.433 3
-9 8 -20 537.185 251.697 5
1 8 -20 416.237 264.278 3
-1 9 -20 222.015 170.149 5
-9 1 -20 725.82 347.639 3
-9 8 -20 249.206 292.711 3
-8 9 -20 848.713 335.074 3
-8 9 -20 728.71 267.486 5
-9 8 -21 166.804 201.601 5
-1 9 -21 525.266 286.133 3
-8 -1 -21 795.502 331.13 3
-9 8 -21 417.107 264.688 3
-8 9 -21 868.456 351.272 3
-9 1 -21 360.547 289.809 3
-8 9 -21 509.789 239.108 5
-9 8 -22 246.128 191.909 5
-9 1 -22 19.0952 254.182 3
-8 9 -22 -6.73276 166.437 5
-9 8 -22 -12.5029 249.983 3
-8 -1 -22 201.076 244.8 3
-8 9 -22 -193.512 281.248 3
-8 9 -23 -108.359 243.056 3
-9 1 -23 -76.4173 225.97 3
-8 -1 -23 242.726 205.784 3
-9 8 -23 223.631 243.263 3
-8 9 -23 371.415 133.726 5
-9 1 -24 -121.848 188.577 3
-9 8 -24 99.8421 209.766 3
-8 9 -24 577.532 229.24 3
-8 -1 -24 330.508 189.34 3
9 0 0 18156.8 1100.76 2
9 0 -1 10350.6 860.014 2
9 0 1 12619.4 938.308 2
9 0 2 23219.1 1227.33 2
9 0 -2 22678.9 1222.9 2
9 0 3 61196.6 2006.92 2
9 0 -3 63263.5 2041.05 2
9 0 4 21577.6 1187.45 2
9 0 -4 20298 1179.58 2
9 0 5 28523.8 1401.08 2
0 9 -5 25549.8 1015.03 1
9 0 -5 29921.5 1462.6 2
9 0 -6 25939.2 1360.14 2
9 0 6 26276 1349.45 2
0 9 -6 23877.5 1080.04 1
0 9 -7 8198.11 716.349 1
9 0 7 6590.62 718.505 2
9 0 -7 8209.99 802.523 2
9 0 8 19385.7 1209.72 2
9 0 -8 20316.7 1222.95 2
-9 0 -8 22190.9 1349.28 1
0 9 -8 18095.9 1128.69 1
9 0 -9 1273.24 359.91 2
0 9 -9 886.341 339.165 1
-9 0 -9 1741.66 456.567 1
9 0 9 1043.35 317.949 2
9 -9 9 1108.72 351.454 2
0 9 -10 3043.03 556.575 1
-9 9 -10 3915.9 770.386 1
-9 0 -10 2826.2 574.67 1
-9 0 -11 7011.68 900.476 1
-9 9 -11 7318.06 1003.98 1
-9 0 -12 1517.98 316.746 3
0 9 -12 1371.85 302.516 3
-9 9 -12 2229.92 663.499 1
-9 0 -12 1575.54 612.398 1
0 9 -12 922.688 250.469 5
0 9 -13 9729.45 639.208 5
0 9 -13 10095.8 669.718 3
-9 9 -13 9253.48 644.454 3
-9 0 -13 10674.1 711.44 3
0 9 13 7131.39 486.456 6
-9 0 -13 8153.19 1079.86 1
-9 9 -13 9972.94 1268.99 1
-9 0 -14 663.59 335.871 3
0 9 -14 -3.99313 234.028 3
-9 9 -14 631.358 295.042 3
-9 0 -14 -185.467 486.223 1
0 9 -14 64.8311 189.298 5
0 9 14 171.833 147.343 6
-9 9 -14 1097.06 556.996 1
-9 9 -15 504.793 513.544 1
-9 0 -15 37.6741 243.742 3
-9 0 -15 127.037 325.905 1
0 9 -15 44.6725 202.053 5
-9 9 -15 621.257 256.127 3
0 9 -15 658.353 279.123 3
-9 9 -16 3061.91 466.227 3
0 9 -16 3459.26 476.609 3
-9 0 -16 2174.15 676.781 1
-9 9 -16 2219.37 744.75 1
-9 0 -16 3931.44 514.942 3
0 9 -16 2598.29 378.603 5
-9 0 -17 269.394 274.729 3
0 9 -17 69.677 261.954 3
-9 9 -17 94.5334 264.312 3
0 9 -17 395.033 231.852 5
0 9 -18 1494.14 386.386 3
-9 9 -18 178.2 283.713 3
0 9 -18 739.523 248.062 5
-9 0 -18 1109.56 357.216 3
0 9 -19 374.939 206.169 5
-9 0 -19 363.175 304.778 3
-9 9 -19 468.198 337.717 3
0 9 -19 306.746 267.634 3
-9 0 -20 440.437 274.053 3
0 9 -20 -71.6124 290.225 3
-9 9 -20 214.141 294.429 3
-9 9 -20 -55.7148 225.218 5
-9 9 -21 423.151 314.515 3
-9 9 -21 112.271 201.02 5
-9 0 -21 -73.1892 262.917 3
-9 9 -22 -0.86808 248.652 3
-9 0 -22 -124.568 240.059 3
-9 9 -22 143.031 170.272 5
-9 9 -23 226.033 201.972 3
-9 0 -23 -311.76 214.764 3
-9 9 -23 62.3021 134.263 5
-9 9 -24 152.278 177.049 3
-9 0 -24 205.326 167.774 3
10 -5 0 19008.6 1103.26 2
10 -5 1 -71.2205 290.08 2
10 -5 -1 29.8117 269.206 2
10 -5 -2 8708.53 781.661 2
10 -5 2 9521.29 800.426 2
10 -5 -3 49.4424 265.727 2
10 -5 3 -168.527 272.754 2
10 -5 4 363.736 246.68 2
10 -5 -4 759.102 324.45 2
10 -5 -5 438.861 278.174 2
10 -5 5 9.25365 239.349 2
-5 -5 -6 8221.33 605.232 1
10 -5 -6 10638.1 853.882 2
-5 10 -6 8894.59 780.448 1
10 -5 6 9033.42 780.855 2
10 -5 7 5.9202 203.627 2
-5 -5 -7 -323.647 235.52 1
-5 10 -7 -81.2782 260.008 1
10 -5 -7 270.319 274.475 2
10 -5 8 10129 839.139 2
10 -5 -8 9527.16 836.991 2
-5 10 -8 9773.73 903.724 1
-5 -5 -8 10533.3 797.553 1
-5 10 -9 -241.085 319.469 1
10 -5 9 527.384 267.991 2
10 -5 -9 -42.0177 227.248 2
-10 5 -10 194.747 412.083 1
-5 10 -10 65.5696 340.135 1
-10 5 -11 -38.3918 360.996 1
-5 10 -11 -244.953 363.335 1
-10 5 -12 1095.41 468.005 1
-5 10 -12 1615.21 539.252 1
-5 10 -13 11.6436 201.842 3
-5 10 -13 473.324 373.463 1
-5 -5 -13 48.6423 209.949 3
-10 5 -13 -74.3441 186.098 3
-10 5 -13 -150.458 424.171 1
-5 10 13 -242.133 184.144 6
5 5 -13 -281.283 180.59 3
-5 10 -14 730.154 255.151 3
-10 5 -14 416.122 251.007 3
-5 -5 -14 1134.21 297.5 3
-10 5 -14 326.286 430.301 1
-5 10 -14 12.7539 420.706 1
-5 10 14 714.575 205.606 6
-5 10 -14 904.396 284.048 5
5 5 -14 724.016 240.782 3
-5 -5 -15 -136.688 254.824 3
-5 10 -15 26.8071 216.556 5
5 5 -15 293.519 254.744 3
-5 10 -15 85.2823 206.963 3
-10 5 -15 -234.627 469.987 1
-10 5 -15 43.1329 233.007 3
-5 10 -15 32.3694 373.996 1
-10 5 -16 1777.54 350.329 3
-5 10 -16 1539.96 505.475 1
-5 -5 -16 1243.27 337.133 3
-5 10 -16 1623.75 373.221 5
5 5 -16 1221.41 318.319 3
-5 10 -16 1859.09 398.989 3
-10 5 -16 332.751 521.174 1
-5 -5 -17 212.582 260.169 3
-5 10 -17 -52.0341 235.145 5
-5 10 -17 305.375 283.632 3
-10 5 -17 171.613 250.866 3
-10 5 -18 2051.06 416.517 3
-5 10 -18 1692.68 350.115 5
-5 -5 -18 1983.08 390.058 3
-5 10 -18 1761.74 409.847 3
-5 10 -19 26.7966 225.312 5
-10 5 -19 -461.188 310.81 3
-5 10 -19 12.6504 296.58 3
-5 -5 -19 -418.415 269.961 3
-5 10 -20 359.479 238.473 5
-5 10 -20 298.76 308.614 3
-10 5 -20 284.882 259.944 3
-5 -5 -20 139.937 235.105 3
-5 10 -21 -314.944 287.252 3
-5 10 -21 201.979 206.505 5
-5 -5 -21 66.0396 213.166 3
-10 5 -21 -137.976 269.737 3
-5 10 -22 447.472 208.727 5
-5 10 -22 699.958 307.244 3
-10 5 -22 -154.297 267.547 3
-5 -5 -22 286.579 201.003 3
-5 10 -23 293.332 260.439 3
-5 -5 -23 -66.4512 166.927 3
-10 5 -23 -21.3663 229.394 3
-5 -5 -24 75.9964 105.666 3
-10 5 -24 -356.723 238.01 3
10 -4 0 -105.843 312.102 2
10 -6 0 -294.524 337.721 2
10 -6 1 3463.45 545.402 2
10 -6 -1 3587.95 566.41 2
10 -4 -1 3886.4 547.503 2
10 -4 1 4315.62 581.629 2
10 -4 2 927.711 333.994 2
10 -4 -2 737.083 361.36 2
10 -6 -2 478.012 311.982 2
10 -6 2 496.77 324.396 2
10 -6 3 960.406 359.825 2
10 -4 3 751.647 332.876 2
10 -4 -3 674.369 330.279 2
10 -6 -3 1742.15 439.775 2
10 -4 4 184.621 254.228 2
10 -4 -4 369.082 293.179 2
-6 -4 -4 232.473 153.072 1
-4 10 -4 243.417 203.783 1
10 -6 4 -77.5167 272.405 2
10 -6 -4 562.273 313.726 2
-6 -4 -5 800.269 206.289 1
10 -4 -5 454.319 298.335 2
10 -4 5 771.277 334.112 2
10 -6 -5 653.582 284.14 2
10 -6 5 1044.79 370.658 2
-4 10 -5 565.313 264.387 1
-4 10 -6 1464.26 378.633 1
10 -4 6 1362.49 379.347 2
10 -4 -6 1591.18 422.811 2
10 -6 -6 1017.7 364.845 2
-6 -4 -6 1227.75 299.325 1
10 -6 6 1736.42 406.543 2
10 -4 -7 7139.98 723.084 2
10 -4 7 6924 701.294 2
-4 10 -7 6529.58 712.489 1
10 -6 -7 6543.05 692.263 2
-6 10 -7 8383.38 818.718 1
10 -6 7 7327.02 732.979 2
-6 -4 -7 7159.56 663.376 1
-6 -4 -8 2589.32 457.59 1
10 -6 -8 1637.93 376.114 2
10 -6 8 2006.5 411.973 2
10 -4 -8 2307.66 439.919 2
10 -4 8 1248.36 340.091 2
-6 10 -8 2132.53 530.171 1
-4 10 -8 2286.24 485.524 1
-4 10 -9 5257.58 720.086 1
10 -4 9 4681.87 621.465 2
-6 10 -9 4813.27 719.189 1
10 -6 -9 4379.93 591.91 2
10 -6 9 4342.63 573.544 2
10 -4 -9 4518.46 579.718 2
-6 -4 -9 5345.15 635.824 1
-10 6 -10 2189.66 639.292 1
-4 10 -10 1407.56 475.481 1
-10 4 -10 2086.67 548.52 1
-6 -4 -10 1475.52 419.039 1
-6 10 -10 955.13 460.512 1
-4 10 -11 1630.64 472.974 1
-6 -4 -11 1231.29 458.708 1
-10 4 -11 956.271 489.93 1
-6 10 -11 974.948 441.716 1
-10 6 -11 634.923 394.58 1
-6 10 -12 1319.15 489.312 1
-10 4 -12 1039.14 376.459 1
-6 -4 -12 860.451 249.774 3
-4 10 -12 1488.25 577.169 1
-10 6 -12 1538.89 558.973 1
-4 10 -12 990.783 245.544 5
4 6 -13 181.127 203.741 3
-10 4 -13 450.444 215.756 3
-6 10 13 606.473 235.558 6
4 6 -13 466.094 201.281 5
-6 -4 -13 429.991 251.649 3
-4 10 -13 550.331 377.095 1
-6 10 -13 616.443 464.478 1
-10 6 -13 -4.85792 396.023 1
-4 10 -13 264.215 196.601 5
6 4 -13 489.464 195.562 3
-4 10 -13 518.642 238.278 3
-4 -6 -13 350.194 233.508 3
-10 6 -13 1160.11 302.311 3
-10 4 -13 -420.946 437.599 1
-6 10 -13 477.018 227.427 3
-4 10 13 629.184 213.583 6
-10 4 -14 922.704 281.789 3
-4 10 14 630.439 223.93 6
-4 -6 -14 758.999 260.903 3
-4 10 -14 112.577 452.712 1
4 6 -14 839.111 261.53 3
-10 4 -14 788.368 517.968 1
-6 10 14 681.966 244.218 6
-6 10 -14 418.799 224.775 3
-4 10 -14 382.683 236.942 5
-4 10 -14 598.413 231.082 3
-6 -4 -14 489.65 234.845 3
-10 6 -14 695.944 260.744 3
-6 10 -14 1159.49 470.038 1
-10 6 -14 574.059 565.03 1
-10 6 -15 -535.591 549.758 1
-4 10 -15 253.263 227.215 5
4 6 -15 393.849 269.718 3
-10 4 -15 399.671 281.269 3
-10 6 -15 301 246.146 3
-10 4 -15 395.249 477.836 1
-6 -4 -15 267.719 216.263 3
-4 -6 -15 729.978 281.377 3
-4 10 -15 820.519 259.54 3
-6 10 -15 -365.498 514.991 1
-4 10 -15 311.693 353.714 1
-6 10 -15 1332.04 352.88 3
-6 10 -16 357.064 214.197 5
-4 10 -16 543.178 267.487 5
-10 4 -16 501.883 279.649 3
-4 10 -16 332.827 435.681 1
-10 6 -16 486.961 479.976 1
-6 10 -16 289.061 409.41 1
-10 4 -16 695.989 668.66 1
-10 6 -16 527.735 308.835 3
-6 10 -16 -125.732 283.072 3
-4 10 -16 25.1297 255.355 3
4 6 -16 284.765 235.543 3
-6 -4 -16 -92.0125 269.419 3
-4 -6 -16 25.9735 238.539 3
-10 4 -17 918.133 331.095 3
-6 10 -17 721.692 328.183 3
-10 6 -17 586.138 292.887 3
4 6 -17 722.939 321.697 3
-4 -6 -17 659.716 291.459 3
-6 -4 -17 780.923 305.951 3
-6 10 -17 923.192 321.048 5
-4 10 -17 312.469 266.941 3
-4 10 -17 780.775 270.742 5
-6 10 -18 658.288 275.56 5
-4 -6 -18 340.856 245.683 3
-10 6 -18 1076.85 331.71 3
-6 -4 -18 958.962 322.631 3
-10 4 -18 787.587 349.443 3
-6 10 -18 807.085 321.67 3
-4 10 -18 1040.29 342.895 3
-4 10 -18 586.933 245.548 5
-6 -4 -19 -545.397 318.388 3
-4 10 -19 177.266 270.653 3
-4 10 -19 176.063 207.465 5
-6 10 -19 -11.8748 212.939 5
-6 10 -19 8.77026 258.011 3
-10 6 -19 -110.129 266.241 3
-4 -6 -19 179.615 220.242 3
-10 4 -19 80.6181 297.261 3
-4 -6 -20 456.386 240.581 3
-4 10 -20 484.869 318.881 3
-4 10 -20 800.853 269.077 5
-6 -4 -20 1180.96 327.77 3
-10 6 -20 785.803 323.956 3
-10 4 -20 897.457 354.65 3
-6 10 -20 642.088 320.106 3
-6 10 -20 723.491 272.76 5
-4 -6 -21 -6.65206 187.237 3
-10 6 -21 115.836 260.796 3
-4 10 -21 41.5826 293.481 3
-6 10 -21 305.765 253.961 3
-10 4 -21 188.924 274.149 3
-6 10 -21 -173.873 203.938 5
-4 10 -21 421.697 240.712 5
-6 -4 -21 262.032 265.152 3
-6 10 -22 -227.61 251.772 3
-4 10 -22 214.127 247.956 3
-4 -6 -22 44.4339 170.049 3
-10 6 -22 61.2225 245.26 3
-6 10 -22 103.423 169.175 5
-6 -4 -22 283.639 228.514 3
-4 10 -22 15.1254 145.617 5
-10 6 -22 -146.236 184.066 5
-10 4 -22 260.763 278.119 3
-10 6 -23 -214.802 230.813 3
-10 4 -23 219.642 219.567 3
-4 -6 -23 200.753 165.744 3
-4 10 -23 160.853 215.732 3
-6 10 -23 -381.192 251.865 3
-6 -4 -23 -76.4603 168.568 3
-10 6 -24 109.285 195.448 3
-6 10 -24 -116.437 173.71 3
-10 4 -24 112.468 188.186 3
-6 -4 -24 47.793 134.449 3
7 3 0 747.357 329.774 2
10 -3 0 375.027 325.587 2
7 3 1 478.577 344.687 2
10 -3 -1 123.202 262.336 2
10 -3 1 424.34 291.71 2
7 3 -1 129.877 301.244 2
-3 10 -2 1352.01 216.156 1
10 -3 -2 1009.59 319.507 2
7 3 -2 991.497 350.21 2
7 3 2 1398.74 362.475 2
10 -3 2 1823.34 428.027 2
-3 10 -3 2278.72 316.237 1
10 -3 -3 1989.24 472.246 2
7 3 3 2660.8 474.994 2
7 3 -3 2882.36 532.94 2
10 -3 3 2369.92 456.277 2
10 -3 4 8450.26 773.459 2
10 -7 4 6894.21 772.509 2
10 -3 -4 7935.18 758.411 2
10 -7 -4 8254.11 791.864 2
-3 10 -4 7936.07 595.735 1
7 3 -4 8421.97 796.142 2
7 3 4 10397.6 873.02 2
10 -3 -5 4740.42 606.26 2
10 -7 5 5553.34 664.761 2
-3 10 -5 4796.99 535.641 1
10 -3 5 5378.9 624.198 2
10 -7 -5 4880.34 604.247 2
10 -7 -6 1840.17 444.309 2
10 -3 -6 2353.62 464.508 2
10 -3 6 1339.75 370.981 2
-7 -3 -6 1770.47 358.18 1
-3 10 -6 1905.77 369.017 1
10 -7 6 1595.77 353.055 2
-3 10 -7 4278.43 565.14 1
10 -3 7 3976.88 534.929 2
-7 -3 -7 3444.77 509.075 1
10 -7 7 4326.63 614.679 2
10 -3 -7 4230.15 572.782 2
10 -7 -7 5107.46 637.819 2
-3 10 -8 1857.84 443.667 1
10 -3 8 1938.98 413.722 2
-7 10 -8 1758.89 475.293 1
10 -3 -8 1291.86 361.839 2
-7 -3 -8 2089.55 441.452 1
10 -7 -8 2029.24 417.916 2
10 -7 8 2085.21 430.967 2
10 -7 -9 1791.97 397.579 2
-7 -3 -9 2332.59 478.527 1
10 -3 -9 2388.15 446.561 2
10 -3 9 1340.63 361.255 2
-7 10 -9 1901.69 516.904 1
10 -7 9 1334.95 298.797 2
-3 10 -9 1452.43 385.006 1
-10 7 -10 9162.3 1088.88 1
-10 3 -10 9229.91 1015.4 1
-7 10 -10 7969.86 932.813 1
-7 -3 -10 7997.85 864.368 1
-3 10 -10 7714.04 872.188 1
-7 -3 -11 1606.63 428.553 1
-10 3 -11 1864.89 596.964 1
-10 7 -11 1599.98 540.664 1
-7 10 -11 2019.03 624.975 1
-3 10 -11 1379.38 457.337 1
-7 -3 -12 3657.44 415.112 3
-10 3 -12 3116.78 401.775 3
3 7 -12 3324.98 403.948 3
-7 10 -12 4893.28 1189.54 1
-3 10 -12 3033.03 377.622 3
-3 10 -12 2643.54 361.879 5
-7 -3 -12 3638.16 701.817 1
-3 10 -12 2177.45 564.8 1
-10 3 -12 3599.04 701.071 1
-10 7 -12 2917.57 748.711 1
3 7 -13 246.483 167.195 5
-7 -3 -13 409.662 308.529 1
-7 10 -13 564.074 256.824 3
-7 10 -13 131.648 422.797 1
-3 10 -13 -102.266 290.559 1
-3 10 -13 191.44 242.48 3
-3 -7 -13 511.901 210.368 3
-10 7 -13 524.613 223.665 3
-10 3 -13 881.074 298.997 3
-3 10 13 -156.074 165.271 6
3 7 -13 306.621 217.341 3
-10 7 -13 1332.45 559.247 1
-10 3 -13 642.367 442.801 1
-7 -3 -13 270.488 234.171 3
-7 10 13 185.87 184.098 6
-3 10 -13 271.499 253.997 5
-3 10 14 -183.202 175.404 6
-10 3 -14 538.545 413.64 1
-3 10 -14 -275.258 499.647 1
-10 3 -14 57.4902 252.464 3
-7 -3 -14 -170.14 237.505 3
-10 7 -14 -387.782 411.639 1
3 7 -14 113.339 220.973 3
-7 10 -14 494.632 420.015 1
-3 10 -14 147.224 201.706 5
-10 7 -14 393.981 254.941 3
-3 10 -14 182.722 215.33 3
3 7 -14 433.935 217.793 5
-7 10 -14 -217.047 211.632 3
-7 10 14 -236.211 220.426 6
-3 -7 -14 -218.987 193.229 3
-10 3 -15 230.461 260.154 3
-3 10 -15 158.865 210.237 3
3 7 -15 74.5559 247.662 3
-3 10 -15 -137.414 338.639 1
-7 -3 -15 -121.974 249.684 3
-3 -7 -15 384.197 257.377 3
-7 10 -15 -161.827 471.158 1
-10 7 -15 97.5796 533.204 1
-7 10 -15 -126.739 231.203 3
-10 3 -15 -353.09 373.957 1
3 7 -15 -121.25 183.617 5
-10 7 -15 227.775 260.416 3
-3 10 -15 265.081 251.643 5
-3 10 -16 76.2706 218.679 5
3 7 -16 433.939 292.359 3
-3 -7 -16 151.287 208.888 3
-10 3 -16 203.101 255.908 3
-10 3 -16 -257.153 459.63 1
-7 10 -16 -247.779 476.757 1
-3 10 -16 615.246 261.614 3
-3 10 -16 491.916 344.612 1
-7 10 -16 306.33 272.079 3
-10 7 -16 68.9943 488.827 1
-10 7 -16 105.632 227.579 3
-7 -3 -16 317.683 305.689 3
-3 -7 -17 648.097 313.895 3
3 7 -17 296.615 294.309 3
-7 10 -17 1059.34 348.671 3
-10 7 -17 821.017 319.879 3
-3 10 -17 808.405 322.08 3
-3 10 -17 337.858 234.332 5
-7 10 -17 625.038 276.124 5
-7 -3 -17 652.472 330.972 3
-10 3 -17 957.534 330.394 3
-10 3 -18 554.125 316.237 3
-3 -7 -18 660.111 270.164 3
-7 -3 -18 607.066 304.725 3
-7 10 -18 92.1226 263.771 3
-7 10 -18 821.017 304.585 5
-3 10 -18 609.577 289.378 5
-3 10 -18 633.694 306.755 3
-10 7 -18 303.697 262.918 3
-7 -3 -19 533.778 290.077 3
-7 10 -19 831.417 351.839 3
-3 10 -19 126.432 284.816 3
-3 -7 -19 628.748 283.77 3
-3 10 -19 346.461 232.93 5
-7 10 -19 167.792 271.973 5
-10 3 -19 479.066 298.329 3
-10 7 -19 616.998 302.677 3
-7 10 -20 900.126 326.272 3
-3 10 -20 151.516 192.198 5
-7 -3 -20 441.809 265.603 3
-10 7 -20 714.385 339.441 3
-3 10 -20 173.306 286.448 3
-10 3 -20 178.449 291.576 3
-3 -7 -20 289.951 186.428 3
-7 10 -20 493.961 228.29 5
-7 10 -21 242.464 258.479 3
-10 7 -21 88.962 189.788 5
-3 10 -21 -90.2449 190.298 5
-3 -7 -21 308.188 183.447 3
-7 10 -21 66.1282 186.666 5
-10 3 -21 113.061 268.413 3
-10 7 -21 6.78497 245.337 3
-7 -3 -21 288.939 245.072 3
-3 10 -21 182.026 308.727 3
-10 7 -22 69.8752 185.045 5
-7 10 -22 -123.111 231.953 3
-10 7 -22 170.01 253.596 3
-3 10 -22 542.378 292.994 3
-10 3 -22 307.986 264.357 3
-3 -7 -22 0.91622 174.418 3
-7 10 -22 -14.2469 157.316 5
-7 -3 -22 -173.793 234.666 3
-7 -3 -23 66.5701 179.875 3
-7 10 -23 -6.91934 226.056 3
-10 7 -23 -43.3541 205.775 3
-10 3 -23 240.711 221.361 3
-7 10 -23 197.641 150.845 5
-10 3 -24 125.982 184.522 3
-7 10 -24 6.70632 185.203 3
-7 -3 -24 156.74 161.567 3
-10 7 -24 141.976 181.417 3
10 -2 0 616.581 397.127 2
8 2 0 50.3332 331.32 2
10 -2 1 3090.29 486.205 2
10 -2 -1 2663.48 509.475 2
8 2 -1 2658.02 497.524 2
8 2 1 2549.29 536.201 2
8 2 -2 12146.1 921.774 2
8 2 2 13617.3 983.55 2
10 -2 2 12328.4 900.915 2
10 -2 -2 13255.9 958.556 2
8 2 -3 5173.58 659.898 2
-2 10 -3 3886.67 361.563 1
8 2 3 4716.59 639.369 2
10 -2 -3 4541.45 598.445 2
10 -2 3 4417.44 600.727 2
8 2 -4 10372.2 895.791 2
10 -2 4 11617.9 892.984 2
8 2 4 10395.9 864.584 2
10 -2 -4 11378.3 908.49 2
-2 10 -4 9611.84 614.948 1
10 -2 -5 2684.11 494.266 2
8 2 5 2416.35 491.232 2
10 -2 5 2626.83 465.633 2
-2 10 -5 2318.36 362.639 1
8 2 -5 3072.22 560.097 2
-2 10 -6 6808.09 628.157 1
8 2 6 7316.54 741.306 2
10 -2 -6 7348.99 747.706 2
10 -8 6 6136 749.601 2
10 -2 6 6872.45 715.068 2
8 2 -6 6652.13 734.12 2
-8 -2 -7 504.846 324.256 1
10 -2 -7 352.653 294.812 2
-2 10 -7 554.487 267.208 1
10 -8 7 788.979 343.511 2
10 -2 7 747.707 318.915 2
10 -8 -7 374.663 253.706 2
-2 10 -8 4372.75 586.789 1
10 -2 -8 3981.62 574.962 2
-8 -2 -8 4663.88 634.663 1
10 -8 -8 4203.49 604.381 2
10 -2 8 4332.15 601.445 2
10 -8 8 3393.23 584.138 2
10 -8 9 1238.66 316.051 2
-2 10 -9 972.718 311.523 1
10 -2 9 1876.43 454.893 2
-8 -2 -9 1356.04 402.842 1
10 -2 -9 1229.55 373.552 2
10 -8 -9 1415.85 381.952 2
-8 10 -9 1767.04 583.441 1
-10 2 -10 487.173 410.19 1
-2 10 -10 -89.4924 269.778 1
-8 10 -10 -167.438 370.28 1
-8 -2 -10 -501.212 400.937 1
-10 8 -10 -168.162 503.785 1
-8 -2 -11 4414.82 692.086 1
-10 2 -11 4721.29 827.216 1
-2 10 -11 3820.49 677.212 1
-8 10 -11 3071.56 717.399 1
-10 8 -11 4588.46 803.887 1
-10 8 -12 332.598 406.599 1
-10 2 -12 611.717 262.588 3
-2 10 -12 482.017 299.557 1
-10 8 -12 437.13 189.466 3
-8 -2 -12 1125.53 270.116 3
-8 -2 -12 716.835 440.865 1
-8 10 -12 658.4 206.108 3
-2 10 -12 413.257 190.44 3
-2 10 -12 198.625 183.88 5
2 8 -12 740.724 270.741 3
-8 10 -12 715.407 426.847 1
-10 2 -12 720.888 428.865 1
2 8 -12 1222.98 279.384 5
-8 10 -13 1708.03 315.794 3
-2 10 -13 2325.55 366.957 5
-10 2 -13 1630.37 347.812 3
-2 10 -13 1053.92 485.533 1
2 8 13 1982.2 282.946 6
-10 2 -13 1884.51 586.606 1
-10 8 -13 2368.99 709.569 1
-2 10 -13 2111.12 343.946 3
-2 -8 -13 1279.19 244.666 3
2 8 -13 1995.08 333.373 5
-8 -2 -13 1064.75 466.694 1
-2 10 13 1832.85 283.321 6
-8 -2 -13 2206.99 338.576 3
-8 10 -13 2656.08 735.204 1
2 8 -13 2155.64 359.537 3
-10 8 -13 1971.94 359.219 3
-2 10 -14 700.043 468.37 1
-10 2 -14 847.19 561.507 1
-10 2 -14 222.678 219.554 3
-8 10 -14 57.0394 372.476 1
-8 10 14 328.271 220.524 6
-2 -8 -14 232.265 190.536 3
2 8 -14 450.161 268.314 3
-2 10 14 565.088 205.765 6
-8 -2 -14 640.484 282.765 3
2 8 -14 -57.6321 181.01 5
-2 10 -14 404.417 260.995 3
-8 10 -14 -22.8676 211.424 3
-10 8 -14 1066.88 687.807 1
-8 -2 -14 -196.903 426.639 1
-10 8 -14 247.531 216.943 3
-2 10 -14 86.3115 195.316 5
-10 8 -15 103.484 447.382 1
2 8 -15 160.861 183.062 5
-2 -8 -15 -3.95421 188.955 3
-10 2 -15 -189.661 404.913 1
-8 -2 -15 531.493 300.279 3
-8 10 -15 857.236 538.009 1
2 8 -15 610.165 263.215 3
-2 10 -15 246.584 264.599 3
-10 2 -15 250.062 260.008 3
-8 10 -15 845.588 311.546 3
-10 8 -15 591.41 285.481 3
-2 10 -15 283.31 215.175 5
-10 8 -16 -122.186 279.702 3
-10 2 -16 295.016 273.736 3
2 8 -16 617.591 246.767 5
-2 -8 -16 196.891 232.965 3
-8 -2 -16 471.635 334.759 3
-2 10 -16 58.7416 232.846 5
-10 8 -16 -530.92 668.928 1
2 8 -16 841.328 367.671 3
-10 2 -16 180.312 389.109 1
-2 10 -16 343.133 290.718 3
-8 10 -16 463.572 553.822 1
-8 10 -16 189.042 225.806 3
-8 10 -17 142.345 281.637 3
-8 -2 -17 -220.314 283.308 3
2 8 -17 19.9802 267.535 3
-10 2 -17 -19.0196 273.005 3
-2 10 -17 611.145 358.029 3
-2 -8 -17 651.919 281.476 3
-10 8 -17 -215.854 265.744 3
-2 10 -17 -188.559 214.354 5
-10 2 -18 -319.42 293.512 3
-8 -2 -18 -8.75785 299.402 3
2 8 -18 531.021 313.949 3
-10 8 -18 494.414 302.09 3
-2 -8 -18 72.6506 199.841 3
-2 10 -18 206.782 293.162 3
-8 10 -18 384.681 287.403 5
-8 10 -18 212.607 283.175 3
-2 10 -18 636.677 264.057 5
-8 10 -19 677.181 281.818 5
-8 -2 -19 901.181 337.863 3
-10 8 -19 924.207 381.248 3
-2 -8 -19 1125.96 273.85 3
-2 10 -19 528.974 306.222 3
-2 10 -19 282.051 218.656 5
-8 10 -19 823.751 320.611 3
-10 2 -19 1343.76 396.13 3
-2 -8 -20 265.572 173.011 3
-2 10 -20 167.045 265.747 3
-8 10 -20 168.594 280.735 3
-8 10 -20 379.334 273.559 5
-10 8 -20 415.639 291.064 3
-2 10 -20 -67.1741 183.173 5
-10 2 -20 573.105 301.639 3
-8 -2 -20 105.997 258.099 3
-10 2 -21 260.677 281.966 3
-8 10 -21 66.5037 225.541 5
-10 8 -21 -144.016 254.136 3
-8 10 -21 477.849 310.855 3
-2 10 -21 937.379 314.612 3
-8 -2 -21 52.82 243.561 3
-10 8 -21 38.1299 213.607 5
-10 8 -22 -93.978 177.467 5
-8 -2 -22 -298.078 208.555 3
-8 10 -22 166.183 232.06 3
-10 8 -22 41.9371 233.347 3
-10 2 -22 -169.64 251.62 3
-8 10 -22 -211.825 185.027 5
-8 10 -23 88.9574 147.191 5
-10 8 -23 -8.849 197.245 3
-8 10 -23 -109.583 204.287 3
-10 2 -23 -256.394 220.175 3
-8 -2 -23 182.488 176.121 3
-10 8 -23 130.798 134.99 5
-8 -2 -24 96.1366 149.737 3
-10 8 -24 189.629 185.47 3
-10 2 -24 142.912 166.364 3
9 1 0 6787.49 756.547 2
10 -1 0 6844.29 706.587 2
10 -1 1 6464.56 725.55 2
9 1 1 7505.48 777.484 2
9 1 -1 6850.55 750.72 2
10 -1 -1 6507.96 714.58 2
10 -1 2 13993.2 1014.87 2
10 -1 -2 13591.6 1007.97 2
9 1 -2 13768.6 1014.76 2
9 1 2 14350.9 1039 2
10 -1 3 22523.5 1245.66 2
9 1 3 24459.2 1322.76 2
10 -1 -3 23976.1 1304.7 2
9 1 -3 21968.4 1279.8 2
9 1 4 13419.9 1007.62 2
10 -1 4 14595 1041.68 2
9 1 -4 14846.3 1076.36 2
10 -1 -4 15457.4 1089.78 2
9 1 -5 880.1 358.931 2
10 -1 5 942.022 327.336 2
9 1 5 1471.73 389.419 2
10 -1 -5 247.192 249.545 2
9 1 -6 5678.66 700.915 2
10 -1 6 5948.4 698.443 2
10 -1 -6 5629.26 687.626 2
9 1 6 5705.62 700.158 2
-1 10 -6 5141.11 528.039 1
9 1 -7 10225.7 942.863 2
-1 10 -7 9132.99 743.722 1
9 1 7 10272.9 930.153 2
10 -1 -7 10087.3 905.278 2
10 -1 7 10859 929.836 2
-1 10 -8 6012.13 682.036 1
9 1 -8 5531.68 691.646 2
10 -9 -8 5230.56 690.323 2
10 -9 8 5821.24 687.605 2
-9 -1 -8 6266.75 745.173 1
10 -1 -8 5391.98 680.157 2
10 -1 8 4921.63 646.465 2
-9 -1 -9 2280.02 499.722 1
-1 10 -9 2788.88 504.405 1
-10 1 -9 3001.11 591.029 1
10 -9 9 2072.09 477.486 2
10 -1 -9 2147.67 463.756 2
-9 10 -9 3364.26 709.31 1
10 -1 9 2409.62 465.325 2
10 -9 -9 3302.19 570.97 2
-10 9 -10 742.493 496.15 1
-9 10 -10 469.55 429.888 1
-9 -1 -10 623.04 370.544 1
-10 1 -10 701.529 422.269 1
-1 10 -10 36.5867 252.592 1
-9 10 -11 1324.9 531.104 1
-10 9 -11 1290.99 520.641 1
-10 1 -11 1360.13 540.561 1
-9 -1 -11 560.604 418.708 1
-1 10 -11 807.377 285.767 1
1 9 -12 879.733 245.375 5
-1 10 -12 725.458 253.257 3
-10 9 -12 497.518 513.628 1
1 9 -12 1040.78 242.471 3
-10 1 -12 681.922 223.591 3
-9 -1 -12 587.989 213.379 3
-1 10 -12 1022.97 410.192 1
-9 10 -12 1406.74 539.774 1
-9 -1 -12 468.213 381.089 1
-1 10 12 244.611 192.854 6
1 9 12 680.549 195.932 6
-10 9 -12 652.509 234.454 3
-10 1 -12 440.518 358.202 1
-9 10 -12 926.907 235.993 3
-1 10 -12 483.252 219.329 5
1 9 -13 -95.7539 235.112 3
-1 10 -13 351.512 199.506 3
-9 -1 -13 684.869 288.636 3
-9 10 -13 165.667 445.268 1
-10 1 -13 62.9239 223.031 3
-9 10 -13 507.722 240.627 3
-1 -9 -13 395.445 194.52 3
-9 -1 -13 129.315 355.552 1
1 9 13 -31.1867 166.004 6
-1 10 13 542.305 174.408 6
-10 9 -13 376.889 388.341 1
-10 1 -13 -244.912 493.557 1
1 9 -13 314.809 203.244 5
-10 9 -13 162.009 191.48 3
-1 10 -13 587.648 264.589 5
-9 10 -14 -245.778 400.868 1
-10 1 -14 308.781 252.459 3
1 9 -14 232.703 235.731 3
-9 -1 -14 76.0809 242.485 3
-1 10 -14 550.091 269.441 5
-10 9 -14 322.393 250.903 3
-9 -1 -14 115.129 379.112 1
-1 10 -14 -53.2504 209.659 3
-1 10 14 -105.215 165.538 6
-10 9 -14 234.713 342.696 1
-1 -9 -14 -73.6456 164.735 3
1 9 -14 102.463 195.973 5
1 9 14 52.7357 138.934 6
-9 10 -14 179.647 217.473 3
-10 1 -14 198.173 338.86 1
-1 10 -15 353.174 218.747 5
-10 1 -15 565.519 314.005 3
-9 10 -15 851.049 300.881 3
-9 10 -15 -232.827 491.838 1
-10 9 -15 271.316 519.579 1
-1 -9 -15 346.79 212.779 3
-9 -1 -15 -288.308 507.406 1
1 9 -15 240.208 237.674 3
-1 10 -15 366.859 272.295 3
-10 9 -15 -6.06829 247.548 3
-10 1 -15 184.876 349.14 1
-9 -1 -15 401.013 323.201 3
-1 10 15 368.813 177.642 6
1 9 -15 104.486 212.321 5
-1 -9 -16 210.682 185.125 3
-9 -1 -16 -113.532 269.146 3
-1 10 -16 483.794 279.657 3
1 9 -16 131.958 194.215 5
-1 10 -16 245.007 211.821 5
1 9 -16 -107.251 276.987 3
-10 9 -16 376.094 263.898 3
-10 1 -16 -137.828 252.461 3
-10 1 -16 118.437 485.664 1
-9 10 -16 375.402 296.481 3
-1 10 -17 704.214 329.704 3
-9 -1 -17 893.146 344.91 3
-9 10 -17 204.593 253.611 3
-10 1 -17 1285.75 374.116 3
-1 -9 -17 324.129 205.749 3
-1 10 -17 696.74 288.902 5
1 9 -17 774.623 254.417 5
1 9 -17 1187.03 345.06 3
-10 9 -17 630.999 288.505 3
-9 -1 -18 163.51 267.652 3
-1 10 -18 180.431 229.8 5
-10 1 -18 257.871 301.883 3
-1 10 -18 739.503 330.253 3
-9 10 -18 810.946 339.199 3
-10 9 -18 320.606 263.536 3
1 9 -18 227.941 278.599 3
-10 1 -19 -21.9125 299.056 3
-1 10 -19 262.646 265.395 3
-9 10 -19 -216.537 277.859 3
-9 10 -19 126.782 272.83 5
-1 10 -19 -60.9481 221.307 5
-10 9 -19 153.211 250.765 3
-9 -1 -19 107.471 253.973 3
-9 10 -20 -162.026 236.009 5
-10 1 -20 345.18 302.683 3
-10 9 -20 130.398 215.333 5
-10 9 -20 491.522 328.201 3
-9 10 -20 121.7 265.564 3
-9 -1 -20 -508.038 287.041 3
-1 10 -20 -146.036 269.532 3
-10 9 -21 200.449 248.384 5
-9 -1 -21 -5.8659 245.206 3
-10 9 -21 -61.9537 241.611 3
-9 10 -21 637.576 302.96 3
-10 1 -21 -250.278 292.528 3
-10 9 -22 141.783 220.609 3
-9 10 -22 257.473 220.743 3
-9 -1 -22 217.234 232.964 3
-9 10 -22 -82.7562 177.126 5
-10 9 -22 150.773 187.172 5
-10 1 -22 109.599 220.739 3
-10 9 -23 -162.96 218.965 3
-9 10 -23 60.0285 217.46 3
-10 9 -23 203.965 170.338 5
-9 -1 -23 35.3263 170.973 3
-9 10 -23 32.6007 139.188 5
-10 1 -23 377.325 209.628 3
10 0 0 2797.52 549.337 2
10 0 1 8765.41 854.551 2
10 0 -1 8360.27 842.082 2
10 0 2 9551.82 877.907 2
10 0 -2 10464.4 917.901 2
10 0 3 21422.4 1264.71 2
10 0 -3 19621 1229.21 2
10 0 -4 7556.77 801.132 2
10 0 4 7264.01 778.977 2
10 0 -5 2085.44 468.671 2
10 0 5 2363.24 457.811 2
10 0 6 608.216 299.15 2
10 0 -6 559.026 325.736 2
10 0 7 27281.8 1490.51 2
10 0 -7 26514.5 1509.52 2
-10 0 -8 2224.03 516.182 1
10 0 -8 1433.15 388.311 2
10 0 8 2471.46 500.751 2
10 -10 -9 14008.5 1098.31 2
-10 0 -9 13199.8 1130.68 1
10 0 -9 12804 1062.21 2
10 -10 9 11199.8 1024.92 2
-10 0 -10 1346.23 437.024 1
-10 10 -10 1461.3 577.764 1
0 10 -11 -61.3728 180.357 5
-10 0 -11 -67.0314 172.296 3
-10 10 -11 696.606 543.635 1
0 10 -11 -32.5573 188.9 3
-10 0 -11 -22.0909 338.548 1
0 10 -12 692.252 299.402 3
-10 0 -12 260.591 380.409 1
0 10 12 53.6269 158.514 6
-10 10 -12 -75.637 402.497 1
-10 10 -12 93.3221 205.409 3
-10 0 -12 627.675 269.949 3
0 10 -12 1227.05 300.535 5
0 10 -13 288.648 245.529 3
-10 10 -13 213.248 194.152 3
-10 0 -13 124.897 339.926 1
0 10 -13 203.142 206.689 5
0 10 13 221.866 187.826 6
-10 10 -13 47.0017 348.94 1
-10 0 -13 416.597 257.234 3
-10 10 -14 153.927 210.938 3
-10 0 -14 -218.903 230.8 3
-10 0 -14 172.323 321.754 1
0 10 14 -68.1409 158.422 6
0 10 -14 319.515 250.639 5
0 10 -14 372.302 248.94 3
0 10 15 706.963 207.79 6
-10 0 -15 866.103 326.586 3
-10 0 -15 260.179 450.576 1
0 10 -15 955.471 300.065 3
-10 10 -15 1415.06 357.579 3
0 10 -15 1298.83 309.514 5
-10 10 -16 1747.02 364.102 3
-10 0 -16 1840.29 425.563 3
0 10 -16 1611.29 324.468 5
0 10 -16 1748.23 372.471 3
-10 0 -17 1476.45 397.169 3
0 10 -17 993.727 333.223 3
0 10 -17 1366.88 299.443 5
-10 10 -17 1702.75 384.911 3
-10 0 -18 262.487 328.207 3
-10 10 -18 384.09 238.69 3
0 10 -18 292.224 272.255 3
0 10 -18 272.157 189.012 5
-10 0 -19 19.942 287.642 3
-10 10 -19 639.837 329.933 3
-10 10 -20 347.321 236.172 5
-10 0 -20 256.427 271.253 3
-10 10 -20 252.231 244.501 3
-10 10 -21 501.462 269.745 5
-10 0 -21 593.077 292.95 3
-10 10 -21 580.752 277.741 3
-10 10 -22 -85.9032 181.918 5
-10 0 -22 62.9364 224.307 3
-10 10 -23 133.895 208.021 3
-10 0 -23 317.085 200.683 3
-10 10 -23 281.574 152.514 5
11 -5 0 53952.2 1955.15 2
11 -6 0 54767.8 1989.65 2
11 -6 -1 113417 2866.54 2
11 -6 1 113814 2892.67 2
11 -5 -1 113542 2834.04 2
11 -5 1 118363 2901.29 2
11 -6 -2 21917.3 1280.2 2
11 -6 2 21625.3 1249.58 2
11 -5 2 21150 1224.18 2
11 -5 -2 21418.8 1265.05 2
11 -5 -3 34102.9 1592.34 2
11 -5 3 34553.5 1561.54 2
11 -6 -3 34020 1596.21 2
11 -6 3 34878 1589.03 2
11 -5 -4 193.781 292.515 2
11 -5 4 545.834 292.724 2
11 -6 -4 434.808 327.219 2
11 -6 4 552.198 274.209 2
11 -6 5 3452.08 537.242 2
11 -5 -5 3503.38 544.746 2
11 -5 5 3930.53 568.113 2
-5 11 -5 3681.36 504.165 1
11 -6 -5 3739.48 582.181 2
-6 11 -6 9773.86 851.599 1
11 -6 6 10601.1 915.55 2
11 -6 -6 9621.7 914.337 2
11 -5 6 9144.83 845.997 2
-5 11 -6 9487.48 793.647 1
11 -5 -6 10018 919.451 2
11 -5 -7 36527.7 1714.4 2
-6 11 -7 39147.7 1768.86 1
-5 11 -7 35824 1632.15 1
11 -6 -7 40036.2 1796.19 2
11 -5 7 36496 1677.36 2
11 -6 7 37543.1 1703.43 2
11 -5 -8 10038.6 893.299 2
11 -5 8 9924.76 890.756 2
11 -6 -8 10382.4 927.176 2
11 -6 8 9468.13 873.034 2
-5 11 -8 10527.9 963.443 1
-6 11 -8 9826.81 948.316 1
-5 11 -9 13636.3 1165.23 1
11 -6 9 13848.4 1051.36 2
11 -5 -9 12530.5 995.469 2
11 -6 -9 13334.4 1053.32 2
11 -5 9 13266.7 1022.63 2
-6 11 -9 13733 1186.82 1
-5 11 -10 1962.6 498.438 1
-6 11 -10 1977.97 521.58 1
-5 11 -11 -105.923 344.093 1
-11 6 -11 175.789 432.705 1
-11 5 -11 2.82585 395.246 1
-6 11 -11 631.088 433.219 1
-11 6 -12 157.816 176.91 3
-11 5 -12 441.823 228.573 3
-5 11 -12 238.433 201.087 3
-5 11 -12 286.58 187.784 5
-11 5 -12 202.508 452.548 1
-6 -5 -12 213.979 184.112 3
-5 -6 -12 711.959 276.824 3
-11 6 -12 542.145 505.721 1
-6 11 12 -367.889 217.885 6
-6 11 -12 393.096 428.071 1
-6 11 -12 116.983 208.631 3
-5 11 -12 344.77 324.649 1
-5 11 12 44.5241 180.079 6
-5 11 -13 2799.77 400.236 5
-11 5 -13 2602.85 385.087 3
-6 11 13 2481.32 339.616 6
-6 11 -13 1920.01 549.534 1
-5 11 -13 2507.18 388.406 3
-6 -5 -13 3207.12 419.314 3
-5 -6 -13 2493.64 352.275 3
-5 11 -13 1590.3 514.405 1
-6 11 -13 2624.4 381.567 3
-11 5 -13 2395.9 723.005 1
-11 6 -13 3467.77 908.125 1
-11 6 -13 2949.61 400.407 3
-5 11 13 2336.97 345.106 6
-11 5 -14 1069.87 349.767 3
-5 11 -14 1134.33 538.229 1
-5 11 -14 528.112 267.999 3
-5 -6 -14 768.606 279.426 3
-6 11 -14 823.912 291.412 3
-5 11 -14 471.378 242.493 5
-11 6 -14 342.552 451.878 1
-11 6 -14 724.796 244.53 3
-6 11 14 967.27 263.824 6
-6 11 -14 492.328 361.903 1
-11 5 -14 95.738 392.717 1
-6 11 -14 1177.21 319.848 5
-6 -5 -14 606.004 284.325 3
-5 11 14 694.888 208.309 6
-11 5 -15 3605.29 819.392 1
-6 -5 -15 4083.23 506.09 3
-6 11 -15 4191.4 910.535 1
-5 11 -15 2090.76 708.094 1
-5 11 15 3657.39 391.063 6
-6 11 -15 4646.15 511.561 5
-5 11 -15 4659.49 511.972 5
-5 11 -15 4675.23 553.471 3
-6 11 15 3338.7 388.965 6
-6 11 -15 4236.92 499.566 3
-11 5 -15 4361.2 525.425 3
-5 -6 -15 4481.32 506.338 3
-11 6 -15 4302.59 866.946 1
-11 6 -15 4076.1 486.408 3
-6 11 -16 827.906 302.095 5
-5 11 -16 746.995 438.828 1
-6 -5 -16 605.369 286.289 3
-5 -6 -16 734.018 274.187 3
-6 11 -16 413.028 385.05 1
-5 11 -16 766.695 277.362 5
-11 6 -16 794.525 294.468 3
-5 11 -16 618.038 296.626 3
-11 5 -16 1063.24 332.07 3
-6 11 -16 1345.78 347.152 3
-5 -6 -17 1883.4 379.843 3
-6 -5 -17 2067.25 391.937 3
-11 5 -17 2735.14 451.046 3
-6 11 -17 2357.41 432.249 3
-5 11 -17 2687.81 422.951 5
-6 11 -17 2591.42 421.64 5
-5 11 -17 1635.17 390.486 3
-11 6 -17 2326.59 415.529 3
-6 -5 -18 830.367 304.251 3
-6 11 -18 588.24 323.203 3
-6 11 -18 236.355 251.345 5
-5 -6 -18 276.627 246.385 3
-5 11 -18 444.638 297.106 3
-11 6 -18 469.92 327.843 3
-11 5 -18 278.634 313.021 3
-5 11 -18 298.977 251.764 5
-11 5 -19 1.07115 297.321 3
-5 -6 -19 -31.0236 223.239 3
-5 11 -19 275.987 294.378 3
-11 6 -19 -81.7182 268.449 3
-6 -5 -19 -72.9302 275.035 3
-5 11 -19 300.613 248.825 5
-6 11 -19 263.944 299.414 3
-6 11 -19 -95.1997 234.648 5
-11 6 -20 101.281 272.346 3
-5 -6 -20 -43.202 227.044 3
-5 11 -20 257.875 287.082 3
-11 5 -20 278.855 304.027 3
-5 11 -20 -224.454 201.391 5
-6 11 -20 174.213 266.657 3
-6 11 -20 263.307 219.509 5
-6 -5 -20 422.023 239.279 3
-6 -5 -21 246.702 247.941 3
-5 -6 -21 268.343 206.968 3
-6 11 -21 703.573 312.17 3
-5 11 -21 449.962 235.53 5
-11 6 -21 183.978 274.023 3
-11 5 -21 344.157 295.998 3
-6 11 -21 296.664 223.591 5
-5 11 -21 716.288 315.584 3
-6 11 -22 27.7497 245.666 3
-11 6 -22 419.069 268.85 3
-11 6 -22 751.681 219.281 5
-11 5 -22 295.023 253.555 3
-5 -6 -22 219.601 172.48 3
-5 11 -22 -37.1272 163.548 5
-6 -5 -22 -387.937 209.182 3
-6 11 -22 38.3832 158.997 5
-5 11 -22 538.212 286.949 3
-11 6 -23 218.166 219.057 3
-11 5 -23 153.158 205.312 3
-6 -5 -23 281.412 184.959 3
-5 -6 -23 -1.56261 149.846 3
-6 11 -23 326.274 215.763 3
11 -4 0 110011 2811.67 2
11 -7 0 110099 2842.91 2
11 -7 1 889.879 350.819 2
11 -4 -1 1065.12 387.789 2
11 -4 1 790.124 409.388 2
11 -7 -1 400.265 310.845 2
11 -4 -2 50880.6 1933.68 2
11 -7 -2 52012.8 1981.79 2
11 -7 2 51972.5 1941.63 2
11 -4 2 52385 1924.47 2
11 -4 -3 361.317 331.815 2
11 -4 3 453.232 332.767 2
-4 11 -3 272.521 198.637 1
11 -7 -3 222.153 315.182 2
11 -7 3 40.5371 297.693 2
11 -4 -4 3359.39 559.922 2
11 -4 4 2855.93 496.74 2
11 -7 4 2566.51 464.481 2
-4 11 -4 3037.25 426.08 1
11 -7 -4 2949.68 544.313 2
11 -7 -5 132.264 290.138 2
11 -7 5 123.897 272.595 2
11 -4 -5 -13.5303 264.183 2
11 -4 5 272.366 266.511 2
-4 11 -5 -43.1914 208.625 1
11 -4 -6 9982.05 900.141 2
11 -4 6 9299.81 872.939 2
-4 11 -6 9835.25 805.085 1
11 -7 6 12300.7 988.522 2
11 -7 -6 10241.9 938.209 2
11 -7 7 2241.57 470.49 2
-7 11 -7 2475.02 530.988 1
11 -4 -7 2720.5 514.328 2
11 -4 7 1858.37 427.819 2
-4 11 -7 2035.5 386.535 1
11 -7 -7 1868.54 413.385 2
11 -7 -8 22184.4 1353.08 2
-4 11 -8 22083.2 1354.12 1
11 -4 -8 21099.2 1297.43 2
-7 11 -8 21985.4 1432.3 1
11 -7 8 22758.3 1341.8 2
11 -4 8 21634.1 1276.43 2
11 -7 -9 2007.83 455.409 2
11 -7 9 1276.46 324.711 2
-4 11 -9 978.267 340.281 1
11 -4 -9 1789.2 402.652 2
-7 11 -9 2125.41 505.052 1
11 -4 9 1828.42 449.116 2
-4 11 -10 5172.74 779.076 1
-7 11 -10 4732.41 775.147 1
-11 4 -10 4874.76 808.379 1
-4 11 -11 1447.54 491.011 1
-11 7 -11 1345.33 548.267 1
-11 4 -11 1638.04 544.378 1
-7 11 -11 1674.33 595.901 1
-7 11 12 -253.732 220.838 6
-11 7 -12 230.666 183.397 3
-7 11 -12 358.814 375.089 1
-7 -4 -12 -27.7801 183.005 3
-4 -7 -12 17.0827 222.915 3
-11 4 -12 304.785 234.757 3
-11 7 -12 186.16 440.873 1
-11 4 -12 876.168 526.367 1
-4 11 -12 -71.0126 218.718 5
-7 11 -12 -155.387 237.164 3
-4 11 12 -6.48815 171.92 6
-4 11 -12 -65.7113 202.075 3
-4 11 -12 259.587 333.39 1
-11 7 -13 81.9456 204.66 3
-11 4 -13 -260.796 244.603 3
-7 11 -13 538.362 500.579 1
-4 -7 -13 370.055 217.269 3
-7 11 -13 358.406 219.703 3
-11 7 -13 -157.278 498.791 1
-4 11 -13 -169.428 219.63 5
-4 11 -13 -338.238 231.888 3
-11 4 -13 -593.838 399.763 1
-7 -4 -13 -41.1211 196.786 3
-4 11 13 231.499 186.372 6
-7 11 13 -31.1435 201.358 6
-4 11 -13 396.438 331.89 1
-7 11 -14 973.728 279.001 3
-4 11 -14 1788.11 371.014 3
-11 4 -14 1673.8 346.637 3
-4 11 14 1119.6 269.229 6
-11 4 -14 1370 624.14 1
-7 -4 -14 1015.93 314.621 3
-7 11 14 776.614 243.777 6
-4 -7 -14 930.582 280.343 3
-4 11 -14 905.819 288.102 5
-4 11 -14 472.395 489.332 1
-11 7 -14 1730.41 661.586 1
-7 11 -14 489.975 393.213 1
-11 7 -14 969.93 278.623 3
-11 7 -15 546.794 520.588 1
-11 4 -15 39.1947 229.008 3
-4 11 -15 -350.635 281.455 3
-7 -4 -15 112.424 256.864 3
-4 -7 -15 83.4303 232.357 3
-4 11 -15 -702.673 436.573 1
-7 11 -15 -234.6 232.262 3
-7 11 15 205.643 191.41 6
-4 11 -15 267.432 211.526 5
-4 11 15 -237.17 179.923 6
-7 11 -15 -303.535 379.624 1
-11 4 -15 -732.057 649.722 1
-11 7 -15 -53.7621 266.208 3
-7 11 -16 2393.72 413.095 5
-4 11 -16 2493.67 421.812 5
-7 -4 -16 2833.46 441.205 3
-4 -7 -16 2259.21 380.539 3
-4 11 -16 2450.7 418.54 3
-7 11 -16 2520.93 419.762 3
-11 4 -16 2642.49 456.619 3
-11 7 -16 2228.01 406.937 3
-7 11 -17 566.636 287.029 5
-4 -7 -17 900.94 311.593 3
-7 -4 -17 312.719 310.263 3
-4 11 -17 729.754 332.738 3
-7 11 -17 629.548 280.063 3
-11 7 -17 1220.49 370.548 3
-4 11 -17 1124.35 331.16 5
-11 4 -17 1195.13 356.434 3
-7 11 -18 512.178 272.538 5
-11 4 -18 136.929 317.338 3
-7 -4 -18 107.058 250.755 3
-7 11 -18 154.179 273.029 3
-4 11 -18 754.942 318.809 3
-11 7 -18 672.466 316.019 3
-4 11 -18 696.184 296.444 5
-4 -7 -18 677.118 282.354 3
-11 4 -19 -316.669 300.077 3
-4 -7 -19 114.775 211.026 3
-7 -4 -19 -118.839 266.998 3
-11 7 -19 218.465 281.732 3
-7 11 -19 525.513 309.24 3
-4 11 -19 -213.816 268.941 3
-4 11 -19 -31.7536 218.995 5
-7 11 -19 -88.2608 234.633 5
-7 -4 -20 182.86 245.522 3
-11 7 -20 300.105 283.286 3
-4 11 -20 -168.507 275.439 3
-7 11 -20 274.525 312.478 3
-7 11 -20 66.0241 237.931 5
-11 4 -20 308.908 312.164 3
-4 -7 -20 63.8042 201.775 3
-4 11 -20 67.905 206.06 5
-7 11 -21 103.354 235.66 5
-7 -4 -21 149.28 237.516 3
-11 7 -21 43.9696 249.122 3
-4 11 -21 -72.2381 169.321 5
-7 11 -21 358.827 264.107 3
-11 4 -21 315.11 307.355 3
-4 11 -21 315.208 255.956 3
-4 -7 -21 378.891 195.428 3
-7 11 -22 733.408 308.916 3
-7 -4 -22 505.799 255.867 3
-11 7 -22 333.951 240.986 3
-11 4 -22 51.727 238.422 3
-7 11 -22 33.2612 197.454 5
-4 -7 -22 341.461 205.309 3
-11 7 -22 130.59 176.265 5
-7 11 -23 184.848 228.782 3
-11 7 -23 -55.8347 195.507 3
-11 4 -23 416.639 224.988 3
-7 -4 -23 34.5765 162.761 3
-4 -7 -23 89.6568 112.258 3
-7 11 -23 293.884 145.459 5
11 -3 0 4649.8 653.613 2
8 3 0 4455.18 632.482 2
11 -3 1 45538.6 1826.1 2
8 3 1 44712.3 1848.76 2
11 -3 -1 45527.4 1821.68 2
8 3 -1 44812.6 1861.27 2
11 -3 -2 2871.87 500.641 2
11 -3 2 2908.65 513.858 2
8 3 -2 2850.28 544.874 2
8 3 2 2586.98 521.779 2
11 -3 -3 6346.21 723.137 2
11 -3 3 6121.39 709.409 2
8 3 3 7015.05 765.859 2
8 3 -3 6131.59 731.987 2
8 3 -4 2068.34 501.098 2
11 -3 4 1939.36 464.069 2
11 -3 -4 1962.77 470.235 2
11 -8 -4 2003.97 475.691 2
8 3 4 1900.79 468.666 2
11 -8 4 1783.86 465.053 2
-3 11 -4 1674.46 300.952 1
11 -8 5 6841.37 768.578 2
11 -3 -5 7000.63 758.306 2
11 -8 -5 6947.47 788.106 2
11 -3 5 6877.07 729.217 2
-3 11 -5 6486.05 583.096 1
-3 11 -6 1591.86 334.651 1
11 -3 -6 1750.27 421.491 2
11 -3 6 1611.98 396.047 2
-8 -3 -6 1828.43 363.757 1
11 -8 6 1445.33 376.521 2
11 -8 -6 1777.32 462.809 2
11 -3 7 4314.04 585.366 2
11 -8 7 4274.03 598.297 2
11 -3 -7 4624.65 641.478 2
11 -8 -7 4563.51 635.208 2
-8 -3 -7 4004.4 538.826 1
-3 11 -7 5031.31 602.591 1
-3 11 -8 3753.28 550.579 1
-8 11 -8 5251.56 763.01 1
11 -3 -8 4019.49 625.924 2
11 -3 8 3937.09 569.069 2
-8 -3 -8 4091.18 552.326 1
11 -8 8 4596.65 613.172 2
11 -8 -8 5297.33 719.715 2
11 -8 9 5146.6 653.959 2
-3 11 -9 5165.1 691.114 1
11 -3 -9 5367.43 698.472 2
11 -3 9 5618.84 729.571 2
11 -8 -9 5132.08 706.746 2
-8 11 -9 6603.23 873.558 1
-8 -3 -9 4909.43 659.126 1
-11 3 -10 1287.19 497.365 1
-8 11 -10 1775.19 532.346 1
-3 11 -10 1242.05 376.725 1
-3 11 -11 1099.55 239.722 5
-8 11 -11 588.409 385.334 1
-3 11 -11 1055.64 241.235 3
-11 8 -11 971.154 508.282 1
-8 -3 -11 1539.74 315.032 3
-11 3 -11 803.777 374.267 1
-3 11 -11 487.851 336.354 1
3 8 -12 438.276 177.881 5
-11 8 -12 -347.141 453.458 1
-3 11 -12 513.28 312.407 1
-3 -8 -12 83.2043 186.892 3
3 8 12 -291.35 183.125 6
-11 3 -12 192.236 243.715 3
-11 3 -12 243.292 351.841 1
-8 -3 -12 234.064 216.416 3
-8 11 -12 232.76 372.412 1
-3 11 12 359.531 203.365 6
3 8 -12 364.971 209.114 3
-3 11 -12 291.036 188.596 3
-8 11 -12 157.343 160.111 3
-3 11 -12 484.536 212.311 5
-11 8 -12 162.687 185.972 3
-11 3 -13 1729.42 633.896 1
-3 11 -13 858.433 281.179 5
-11 8 -13 692.151 217.283 3
-8 11 -13 673.155 410.269 1
-8 -3 -13 1283.13 318.191 3
-3 11 -13 615.643 322.844 1
3 8 -13 1132.66 307.492 3
-3 -8 -13 944.528 269.268 3
-8 11 13 708.73 238.566 6
-3 11 -13 949.197 280.132 3
3 8 -13 1762.95 311.744 5
-8 11 -13 971.154 245.432 3
-3 11 13 813.216 217.38 6
-11 3 -13 1155.37 310.541 3
3 8 13 775.935 199.542 6
-11 8 -13 1598.44 689.914 1
-11 3 -14 230.23 227.802 3
-11 3 -14 123.979 407.879 1
-3 11 -14 237.71 301.017 1
3 8 -14 493.329 239.347 5
-3 -8 -14 -70.8248 211.624 3
-8 -3 -14 290.64 233.486 3
-8 11 -14 346.857 376.346 1
3 8 -14 -69.4281 234.327 3
-8 11 -14 547.206 239.63 3
-11 8 -14 1003.41 472.363 1
-3 11 14 242.104 171.724 6
-8 11 14 418.435 225.848 6
-3 11 -14 521.218 279.307 3
-11 8 -14 368.654 245.051 3
-3 11 -14 70.8365 254.687 5
-11 3 -15 723.427 277.783 3
-11 3 -15 2024.22 631.124 1
-8 -3 -15 667.661 279.723 3
-3 -8 -15 955.888 294.425 3
-8 11 -15 1501.49 622.055 1
-3 11 -15 806.804 282.451 5
-8 11 15 431.636 222.125 6
-3 11 -15 782.374 307.957 3
-11 8 -15 815.25 484.74 1
-3 11 15 536.453 214.95 6
-8 11 -15 212.88 220.568 3
-11 8 -15 807.817 270.602 3
-3 11 -16 -189.167 266.87 3
-3 -8 -16 -83.1039 234.778 3
-8 -3 -16 515.767 303.335 3
-11 3 -16 198.351 267.999 3
-8 11 -16 648.375 289.998 3
-11 8 -16 193.369 260.133 3
-3 11 -16 1050.55 490.851 5
-11 3 -17 519.913 321.091 3
-3 -8 -17 470.509 218.641 3
-8 -3 -17 547.919 289.76 3
-3 11 -17 362.069 291.39 3
-8 11 -17 746.284 347.584 5
-3 11 -17 513.106 275.026 5
-11 8 -17 397.804 266.64 3
-8 11 -17 540.694 296.495 3
-11 3 -18 283.621 320.326 3
-3 11 -18 -99.099 246.219 5
-11 8 -18 -492.288 321.08 3
-3 -8 -18 75.915 230.542 3
-8 11 -18 -8.63081 269.961 3
-3 11 -18 288.1 277.124 3
-8 -3 -18 -184.704 281.937 3
-8 11 -18 -233.58 266.023 5
-8 11 -19 -375.028 263.655 5
-3 11 -19 -58.9169 273.152 3
-8 -3 -19 12.804 250.601 3
-8 11 -19 8.94683 259.442 3
-3 -8 -19 -360.266 253.817 3
-11 3 -19 -180.937 318.607 3
-11 8 -19 -88.0226 249.934 3
-3 11 -19 -37.7454 217.835 5
-11 8 -20 -320.883 267.46 3
-3 11 -20 261.312 264.641 3
-8 -3 -20 231.016 241.697 3
-8 11 -20 245.25 288.324 3
-8 11 -20 -244.062 236.813 5
-3 -8 -20 59.7019 166.691 3
-3 11 -20 -188.507 208.995 5
-11 3 -20 345.102 280.801 3
-3 -8 -21 236.634 173.711 3
-11 3 -21 255.954 248.004 3
-11 8 -21 217.238 213.544 5
-8 -3 -21 120 232.208 3
-3 11 -21 -73.5001 181.191 5
-8 11 -21 183.498 242.631 3
-11 8 -21 -44.2097 259.941 3
-8 11 -21 72.1513 203.562 5
-8 11 -22 162.486 199.361 5
-8 -3 -22 -286.822 217.913 3
-11 3 -22 5.22809 219.516 3
-11 8 -22 -117.447 175.073 5
-11 8 -22 250.361 224.775 3
-8 11 -22 113.171 215.172 3
-8 11 -23 -109.165 205.6 3
-8 -3 -23 55.4058 170.852 3
-11 8 -23 -344.487 209.937 3
-8 11 -23 -66.6761 129.57 5
-11 8 -23 -49.4444 100.194 5
11 -2 0 10829.5 922.609 2
9 2 0 10887.2 967.387 2
9 2 -1 486.125 393.218 2
9 2 1 725.723 366.43 2
11 -2 -1 609.045 319.707 2
11 -2 1 659.762 283.503 2
11 -2 2 1134.06 375.2 2
9 2 2 1310.74 410.276 2
11 -2 -2 1621.62 458.648 2
9 2 -2 1041.53 372.073 2
11 -2 3 575.237 335.633 2
11 -2 -3 377.861 305.008 2
9 2 3 802.501 391.497 2
9 2 -3 718.569 303.472 2
11 -2 4 329.063 340.577 2
9 2 4 515.204 305.222 2
11 -2 -4 339.166 362.843 2
9 2 -4 -115.35 295.858 2
11 -2 5 -366.02 271.993 2
9 2 5 460.745 311.715 2
9 2 -5 387.75 332.823 2
11 -2 -5 -352.893 343.898 2
9 2 6 2074.19 417.8 2
9 2 -6 1879.17 461.741 2
11 -2 -6 2850.25 529.53 2
11 -2 6 2320.11 481.412 2
11 -9 6 2903.27 519.993 2
11 -9 -6 2723.79 538.966 2
11 -9 -7 244.699 277.622 2
-9 -2 -7 559.606 253.867 1
11 -2 7 534.035 293.588 2
11 -2 -7 389.15 277.548 2
11 -9 7 571.66 321.952 2
11 -2 -8 35.051 277.059 2
11 -2 8 3.7178 228.181 2
11 -9 -8 708.582 308.493 2
-9 -2 -8 61.0248 272.779 1
11 -9 8 78.1766 228.196 2
11 -9 -9 734.781 354.196 2
11 -2 -9 43.1152 304.245 2
11 -9 9 -159.867 241.392 2
11 -2 9 216.61 233.409 2
-9 11 -9 832.198 456.877 1
-9 -2 -9 221.005 327.773 1
-9 -2 -10 615.732 355.385 1
-11 2 -10 1053.35 511.363 1
-9 11 -10 974.58 433.08 1
-2 11 -10 424.941 364.907 1
-9 -2 -11 109.896 358.543 1
-11 2 -11 486.373 475.096 1
-11 2 -11 192.44 225.829 3
-11 9 -11 626.932 482.163 1
-2 11 -11 152.14 200.693 3
-9 -2 -11 61.2092 203.686 3
2 9 -11 602.882 221.581 3
-2 11 11 271.507 182.986 6
-9 11 -11 -37.3076 428.63 1
2 9 -11 604.579 218.221 5
-2 11 -11 -159.135 205.142 5
2 9 -12 801.397 256.292 5
-11 9 -12 366.967 428.395 1
2 9 -12 16.8923 218.869 3
-9 11 -12 595.389 206.403 3
-2 11 -12 682.066 263.69 3
-11 2 -12 81.8691 220.194 3
-9 -2 -12 72.6456 237.332 3
-11 2 -12 281.217 410.814 1
2 9 12 852.018 214.499 6
-2 11 12 518.307 210.353 6
-9 11 -12 1059.26 512.502 1
-2 -9 -12 474.871 208.768 3
-2 11 -12 245.373 189.504 5
-11 9 -12 399.681 224.058 3
-11 2 -13 -131.889 237.653 3
-9 11 -13 1392.74 573.534 1
-9 -2 -13 531.996 278.143 3
-2 -9 -13 358.819 200.203 3
2 9 -13 -24.8174 243.345 3
-2 11 -13 373.423 240.906 5
-2 11 -13 -524.59 256.13 3
2 9 -13 -345.454 241.566 5
2 9 13 -276.417 162.934 6
-11 9 -13 -261.003 445.916 1
-2 11 13 96.7813 165.251 6
-9 11 -13 78.6383 201.246 3
-11 2 -13 379.388 486.665 1
-11 9 -13 -194.542 245.24 3
-11 2 -14 820.588 544.6 1
-9 11 -14 -903.989 559.076 1
-11 2 -14 170.854 242.341 3
-2 11 -14 61.3627 221.633 3
-9 -2 -14 -1.56483 244.748 3
-2 -9 -14 383.46 202.129 3
2 9 -14 122.626 248.88 3
-2 11 14 286.61 212.498 6
-9 11 -14 671.962 245.76 3
-11 9 -14 -546.904 608.381 1
-9 11 14 345.416 233.161 6
-11 9 -14 414.105 240.677 3
2 9 -14 198.822 214.099 5
2 9 14 152.749 136.332 6
-2 11 -14 248.686 225.992 5
-9 11 15 519.05 264.171 6
-11 2 -15 1033.38 324.522 3
-11 9 -15 1881 835.676 1
-9 -2 -15 55.6614 252.176 3
-2 -9 -15 731.826 267.12 3
-11 2 -15 -253.153 383.577 1
-9 11 -15 265.172 230.653 3
-9 11 -15 -396.806 575.52 1
-2 11 -15 106.856 256.621 3
-2 11 15 774.451 221.813 6
2 9 -15 610.454 268.701 5
-11 9 -15 110.466 223.136 3
2 9 -15 37.7162 229.921 3
-2 11 -15 208.067 217.377 5
-11 2 -16 321.78 258.783 3
-2 11 -16 -90.6348 271.122 3
-2 -9 -16 46.497 205.154 3
-9 -2 -16 354.04 252.4 3
-11 9 -16 281.325 232.904 3
-9 11 -16 349.76 279.827 3
-2 11 -16 130.324 231.968 5
-2 -9 -17 454.416 230.301 3
-11 2 -17 197.143 277.828 3
-9 -2 -17 168.573 282.89 3
-2 11 -17 370.419 305.531 3
-9 11 -17 241.173 256.96 3
-11 9 -17 462.369 280.843 3
-2 11 -17 93.5163 224.402 5
-11 2 -18 90.2731 269.883 3
-2 -9 -18 -203.151 214.632 3
-11 9 -18 -53.1559 282.109 3
-9 -2 -18 -57.8423 295.082 3
-2 11 -18 -273.794 317.036 3
-9 11 -18 350.222 314.175 3
-9 11 -18 257.912 278.351 5
-2 11 -18 -222.177 234.254 5
-9 11 -19 282.298 258.34 3
-9 -2 -19 104.472 292.938 3
-2 11 -19 27.9564 274.855 3
-11 9 -19 -70.66 249.768 3
-9 11 -19 -114.492 241.083 5
-2 11 -19 4.43559 201.526 5
-2 -9 -19 -235.661 184.529 3
-11 2 -19 -85.4927 269.224 3
-9 -2 -20 368.375 273.09 3
-11 2 -20 -329.842 270.856 3
-9 11 -20 -27.3538 254.727 3
-9 11 -20 417.663 255.779 5
-11 9 -20 139.949 269.323 3
-2 11 -20 173.892 180.116 5
-11 9 -21 -37.7155 215.729 5
-9 11 -21 4.48736 241.814 3
-9 -2 -21 -31.7393 241.47 3
-11 9 -21 -236.858 276.022 3
-11 2 -21 142.916 236.292 3
-9 11 -21 12.1949 189.9 5
-9 11 -22 -47.7879 209.39 3
-11 2 -22 121.34 216.225 3
-11 9 -22 244.058 206.169 3
-11 9 -22 -46.5391 186.954 5
-9 -2 -22 331.828 246.415 3
-9 11 -22 -125.574 198.72 5
-9 11 -23 72.9787 123.861 5
-9 11 -23 82.7901 191.81 3
-11 9 -23 22.945 196.105 3
-11 2 -23 255.276 198.446 3
-9 -2 -23 100.173 168.614 3
11 -1 0 606.37 316.473 2
10 1 0 1073.43 391.88 2
10 1 1 2292.68 528.734 2
10 1 -1 1701.85 463.316 2
11 -1 -1 1746.02 415.93 2
11 -1 1 1741.07 448.862 2
11 -1 -2 2670.42 539.139 2
10 1 2 2594.46 524.248 2
11 -1 2 3061.72 549.567 2
10 1 -2 1897.35 462.775 2
10 1 -3 4175.91 625.195 2
11 -1 -3 4669.01 676.008 2
11 -1 3 3877.99 607.887 2
10 1 3 4110.68 627.119 2
10 1 4 2637.79 555.895 2
10 1 -4 3013.61 587.188 2
11 -1 -4 2902.92 527.815 2
11 -1 4 3375.82 543.8 2
10 1 5 3178.38 587.377 2
11 -1 -5 3302.46 560.764 2
11 -1 5 3204.79 541.018 2
10 1 -5 3135.02 558.527 2
11 -1 6 4312 650.824 2
11 -1 -6 5131.02 714.505 2
10 1 6 4884.96 664.008 2
10 1 -6 4478.98 673.118 2
11 -1 7 745.917 360.559 2
11 -1 -7 -110.913 275.048 2
10 1 -7 201.917 253.08 2
10 1 7 -46.0829 329.766 2
11 -1 -8 8049.16 868.643 2
-10 -1 -8 8019.79 852.095 1
11 -10 8 8554.79 907.101 2
11 -10 -8 8107.29 887.224 2
11 -1 8 8253.84 906.659 2
11 -1 9 860.299 396.965 2
-10 -1 -9 1022.74 350.361 1
-11 1 -9 640.365 398.122 1
11 -10 -9 817.642 330.524 2
11 -1 -9 947.285 377.278 2
11 -10 9 431.984 272.501 2
-11 10 -10 976.156 508.777 1
-10 11 -10 770.394 483.952 1
-11 1 -10 798.94 473.241 1
-10 -1 -10 549.079 392.941 1
1 10 -11 2593.35 335.147 5
-10 11 -11 2324.61 609.811 1
-11 1 -11 2255.77 380.88 3
-11 10 -11 2610.92 727.464 1
-10 -1 -11 2780.74 378.595 3
1 10 -11 2990.88 378.436 3
-1 11 11 2116.56 327.7 6
-1 11 -11 2867.96 375.077 3
-11 1 -11 2037.4 577.971 1
1 10 11 2077.04 305.74 6
-10 -1 -11 2303.94 563.263 1
-1 11 -11 2795.64 381.806 5
-1 11 -12 621.929 257.593 5
-10 11 -12 531.663 475.965 1
-10 -1 -12 559.035 312.868 1
1 10 -12 241.13 229.265 3
-10 -1 -12 107.278 230.143 3
-1 -10 -12 -51.6443 191.481 3
-11 10 -12 471.616 491.11 1
-1 11 -12 177.738 179.595 3
-10 11 -12 -201.091 204.5 3
1 10 -12 8.70298 203.557 5
1 10 12 104.119 164.277 6
-11 10 -12 -175.931 189.605 3
-1 11 12 569.251 223.281 6
-11 1 -12 170.268 245.072 3
-11 1 -12 657.147 515.967 1
-1 11 -13 1484.91 300.847 3
1 10 -13 1376.49 333.549 3
-11 1 -13 1261.3 332.377 3
-10 -1 -13 983.135 287.106 3
-1 -10 -13 1272.13 256.179 3
-11 10 -13 484.308 415.888 1
-11 1 -13 1436.37 616.226 1
-1 11 -13 1124.78 294.871 5
1 10 13 994.701 237.719 6
-1 11 13 996.424 229.975 6
-10 11 -13 858.424 271.374 3
-10 11 -13 1817.99 683.042 1
-11 10 -13 1270.39 302.274 3
1 10 -13 1159.62 286.947 5
-10 -1 -14 -77.2628 236.074 3
-10 11 -14 810.302 639.038 1
-11 1 -14 -747.547 511.937 1
-1 -10 -14 138.256 170.637 3
-10 11 -14 72.3109 198.121 3
-11 10 -14 948.826 592.216 1
1 10 -14 -85.4761 213.276 5
1 10 -14 2.13672 251.996 3
-11 10 -14 176.318 223.837 3
-1 11 -14 174.624 220.069 3
1 10 14 93.5604 175.64 6
-11 1 -14 142.142 237.104 3
-1 11 14 39.6539 165.689 6
-1 11 -14 -314.517 219.106 5
1 10 -15 440.604 254.396 3
-10 11 -15 899.344 548.186 1
-11 1 -15 173.149 276.343 3
-10 -1 -15 802.632 330.494 3
-1 -10 -15 292.687 229.509 3
-1 11 15 -284.062 193.918 6
-10 11 15 273.854 259.434 6
1 10 15 356.421 212.403 6
-11 10 -15 258.028 235.96 3
-11 10 -15 -186.961 546.703 1
-1 11 -15 75.5618 216.836 5
-11 1 -15 126.634 450.111 1
-1 11 -15 50.2783 259.362 3
-10 11 -15 189.351 236.269 3
1 10 -15 444.282 256.703 5
-11 1 -16 1020.94 370.751 3
-10 11 -16 1097.08 325.668 3
-10 -1 -16 1512.65 401.665 3
-11 10 -16 938.525 306.598 3
-1 11 16 882.474 225.603 6
-1 11 -16 1224.17 365.051 3
1 10 -16 675.34 265.106 5
-1 11 -16 1053.21 274.895 5
-11 10 -17 117.524 259.802 3
-1 11 -17 246.903 264.553 5
-11 1 -17 521.697 340.767 3
-10 -1 -17 369.043 344.406 3
-1 11 -17 -496.76 328.881 3
-10 11 -17 411.84 252.732 3
-1 11 -18 88.5848 214.719 5
-11 1 -18 590.017 335.342 3
-10 -1 -18 -286.614 334.577 3
-10 11 -18 -518.592 289.523 3
-11 10 -18 173.344 239.677 3
-11 1 -19 341.426 309.22 3
-10 11 -19 41.4254 271.542 5
-10 11 -19 429.009 251.549 3
-11 10 -19 90.1784 248.622 3
-10 -1 -19 536.853 308.009 3
-10 11 -20 238.577 251.307 5
-11 10 -20 147.622 249.336 5
-10 11 -20 327.237 286.078 3
-11 10 -20 51.5466 248.598 3
-10 -1 -20 -33.5013 279.328 3
-11 1 -20 -328.845 302.32 3
-11 10 -21 279.533 231.21 5
-11 10 -21 136.005 237.458 3
-10 11 -21 -300.392 206.271 5
-11 1 -21 188.607 240.708 3
-10 11 -21 132.374 271.232 3
-10 -1 -21 294.417 318.218 3
-10 11 -22 110.067 207.78 3
-11 1 -22 -151.532 213.554 3
-11 10 -22 49.1313 229.19 3
-10 -1 -22 -13.9319 208.41 3
-10 11 -22 73.8149 164.954 5
-11 10 -22 -17.7871 171.712 5
-11 10 -23 42.6997 123.178 5
-10 -1 -23 -242.544 201.324 3
-10 11 -23 277.66 211.833 3
-11 1 -23 86.9669 180.121 3
-11 10 -23 68.5504 181.614 3
-10 11 -23 -80.9651 141.805 5
11 0 0 273.76 301.472 2
11 0 -1 217.494 288.221 2
11 0 1 91.1796 284.321 2
11 0 -2 9286.5 969.168 2
11 0 2 8530.88 913.078 2
11 0 3 2170.19 526.415 2
11 0 -3 2000.48 469.47 2
11 0 4 14198.6 1136.09 2
11 0 -4 14081.1 1164.94 2
11 0 -5 9781.15 961.697 2
11 0 5 9206.77 921.296 2
11 0 -6 6020.28 811.468 2
11 0 6 5554.5 755.723 2
11 0 7 16205.1 1236.16 2
11 0 -7 15496.5 1227.29 2
11 0 8 6931.13 856.443 2
-11 0 -8 7689.48 878.63 1
11 0 -8 6439.04 833.194 2
11 -11 -9 7286.18 838.286 2
-11 0 -9 8446.29 960.886 1
11 -11 9 6417.27 852.334 2
11 0 -9 7421.82 864.926 2
-11 0 -10 3094.51 660.462 1
-11 11 -10 2922.14 693.72 1
-11 0 -10 3276.64 387.939 3
0 11 10 2936.87 346.235 6
0 11 -10 3399.26 399.926 5
-11 0 -11 830.446 485.111 1
-11 0 -11 1090.85 308.305 3
0 11 11 700.813 209.511 6
-11 11 -11 490.809 458.416 1
-11 11 -11 622.536 214.146 3
0 11 -11 1223.3 309.931 5
-11 11 -12 688.009 484.721 1
-11 0 -12 2151.32 369.324 3
0 11 12 1874.94 301.206 6
0 11 -12 2145.07 363.551 3
-11 11 -12 1624.89 297.446 3
-11 0 -12 1272.92 549.458 1
0 11 -12 2156.66 351.621 5
-11 0 -13 -245.063 541.533 1
-11 11 -13 177.434 419.656 1
-11 0 -13 437.864 258.63 3
-11 11 -13 256.123 193.306 3
0 11 -13 472.041 284.314 3
0 11 -13 273.201 216.275 5
0 11 13 -114.786 176.053 6
-11 0 -14 536.59 265.876 3
-11 11 -14 838.816 291.252 3
0 11 -14 410.727 270.152 3
0 11 14 540.402 182.936 6
0 11 -14 1180.8 302.531 5
-11 11 -14 1459.82 734.904 1
-11 0 -15 2446.69 421.662 3
0 11 15 1704.21 283.35 6
-11 11 -15 1799.47 346.483 3
0 11 -15 2423.2 379.425 5
0 11 16 961.178 232.615 6
-11 0 -16 1843 421.755 3
-11 11 -16 913.418 316.419 3
0 11 -16 1532.54 325.691 5
-11 11 -17 124.883 242.697 3
-11 0 -17 60.0286 276.446 3
-11 0 -18 830.643 335.756 3
-11 11 -18 898.094 333.429 3
-11 11 -19 153.503 292.791 3
-11 11 -19 380.665 272.937 5
-11 0 -19 600.717 337.733 3
-11 11 -20 488.162 251.718 5
-11 11 -20 430.02 261.259 3
-11 0 -20 725.298 292.432 3
-11 11 -21 -198.298 242.093 3
-11 0 -21 159.357 245.629 3
-11 11 -21 188.049 215.27 5
-11 11 -22 -98.7726 211.529 3
-11 0 -22 96.1142 217.898 3
-11 11 -22 -16.0987 172.99 5
-11 11 -23 275.905 190.537 3
-11 11 -23 109.06 145.661 5
-11 0 -23 -137.264 169.41 3
12 -6 0 124247 3129.97 2
12 -6 -1 -240.484 356.277 2
12 -6 1 -156.133 377.542 2
12 -6 -2 78584 2522.5 2
12 -6 2 82609.2 2569.11 2
12 -6 3 -62.0913 331.161 2
12 -6 -3 244.073 298.364 2
12 -6 4 498.752 351.407 2
12 -6 -4 269.13 281.414 2
12 -6 5 -209.465 315.798 2
12 -6 -5 -307.791 312.343 2
-6 12 -5 156.067 277.931 1
12 -6 -6 53413.9 2179.26 2
12 -6 6 51259.1 2062.03 2
-6 12 -6 48495.2 1898.5 1
-6 12 -7 -192.243 272.196 1
12 -6 -7 -222.178 315.948 2
12 -6 7 -331.274 299.802 2
12 -6 -8 71816.7 2530.93 2
12 -6 8 72295.4 2489.37 2
-6 12 -8 72580.9 2587.99 1
-6 12 -9 346.604 336.085 1
12 -6 -9 -139.186 220.5 2
12 -6 9 -247.564 242.152 2
-6 12 -10 12325.8 1222.47 1
-12 6 -11 162.41 177.717 3
-6 12 -11 118.448 190.967 3
-6 12 -11 -289.206 377.065 1
-12 6 -11 79.7179 477.964 1
-6 -6 -11 108.756 211.685 3
-6 12 11 -14.0018 198.798 6
-6 12 -11 -179.91 190.224 5
-12 6 -12 1765.39 320.141 3
-6 12 12 1719.17 312.196 6
-6 -6 -12 1673.64 295.717 3
-6 12 -12 2025.84 622.242 1
-12 6 -12 2857.11 768.607 1
-6 12 -12 2269.62 345.08 5
-6 12 -12 1422.25 294.61 3
6 6 12 1135.63 228.695 6
-6 12 -13 105.078 233.359 5
-12 6 -13 -156.179 244.308 3
-6 -6 -13 174.023 245.159 3
-6 12 13 -135.421 220.982 6
-12 6 -13 -470.839 556.325 1
-6 12 -13 161.551 228.86 3
-6 12 -13 541.241 508.211 1
-6 12 -14 6383.39 1035.59 1
-6 12 -14 7639.58 636.182 3
-12 6 -14 7412.19 624.88 3
-6 -6 -14 6746.21 602.929 3
-6 12 14 7217.97 552.972 6
-12 6 -14 8041.43 1245.48 1
-6 12 -14 8159.6 662.373 5
-6 12 -15 30.0861 253.338 5
-12 6 -15 433.12 455.754 1
-6 12 -15 359.529 347.52 1
-6 -6 -15 -425.38 304.614 3
-6 12 15 180.278 240.156 6
-6 12 -15 80.1846 237.086 3
-12 6 -15 -4.69509 260.061 3
-6 -6 -16 7319.42 651.405 3
-6 12 -16 8088.2 666.528 5
-6 12 -16 7786.22 663.129 3
-12 6 -16 7737.06 660.65 3
-6 12 16 5987.8 501.935 6
-6 -6 -17 -382.281 301.546 3
-6 12 -17 -418.286 302.53 3
-12 6 -17 -260.566 309.239 3
-6 12 -17 478.957 320.467 5
-6 -6 -18 1976.96 380.438 3
-6 12 -18 1839.65 411.445 3
-12 6 -18 2783.82 470.866 3
-6 12 -18 1974.05 389.653 5
-6 12 -19 136.513 262.508 3
-6 -6 -19 51.2336 232.619 3
-6 12 -19 272.666 246.753 5
-12 6 -19 -537.698 309.586 3
-6 -6 -20 548.674 250.016 3
-12 6 -20 855.011 331.055 3
-6 12 -20 479.459 291.455 3
-6 12 -20 448.52 226.97 5
-12 6 -21 -659.551 297.572 3
-6 12 -21 -64.6356 189.903 5
-6 12 -21 -694.06 293.244 3
-6 -6 -21 -242.078 215.379 3
-6 -6 -22 466.851 233.687 3
-6 12 -22 437.487 192.955 5
-6 12 -22 1278.05 306.559 3
-12 6 -22 1155.44 288.39 3
-12 6 -22 835.992 250.99 5
-12 6 -23 28.7461 190.55 3
-6 -6 -23 7.31107 143.557 3
12 -7 0 33461.4 1642.7 2
12 -5 0 32283.8 1624.45 2
12 -7 1 65116.9 2300.48 2
12 -5 1 65211.6 2303.73 2
12 -7 -1 66433.9 2334.75 2
12 -5 -1 64991.3 2311.72 2
12 -7 -2 19345.4 1292.55 2
12 -5 2 20656.8 1285.69 2
12 -5 -2 21339.1 1363.53 2
12 -7 2 21667.8 1318.7 2
12 -7 -3 16102.7 1185.7 2
12 -7 3 16323.3 1155.7 2
12 -5 -3 15636.3 1158.73 2
12 -5 3 15281.1 1122.41 2
12 -5 -4 1084.51 430.247 2
12 -5 4 762.231 392.461 2
12 -7 -4 1479.02 478.266 2
12 -7 4 532.013 292.305 2
-5 12 -4 808.498 266.435 1
12 -5 5 9359.62 897.908 2
-5 12 -5 9312.54 770.951 1
12 -7 5 10370 937.682 2
12 -5 -5 11123.6 998.558 2
12 -7 -5 10513.6 976.59 2
12 -7 6 13563.9 1087.98 2
12 -5 -6 13819.8 1101.71 2
12 -5 6 13007.4 1064.72 2
12 -7 -6 12894.2 1085.31 2
-5 12 -6 13998.2 989.408 1
12 -7 7 36463.4 1784.6 2
12 -5 7 36541.6 1753.71 2
12 -5 -7 35475.5 1775.21 2
12 -7 -7 37007.3 1832.39 2
-7 12 -7 38481.5 1847.41 1
-5 12 -7 34301.7 1648.08 1
12 -5 8 10104.9 929.321 2
12 -7 -8 9526 950.275 2
-5 12 -8 9197.04 911.622 1
12 -7 8 11390.2 1014.18 2
12 -5 -8 9647.77 943.578 2
-7 12 -8 11076.4 1067.01 1
-5 12 -9 18802.1 1370.41 1
12 -7 -9 17397 1266.59 2
-7 12 -9 19281.8 1443.13 1
12 -5 9 16846.1 1252.84 2
12 -7 9 18581.1 1279.23 2
12 -5 -9 17975.7 1267.24 2
-5 12 -10 1522.43 470.438 1
-7 12 -10 2694.47 656.302 1
-7 -5 -11 488.451 205.551 3
-5 12 11 838.257 255.686 6
-12 7 -11 487.595 202.501 3
-7 12 -11 1013.46 350.217 1
-5 12 -11 825.422 259.163 3
-12 7 -11 726.965 518.567 1
-12 5 -11 702.859 478.772 1
-5 -7 -11 608.283 241.11 3
5 7 11 617.724 197.128 6
-7 12 -11 300.963 189.239 3
-5 12 -11 737.687 236.234 5
-7 12 11 463.494 226.299 6
-5 12 -11 352.66 326.907 1
-12 5 -11 536.335 225.608 3
-12 5 -12 -150.679 489.307 1
-12 5 -12 233.676 202.692 3
-5 12 -12 -104.465 414.527 1
5 7 12 104.154 138.118 6
-7 12 -12 327.554 363.198 1
-5 12 -12 106.267 195.385 3
-7 12 -12 -305.297 208.947 3
-12 7 -12 1.67536 435.85 1
-7 -5 -12 -100.116 223.138 3
-5 -7 -12 178.381 228.541 3
-12 7 -12 -137.691 197.859 3
-5 12 -12 -415.302 280.008 5
-5 12 12 -36.1494 183.455 6
-7 12 12 332.126 224.499 6
-5 12 -13 792.408 257.806 5
-12 5 -13 1041.8 308.393 3
-7 12 13 876.72 271.998 6
-12 5 -13 -539.22 518.825 1
5 7 13 706.236 197.197 6
-7 -5 -13 844.004 326.418 3
-5 -7 -13 782.765 263.879 3
-7 12 -13 965.87 451.133 1
-7 12 -13 992.711 262.008 3
-12 7 -13 754.808 257.156 3
-5 12 -13 1223.05 318.177 3
-5 12 13 981.413 276.217 6
-12 7 -13 997.605 576.885 1
-5 12 -13 514.273 482.336 1
-5 12 -14 1019.57 300.742 5
-7 12 -14 1490.23 333.923 3
-12 7 -14 312.313 241.967 3
-7 -5 -14 716.478 318.392 3
-5 -7 -14 1350.33 327.832 3
-5 12 -14 656.055 308.584 1
-7 12 -14 766.369 285.98 5
-5 12 -14 842.403 299.704 3
-7 12 -14 351.658 445.481 1
-12 5 -14 1086.64 313.855 3
-5 12 14 974.564 276.684 6
-12 7 -14 1733.83 710.089 1
-7 12 14 1000.35 270.234 6
-12 5 -14 328.483 552.298 1
-7 12 15 4493.54 466.28 6
-5 12 -15 4964.38 542.897 5
-12 7 -15 3910.66 932.231 1
-12 5 -15 2844.53 775.233 1
-7 12 -15 2733.06 756.948 1
-5 -7 -15 4624.99 520.748 3
-5 12 -15 4738.35 531.835 3
-12 5 -15 4697.51 542.147 3
-7 12 -15 4628.57 515.969 3
-5 12 15 3246.33 394.516 6
-7 12 -15 4618.44 526.831 5
-12 7 -15 4472.24 516.923 3
-7 -5 -15 3926.34 476.588 3
-7 12 -16 2761.37 457.841 5
-7 -5 -16 1970.66 386.889 3
-5 -7 -16 1473.47 325.261 3
-12 5 -16 2422.48 426.861 3
-5 12 -16 1926.14 406.328 5
-7 12 -16 1845.38 377.625 3
-7 12 16 1967.86 338.854 6
-5 12 16 1641.11 302.308 6
-5 12 -16 2568.46 442.545 3
-12 7 -16 2407.4 403.181 3
-5 12 -17 3528.76 501.851 3
-7 12 -17 3416.71 475.426 5
-5 -7 -17 3620.9 468.564 3
-7 -5 -17 3921.91 511.175 3
-7 12 -17 3467.57 482.45 3
-5 12 -17 3583.65 470.145 5
-12 7 -17 3671.59 494.365 3
-12 5 -17 3878.89 525.446 3
-5 -7 -18 623.997 266.226 3
-7 -5 -18 576.604 323.542 3
-5 12 -18 866.764 337.249 5
-7 12 -18 281.878 254.638 3
-7 12 -18 720.72 318.043 5
-12 5 -18 459.776 311.913 3
-5 12 -18 910.119 369.759 3
-12 7 -18 612.842 306.467 3
-5 -7 -19 149.663 228.74 3
-5 12 -19 824.827 360.533 3
-7 12 -19 375.533 255.213 5
-5 12 -19 297.356 257.831 5
-7 12 -19 -272.414 297.655 3
-12 7 -19 -15.3463 261.623 3
-7 -5 -19 -37.0852 276.538 3
-12 5 -19 -114.15 266.03 3
-7 -5 -20 79.1009 231.566 3
-5 12 -20 322.172 272.751 3
-5 -7 -20 50.5733 200.176 3
-12 5 -20 1035.76 337.507 3
-12 7 -20 338.198 263.812 3
-7 12 -20 315.392 275.884 3
-5 12 -20 217.29 202.653 5
-7 12 -20 -137.39 227.669 5
-7 12 -21 805.289 307.725 3
-5 12 -21 678.299 304.004 3
-12 7 -21 908.295 299.099 3
-7 12 -21 487.159 256.823 5
-7 -5 -21 764.698 256.039 3
-12 5 -21 900.5 313.902 3
-5 12 -21 173.537 215.964 5
-5 -7 -21 922.929 268.496 3
-12 5 -22 210.034 141.523 5
-12 7 -22 457.199 243.221 3
-7 12 -22 -149.263 230.066 3
-7 -5 -22 225.785 204.616 3
-5 -7 -22 177.039 164.912 3
-12 5 -22 268.178 238.097 3
-7 12 -22 169.785 185.76 5
-12 7 -22 -182.754 175.615 5
-12 7 -23 206.392 190.183 3
-5 -7 -23 105.594 136.096 3
-12 5 -23 456.874 220.467 3
-7 -5 -23 103.899 181.97 3
12 -8 0 22158.7 1371.88 2
12 -4 0 22709.7 1391.09 2
12 -4 1 28580.8 1531.56 2
12 -4 -1 29418.5 1564.26 2
12 -8 1 28469.4 1553.21 2
12 -8 -1 30886.3 1633.56 2
12 -4 -2 9639.92 927.088 2
12 -8 2 7717.53 940.821 2
12 -8 -2 9652.71 967.078 2
12 -4 2 8735.64 897.906 2
12 -4 -3 11084.7 996.088 2
12 -8 3 9817.34 995.041 2
12 -8 -3 10259.5 991.871 2
12 -4 3 10781.5 956.493 2
12 -4 -4 -558.235 382.47 2
12 -4 4 16.019 247.745 2
12 -8 -4 471.932 367.017 2
12 -8 4 -15.8953 271.834 2
12 -8 5 2452.72 500.633 2
12 -8 -5 2703.36 582.394 2
12 -4 -5 3705.21 633.41 2
12 -4 5 2487.84 532.007 2
12 -8 -6 5422.05 756.72 2
12 -4 -6 4167.28 647.045 2
12 -4 6 4051.64 616.441 2
12 -8 6 4633.8 676.403 2
12 -8 7 13864.6 1130.73 2
-4 12 -7 11994.7 938.458 1
12 -4 7 13798.1 1104.04 2
12 -8 -7 15271.9 1192.87 2
12 -4 -7 13552.8 1110.55 2
12 -8 8 5024.48 703.394 2
-8 12 -8 5027.6 758.761 1
12 -8 -8 4791.11 717.623 2
12 -4 -8 4639.76 687.704 2
12 -4 8 4659.56 651.881 2
-4 12 -8 5541.41 695.423 1
-4 12 -9 9789.5 969.815 1
12 -4 9 10659.1 985.581 2
12 -4 -9 9708.1 967.109 2
12 -8 9 10163.3 988.223 2
12 -8 -9 10748.8 1031.08 2
-8 12 -9 10518.5 1083.03 1
-8 -4 -10 1774.02 313.558 3
-12 4 -10 2709.16 606.613 1
-4 12 -10 1952.07 457.174 1
-8 12 -10 2242.84 620.393 1
-4 12 -10 2297.86 343.744 5
-4 12 -11 1599.93 310.258 5
-12 4 -11 866.127 398.51 1
-4 -8 -11 1326.24 259.635 3
4 8 11 1447.83 246.257 6
-4 12 -11 1417.01 307.33 3
-12 8 -11 2462.07 669.78 1
-4 12 -11 536.895 372.614 1
-8 12 -11 957.152 216.413 3
-4 12 11 1457.92 266.217 6
-12 4 -11 1446.01 306.586 3
-8 12 -11 1450.93 488.596 1
-12 8 -11 1003.27 221.127 3
-8 -4 -11 1904.6 347.117 3
-8 12 -12 82.1035 443.041 1
-12 4 -12 110.318 234.98 3
-8 -4 -12 -219.147 256.935 3
-4 12 -12 -69.7747 354.693 1
4 8 12 143.297 156.917 6
-4 -8 -12 666.953 267.353 3
-12 8 -12 -539.624 560.412 1
-12 4 -12 1141.36 528.559 1
-4 12 -12 279.926 226.984 5
-8 12 -12 230.988 202.349 3
-12 8 -12 296 205.063 3
-4 12 -12 678.238 277.961 3
-4 12 12 167.855 179.693 6
-8 12 12 359.11 228.955 6
-4 12 -13 371.422 263.025 3
-12 4 -13 407.974 242.738 3
-8 12 -13 -165.024 386.486 1
-12 8 -13 306.796 204.237 3
-4 -8 -13 339.147 209.13 3
-8 12 -13 775.46 254.551 3
-8 -4 -13 310.891 243.289 3
-12 8 -13 -194.922 397.615 1
4 8 13 606.509 214.124 6
-12 4 -13 583.698 616.884 1
-4 12 -13 634.427 274.282 5
-4 12 13 481.632 225.771 6
-8 12 13 285.713 249.117 6
-12 8 -14 492.397 535.558 1
-4 12 -14 507.273 215.518 3
-12 4 -14 1688.4 613.818 1
-8 12 14 522.2 252.6 6
-12 4 -14 216.439 248.31 3
-4 -8 -14 582.372 267.367 3
-8 12 -14 -186.713 513.921 1
4 8 14 531.585 143.744 6
-4 12 -14 716.276 286.989 5
-8 12 -14 596.223 273.948 3
-4 12 14 572.912 242.751 6
-8 -4 -14 805.359 308.91 3
-12 8 -14 290.549 206.796 3
-8 12 -15 1391.33 362.09 5
-12 4 -15 344.049 358.188 1
-8 12 -15 1645.38 357.892 3
-8 -4 -15 1878.9 392.438 3
-4 -8 -15 1218.61 329.406 3
-12 4 -15 1373.7 343.258 3
-12 8 -15 1226.99 670.874 1
-8 12 -15 -105.299 545.432 1
-4 12 -15 1668.02 380.875 3
-12 8 -15 1245.78 312.646 3
-8 12 15 1285.4 304.197 6
-4 12 15 1358.18 305.469 6
-4 12 -15 1377.85 345.267 5
-12 4 -16 1184.44 349.249 3
-8 -4 -16 668.433 297.646 3
-4 -8 -16 1006.31 317.523 3
-4 12 16 405.241 191.581 6
-4 12 -16 864.079 330.331 3
-8 12 -16 658.959 280.019 5
-8 12 -16 509.741 270.649 3
-12 8 -16 1307.2 355.919 3
-8 12 16 653.904 243.833 6
-4 12 -16 1199.77 332.143 5
-12 4 -17 1772.6 370.295 3
-8 12 -17 2039.43 424.574 5
-8 -4 -17 1980.12 425.738 3
-4 12 -17 1571.06 371.57 5
-4 12 -17 1921.27 409.959 3
-8 12 -17 1493.95 343.036 3
-12 8 -17 1552.13 372.702 3
-4 -8 -17 1404.8 312.575 3
-4 -8 -18 -562.868 259.809 3
-8 12 -18 -213.167 269.445 5
-8 -4 -18 -141.886 267.411 3
-8 12 -18 -81.3442 274.95 3
-12 8 -18 33.6074 247.869 3
-4 12 -18 179.22 264.341 3
-4 12 -18 -134.837 243.86 5
-12 4 -18 196.393 290.59 3
-8 -4 -19 99.8029 262.68 3
-4 -8 -19 426.958 214.252 3
-4 12 -19 285.98 294.142 3
-8 12 -19 64.8292 263.601 3
-12 8 -19 365.446 284.046 3
-12 4 -19 -236.327 281.604 3
-4 12 -19 -67.7117 218.663 5
-8 12 -19 200.545 233.88 5
-4 -8 -20 -82.5172 196.401 3
-12 8 -20 -111.186 261.544 3
-4 12 -20 129.276 251.105 3
-8 12 -20 356.272 262.345 3
-12 4 -20 22.5183 275.588 3
-8 -4 -20 -119.074 239.037 3
-8 12 -20 -76.1721 227.37 5
-4 12 -20 102.256 201.324 5
-12 8 -21 577.624 268.614 3
-4 12 -21 183.334 203.57 5
-8 12 -21 216.117 247.928 3
-8 -4 -21 1092.15 283.455 3
-12 4 -21 85.445 233.051 3
-4 -8 -21 396.065 172.247 3
-8 12 -21 144.239 205.373 5
-12 8 -22 40.3683 166.035 5
-8 12 -22 -38.5386 169.827 5
-8 12 -22 187.917 209.498 3
-8 -4 -22 308.646 204.975 3
-12 8 -22 -24.4555 212.998 3
-12 4 -22 371.584 233.631 3
-4 -8 -22 -39.0061 133.17 3
-12 8 -23 -106.8 191.821 3
-8 12 -23 222.423 192.805 3
-12 4 -23 12.2804 187.21 3
-12 8 -23 39.0686 97.2244 5
-8 -4 -23 57.6678 148.451 3
-8 12 -23 415.698 152.36 5
12 -3 0 20335.4 1300.43 2
9 3 0 20605.4 1334.35 2
12 -3 1 191.91 290.771 2
12 -3 -1 159.432 351.314 2
9 3 1 568.3 388.868 2
9 3 -1 7.45948 362.7 2
12 -3 -2 3001.51 557.955 2
12 -3 2 2855.01 546.003 2
9 3 2 3065.39 587.225 2
9 3 -2 3019.94 573.711 2
12 -3 -3 157.471 281.888 2
12 -3 3 101.18 266.464 2
12 -9 3 262.526 360.389 2
9 3 -3 667.828 393.052 2
12 -9 -3 333.434 337.66 2
9 3 3 157.199 286.558 2
12 -3 -4 1044.99 380.491 2
12 -3 4 653.585 364.895 2
12 -9 4 1099.64 434.57 2
12 -9 -4 756.946 399.702 2
12 -3 5 1951.24 468.814 2
12 -3 -5 2186.08 493.274 2
12 -9 -5 2394.77 501.669 2
12 -9 5 2009.71 512.767 2
12 -3 6 9826.02 914.817 2
12 -9 -6 11490.7 1033.21 2
12 -9 6 10266.9 1042.29 2
12 -3 -6 9353.25 923.835 2
12 -9 7 144.317 276.848 2
12 -9 -7 485.102 343.93 2
12 -3 -7 -147.854 251.681 2
12 -3 7 190.211 268.065 2
-9 12 -8 7248.68 924.855 1
12 -9 -8 6585.09 826.221 2
12 -3 8 5279.61 728.389 2
12 -3 -8 5444.13 754.394 2
12 -9 8 6227.64 762.792 2
12 -9 -9 -290.769 251.717 2
12 -9 9 804.439 367.944 2
-9 12 -9 -345.009 456.465 1
12 -3 9 -6.19673 221.903 2
12 -3 -9 -97.8061 266.737 2
-9 12 -10 2653.84 641.759 1
-9 -3 -10 2198.58 331.519 3
-12 3 -10 2681.44 642.27 1
-3 12 10 2189.09 315.313 6
3 9 -10 2768.65 340.796 5
-3 12 -10 1615.23 307.516 3
-3 12 -10 1855.35 336.652 5
-12 9 -11 268.362 483.28 1
3 9 11 380.818 196.523 6
-12 3 -11 -300.647 244.256 3
-3 12 -11 -123.598 183.512 5
-12 3 -11 -16.0422 342.832 1
-9 -3 -11 264.752 203.562 3
-3 -9 -11 105.608 164.334 3
-12 9 -11 70.206 174.191 3
-3 12 -11 52.6392 168.606 3
-9 12 -11 -758.481 461.635 1
-3 12 11 114.063 176.97 6
3 9 -11 65.4098 201.555 5
-9 12 -11 281.041 169.67 3
-12 3 -12 -127.482 382.246 1
-12 9 -12 -42.6049 198.442 3
-12 3 -12 -248.521 254.188 3
-9 12 -12 -16.4865 173.354 3
-9 -3 -12 343.112 220.711 3
-3 -9 -12 412.229 201.939 3
-12 9 -12 -631.99 572.723 1
3 9 12 420.881 198.579 6
-3 12 12 27.9327 163.507 6
-3 12 -12 -126.308 230.927 3
-3 12 -12 356.974 257.022 5
-9 12 -13 513.338 509.169 1
3 9 13 477.088 202.118 6
-12 3 -13 1178.63 337.054 3
-12 9 -13 383.985 230.888 3
-9 12 -13 1065.42 271.902 3
-9 -3 -13 449.614 279.984 3
-3 -9 -13 449.521 225.946 3
-3 12 -13 645.469 287.552 3
-12 9 -13 408.145 485.366 1
-12 3 -13 614.907 440.914 1
-3 12 13 998.663 273.827 6
-3 12 -13 1080.1 313.925 5
-9 12 13 548.358 284.218 6
-12 3 -14 242.09 435.87 1
-12 3 -14 -201.622 253.476 3
-3 12 -14 2.08914 230.669 3
-3 -9 -14 43.2441 196.831 3
3 9 14 -336.365 211.842 6
-9 12 14 22.8522 245.114 6
-9 -3 -14 91.8626 251.333 3
-9 12 -14 -89.1283 211.159 3
-9 12 -14 -905.306 405.248 1
-3 12 14 -152.352 211.943 6
-12 9 -14 258.407 561.568 1
-12 9 -14 -62.1539 209.378 3
-3 12 -14 -253.735 208.722 5
-12 3 -15 -39.5565 253.186 3
-9 12 -15 -458.175 644.442 1
-12 3 -15 -465.839 547.246 1
-3 -9 -15 -248.432 231.945 3
-9 12 -15 -107.678 250.866 3
-3 12 -15 -518.063 288.889 3
-9 12 15 218.19 213.279 6
-9 -3 -15 125.335 291.754 3
-12 9 -15 -102.247 216.485 3
-3 12 15 -253.471 212.434 6
-3 12 -15 202.645 247.452 5
-9 12 -16 808.774 339.977 3
-3 12 -16 972.18 308.278 3
-12 3 -16 1016.56 343.428 3
-9 -3 -16 1275.47 387.568 3
-3 -9 -16 1188.44 295.803 3
-3 12 -16 699.45 229.491 5
-3 12 16 649.526 223.255 6
-9 12 16 566.718 244.817 6
-12 9 -16 1107.36 316.723 3
-12 3 -17 -300.363 334.509 3
-9 -3 -17 147.893 280.141 3
-3 12 -17 -315.728 311.409 3
-3 -9 -17 213.228 209.043 3
-9 12 -17 178.995 242.021 3
-12 9 -17 96.0026 236.128 3
-9 12 -17 220.824 290.797 5
-3 12 -17 -328.561 233.617 5
-12 9 -18 -188.113 243.562 3
-3 12 -18 -243.336 244.196 5
-3 -9 -18 232.744 183.125 3
-9 -3 -18 -26.8488 263.316 3
-9 12 -18 477.698 318.576 5
-3 12 -18 -379.596 307.745 3
-9 12 -18 216.189 235.785 3
-12 3 -18 -90.9207 274.118 3
-9 12 -19 147.722 245.027 5
-3 -9 -19 254.61 195.168 3
-3 12 -19 232.016 310.656 3
-9 -3 -19 239.404 260.635 3
-9 12 -19 161.598 252.915 3
-12 9 -19 277.026 275.412 3
-3 12 -19 156.696 208.253 5
-12 3 -19 482.893 290.388 3
-9 -3 -20 -97.0299 250.658 3
-12 3 -20 216.362 291.099 3
-9 12 -20 67.0686 236.996 3
-12 9 -20 -19.0079 235.205 3
-3 12 -20 205.576 179.637 5
-3 -9 -20 37.6909 177.962 3
-9 12 -20 -89.9585 221.509 5
-12 9 -21 118.355 228.841 3
-9 -3 -21 -92.9168 236.637 3
-9 12 -21 72.1007 234.532 3
-12 3 -21 -168.348 245.394 3
-12 9 -21 59.4235 201.468 5
-9 12 -21 218.9 246.295 5
-12 9 -22 190.598 165.46 5
-9 -3 -22 113.431 208.351 3
-12 9 -22 293.872 223.332 3
-9 12 -22 3.3748 216.477 3
-12 3 -22 181.563 208.314 3
-9 12 -22 -89.9414 175.521 5
-9 12 -23 80.038 126.258 5
-9 12 -23 -84.0223 168.234 3
-12 3 -23 76.1411 184.486 3
-9 -3 -23 35.7757 162.218 3
-12 9 -23 -68.3293 183.991 3
-12 9 -23 -249.402 150.751 5
12 -2 0 559.108 345.492 2
10 2 0 263.943 287.704 2
12 -2 -1 965.255 419.703 2
12 -2 1 577.401 296.069 2
10 2 -1 467.642 351.791 2
10 2 1 660.387 367.195 2
12 -2 2 9257.19 920.867 2
12 -2 -2 7785.51 868.644 2
10 2 -2 9221.35 961.047 2
10 2 2 9176.58 935.203 2
12 -2 -3 3935.91 668.072 2
12 -2 3 4178.17 614.647 2
10 2 3 4546.58 721.491 2
10 2 -3 3859.87 655.679 2
10 2 -4 13765 1151.26 2
12 -2 -4 12944.7 1092.6 2
12 -2 4 14366.5 1128.49 2
10 2 4 12881.8 1085.59 2
12 -2 5 8791.83 914.284 2
10 2 -5 9731.42 981.688 2
10 2 5 8284.24 889.344 2
12 -2 -5 8631.9 929.888 2
12 -10 6 4138.86 672.571 2
12 -2 -6 3692.01 625.725 2
12 -10 -6 4031.2 691.771 2
10 2 -6 4640.57 735.149 2
12 -2 6 4675.04 710.713 2
-10 -2 -7 2008.43 397.826 1
12 -2 7 2743.77 535.332 2
12 -2 -7 1872.98 448.666 2
12 -10 7 2303.55 562.998 2
12 -10 -7 2433.42 564.379 2
12 -2 -8 592.635 291.871 2
12 -2 8 545.009 269.253 2
12 -10 -8 362.887 327.153 2
12 -10 8 885.1 423.712 2
12 -10 -9 824.616 363.114 2
-10 12 -9 533.435 355.518 1
12 -2 9 186.751 352.359 2
12 -2 -9 218.823 244.478 2
12 -10 9 793.058 369.964 2
2 10 10 2612.52 338.392 6
-12 2 -10 3221.94 384.55 3
-12 2 -10 2713.98 620.859 1
-2 12 -10 2769.22 367.828 3
-10 12 -10 3027.28 736.442 1
-10 -2 -10 3585.75 417.014 3
-2 12 10 2648.22 331.451 6
2 10 -10 2730.61 366.257 5
-2 12 -10 2621.3 375.854 5
-10 12 -11 625.009 236.377 3
-2 12 11 951.932 267.81 6
-12 2 -11 1013.3 274.663 3
-12 10 -11 862.978 556.397 1
-10 -2 -11 1015.99 303.702 3
-2 12 -11 1256.02 293.694 3
-2 -10 -11 458.149 173.354 3
-12 2 -11 1416.24 544.463 1
-10 12 -11 173.831 422.15 1
2 10 11 888.201 236.534 6
2 10 -11 1116.12 287.902 5
-12 10 -11 589.196 218.678 3
-2 12 -11 1030.38 279.266 5
2 10 -12 3663.34 423.414 5
-12 2 -12 2774.54 685.001 1
-2 12 -12 4033.7 457.47 5
-2 12 12 3342.14 401.34 6
-12 2 -12 3900.41 470.499 3
-10 -2 -12 3972.52 490.417 3
-2 -10 -12 2464.59 330.444 3
-12 10 -12 3313.51 843.58 1
2 10 12 3560.87 387.152 6
-2 12 -12 3245.48 422.568 3
-10 12 -12 3158.4 401.395 3
-10 12 -12 4327.85 888.374 1
-12 10 -12 2709.31 367.759 3
-12 10 -13 727.426 429.988 1
-12 2 -13 -147.098 278.348 3
-12 2 -13 -420.938 455.199 1
-10 -2 -13 412.622 264.061 3
-2 12 -13 358.913 248.518 3
2 10 13 21.3235 194.999 6
-10 12 -13 1151.27 578.898 1
2 10 -13 840.122 254.131 5
-10 12 -13 337.712 232.67 3
-2 -10 -13 398.548 204.604 3
-2 12 13 755.011 246.26 6
-12 10 -13 408.224 207.352 3
-2 12 -13 829.281 280.377 5
-10 12 -14 243.61 420.73 1
2 10 14 43.9851 165.526 6
-12 2 -14 215.738 274.701 3
-12 10 -14 520.806 270.652 3
-10 -2 -14 93.4733 270.266 3
-2 -10 -14 340.553 234.815 3
-12 10 -14 -899.237 615.333 1
-2 12 14 382.66 213.492 6
-12 2 -14 -90.6163 525.777 1
-10 12 -14 338.568 241.89 3
-10 12 14 745.024 302.038 6
-2 12 -14 517.42 274.281 5
-2 12 -14 275.714 240.302 3
-2 12 15 31.6358 173.072 6
-12 2 -15 149.195 288.8 3
-10 -2 -15 139.536 249.969 3
-2 -10 -15 522.226 263.918 3
-2 12 -15 483.865 290.045 3
2 10 15 -17.507 180.728 6
-10 12 -15 165.658 230.832 3
-12 10 -15 171.568 226.411 3
-10 12 15 -83.9242 240.174 6
-2 12 -15 858.6 316.901 5
-2 12 -16 -44.1928 264.177 5
-12 2 -16 593.273 328.157 3
-2 -10 -16 211.508 204.018 3
-10 -2 -16 390.078 309.5 3
-12 10 -16 319.891 258.818 3
-10 12 -16 652.166 289.998 3
-2 12 16 392.156 203.169 6
-2 12 -16 740.427 328.732 3
-10 12 16 318.73 211.833 6
-2 12 -17 199.962 294.113 3
-2 -10 -17 788.62 252.734 3
-12 2 -17 26.2815 278.352 3
-10 -2 -17 1123.41 381.622 3
-12 10 -17 159.542 242.745 3
-10 12 -17 650.333 281.812 3
-2 12 -17 204.912 222.369 5
-12 2 -18 1237.87 385.503 3
-2 -10 -18 404.952 211.047 3
-10 -2 -18 547.879 331.643 3
-10 12 -18 811.522 320.95 5
-12 10 -18 312.751 241.01 3
-2 12 -18 579.473 256.776 5
-10 12 -18 503.584 285.065 3
-12 10 -19 318.153 251.429 3
-10 -2 -19 367.325 270.446 3
-10 12 -19 117.396 243.43 3
-2 12 -19 427.357 245.311 5
-10 12 -19 411.052 275.551 5
-12 2 -19 425.008 299.321 3
-12 10 -20 441.839 262.128 5
-10 -2 -20 102.749 252.438 3
-12 10 -20 269.438 269.172 3
-12 2 -20 326.721 280.266 3
-10 12 -20 70.4128 237.774 3
-10 12 -20 303.175 261.649 5
-12 10 -21 -213.334 212.248 5
-12 10 -21 181.987 232.067 3
-10 12 -21 78.0279 212.94 3
-12 2 -21 -273.019 242.161 3
-10 12 -21 62.9455 192.464 5
-10 -2 -21 140.305 231.043 3
-12 10 -22 56.1724 181.386 3
-10 -2 -22 88.9852 190.657 3
-12 10 -22 -120.264 154.943 5
-10 12 -22 -132.068 196.383 3
-12 2 -22 422.518 235.582 3
-10 12 -22 198.971 172.789 5
-10 12 -23 303.736 168.891 3
-10 12 -23 359.703 148.723 5
-10 -2 -23 211.906 175.782 3
-12 10 -23 220.926 182.78 3
-12 2 -23 205.378 174.218 3
-12 10 -23 98.3487 132.441 5
12 -1 0 420.135 313.708 2
11 1 0 490.492 316.669 2
11 1 -1 6927.55 828.126 2
12 -1 -1 6974.91 797.231 2
11 1 1 6937.22 857.557 2
12 -1 1 7470.03 861.806 2
11 1 -2 8351.57 921.29 2
12 -1 -2 8891.33 956.744 2
12 -1 2 9227.09 966.298 2
11 1 2 8413.37 929.048 2
12 -1 -3 12664.5 1117.02 2
12 -1 3 13545.6 1136.68 2
11 1 -3 14531.3 1166.55 2
11 1 3 13630.7 1152.49 2
11 1 4 32179.1 1732.45 2
12 -1 4 31266.8 1693.84 2
12 -1 -4 35011.9 1827.54 2
11 1 -4 33085.9 1797.79 2
12 -1 -5 6737.29 847.354 2
12 -1 5 6778.06 827.585 2
11 1 -5 7157.74 911.388 2
11 1 5 6837.16 842.385 2
12 -1 6 9715.85 983.509 2
12 -1 -6 9904.79 1001.76 2
11 1 -6 10414 1052.56 2
11 1 6 9437.26 999.676 2
12 -1 7 4677.22 726.845 2
12 -11 7 4671.54 713.294 2
11 1 7 4187.83 695.353 2
12 -1 -7 3993.86 678.714 2
11 1 -7 4430.12 712.488 2
12 -11 -8 2703.32 588.306 2
12 -1 -8 1754.31 485.296 2
12 -1 8 3523.36 636.338 2
-11 -1 -8 3705.57 614.182 1
12 -11 8 3224.56 590.342 2
-11 -1 -9 5051.54 469.793 3
1 11 9 5684.03 455.139 6
-12 1 -9 6550.83 898.265 1
12 -11 9 6393.73 837.888 2
1 11 -9 5297.78 466.558 5
-1 12 9 5806.82 457.789 6
-11 -1 -9 5446.84 778.72 1
12 -1 -9 4668.34 682.266 2
12 -1 9 5413.42 789.685 2
-1 12 -9 5855.09 505.405 5
12 -11 -9 5005.63 750.776 2
-11 -1 -10 7682.97 581.977 3
-1 12 10 7649.64 540.545 6
-12 11 -10 8237.78 1156.58 1
-11 12 -10 6574.75 1045.77 1
-12 1 -10 5642.03 859.807 1
-12 1 -10 6744.78 541.133 3
-1 12 -10 6665.12 550.166 5
1 11 -10 7403.35 562.654 5
1 11 10 6733.01 511.47 6
-1 -11 -11 2444.68 306.118 3
-12 1 -11 3936.66 460.946 3
-12 11 -11 4724.99 901.859 1
-11 -1 -11 3851.72 442.767 3
-11 12 -11 5000.37 937.02 1
-1 12 11 4055.85 428.443 6
-11 12 -11 2800.77 357.236 3
-12 1 -11 3107.31 656.955 1
1 11 11 3497.01 391.955 6
1 11 -11 4495.19 483.2 5
-12 11 -11 3152.36 373.646 3
-1 12 -11 3462.72 437.103 5
-12 11 -12 5020.78 946.775 1
-1 12 -12 6161.32 546.429 5
1 11 12 5838.12 484.74 6
-11 12 -12 4994.05 482.826 3
-12 11 -12 5259.86 495.655 3
-1 12 12 6343.59 517.326 6
-12 1 -12 6075.15 561.498 3
-11 -1 -12 6267.07 565.312 3
-1 -11 -12 4489.46 434.636 3
-11 12 -12 4636.16 929.947 1
-12 1 -12 3897.7 735.565 1
1 11 -12 6451.78 545.817 5
-12 1 -13 2104.37 694.803 1
-12 1 -13 2264.57 399.465 3
-11 -1 -13 2627.07 423.056 3
1 11 -13 2804.52 404.455 5
-1 12 13 2452.76 343.572 6
-12 11 -13 2413.91 376.443 3
-12 11 -13 2374.3 700.096 1
1 11 13 1726.31 295.578 6
-11 12 -13 2263.89 365.385 3
-11 12 -13 3016.62 1038.55 1
-1 12 -13 2709.12 395.598 5
-11 12 -14 3133.65 917.146 1
-11 12 -14 3461.36 432.749 3
-12 1 -14 4380.46 519.344 3
1 11 14 3622.59 401.018 6
-11 -1 -14 3837.22 491.643 3
-12 11 -14 4537.24 490.883 3
-12 11 -14 4077.07 936.577 1
1 11 -14 4290.46 492.55 5
-1 12 14 3555.94 401.847 6
-1 12 -14 4726.49 518.815 5
-1 12 -15 1222.33 319.009 5
1 11 15 722.469 252.254 6
-12 1 -15 918.866 321.311 3
1 11 -15 880.16 264.495 5
-11 -1 -15 1480.83 395.582 3
-12 11 -15 847.058 436.279 3
-1 12 15 538.777 225.503 6
-11 12 15 669.867 315.729 6
-11 -1 -16 225.694 267.577 3
-12 1 -16 22.0853 285.487 3
-12 11 -16 309.661 232.988 3
-1 12 16 420.87 207.602 6
-11 12 -16 498.75 260.338 3
1 11 16 538.626 208.063 6
-11 12 16 19.9138 233.458 6
-1 12 -16 19.6642 219.073 5
-11 -1 -17 303.138 295.741 3
-12 11 -17 934.963 290.447 3
-12 1 -17 369.605 269.472 3
-11 12 -17 473.392 277.796 3
-1 12 -17 491.31 254.657 5
-11 12 -18 1151.84 361.633 5
-12 1 -18 1000.44 360.758 3
-11 -1 -18 1739.48 414.311 3
-11 12 -18 1207.63 329.897 3
-12 11 -18 1558.82 360.058 3
-11 -1 -19 297.659 297.082 3
-11 12 -19 508.721 305.354 3
-11 12 -19 1155.92 351.073 5
-12 11 -19 403.884 260.772 3
-12 1 -19 537.914 294.988 3
-12 11 -20 786.368 279.078 5
-11 12 -20 182.147 274.162 3
-12 11 -20 120.922 222.985 3
-12 1 -20 505.476 318.068 3
-11 12 -20 287.679 252.057 5
-11 -1 -20 289.49 263.239 3
-11 12 -21 54.2841 211.21 3
-12 11 -21 49.771 193.96 5
-12 1 -21 537.751 264.688 3
-12 11 -21 188.689 226.366 3
-11 -1 -21 472.013 256.558 3
-11 12 -21 55.7588 236.574 5
-12 11 -22 25.6306 181.002 3
-11 12 -22 182.168 187.693 3
-11 -1 -22 105.775 203.549 3
-12 1 -22 60.3979 180.268 3
-11 12 -22 162.437 189.451 5
-12 11 -22 38.6239 159.304 5
12 0 0 26447.4 1608.11 2
12 0 -1 5288.7 776.265 2
12 0 1 5517.88 833.656 2
12 0 -2 19892.1 1386.75 2
12 0 2 19133.7 1362.67 2
12 0 -3 66725.4 2581.27 2
12 0 3 68383.6 2570.52 2
12 0 4 29.0258 307.639 2
12 0 -4 86.6499 322.783 2
12 0 5 35837.3 1903.85 2
12 0 -5 39894.5 2046.86 2
12 0 -6 8960.19 992.881 2
12 0 6 8386.98 939.862 2
12 0 -7 3014.02 649.679 2
12 0 7 3321.57 673.437 2
12 0 -8 13530.7 1226.88 2
0 12 8 13530.9 695.284 6
12 0 8 12013.9 1159.38 2
0 12 -8 13805.9 735.102 5
-12 0 -8 14567.7 1254.87 1
-12 0 -9 6928.82 544.035 3
0 12 -9 7563.9 553.143 5
-12 0 -9 7043.13 918.519 1
0 12 9 8008.91 569.853 6
12 -12 -9 5798.1 806.655 2
12 -12 9 6524.54 856.502 2
-12 0 -10 4968.03 812.75 1
-12 0 -10 5553.61 511.001 3
-12 12 -10 5987.83 981.948 1
0 12 10 5601.7 478.538 6
0 12 -10 5752.57 512.894 5
0 12 11 12724.3 744.185 6
-12 0 -11 13538.6 800.833 3
0 12 -11 14239.5 799.141 5
-12 12 -11 13025.1 1493.57 1
0 12 12 148.791 182.604 6
-12 12 -12 942.669 568.476 1
-12 0 -12 303.261 268.396 3
0 12 -12 430.696 238.93 5
-12 12 -12 115.463 176.442 3
0 12 13 7448.03 564.915 6
-12 0 -13 8560.85 687.509 3
-12 12 -13 7186.6 1225.21 1
-12 12 -13 7379.73 580.193 3
0 12 -13 8027.02 641.806 5
-12 0 -14 713.772 334.227 3
0 12 14 891.608 261.525 6
-12 12 -14 873.138 271.535 3
0 12 -14 630.318 281.416 5
-12 0 -15 513.629 286.186 3
0 12 15 -76.1503 187.14 6
-12 12 -15 102.383 223.632 3
0 12 -15 -105.396 240.466 5
-12 0 -16 2170.23 440.322 3
0 12 16 1196.19 258.138 6
-12 12 -16 1753.82 368.769 3
-12 12 16 1660.12 358.598 6
-12 0 -17 2699.74 455.22 3
-12 12 -17 2276.46 386.6 3
-12 12 -18 311.436 239.355 3
-12 0 -18 105.105 323.993 3
-12 12 -19 1960.71 427.617 3
-12 0 -19 3509.52 481.903 3
-12 12 -19 3346.15 465.075 5
-12 12 -20 -74.0294 262.705 5
-12 0 -20 178.986 246.184 3
-12 12 -20 -8.67253 211.971 3
-12 12 -21 585.248 249.486 3
-12 0 -21 220.656 219.386 3
-12 12 -21 340.548 263.7 5
-12 12 -22 183.866 173.844 3
-12 0 -22 163.16 173.475 3
-12 12 -22 267.463 192.199 5
13 -7 0 22800.3 1448.86 2
13 -6 0 22789.1 1467.78 2
13 -6 1 70844.6 2538.2 2
13 -7 -1 68607.8 2496.56 2
13 -6 -1 71047.2 2563.24 2
13 -7 1 70943.8 2532.11 2
13 -7 2 20112 1376.99 2
13 -6 2 21007.7 1370.47 2
13 -6 -2 19175.8 1339.56 2
13 -7 -2 20889.9 1392.21 2
13 -7 -3 14386.8 1170.31 2
13 -6 -3 12750.9 1113.46 2
13 -6 3 13140 1094.93 2
13 -7 3 13817.4 1148.23 2
13 -7 -4 575.301 430.254 2
13 -6 -4 464.318 350.321 2
13 -6 4 283.048 280.605 2
-6 13 -4 507.647 244.518 1
13 -7 4 116.58 263.59 2
13 -7 -5 16571.6 1271.29 2
13 -6 5 15549.7 1200.95 2
-6 13 -5 14595.3 1002.1 1
13 -6 -5 15260 1225.85 2
13 -7 5 15554.8 1223.4 2
13 -7 6 11911.1 1071.4 2
13 -6 6 10843.3 1001.91 2
13 -6 -6 12726.9 1116.56 2
-6 13 -6 10860 935.441 1
-7 13 -6 10728.7 961.557 1
13 -7 -6 12027.9 1101.91 2
13 -7 -7 72244.5 2680.85 2
13 -6 -7 72921.5 2669.34 2
13 -6 7 69230.2 2539.57 2
-7 13 -7 71220.8 2533.86 1
13 -7 7 69231.7 2554.73 2
-6 13 -7 69340.9 2448.03 1
13 -6 -8 16689.9 1282.79 2
-7 13 -8 18911.1 1383.63 1
13 -6 8 17602.5 1294.76 2
13 -7 -8 17647.1 1347.56 2
13 -7 8 18258.3 1330.29 2
-6 13 -8 17759.9 1308.82 1
13 -6 -9 29168.6 1699.68 2
13 -7 9 28859.1 1670.09 2
13 -7 -9 29629.7 1732.01 2
13 -6 9 29098.1 1689.19 2
-7 13 -9 29827.2 1844.42 1
-6 13 -9 29375 1769.02 1
-6 13 -10 2730.21 349.095 3
-6 13 -10 3094.95 403.272 5
-7 13 -10 2821.32 377.339 5
-7 13 -10 2523.86 330.445 3
-6 13 -10 2470.96 566.932 1
6 7 10 2882.9 327.206 6
-6 13 10 3019.26 370.51 6
7 6 10 2654.7 317.915 6
-7 13 10 2792.31 361.482 6
-7 13 -10 3975.97 703.083 1
-6 13 -11 666.024 234.159 5
-13 7 -11 770.322 244.819 3
-6 -7 -11 643.716 256.662 3
-13 6 -11 451.005 201.567 3
-7 13 -11 261.844 328.81 1
7 6 11 741.748 210.595 6
-6 13 -11 1082.97 266.651 3
-13 6 -11 548.148 445.733 1
-7 13 -11 495.559 194.33 3
-6 13 -11 680.458 478.864 1
-7 -6 -11 794.051 309.435 3
6 7 11 394.441 163.519 6
-6 13 11 662.382 253.574 6
-7 13 11 187.513 223.781 6
-13 7 -11 1318.28 637.459 1
-13 7 -12 308.402 220.729 3
6 7 12 142.427 146.651 6
-13 6 -12 357.106 211.056 3
-6 13 12 594.2 283.467 6
-6 13 -12 358.53 257.437 3
-6 13 -12 514.378 309.17 1
-7 13 -12 176.031 284.916 1
-13 6 -12 89.8287 456.114 1
-13 7 -12 -747.731 660.422 1
-7 -6 -12 1015.73 313.709 3
-6 -7 -12 345.025 205.088 3
-7 13 -12 335.545 192.26 3
7 6 12 81.3394 127.989 6
-6 13 -12 479.05 238.773 5
-7 13 -12 274.89 215.255 5
-7 13 12 518.498 254.323 6
-7 13 -13 2680.31 393.245 5
-13 6 -13 2641.24 402.516 3
-6 13 -13 3192.92 433.871 5
-13 7 -13 4297.08 928.478 1
-7 -6 -13 2952.9 444.211 3
-6 -7 -13 3404.63 439.03 3
6 7 13 1956.63 264.128 6
-13 6 -13 2496.54 747.237 1
7 6 13 1736.19 273.335 6
-7 13 -13 2354.83 375.514 3
-7 13 -13 1416.36 533.537 1
-13 7 -13 2769.83 386.293 3
-6 13 -13 2380.06 386.328 3
-6 13 13 3346.43 424.153 6
-7 13 13 3200.36 411.772 6
-6 13 -14 2967.47 446.062 5
-13 7 -14 2438.72 397.905 3
-7 13 -14 2622.2 421.502 5
-13 6 -14 2505.07 397.776 3
-6 13 -14 2539.99 402.281 3
-7 -6 -14 1927.68 385.032 3
-6 -7 -14 2172.18 395.353 3
-13 7 -14 1777.48 725.128 1
-7 13 -14 2085.93 408.884 3
-6 13 14 1779.76 326.86 6
-7 13 14 1947.32 340.735 6
-13 6 -14 1542.32 684.006 1
-7 13 -14 1619.15 565.978 1
-6 13 15 8230.98 599.342 6
-6 13 -15 8478.12 688.676 3
-7 13 -15 8935.41 686.613 3
-13 7 -15 10574.1 774.821 3
-13 6 -15 9596.22 729.227 3
-6 -7 -15 8066.81 674.919 3
-7 -6 -15 8526.84 686.517 3
-7 13 15 7911.7 596.384 6
-6 13 -15 9347.92 704.175 5
-7 13 -15 9701.66 737.047 5
-6 13 16 1889.64 328.077 6
-7 -6 -16 2721.06 459.621 3
-7 13 -16 2693.38 417.382 3
-6 13 -16 1231.86 363.802 3
-13 6 -16 2519.04 439.503 3
-7 13 -16 2293.11 422.834 5
-6 13 -16 2483.33 442.977 5
-7 13 16 2343.68 356.275 6
-6 -7 -16 2436.25 438.007 3
-13 7 -16 1953.74 402.703 3
-7 13 -17 3733.15 491.307 3
-6 -7 -17 3273.09 436.397 3
-7 -6 -17 4602.81 544.27 3
-6 13 -17 3842.88 504.973 5
-13 6 -17 4076.88 518.105 3
-7 13 -17 3567.4 475.313 5
-6 13 -17 3845.57 505.985 3
-6 13 17 2894.25 372.419 6
-7 13 17 3473.92 390.291 6
-13 7 -17 3762.38 485.317 3
-7 -6 -18 514.788 296.084 3
-6 13 -18 345.998 294.128 5
-7 13 -18 622.008 318.572 3
-13 7 -18 180.715 253.858 3
-6 -7 -18 233.805 227.167 3
-6 13 -18 1016.06 335.211 3
-13 6 -18 131.58 256.801 3
-7 13 -18 301.924 292.547 5
-6 -7 -19 -242.614 244.078 3
-7 -6 -19 -154.38 240.989 3
-7 13 -19 -200.089 233.648 5
-7 13 -19 55.8945 257.892 3
-6 13 -19 480.005 291.373 3
-13 7 -19 314.843 285.234 3
-13 6 -19 229.201 251.194 3
-6 13 -19 -41.0361 228.012 5
-7 13 -20 -51.7157 240.657 3
-6 -7 -20 249.462 213.942 3
-13 7 -20 277.985 246.372 3
-6 13 -20 381.128 307.576 3
-7 -6 -20 -31.0102 204.509 3
-13 6 -20 11.3385 239.718 3
-6 13 -20 131.068 229.419 5
-7 13 -20 0.42985 217.728 5
-7 13 -21 686.308 265.539 5
-7 13 -21 1656.81 346.575 3
-13 6 -21 1161.29 311.744 3
-13 7 -21 1570.81 338.993 3
-6 13 -21 279.427 230.219 5
-6 -7 -21 952.953 225.432 3
-7 -6 -21 1720.53 304.739 3
-7 -6 -22 481.405 211.117 3
-13 7 -22 769.361 274.651 3
-13 6 -22 69.1473 142.853 5
-13 6 -22 832.401 259.807 3
-6 -7 -22 108.169 161.49 3
-13 7 -22 112.3 158.495 5
-7 13 -22 295.466 227.013 5
13 -8 0 73723.6 2601.71 2
13 -5 0 72536.4 2546.3 2
13 -8 -1 500.936 387.868 2
13 -8 1 716.9 363.609 2
13 -5 -1 390.189 378.843 2
13 -5 1 703.434 384.839 2
13 -8 2 52464.8 2170.69 2
13 -5 2 48088.3 2073.23 2
13 -5 -2 50466.9 2131.87 2
13 -8 -2 51595.7 2212.81 2
13 -8 -3 -112.005 316.867 2
13 -5 3 417.751 315.68 2
13 -5 -3 363.279 369.82 2
13 -8 3 -16.327 358.7 2
13 -8 -4 747.137 358.346 2
13 -8 4 1267.17 428.494 2
13 -5 4 416.103 283.539 2
13 -5 -4 1008.1 442.626 2
13 -5 -5 231.751 277.371 2
13 -5 5 320.154 318.054 2
13 -8 5 -132.959 338.198 2
13 -8 -5 20.5256 279.701 2
13 -5 -6 36797.3 1880.83 2
13 -8 6 36798.7 1874.34 2
13 -5 6 34990 1785.78 2
13 -8 -6 37499.9 1939.09 2
13 -8 -7 768.948 391.302 2
13 -5 -7 963.904 401.18 2
-8 13 -7 676.009 341.121 1
13 -5 7 970.573 412.702 2
13 -8 7 633.307 381.575 2
13 -8 -8 42947.9 2085.91 2
13 -8 8 43017.1 2041.27 2
13 -5 -8 41422.3 2026.07 2
13 -5 8 42812.8 2024.71 2
-8 13 -8 42434 2128.13 1
-5 13 -9 1041.66 254.809 5
-8 13 -9 826.756 386.563 1
13 -8 9 1032.03 366.058 2
13 -5 -9 596.643 294.905 2
13 -5 9 941.035 273.025 2
-5 13 9 671.131 247.125 6
13 -8 -9 919.399 406.166 2
-5 13 -10 8732.44 604.382 5
5 8 10 7335.62 516.824 6
8 5 10 6234.14 442.814 6
-13 5 -10 7594.34 549.943 3
-5 13 10 9274.48 597.314 6
-5 13 -10 8044.57 573.231 3
-8 13 -10 8961.19 1142.96 1
-5 -8 -11 -96.7938 219.577 3
-8 13 -11 -91.5328 186.46 3
-13 5 -11 -176.465 198.841 3
-13 8 -11 -33.2695 180.859 3
-13 8 -11 -1005.52 580.97 1
-13 5 -11 -889.133 497.33 1
-8 -5 -11 167.289 235.371 3
-5 13 -11 85.9182 202.554 3
8 5 11 140.909 124.524 6
-5 13 -11 -5.11335 190.402 5
5 8 11 231.955 154.832 6
-8 13 11 137.845 246.739 6
-5 13 11 -164.349 226.416 6
-8 13 -11 -438.009 457.384 1
-13 8 -12 143.2 171.777 3
-13 5 -12 462.915 235.475 3
-8 13 -12 297.373 225.139 3
5 8 12 541.38 228.254 6
-8 13 -12 70.7465 359.862 1
-13 8 -12 1113.5 456.482 1
-8 -5 -12 488.474 258.159 3
-5 -8 -12 274.72 230.46 3
-13 5 -12 470.449 527.406 1
8 5 12 83.3651 143.451 6
-5 13 -12 621.806 267.513 3
-5 13 12 327.687 233.847 6
-8 13 12 389.231 259.718 6
-5 13 -12 727.78 275.096 5
-13 5 -13 354.872 268.169 3
-5 13 -13 215.497 208.918 3
-8 13 -13 458.131 273.049 5
-13 8 -13 493.594 538.381 1
-13 5 -13 1033.32 633.948 1
-8 13 -13 0.47296 197.357 3
-8 13 -13 -401.26 475.403 1
-8 -5 -13 403.174 294.602 3
-5 -8 -13 125.383 231.793 3
5 8 13 124.728 149.072 6
-5 13 13 508.788 251.043 6
-8 13 13 298.654 244.168 6
-5 13 -13 459.325 256.054 5
-13 8 -13 183.504 207.858 3
-8 13 -14 5347.25 543.977 5
-8 13 14 4968.42 499.909 6
-8 -5 -14 4920.69 530.79 3
-5 -8 -14 3995 478.411 3
-5 13 -14 5296.29 548.577 3
-8 13 -14 4624.65 491.719 3
-13 8 -14 4687.62 513.385 3
-13 5 -14 5050.93 546.474 3
-8 13 -14 3036.71 796.915 1
-5 13 -14 5111.11 540.579 5
5 8 14 3131.03 342.786 6
-5 13 14 4128.24 439.159 6
-13 8 -14 5611.71 1055 1
-13 5 -14 4038.27 872.047 1
-8 13 -15 -260.043 274.716 5
-8 -5 -15 -249.98 271.592 3
-5 -8 -15 -168.26 247.189 3
-5 13 -15 556.142 300.654 3
-8 13 15 126.956 238.765 6
-5 13 15 -5.70457 197.881 6
-8 13 -15 34.8858 240.527 3
-13 5 -15 42.3906 245.355 3
-13 8 -15 30.04 229.558 3
-5 13 -15 22.9828 274.511 5
-13 5 -16 6157.47 615.633 3
-5 13 -16 6523.22 633.453 3
-8 13 -16 6355.38 605.284 3
-13 8 -16 6534.76 618.292 3
-5 -8 -16 4715.93 533.93 3
-8 -5 -16 6163.32 613.415 3
-5 13 16 4884.31 467.209 6
-8 13 16 4617.65 455.158 6
-5 13 -16 5888.98 586.544 5
-8 13 -16 6875.82 648.778 5
-8 13 -17 46.6684 278.326 5
-5 -8 -17 -118.39 259.63 3
-8 -5 -17 300.629 309.825 3
-5 13 -17 169.305 277.093 3
-5 13 17 -192.372 169.05 6
-13 8 -17 -464.063 325.344 3
-8 13 -17 115.285 268.307 3
-5 13 -17 296.249 268.503 5
-8 13 17 -471.001 247.243 6
-13 5 -17 434.542 331.033 3
-8 13 -18 775.202 326.197 3
-5 -8 -18 396.308 225.348 3
-8 -5 -18 552.031 306.509 3
-8 13 -18 456.626 271.954 5
-5 13 -18 700.489 303.836 5
-5 13 -18 652.722 328.536 3
-13 8 -18 811.464 329.284 3
-13 5 -18 739.474 346.253 3
-13 5 -19 54.9459 263.241 3
-8 13 -19 273.771 270.229 3
-5 -8 -19 369.985 188.587 3
-5 13 -19 234.995 224.979 5
-8 -5 -19 -23.7572 240.32 3
-13 8 -19 266.888 279.46 3
-5 13 -19 100.887 261.112 3
-8 13 -19 102.426 237.121 5
-5 -8 -20 652.423 216.121 3
-8 -5 -20 1108.72 305.713 3
-8 13 -20 526.005 298.57 3
-5 13 -20 668.919 271.399 5
-13 8 -20 416.763 255.029 3
-13 5 -20 432.59 273.153 3
-8 13 -20 681.457 263.428 5
-8 -5 -21 -55.1904 209.573 3
-8 13 -21 204.699 228.119 3
-5 -8 -21 103.029 155.445 3
-13 8 -21 -293.348 254.11 3
-13 5 -21 -275.325 218.075 3
-5 13 -21 -10.8295 185.368 5
-8 13 -21 61.3424 206.75 5
-13 8 -22 408.622 204.867 5
-13 5 -22 111.499 160.369 5
-8 13 -22 717.619 249.183 5
-5 -8 -22 316.563 178.997 3
-8 -5 -22 827.712 240.541 3
-13 8 -22 1251.58 274.417 3
-13 5 -22 1231.28 297.541 3
13 -9 0 12451 1129.8 2
13 -4 0 10707.9 1050.55 2
13 -9 -1 22545.1 1555.11 2
13 -9 1 23594.1 1583.61 2
13 -4 -1 23394.5 1505.67 2
13 -4 1 24006.9 1482.66 2
13 -4 -2 3973.92 694.515 2
13 -4 2 3967.36 645.34 2
13 -9 -2 3710.15 643.652 2
13 -9 2 3815.06 652.467 2
13 -4 3 8426.35 889.483 2
13 -9 3 7909.44 924.134 2
13 -4 -3 7160.82 859.5 2
13 -9 -3 9256.07 958.115 2
13 -4 -4 432.258 318.276 2
13 -4 4 1005.67 429.47 2
13 -9 -4 452.961 313.807 2
13 -9 4 193.843 357.068 2
13 -9 -5 3504.26 614.842 2
13 -9 5 3857.4 643.965 2
13 -4 -5 3767.67 639.684 2
13 -4 5 2552.39 491.765 2
13 -9 -6 5633.84 770.026 2
13 -9 6 4386.75 727.38 2
13 -4 -6 5055.31 762.816 2
13 -4 6 4823.78 732.066 2
13 -4 7 11395 1075.66 2
13 -4 -7 13049.8 1164.6 2
13 -9 7 12543.8 1143.86 2
13 -9 -7 13657.6 1203.32 2
13 -9 8 4140.76 669.752 2
-9 13 -8 3973.26 732.357 1
13 -4 -8 2623.44 511.408 2
13 -4 8 3282.72 598.59 2
13 -9 -8 3998.2 638.772 2
-4 13 9 7809.37 535.419 6
13 -9 9 6441.43 843.054 2
13 -4 9 7102.24 904.583 2
-9 13 -9 7407.83 955.022 1
-4 13 -9 6651.03 528.146 5
13 -9 -9 7251.49 875.839 2
13 -4 -9 7334.28 910.14 2
4 9 9 6373.41 475.33 6
-4 13 -10 291.013 183.223 3
4 9 10 449.254 172.229 6
-13 4 -10 -101.599 412.882 1
-13 4 -10 689.353 238.341 3
9 4 10 206.753 160.962 6
-9 -4 -10 709.946 266.961 3
-4 13 10 522.011 222.618 6
-9 13 -10 617.383 451.743 1
-4 13 -10 466.07 215.027 5
9 4 11 318.885 179.777 6
-13 4 -11 188.909 209.235 3
-9 13 -11 400.664 238.208 3
-4 -9 -11 456.25 250.253 3
-13 9 -11 -52.1616 469.773 1
-13 4 -11 387.434 394.352 1
-4 13 -11 -291.964 244.468 5
-9 -4 -11 -223.363 242.516 3
4 9 11 -54.2855 183.142 6
-4 13 -11 431.521 266.632 3
-4 13 11 271.922 211.379 6
-9 13 -11 113.035 408.5 1
-13 9 -11 152.032 161.726 3
-4 13 -12 543.802 227.934 3
-9 13 -12 632.571 213.971 3
-13 4 -12 250.597 225.071 3
4 9 12 488.68 213.593 6
-4 13 -12 275.227 233.774 5
-13 9 -12 184.506 504.103 1
-4 -9 -12 604.284 248.659 3
-13 4 -12 987.121 497.113 1
-9 -4 -12 899.854 300.374 3
-4 13 12 207.3 208.921 6
-9 13 12 384.976 289.871 6
-13 9 -12 217.278 208.598 3
-9 13 -12 101.625 406.981 1
-4 13 -13 -78.5252 245.107 3
-13 4 -13 254.659 267.544 3
-9 13 -13 -718.683 580.031 1
-9 13 13 -112.881 254.556 6
-9 -4 -13 -45.5996 278.087 3
4 9 13 124.736 164.363 6
-4 -9 -13 165.183 242.424 3
-13 9 -13 523.087 609.976 1
-9 13 -13 -192.309 226.505 3
-13 4 -13 -641.551 416.791 1
-4 13 13 285.278 230.527 6
-13 9 -13 344.852 255.873 3
-4 13 -13 68.5296 250.631 5
-13 9 -14 798.373 285.089 3
-4 13 -14 -82.0919 242.932 3
-9 -4 -14 -518.697 337.429 3
-4 -9 -14 553.693 267.784 3
-13 4 -14 440.749 296.008 3
-9 13 -14 -11.6569 388.112 1
-9 13 -14 75.9139 214.012 3
-4 13 -14 -137.563 262.745 5
4 9 14 -97.9749 188.338 6
-13 9 -14 241.765 529.283 1
-4 13 14 103.847 233.94 6
-9 13 14 145.572 256.567 6
-13 4 -14 -794.327 611.836 1
-13 4 -15 1552.99 371.295 3
-9 13 -15 1057.43 328.772 5
-9 13 15 1378.58 293.554 6
-9 13 -15 1124.7 302.746 3
-9 -4 -15 1395.3 357.263 3
-4 -9 -15 988.364 317.269 3
-4 13 15 1065.87 278.254 6
-4 13 -15 992.93 320.856 3
-13 9 -15 1108.39 311.122 3
4 9 15 171.663 161.559 6
-4 13 -15 1135.13 305.13 5
-9 13 -16 1173.05 347.083 5
-9 13 -16 401.87 251.796 3
-13 4 -16 1170.97 343.784 3
-4 13 -16 671.337 326.885 3
-9 -4 -16 813.961 340.602 3
-4 -9 -16 575.333 276.323 3
-9 13 16 516.899 260.238 6
-13 9 -16 287.152 267.115 3
-4 13 -16 1101.28 315.236 5
-4 13 16 551.186 224.636 6
-9 13 -17 527.774 296.553 5
-13 4 -17 969.864 350.075 3
-4 13 -17 1289.27 406.732 5
-4 -9 -17 646.853 244.027 3
-9 -4 -17 123.569 286.724 3
-4 13 -17 401.026 287.442 3
-4 13 17 205.485 176.114 6
-9 13 -17 840.171 315.852 3
-9 13 17 584.495 265.873 6
-13 9 -17 918.484 289.217 3
-9 -4 -18 -50.198 269.603 3
-13 4 -18 24.7615 287.999 3
-9 13 -18 -287.317 284.231 5
-4 13 -18 -394.936 317.665 3
-4 13 -18 233.564 240.189 5
-4 -9 -18 268.351 249.631 3
-13 9 -18 -228.522 256.342 3
-9 13 -18 -28.7107 239.655 3
-9 13 -19 279.776 278.891 3
-4 -9 -19 -137.349 192.917 3
-9 -4 -19 393.901 299.509 3
-4 13 -19 656.24 304.278 5
-13 9 -19 133.176 295.882 3
-13 4 -19 206.708 274.388 3
-9 13 -19 -70.692 251.168 5
-9 13 -20 91.9878 213.697 5
-9 13 -20 279.141 224.741 3
-13 4 -20 273.274 258.664 3
-9 -4 -20 102.568 233.9 3
-4 13 -20 96.3634 201.323 5
-13 9 -20 57.1002 229.926 3
-4 -9 -20 355.121 198.134 3
-13 9 -21 125.037 214.37 5
-13 9 -21 154.098 231.919 3
-9 -4 -21 639.481 266.097 3
-9 13 -21 19.5147 208.953 5
-9 13 -21 137.634 222.937 3
-13 4 -21 -41.7924 223.496 3
-4 -9 -21 57.4733 144.267 3
-13 9 -22 91.9736 183.126 5
-9 13 -22 -0.3031 182.421 5
-9 -4 -22 53.845 167.332 3
-9 13 -22 92.0132 193.222 3
-13 9 -22 310.378 196.234 3
-13 4 -22 74.4798 184.385 3
13 -3 0 1383.68 430.523 2
10 3 0 1561.12 478.334 2
13 -10 0 1364.98 487.57 2
13 -10 -1 3196.81 648.93 2
13 -10 1 2873.41 639.613 2
10 3 1 3723.91 633.014 2
13 -3 -1 3488.72 605.898 2
13 -3 1 3341.68 588.776 2
10 3 -1 3174 659.019 2
13 -3 -2 2960.11 604.047 2
13 -3 2 2580.48 530.894 2
10 3 -2 2541.47 559.839 2
10 3 2 1779.47 501.739 2
13 -10 -2 3205.02 653.191 2
13 -10 2 2988.45 614.611 2
13 -3 -3 3400.43 620.064 2
13 -3 3 2772.45 554.7 2
10 3 -3 2748.19 597.262 2
13 -10 -3 3795.09 680.53 2
13 -10 3 3480.38 628.807 2
13 -10 -4 9344.77 1004.73 2
13 -10 4 8934.83 992.044 2
13 -3 -4 9079.93 972.932 2
13 -3 4 9214.7 957.81 2
13 -3 -5 4362.5 669.476 2
13 -3 5 3827.89 651.333 2
13 -10 -5 4004.4 711.455 2
13 -10 5 4632.15 710.056 2
13 -10 6 5475.69 785.749 2
13 -3 6 5284.53 756.749 2
13 -3 -6 6866.01 876.944 2
13 -10 -6 5772.12 802.834 2
13 -10 -7 3255.01 652.984 2
13 -3 -7 3255.87 622.537 2
13 -3 7 2696.61 569.324 2
13 -10 7 3913.84 662.044 2
13 -10 8 788.66 336.546 2
13 -10 -8 686.372 326.731 2
13 -3 8 874.341 381.067 2
13 -3 -8 934.204 398.085 2
13 -10 -9 1053.15 373.267 2
13 -10 9 695.843 268.079 2
13 -3 9 266.699 344.541 2
-3 13 -9 1085.76 279.627 5
-10 13 -9 871.091 361.753 1
13 -3 -9 752.665 332.362 2
3 10 9 909.389 254.451 6
-3 13 9 1299.61 325.165 6
10 3 10 1264.65 233.097 6
-3 13 -10 1877.94 347.057 3
-13 3 -10 2228.27 364.627 3
-13 3 -10 2263.75 653.198 1
-10 13 -10 2249.16 650.939 1
-10 -3 -10 2177.24 329.255 3
3 10 10 2081.66 291.52 6
-3 13 10 1648.37 277.882 6
-3 13 -10 2270.22 369.803 5
-3 -10 -11 1283.52 293.64 3
-10 13 -11 1323.55 559.993 1
-3 13 -11 1771.16 349.403 3
-13 3 -11 1600.11 334.401 3
-13 10 -11 1861.82 712.939 1
-10 -3 -11 1532.15 309.038 3
-13 3 -11 1550.67 487.651 1
10 3 11 994.566 219.075 6
3 10 11 1367.82 263.11 6
-10 13 -11 1081.54 237.7 3
-3 13 11 1763.09 324.329 6
-13 10 -11 992.575 269.075 3
-3 13 -11 1641.25 341.214 5
-13 3 -12 2554.62 414.153 3
-3 13 -12 1770.57 352.135 3
-13 3 -12 552.232 421.733 1
-10 -3 -12 2453.74 402.413 3
-3 -10 -12 2049.27 344.413 3
-13 10 -12 1387.85 548.429 1
3 10 12 1948.29 312.444 6
-3 13 12 2142.17 339.818 6
-10 13 -12 1725.9 308.296 3
-13 10 -12 1709.52 315.18 3
-10 13 -12 939.267 553.277 1
-3 13 -12 2714.38 399.587 5
-10 13 -13 -363.736 571.581 1
-10 -3 -13 186.434 238.162 3
-3 13 -13 696.242 284.41 3
-3 -10 -13 514.569 231.82 3
-13 10 -13 979.667 546.954 1
3 10 13 143.283 155.052 6
-10 13 -13 597.137 241.069 3
-13 3 -13 -232.989 378.686 1
-3 13 13 632.231 243.954 6
-13 3 -13 793.396 309.251 3
-10 13 13 201.833 286.572 6
-13 10 -13 495.836 237.199 3
-3 13 -13 546.77 263.766 5
-13 3 -14 -81.5606 382.758 1
-3 13 -14 110.243 277.241 5
-13 3 -14 604.619 317.25 3
-10 13 -14 -266.756 268.615 3
-10 -3 -14 164.96 272.303 3
-3 -10 -14 268.821 200.26 3
-3 13 14 40.3868 208.745 6
-13 10 -14 397.287 232.199 3
3 10 14 19.0125 159.739 6
-3 13 -14 -150.085 253.432 3
-13 10 -14 -431.08 455.145 1
-10 13 14 -293.305 281.615 6
-10 13 -14 625.098 559.643 1
-3 13 -15 216.587 281.791 3
-13 3 -15 -166.328 274.959 3
-10 -3 -15 -534.09 334.25 3
-3 -10 -15 -80.7106 209.363 3
3 10 15 61.6017 162.913 6
-3 13 15 191.393 221.465 6
-10 13 -15 542.015 270.82 3
-10 13 15 561.592 281.566 6
-13 10 -15 136.954 219.908 3
-3 13 -15 94.4047 243.745 5
-10 13 -16 -69.2719 285.763 5
-13 3 -16 -181.44 252.128 3
-3 -10 -16 -51.8269 216.109 3
-10 -3 -16 908.145 356.322 3
-10 13 -16 228.737 221.54 3
-3 13 16 314.216 225.312 6
-3 13 -16 244.361 299.097 3
-10 13 16 331.158 245.437 6
-13 10 -16 202.822 245.681 3
-3 13 -16 -2.60959 248.52 5
-10 13 -17 665.239 341.751 5
-3 -10 -17 383.445 219.184 3
-13 10 -17 -303.371 268.55 3
-10 -3 -17 103.868 290.334 3
-10 13 -17 52.5178 223.756 3
-3 13 17 59.4575 172.943 6
-13 3 -17 -100.725 281.69 3
-10 13 17 22.5319 204.41 6
-3 13 -17 355.231 257.169 5
-10 13 -18 788.51 312.511 5
-13 3 -18 1055.41 321.473 3
-10 13 -18 381.333 271.482 3
-3 13 -18 622.299 267.517 5
-3 -10 -18 680.584 232.391 3
-10 -3 -18 404.031 295.19 3
-13 10 -18 1410.17 359.201 3
-3 -10 -19 -295.232 192.294 3
-10 -3 -19 -39.1259 253.276 3
-10 13 -19 106.45 259.399 5
-10 13 -19 218.72 243.149 3
-13 10 -19 -263.735 270.095 3
-3 13 -19 -369.672 239.24 5
-13 3 -19 670.538 310.641 3
-10 13 -20 278.311 226.994 5
-10 13 -20 68.024 228.477 3
-13 10 -20 643.603 305.342 3
-10 -3 -20 851.399 273.972 3
-13 3 -20 720.848 285.065 3
-13 10 -21 -97.2366 216.982 5
-13 3 -21 -120.233 239.198 3
-10 13 -21 269.696 227.174 3
-13 10 -21 269.477 227.765 3
-10 13 -21 37.1017 205.589 5
-10 -3 -21 126.489 206.804 3
-10 13 -22 -34.7298 159.319 5
-13 10 -22 2.04557 159.239 5
-13 10 -22 -108.888 171.73 3
-10 13 -22 -98.3078 176.512 3
-13 3 -22 -199.392 213.23 3
-10 -3 -22 21.4353 172.457 3
11 2 0 2146.62 571.267 2
13 -2 0 1878.45 516.419 2
13 -2 -1 3894.32 674.343 2
13 -2 1 3752.61 636.028 2
11 2 1 3332.8 630.685 2
11 2 -1 3475.54 665.426 2
13 -2 -2 1621.39 494.038 2
13 -2 2 1566.12 467.58 2
11 2 2 2193.38 566.39 2
11 2 -2 2083.92 545.967 2
11 2 -3 23648.3 1569 2
13 -2 3 24861.8 1565.04 2
13 -2 -3 23260.4 1553.46 2
11 2 3 24059.6 1593.34 2
13 -2 4 -61.3782 334.172 2
13 -2 -4 484.787 375.598 2
11 2 4 165.058 306.473 2
11 2 -4 212.762 300.202 2
13 -11 -5 20209.4 1455.56 2
13 -2 -5 18696.7 1411.35 2
13 -11 5 20095.3 1489.47 2
13 -2 5 18792.1 1374.01 2
11 2 -5 18028.1 1417.66 2
11 2 5 20709.6 1467.26 2
13 -2 -6 469.343 363.867 2
13 -2 6 1071.26 396.667 2
13 -11 -6 334.31 320.32 2
13 -11 6 869.497 401.114 2
13 -2 7 2005.7 521.087 2
13 -2 -7 2221.01 552.551 2
13 -11 -7 1484.57 445.243 2
13 -11 7 3470.81 660.603 2
13 -11 8 3168.91 608.849 2
13 -2 -8 2271.41 490.431 2
13 -2 8 2731.52 618.396 2
2 11 8 2553.91 319.232 6
-2 13 8 2997.09 359.172 6
-2 13 -8 2482.92 338.371 5
13 -11 -8 2727.07 623.686 2
13 -11 9 2671.73 614.22 2
-11 -2 -9 2498.97 357.645 3
13 -2 -9 2121.47 514.138 2
-13 2 -9 2626.59 650.512 1
-11 13 -9 2894.41 735.222 1
-13 2 -9 1953.16 326.055 3
13 -11 -9 3158.53 655.304 2
-2 13 -9 2766.96 384.759 5
2 11 9 2340.85 334.054 6
-2 13 9 2357.72 325.606 6
13 -2 9 2300.99 553.289 2
-13 2 -10 651.339 240.341 3
-13 2 -10 935.88 548.269 1
-11 13 -10 797.582 570.748 1
-11 -2 -10 681.147 254.989 3
-2 13 -10 887.312 278.993 5
-2 13 10 850.551 238.694 6
2 11 10 996.946 254.898 6
-11 -2 -11 5855.74 542.276 3
-13 11 -11 6225.68 1043.65 1
-2 13 11 5836.86 520.198 6
-13 2 -11 5737.26 954.716 1
-2 -11 -11 4642.41 422.135 3
-13 2 -11 5391.18 527.747 3
2 11 11 6148.75 508.19 6
-11 13 -11 4663.15 442.287 3
-11 13 -11 5835.15 1039.11 1
-2 13 -11 6151.6 537.691 5
2 11 12 460.126 213.182 6
-13 2 -12 470.98 272.763 3
-11 -2 -12 512.622 263.456 3
-2 -11 -12 648.773 229.916 3
-13 11 -12 831.344 501.779 1
-2 13 -12 892.016 306.547 5
-11 13 -12 451.793 213.332 3
-13 2 -12 584.568 427.927 1
-11 13 -12 978.977 531.851 1
-2 13 12 533.973 238.435 6
-13 11 -12 468.129 202.499 3
-2 -11 -13 5976.95 497.63 3
2 11 13 6623.94 524.481 6
-11 13 -13 6470.45 552.601 3
-13 11 -13 6136.48 542.827 3
-13 2 -13 8037.32 666.457 3
-11 -2 -13 7519.36 638.569 3
-11 13 -13 6251.83 1122.05 1
-13 11 -13 7045.18 1263.15 1
-2 13 13 6648.03 542.067 6
-13 2 -13 4310.97 771.905 1
-2 13 -13 8160.69 648.643 5
-13 2 -14 3738.43 494.206 3
-11 -2 -14 3410.55 500.012 3
-2 -11 -14 2152.03 334.959 3
-11 13 -14 2967.09 400.758 3
-11 13 14 1689.51 413.588 6
2 11 14 2798.21 362.495 6
-2 13 14 2734.89 376.828 6
-13 11 -14 2789.73 409.659 3
-2 13 -14 3211.88 449.716 5
-13 2 -15 718.137 308.566 3
-11 -2 -15 884.211 329.418 3
-2 13 -15 1314.07 337.691 5
-2 -11 -15 735.109 231.129 3
2 11 15 679.252 239.682 6
-11 13 -15 884.242 306.769 3
-2 13 15 304.706 205.319 6
-13 11 -15 890.521 259.121 3
-11 13 15 4.73602 243.165 6
-13 2 -16 1741.38 377.381 3
-2 -11 -16 1215.01 260.448 3
-11 -2 -16 1424.68 379.702 3
-13 11 -16 1640.68 352.17 3
2 11 16 727.069 215.723 6
-2 13 16 785.901 229.476 6
-11 13 -16 1918.22 390.916 3
-11 13 16 966.297 318.639 6
-2 13 -16 1747.39 340.322 5
-11 13 -17 474.716 300.313 5
-13 2 -17 501.705 294.409 3
-2 -11 -17 690.033 242.711 3
-11 -2 -17 911.607 352.291 3
-11 13 -17 344.82 220.233 3
-2 13 -17 575.398 308.486 5
-2 13 17 330.571 196.464 6
-13 11 -17 483.178 238.394 3
-11 13 17 358.791 242.987 6
-11 13 -18 64.9958 255.914 5
-11 -2 -18 -224.002 294.419 3
-11 13 -18 -239.469 268.451 3
-13 2 -18 134.804 272.253 3
-13 11 -18 117.628 252.867 3
-2 13 -18 246.702 227.167 5
-11 13 -19 1259.83 351.425 5
-11 13 -19 584.071 302.438 3
-13 2 -19 1355.63 361.411 3
-13 11 -19 616.903 332.264 3
-11 -2 -20 336.207 220.378 3
-13 11 -20 -95.3725 219.654 5
-11 13 -20 176.272 246.578 3
-13 2 -20 -373.469 260.863 3
-13 11 -20 24.7696 223.878 3
-11 13 -20 -18.9818 239.263 5
-13 11 -21 250.867 206.308 3
-11 13 -21 466.996 227.731 3
-13 11 -21 267.649 208.654 5
-11 -2 -21 399.999 221.906 3
-13 2 -21 127.361 238.485 3
-11 13 -21 367.165 239.572 5
-11 13 -22 97.7157 182.427 3
-13 11 -22 34.3872 167.925 3
-13 2 -22 354.976 213.088 3
-11 -2 -22 -52.5878 169.698 3
-11 13 -22 -0.58257 162.007 5
-13 11 -22 49.2734 159.715 5
13 -1 0 7474.66 917.003 2
12 1 0 6396.64 878.86 2
13 -1 1 17390.5 1329.39 2
13 -1 -1 17889.5 1372.15 2
12 1 -1 17643.5 1372.85 2
12 1 1 18505 1406.33 2
13 -1 -2 20665.4 1492.23 2
13 -1 2 19352.6 1399.56 2
12 1 -2 18378.1 1408.64 2
12 1 2 19441.2 1410.86 2
13 -1 3 18195.2 1375.21 2
13 -1 -3 17526.7 1375.55 2
12 1 -3 19914.6 1491.97 2
12 1 3 18396.4 1398.61 2
12 1 4 30086.6 1767.86 2
13 -1 -4 30540 1817.4 2
13 -1 4 28762.7 1734.01 2
12 1 -4 30676.9 1829.45 2
12 1 5 9168.6 1025.67 2
13 -1 -5 10747.7 1131.57 2
13 -1 5 9350.27 1013.6 2
12 1 -5 10298.4 1087.14 2
12 1 -6 8566.54 1013.3 2
13 -1 6 9343.04 1035.21 2
13 -1 -6 9451.37 1056.1 2
12 1 6 8976.15 1010.25 2
13 -12 -7 5589.03 847.299 2
13 -1 -7 5049.74 786.888 2
1 12 7 4670.46 409.908 6
13 -1 7 4366.82 738.175 2
13 -12 7 4477.11 769.091 2
-1 13 7 4212.06 394.612 6
12 1 -7 4718.42 768.022 2
-1 13 -7 5245.83 475.915 5
13 -1 8 1726.42 531.328 2
13 -12 8 2614.48 621.365 2
-13 1 -8 2540.67 342.448 3
13 -1 -8 1812.99 502.679 2
1 12 8 2723.25 347.476 6
-1 13 8 2103.21 329.876 6
1 12 -8 2802.54 378.427 5
-1 13 -8 2956.21 381.577 5
13 -12 -8 1133.56 446.903 2
-13 1 -9 10224.6 651.74 3
-12 -1 -9 10216.4 653.198 3
-1 13 9 10180.9 642.3 6
1 12 -9 10562.4 683.017 5
13 -12 -9 8784.91 1050.63 2
13 -12 9 8424.93 961.186 2
13 -1 -9 8304.85 966.131 2
1 12 9 11202.5 662.644 6
12 -13 9 8917.65 1024.34 2
-13 1 -9 9353.87 1085.24 1
-1 13 -9 9916.65 665.743 5
13 -1 9 8344.01 1000.25 2
-13 12 -10 12999.3 1465.29 1
1 12 10 12481 694.619 6
-1 13 10 11822.3 692.386 6
-13 1 -10 11055.8 703.891 3
-12 13 -10 12299.7 1402.34 1
-13 1 -10 9151.76 1118.55 1
1 12 -10 12708.1 761.552 5
-1 13 -10 12319.9 732.561 5
-12 -1 -10 12149.3 743.928 3
-1 13 11 5953.37 522.815 6
1 12 -11 6940.65 581.324 5
-13 12 -11 6987.08 1117.85 1
-12 13 -11 4640.86 936.145 1
-13 1 -11 5858 549.248 3
-12 -1 -11 6032.33 557.893 3
1 12 11 6139.57 526.602 6
-13 1 -11 4534.26 821.667 1
-1 13 -11 6347.99 568.799 5
-1 13 12 13948 755.242 6
-12 13 -12 10240.8 659.992 3
-13 12 -12 11168.6 677.204 3
-13 1 -12 14174.6 842.473 3
-12 -1 -12 13780.5 850.374 3
1 12 12 12933.2 724.479 6
-13 12 -12 14966.6 1669.54 1
1 12 -12 14118 808.913 5
-12 13 -12 11769.8 1486.88 1
-1 13 -12 15927.4 881.853 5
-13 1 -13 4267.24 512.609 3
-1 13 13 3552.77 414.395 6
-13 12 -13 2554.66 881.507 1
-12 13 -13 2953.43 874.253 1
-13 12 -13 3361.98 415.001 3
-12 -1 -13 3730.87 492.47 3
-1 13 -13 3815.39 460.211 5
1 12 13 3132.2 391.178 6
-12 13 -13 3116.27 413.155 3
-13 1 -14 3294.74 469.16 3
-12 -1 -14 3054.58 481.497 3
1 12 14 2440.34 342.578 6
-12 13 -14 3078.75 431.631 3
-13 12 -14 2305.94 335.911 3
-1 13 -14 3197.38 449.648 5
-13 1 -15 3599.15 517.375 3
-12 -1 -15 2860.14 482.743 3
-1 13 -15 2897.22 429.649 5
1 12 15 1576.87 295.116 6
-1 13 15 2510.8 366.714 6
-13 12 -15 2493.33 390.959 3
-12 13 -15 2337.52 369.7 3
-12 13 15 2516.3 399.944 6
-13 1 -16 954.019 341.534 3
-13 12 -16 976.018 310.267 3
-12 -1 -16 1016.15 369.742 3
1 12 16 899.169 223.693 6
-1 13 16 971.697 257.05 6
-12 13 -16 1150.77 349.804 3
-12 13 16 828.14 276.875 6
-13 12 16 1184.8 331.055 6
-1 13 -16 1013.97 303.594 5
-12 -1 -17 564.319 316.147 3
-1 13 17 580.325 193.347 6
-13 12 -17 987.108 261.94 3
-12 13 -17 755.28 304.346 3
-12 13 17 315.142 228.939 6
-12 13 -18 2258.81 421.796 5
-13 1 -18 1633.6 389.259 3
-12 -1 -18 2260.05 437.793 3
-12 13 -18 2046.08 372.213 3
-13 12 -18 1636.61 382.435 3
-13 1 -19 933.431 308.673 3
-12 13 -19 754.328 309.031 5
-12 -1 -19 618.357 293.706 3
-13 12 -19 854.928 281.605 5
-13 12 -19 315.951 260.48 3
-12 13 -19 446.416 297.52 3
-12 -1 -20 943.954 285.366 3
-12 13 -20 698.751 278.079 3
-13 12 -20 439.737 276.312 3
-13 12 -20 912.617 294.942 5
-13 1 -20 1725.7 361 3
-12 13 -20 1035.6 303.574 5
-12 13 -21 103.029 198.347 5
-13 12 -21 354.152 242.852 5
-12 -1 -21 321.752 221.802 3
-12 13 -21 105.291 197.545 3
-13 12 -21 388.077 221.131 3
-13 1 -21 345.137 220.113 3
-12 13 -22 -71.0383 150.461 3
-13 1 -22 157.881 165.603 3
-13 12 -22 460.919 185.256 3
-12 -1 -22 505.973 220.536 3
-12 13 -22 254.486 160.804 5
-13 12 -22 -28.6626 163.756 5
13 0 0 12095.2 1162.16 2
13 0 -1 23859.4 1591.9 2
13 0 1 25141.4 1644.46 2
13 0 2 27151.7 1732.33 2
13 0 -2 28014.8 1776.17 2
13 0 -3 8930.71 1024.97 2
13 0 3 9073.78 1031.38 2
13 0 4 23506.8 1629.8 2
13 0 -4 23163.1 1635.74 2
13 0 -5 4429.12 743.782 2
13 0 5 5543.33 795.297 2
13 0 -6 7337.75 963.849 2
13 0 6 5954.64 856.637 2
0 13 6 7984.44 541.144 6
13 0 -7 12444.5 1226.97 2
0 13 7 13533.7 703.479 6
0 13 -7 14249.3 759.516 5
13 0 7 11811.8 1202.42 2
0 13 8 3691.13 391.591 6
13 0 -8 3166.27 678.907 2
-13 0 -8 3867.57 428.962 3
0 13 -8 4044.46 431.428 5
13 -13 -8 3269.59 662.765 2
13 -13 8 2743.18 658.731 2
0 13 9 14358.4 750.232 6
13 -13 -9 11918.9 1182.35 2
-13 0 -9 13828.4 766.834 3
0 13 -9 13703.6 780.258 5
-13 0 -10 11971.6 743.653 3
0 13 10 12059.4 705.796 6
-13 13 -10 12338 1492.9 1
0 13 -10 12070.8 746.841 5
-13 0 -11 4139.19 484.997 3
-13 13 -11 4300.3 994.554 1
0 13 11 4102.67 448.751 6
0 13 -11 4664.53 491.013 5
0 13 -12 12084.9 774.33 5
-13 0 -12 11853.2 787.122 3
0 13 12 12474.5 728.847 6
-13 13 -12 9778.55 1329.74 1
-13 13 -13 5064.21 485.355 3
-13 0 -13 5761.4 587.611 3
0 13 13 5422.72 499.027 6
0 13 -13 7102.88 606.793 5
-13 13 -14 4574.01 473.497 3
-13 0 -14 5673.52 612.407 3
0 13 14 4683.76 461.052 6
-13 13 -15 4127.2 484.596 3
-13 0 -15 5727.42 599.674 3
0 13 15 4429.1 441.037 6
-13 13 15 4822.11 546.015 6
-13 0 -16 539.504 292.179 3
-13 13 16 743.177 298.505 6
0 13 16 298.221 189.713 6
-13 13 -16 945.848 302.99 3
-13 0 -17 1723.11 402.229 3
0 13 17 838.047 224.335 6
-13 13 17 1225.55 325.97 6
-13 13 -17 1198.25 317.809 3
-13 13 -18 3325.53 458.328 5
-13 0 -18 4117.77 519.651 3
-13 0 -19 744.91 295.556 3
-13 13 -19 984.042 327.245 5
-13 13 -19 348.728 219.741 3
-13 13 -20 2279.87 358.504 5
-13 0 -20 2198.09 384.675 3
-13 13 -20 1494.97 348.443 3
-13 13 -21 93.0278 174.763 3
-13 13 -21 114.83 181.666 5
14 -7 0 113183 3373.06 2
14 -7 -1 -122.12 329.149 2
14 -7 1 185.837 325.569 2
14 -7 -2 52358.2 2328.43 2
14 -7 2 52807.5 2283.42 2
14 -7 -3 6.92938 315.897 2
14 -7 3 -294.594 326.158 2
14 -7 -4 1954.27 462.429 2
14 -7 4 1139.01 394.905 2
14 -7 -5 -200.931 293.661 2
14 -7 5 22.5496 250.342 2
14 -7 -6 50482.3 2324.07 2
14 -7 6 44669.4 2142.07 2
14 -7 7 112.493 261.468 2
14 -7 -7 602.282 307.645 2
-7 14 -8 46992.8 1313.97 5
7 7 8 44357.6 1207.27 6
14 -7 -8 47452.6 2301.34 2
14 -7 8 49462.9 2263.63 2
-7 14 8 48478.2 1308.14 6
-7 14 9 -224.341 212.684 6
-7 14 -9 37.1793 201.531 5
14 -7 -9 409.597 414.928 2
14 -7 9 660.83 375.52 2
7 7 9 85.9012 166.546 6
-7 14 -10 7564.41 557.241 3
-14 7 -10 8190.13 576.621 3
7 7 10 8070.44 543.084 6
-7 14 10 9852.74 620.059 6
-7 14 -10 9004.08 637.319 5
-7 14 -11 176.149 232.855 5
-7 -7 -11 405.803 286.217 3
-14 7 -11 -250.479 174.594 3
-14 7 -11 -56.0417 460.678 1
-7 14 -11 -69.6446 200.173 3
7 7 11 -110.576 187.598 6
-7 14 -12 184.063 251.213 5
7 7 12 90.5582 154.517 6
-14 7 -12 400.917 515.03 1
-7 14 -12 -310.921 218.701 3
-14 7 -12 -28.1083 221.353 3
-7 -7 -12 -109.51 248.27 3
-7 14 12 139.352 236.473 6
-7 14 -13 -164.296 246.544 5
-14 7 -13 -185.115 247.859 3
-7 14 -13 0.49 239.303 3
-14 7 -13 -726.963 598.029 1
7 7 13 236.899 147.754 6
-7 -7 -13 -222.058 260.069 3
-7 14 13 -475.303 253.84 6
-7 14 -14 11761.4 769.737 3
-14 7 -14 10546.5 727.94 3
-7 -7 -14 9651.44 696.499 3
-7 14 14 8901.54 634.481 6
-7 14 -14 10867.5 755.007 5
-7 -7 -15 -175.732 285.086 3
-7 14 -15 -428.11 235.814 3
-7 14 15 -544.95 261.841 6
-14 7 -15 -632.692 291.373 3
-7 14 -15 243.617 307.672 5
-7 14 -16 11480 790.42 3
-14 7 -16 12339.6 827.921 3
-7 -7 -16 10311.6 744.96 3
-7 14 -16 12175.8 823.663 5
-7 14 16 9707.93 646.656 6
-7 -7 -17 255.784 298.832 3
-7 14 -17 -8.83085 260.37 3
-7 14 17 53.5691 184.474 6
-14 7 -17 212.166 236.583 3
-7 14 -17 167.817 256.78 5
-7 -7 -18 1663.33 354.74 3
-7 14 -18 1734.84 359.4 3
-7 14 -18 1866.96 394.665 5
-14 7 -18 1741.6 380.423 3
-7 -7 -19 -144.675 224.968 3
-14 7 -19 -374.889 252.514 3
-7 14 -19 -17.1068 249.187 3
-7 14 -19 -140.395 226.56 5
-7 -7 -20 965.4 292.493 3
-14 7 -20 929.371 294.109 3
-7 14 -20 425.043 261.552 5
-14 7 -21 -186.228 222.354 3
-7 14 -21 -73.7199 209.178 5
-7 -7 -21 -198.899 179.837 3
-14 7 -22 928.078 232.256 5
-14 7 -22 1695.63 287.323 3
-7 -7 -22 1011.34 256.125 3
14 -6 0 18577.4 1369.17 2
14 -8 0 18402.8 1381.96 2
14 -8 -1 54294.5 2346.34 2
14 -8 1 58220.8 2447.79 2
14 -6 1 53732.1 2312.66 2
14 -6 -1 56574.7 2398.21 2
14 -8 2 11027.1 1112.07 2
14 -8 -2 10774 1060.19 2
14 -6 -2 10940.2 1070.61 2
14 -6 2 10669.1 1066.79 2
14 -6 3 7687.26 914.16 2
14 -8 -3 7385.93 904.53 2
14 -8 3 9105.13 1006.77 2
14 -6 -3 8975.17 981.985 2
14 -8 -4 522.046 330.203 2
14 -8 4 128.921 362.483 2
14 -6 -4 394.919 284.342 2
14 -6 4 1051.42 407.387 2
14 -6 -5 9931.45 1050.6 2
14 -8 5 11417.1 1123.66 2
14 -8 -5 10857 1100.26 2
14 -6 5 10114 1042.99 2
14 -8 6 13620.9 1233.39 2
14 -8 -6 13807.4 1253.35 2
14 -6 -6 13835.9 1248.67 2
14 -6 6 12446.2 1126.3 2
-8 14 -6 13140.2 1117.92 1
14 -6 -7 34005.3 1902.36 2
14 -8 7 35144 1928.7 2
14 -8 -7 34977.3 1984.27 2
14 -6 7 33356.7 1853.81 2
-8 14 -7 34223.9 1871.2 1
14 -8 8 14763.9 1259.98 2
-8 14 -8 12329 686.885 5
8 6 8 13228.3 664.871 6
14 -8 -8 13590.6 1251.52 2
6 8 8 13628.3 682.793 6
-6 14 -8 13854.1 733.661 5
14 -6 -8 14579.6 1252.08 2
-6 14 8 15477.5 764.794 6
14 -6 8 13898.8 1244.74 2
-8 14 -8 14599.9 1274.56 1
8 6 9 17825.8 777.335 6
14 -8 9 18510.9 1415.12 2
14 -6 -9 17590.2 1412.11 2
-6 14 -9 17723.6 829.113 3
14 -8 -9 17776.3 1390.5 2
-6 14 9 20078 858.376 6
14 -6 9 17975.1 1402.11 2
-8 14 9 18114.3 827.758 6
-6 14 -9 17723.1 861.939 5
-8 14 -9 19095 881.013 5
-8 14 -9 18477.8 1519.39 1
6 8 9 18976.2 818.697 6
-6 14 -10 2601.98 379.777 5
8 6 10 2116.51 292.869 6
-8 14 -10 2204.91 340.504 5
-14 6 -10 2202.37 327.82 3
-6 14 -10 2794.5 367.027 3
6 8 10 2377.74 337.251 6
-8 14 -10 2478.71 343.164 3
-6 14 10 2506.73 368.423 6
-8 14 10 2760.55 383.211 6
-8 14 -10 2204.42 617.731 1
-8 14 -11 905.407 295.699 5
-14 8 -11 522.569 226.791 3
-14 6 -11 305.362 228.602 3
-8 14 -11 -37.1849 379.165 1
-8 14 -11 486.61 225.795 3
-14 8 -11 197.026 450.72 1
-14 6 -11 607.159 473.637 1
6 8 11 410.884 206.694 6
-6 -8 -11 450.02 231.588 3
-8 -6 -11 475.291 265.106 3
8 6 11 585.206 199.341 6
-6 14 -11 415.065 227.233 3
-8 14 11 1427.07 483.76 6
-6 14 -11 550.41 277.432 5
-14 8 -12 186.01 185.692 3
-8 14 -12 565.905 278.586 5
-8 14 -12 454.529 330.892 1
-14 6 -12 608.886 254.859 3
-14 8 -12 494.664 562.051 1
-8 -6 -12 103.24 239.795 3
-6 -8 -12 419.079 278.742 3
-14 6 -12 623.13 590.861 1
-6 14 -12 363.962 285.054 3
8 6 12 391.136 188.331 6
-8 14 -12 650.148 260.046 3
-6 14 12 348.262 227.983 6
-8 14 12 162.18 235.848 6
6 8 12 18.712 156.085 6
-6 14 -12 -58.8243 218.749 5
-14 8 -13 3607.31 448.933 3
-8 14 -13 3357.34 462.119 5
8 6 13 2329.16 305.003 6
-14 6 -13 3843.97 443.651 3
-6 14 13 3796.91 427.432 6
-8 -6 -13 4123.06 500.55 3
-6 14 -13 3842.79 467.329 3
-6 -8 -13 3213.57 456.965 3
-14 8 -13 3146.59 856.924 1
-8 14 13 3026.97 391.018 6
6 8 13 2920.89 324.272 6
-14 6 -13 2303.51 683.24 1
-8 14 -13 3738.24 458.278 3
-6 14 -13 4078.85 492.714 5
-8 14 -14 1307.61 348.565 5
-14 6 -14 1717.94 365.454 3
-8 14 -14 987.746 292.409 3
-8 -6 -14 1175.39 310.477 3
-6 14 -14 1561.01 339.151 3
-8 14 14 1383.69 305.769 6
-14 8 -14 1168.63 309.417 3
6 8 14 976.934 233.994 6
-6 14 14 1366.85 306.218 6
-6 14 -14 2100.25 420.97 5
-6 14 -15 7996.78 677.682 5
-6 14 -15 7009.66 625.432 3
-8 14 15 6858.28 558.331 6
-8 14 -15 7948.15 645.809 3
-14 8 -15 7400.02 625.505 3
-14 6 -15 8244.5 658.248 3
-8 -6 -15 6834.97 622.05 3
-6 -8 -15 7322 625.207 3
-6 14 15 6835.88 558.62 6
-8 14 -15 8008.29 671.468 5
-8 -6 -16 1136.4 343.575 3
-6 -8 -16 1179.8 337.362 3
-8 14 -16 1043.1 316.547 3
-6 14 -16 1354.69 326.819 3
-14 6 -16 1492.17 352.967 3
-6 14 16 1297.74 297.174 6
-8 14 16 1173.36 302.667 6
-14 8 -16 1127.07 316.823 3
-6 14 -16 1290.72 366.984 5
-8 14 -16 1548.85 378.126 5
-6 -8 -17 2715.51 420.642 3
-8 -6 -17 3103.01 462.68 3
-8 14 -17 3987.35 496.273 3
-6 14 17 2880.3 363.761 6
-8 14 17 2685.63 348.202 6
-14 8 -17 3101.1 457.773 3
-6 14 -17 3160.38 458.765 3
-6 14 -17 3491.84 472.085 5
-14 6 -17 3660.73 495.42 3
-8 14 -17 3515.83 491.838 5
-6 -8 -18 234.418 213.815 3
-8 -6 -18 145.305 256.689 3
-8 14 -18 -110.188 279.369 5
-6 14 -18 631.244 306.72 3
-8 14 -18 176.052 245.51 3
-14 8 -18 415.086 278.089 3
-14 6 -18 377.534 254.67 3
-6 14 -18 400.992 268.087 5
-6 -8 -19 -234.427 201.389 3
-8 14 -19 -519.026 273.79 3
-14 6 -19 -51.3687 234.012 3
-8 -6 -19 211.606 262.894 3
-14 8 -19 -4.51377 219.697 3
-6 14 -19 106.837 231.839 5
-8 14 -19 435.694 265.52 5
-6 -8 -20 38.6523 192.601 3
-8 -6 -20 270.311 207.045 3
-8 14 -20 151.199 240.551 3
-14 8 -20 -35.8065 220.537 3
-14 6 -20 183.469 242.228 3
-6 14 -20 -36.471 204.891 5
-8 14 -20 -34.5487 228.447 5
-14 8 -21 918.222 293.673 3
-14 6 -21 623.893 265.841 3
-6 14 -21 456.489 253.617 5
-8 14 -21 579.132 241.462 5
-8 -6 -21 1193.6 259.573 3
-6 -8 -21 850.846 237.606 3
-14 8 -22 165.32 166.673 5
-14 6 -22 88.5786 133.396 5
-6 -8 -22 -13.2982 126.445 3
-14 8 -22 566.204 205.033 3
-14 6 -22 455.419 206.92 3
-8 14 -22 151.263 179.982 5
-8 -6 -22 680.484 206.37 3
14 -5 0 5271.66 754.258 2
14 -9 0 5297.08 804.789 2
14 -5 -1 30323.1 1738.85 2
14 -9 -1 31618.4 1837.97 2
14 -9 1 31677.3 1812.71 2
14 -5 1 30541.8 1747.56 2
14 -5 -2 5801.98 787.513 2
14 -9 -2 6040.85 818.564 2
14 -9 2 5411.12 804.139 2
14 -5 2 5870.08 793.992 2
14 -9 -3 5494.24 751.896 2
14 -9 3 5852.53 784.119 2
14 -5 -3 4858.29 801.067 2
14 -5 3 5411.64 769.641 2
14 -9 -4 35.7793 270.475 2
14 -9 4 239.423 316.397 2
14 -5 -4 9.17278 371.596 2
14 -5 4 621.865 346.981 2
14 -9 -5 7134.23 911.238 2
14 -5 -5 6037.35 832.946 2
14 -9 5 7397.68 913.335 2
14 -5 5 6351.33 832.105 2
14 -9 -6 3804.47 711.496 2
14 -9 6 3767.4 616.878 2
14 -5 -6 3563.37 638.262 2
14 -5 6 3134.65 649.261 2
14 -9 7 20045 1508.72 2
14 -9 -7 19932.9 1513.76 2
14 -5 -7 18113.6 1408.69 2
14 -5 7 15844 1390.5 2
-9 14 -7 21819.2 1534.63 1
5 9 8 3628.39 375.905 6
9 5 8 3179.48 345.524 6
14 -9 -8 3653.25 664.331 2
14 -9 8 3617.75 627.207 2
-5 14 -8 3455.27 393.311 5
14 -5 -8 3915.35 663.293 2
14 -5 8 3631.33 642.228 2
-9 14 -8 4216.74 727.657 1
-5 14 8 4360.03 418.433 6
-5 14 -9 6089 495.529 3
5 9 9 5991.6 484.147 6
14 -9 9 6330.3 844.97 2
9 5 9 5168.44 424.889 6
14 -9 -9 6401.48 889.427 2
14 -5 9 5026.03 737.32 2
-14 5 -9 6214.45 488.412 3
-5 14 -9 6019.12 524.129 5
-5 14 9 6761.04 519.046 6
14 -5 -9 6062.91 876.109 2
-9 14 -9 7764 1035.74 1
-5 14 -10 1270.39 298.406 5
-14 5 -10 1297.78 288.625 3
9 5 10 1271.65 256.896 6
-5 14 -10 1224.85 271.011 3
5 9 10 1792.79 305.27 6
-5 14 10 1298.25 301.421 6
-9 14 -10 1260.76 262.735 3
-9 14 -10 1227.16 545.012 1
-5 -9 -11 583.676 237.364 3
-14 5 -11 314.98 208.728 3
-14 9 -11 -324.314 509.801 1
-5 14 -11 446.878 252.057 3
-14 5 -11 218.597 414.84 1
-5 14 -11 452.793 247.325 5
5 9 11 275.976 171.423 6
-9 -5 -11 922.787 303.187 3
9 5 11 326.194 157.582 6
-9 14 -11 835.93 266.168 3
-9 14 -11 1179.01 526.62 1
-9 14 11 1545.83 542.246 6
-14 9 -11 107.989 190.001 3
-9 14 -12 198.693 510.436 1
-14 5 -12 417.545 253.192 3
-14 5 -12 66.9008 510.751 1
-9 14 -12 142.955 222.72 3
-5 14 -12 256.157 241.546 3
-14 9 -12 567.208 473.948 1
-9 -5 -12 292.887 255.683 3
-5 -9 -12 -45.1797 247.659 3
-9 14 -12 641.81 279.897 5
9 5 12 175.299 154.674 6
5 9 12 522.919 235.809 6
-5 14 12 152.315 212.597 6
-9 14 12 0.45214 283.43 6
-14 9 -12 211.972 187.151 3
-5 14 -12 336.417 272.891 5
-9 14 -13 86.6525 270.003 5
-14 5 -13 478.208 259.413 3
-5 14 -13 695.703 252.694 3
-14 9 -13 1139.77 630.715 1
-9 14 -13 229.705 415.378 1
-9 -5 -13 174.952 258.974 3
-5 -9 -13 -114.387 228.363 3
5 9 13 -167.686 209.468 6
-14 5 -13 -37.8131 467.628 1
-9 14 13 469.753 252.813 6
-9 14 -13 820.769 288.738 3
-5 14 13 344.735 203.69 6
-14 9 -13 168.523 212.429 3
-5 14 -13 564.879 306.116 5
5 9 14 961.142 281.703 6
-9 -5 -14 894.851 343.88 3
-9 14 -14 1019.83 323.523 3
-5 -9 -14 1034.31 316.498 3
-5 14 -14 979.152 327.922 3
-9 14 -14 1260.98 363.433 5
-5 14 14 517.28 246.89 6
-9 14 14 391.54 242.263 6
-14 9 -14 1155.87 308.569 3
-5 14 -14 1366.29 364.329 5
-9 14 -15 3767.27 508.586 5
5 9 15 3060.59 354.245 6
-14 5 -15 3818.08 489.814 3
-9 14 -15 3515.69 460.239 3
-9 -5 -15 3339.86 467.919 3
-5 -9 -15 3258.32 443.602 3
-14 9 -15 4110.89 514.795 3
-5 14 -15 3348.37 476.244 3
-5 14 15 3012.75 385.159 6
-9 14 15 3583.65 456.464 6
-5 14 -15 4322.58 525.552 5
-9 14 -16 891.6 329.117 5
-9 -5 -16 1731.6 398.898 3
-9 14 -16 1388.15 361.994 3
-5 -9 -16 804.525 267.676 3
-14 5 -16 1162 323.966 3
-14 9 -16 1388.86 318.124 3
-5 14 16 1031.14 293.079 6
-9 14 16 687.171 244.02 6
-5 14 -16 686.003 316.879 3
-5 14 -16 1511.8 348.503 5
-5 14 -17 1178.48 337.068 3
-9 -5 -17 2527.95 450.261 3
-9 14 -17 2271.55 408.228 5
-9 14 -17 2016.19 390.884 3
-5 14 -17 2441.16 443.648 5
-5 14 17 1235.17 279.219 6
-5 -9 -17 1627.29 327.161 3
-9 14 17 1692.22 298.902 6
-14 9 -17 1951.14 394.784 3
-14 5 -17 2281.71 415.836 3
-9 -5 -18 258.767 270.531 3
-9 14 -18 -61.4652 223.202 3
-14 9 -18 430.212 273.856 3
-5 -9 -18 318.122 232.79 3
-5 14 -18 45.6671 244.333 5
-14 5 -18 -107.475 267.518 3
-9 14 -18 56.0594 280.158 5
-9 -5 -19 80.6254 229.912 3
-9 14 -19 90.4174 239.936 3
-14 9 -19 118.299 234.929 3
-5 -9 -19 150.936 175.482 3
-14 5 -19 -47.6447 227.607 3
-5 14 -19 71.3061 224.132 5
-9 14 -19 -61.9189 231.017 5
-5 -9 -20 -216.197 210.292 3
-9 -5 -20 -182.485 216.958 3
-9 14 -20 215.205 293.862 3
-14 5 -20 117.296 238.035 3
-14 9 -20 109.15 208.83 3
-5 14 -20 282.031 228.244 5
-9 14 -20 86.9574 243.345 5
-14 9 -21 235.762 240.48 5
-9 14 -21 553.694 249.828 3
-14 5 -21 660.597 244.383 3
-14 9 -21 322.195 204.731 3
-9 14 -21 339.12 256.161 5
-5 -9 -21 257.099 193.984 3
-9 -5 -21 874.016 236.303 3
-14 9 -22 242.536 182.33 5
-14 5 -22 0.43116 90.2608 5
-9 -5 -22 311.732 176.973 3
-14 9 -22 257.493 184.177 3
-14 5 -22 666.82 217.762 3
-9 14 -22 166.409 172.755 5
14 -4 0 6939.31 871.227 2
14 -10 0 7944.18 1030.77 2
14 -4 -1 1272.29 515.896 2
14 -4 1 723.576 416.356 2
14 -10 -1 658.908 549.281 2
14 -10 1 1249.97 531.878 2
14 -10 -2 7712.35 960.03 2
14 -10 2 7352.38 919.088 2
14 -4 -2 8147.5 935.723 2
14 -4 2 7290.98 870.356 2
14 -4 -3 1467.46 453.363 2
14 -4 3 1772.65 447.524 2
14 -10 -3 1788.87 542.914 2
14 -10 3 1917.43 501.844 2
14 -10 4 119.137 312.352 2
14 -4 -4 541.51 297.874 2
14 -4 4 199.928 366.998 2
14 -10 -4 270.41 305.875 2
14 -10 -5 4132.19 735.425 2
14 -10 5 4782.62 756.709 2
14 -4 -5 4440.56 701.172 2
14 -4 5 3637.22 656.24 2
14 -4 -6 5596.53 804.857 2
14 -10 -6 7428.45 936.423 2
14 -10 6 6685.89 881.529 2
14 -4 6 5575.08 831.012 2
14 -10 -7 711.538 293.636 2
14 -4 -7 1699.12 570.683 2
14 -4 7 95.8881 291.85 2
14 -10 7 1244.69 465.979 2
4 10 7 720.775 198.819 6
-4 14 7 759.31 222.521 6
14 -10 -8 4796.27 782.902 2
14 -10 8 5213.86 779.662 2
10 4 8 4481.08 398.566 6
-10 14 -8 6379.43 931.391 1
14 -4 -8 4404.05 748.402 2
14 -4 8 4600.55 780.958 2
-4 14 8 4933.44 440.3 6
4 10 8 4917.25 441.118 6
-4 14 -8 5081.76 471.723 5
14 -4 -9 978.89 457.152 2
14 -10 -9 1540.03 383.73 2
14 -10 9 1573.57 465.445 2
-14 4 -9 1107.42 254.165 3
-10 14 -9 1600.94 469.295 1
14 -4 9 1679 518.501 2
10 4 9 1078.18 215.745 6
4 10 9 1535.26 287.996 6
-4 14 9 1757.42 306.636 6
-4 14 -9 1457.62 307.361 5
-10 14 -10 1270.23 577.652 1
-14 4 -10 901.049 273.245 3
-14 4 -10 808.317 530.718 1
10 4 10 676.069 234.638 6
-10 -4 -10 1124.07 285.976 3
4 10 10 754.368 247.64 6
-4 14 10 953.286 260.972 6
-4 14 -10 822.852 280.312 5
-10 -4 -11 3414.15 440.567 3
-14 10 -11 4661.05 947.969 1
-10 14 -11 2202.72 320.318 3
-14 4 -11 2559.77 744.509 1
10 4 11 1908.91 268.595 6
-4 -10 -11 2938.71 384.157 3
-14 4 -11 3333.38 431.346 3
4 10 11 2348.21 333.267 6
-4 14 11 2877.36 391.353 6
-10 14 -11 1656.08 606.402 1
-4 14 -11 3642.94 462.682 5
-10 14 -12 191.908 481.909 1
-14 4 -12 -50.1281 232.143 3
-4 14 -12 565.069 258.755 3
-10 -4 -12 268.75 240.666 3
-14 10 -12 82.7799 607.281 1
-4 -10 -12 8.87197 222.115 3
10 4 12 -94.6975 139.256 6
-4 14 12 545.733 260.144 6
4 10 12 72.8298 176.925 6
-10 14 -12 231.148 236.621 3
-14 4 -12 -157.743 493.07 1
-10 14 12 139.123 262.829 6
-14 10 -12 170.394 203.524 3
-4 14 -12 -287.164 245.521 5
-10 14 -13 364.787 445.388 1
-14 4 -13 -154.311 275.646 3
-10 -4 -13 22.0395 268.005 3
-4 -10 -13 -351.025 257.04 3
-10 14 -13 74.5697 199.083 3
4 10 13 -0.41768 163.774 6
-14 10 -13 -487.56 532.504 1
-4 14 -13 -27.0969 259.352 3
-14 4 -13 506.69 602.869 1
-4 14 13 -117.797 207.001 6
-10 14 13 29.5863 269.782 6
-14 10 -13 524.605 234.527 3
-4 14 -13 318.963 235.027 5
-14 4 -14 564.169 263.986 3
-10 -4 -14 479.829 304.753 3
-4 -10 -14 382.748 251.17 3
4 10 14 137.899 179.02 6
-4 14 -14 388.667 292.468 5
-14 10 -14 874.796 272.489 3
-4 14 -14 573.359 297.574 3
-4 14 14 278.188 211.853 6
-10 14 -14 333.604 224.978 3
-10 14 14 291.152 259.297 6
-10 14 -14 47.8069 254.613 5
-10 14 -15 -194.576 292.266 5
-14 4 -15 -96.0177 280.674 3
4 10 15 -9.72243 157.237 6
-10 -4 -15 -247.297 312.588 3
-4 -10 -15 213.495 235.05 3
-14 10 -15 -19.4757 226.687 3
-10 14 -15 327.626 236.705 3
-4 14 15 116.144 220.084 6
-10 14 15 -134.962 256.111 6
-4 14 -15 -304.648 262.577 5
-10 14 -16 603.954 325.537 5
-14 4 -16 1373.54 364.957 3
-14 10 -16 549.131 269.053 3
-10 -4 -16 1315.48 348.965 3
-4 -10 -16 938.154 269.178 3
-10 14 -16 581.757 291.39 3
-4 14 16 662.93 255.27 6
-10 14 16 1137.83 317.671 6
-4 14 -16 968.573 307.48 5
-10 14 -17 84.5921 265.999 5
-4 -10 -17 535.823 220.356 3
-10 -4 -17 43.7384 282.811 3
-14 4 -17 707.864 336.368 3
-4 14 17 484.999 212.589 6
-10 14 -17 809.146 297.163 3
-10 14 17 366.204 230.264 6
-14 10 -17 560.01 261.084 3
-4 14 -17 328.233 260.007 5
-4 -10 -18 102.421 190.932 3
-10 -4 -18 239.255 259.143 3
-10 14 -18 297.836 249.115 5
-10 14 -18 142.494 225.072 3
-4 14 -18 615.02 267.367 5
-14 10 -18 632.544 299.193 3
-14 4 -18 34.0973 243.669 3
-4 -10 -19 -84.4344 196.767 3
-10 -4 -19 393.103 269.995 3
-10 14 -19 344.75 289.961 3
-14 10 -19 325.757 258.262 3
-4 14 -19 517.965 258.691 5
-14 4 -19 191.71 249.945 3
-10 14 -19 292.474 263.771 5
-10 -4 -20 -458.6 269.361 3
-14 10 -20 -135.063 210.855 3
-10 14 -20 69.0385 195.95 3
-14 4 -20 -337.59 255.171 3
-10 14 -20 202.321 241.12 5
-4 -10 -20 99.283 178.049 3
-14 10 -21 11.8849 178.638 5
-14 10 -21 85.3684 179.589 3
-10 14 -21 -79.9101 197.023 3
-14 4 -21 296.549 225.042 3
-10 14 -21 -74.5785 197.041 5
-10 -4 -21 155.372 195.297 3
-14 10 -22 22.0828 152.172 5
-14 10 -22 261.785 183.785 3
-14 4 -22 -13.683 163.25 3
-10 -4 -22 187.506 167.981 3
-10 14 -22 8.78318 153.473 5
11 3 0 257.528 419.746 2
14 -3 0 200.447 345.607 2
14 -11 0 362.125 395.27 2
14 -3 -1 316.011 337.363 2
14 -3 1 561.058 372.794 2
14 -11 1 429.12 349.319 2
11 3 -1 319.93 267.894 2
14 -11 -1 993.934 409.589 2
14 -11 2 6023.69 946.161 2
14 -11 -2 7684.45 972.414 2
14 -3 -2 6850.38 878.899 2
14 -3 2 6999.64 904.278 2
14 -3 -3 1760.73 499.665 2
14 -3 3 1909.98 434.501 2
14 -11 -3 2294.19 565.566 2
14 -11 3 2581.62 571.326 2
14 -11 -4 21616.3 1597.99 2
14 -11 4 18326.9 1595.98 2
14 -3 -4 21638.9 1544.45 2
14 -3 4 20404.1 1488.4 2
14 -3 -5 838.217 418.137 2
14 -3 5 883.358 420.828 2
14 -11 -5 817.738 402.342 2
14 -11 5 914.024 380.096 2
14 -11 6 8669.58 1020.41 2
14 -3 6 7647.03 928.128 2
14 -11 -6 8586.53 1026.7 2
14 -3 -6 8392.87 989.842 2
14 -11 -7 -45.3384 269.592 2
14 -11 7 147.483 272.904 2
14 -3 7 205.002 280.114 2
3 11 7 90.0928 167.335 6
11 3 7 431.071 166.963 6
-3 14 7 537.586 230.634 6
-3 14 -7 -128.943 196.221 5
14 -11 -8 -106.784 297.3 2
14 -11 8 -112.148 277.265 2
14 -3 8 258.368 277.727 2
-11 14 -8 283.683 400.23 1
14 -3 -8 -504.91 415.59 2
-3 14 -8 736.464 245.046 5
-14 3 -8 211.441 180.312 3
11 3 8 322.806 170.164 6
3 11 8 167.92 198.672 6
-3 14 8 384.421 209.197 6
14 -11 -9 820.893 391.832 2
3 11 9 531.861 220.098 6
14 -3 9 706.495 432.421 2
11 3 9 839.989 207.095 6
-14 3 -9 347.413 186.422 3
-11 14 -9 -318.63 531.459 1
14 -3 -9 506.522 358.054 2
-3 14 9 470.066 211.595 6
-3 14 -9 314.143 195.855 5
-11 -3 -10 4640.88 472.169 3
-14 3 -10 4159.48 447.768 3
-14 3 -10 3557.07 795.18 1
-11 14 -10 4780.32 896.676 1
3 11 10 4264.22 418.659 6
-3 14 10 4197.22 434.333 6
-3 14 -10 4479.69 469.763 5
-14 3 -11 1095.97 313.326 3
-14 11 -11 632.652 479.639 1
-11 -3 -11 567.238 268.36 3
-14 3 -11 835.696 438.716 1
-11 14 -11 1186.87 604.238 1
3 11 11 649.966 246.709 6
-3 14 11 187.002 215.913 6
-3 -11 -11 652.414 232.775 3
-3 14 -11 1122.71 312.004 5
-3 -11 -12 5031.27 476.727 3
-11 -3 -12 5049.54 535.924 3
-14 11 -12 6023.51 1144.19 1
3 11 12 4642.14 451.603 6
-11 14 -12 4357.17 456.5 3
-14 11 -12 4499.42 446.627 3
-14 3 -12 5202.94 542.396 3
-14 3 -12 4093.35 911.229 1
-3 14 12 5158.92 494.866 6
-11 14 -12 3235.16 688.072 1
-3 14 -12 5091.56 520.83 5
-14 3 -13 1706.91 352.048 3
-11 -3 -13 1819.38 391.906 3
-3 -11 -13 1272.05 286.189 3
-11 14 13 2419.89 441.079 6
-11 14 -13 1457.68 287.931 3
3 11 13 1405.23 274.385 6
-14 11 -13 1617.33 684.367 1
-3 14 13 1661.48 319.016 6
-14 11 -13 963.872 270.728 3
-3 14 -13 1839.56 357.448 5
-11 14 -13 1970.92 696.956 1
-14 3 -14 1401.56 348.658 3
-11 -3 -14 1063.1 342.596 3
-3 -11 -14 647.636 251.067 3
-11 14 -14 918.619 299.755 3
3 11 14 1343.26 290.396 6
-3 14 14 894.643 260.063 6
-14 11 -14 1542.76 348.013 3
-11 14 14 680.117 291.513 6
-3 14 -14 585.169 249.255 5
-11 -3 -15 486.484 303.125 3
-3 -11 -15 809.038 335.542 3
-14 11 -15 556.104 273.494 3
-11 14 -15 199.246 232.952 3
-3 14 -15 682.582 316.318 5
3 11 15 242.509 205.556 6
-11 14 -15 440.06 284.559 5
-3 14 15 81.9081 208.347 6
-11 14 15 600.996 281.63 6
-14 3 -15 509.719 269.224 3
-11 14 -16 -493.798 336.636 5
-14 3 -16 375.908 308.312 3
-3 -11 -16 -193.505 186.736 3
-11 -3 -16 285.815 324.253 3
-11 14 -16 174.365 254.161 3
-3 14 16 -176.473 212.085 6
3 11 16 240.378 186.141 6
-14 11 -16 -153.15 223.86 3
-11 14 16 177.309 219.242 6
-3 14 -16 554.089 288.66 5
-11 14 -17 682.334 334.142 5
-14 3 -17 -530.883 323.313 3
-3 -11 -17 42.1879 183.244 3
-11 -3 -17 101.608 321.602 3
-11 14 -17 580.33 279.885 3
-3 14 17 -62.8876 180.936 6
-14 11 -17 427.94 257.392 3
-11 14 17 320.656 223.058 6
-3 14 -17 -65.3934 281.89 5
-14 3 -18 859.555 320.89 3
-11 14 -18 1248.87 355.689 5
-3 -11 -18 326.267 166.87 3
-11 -3 -18 973.184 343.79 3
-11 14 -18 177.441 239.814 3
-14 11 -18 307.889 206.013 3
-3 14 -18 280.696 233.001 5
-11 -3 -19 500.591 287.591 3
-11 14 -19 -27.5528 200.898 3
-14 11 -19 -62.6702 201.738 3
-14 3 -19 336.462 257.298 3
-11 14 -19 315.298 275.126 5
-11 -3 -20 316.796 250.921 3
-14 11 -20 205.681 357.925 5
-14 11 -20 483.033 239.715 3
-11 14 -20 90.3828 223.718 3
-14 3 -20 450.661 231.252 3
-11 14 -20 290.94 235.379 5
-14 11 -21 33.7912 172.514 5
-14 11 -21 -143.706 196.24 3
-11 14 -21 -0.67107 174.076 3
-14 3 -21 111.609 187.053 3
-11 14 -21 109.794 221.123 5
-11 -3 -21 37.774 177.623 3
-14 3 -22 5.4203 159.436 3
-14 11 -22 119.25 161.948 3
-11 -3 -22 45.2348 147.2 3
-11 14 -22 -16.7969 138.578 5
-14 11 -22 -48.3578 161.163 5
14 -2 0 4011.95 702.637 2
12 2 0 4078.62 749.649 2
14 -2 -1 15562.9 1313.51 2
14 -2 1 17077.9 1394.71 2
12 2 -1 16239.1 1385.03 2
12 2 1 17647.5 1415.69 2
14 -2 -2 18504.5 1470.83 2
12 2 2 17112.7 1388.09 2
14 -2 2 17039.4 1365.68 2
12 2 -2 17101.3 1418.15 2
14 -2 -3 10392.6 1115.99 2
12 2 -3 10535.7 1128.84 2
12 2 3 10579 1119.19 2
14 -2 3 10605.1 1105.82 2
14 -2 4 30649.4 1828.44 2
14 -12 4 31560.2 1941.78 2
14 -12 -4 33176.1 1977.05 2
14 -2 -4 30635.1 1865.21 2
12 2 -4 29878.3 1870.65 2
12 2 4 30805 1858.15 2
14 -12 5 8104.55 997.966 2
14 -2 -5 7495.29 963.045 2
14 -2 5 7933.38 984.219 2
14 -12 -5 5745.99 934.216 2
2 12 6 10200.2 605.333 6
-2 14 6 11038.5 636.68 6
14 -12 6 11544.3 1201.32 2
14 -12 -6 10174.9 1161.85 2
14 -2 -6 11484.1 1199.2 2
14 -2 6 11046 1135.81 2
-2 14 -6 11500.9 668.332 5
-14 2 -7 797.01 247.609 3
14 -2 -7 716.515 473.901 2
14 -2 7 548.874 393.275 2
2 12 7 773.478 257.43 6
-2 14 7 826.504 230.41 6
-2 14 -7 1121.27 284.045 5
14 -12 -7 786.998 459.074 2
14 -12 7 1102.77 504.282 2
14 -12 -8 186.037 467.436 2
14 -12 8 1122.53 480.467 2
2 12 8 1055.94 234.52 6
-14 2 -8 713.701 251.164 3
14 -2 8 895.542 381.436 2
14 -2 -8 1040.07 473.837 2
-2 14 8 592.954 204.461 6
-2 14 -8 933.31 248.069 5
14 -12 -9 3750.41 761.489 2
-12 -2 -9 4493.02 478.966 3
-14 2 -9 3446.63 704.852 1
-12 14 -9 4527.87 895.585 1
-14 2 -9 4478.07 463.415 3
-2 14 9 3929.48 415.023 6
14 -2 -9 3968.75 737.573 2
2 12 9 4117.98 428.675 6
-2 14 -9 3897.71 464.609 5
-12 -2 -10 7253.65 597.94 3
-2 14 10 6546.95 532.741 6
-14 2 -10 4520.6 813.32 1
-12 14 -10 7148.45 1131.65 1
-14 2 -10 6759.57 583.488 3
2 12 10 6837.6 538.893 6
-2 14 -10 6628.08 581.931 5
2 12 11 3756.27 421.059 6
-14 2 -11 3616.92 761.278 1
-14 2 -11 4411.18 469.607 3
-14 12 -11 4460.88 1007.47 1
-12 -2 -11 4832.19 504.18 3
-2 -12 -11 3898.56 415.539 3
-12 14 -11 4122.79 903.271 1
-2 14 11 4303.18 447.923 6
-2 14 -11 4378 503.081 5
-14 2 -12 8337.04 662.475 3
-14 12 -12 8457.47 1358.53 1
-12 -2 -12 9317.92 692.981 3
2 12 12 7688.75 578.813 6
-2 14 12 8359.55 608.342 6
-2 -12 -12 7181.23 549.962 3
-12 14 -12 5924.15 1056.13 1
-2 14 -12 8677.22 671.941 5
2 12 13 1611.63 310.281 6
-12 -2 -13 2470.99 420.62 3
-2 -12 -13 1981.68 347.069 3
-14 2 -13 2737.07 435.302 3
-14 12 -13 1650.57 327.198 3
-12 14 -13 1678.66 321.007 3
-2 14 13 1892.01 342.77 6
-2 14 -13 1999.07 368.114 5
-14 2 -14 2546.64 449.598 3
-12 -2 -14 2569.4 459.623 3
2 12 14 1705.49 315.384 6
-2 -12 -14 1623.24 314.701 3
-2 14 -14 2489.64 402.436 5
-12 14 -14 2780.3 415.289 3
-2 14 14 2433.15 356.476 6
-14 12 -14 1667.12 341.389 3
-12 14 14 1843.98 402.326 6
-12 -2 -15 1252.66 353.972 3
-2 -12 -15 765.483 244.397 3
-14 2 -15 1549.86 384.147 3
-12 14 -15 1456.49 341.07 3
2 12 15 1097.5 276.041 6
-12 14 15 1462.53 350.267 6
-2 14 15 1087.55 255.695 6
-14 12 -15 1304.91 321.012 3
-2 14 -15 1581.96 367.069 5
-14 2 -16 1143.72 319.782 3
-12 -2 -16 1232.85 368.029 3
-12 14 -16 653.421 276.162 3
-2 14 16 585.515 207.646 6
-14 12 -16 490.985 228.293 3
-12 14 16 698.715 268.344 6
2 12 16 844.14 256.451 6
-14 12 16 1223.89 321.288 6
-2 14 -16 1352.86 349.111 5
-12 14 -17 648.273 322.657 5
-14 2 -17 551.389 311.153 3
-12 -2 -17 793.84 329.294 3
-2 14 17 934.044 259.389 6
-12 14 -17 781.825 301.716 3
-14 12 -17 1160.51 281.234 3
-12 14 17 671.658 259.901 6
-12 14 -18 2096.97 405.582 5
-14 2 -18 2122.45 397.083 3
-12 -2 -18 2630.68 437.343 3
-14 12 -18 1723.83 349.608 3
-12 14 -18 1155.56 342.107 3
-12 14 -19 566.354 289.533 5
-12 -2 -19 117.332 237.113 3
-14 2 -19 437.315 248.478 3
-14 12 -19 25.2778 198.773 3
-14 12 -20 1661.65 332.347 5
-12 14 -20 580.257 247.417 3
-12 -2 -20 796.595 269.337 3
-14 12 -20 507.635 235.819 3
-14 2 -20 1039.92 302.486 3
-12 14 -20 1033.78 298.076 5
-14 12 -21 -133.439 172.59 5
-14 12 -21 403.85 203.179 3
-12 14 -21 -73.6889 166.78 3
-14 2 -21 571.716 235.524 3
-12 -2 -21 233.187 205.616 3
-12 14 -21 11.8206 171.76 5
14 -1 0 31199.8 1891.81 2
13 1 0 30749.5 1911.1 2
13 1 1 5801.93 886.199 2
14 -1 -1 6159.05 915.065 2
13 1 -1 6352.15 925.033 2
14 -1 1 7249.88 960.618 2
14 -1 -2 15913.9 1360.33 2
14 -1 2 15240.2 1345.21 2
13 1 -2 15788.4 1352.1 2
13 1 2 16778.2 1398.82 2
14 -1 -3 34828.8 2055.67 2
14 -1 3 37463.7 2066.58 2
13 1 -3 34980.2 2048.32 2
13 1 3 35382.8 2028.56 2
14 -1 4 132.683 292.114 2
14 -1 -4 -60.9294 408.851 2
13 1 -4 628.412 348.063 2
13 1 4 496.95 412.925 2
-1 14 5 22285.4 896.06 6
14 -1 -5 20482.6 1605.02 2
1 13 5 21681.4 873.186 6
14 -1 5 21904.1 1635.73 2
13 1 5 20591 1582.26 2
13 1 -5 22842.1 1701.2 2
-1 14 -6 2451.97 310.236 4
-1 14 6 2238.71 310.542 4
14 -13 6 3837.4 692.096 2
1 13 6 3401.3 382.476 6
1 13 -6 2260.46 302.011 4
14 -1 6 2589.27 583.756 2
13 1 -6 3170.22 700.674 2
-1 14 6 2750.47 342.95 6
14 -1 -6 2721.67 633.581 2
14 -13 -6 2346.15 599.031 2
1 13 6 2635.38 326.447 4
1 13 -7 560.458 178.684 4
1 13 7 767.304 194.642 4
-1 14 -7 598.656 214.401 4
-1 14 7 851.28 211.47 4
14 -1 -7 734.945 359.456 2
-14 1 -7 994.531 262.428 3
14 -1 7 424.844 399.098 2
1 13 7 1306.34 288.346 6
-1 14 7 787.117 221.512 6
14 -13 -7 407.34 363.234 2
-1 14 -7 1112.05 263.985 5
14 -13 7 1316.68 415.608 2
-1 14 -8 5137.26 430.61 4
-1 14 8 5603.74 454.611 4
-13 -1 -8 8252.36 592.091 3
-13 14 8 5255.2 443.248 4
-13 14 -8 6191.14 480.154 4
14 -1 8 5535.9 850.593 2
-1 14 8 7653.02 565.863 6
14 -1 -8 5487.65 870.568 2
1 13 8 7819.13 558.096 6
-14 1 -8 7698.41 567.111 3
-1 14 -8 7901.6 593.6 5
14 -13 -8 6169.17 883.43 2
14 -13 8 6024.82 910.369 2
-13 -1 -9 10195.1 678.103 3
-1 14 -9 10772.3 706.109 5
-1 14 9 10060.9 645.222 6
-14 1 -9 9170.76 636.727 3
1 13 9 10455.1 665.231 6
-13 14 -9 11543.9 1389.43 1
-13 -1 -10 6884.09 599.62 3
-14 13 -10 6183.52 1113.12 1
-1 14 -10 5437.96 539.102 5
-13 14 -10 6047.06 1079.49 1
-14 1 -10 5743.8 540.264 3
-1 14 10 6336.63 532.025 6
1 13 10 5698.85 516.037 6
-1 14 11 22334.1 956.224 6
-14 1 -11 20757.6 992.126 3
-13 -1 -11 22593.6 1047.26 3
1 13 11 22468.2 971.235 6
-14 13 -11 21637.3 2062.26 1
-13 14 -11 21304.2 1985.86 1
-1 14 -11 23172.5 1040.4 5
-14 13 -12 -355.932 468.693 1
-14 1 -12 -128.503 278.766 3
-13 -1 -12 577.318 313.165 3
-13 14 -12 -418.551 388.921 1
1 13 12 373.347 244.175 6
-1 14 12 -46.9426 222.198 6
-1 14 -12 223.614 239.085 5
1 13 13 13234.6 754.41 6
-14 1 -13 14923 877.229 3
-13 -1 -13 13818.6 860.543 3
-1 14 13 13248.8 764.127 6
-1 14 -13 14460.5 841.087 5
-14 1 -14 4264.68 510.083 3
-13 -1 -14 3422.4 488.743 3
-1 14 14 3351.13 409.196 6
-13 14 -14 2894.4 404.995 3
1 13 14 3166.29 389.878 6
-14 13 -14 3232.69 417.463 3
-1 14 -14 4294.93 510.356 5
-13 14 -15 -174.026 223.053 3
-14 1 -15 12.2095 258.902 3
-13 -1 -15 -69.9789 280.938 3
-14 13 -15 -85.646 202.302 3
-1 14 15 246.812 211.753 6
1 13 15 11.6451 190.259 6
-13 14 15 229.753 277.489 6
-13 14 -16 2125.25 378.455 3
-14 1 -16 1718.31 406.759 3
-13 -1 -16 2876.59 469.161 3
-1 14 16 1754.21 299.153 6
-14 13 -16 1755.65 347.791 3
-13 14 16 2423.35 395.667 6
-14 13 16 1790.5 365.069 6
1 13 16 2095.55 322.891 6
-13 14 -17 2173.21 399.823 5
1 13 17 1611.18 271.228 6
-14 1 -17 2196.93 412.321 3
-13 -1 -17 2484.87 428.963 3
-1 14 17 1666.3 275.109 6
-14 13 -17 1558.46 329.423 3
-13 14 17 1873.79 313.566 6
-13 14 -17 1520.34 329.122 3
-13 14 -18 94.0079 259.776 5
-13 -1 -18 50.5383 259.991 3
-13 14 -18 -14.7417 212.412 3
-14 1 -18 -254.153 245.973 3
-14 13 -18 -135.163 228.456 3
-13 14 -19 3005.77 417.261 5
-14 13 -19 1774.02 349.727 3
-13 -1 -19 3741.45 485.5 3
-13 14 -19 1368.53 346.938 3
-14 13 -19 2989.26 409.25 5
-14 1 -19 3314.62 421.135 3
-13 -1 -20 -90.6264 213.281 3
-14 13 -20 471.586 245.479 5
-14 13 -20 -238.959 161.292 3
-13 14 -20 -131.045 193.34 3
-14 1 -20 278.505 241.698 3
-13 14 -20 162.358 204.132 5
-13 14 -21 745.728 236.751 5
-13 14 -21 1013.14 230.035 3
-14 13 -21 810.507 213.006 3
-13 -1 -21 930.191 238.919 3
-14 1 -21 867.523 250.663 3
-14 13 -21 493.842 242.261 5
14 0 0 7087.49 955.557 2
0 14 1 24031.9 932.093 4
0 14 -1 23573.7 920.322 4
14 0 -1 22499.1 1655.81 2
14 0 1 23996 1716.58 2
0 14 -2 30820.2 1067.85 4
0 14 2 28954.6 1041.26 4
14 0 -2 27717.5 1879.9 2
14 0 2 29281.6 1895.34 2
0 14 -3 7055.87 511.754 4
0 14 3 7411.41 534.757 4
0 14 3 7523.6 520.665 6
14 0 3 6592.58 923.264 2
14 0 -3 8734.39 1080.36 2
0 14 -4 27486.4 998.224 4
0 14 4 29428.4 1038.89 4
0 14 4 26919.3 974.422 6
14 0 -4 27886.2 1905.37 2
14 0 4 27280.3 1834.61 2
0 14 -5 2386.74 341.122 4
0 14 5 2349.26 332.036 4
0 14 5 2600.12 336.331 6
14 0 -5 1755.06 549.872 2
14 0 5 1227.02 468.976 2
0 14 -6 8626.77 583.271 4
0 14 6 9708.36 609.141 4
0 14 6 10251 628.756 6
14 0 -6 8514.92 1073.06 2
14 0 6 10335.9 1171.61 2
0 14 -7 2512.21 302.339 4
0 14 7 2549.24 342.253 4
-14 0 -7 2725.58 352.569 3
14 -14 7 1803.07 598.114 2
0 14 7 3146.88 388.886 6
14 0 -7 2648.62 618.386 2
14 0 7 2176.76 528.722 2
14 -14 -7 2629.05 660.617 2
0 14 -8 2401.71 308.524 4
0 14 8 2599.41 342.274 4
-14 0 -8 3394.18 415.127 3
0 14 8 2886.69 373.951 6
14 -14 -8 1693.23 482.184 2
14 -14 8 2792.88 684.13 2
-14 0 -9 4390.36 486.743 3
0 14 9 5057.95 480.835 6
-14 14 -10 12766.7 1540.45 1
0 14 10 11796.6 706.984 6
-14 0 -10 12988 791.445 3
-14 0 -11 4816.65 515.918 3
-14 14 -11 4177.64 963.567 1
0 14 11 5097.03 495.484 6
-14 0 -12 14560.5 862.544 3
0 14 12 13475.5 768.792 6
-14 0 -13 3555.19 468.756 3
0 14 13 2778.1 390.106 6
-14 0 -14 1853.68 405.088 3
0 14 14 1183.99 284.625 6
-14 0 -15 3017.12 482.574 3
0 14 15 2304.55 338.757 6
-14 14 -15 2090.07 358.379 3
-14 14 15 2406.66 426.661 6
-14 0 -16 463.578 293.57 3
0 14 16 268.622 170.271 6
-14 14 -16 744.077 266.983 3
-14 14 16 767.779 296.274 6
0 14 17 785.606 203.563 6
-14 14 -17 931.286 248.452 3
-14 14 17 1348.23 310.72 6
-14 14 -18 3926.27 474.392 5
-14 0 -18 4148.13 481.632 3
-14 14 -18 2998.66 381.944 3
-14 14 -19 435.381 267.124 5
-14 14 -19 674.961 231.915 3
-14 0 -19 1130.13 304.989 3
-14 14 -20 1460.54 253.353 3
-14 0 -20 1472.05 301.685 3
-14 14 -20 1838.59 321.976 5
-14 14 -21 99.9743 175.815 5
-14 14 -21 451.993 176.273 3
-14 0 -21 271.789 176.437 3
15 -7 0 14990.5 1293.55 2
15 -8 0 14971.7 1302.3 2
15 -7 1 41832.7 2167.07 2
15 -8 -1 43411 2240.59 2
15 -7 -1 43673.4 2209.68 2
15 -8 1 43406.3 2221.26 2
15 -8 2 6771.42 904.881 2
15 -7 2 6990.73 920.946 2
15 -7 -2 6962.68 927.754 2
15 -8 -2 6896 915.538 2
15 -8 -3 8506.85 1047.94 2
15 -8 3 9248.84 1040.8 2
15 -7 -3 7688.2 965.279 2
15 -7 3 7042.78 926.336 2
15 -8 -4 653.092 368.214 2
15 -8 4 584.145 434.111 2
15 -7 4 870.105 460.197 2
15 -7 -4 671.42 395.893 2
15 -7 5 6863.77 883.792 2
15 -8 5 7456.99 912.516 2
15 -8 -5 8571.88 1015.98 2
15 -7 -5 8085.87 978.25 2
7 8 6 7060.1 506.858 6
15 -7 6 7383.64 948.899 2
8 7 6 6526.38 481.685 6
15 -8 -6 7555.82 963.554 2
15 -8 6 7021.04 925.267 2
15 -7 -6 8654.3 1031.02 2
-7 15 6 7101.3 502.286 6
-8 15 6 7054.46 511.399 6
-8 15 7 29774 1041.99 6
7 8 7 31406.2 1039.11 6
8 7 7 29648.4 1003.82 6
15 -7 7 31470.6 1883.59 2
15 -8 -7 30384.9 1902.55 2
15 -8 7 32010.7 1934.04 2
15 -7 -7 31968.5 1945.53 2
-7 15 7 32357 1076.72 6
-7 15 -7 29626.4 1045.59 5
-8 15 -7 27798.1 1016.79 5
7 8 8 7512.47 532.927 6
8 7 8 8306.68 552.331 6
-8 15 8 8921.51 599.451 6
15 -7 8 10030.8 1078.97 2
15 -8 -8 7486.11 977.586 2
15 -7 -8 8227.55 973.014 2
-7 15 8 8189.11 567.537 6
15 -8 8 8418.38 1014.39 2
-7 15 -8 8602 607.347 5
-8 15 -8 7930.91 571.581 5
7 8 9 12146.1 700.433 6
8 7 9 11914.4 669.491 6
-7 15 9 13858 759.505 6
-7 15 -9 11955.8 696.375 3
-8 15 -9 10111.4 631.306 3
-8 15 9 12726.7 722.214 6
15 -7 -9 9968 1116.94 2
15 -8 -9 12425 1235.48 2
-7 15 -9 11862.8 711.827 5
-8 15 -9 12663.6 742.612 5
-8 15 -10 874.407 257.41 5
-15 7 -10 946.51 270.815 3
-7 15 -10 1535.16 338.441 5
-8 15 10 753.805 290.516 6
-7 15 -10 880.298 271.293 3
8 7 10 728.531 203.201 6
7 8 10 1116.98 278.578 6
-8 15 -10 599.371 219.2 3
-7 15 10 969.745 259.326 6
-15 7 -11 888.944 263.844 3
-8 15 -11 854.304 288.722 5
-15 8 -11 230.902 215.789 3
-8 15 -11 626.965 227.613 3
-7 -8 -11 579.372 256.308 3
7 8 11 797.976 224.125 6
-15 8 -11 384.427 450.589 1
-15 7 -11 1148.52 604.107 1
-8 -7 -11 780.188 260.601 3
8 7 11 888.589 242.248 6
-7 15 -11 500.583 217.304 3
-7 15 -11 608.769 253.77 5
-7 15 11 702.233 268.576 6
-8 15 11 557.392 275.289 6
-8 15 -12 616.793 291.757 5
-15 8 -12 1154.62 279.833 3
-15 7 -12 880.593 305.617 3
-7 15 -12 649.915 235.193 3
-15 8 -12 1383.73 480.929 1
-15 7 -12 2080.75 631.952 1
-8 -7 -12 938.409 294.528 3
-7 -8 -12 1358.55 352.378 3
8 7 12 530.363 217.1 6
7 8 12 827.151 248.115 6
-8 15 -12 1069.56 293.919 3
-7 15 12 889.335 303.071 6
-8 15 12 1180.56 294.858 6
-7 15 -12 909.062 313.882 5
-8 15 -13 4713.1 541.905 5
-15 7 -13 4633.68 487.374 3
7 8 13 3880.14 417.805 6
-8 -7 -13 4891.89 530.949 3
-8 15 -13 4587.24 506.433 3
-15 8 -13 4914.26 521.245 3
-7 -8 -13 4848.25 535.32 3
-7 15 -13 4352.95 474.142 3
-8 15 13 5162.52 527.189 6
-7 15 13 4767.11 481.699 6
8 7 13 3415.08 374.745 6
-7 15 -13 5503.67 567.24 5
-15 7 -14 3183.35 422.802 3
-8 -7 -14 3363.26 474.612 3
-7 -8 -14 3237.81 432.587 3
-8 15 14 3988.26 456.709 6
8 7 14 2452.23 300.92 6
7 8 14 2437.64 308.893 6
-8 15 -14 3042.2 420.487 3
-7 15 -14 3825.33 478.397 3
-7 15 14 3937.31 460.051 6
-8 15 -14 3178.97 475.852 5
-15 8 -14 3318 437.609 3
-7 15 -14 3554.48 487.18 5
-7 15 15 5694.73 525.59 6
-7 15 -15 6168.09 610.105 5
-7 15 -15 6573.91 597.323 3
-8 15 -15 6312.33 580.267 3
-15 8 -15 5287.73 539.36 3
-15 7 -15 5846.23 554.194 3
-8 -7 -15 6451.48 611.381 3
-7 -8 -15 6073.49 591.345 3
-8 15 15 5130.36 508.39 6
-8 15 -15 6300.64 605.848 5
-7 -8 -16 1331.27 364.128 3
-7 15 -16 1329.38 339.383 3
-8 15 -16 1225.98 326.019 3
-15 8 -16 1441.78 367.542 3
-7 15 16 1409.18 313.313 6
-8 15 16 1577.54 312.942 6
-15 7 -16 835.281 303.193 3
-7 15 -16 1449.59 366.678 5
-8 -7 -16 1553.49 362.075 3
-8 15 -16 1164.18 340.065 5
-7 15 -17 2097.84 383.514 3
-7 -8 -17 1983.34 367.58 3
-8 -7 -17 1697.86 379.214 3
-8 15 -17 1975.39 390.378 3
-7 15 17 1707.03 318.919 6
-8 15 17 1924.15 322.61 6
-15 8 -17 1550.88 351.784 3
-15 7 -17 2725.62 481.467 3
-7 15 -17 2670.52 445.064 5
-8 15 -17 2180.58 411.939 5
-7 -8 -18 150.915 234.574 3
-8 -7 -18 504.945 260.079 3
-8 15 -18 25.8514 227.884 3
-8 15 18 -79.6158 178.896 6
-7 15 -18 -63.8773 250.004 5
-7 15 18 176.438 178.891 6
-15 8 -18 20.2532 227.138 3
-15 7 -18 556.455 298.109 3
-8 15 -18 187.579 273.83 5
-7 -8 -19 -7.68071 192.147 3
-8 -7 -19 171.043 238.192 3
-8 15 -19 -238.262 239.231 5
-15 8 -19 -57.4213 231.024 3
-15 7 -19 150.635 250.378 3
-7 15 -19 114.8 253.916 5
-8 -7 -20 -312.814 176.784 3
-7 -8 -20 96.0472 174.712 3
-15 8 -20 -295.779 242.123 3
-15 7 -20 13.9127 215.72 3
-7 15 -20 49.8188 190.378 5
-8 15 -20 -139.346 215.875 5
-7 -8 -21 319.272 213.505 3
-8 -7 -21 557.751 211.148 3
-15 8 -21 986.745 241.92 3
-15 7 -21 936.056 235.542 3
-7 15 -21 235.989 174.134 5
-8 15 -21 300.946 208.911 5
15 -9 0 31503.3 1921.09 2
15 -6 0 30969.8 1870.17 2
15 -9 -1 -260.505 394.524 2
15 -9 1 545.149 340.419 2
15 -6 -1 162.842 324.24 2
15 -6 1 551.634 396.907 2
15 -9 -2 18850.7 1480.5 2
15 -9 2 18934.4 1478.82 2
15 -6 -2 18176.1 1438.26 2
15 -6 2 18314.4 1429.77 2
15 -9 -3 3441.76 661.981 2
15 -9 3 2655.18 636.582 2
15 -6 -3 3117.19 662.71 2
15 -6 3 2601.38 604.124 2
15 -9 4 347.733 338.631 2
15 -6 -4 519.474 388.582 2
15 -6 4 581.616 326.509 2
15 -9 -4 301.912 304.363 2
15 -9 -5 2621.26 617.148 2
15 -9 5 2880.21 634.093 2
15 -6 -5 3425.05 709.117 2
15 -6 5 3663.67 708.367 2
9 6 6 17243.8 749.901 6
15 -9 -6 18114.6 1474.45 2
6 9 6 17826.7 782.334 6
15 -9 6 19322.9 1500.71 2
-6 15 6 18295.9 793.481 6
15 -6 -6 19016.2 1494.93 2
15 -6 6 17169.5 1388.81 2
15 -9 -7 1379.03 472.953 2
-9 15 -7 962.043 249.481 5
15 -9 7 1052.82 456.667 2
15 -6 -7 1448.69 511.778 2
15 -6 7 624.679 378.354 2
9 6 7 882.571 223.34 6
6 9 7 1079.94 268.884 6
-6 15 7 742.518 219.25 6
-6 15 -7 932.774 259.092 5
6 9 8 16941.1 784.165 6
9 6 8 16426.8 763.592 6
15 -6 8 14812.7 1331.97 2
15 -9 -8 15238.3 1380.42 2
15 -9 8 15352.8 1323.95 2
-6 15 8 17391.4 810.124 6
15 -6 -8 14166.9 1311.11 2
-6 15 -8 16952.5 837.658 5
-9 15 -8 15829 801.058 5
-9 15 -9 202.567 230.838 5
-15 6 -9 279.39 203.58 3
15 -9 -9 -553.949 423.508 2
6 9 9 34.945 184.471 6
15 -6 -9 280.193 323.022 2
9 6 9 198.732 161.957 6
-6 15 9 60.2435 197.565 6
-9 15 9 248.063 231.118 6
-6 15 -9 296.915 217.183 5
-9 15 -10 1873.1 359.671 5
-15 6 -10 1707.46 312.118 3
9 6 10 1795.02 286.154 6
6 9 10 2176.74 343.621 6
-6 15 10 1971.72 319.376 6
-9 15 -10 1506.44 288.798 3
-9 15 10 2001.53 351.585 6
-6 15 -10 1598.83 313.977 5
-6 15 -11 274.647 238.002 3
9 6 11 227.324 171.942 6
-15 6 -11 400.592 233.638 3
6 9 11 54.0046 190.443 6
-15 9 -11 619.45 498.94 1
-9 15 -11 -113.589 179.201 3
-15 6 -11 -96.8366 491.245 1
-9 -6 -11 71.5577 217.14 3
-6 -9 -11 265.008 206.45 3
-6 15 11 209.553 245.891 6
-9 15 11 -75.7837 244.419 6
-9 15 -11 204.161 224.902 5
-6 15 -11 5.4924 230.359 5
-9 15 -12 762.106 292.712 5
-6 15 -12 1050.17 304.076 5
-15 6 -12 803.706 282.579 3
-6 15 -12 753.247 215.176 3
-15 9 -12 238.318 507.194 1
-9 -6 -12 1354.81 338.063 3
-6 -9 -12 1225.35 328.169 3
-15 6 -12 1180.61 560.747 1
-9 15 -12 1076.89 295.45 3
9 6 12 977.102 254.679 6
6 9 12 1136.97 278.046 6
-6 15 12 1121.45 292.769 6
-9 15 12 1219.61 335.777 6
-15 9 -12 631.242 240.452 3
-9 15 -13 344.677 243.605 5
-15 6 -13 570.497 281.532 3
-6 15 -13 497.124 280.724 3
6 9 13 593.476 209.543 6
-9 -6 -13 713.439 353.82 3
-9 15 -13 634.16 282.816 3
9 6 13 177.581 152.467 6
-6 15 13 234.707 214.83 6
-9 15 13 545.804 272.749 6
-15 9 -13 586.338 266.248 3
-6 15 -13 491.435 287.475 5
6 9 14 4969.71 443.161 6
-6 15 -14 6196.75 572.731 3
-9 15 -14 6189.94 569.372 3
-15 9 -14 5683 542.885 3
-15 6 -14 7105.78 617.189 3
-9 -6 -14 6336.52 608.362 3
-6 -9 -14 6268.17 561.577 3
-6 15 14 6204.02 546.024 6
-9 15 14 6250.32 563.029 6
-6 15 -14 6698.76 615.119 5
-9 15 -14 6086.39 591.542 5
-9 15 -15 -368.425 318.15 5
-15 6 -15 246.695 262.408 3
-6 15 -15 457.606 305.878 3
-9 -6 -15 -142.509 301.92 3
-6 -9 -15 256.725 276.743 3
-9 15 -15 68.9863 233.055 3
-9 15 15 546.431 251.081 6
-6 15 15 89.1493 205.818 6
-15 9 -15 45.7884 219.857 3
-6 15 -15 170.637 276.897 5
6 9 15 31.3763 161.202 6
-9 -6 -16 4039.42 510.711 3
-6 -9 -16 4252.41 492.348 3
-6 15 16 4055.3 437.91 6
-9 15 -16 3899.78 497.492 3
-9 15 16 3917.6 448.768 6
-15 9 -16 3588.37 461.49 3
-6 15 -16 4722.29 546.182 5
-15 6 -16 3695.91 494.621 3
-9 15 -16 5205.8 555.549 5
-9 15 -17 -130.204 250.839 3
-6 -9 -17 112.351 219.204 3
-9 -6 -17 520.981 307.098 3
-6 15 17 201.133 219.786 6
-9 15 17 291.079 242.852 6
-15 9 -17 -242.548 249.596 3
-6 15 -17 71.1027 265.728 5
-15 6 -17 429.702 267.86 3
-9 15 -17 43.4154 265.547 5
-6 -9 -18 561.8 252.598 3
-9 -6 -18 742.673 307.417 3
-9 15 -18 224.951 253.919 5
-9 15 -18 199.103 259.817 3
-6 15 18 213.999 176.478 6
-9 15 18 2.58334 172.534 6
-15 9 -18 449.595 288.949 3
-15 6 -18 599.585 300.299 3
-6 15 -18 100.86 234.169 5
-6 -9 -19 234.362 230.415 3
-9 -6 -19 270.435 218.437 3
-9 15 -19 0.8542 219.764 3
-15 9 -19 -169.57 258.217 3
-15 6 -19 76.7289 212.358 3
-6 15 -19 541.755 261.221 5
-9 15 -19 122.481 233.794 5
-6 -9 -20 248.905 177.262 3
-9 -6 -20 371.258 223.613 3
-15 9 -20 216.468 205.972 3
-15 6 -20 410.568 248.616 3
-6 15 -20 353.318 246.955 5
-9 15 -20 136.576 213.719 5
-15 9 -21 -20.7581 179.409 5
-15 9 -21 -169.236 164.423 3
-15 6 -21 109.298 181.631 3
-9 15 -21 281.345 196.935 5
-6 -9 -21 32.6691 126.049 3
-9 -6 -21 -154.531 176.848 3
15 -10 0 3925.66 757.362 2
15 -5 0 3114.83 603.943 2
15 -10 1 5547.92 869.52 2
15 -5 -1 5489.5 833.651 2
15 -5 1 5802.47 832.234 2
15 -10 -1 5239.59 815.516 2
15 -10 -2 4411.69 791.818 2
15 -10 2 4392.97 768.493 2
15 -5 -2 4807.59 790.899 2
15 -5 2 4192.99 659.392 2
15 -10 -3 1498.29 497.153 2
15 -10 3 1373.56 424.513 2
15 -5 -3 1458.81 479.463 2
15 -5 3 2052.53 520.93 2
15 -10 -4 1201.07 476.485 2
15 -10 4 998.09 438.582 2
15 -5 -4 1279 463.523 2
15 -5 4 432.412 365.581 2
15 -10 5 3171.08 637.679 2
15 -5 -5 4175.42 821.584 2
15 -5 5 2404.08 564.45 2
5 10 5 3058.03 339.876 6
15 -10 -6 897.603 406.314 2
15 -5 -6 1223.63 439.361 2
15 -5 6 435.094 326.381 2
10 5 6 903.486 215.07 6
5 10 6 830.119 229.86 6
15 -10 6 1000.8 437.122 2
-5 15 6 1285.5 262.184 6
-5 15 -6 994.26 263.937 5
-5 15 -7 4743.1 414.678 4
-5 15 7 4911.5 426.9 4
15 -10 -7 5391.25 841.024 2
5 10 7 6602.28 503.191 6
10 5 7 5374.13 447.698 6
15 -5 7 6468.7 884.457 2
-10 15 7 4895.74 418.344 4
-10 15 -7 4982.64 437.259 4
-5 15 7 6769.22 513.723 6
15 -10 7 5725.92 898.082 2
-10 15 -7 7328.56 986.691 1
15 -5 -7 6203.44 905.562 2
-5 15 -7 5964.73 508.137 5
15 -10 -8 835.536 311.982 2
15 -10 8 483.026 340.518 2
-5 15 -8 262.837 211.768 5
-10 15 -8 227.042 358.61 1
15 -5 -8 66.1591 374.642 2
15 -5 8 544.55 326.989 2
10 5 8 581.995 202.073 6
5 10 8 890.856 250.689 6
-5 15 8 892.63 263.732 6
15 -10 -9 1220.75 446.285 2
-15 5 -9 1228.26 267.723 3
-10 15 -9 2019.76 542.543 1
5 10 9 1869.78 308.512 6
10 5 9 1728.68 284.906 6
-5 15 9 2007.1 342.735 6
-5 15 -9 1531.41 312.017 5
-15 5 -10 557.84 255.16 3
-15 5 -10 -397.093 505.678 1
10 5 10 418.544 187.943 6
5 10 10 453.801 194.278 6
-10 15 -10 381.044 401.426 1
-10 -5 -10 202.722 245.251 3
-5 15 10 348.647 204.929 6
-5 15 -10 13.5583 244.827 5
-10 15 -11 578.265 259.278 5
10 5 11 358.275 179.446 6
-15 5 -11 547.652 267.033 3
-15 10 -11 192.021 404.335 1
-15 5 -11 440.543 368.186 1
-10 -5 -11 617.779 280.964 3
-10 15 -11 277.107 199.966 3
5 10 11 564.63 218.808 6
-5 -10 -11 327.256 230.15 3
-5 15 11 257.585 225.123 6
-10 15 11 178.181 250.838 6
-10 15 -11 -756.506 567.43 1
-5 15 -11 154.851 271.906 5
-10 15 -12 360.178 249.322 5
-15 5 -12 296.735 239.219 3
-15 10 -12 -138.975 486.477 1
-10 -5 -12 615.955 287.466 3
-5 -10 -12 415.495 261.943 3
10 5 12 488.678 192.375 6
-10 15 -12 -142.436 191.261 3
5 10 12 286.081 220.92 6
-5 15 12 770.175 284.008 6
-15 5 -12 1269.49 552.809 1
-10 15 12 779.122 334.418 6
-15 10 -12 183.502 228.441 3
-5 15 -12 76.2353 236.229 5
-10 15 -13 2273.87 425.495 5
-15 5 -13 1901.49 342.852 3
-10 -5 -13 1671.59 359.104 3
-5 -10 -13 1261.6 317.661 3
-10 15 -13 1618.89 336.412 3
5 10 13 1928.72 306.437 6
-5 15 13 1727.42 344.089 6
-10 15 13 1555.13 361.573 6
-15 10 -13 1765.26 350.992 3
-5 15 -13 2694.09 428.405 5
-10 15 -14 616.094 320.167 5
-15 5 -14 344.531 244.686 3
5 10 14 469.483 196.581 6
-10 -5 -14 174.137 256.956 3
-5 -10 -14 501.095 262.958 3
-10 15 -14 57.9264 216.869 3
-5 15 14 312.352 240.371 6
-10 15 14 723.546 273.171 6
-15 10 -14 557.249 265.581 3
-5 15 -14 465.566 284.792 5
-10 15 -15 2296.36 431.318 5
-15 5 -15 1886.16 382.654 3
5 10 15 1774.9 289.578 6
-10 -5 -15 1863.8 379.847 3
-5 -10 -15 1928.33 372.814 3
-10 15 -15 1692.47 320.723 3
-5 15 -15 1977.67 379.373 5
-5 15 15 1799.3 345.007 6
-10 15 15 1978.25 357.414 6
-15 10 -15 2123.87 368.37 3
-10 15 -16 577.563 336.753 5
-15 5 -16 671.565 274.386 3
-10 -5 -16 792.995 336.048 3
-5 -10 -16 658.645 263.078 3
-10 15 -16 383.365 238.049 3
-5 15 16 484.134 220.496 6
-10 15 16 641.425 271.37 6
-15 10 -16 641.553 259.625 3
-5 15 -16 746.521 287.388 5
-5 -10 -17 316.375 212.915 3
-10 -5 -17 742.764 313.676 3
-15 10 -17 558.845 250.57 3
-10 15 -17 353.976 261.017 3
-5 15 17 599.026 213.656 6
-10 15 17 496.921 242.512 6
-5 15 -17 721.908 303.764 5
-15 5 -17 231.057 230.798 3
-10 15 -17 -170.937 292.123 5
-5 -10 -18 -87.0633 179.469 3
-10 -5 -18 203.529 239.396 3
-15 10 -18 9.88159 208.476 3
-10 15 -18 240.345 246.317 3
-5 15 18 254.402 161.905 6
-10 15 18 -50.4685 175.412 6
-5 15 -18 590.342 285.028 5
-15 5 -18 -412.305 253.69 3
-10 15 -18 -10.9679 243.46 5
-5 -10 -19 54.1082 171.073 3
-10 -5 -19 -92.8615 239.77 3
-10 15 -19 112.34 262.147 3
-10 15 -19 662.622 281.597 5
-5 15 -19 520.937 267.669 5
-15 5 -19 278.659 226.082 3
-10 -5 -20 360.934 224.796 3
-5 -10 -20 63.0592 166.639 3
-15 10 -20 9.84293 189.412 3
-15 5 -20 102.074 210.721 3
-10 15 -20 -119.85 247.374 5
-15 10 -21 -32.8954 172.967 5
-10 15 -21 49.5983 161.849 5
-15 10 -21 176.962 177.174 3
-15 5 -21 -20.7201 176.735 3
-10 -5 -21 384.499 178.556 3
15 -4 0 268.757 423.586 2
15 -11 0 -45.54 351.975 2
15 -4 -1 351.939 255.112 2
15 -4 1 200.355 301.193 2
15 -11 -1 36.1977 421.652 2
15 -11 1 -277.127 465.71 2
15 -4 -2 1118.67 490.295 2
15 -4 2 1352.4 488.579 2
15 -11 -2 482.55 311.516 2
15 -11 2 447.101 350.007 2
15 -4 -3 2355.51 651.452 2
15 -4 3 1739.54 549.213 2
15 -11 -3 1520.35 482.576 2
15 -11 3 1713.95 495.557 2
15 -11 -4 500.434 336.753 2
15 -11 4 -13.5186 329.447 2
15 -4 -4 465.036 366.489 2
15 -4 4 833.662 421.757 2
15 -11 -5 847.421 425.713 2
15 -11 5 543.691 337.91 2
15 -4 -5 1042.99 513.539 2
15 -4 5 524.915 307.003 2
11 4 5 600.84 196.721 6
4 11 5 366.956 153.208 6
-4 15 5 635.281 225.213 6
15 -11 -6 218.6 301.321 2
15 -11 6 -62.8543 384.068 2
-4 15 -6 707.432 316.634 4
-4 15 6 -20.5362 148.677 4
-11 15 -6 -178.758 217.008 4
-11 15 6 -196.145 177.772 4
15 -4 -6 -492.606 411.941 2
15 -4 6 226.79 389.807 2
11 4 6 -61.6665 180.977 6
4 11 6 205.492 183.126 6
-4 15 6 70.1374 148.839 6
-4 15 -6 -50.8988 179.021 5
15 -11 -7 413.453 361.596 2
-4 15 7 13.6107 163.069 4
-4 15 -7 94.4756 157.392 4
-11 15 7 -288.215 201.049 4
-11 15 -7 292.913 194.487 4
15 -4 -7 184.013 272.404 2
15 -4 7 211.76 327.268 2
11 4 7 -130.201 172.962 6
15 -11 7 -20.626 362.395 2
4 11 7 -85.9086 177.953 6
-4 15 7 79.9579 179.124 6
-4 15 -7 464.582 242.751 5
15 -11 -8 321.322 405.232 2
15 -11 8 -384.928 416.789 2
15 -4 -8 481.354 342.204 2
-4 15 8 57.1189 161.144 4
11 4 8 430.873 189.046 6
15 -4 8 787.494 423.495 2
-15 4 -8 121.781 195.218 3
-11 15 -8 592.113 462.832 1
-11 15 8 275.28 174.077 4
4 11 8 935.47 263.226 6
-4 15 8 226.569 198.333 6
-4 15 -8 931.053 291.274 5
-4 15 -8 275.267 179.014 4
-15 4 -9 939.605 265.09 3
11 4 9 1277.59 261.021 6
4 11 9 1090.92 231.05 6
-4 15 9 1497.12 300.229 6
-4 15 -9 1247.62 294.444 5
-11 15 -10 76.4812 575.428 1
11 4 10 547.198 189.033 6
-15 4 -10 585.074 258.025 3
-15 4 -10 691.346 396.221 1
-11 -4 -10 291.253 257.632 3
4 11 10 613.03 228.729 6
-4 15 10 633.459 263.951 6
-4 15 -10 127.391 212.133 5
-15 4 -11 1741.57 338.622 3
-15 11 -11 2910.02 753.994 1
-15 4 -11 2049.29 676.192 1
-11 -4 -11 2242.36 408.311 3
4 11 11 1460.3 285.901 6
-4 15 11 1616.34 341.592 6
-4 -11 -11 1902.14 337.619 3
-11 15 -11 2178.26 693.474 1
-4 15 -11 2193.77 399.769 5
-15 4 -12 121.394 227.816 3
-11 -4 -12 570.497 303.915 3
-15 11 -12 -160.568 480.589 1
-4 -11 -12 -149.714 239.949 3
-4 15 -12 159.259 236.667 5
4 11 12 333.634 230.963 6
-15 4 -12 -55.7365 397.959 1
-11 15 -12 -120.705 169.196 3
-4 15 12 426.971 271.834 6
-11 15 12 322.823 309.571 6
-11 15 -13 1140.2 356.471 5
-15 4 -13 23.5187 253.217 3
-11 -4 -13 168.934 277.258 3
-4 -11 -13 654.742 259.428 3
-11 15 -13 28.733 188.327 3
4 11 13 1234.56 401.76 6
-4 15 13 592.924 257.731 6
-11 15 13 182.175 277.288 6
-15 11 -13 35.9136 191.57 3
-4 15 -13 470.064 296.418 5
-11 15 -14 134.345 258.147 5
-15 4 -14 168.797 251.385 3
-11 -4 -14 8.02147 275.446 3
-4 -11 -14 24.9011 206.33 3
4 11 14 20.9179 169.766 6
-11 15 -14 -125.537 194.197 3
-4 15 14 354.698 216.838 6
-15 11 -14 236.586 210.597 3
-11 15 14 35.9212 278.094 6
-4 15 -14 140.233 275.61 5
-11 15 -15 232.689 261.533 5
-15 11 -15 -31.6939 198.344 3
-15 4 -15 649.066 296.028 3
4 11 15 -89.8086 173.92 6
-11 -4 -15 286.274 290.627 3
-4 -11 -15 203.6 217.185 3
-11 15 -15 -55.0388 198.226 3
-4 15 15 176.481 195.866 6
-11 15 15 -41.1944 234.647 6
-4 15 -15 404.229 273.116 5
-11 15 -16 -153.414 272.152 5
-15 4 -16 -137.003 238.89 3
-11 -4 -16 216.932 287.996 3
-4 -11 -16 -91.2511 211.366 3
-15 11 -16 -154.548 218.857 3
-11 15 -16 510.549 267.934 3
4 11 16 -57.35 177.07 6
-4 15 16 -239.334 216.73 6
-11 15 16 -199.921 232.632 6
-4 15 -16 314.91 271.82 5
-15 4 -17 -274.083 291.321 3
-4 -11 -17 -96.354 195.038 3
-11 -4 -17 157.34 281.915 3
-11 15 -17 246.25 286.955 5
-11 15 -17 267.882 244.077 3
-4 15 17 60.9089 175.108 6
-15 11 -17 74.7101 211.011 3
-11 15 17 -141.206 232.476 6
-4 15 -17 431.169 280.703 5
-4 -11 -18 -226.255 193.748 3
-11 -4 -18 -85.0271 277.647 3
-15 4 -18 57.7804 241.193 3
-11 15 -18 275.414 219.565 3
-4 15 18 -60.8685 163.087 6
-15 11 -18 -113.944 224.759 3
-4 15 -18 -67.1799 241.873 5
-11 15 -18 -1.41324 250.97 5
-4 -11 -19 200.973 189.138 3
-11 -4 -19 836.104 317.89 3
-15 4 -19 44.98 234.822 3
-11 15 -19 -18.1624 201.411 3
-15 11 -19 -134.246 198.562 3
-11 15 -19 15.8506 251.322 5
-11 -4 -20 421.253 227.66 3
-15 11 -20 -166.32 198.608 3
-11 15 -20 -73.0732 182.033 3
-15 4 -20 -171.177 224.073 3
-11 15 -20 -185.483 214.153 5
-15 11 -21 139.353 167.642 5
-15 11 -21 -240.656 167.472 3
-15 4 -21 -321.15 197.798 3
-11 15 -21 116.4 172.577 5
-11 -4 -21 -172.245 187.683 3
15 -12 0 8098.51 1061.27 2
15 -3 0 6747.99 928.638 2
15 -3 -1 3073.54 680.588 2
15 -3 1 2359.46 549.268 2
15 -12 -1 1958.68 641.019 2
15 -12 1 2623.72 679.046 2
15 -3 -2 2217.35 614.905 2
15 -3 2 2426.17 630.742 2
15 -12 -2 1507.43 480.112 2
15 -12 2 1776.54 560.56 2
15 -3 3 11640 1189.87 2
15 -12 -3 13926.3 1343.22 2
15 -12 3 11992.6 1256.21 2
15 -3 -3 12253.8 1218.94 2
3 12 -4 316.969 168.822 4
3 12 4 897.339 237.929 4
-3 15 -4 874.827 259.642 4
-3 15 4 737.577 228.145 4
-12 15 4 618.342 217.156 4
-12 15 -4 892.616 247.109 4
15 -3 -4 348.607 360.716 2
15 -3 4 720.178 450.448 2
3 12 4 895.06 220.698 6
-3 15 4 536.822 198.572 6
15 -12 -4 698.857 469.062 2
15 -12 4 871.005 425.336 2
-3 15 -5 4164.07 415.555 4
-3 15 5 3973.06 398.231 4
-12 15 5 4029.61 384.591 4
-12 15 -5 4813.09 435.035 4
15 -3 -5 4847.16 805.296 2
15 -3 5 3883.92 721.144 2
3 12 5 4920.52 454.302 6
-3 15 5 4607.2 437.925 6
-3 15 -5 4763.01 458.104 5
15 -12 -5 4626.51 764.83 2
15 -12 5 4002 757.148 2
15 -12 -6 -31.2101 266.807 2
15 -12 6 -694.526 490.388 2
15 -3 -6 598.674 418.492 2
-3 15 -6 172.874 185.885 4
-3 15 6 98.575 160.956 4
-12 15 -6 25.8256 205.902 4
-12 15 6 152.594 190.249 4
15 -3 6 -190.989 258.135 2
3 12 6 -122.074 186.505 6
-3 15 6 328.251 223.967 6
-3 15 -6 25.5996 217.75 5
15 -12 -7 737.134 426.676 2
15 -12 7 392.945 347.218 2
-3 15 -7 303.857 169.758 4
-3 15 7 723.978 235.326 4
-15 3 -7 -25.6908 175.94 3
-12 15 -7 232.425 174.106 4
-12 15 7 152.961 171.308 4
15 -3 7 796.195 396.004 2
15 -3 -7 -73.5893 340.378 2
3 12 7 410.155 251.454 6
-3 15 7 471.651 212.67 6
-3 15 -7 1017.63 263.202 5
15 -12 -8 2039.79 579.234 2
15 -12 8 1576.64 485.876 2
-3 15 8 1928.73 297.659 4
-3 15 -8 1757.66 256.987 4
-12 15 -8 2878.24 767.457 1
-15 3 -8 2091.84 332.486 3
-12 15 8 1673.09 278.104 4
-12 15 -8 1638.64 282.707 4
3 12 8 2299.61 349.943 6
15 -3 -8 1924.96 474.555 2
15 -3 8 2183.69 608.381 2
-3 15 8 2644.28 360.852 6
-3 15 -8 2189.53 330.764 5
-15 3 -9 607.416 229.559 3
-12 15 -9 928.708 562.191 1
-12 -3 -9 631.368 278.832 3
3 12 9 994.501 277.114 6
-3 15 9 697.485 263.875 6
-3 15 -9 901.172 286.88 5
-12 15 -10 2998.58 729.698 1
-15 3 -10 2494.34 375.372 3
3 12 10 2813.37 376.144 6
-3 15 10 2695 375.237 6
-15 3 -10 1754.14 557.878 1
-12 -3 -10 3228.76 440.168 3
-3 15 -10 2758.42 410.937 5
3 12 11 3018.99 396.542 6
-15 3 -11 3650.47 458.725 3
-3 15 11 3636.66 438.305 6
-15 12 -11 3959.45 967.137 1
-15 3 -11 1908.18 680.624 1
-12 -3 -11 3970.08 482.931 3
-3 -12 -11 3522.18 411.677 3
-12 15 -11 1659.2 607.38 1
-3 15 -11 3944.49 482.287 5
-15 3 -12 -30.3747 256.795 3
-12 -3 -12 -11.9983 267.495 3
-3 -12 -12 187.217 196.739 3
3 12 12 -32.6411 179.521 6
-3 15 12 229.786 209.84 6
-12 15 -12 -641.24 444.688 1
-3 15 -12 451.513 275.784 5
-15 3 -13 898.26 303.312 3
-12 -3 -13 1166 342.755 3
-3 -12 -13 409.643 242.754 3
3 12 13 565.183 251.3 6
-12 15 -13 1021.78 276.346 3
-3 15 13 361.947 237.452 6
-12 15 13 660.999 340.729 6
-3 15 -13 686.667 314.397 5
-15 3 -14 258.454 254.553 3
-12 15 -14 857.829 280.813 3
-3 -12 -14 689.999 233.089 3
-12 -3 -14 35.8884 284.005 3
-3 15 14 531.287 224.305 6
3 12 14 869.203 253.337 6
-12 15 14 471.71 298.487 6
-15 12 -14 394.675 203.487 3
-3 15 -14 965.008 335.228 5
-12 15 -15 55.3512 268.304 5
-15 3 -15 -38.7532 253.762 3
-12 -3 -15 -260.797 341.168 3
-3 -12 -15 392.747 230.084 3
-12 15 -15 -172.726 200.474 3
3 12 15 52.7854 177.864 6
-3 15 15 168.782 203.869 6
-15 12 -15 268.02 216.255 3
-12 15 15 112.897 262.412 6
-3 15 -15 -204.502 283.744 5
-12 15 -16 601.842 314.545 5
-15 3 -16 159.535 291.211 3
-3 -12 -16 170.04 183.035 3
-12 -3 -16 98.5184 285.424 3
-3 15 16 351.493 218.091 6
-12 15 -16 105.253 219.942 3
3 12 16 131.261 195.042 6
-15 12 -16 501.855 267.378 3
-12 15 16 -17.9789 226.446 6
-3 15 -16 446.651 281.799 5
-15 3 -17 742.471 280.197 3
-3 -12 -17 705.873 220.853 3
-12 -3 -17 518.244 321.036 3
-3 15 17 682.013 215.037 6
-12 15 -17 459.51 256.419 3
-12 15 -17 946.725 341.393 5
-15 12 -17 526.187 225.965 3
-12 15 17 797.682 262.1 6
-12 -3 -18 -169.444 245.044 3
-12 15 -18 211.164 235.252 3
-15 12 -18 253.689 201.071 3
-3 15 18 50.5542 163.006 6
-15 3 -18 357.048 270.819 3
-12 15 -18 -200.445 263.855 5
-12 -3 -19 413.96 256.503 3
-15 12 -19 194.534 214.087 3
-12 15 -19 241.132 184.332 3
-15 3 -19 318.646 246.108 3
-12 15 -19 221.215 240.534 5
-12 -3 -20 -250.787 216.866 3
-15 12 -20 -38.265 189.562 5
-12 15 -20 -46.2023 180.606 3
-15 12 -20 27.6136 159.649 3
-15 3 -20 -92.8 223.108 3
-12 15 -20 -146.932 199.845 5
-15 12 -21 -139.965 189.394 5
-15 12 -21 -3.89933 135.325 3
-15 3 -21 81.1555 176.016 3
-12 15 -21 335.124 185.62 5
-12 -3 -21 202.797 189.615 3
2 13 0 1740.86 284.437 4
-2 15 0 2097.51 299.828 4
15 -2 0 1398.6 535.249 2
13 2 0 1981.21 619.413 2
15 -13 0 1516.7 616.652 2
15 -13 -1 15503.2 1504.66 2
-2 15 -1 15310.4 749.752 4
-2 15 1 15805.3 767.159 4
2 13 -1 15168.2 748.205 4
2 13 1 14807.9 752.136 4
15 -13 1 15786.6 1494.57 2
15 -2 -1 14880.7 1389.75 2
15 -2 1 14104 1340 2
13 2 -1 14164.8 1338.89 2
13 2 1 16572 1436.34 2
2 13 -2 5914.39 499.132 4
2 13 2 5538.14 475.006 4
-2 15 -2 5415.02 488.101 4
-2 15 2 6132.53 493.191 4
15 -2 2 6173.86 907.35 2
15 -2 -2 5884.73 901.031 2
2 13 2 5782.14 460.715 6
13 2 -2 5919.26 915.823 2
13 2 2 5031.39 813.942 2
15 -13 -2 6150.75 932.961 2
15 -13 2 6209.98 959.698 2
2 13 -3 6452.67 499.81 4
-2 15 -3 6338.23 487.646 4
-2 15 3 6089.32 486.695 4
15 -2 3 5463.25 868.963 2
2 13 3 6577.84 488.375 6
-2 15 3 6451.69 483.549 6
15 -2 -3 6492.02 945.132 2
13 2 -3 5809.43 878.575 2
2 13 3 6240.21 499.019 4
15 -13 -3 7420.78 1002.93 2
15 -13 3 7627.77 1039.28 2
2 13 -4 6387.6 505.518 4
2 13 4 6870.54 523.648 4
-2 15 -4 6368.98 489.5 4
-2 15 4 6560.67 512.882 4
2 13 4 6799.88 502.454 6
15 -2 -4 6695.45 962.02 2
15 -2 4 5601.76 852.965 2
15 -13 4 6628.11 977.862 2
-2 15 4 6633.16 505.29 6
15 -13 -4 6171.34 926.624 2
2 13 -5 3272.4 367.246 4
-2 15 -5 3842.47 385.588 4
-2 15 5 3441.26 383.344 4
2 13 5 3346.68 374.906 4
15 -2 -5 4077.5 728.414 2
2 13 5 3565.75 385.363 6
15 -2 5 2685.68 596.639 2
-2 15 5 3032.98 354.98 6
15 -13 -5 3543.69 740.284 2
15 -13 5 4057.88 850.785 2
2 13 -6 2375.85 303.835 4
2 13 6 2042.38 321.302 4
-2 15 -6 2544.88 328.095 4
-2 15 6 2178.23 330.063 4
-13 15 6 2062.88 316.124 4
-13 15 -6 2139.12 318.702 4
-15 2 -6 2206.07 315.532 3
15 -2 6 2352.25 608.685 2
2 13 6 2563.87 343.55 6
-2 15 6 2570.28 333.51 6
15 -2 -6 2823.16 655.622 2
-2 15 -6 2983.73 378.679 5
15 -13 -6 1499.25 493.573 2
15 -13 6 2283.64 638.266 2
15 -13 -7 3788.04 704.935 2
15 -13 7 4771.08 813.565 2
-2 15 -7 4463.75 397.922 4
-15 2 -7 4531.47 443.854 3
-2 15 7 3896.82 407.332 4
-13 15 7 4410.23 415.347 4
-13 15 -7 4639.7 452.052 4
2 13 7 4942.07 455.958 6
15 -2 -7 5568.58 865.422 2
-2 15 7 5724.38 517.601 6
15 -2 7 4489.52 786.757 2
-2 15 -7 5046.59 488.686 5
15 -13 -8 2320.62 511.046 2
15 -13 8 2871.55 706.865 2
-2 15 -8 2261.99 296.913 4
-2 15 8 1955.64 296.046 4
15 -2 -8 2239.89 581.642 2
-15 2 -8 3315.33 397.586 3
-13 15 -8 2326.33 314.52 4
-13 15 8 2253.25 325.147 4
15 -2 8 2846.74 677.558 2
2 13 8 2876.79 366.085 6
-2 15 8 3057.7 397.555 6
-2 15 -8 3380.51 431.603 5
-13 -2 -9 5798.3 535.478 3
-13 15 -9 3914.36 915.342 1
-15 2 -9 5814.74 545.894 3
2 13 9 4383.81 459.424 6
-2 15 9 4761.89 460.78 6
-2 15 -9 5007.04 502.258 5
-13 -2 -10 6622.26 596.588 3
-15 13 -10 5885.66 1035.74 1
2 13 10 6271.08 528.739 6
-13 15 -10 7664.88 1238.87 1
-15 2 -10 6300.17 567.207 3
-2 15 10 6407.39 538.96 6
-2 15 -10 6096.74 551.62 5
-15 2 -11 1552.54 332.54 3
-15 13 -11 762.411 529.983 1
-13 -2 -11 1508.41 388.449 3
-2 -13 -11 1114.85 268.072 3
-13 15 -11 964.902 593.773 1
2 13 11 1692.56 326.552 6
-2 15 11 1543.53 332.721 6
-2 15 -11 1762.12 348.796 5
-2 -13 -12 5817.71 498.775 3
-2 15 -12 7483.65 622.223 5
2 13 12 6346.53 533.668 6
-15 2 -12 6872.54 603.599 3
-13 -2 -12 8090.19 669.683 3
-2 15 12 6857.55 566.319 6
-15 2 -13 3252.47 431.991 3
-13 -2 -13 3007.16 468.599 3
-2 -13 -13 2474.76 338.173 3
2 13 13 2792.05 371.28 6
-2 15 13 3268.16 416.271 6
-2 15 -13 3481.1 456.792 5
-15 2 -14 2517.08 427.556 3
-13 -2 -14 2445.62 446.325 3
-2 -13 -14 1785.43 298.949 3
-13 15 -14 1461.03 291.239 3
2 13 14 1729.08 326.532 6
-2 15 14 1977.25 348.076 6
-2 15 -14 1748.58 370.392 5
-13 15 14 2470.31 421.11 6
-15 2 -15 2761.1 443.291 3
-13 -2 -15 2773.79 432.815 3
-13 15 -15 1979.2 351.178 3
-2 15 15 2805.87 374.13 6
-15 13 -15 1826.69 333.562 3
2 13 15 1888.84 313.018 6
-13 15 15 2723.6 432.271 6
-13 15 -16 1318.14 353.269 5
-15 2 -16 1101.36 330.181 3
-13 -2 -16 1111.7 316.526 3
-13 15 -16 779.893 266.928 3
-15 13 -16 903.011 271.612 3
2 13 16 539.01 204.652 6
-2 15 16 912.675 229.477 6
-13 15 16 990.717 304.946 6
-15 13 16 1033.39 322.345 6
-13 15 -17 908.209 311.522 5
-15 2 -17 1187.02 335.79 3
-13 -2 -17 1058.66 345.95 3
-13 15 -17 934.787 292.455 3
2 13 17 323.867 167.209 6
-2 15 17 526.343 203.921 6
-15 13 -17 278.186 205.905 3
-13 15 17 822.502 245.152 6
-13 15 -18 1750.38 365.006 5
-15 2 -18 1659.1 356.599 3
-13 -2 -18 1237.86 360.153 3
-13 15 -18 1399.84 280.054 3
-2 15 18 625.458 202.528 6
-15 13 -18 924.734 248.587 3
-13 -2 -19 715.704 281.453 3
-15 13 -19 289.411 220.276 5
-13 15 -19 168.605 186.237 3
-15 13 -19 18.7401 168.349 3
-15 2 -19 412.323 249.142 3
-13 15 -19 716.634 272.243 5
-15 13 -20 403.517 208.553 5
-13 15 -20 247.022 168.503 3
-15 13 -20 457.083 188.193 3
-15 2 -20 991.627 257.241 3
-13 15 -20 489.087 231.786 5
-13 -2 -20 514.536 221.181 3
-15 13 -21 117.965 120.485 3
-15 2 -21 324.689 191.671 3
-13 -2 -21 335.865 182.65 3
-13 15 -21 192.362 184.581 5
-15 13 -21 158.395 175.167 5
1 14 0 4499.97 442.473 4
-1 15 0 4388.55 441.05 4
1 14 0 3903.74 370.724 6
14 1 0 4156.38 800.154 2
15 -1 0 4299.02 772.237 2
1 14 -1 9478.25 619.958 4
1 14 1 9299.41 616.462 4
-1 15 -1 10532.9 642.904 4
-1 15 1 9574.36 618.081 4
15 -1 1 7536.2 984.455 2
1 14 1 9499.49 556.642 6
-1 15 1 8510.56 540.898 6
14 1 -1 8345.63 1071.77 2
15 -1 -1 8554.6 1065.92 2
14 1 1 9581.14 1127.75 2
1 14 -2 12429.4 710.308 4
1 14 2 13076.4 721.649 4
-1 15 -2 13476 727.812 4
-1 15 2 12724.7 710.933 4
1 14 2 12720.5 667.833 6
15 -1 2 12755 1259.21 2
-1 15 2 13836.1 690.709 6
15 -1 -2 11947.7 1266.51 2
14 1 -2 10972.6 1237.92 2
14 1 2 12062.1 1268.18 2
1 14 -3 8676.75 586.253 4
1 14 3 8786.6 606.064 4
-1 15 3 9176.18 600.462 4
-1 15 -3 8666.29 581.469 4
1 14 3 8182.31 541.883 6
-1 15 3 8872.34 578.471 6
15 -1 -3 8187.95 1111.07 2
15 -1 3 8132.13 1034.35 2
14 1 -3 8969.53 1081.94 2
14 1 3 8267.68 1070.71 2
1 14 4 12364 712.775 4
15 -14 -4 11424.8 1289.22 2
-1 15 -4 11588.9 678.837 4
-1 15 4 10917.4 666.148 4
15 -14 4 9015.63 1248.16 2
1 14 -4 11499.6 666.926 4
1 14 4 12279.9 675.794 6
-1 15 4 11701.7 675.621 6
15 -1 -4 9687.84 1166.35 2
15 -1 4 12021.2 1263.01 2
14 1 -4 11934.3 1306.26 2
14 1 4 11240.3 1248.17 2
1 14 -5 4192.82 423.666 4
1 14 5 4498.84 440.716 4
-1 15 -5 3720.79 443.28 4
-1 15 5 4110.36 428.841 4
15 -1 5 4062.56 763.471 2
1 14 5 4220.59 422.622 6
-1 15 5 3841.73 416.272 6
15 -1 -5 3995.79 801.281 2
14 1 -5 3649.73 709.844 2
15 -14 -5 3900.74 787.587 2
15 -14 5 5055.37 910.02 2
1 14 -6 2365.56 344.075 4
1 14 6 2398.51 343.021 4
-1 15 -6 2528.92 353.346 4
-1 15 6 2418.68 341.933 4
15 -1 6 1306.27 329.29 2
-15 1 -6 2469.14 329.657 3
15 -1 -6 1969.72 609.758 2
1 14 6 2522.42 344.889 6
-1 15 6 2546.37 353.797 6
15 -14 -6 1886.08 684.939 2
15 -14 6 2109.48 481.236 2
1 14 7 3684.72 402.922 4
-1 15 -7 3864.08 397.246 4
-1 15 7 3998.56 418.003 4
1 14 -7 3072.53 364.983 4
-15 1 -7 4350.94 437.756 3
-14 15 7 3823.68 412.991 4
-14 15 -7 3811.9 410.942 4
1 14 7 4313.81 433.684 6
-1 15 7 4174.57 419.982 6
15 -1 -7 3917.18 809.812 2
15 -1 7 3132.14 657.84 2
15 -14 -7 3457.48 740.069 2
15 -14 7 3591.02 724.78 2
15 -14 8 2229.83 504.762 2
-1 15 -8 2434.75 327.389 4
-1 15 8 2717.14 371.349 4
-14 -1 -8 2972.32 396.731 3
-15 1 -8 2387.13 360.498 3
-14 15 -8 2051.45 338.022 4
-14 15 8 2450.24 341.882 4
1 14 8 3046.41 395.579 6
-1 15 8 2419.69 352.384 6
15 -1 -8 2269.36 587.214 2
14 -15 -8 2110.53 639.979 2
14 -15 8 3518.59 774.255 2
15 -14 -8 2128.21 629.07 2
-14 -1 -9 6285.31 562.875 3
-14 15 -9 6661.61 1029.83 1
-15 1 -9 4990.51 493.175 3
1 14 9 5536.05 493.182 6
-1 15 9 6061.55 525.588 6
-14 -1 -10 12591.7 771.829 3
-15 1 -10 11968.6 747.206 3
1 14 10 12913.8 750.463 6
-1 15 10 12874.8 752.732 6
-15 14 -10 11433.6 1500.47 1
-14 15 -10 11130.8 1429.69 1
-15 1 -11 4318.03 496.69 3
-14 -1 -11 4841.66 529.372 3
1 14 11 4787.07 480.13 6
-1 15 11 4557.34 478.996 6
-1 15 12 11241 689.377 6
-15 1 -12 11148.3 763.546 3
-14 -1 -12 11182.4 771.166 3
1 14 12 10260.6 668.349 6
-15 1 -13 2091.56 402.846 3
-14 -1 -13 2095.43 404.206 3
1 14 13 1936.53 347.485 6
-1 15 13 1317.16 299.637 6
-15 1 -14 1744.05 370.543 3
-14 -1 -14 1966.61 389.37 3
1 14 14 1880.01 339.582 6
-1 15 14 2092.75 348.828 6
-14 15 14 1843.67 421.81 6
-15 1 -15 1285.84 357.04 3
-14 -1 -15 703.507 337.991 3
1 14 15 839.75 228.527 6
-1 15 15 850.806 227.997 6
-14 15 15 1043.54 345.043 6
-14 15 -16 1202.28 389.903 5
-15 1 -16 1057.62 311.04 3
-14 -1 -16 882.105 339.281 3
-14 15 -16 790.11 260.43 3
-15 14 -16 720.306 240.145 3
1 14 16 386.453 164.999 6
-1 15 16 1154.96 248.549 6
-14 15 16 859.589 287.612 6
-15 14 16 1394.96 360.527 6
-14 15 -17 571.124 306.199 5
-15 1 -17 961.955 336.427 3
-14 -1 -17 731.753 306.592 3
-15 14 -17 674.673 263.173 3
1 14 17 554.819 190.681 6
-1 15 17 735.528 222.191 6
-14 15 -17 684.007 241.855 3
-14 15 17 862.974 265.519 6
-15 14 17 1166.39 288.303 6
-14 15 -18 2085.52 390.474 5
-15 1 -18 1867.78 357.846 3
-15 14 -18 2542.29 404.429 5
-14 -1 -18 2162.05 361.789 3
-1 15 18 948.823 196.738 6
-14 15 -18 1740.59 294.126 3
-15 14 -18 1620.11 280.409 3
-14 -1 -19 909.853 261.317 3
-15 14 -19 659.469 280.844 5
-15 14 -19 688.807 209.167 3
-14 15 -19 636.653 228.165 3
-15 1 -19 1092.28 287.89 3
-14 15 -19 603.092 254.906 5
-14 15 -20 638.322 164.273 3
-15 14 -20 599.874 188.699 3
-15 1 -20 1248.67 271.089 3
-14 -1 -20 1397.19 276.161 3
-14 15 -20 900.83 232.75 5
-15 14 -20 1267.11 284.266 5
0 15 0 6006.24 517.484 4
15 0 0 5271.91 871.623 2
0 15 0 5104.43 437.634 6
0 15 1 3855.66 429.601 4
0 15 -1 3199.98 395.659 4
0 15 1 3143.96 351.133 6
15 0 -1 2941.71 703.475 2
15 0 1 2322.77 615.097 2
0 15 -1 2975.96 343.174 6
0 15 -2 4596.55 435.18 4
0 15 2 4318.49 424.96 4
0 15 2 3938.55 383.685 6
15 0 -2 3009.19 751.941 2
15 0 2 3136.55 728.863 2
0 15 -3 9213.81 619.024 4
15 0 -3 6568.38 981.208 2
0 15 3 9141.45 595.925 6
0 15 3 9093.21 641.277 4
15 0 3 7685.74 1056.5 2
0 15 -4 177.285 200.459 4
0 15 4 103.733 216.823 4
0 15 4 145.968 185.125 6
15 0 -4 167.374 301.482 2
15 0 4 201.467 397.813 2
0 15 -5 9052.39 619.147 4
0 15 5 9103.91 634.725 4
0 15 5 8786.09 606.361 6
15 0 -5 7895.81 1081.34 2
15 0 5 7330.29 1003.35 2
0 15 -6 5581.51 479.771 4
0 15 6 6025.18 513.904 4
15 -15 6 3668.57 872.622 2
0 15 6 5858.86 495.894 6
15 0 -6 5589.32 950.184 2
15 0 6 5729.35 932.03 2
15 -15 -6 5002.16 859.6 2
-15 0 -7 493.887 229.539 3
0 15 -7 262.331 191.681 4
0 15 7 256.142 185.536 4
0 15 7 215.345 187.776 6
15 -15 -7 -217.278 300.648 2
15 -15 7 -267.095 473.003 2
0 15 -8 5086.93 459.206 4
0 15 8 5747.13 494.244 4
-15 0 -8 6769.47 566.281 3
15 -15 -8 4494.94 839.052 2
0 15 8 6260.51 529.415 6
-15 15 8 5090.17 465.357 4
-15 15 -8 6106.22 494.551 4
15 -15 8 3592.33 772.296 2
-15 0 -9 3718.67 454.698 3
0 15 9 4890.01 485.768 6
-15 15 -10 2460.01 729.015 1
-15 0 -10 2264.72 377.214 3
0 15 10 2616.2 379.732 6
-15 0 -11 11320.4 759.266 3
0 15 11 11424.9 710.604 6
-15 0 -12 15.5433 275.661 3
0 15 12 -36.1761 255.523 6
-15 0 -13 3663.71 484.841 3
0 15 13 4681.11 485.712 6
-15 0 -14 596.62 300.414 3
0 15 14 848.855 266.147 6
-15 0 -15 135.017 286.854 3
0 15 15 474.076 241.966 6
-15 15 15 508.75 304.235 6
-15 0 -16 624.111 287.437 3
0 15 16 391.776 178.626 6
-15 15 16 243.603 245.504 6
-15 15 -17 1954.95 395.657 5
0 15 17 1553.51 270.762 6
-15 15 17 2127.01 318.536 6
-15 0 -18 -57.0232 232.816 3
-15 15 -18 90.1572 247.679 5
-15 15 -19 2090.18 345.114 5
-15 0 -19 2644.64 359.401 3
-15 0 -20 -71.7615 172.558 3
-15 15 -20 -99.5706 175.417 5
16 -8 0 64294.8 2788.04 2
16 -8 -1 441.118 317.681 2
16 -8 1 173.301 407.07 2
16 -8 -2 12076.4 1235.83 2
16 -8 2 13366.8 1292.9 2
8 8 3 220.287 162.15 6
16 -8 -3 190.159 339.039 2
16 -8 3 71.6875 320.798 2
-8 16 -3 406.847 219.672 4
-8 16 3 138.441 192.106 4
16 -8 -4 556.364 377.499 2
16 -8 4 894.214 446.171 2
-8 16 -4 430.122 210.319 4
-8 16 4 576.883 222.81 4
8 8 4 389.588 157.988 6
-8 16 4 557.124 225.259 6
16 -8 -5 -363.171 343.933 2
16 -8 5 -83.103 365.111 2
8 8 5 -149.689 178.917 6
-8 16 -5 148.368 192.842 4
-8 16 5 -8.47082 190.546 4
-8 16 5 -299.07 264.141 6
8 8 6 6361.95 472.76 6
-8 16 -6 5675.47 474.475 4
-8 16 6 5592.06 461.605 4
16 -8 -6 6790.69 976.967 2
-8 16 6 5715.78 490.005 6
16 -8 6 6716.49 949.479 2
-8 16 -6 5775.03 467.6 5
-8 16 -7 -186.475 184.539 5
16 -8 -7 -465.806 419.606 2
16 -8 7 -6.83896 305.419 2
-8 16 -7 228.856 169.666 4
8 8 7 -35.5825 178.561 6
-8 16 7 -145.879 172.348 4
-8 16 7 269.744 231.679 6
-8 16 -8 3788.89 396.894 4
-8 16 8 3730.57 398.578 4
16 -8 -8 4702.44 835.453 2
16 -8 8 3928.66 774.338 2
-8 16 8 4756.52 460.849 6
8 8 8 4998.75 457.383 6
-8 16 -8 5031.39 484.56 5
8 8 9 30.7003 174.638 6
-8 16 9 436.475 259.848 6
-8 16 -9 -161.411 208.647 5
8 8 10 2299.52 324.756 6
-8 16 10 2222.46 349.701 6
-8 16 -10 2226.89 377.014 5
-8 -8 -11 115.886 235.201 3
8 8 11 160.642 163.515 6
-16 8 -11 157.535 462.004 1
-8 16 11 84.2785 236.768 6
-8 16 -11 -152.822 234.217 5
-16 8 -12 896.761 267.269 3
8 8 12 917.207 247.939 6
-8 16 -12 1137.73 316.125 3
-8 -8 -12 1580.91 366.634 3
-8 16 12 843.285 276.792 6
-8 16 -12 817.465 322.407 5
-8 -8 -13 201.652 241.876 3
8 8 13 85.7201 167.375 6
-8 16 -13 219.981 236.962 3
-8 16 13 -285.142 257.967 6
-8 16 -13 46.6789 246.607 5
-16 8 -13 -60.4059 228.445 3
8 8 14 2981.7 354.42 6
-8 -8 -14 3413.15 459.427 3
-8 16 -14 4235.02 485.937 3
-16 8 -14 3454.34 432.048 3
-8 16 14 3888.54 453.079 6
-8 16 -14 4509.82 534.303 5
-8 -8 -15 -243.608 269.81 3
-8 16 15 -9.07583 224.273 6
-16 8 -15 -172.545 249.325 3
-8 16 -15 -283.742 320.752 5
-8 -8 -16 2071.33 408.808 3
-8 16 16 1365.8 311.918 6
-16 8 -16 1229.38 325.002 3
-8 16 -16 1358.68 335.178 5
-8 -8 -17 93.9915 226.175 3
-8 16 17 -161.958 208.562 6
-16 8 -17 -107.162 203.948 3
-8 16 -17 -394.422 293.46 5
-8 -8 -18 251.755 231.805 3
-8 16 18 502.322 214.368 6
-16 8 -18 -46.5239 218.449 3
-8 16 -18 568.97 289.358 5
-8 -8 -19 -553.669 223.765 3
-16 8 -19 137.245 190.875 3
-8 16 -19 -217.849 227.652 5
-8 -8 -20 74.8118 175.707 3
-16 8 -20 121.663 167.645 3
-8 16 -20 -128.239 191.473 5
-16 8 -21 209.896 162.947 3
-8 -8 -21 46.4931 144.157 3
16 -9 0 8582.44 1059.87 2
16 -7 0 7977.9 988.242 2
16 -9 -1 11932.6 1269.74 2
16 -9 1 12691.5 1273.49 2
16 -7 -1 10742.1 1181.02 2
16 -7 1 13170.8 1290.76 2
16 -9 -2 3389.03 725.504 2
16 -9 2 3580.24 751.782 2
16 -7 -2 3544.75 708.42 2
16 -7 2 3303.33 723.81 2
16 -9 -3 1564.49 523.453 2
16 -9 3 1794.95 521.153 2
16 -7 -3 1457.85 579.114 2
16 -7 3 1582.48 540.502 2
-7 16 -3 1797.66 287.154 4
-7 16 3 1617.95 273.806 4
-9 16 -3 1292.38 285.881 4
-9 16 3 883.505 256.868 4
9 7 3 1159.11 243.917 6
7 9 3 1251.12 243.716 6
16 -9 -4 1679.6 530.865 2
16 -9 4 881.102 496.156 2
16 -7 -4 1383.39 503.707 2
16 -7 4 1462.19 486.295 2
-7 16 -4 1246.55 245.956 4
-7 16 4 1372.74 259.381 4
-9 16 -4 1536.38 281.928 4
-9 16 4 1011.73 246.326 4
9 7 4 1352.81 270.757 6
7 9 4 1251.27 247.833 6
-7 16 4 1167.22 274.323 6
-9 16 4 1298.12 287.437 6
16 -9 -5 3134.76 692.576 2
16 -9 5 3510.74 693.75 2
9 7 5 3812.82 378.706 6
16 -7 -5 3749.15 721.393 2
16 -7 5 3069.73 686.031 2
-7 16 -5 3031.54 369.514 4
-7 16 5 2922.25 349.463 4
-9 16 5 2554.26 335.427 4
-9 16 -5 3221.16 357.526 4
7 9 5 3508.84 372.913 6
-7 16 5 3577.59 376.437 6
-9 16 5 3947.47 427.066 6
-7 16 -5 3098.09 357.083 5
-9 16 -6 1041.08 244.406 5
16 -9 -6 1111.89 476.802 2
16 -9 6 480.208 267.266 2
16 -7 -6 953.721 419.766 2
-7 16 -6 1019.36 244.134 4
-7 16 6 1071.97 249.031 4
16 -7 6 294.865 267.371 2
-9 16 -6 1572.3 271.172 4
-9 16 6 1033.07 254.116 4
9 7 6 965.879 202.649 6
7 9 6 972.881 254.446 6
-7 16 6 1112.09 275.566 6
-9 16 6 830.747 268.32 6
-7 16 -6 1089.72 258.578 5
16 -9 -7 3113.05 667.781 2
16 -9 7 1661.44 495.281 2
-7 16 -7 1487.53 256.641 4
-7 16 7 1522.05 285.463 4
16 -7 -7 2052.56 564.526 2
-9 16 -7 1993.85 312.083 4
-9 16 7 1774.16 301.88 4
16 -7 7 1903.1 579.287 2
-9 16 -7 1764.29 314.894 5
9 7 7 1895.42 305.382 6
7 9 7 1688.98 290.348 6
-7 16 7 2327.39 375.256 6
-9 16 7 2607.36 388.539 6
-7 16 -7 1369.95 287.989 5
-9 16 -8 928.611 295.043 5
16 -9 -8 106.157 356.689 2
16 -9 8 502.156 335.358 2
-7 16 -8 556.647 206.515 4
-7 16 8 377.839 164.096 4
-9 16 -8 598.162 221.078 4
-9 16 8 87.4006 179.617 4
16 -7 -8 479.098 439.782 2
16 -7 8 -433.832 357.897 2
9 7 8 692.448 247.012 6
7 9 8 360.727 197.203 6
-7 16 8 543.128 213.42 6
-9 16 8 17.033 247.098 6
-7 16 -8 307.676 232.613 5
-9 16 -9 223.949 243.63 5
9 7 9 130.443 169.663 6
7 9 9 -125.609 196.862 6
-7 16 9 177.916 227.616 6
-9 16 9 423.009 251.136 6
-7 16 -9 87.233 222.926 5
-9 16 -10 789.352 279.789 5
7 9 10 233.465 207.519 6
9 7 10 473.231 210.876 6
-7 16 10 139.949 224.295 6
-9 16 10 155.056 251.523 6
-7 16 -10 36.3186 232.703 5
-9 16 -11 655.607 286.687 5
-9 16 -11 478.775 222.866 3
-16 7 -11 392.399 205.869 3
-16 9 -11 1593.68 744.179 1
-16 7 -11 1264.1 546.194 1
-9 -7 -11 981.633 326.188 3
-7 -9 -11 437.019 250.723 3
9 7 11 589.909 214.607 6
7 9 11 495.637 218.782 6
-7 16 11 1099.8 315.727 6
-9 16 11 369.234 260.385 6
-7 16 -11 435.601 250.863 5
-9 16 -12 533.972 269.855 5
-16 7 -12 951.894 288.204 3
-9 16 -12 683.877 253.283 3
-9 -7 -12 1039.32 338.752 3
-7 -9 -12 483.416 288.003 3
7 9 12 293.629 184.87 6
9 7 12 236.508 198.61 6
-7 16 12 1106.01 306.815 6
-9 16 12 634.049 295.115 6
-7 16 -12 594.473 291.468 5
-16 9 -12 396.313 185.4 3
-16 7 -13 2058.62 370.785 3
9 7 13 1400.88 276.408 6
-9 16 -13 1539.94 295.59 3
-9 -7 -13 2982.31 460.757 3
-7 -9 -13 2181.24 398.701 3
-7 16 13 1855.45 346.699 6
7 9 13 1314.3 268.792 6
-7 16 -13 2306.04 407.357 5
-9 16 13 2389.6 390.323 6
-16 9 -13 2132.98 350.852 3
-9 16 -13 2187.41 388.632 5
-16 7 -14 661.921 283.373 3
9 7 14 388.535 197.204 6
-9 -7 -14 1117.42 358.188 3
-7 -9 -14 673.406 305.663 3
-9 16 -14 550.365 250.562 3
7 9 14 648.302 228.936 6
-7 16 14 896.752 289.026 6
-9 16 14 478.371 254.478 6
-16 9 -14 888.321 287.693 3
-7 16 -14 894.17 328.508 5
-9 16 -14 1370.5 350.948 5
-9 -7 -15 2020.37 400.391 3
-7 -9 -15 2303.8 385.876 3
-9 16 -15 2099.8 415.044 3
7 9 15 1790.12 282.808 6
-7 16 15 1922.34 363.56 6
-9 16 15 1803.94 352.402 6
-16 9 -15 1897.59 374.815 3
-7 16 -15 2803.46 449.753 5
-16 7 -15 2238.73 413.55 3
-9 16 -15 2653.13 448.873 5
-9 -7 -16 210.057 243.908 3
-7 -9 -16 130.982 250.828 3
-9 16 -16 708.55 296.791 3
-7 16 16 638.068 247.741 6
-9 16 16 -5.66066 214.736 6
-16 9 -16 272.127 212.721 3
-7 16 -16 236.817 305.399 5
-16 7 -16 314.497 272.385 3
-9 16 -16 349.859 288.243 5
-7 -9 -17 310.185 252.307 3
-9 -7 -17 896.919 313.756 3
-7 16 17 242.751 193.358 6
-9 16 17 630.51 199.143 6
-16 9 -17 429.489 252.058 3
-16 7 -17 546.878 253.697 3
-7 16 -17 812.838 299.121 5
-9 16 -17 538.296 281.014 5
-7 -9 -18 -146.197 211.789 3
-9 -7 -18 -15.0374 230.687 3
-7 16 18 463.385 201.972 6
-9 16 18 599.117 220.524 6
-16 9 -18 -172.215 201.453 3
-16 7 -18 57.4662 230.932 3
-7 16 -18 23.4739 230.034 5
-9 16 -18 -100.189 231.163 5
-7 -9 -19 224.65 225.386 3
-9 -7 -19 239.479 221.726 3
-16 7 -19 209.703 223.425 3
-16 9 -19 26.6515 181.666 3
-7 16 -19 242.35 216.732 5
-9 16 -19 -224.826 232.068 5
-7 -9 -20 86.6748 155.936 3
-9 -7 -20 -166.208 195.063 3
-16 9 -20 444.021 211.459 3
-16 7 -20 462.397 212.327 3
-7 16 -20 161.994 199.132 5
-9 16 -20 -107.375 189.657 5
-7 -9 -21 34.692 115.596 3
-16 9 -21 385.948 172.332 3
-16 7 -21 -68.3085 169.136 3
-16 9 -21 -5.75966 156.887 5
-9 16 -21 -184.398 194.936 5
-9 -7 -21 292.249 178.877 3
16 -10 0 2175.98 596.49 2
16 -6 0 1792.71 583.299 2
-6 16 0 1884.75 288.452 4
16 -10 -1 3212.49 659.763 2
-6 16 1 2935.59 406.372 4
16 -6 -1 3881.82 754.795 2
16 -6 1 4393.61 800.664 2
-6 16 -1 2704.5 355.521 4
-10 16 1 3398.82 392.803 4
-10 16 -1 3134.48 379.731 4
16 -10 1 4170.87 786.052 2
16 -10 -2 1411.3 508.352 2
16 -10 2 1588.94 544.025 2
16 -6 -2 1167.01 361.76 2
16 -6 2 1203.88 424.912 2
-6 16 -2 1329.68 277.339 4
-6 16 2 700.885 198.409 4
-10 16 -2 1165.49 260.762 4
-10 16 2 1190.96 259.338 4
10 6 2 1589.65 261.098 6
6 10 2 1306.49 223.25 6
16 -10 3 1789.59 549.443 2
16 -6 -3 1342.44 494.372 2
-6 16 -3 2014.01 314.661 4
-6 16 3 1425.45 264.557 4
16 -6 3 2117.11 582.97 2
-10 16 -3 1771.91 280.209 4
-10 16 3 1824.84 290.137 4
10 6 3 2092.16 283.64 6
6 10 3 2344.38 319.566 6
-6 16 3 1948.48 272.886 6
16 -10 -3 2456.03 686.52 2
16 -10 -4 3868.19 781.652 2
16 -10 4 4210.38 777.814 2
6 10 4 4187.78 390.768 6
10 6 4 3617.56 377.619 6
-6 16 -4 4193.87 428.938 4
-6 16 4 4151.42 397.514 4
-10 16 4 3492.97 375.781 4
-10 16 -4 4450.32 434.694 4
16 -6 -4 4206.69 731.31 2
16 -6 4 3729.65 740.479 2
-6 16 4 3760.83 381.487 6
-10 16 -5 382.858 184.677 5
16 -10 -5 765.04 327.122 2
16 -10 5 171.616 353.244 2
-6 16 -5 223.829 211.2 4
-6 16 5 523.625 190.114 4
16 -6 -5 -84.027 286.639 2
16 -6 5 326.249 314.233 2
-10 16 5 -29.3336 207.109 4
-10 16 -5 384.193 225.093 4
10 6 5 307.133 156.769 6
6 10 5 396.197 189.561 6
-6 16 5 223.117 189.529 6
-6 16 -5 178.632 175.005 5
-10 16 -6 1021.44 228.821 5
16 -10 -6 729.93 321.119 2
16 -10 6 764.153 456.717 2
-6 16 -6 945.233 247.608 4
-6 16 6 1165.09 246.525 4
16 -6 -6 1771.95 536.221 2
6 10 6 1677.88 293.548 6
-10 16 -6 1161.31 249.326 4
-10 16 6 1269.52 240.925 4
16 -6 6 1499.93 540.573 2
10 6 6 1296.8 258.068 6
-6 16 6 1400.69 280.076 6
-6 16 -6 1418.49 271.135 5
-10 16 -7 276.484 189.345 5
16 -10 -7 -206.777 301.741 2
10 6 7 714.896 219.867 6
16 -10 7 864.049 435.316 2
-6 16 -7 167.329 175.131 4
-6 16 7 187.781 170.992 4
-10 16 -7 37.0271 178.906 4
-10 16 7 39.3122 186.798 4
16 -6 -7 722.182 371.81 2
16 -6 7 187.626 272.665 2
6 10 7 336.833 195.433 6
-6 16 7 624.982 278.42 6
-6 16 -7 183.191 179.346 5
-10 16 -8 293.675 211.319 5
16 -10 -8 427.71 379.023 2
16 -10 8 -321.571 461.616 2
-6 16 -8 329.701 184.68 4
-6 16 8 26.0742 160.829 4
-10 16 -8 327.177 203.818 4
-10 16 8 152.418 185.66 4
16 -6 -8 323.175 326.853 2
16 -6 8 -341.099 410.97 2
10 6 8 -22.7398 153.701 6
6 10 8 83.2849 179.58 6
-6 16 8 208.068 200.343 6
-10 16 8 33.0381 252.405 6
-6 16 -8 21.9942 200.231 5
-6 16 9 54.7685 196.687 6
10 6 9 532.663 225.315 6
-10 16 -9 233.716 217.87 5
6 10 9 50.9389 185.563 6
-10 16 9 480.889 273.934 6
-6 16 -9 535.006 259.56 5
-10 16 -10 631.812 278.221 5
-16 6 -10 326.349 219.901 3
-16 6 -10 25.0405 369.677 1
10 6 10 419.165 218.578 6
6 10 10 589.845 187.096 6
-6 16 10 395.259 237.593 6
-10 16 10 138.549 286.137 6
-6 16 -10 327.604 266.149 5
-10 16 -11 1211.23 306.526 5
6 10 11 1152.22 281.376 6
-16 6 -11 1610.29 335.36 3
-16 10 -11 1873.81 682.66 1
-16 6 -11 1342.09 681.829 1
-10 -6 -11 1367.4 343.425 3
-6 -10 -11 1498.54 327.73 3
10 6 11 1482 299.077 6
-6 16 11 1920.67 370.059 6
-10 16 11 1564.8 366.224 6
-6 16 -11 1847.33 389.864 5
-10 16 -12 1381.37 320.186 5
-16 6 -12 1338.42 319.496 3
10 6 12 1350.79 260.891 6
-10 -6 -12 1234.13 364.553 3
-6 -10 -12 753.753 301.53 3
-10 16 -12 863.052 222.893 3
6 10 12 1043.04 248.363 6
-6 16 12 828.661 294.349 6
-10 16 12 1320.42 331.112 6
-6 16 -12 1204.46 344.858 5
-10 16 -13 2098.54 419.176 5
-16 6 -13 1738.06 350.438 3
-6 16 13 1698.61 342.561 6
-10 -6 -13 2419.11 423.184 3
-6 -10 -13 1539.95 319.012 3
-10 16 -13 1545.47 347.063 3
6 10 13 1823.88 315.336 6
-10 16 13 1740.84 362.204 6
-16 10 -13 1302.33 284.028 3
-6 16 -13 1946.42 408.201 5
-10 16 -14 1004.36 331.714 5
-16 6 -14 1214.14 329.897 3
-10 -6 -14 1640.35 374.352 3
6 10 14 1571.65 294.547 6
-6 -10 -14 890.599 300.803 3
-10 16 -14 1192.87 301.786 3
-6 16 14 1124.81 292.882 6
-10 16 14 1674.09 370.759 6
-16 10 -14 786.28 260.602 3
-6 16 -14 1142.81 347.147 5
-16 6 -15 606.105 292.29 3
-6 -10 -15 1056.18 315.066 3
6 10 15 759.922 218.462 6
-10 -6 -15 1162.05 350.046 3
-6 16 15 1162.54 280.681 6
-10 16 -15 757.171 280.936 3
-10 16 15 924.856 281.685 6
-16 10 -15 661.488 262.319 3
-6 16 -15 864.506 328.587 5
-10 16 -15 360.72 266.249 5
-10 -6 -16 288.25 271.334 3
-6 -10 -16 120.452 212.717 3
-10 16 -16 498.698 264.118 3
-6 16 16 122.899 193.574 6
-10 16 16 220.355 238.44 6
-16 10 -16 -28.9928 229.135 3
-6 16 -16 104.767 256.243 5
-16 6 -16 149.832 258.816 3
-10 16 -16 421.125 303.601 5
-6 -10 -17 516.625 237.799 3
-10 -6 -17 805.666 295.018 3
-6 16 -17 488.643 279.336 5
-10 16 -17 474.343 238.371 3
-6 16 17 225.783 168.633 6
-10 16 17 43.6217 192.317 6
-16 10 -17 87.9273 207.745 3
-16 6 -17 224.386 216.866 3
-10 16 -17 226.069 281.152 5
-10 -6 -18 -197.927 237.729 3
-6 -10 -18 335.052 217.889 3
-6 16 18 709.473 228.937 6
-10 16 18 431.618 207.57 6
-16 10 -18 538.286 229.505 3
-6 16 -18 473.828 251.618 5
-16 6 -18 -4.17363 229.651 3
-10 16 -18 303.025 280.39 5
-6 -10 -19 100.676 171.274 3
-10 -6 -19 -59.3679 208.98 3
-16 10 -19 18.3668 180.789 3
-16 6 -19 57.7157 208.478 3
-6 16 -19 -230.433 221.419 5
-10 16 -19 390.803 249.034 5
-10 -6 -20 -19.9029 175.058 3
-16 10 -20 -316.002 190.662 3
-16 6 -20 207.858 195.225 3
-10 16 -20 14.952 188.394 5
-6 -10 -20 -29.9459 136.74 3
-16 10 -21 -130.292 152.7 5
-10 -6 -21 210.828 162.396 3
-16 10 -21 353.891 169.836 3
-16 6 -21 -44.4885 157.654 3
-10 16 -21 49.609 160.407 5
-6 -10 -21 31.7209 93.1059 3
16 -11 0 1111.83 500.576 2
-5 16 0 722.161 230.658 4
16 -5 0 1026.41 472.107 2
-11 16 0 689.63 240.555 4
16 -11 -1 1281.4 535.929 2
16 -11 1 1249.14 530.478 2
-5 16 -1 1039.79 239.476 4
16 -5 -1 1145.8 494.36 2
16 -5 1 1506.08 460.442 2
-11 16 -1 1061.94 256.557 4
-11 16 1 1449.13 292.084 4
-5 16 1 1161.31 266.079 4
16 -11 -2 95.8565 343.762 2
16 -11 2 244.236 393.293 2
-5 16 -2 442.189 210.036 4
-5 16 2 67.2919 206.858 4
16 -5 -2 1134.74 564.469 2
16 -5 2 -295.532 429.404 2
-11 16 -2 588.042 225.692 4
-11 16 2 306.772 216.593 4
5 11 2 361.544 193.974 6
16 -11 -3 1385.18 432.884 2
16 -11 3 1581.65 478.964 2
-5 16 -3 970.096 241.373 4
-5 16 3 1372.35 297.101 4
16 -5 -3 1453.42 524.398 2
16 -5 3 1186.99 518.139 2
5 11 3 1021.91 231.727 6
-11 16 -3 1073.15 253.851 4
-11 16 3 1154.68 267.939 4
11 5 3 823.025 190.074 6
-5 16 3 1281.42 259.553 6
16 -11 -4 -86.6134 399.798 2
16 -11 4 123.447 425.04 2
-5 16 -4 496.498 231.742 4
-5 16 4 -131.345 189.669 4
16 -5 -4 -163.45 407.49 2
16 -5 4 557.504 441.977 2
-11 16 -4 502.027 245.474 4
-11 16 4 202.112 197.758 4
11 5 4 357.978 208.572 6
-5 16 -4 80.5603 151.211 5
5 11 4 264.984 189.678 6
-5 16 4 165.449 187.027 6
16 -11 -5 1125.42 496.758 2
16 -11 5 1217.48 590.041 2
-5 16 -5 920.449 241.873 4
-5 16 5 858.16 239.35 4
16 -5 -5 1470.35 553.849 2
-11 16 -5 672.372 241.28 4
-11 16 5 745.593 233.619 4
16 -5 5 364.061 315.85 2
11 5 5 883.806 233.675 6
5 11 5 921.845 252.268 6
-5 16 5 618.216 209.442 6
-5 16 -5 874.661 238.713 5
-11 16 -6 1791.28 312.654 5
16 -11 -6 919.09 459.204 2
16 -11 6 2146.92 597.52 2
-5 16 -6 1240.89 281.809 4
-5 16 6 818.192 235.118 4
-11 16 6 991.263 259.043 4
-11 16 -6 1531.98 295.887 4
16 -5 -6 1535.74 584.869 2
16 -5 6 1971.1 554.538 2
5 11 6 1258.25 275.594 6
11 5 6 1218.35 240.771 6
-5 16 6 1581.8 319.848 6
-5 16 -6 1142.67 252.21 5
16 -11 -7 425.936 314.634 2
16 -11 7 -46.0075 521.939 2
-11 16 -7 532.03 214.25 5
-5 16 -7 362.831 189.964 4
-5 16 7 808.561 256.064 4
-11 16 -7 418.592 202.503 4
-11 16 7 469.976 216.272 4
16 -5 7 828.613 459.21 2
11 5 7 213.599 183.288 6
5 11 7 411.818 214.781 6
-5 16 7 536.896 221.809 6
-5 16 -7 148.4 190.669 5
-11 16 -8 2699.57 371.966 5
16 -11 -8 2443.22 643.111 2
16 -11 8 3262.02 747.13 2
11 5 8 3677.2 405.17 6
-5 16 -8 2581.53 332.013 4
-5 16 8 3063.7 352.589 4
-11 16 -8 2981.18 352.611 4
-11 16 8 2583.96 354.841 4
16 -5 -8 2168.56 564.967 2
16 -5 8 3257.42 634.803 2
-5 16 8 4243.77 439.876 6
5 11 8 3608.17 408.337 6
-5 16 -8 3750.61 417.604 5
-11 16 -9 968.425 280.806 5
-16 5 -9 837.583 225.914 3
11 5 9 875.743 244.688 6
5 11 9 1469.11 322.772 6
-5 16 9 857.311 258.319 6
-5 16 -9 988.997 288.129 5
-16 5 -10 3625.33 433.706 3
-11 -5 -10 4396.42 513.116 3
-16 5 -10 3490.36 830.388 1
11 5 10 2787.9 350.204 6
5 11 10 3265.56 406.037 6
-5 16 10 3589.48 429.322 6
-11 16 10 3846.7 500.428 6
-11 16 -10 4343.79 484.215 5
-5 16 -10 2884.6 402.784 5
-11 16 -11 -127.577 249.518 5
-5 -11 -11 132.649 241.916 3
-16 5 -11 -249.902 228.01 3
-16 11 -11 -1071.1 806.596 1
-16 5 -11 61.5582 357.934 1
-11 -5 -11 22.0805 238.331 3
5 11 11 86.5333 195.931 6
-5 16 11 470.732 254.273 6
-11 16 11 69.7814 285.09 6
-5 16 -11 -138.688 246.937 5
-11 16 -12 806.608 311.527 5
-16 5 -12 914.497 313.466 3
-11 -5 -12 619.766 298.932 3
-5 -11 -12 996.868 278.049 3
5 11 12 890.378 253.596 6
-5 16 12 716.947 277.243 6
-11 16 12 976.688 334.584 6
-5 16 -12 487.54 281.638 5
-11 16 -13 -61.3254 295.366 5
-16 5 -13 260.793 286.001 3
-11 -5 -13 58.7631 299.527 3
-5 -11 -13 505.879 269.249 3
-11 16 -13 422.557 218.857 3
5 11 13 264.55 201.686 6
-5 16 13 190.571 216.54 6
-11 16 13 332.021 257.151 6
-5 16 -13 224.797 242.039 5
-11 16 -14 616.673 282.498 5
-16 5 -14 316.228 263.224 3
-11 -5 -14 731.871 339.197 3
-5 -11 -14 523.907 235.698 3
-11 16 -14 447.886 198.532 3
-5 16 14 201.418 207.42 6
5 11 14 450.792 207.728 6
-11 16 14 469.311 246.642 6
-16 11 -14 320.227 230.499 3
-5 16 -14 781.074 328.277 5
-11 16 -15 4.71256 269.459 5
-11 -5 -15 70.2805 279.596 3
-5 -11 -15 -358.759 242.52 3
-11 16 -15 -209.717 219.372 3
5 11 15 339.291 190.199 6
-16 11 -15 630.18 287.559 3
-5 16 15 -73.2491 217.827 6
-16 5 -15 -105.096 271.403 3
-11 16 15 -293.515 274.727 6
-5 16 -15 31.221 256.591 5
-16 5 -16 715.331 299.894 3
-11 -5 -16 129.909 272.934 3
-5 -11 -16 -35.8046 210.953 3
-16 11 -16 45.8984 186.332 3
5 11 16 188.802 162.936 6
-11 16 -16 -281.898 236.132 3
-5 16 16 13.4374 189.928 6
-11 16 16 98.6459 204.29 6
-5 16 -16 106.767 254.699 5
-11 16 -16 331.249 279.597 5
-5 -11 -17 -145.922 184.845 3
-11 -5 -17 298.493 290.181 3
-11 16 -17 -12.7531 203.68 3
-5 16 17 376.412 231.761 6
-16 11 -17 -39.3169 189.29 3
-11 16 17 517.321 260.087 6
-5 16 -17 453.966 272.186 5
-16 5 -17 819.979 300.961 3
-11 16 -17 -39.3502 277.958 5
-5 -11 -18 147.893 193.021 3
-11 -5 -18 44.4098 236.887 3
-5 16 18 94.5868 157.933 6
-16 11 -18 324.968 196.172 3
-11 16 18 -29.32 181.481 6
-5 16 -18 586.092 277.153 5
-16 5 -18 -327.495 231.844 3
-11 16 -18 28.4352 247.239 5
-5 -11 -19 148.469 161.459 3
-11 -5 -19 187.582 227.452 3
-16 11 -19 -92.6399 182.131 3
-16 5 -19 389.15 252.756 3
-11 16 -19 97.6271 231.39 5
-11 -5 -20 48.4306 169.869 3
-16 11 -20 -2.02574 158.563 3
-16 5 -20 -187.691 187.135 3
-11 16 -20 -128.945 197.087 5
-4 16 0 1367.29 267.712 4
16 -4 0 1465.34 526.497 2
-12 16 0 1498.23 270.805 4
4 12 0 1687.52 256.284 6
16 -12 0 2002.83 567.742 2
16 -12 -1 5108.38 922.898 2
16 -12 1 3369.17 743.085 2
-4 16 -1 4103.59 432.122 4
-4 16 1 3912.5 412.227 4
16 -4 -1 3821.49 775.587 2
16 -4 1 3753.72 738.198 2
-12 16 -1 3630.18 397.613 4
-12 16 1 3998.47 406.394 4
4 12 1 4030.99 374.093 6
16 -12 -2 783.195 547.324 2
16 -12 2 421.648 453.313 2
-4 16 -2 124.203 191.718 4
-4 16 2 753.496 245.352 4
16 -4 -2 429.324 396.639 2
16 -4 2 152.649 339.715 2
-12 16 -2 400.156 203.358 4
-12 16 2 183.86 184.091 4
4 12 2 334.591 202.806 6
-4 16 2 288.874 179.211 6
16 -12 3 370.103 483.154 2
-4 16 -3 263.999 191.506 4
-4 16 3 125.099 184.144 4
16 -4 -3 477.048 434.885 2
16 -4 3 -418.742 413.04 2
-12 16 -3 216.023 188.345 4
-12 16 3 177.428 175.693 4
16 -12 -3 720.081 507.904 2
4 12 3 323.335 211.882 6
-4 16 3 -0.38655 152.274 6
16 -12 -4 -27.0816 356.699 2
16 -12 4 78.1966 331.326 2
-4 16 -4 145.509 177.553 4
-4 16 4 305.607 182.864 4
4 12 4 222.204 177.013 6
-12 16 -4 359.761 205.658 4
-12 16 4 282.098 196.461 4
16 -4 -4 81.102 394.036 2
16 -4 4 182.084 255.215 2
-4 16 4 364.481 256.91 6
-4 16 -4 113.425 172.417 5
16 -12 5 888.292 436.988 2
-4 16 -5 1056.33 244.37 4
-4 16 5 545.396 235.198 4
16 -12 -5 851.472 439.866 2
-12 16 -5 1162.64 272.822 4
-12 16 5 650.521 246.653 4
16 -4 -5 944.032 445.082 2
16 -4 5 942.596 442.168 2
4 12 5 861.322 222.527 6
-4 16 5 814.39 268.902 6
-4 16 -5 982.821 264.001 5
16 -12 -6 367.578 302.469 2
16 -12 6 1044.11 446.108 2
-4 16 6 278.945 186.826 4
-12 16 -6 756.168 233.466 4
-12 16 6 484.215 216.997 4
16 -4 -6 25.3359 319.392 2
16 -4 6 314.882 370.446 2
4 12 6 503.829 205.578 6
-4 16 6 690.739 266.437 6
-4 16 -6 659.19 215.568 4
-4 16 -6 582.981 241.41 5
-4 16 -7 3712.61 390.97 4
16 -12 -7 3668.87 772.892 2
16 -12 7 3360.51 752.354 2
-4 16 7 3312.14 389.29 4
-12 16 -7 3937.53 774.081 1
-12 16 -7 3270.13 407.198 4
-12 16 7 3319.5 382.372 4
16 -4 7 4176.6 772.284 2
4 12 7 3984.69 421.839 6
-4 16 7 3694.64 412.725 6
16 -4 -7 3260.56 741.27 2
-4 16 -7 4438.99 462.712 5
16 -4 -8 560.949 347.757 2
16 -12 -8 -269.596 484.267 2
16 -12 8 -65.8233 340.913 2
-4 16 -8 453.998 196.491 4
-4 16 8 584.233 203.883 4
16 -4 8 1.4637 367.361 2
-16 4 -8 419.797 226.703 3
-12 16 -8 933.371 431.897 1
-12 16 8 701.607 213.713 4
-12 16 -8 507.419 220.272 4
4 12 8 191.715 171.054 6
-4 16 8 651.978 250.595 6
-4 16 -8 333.864 219.721 5
-16 4 -9 4710.98 461.613 3
-12 16 -9 4399.64 888.035 1
4 12 9 5804.94 518.05 6
-4 16 9 5334.71 483.411 6
-4 16 -9 5666.79 536.655 5
-16 4 -10 1206.92 320.767 3
-12 -4 -10 528.119 257.409 3
-12 16 -10 1039.11 435.557 1
4 12 10 850.585 261.643 6
-4 16 10 915.397 293.041 6
-4 16 -10 638.758 280.569 5
-12 16 -11 2140.25 389.513 5
-16 4 -11 2843.39 401.585 3
-12 -4 -11 2414.09 404.208 3
-4 -12 -11 2584.67 377.16 3
4 12 11 2495.37 370.831 6
-4 16 11 2388.21 368.266 6
-4 16 -11 2660.12 420.56 5
-12 16 -12 905.172 319.743 5
-16 4 -12 1258.86 324.615 3
-12 -4 -12 471.82 326.127 3
-4 -12 -12 740.564 266.423 3
4 12 12 687.205 244.012 6
-4 16 12 350.054 227.096 6
-12 16 12 605.49 337.585 6
-4 16 -12 215.174 274.911 5
-4 16 13 111.695 213.964 6
-12 -4 -13 415.269 292.607 3
-4 -12 -13 -34.0333 216.892 3
-16 4 -13 -270.414 249.154 3
4 12 13 90.3906 191.625 6
-12 16 13 741.106 351.78 6
-12 16 -13 181.697 262.189 5
-4 16 -13 -102.618 243.749 5
-12 16 -14 159.767 266.696 5
-16 4 -14 199.815 226.953 3
-12 -4 -14 602.217 320.243 3
-4 -12 -14 333.838 221.326 3
-12 16 -14 369.829 214.147 3
4 12 14 523.81 228.237 6
-4 16 14 493.387 255.37 6
-12 16 14 245.766 273.451 6
-4 16 -14 711.19 315.951 5
-12 16 -15 260.602 281.093 5
-16 4 -15 182.574 281.557 3
-12 -4 -15 232.269 267.799 3
-4 -12 -15 642.391 267.442 3
-12 16 -15 256.939 218.34 3
4 12 15 145.392 165.605 6
-4 16 15 528.875 233.935 6
-16 12 -15 127.795 182.916 3
-12 16 15 315.656 249.283 6
-4 16 -15 277.133 261.705 5
-12 16 -16 509.109 309.208 5
-16 4 -16 74.9081 224.742 3
-4 -12 -16 219.273 192.729 3
-12 -4 -16 229.723 256.056 3
-12 16 -16 98.5345 219.86 3
4 12 16 378.702 200.837 6
-16 12 -16 -262.273 241.111 3
-4 16 16 114.347 198.899 6
-12 16 16 148.522 214.124 6
-4 16 -16 -575.971 303.761 5
-4 -12 -17 -26.8931 163.951 3
-12 -4 -17 7.76779 259.449 3
-12 16 -17 473.826 216.283 3
-4 16 17 -10.8833 161.105 6
-16 12 -17 -240.012 223.631 3
-12 16 17 161.067 191.185 6
-12 16 -17 -25.9548 246.275 5
-16 4 -17 29.6846 233.468 3
-4 -12 -18 59.6152 149.108 3
-12 -4 -18 146.395 247.489 3
-12 16 -18 -315.902 210.997 3
-4 16 18 250.216 171.737 6
-16 12 -18 -66.1682 204.056 3
-12 16 18 369.858 205.82 6
-16 4 -18 -206.741 220.727 3
-12 16 -18 -36.1409 230.737 5
-12 -4 -19 113.942 213.197 3
-16 12 -19 279.49 175.435 3
-16 4 -19 -180.244 214.63 3
-12 16 -19 -139.012 220.485 5
-12 -4 -20 33.0569 179.517 3
-16 12 -20 24.4654 178.231 5
-16 12 -20 87.0201 140.517 3
-16 4 -20 13.5254 164.625 3
-12 16 -20 180.848 206.831 5
3 13 0 7792.54 568.117 4
-3 16 0 7392.94 547.025 4
16 -3 0 6022.3 928.583 2
3 13 0 6328.84 464.354 6
-3 16 0 6276.47 461.044 6
16 -13 0 6835.88 1005.24 2
3 13 -1 7534.26 552.478 4
3 13 1 6695.1 519.514 4
-3 16 -1 6707.5 533.747 4
-3 16 1 6431.83 528.441 4
16 -13 -1 8305.67 1118.18 2
-3 16 1 6431.56 473.034 6
16 -3 -1 6199.76 932.412 2
3 13 -1 5777.4 433.438 6
3 13 1 6840.25 484.389 6
16 -13 1 7709.6 1068.46 2
16 -3 1 7233.1 1018.29 2
-3 16 -2 3120.12 394.519 4
3 13 -2 3249.13 385.638 4
3 13 2 3011.86 393.1 4
-3 16 2 2948.87 366.209 4
-13 16 2 2779.16 364.213 4
-13 16 -2 2886.53 371.499 4
16 -3 -2 2749.63 684.937 2
16 -3 2 2595.19 691.504 2
3 13 2 3649.82 377.983 6
-3 16 2 3182.46 354.387 6
16 -13 -2 2962.51 711.229 2
16 -13 2 2794.52 690.603 2
-3 16 -3 -19.4547 206.547 4
-3 16 3 166.213 208.097 4
-13 16 3 129.177 204.718 4
-13 16 -3 187.906 198.833 4
16 -3 -3 213.763 295.29 2
16 -3 3 520.965 452.329 2
3 13 3 288.54 176.823 6
-3 16 3 -148.15 221.214 6
16 -13 -3 190.762 333.061 2
16 -13 3 589.75 443.261 2
16 -3 -4 523.348 362.012 2
16 -3 4 814.137 471.723 2
-3 16 -4 399.947 209.883 4
-3 16 4 1078.09 271.464 4
-13 16 4 748.972 268.101 4
-13 16 -4 919.674 254.898 4
3 13 4 581.96 204.79 6
-3 16 4 595.095 214.737 6
16 -13 -4 471.39 444.39 2
16 -13 4 657.416 415.417 2
16 -13 -5 1497.36 526.397 2
16 -13 5 1978.87 619.781 2
16 -3 -5 2194.82 651.954 2
-3 16 -5 1460.82 276.662 4
-3 16 5 1988.98 321.255 4
-13 16 -5 1956.9 330.327 4
-13 16 5 1801.21 312.149 4
16 -3 5 2662.98 666.31 2
3 13 5 1886.57 305.666 6
-3 16 5 1908.9 315.331 6
16 -13 -6 600.344 402.434 2
16 -13 6 760.061 384.287 2
-3 16 -6 990.958 240.149 4
-3 16 6 1250.13 283.179 4
-13 16 -6 1475.75 305.346 4
-13 16 6 911.048 249.954 4
16 -3 6 1219.4 495.954 2
16 -3 -6 1307.14 541.528 2
3 13 6 1427.73 272.371 6
-3 16 6 1360.55 287.573 6
-3 16 -6 1538.41 302.85 5
16 -13 -7 3031.94 707.995 2
16 -13 7 2192.76 686.571 2
-3 16 -7 2678.8 358.775 4
-3 16 7 3037.93 380.373 4
16 -3 7 2631.33 596.446 2
-16 3 -7 2755.7 353.864 3
-13 16 -7 3217.45 393.415 4
-13 16 7 2816.31 377.215 4
16 -3 -7 3733.44 796.324 2
3 13 7 2907.46 376.925 6
-3 16 7 3563.37 420.969 6
-3 16 -7 3579.99 428.687 5
16 -13 -8 3537.02 746.672 2
16 -13 8 4085.96 834.747 2
-3 16 -8 2806.61 358.405 4
-3 16 8 3236.96 383.47 4
-3 16 8 3307.76 401.167 6
-13 16 -8 1899.23 575.778 1
16 -3 8 3096.76 667.839 2
-16 3 -8 2925.58 385.766 3
-13 16 -8 2828.94 376.673 4
-13 16 8 2890.92 380.058 4
16 -3 -8 3169.05 726.688 2
3 13 8 3384.57 411.378 6
-3 16 -8 3589.45 424.986 5
-13 -3 -9 3951.58 479.432 3
-16 3 -9 3291.76 734.684 1
3 13 9 4323.41 450.193 6
-3 16 9 3902.71 433.522 6
-16 3 -9 3596.98 435.505 3
-3 16 -9 3115.86 423.559 5
-16 3 -10 3357.15 416.07 3
-13 -3 -10 4040.46 485.713 3
3 13 10 3795.38 434.147 6
-3 16 10 3143.32 395.832 6
-3 16 -10 3107.02 437.145 5
-16 3 -11 398.532 259.997 3
-13 -3 -11 715.324 318.595 3
-3 -13 -11 877.605 257.621 3
3 13 11 474.529 238.249 6
-3 16 11 572.397 259.853 6
-3 16 -11 952.067 346.829 5
-16 3 -12 1706.74 357.255 3
-13 -3 -12 1557.1 383.726 3
-3 -13 -12 1649.06 329.352 3
3 13 12 1386.76 290.652 6
-3 16 12 1861.02 332.354 6
-13 16 12 1662.42 391.522 6
-3 16 -12 1629.8 357.742 5
-13 16 -13 2404.92 406.044 5
-16 3 -13 2005.82 381.895 3
-13 -3 -13 1705.49 396.522 3
-3 -13 -13 1071.78 252.148 3
3 13 13 1229.4 282.651 6
-3 16 13 1144.03 261.163 6
-13 16 13 1183.23 362.508 6
-3 16 -13 1417.56 352.183 5
-13 16 -14 714.256 317.976 5
-16 3 -14 1343.76 346.155 3
-13 -3 -14 667.665 317.738 3
-3 -13 -14 744.096 251.677 3
3 13 14 528.625 234.281 6
-3 16 14 1313.76 310.236 6
-13 16 14 682.838 308.814 6
-3 16 -14 793.033 312.335 5
-13 16 -15 2727.34 453.262 5
-16 3 -15 1817.75 366.281 3
-13 16 -15 1586.48 307.481 3
-13 -3 -15 2316.7 440.971 3
-3 -13 -15 1838.36 298.604 3
3 13 15 1675.28 290.134 6
-3 16 15 2116.86 328.436 6
-13 16 15 2285.73 370.931 6
-13 16 -16 139.496 278.474 5
-16 3 -16 235.707 233.254 3
-3 -13 -16 244.744 197.72 3
-13 -3 -16 116.595 261.573 3
-13 16 -16 187.955 202.17 3
3 13 16 137.18 175.069 6
-3 16 16 -187.231 209.74 6
-13 16 16 567.954 249.421 6
-16 13 16 331.756 289.112 6
-13 16 -17 753.047 317.889 5
-16 3 -17 575.982 277.311 3
-13 -3 -17 769.595 308.114 3
-16 13 -17 54.4826 176.733 3
-3 16 17 341.198 184.725 6
-13 16 -17 622.631 226.68 3
3 13 17 415.076 156.634 6
-13 16 17 571.216 261.451 6
-13 16 -18 309.522 205.056 3
-13 -3 -18 368.247 256.879 3
-3 16 18 -8.38726 130.544 6
-16 13 -18 -47.0673 173.131 3
-13 16 18 321.822 208.387 6
-16 3 -18 264.324 220.933 3
-13 16 -18 76.5605 248.308 5
-13 -3 -19 90.6325 217.21 3
-16 13 -19 79.7727 206.912 5
-16 13 -19 -216.084 142.41 3
-16 3 -19 60.9238 192.759 3
-13 16 -19 16.9329 209.824 5
-16 13 -20 145.669 194.849 5
-16 13 -20 87.0813 141.599 3
-16 3 -20 120.238 197.595 3
-13 16 -20 -79.8694 181.132 5
-13 -3 -20 48.7862 175.785 3
2 14 0 11213.1 684.686 4
-2 16 0 10405.6 657.402 4
16 -14 0 10030.9 1309.46 2
2 14 0 9823.18 573.608 6
-2 16 0 9354.17 556.567 6
16 -2 0 10028.5 1177.8 2
2 14 -1 2558.93 365.093 4
2 14 1 2262.03 389.94 4
-2 16 -1 2281.67 335.739 4
-2 16 1 2413.43 370.593 4
16 -2 -1 2706.41 712.03 2
16 -2 1 2092.76 577.218 2
2 14 -1 1831.75 279.518 6
2 14 1 2192.33 299.834 6
-2 16 1 1980.72 302.636 6
16 -14 -1 2835.14 804.279 2
16 -14 1 1989.88 593.706 2
2 14 2 4427.16 453.533 4
-2 16 -2 4146.84 429.5 4
-2 16 2 4076.4 434.733 4
2 14 -2 3689.89 402.646 4
16 -2 2 2888.93 576.143 2
2 14 2 4106.45 399.145 6
16 -2 -2 3076.23 718.122 2
-2 16 2 3716.65 377.954 6
16 -14 -2 3145.51 708.771 2
16 -14 2 4647.29 882.045 2
2 14 -3 4518.48 461.376 4
2 14 3 4808.6 475.255 4
-2 16 -3 5069.58 499.71 4
-2 16 3 5112.79 485.932 4
-2 16 3 5408.11 463.485 6
2 14 3 5374.53 464.179 6
16 -2 -3 5134.19 869.625 2
16 -2 3 3952.69 788.291 2
16 -14 -3 4318.11 864.544 2
16 -14 3 4620.11 844.807 2
2 14 -4 30.344 192.7 4
2 14 4 427.872 233.925 4
-2 16 -4 429.729 214.222 4
-2 16 4 206.372 235.403 4
16 -2 -4 486.368 474.622 2
16 -2 4 286.551 340.379 2
2 14 4 222.872 184.922 6
-2 16 4 151.577 185.49 6
16 -14 -4 -152.019 310.473 2
16 -14 4 -161.401 423.504 2
2 14 5 2717.74 379.419 4
16 -2 -5 2168.08 673.793 2
-2 16 5 2526.4 353.468 6
-2 16 -5 2076.1 328.795 4
-2 16 5 2254.62 367.371 4
-14 16 5 2101.65 343.394 4
-14 16 -5 2069.65 333.664 4
-16 2 -5 1814.72 285.416 3
16 -2 5 1372.44 512.896 2
2 14 5 2363.47 346.557 6
16 -14 -5 2525.67 791.464 2
16 -14 5 2682.26 647.313 2
16 -14 6 2614.39 717.59 2
-2 16 -6 3311.79 420.35 4
-2 16 6 2957.8 379.19 4
-14 16 -6 3959.92 429.389 4
-14 16 6 2676.84 354.397 4
-16 2 -6 2769.28 353.473 3
2 14 6 3688.86 421.937 6
16 -2 -6 3532.17 736.509 2
-2 16 6 3383.46 383.172 6
16 -2 6 2578.71 631.009 2
16 -14 -6 2816.27 625.437 2
16 -14 7 1191.49 482.535 2
-2 16 -7 277.412 198.199 4
-2 16 7 318.648 212.885 4
-16 2 -7 693.014 250.499 3
-14 16 -7 556.529 277.982 4
-14 16 7 337.878 211.295 4
16 -2 -7 -310.6 507.534 2
16 -2 7 -89.5359 331.927 2
-2 16 7 280.802 197.982 6
16 -14 -7 778.089 426.732 2
2 14 7 532.093 236.018 6
-2 16 -8 3388.31 393.094 4
-2 16 8 3398.65 404.383 4
16 -14 -8 3398.94 737.395 2
16 -14 8 1595.2 419.745 2
-16 2 -8 3473.03 418.655 3
-14 16 -8 3593.26 418.262 4
-14 16 8 3648.73 416.819 4
-2 16 8 4146.08 457.132 6
-14 -2 -8 3871.86 442.618 3
2 14 8 3953.68 431.275 6
16 -2 -8 2300.02 591.297 2
16 -2 8 2523.6 679.082 2
-14 16 -9 2648.96 788.733 1
-16 2 -9 3291.58 424.374 3
-14 16 9 3105.68 402.201 4
-14 -2 -9 3606.1 448.971 3
-2 16 9 2865 363.178 4
2 14 9 3742.9 430.184 6
-2 16 9 2974.58 380.992 6
-16 2 -10 1332.83 306.972 3
-2 16 10 1418.24 308.711 6
-14 -2 -10 2054.43 408.548 3
2 14 10 1690.67 304.938 6
-2 -14 -11 5961.16 476.415 3
-16 2 -11 5917.4 538.411 3
-14 -2 -11 6589.28 583.694 3
2 14 11 6190.76 542.879 6
-2 16 11 6910.33 576.637 6
-16 2 -12 523.578 286.127 3
-14 -2 -12 72.5756 272.752 3
-2 -14 -12 143.771 181.56 3
2 14 12 801.42 233.254 6
-2 16 12 582.784 233.329 6
-16 2 -13 2281.46 409.049 3
-14 -2 -13 2421.69 406.921 3
2 14 13 1573.52 294.262 6
-2 16 13 1588.95 300.039 6
-14 16 13 1872.13 395.345 6
-14 16 -14 2677.74 436.736 5
-16 2 -14 2895.74 441.766 3
-14 -2 -14 2572.64 444.359 3
2 14 14 1853.6 321.367 6
-2 16 14 2813.9 387.394 6
-14 16 14 2487.73 445.699 6
-14 16 -15 30.0415 271.195 5
-16 2 -15 11.5646 268.475 3
-14 -2 -15 -410.669 285.797 3
2 14 15 -79.6505 197.512 6
-2 16 15 73.6356 179.015 6
-14 16 15 -146.904 278.837 6
-14 16 -16 1256.98 337.116 5
-16 2 -16 697.159 311.145 3
-14 -2 -16 644.203 352.531 3
-2 16 16 822.556 233.491 6
2 14 16 713.904 203.533 6
-14 16 16 1522.59 332.82 6
-16 14 16 1193.58 322.881 6
-14 16 -17 543.342 290.454 5
-16 2 -17 985.396 293.804 3
-14 -2 -17 1051.26 335.678 3
-2 16 17 617.36 214.036 6
2 14 17 684.974 192.9 6
-14 16 17 163.449 211.128 6
-16 14 17 534.802 221.766 6
-16 14 -18 -116.236 263.795 5
-14 -2 -18 53.7917 239.553 3
-14 16 -18 723.244 217.09 3
-2 16 18 51.4584 126.261 6
-14 16 18 99.8971 155.693 6
-16 2 -18 -61.1833 204.389 3
-14 16 -18 39.4223 229.817 5
-14 -2 -19 838.084 265.327 3
-16 14 -19 947.867 267.331 5
-16 2 -19 487.684 210.562 3
-14 16 -19 530.451 242.086 5
-16 14 -20 -87.6468 181.304 5
-16 2 -20 0.2834 162.081 3
-14 16 -20 2.72807 168.493 5
-14 -2 -20 21.4888 158.769 3
1 15 0 68.8742 183.573 4
-1 16 0 272.78 214.061 4
16 -1 0 543.768 335.87 2
1 15 0 289.076 155.111 6
-1 16 0 616.518 187.695 6
15 1 0 79.6789 351.694 2
16 -15 0 442.445 408.779 2
1 15 1 3315.17 413.889 4
1 15 -1 2888.42 389.411 4
-1 16 -1 2963.58 388.642 4
-1 16 1 2564.76 364.677 4
-1 16 1 3258.04 368.791 6
16 -1 -1 2399.24 683.968 2
16 -1 1 2749.91 747.598 2
1 15 1 3184.08 352.819 6
-1 16 -1 2794.65 325.791 6
15 1 -1 3590.23 766.843 2
15 1 1 2982.5 691.066 2
1 15 -1 2579.8 320.84 6
16 -15 -1 3776.22 867.974 2
16 -15 1 3796.59 906.128 2
16 -1 2 2451.53 697.914 2
1 15 -2 2805.57 374.488 4
1 15 2 2604.65 360.856 4
-1 16 -2 3014.65 387.742 4
-1 16 2 2855.59 400.541 4
1 15 2 2983.67 379.988 6
16 -1 -2 3010.07 729.396 2
-1 16 2 2759.13 351.456 6
15 1 -2 2265.76 682.346 2
15 1 2 2436.7 636.772 2
16 -15 -2 2744.39 660.221 2
16 -15 2 2205.87 620.23 2
1 15 -3 2054.86 352.097 4
1 15 3 2428.81 350.992 4
-1 16 -3 2297.7 340.335 4
-1 16 3 2673.82 357.556 4
-1 16 3 2262.97 316.029 6
16 -1 3 2303.44 693.196 2
1 15 3 2752.36 350.333 6
15 1 -3 1766.78 630.354 2
15 1 3 879.286 433.802 2
16 -1 -3 1837.67 614.395 2
16 -15 -3 1885.18 639.578 2
16 -15 3 1965.41 582.821 2
1 15 -4 2130.7 326.172 4
1 15 4 2127.08 343.943 4
-1 16 -4 1980.47 315.591 4
-1 16 4 2235.84 337.695 4
16 -1 -4 1803.54 545.327 2
16 -1 4 2641.98 660.48 2
1 15 4 1867.83 323.73 6
-1 16 4 1901.54 315.663 6
16 -15 -4 1635.29 630.067 2
16 -15 4 2118.99 608.289 2
1 15 -5 1967.48 297.592 4
1 15 5 1711.82 303.051 4
-1 16 -5 2042.57 339.855 4
-1 16 5 2034.24 324.789 4
16 -1 -5 2025.98 553.404 2
16 -1 5 1689.32 512.659 2
1 15 5 1832.46 311.442 6
-1 16 5 1728.08 286.42 6
16 -15 -5 2025.35 539.638 2
16 -15 5 1436.13 489.64 2
1 15 -6 569.874 223.69 4
1 15 6 678.537 218.147 4
-1 16 -6 719.147 222.796 4
-1 16 6 515.01 237.617 4
-15 16 6 486.682 251.427 4
-15 16 -6 811.216 279.06 4
-16 1 -6 758.079 239.455 3
1 15 6 977.808 275.725 6
16 -1 -6 591.921 324.037 2
16 -1 6 676.873 443.229 2
-1 16 6 424.963 230.14 6
16 -15 -6 652.312 486.551 2
16 -15 6 947.105 438.091 2
16 -15 7 4238.5 792.959 2
-1 16 -7 4757.9 456.043 4
-1 16 7 5353.22 494.87 4
-16 1 -7 5513.24 494.961 3
16 -1 -7 4683.51 856.535 2
-15 16 -7 4710.72 474.252 4
-15 16 7 4494.08 456.798 4
-1 16 7 4642.5 458.143 6
1 15 7 4958.51 486.442 6
-15 -1 -7 5561.04 515.238 3
15 -16 -7 2936.37 672.559 2
15 -16 7 3127.71 671.804 2
16 -15 -7 3477.55 741.782 2
16 -15 -8 1830.29 548.721 2
16 -15 8 1703.86 526.351 2
-1 16 -8 2053.65 325.514 4
-1 16 8 1998.3 325.806 4
-16 1 -8 2443.86 360.115 3
-15 16 -8 1856.01 310.08 4
-15 16 8 1913.79 332.673 4
-15 -1 -8 2180.35 362.224 3
1 15 8 2454.21 348.08 6
-1 16 8 2545.37 374 6
15 -16 -8 2346.26 538.694 2
15 -16 8 2568.42 767.197 2
-15 16 -9 4415.72 998.451 1
-15 16 9 4071.68 427.761 4
-16 15 9 3812.95 413.721 4
-16 1 -9 5018.43 502.658 3
-15 -1 -9 5821.86 545.652 3
1 15 9 5064.25 499.347 6
-1 16 9 4960.04 491.703 6
-15 -1 -10 5011.23 524.253 3
-16 1 -10 4881.22 513.184 3
1 15 10 6011.99 546.68 6
-1 16 10 5584.46 518.031 6
-16 1 -11 5553.06 529.306 3
-15 -1 -11 5710.77 564.346 3
1 15 11 5535.15 522.621 6
-1 16 11 6023.48 533.066 6
-16 1 -12 3170.95 422.015 3
-15 -1 -12 3774.13 491.441 3
1 15 12 4067.6 456.302 6
-1 16 12 3597.65 418.792 6
-16 1 -13 3192.39 459.764 3
-15 -1 -13 2358.67 433.664 3
1 15 13 2911.14 385.553 6
-1 16 13 2662.38 366.948 6
-16 1 -14 904.078 327.204 3
-15 -1 -14 295.732 276.582 3
1 15 14 297.18 214.113 6
-1 16 14 425.515 211.791 6
-15 16 14 715.017 338.986 6
-15 16 -15 -14.1069 256.601 5
-16 1 -15 517.757 262.297 3
-15 -1 -15 510.316 286.252 3
1 15 15 44.7677 175.255 6
-1 16 15 456.33 211.035 6
-15 16 15 119.1 274.41 6
-16 15 15 -277.787 273.835 6
-15 16 -16 717.346 308.343 5
-16 1 -16 530.614 251.084 3
-15 -1 -16 187.441 240.419 3
-1 16 16 537.133 195.549 6
1 15 16 360.664 205.564 6
-15 16 16 736.089 272.357 6
-16 15 16 442.69 249.804 6
-15 16 -17 23.1531 256.404 5
-16 15 -17 162.013 245.565 5
-16 1 -17 -29.2483 226.716 3
-15 -1 -17 423.977 268.31 3
-1 16 17 82.1986 141.671 6
1 15 17 115.879 154.451 6
-15 16 17 -185.639 193.564 6
-16 15 17 50.9505 209.377 6
-15 16 -18 1522.65 304.485 5
-16 1 -18 1290.47 297.062 3
-16 15 -18 1217.64 304.523 5
-15 -1 -18 1189.98 300.719 3
-1 16 18 935.587 196.875 6
-16 15 -19 193.091 181.598 5
-16 1 -19 187.257 184.489 3
-15 16 -19 286.345 196.141 5
-15 -1 -19 131.25 190.11 3
0 16 0 662.401 228.043 4
0 16 0 251.891 161.712 6
16 0 0 880.864 559.302 2
0 16 -1 2015.75 344.391 4
0 16 1 1420.97 304.005 4
0 16 -1 1570.17 276.449 6
0 16 1 1451.18 263.725 6
16 0 -1 963.41 558.63 2
16 0 1 1985.47 675.081 2
0 16 -2 3073.93 407.177 4
0 16 2 3275.54 413.416 4
0 16 2 3942.87 422.038 6
16 0 -2 2460.07 606.75 2
16 0 2 2241.28 649.006 2
0 16 -3 1776.19 336.473 4
0 16 3 1692.59 343.535 4
16 0 -3 1341.4 620.11 2
16 0 3 1218.23 466.232 2
0 16 3 1714.5 305.839 6
0 16 -4 947.725 255.804 4
0 16 4 1225.49 267.721 4
0 16 4 1514.58 302.203 6
16 0 -4 1034.72 507.765 2
16 0 4 997.474 477.585 2
16 -16 -4 2154.01 591.873 2
16 -16 4 356.916 441.264 2
0 16 -5 1255.96 289.465 4
0 16 5 1335.55 319.099 4
0 16 5 965.855 277.204 6
16 -16 -5 485.184 315.473 2
16 -16 5 662.043 525.189 2
0 16 -6 2297.35 360.24 4
0 16 6 1967.52 330.043 4
-16 0 -6 2391.58 373.758 3
0 16 6 2584.55 376.79 6
16 -16 -6 2758.07 689.616 2
16 -16 6 1915.06 632.375 2
0 16 -7 1056.54 281.213 4
0 16 7 1268.79 266.273 4
-16 16 7 869.902 284.616 4
-16 16 -7 969.507 304.957 4
-16 0 -7 1173.17 302.472 3
0 16 7 1565.09 327.048 6
16 -16 -7 229.412 418.751 2
16 -16 7 535.221 435.923 2
-16 0 -8 1288.25 308.182 3
-16 16 -8 1578.05 324.906 4
-16 16 8 1022.41 282.965 4
0 16 8 1409.08 320.821 6
-16 0 -9 684.23 261.21 3
-16 16 -9 194.064 232.501 4
-16 16 9 785.749 286.582 4
0 16 9 404.996 260.168 6
-16 0 -10 5729.2 553.337 3
0 16 10 6203.92 538.344 6
-16 0 -11 203.538 259.793 3
0 16 11 305.714 227.258 6
-16 0 -12 8342.9 660.12 3
0 16 12 8571.62 628.275 6
0 16 13 -173.217 222.958 6
-16 0 -13 -89.2448 277.262 3
-16 0 -14 1695.06 370.968 3
0 16 14 1150.42 252.55 6
-16 16 14 1114.38 353.189 6
-16 0 -15 620.193 282.253 3
0 16 15 136.35 181.735 6
-16 16 15 103.559 252.117 6
-16 16 -16 576.264 297.141 5
-16 0 -16 -214.764 229.875 3
0 16 16 -26.0453 166.649 6
-16 16 16 15.5976 233.02 6
-16 16 -17 235.201 255.336 5
-16 0 -17 313.266 243.621 3
0 16 17 -74.0373 148.04 6
-16 16 17 492.349 208.922 6
-16 16 -18 791.055 265.084 5
-16 0 -18 512.005 192.692 3
0 16 18 632.326 162.514 6
-16 0 -19 343.652 193.747 3
-16 16 -19 331.119 205.081 5
-8 17 0 5036.96 460.473 4
-9 17 0 4872.04 482.186 4
9 8 0 6019.39 457.582 6
17 -8 0 4963.55 869.103 2
17 -9 0 6117.88 978.694 2
8 9 0 5479.4 423.892 6
8 9 -1 12198.9 622.96 6
9 8 1 13188.2 658.588 6
-8 17 -1 12634.8 703.498 4
-8 17 1 12730.6 704.786 4
-9 17 1 12057.9 703.504 4
-9 17 -1 13077.3 720.958 4
8 9 1 13333.1 665.265 6
17 -9 -1 14178.3 1379.84 2
17 -9 1 12831.6 1322.8 2
17 -8 -1 12742.4 1335.38 2
17 -8 1 13282.5 1365.61 2
9 8 -1 13062.3 652.157 6
-9 17 1 11260.3 620.91 6
-8 17 1 11431.7 628.99 6
17 -9 -2 3025 756.126 2
17 -9 2 1640.69 573.06 2
17 -8 -2 1380.19 561.708 2
17 -8 2 1886.41 634.14 2
-8 17 -2 1789.72 316.944 4
-8 17 2 1596.13 304.82 4
-9 17 -2 1798.41 323.29 4
-9 17 2 1314.64 286.193 4
8 9 2 1686.22 282.287 6
8 9 -2 1578.79 255.551 6
9 8 2 1926.65 285.538 6
-8 17 2 1613.77 288.167 6
-9 17 2 1321.84 278.189 6
17 -9 -3 2720.51 722.99 2
17 -9 3 2189.06 632.522 2
17 -8 -3 1911.64 595.348 2
17 -8 3 2370.18 621.424 2
8 9 3 2087.24 289.656 6
-8 17 -3 1990.02 336.243 4
-8 17 3 2089.36 303.227 4
-9 17 -3 1705.64 288.613 4
-9 17 3 1778.67 287.692 4
9 8 3 1904.61 297.77 6
-8 17 3 1989.53 322.882 6
-9 17 3 1555.52 271.024 6
17 -9 -4 525.142 392.166 2
17 -9 4 849.265 461.719 2
17 -8 -4 898.529 471.071 2
17 -8 4 346.507 300.011 2
-8 17 -4 549.234 243.468 4
-8 17 4 969.559 254.978 4
-9 17 -4 1032.28 272.207 4
-9 17 4 866.18 242.784 4
8 9 4 820.151 218.818 6
9 8 4 754.568 257.175 6
-8 17 4 810.773 248.177 6
-9 17 4 892.592 278.726 6
-8 17 -4 1098.08 243.445 5
17 -9 -5 592.11 404.154 2
17 -9 5 179.18 442.813 2
17 -8 -5 1531.61 481.93 2
17 -8 5 1092.64 449.023 2
-8 17 -5 844.649 262.685 4
-8 17 5 1190.1 286.232 4
-9 17 -5 398.083 216.246 4
-9 17 5 689.77 248.882 4
9 8 5 712.038 207.27 6
8 9 5 1034.21 253.901 6
-8 17 5 884.552 257.014 6
-9 17 5 786.107 259.618 6
-8 17 -5 790.576 255.145 5
-9 17 -5 891.559 236.718 5
-8 17 -6 575.755 222.819 5
17 -9 -6 -297.178 456.842 2
17 -9 6 1145.38 486.813 2
17 -8 -6 1071.02 526.164 2
-8 17 -6 634.245 238.337 4
-8 17 6 391.291 203.971 4
17 -8 6 174.194 302.101 2
-9 17 -6 590.407 248.001 4
-9 17 6 701.666 237.823 4
-9 17 6 858.211 301.077 6
9 8 6 588.53 209.183 6
8 9 6 628.909 190.291 6
-8 17 6 525.051 228.112 6
-9 17 -6 497.893 204.248 5
8 9 7 2154.47 308.566 6
17 -9 -7 1880.41 556.751 2
17 -9 7 2172.82 619.321 2
-8 17 -7 2022.96 332.492 4
-8 17 7 2157.29 317.532 4
-9 17 -7 1883.8 330.284 4
-9 17 7 2065.04 336.937 4
17 -8 -7 2401.33 673.489 2
17 -8 7 2365.62 663.227 2
9 8 7 2260.7 345.687 6
-8 17 7 2703.27 387.357 6
-9 17 7 2139.84 375.31 6
-8 17 -7 2607.58 352.612 5
-9 17 -7 2247.9 339.129 5
-8 17 -8 1491.83 265.807 4
-8 17 8 1747.59 315.648 4
-9 17 -8 2198.09 333.489 4
-9 17 8 1701.95 314.155 4
17 -9 -8 1404.18 565.684 2
17 -9 8 2098.94 585.557 2
17 -8 -8 1279.12 381.367 2
17 -8 8 1336.75 405.68 2
-8 17 8 2189.59 349.482 6
9 8 8 2518.34 365.054 6
8 9 8 2694.39 374.445 6
-9 17 8 2530.06 393.146 6
-8 17 -8 1887.64 333.465 5
-9 17 -8 1534.08 318.73 5
9 8 9 3105.52 390.579 6
8 9 9 3231.18 387.051 6
-8 17 9 3894.03 449.303 6
-9 17 9 3514.22 426.882 6
-9 17 -9 3689.67 464.582 5
-8 17 -9 3363.92 432.92 5
9 8 10 2277.49 345.488 6
8 9 10 2261.56 338.597 6
-8 17 10 2823.96 390.019 6
-9 17 10 2926.49 437.315 6
-8 17 -10 2693.89 410.458 5
-9 17 -10 2364.2 405.254 5
-8 -9 -11 3611.21 452.701 3
-9 -8 -11 3357.36 437.133 3
9 8 11 2615.88 372.979 6
8 9 11 2652.61 357.48 6
-8 17 11 2827.46 417.296 6
-9 17 11 3201.11 426.431 6
-8 17 -11 2979.38 428.181 5
-9 17 -11 3147.74 431.625 5
-17 8 -12 947.131 229.765 3
-9 -8 -12 1045.37 305.403 3
-8 -9 -12 1378.92 333.92 3
9 8 12 878.391 244.849 6
8 9 12 880.634 241.067 6
-8 17 12 1652.74 353.938 6
-9 17 12 913.354 302.048 6
-8 17 -12 1046.6 293.844 5
-9 17 -12 1158.42 331.84 5
8 9 13 239.017 207.994 6
-9 -8 -13 -390.027 295.2 3
-8 -9 -13 -82.7285 300.623 3
9 8 13 537.468 231.207 6
-8 17 13 14.4324 229.983 6
-9 17 13 -233.044 270.771 6
-17 9 -13 -76.3293 212.337 3
-8 17 -13 -82.7959 250.553 5
-9 17 -13 431.291 307.471 5
-17 8 -13 275.455 237.583 3
-9 -8 -14 540.328 319.056 3
-17 8 -14 466.741 215.293 3
9 8 14 214.621 176.656 6
8 9 14 143.424 181.552 6
-8 17 14 -271.563 273.581 6
-9 17 14 62.0652 245.262 6
-17 9 -14 397.285 227.627 3
-8 17 -14 9.88077 254.531 5
-9 17 -14 541.76 307.713 5
-9 -8 -15 481.366 314.015 3
-8 -9 -15 35.2556 248.725 3
8 9 15 16.6306 165.446 6
-8 17 15 404.788 255.63 6
-9 17 15 98.5776 216.164 6
-17 9 -15 196.585 223.878 3
-17 8 -15 -181.673 226.358 3
-8 17 -15 140.94 271.539 5
-9 17 -15 7.62287 266.182 5
-9 -8 -16 18.1797 237.958 3
-8 -9 -16 -187.801 231.578 3
-8 17 16 548.495 221.616 6
-9 17 16 140.364 225.377 6
-17 9 -16 316.718 207.027 3
-17 8 -16 -271.44 253.91 3
-8 17 -16 205.429 280.904 5
-9 17 -16 266.639 301.457 5
-8 -9 -17 -268.449 233.113 3
-9 -8 -17 -411.793 267.458 3
-8 17 17 206.653 183.116 6
-9 17 17 303.383 185.991 6
-17 9 -17 254.925 210.874 3
-17 8 -17 -67.5965 224.179 3
-8 17 -17 153.703 240.883 5
-9 17 -17 -470.836 258.524 5
-8 -9 -18 -116.852 203.027 3
-9 -8 -18 264.646 218.852 3
-8 17 18 4.18999 162.942 6
-9 17 18 -78.9551 156.794 6
-17 9 -18 187.147 204.08 3
-17 8 -18 244.064 225.152 3
-8 17 -18 95.1333 227.777 5
-9 17 -18 -102.48 227.507 5
-8 -9 -19 73.5154 159.461 3
-9 -8 -19 471.767 226.695 3
-17 9 -19 -7.26218 160.729 3
-17 8 -19 -270.615 196.822 3
-8 17 -19 324.89 212.177 5
-9 17 -19 100.171 212.085 5
-9 -8 -20 205.339 155.31 3
-17 9 -20 -2.65376 150.372 3
-17 8 -20 209.781 164.809 3
-9 17 -20 63.5361 164.408 5
-8 -9 -20 -2.03247 141.78 3
17 -10 0 3409.06 733.886 2
-10 17 0 3490.38 414.467 4
17 -7 0 3481.44 719.801 2
-7 17 0 3528.74 408.252 4
10 7 0 4305.22 400.755 6
7 10 0 4482.83 395.177 6
17 -10 -1 978.559 516.624 2
17 -10 1 525.331 435.679 2
17 -7 -1 162.421 316.963 2
17 -7 1 78.2435 305.975 2
-7 17 -1 236.488 203.187 4
-7 17 1 631.637 236.111 4
-10 17 -1 528.57 215.187 4
-10 17 1 191.147 173.646 4
10 7 1 623.031 168.208 6
7 10 -1 210.572 158.182 6
7 10 1 453.683 174.479 6
-7 17 1 494.373 205.463 6
-10 17 1 509.934 247.964 6
17 -10 -2 726.578 364.402 2
17 -10 2 898.782 390.565 2
-10 17 2 768.947 232.459 6
17 -7 -2 -28.046 460.43 2
17 -7 2 569.088 382.184 2
-7 17 -2 1106.18 267.871 4
-7 17 2 959.269 248.774 4
-10 17 -2 593.627 245.16 4
-10 17 2 1671.86 322.713 4
10 7 2 982.357 244.861 6
7 10 -2 793.929 197.796 6
7 10 2 973.344 220.131 6
-7 17 2 679.183 210.457 6
17 -10 -3 4739.72 890.696 2
-7 17 -3 4243.03 428.449 4
17 -10 3 4202.21 806.602 2
7 10 -3 3150.61 332.515 6
-10 17 -3 4625.47 453.748 4
-10 17 3 4174.84 428.97 4
17 -7 -3 4756.87 844.47 2
17 -7 3 3705.38 746.488 2
-7 17 3 3913.63 406.822 4
7 10 3 4170.39 407.059 6
10 7 3 4005.35 391.645 6
-7 17 3 4093.72 411.735 6
-10 17 3 3695.48 419.163 6
17 -10 -4 -105.98 437.219 2
17 -10 4 -169.664 294.598 2
-7 17 -4 338.422 216.271 4
-7 17 4 -57.1039 211.578 4
17 -7 -4 142.503 303.366 2
17 -7 4 -390.609 469.471 2
-10 17 -4 213.954 207.338 4
-10 17 4 163.702 213.023 4
10 7 4 171.549 157.213 6
7 10 4 226.022 191.113 6
-7 17 4 -31.8458 203.91 6
-10 17 4 268.435 251.577 6
-7 17 -4 107.179 176.87 5
-7 17 -5 4899.04 476.354 4
-7 17 5 5233.05 486.273 4
17 -10 -5 5190.58 899.25 2
17 -10 5 4258.87 823.123 2
-10 17 -5 5743.75 506.902 4
-10 17 5 4871.22 461.497 4
17 -7 -5 5229.93 875.153 2
17 -7 5 5667.15 896.758 2
10 7 5 4100.13 411.662 6
7 10 5 5156.26 462.615 6
-7 17 5 5151.02 465.996 6
-10 17 5 5426.74 503.515 6
-7 17 -5 4654.02 445.029 5
-10 17 -5 4425.74 420.472 5
17 -10 -6 260.528 322.495 2
17 -10 6 -149.232 385.358 2
-7 17 -6 257.876 204.422 4
-7 17 6 272.028 208.585 4
-10 17 -6 611.354 257.615 4
-10 17 6 286.532 221.718 4
17 -7 -6 178.513 329.234 2
17 -7 6 363.104 396.707 2
10 7 6 194.05 195.577 6
7 10 6 564.223 213.504 6
-7 17 6 617.919 251.391 6
-10 17 6 334.726 249.982 6
-7 17 -6 306.685 200.086 5
-10 17 -6 214.227 160.545 5
17 -10 -7 259.776 334.684 2
17 -10 7 779.883 526.75 2
-7 17 -7 543.658 238.78 4
-7 17 7 270.018 220.834 4
-10 17 -7 882.499 266.72 4
-10 17 7 544.003 228.745 4
17 -7 -7 -70.8165 343.485 2
17 -7 7 -56.3986 434.612 2
10 7 7 492.463 190.018 6
7 10 7 653.678 206.254 6
-7 17 7 1152.77 299.207 6
-10 17 7 576.017 283.154 6
-7 17 -7 756.364 241.553 5
-10 17 -7 442.463 213.58 5
-7 17 8 2252.63 354.954 6
-7 17 -8 1485.86 285.305 4
-7 17 8 1748.17 289.129 4
17 -10 -8 1868.43 555.044 2
17 -10 8 2418.93 659.902 2
-10 17 -8 1815.24 313.768 4
-10 17 8 1535.79 288.91 4
17 -7 -8 2656.71 750.13 2
17 -7 8 1104.01 423.81 2
10 7 8 1999.44 328.788 6
7 10 8 2037.6 323.534 6
-7 17 -8 2023.93 359.49 5
-10 17 8 2485.92 396.836 6
-10 17 -8 2302.47 360.518 5
7 10 9 1591.33 308.845 6
10 7 9 1489.73 289.559 6
-7 17 9 1946.54 338.261 6
-10 17 9 1998.28 369.353 6
-7 17 -9 1289.69 330.078 5
-10 17 -9 1555.6 332.437 5
10 7 10 1989.85 324.593 6
7 10 10 2348.97 350.9 6
-7 17 10 2305.03 380.377 6
-10 17 10 2475.8 411.179 6
-7 17 -10 2081.58 373.547 5
-10 17 -10 3034.14 435.621 5
7 10 11 5245.9 492.967 6
10 7 11 4923.76 460.606 6
-10 17 11 5768.77 544.325 6
-10 -7 -11 6265.08 572.774 3
-7 -10 -11 5137.86 525.255 3
-17 7 -11 4616.67 462.782 3
-7 17 -11 5559.43 542.734 5
-7 17 11 6018.71 552.577 6
-10 17 -11 5726.9 555.95 5
-17 7 -12 703.148 249.594 3
-10 -7 -12 773.53 326.93 3
-7 -10 -12 1234.73 323.915 3
10 7 12 1052.42 241.646 6
7 10 12 1291.04 286.129 6
-7 17 12 1207.11 304.326 6
-10 17 12 581.186 298.875 6
-7 17 -12 794.362 263.79 5
-10 17 -12 843.427 313.142 5
-17 7 -13 1716.73 302.798 3
-10 -7 -13 2189.88 408.163 3
-7 -10 -13 1303.99 316.203 3
7 10 13 1391.51 299.325 6
-7 17 13 1830.39 351.127 6
-10 17 13 2329.34 396.557 6
-7 17 -13 1522.5 354.722 5
-10 17 -13 1681.25 381.292 5
-10 -7 -14 193.433 291.96 3
-7 -10 -14 -40.1861 266.986 3
7 10 14 327.147 184.874 6
-7 17 14 18.0643 202.797 6
-10 17 14 706.018 267.046 6
-17 10 -14 257.94 199.529 3
-7 17 -14 67.6249 270.644 5
-10 17 -14 429.516 283.812 5
-17 7 -14 472.049 288.275 3
-10 -7 -15 115.474 278.88 3
-7 -10 -15 -31.3715 251.758 3
7 10 15 216.195 170.421 6
-7 17 15 389.52 307.808 6
-10 17 15 -216.805 252.721 6
-17 10 -15 -35.5972 203.344 3
-7 17 -15 84.7912 252.756 5
-17 7 -15 -130.911 196.431 3
-10 17 -15 -83.2539 269.754 5
-10 -7 -16 -490.014 275.913 3
-7 -10 -16 94.2037 207.844 3
-7 17 16 -1.60876 187.007 6
-10 17 16 178.158 217.138 6
-17 10 -16 -237.017 228.048 3
-7 17 -16 152.816 242.711 5
-17 7 -16 -84.4497 197.612 3
-10 17 -16 -136.946 267.435 5
-7 -10 -17 399.115 204.749 3
-10 -7 -17 687.397 289.308 3
-7 17 17 343.53 196.635 6
-10 17 17 376.188 196.217 6
-17 10 -17 637.25 255.904 3
-17 7 -17 -110.42 222.643 3
-7 17 -17 323.783 267.562 5
-10 17 -17 655.754 285.933 5
-7 -10 -18 122.287 180.354 3
-10 -7 -18 193.961 250.018 3
-7 17 18 -4.11959 165.235 6
-10 17 18 -284.987 220.431 6
-17 10 -18 121.055 185.545 3
-17 7 -18 197.33 205.325 3
-7 17 -18 -393.613 253.248 5
-10 17 -18 101.143 239.55 5
-7 -10 -19 171.885 198.01 3
-10 -7 -19 -133.976 185.618 3
-17 7 -19 111.849 169.025 3
-17 10 -19 191.443 170.382 3
-10 17 -19 532.258 230.531 5
-10 -7 -20 37.7508 153.723 3
-17 10 -20 249.955 145.439 3
-17 7 -20 -1.65366 150.769 3
-10 17 -20 197.629 162.93 5
-7 -10 -20 -35.4051 128.558 3
17 -11 0 735.777 414.652 2
-6 17 0 348.027 215.363 4
17 -6 0 285.268 356.202 2
-11 17 0 608.806 238.409 4
6 11 0 181.187 140.554 6
-6 17 0 504.629 211.116 6
17 -11 -1 642.523 467.499 2
17 -11 1 628.426 590.564 2
-6 17 -1 474.783 229.905 4
-6 17 1 734.086 257.888 4
17 -6 -1 350.465 374.246 2
17 -6 1 781.089 418.086 2
-11 17 -1 125.76 226.371 4
-11 17 1 465.542 258.396 4
6 11 -1 439.17 170.426 6
6 11 1 382.318 162.979 6
-6 17 1 614.031 184.011 6
17 -11 -2 1890.04 612.434 2
17 -11 2 2500.02 664.469 2
-6 17 -2 2496.23 351.669 4
-6 17 2 2623.61 352.573 4
17 -6 -2 2467.27 594.884 2
17 -6 2 2748.08 700.245 2
-11 17 -2 2518.92 357.118 4
-11 17 2 2516.61 359.439 4
6 11 -2 1976.66 283.668 6
6 11 2 2307.6 303.075 6
-6 17 2 2008.75 284.869 6
17 -11 -3 1737.91 558.086 2
17 -11 3 3613.57 773.281 2
-6 17 -3 2799.84 372.083 4
-6 17 3 2720.16 378.007 4
17 -6 -3 2132 667.205 2
17 -6 3 2038.65 542.57 2
-11 17 3 2725.14 368.266 4
-11 17 -3 2668.62 365.739 4
6 11 3 3094.86 356.7 6
11 6 3 2601.1 332.513 6
6 11 -3 1834.67 258.196 6
-6 17 3 2823.03 356.14 6
-6 17 -3 2348.45 312.89 5
11 6 4 6612.77 505.197 6
-6 17 -4 7785.97 564.653 4
-6 17 4 7178.58 555.259 4
17 -11 4 7438.96 1085.54 2
-11 17 4 6793.38 524.273 4
6 11 4 7130.36 523.592 6
-11 17 -4 7804.68 566.236 4
17 -6 4 6901.46 970.054 2
17 -11 -4 8711.48 1153.37 2
-6 17 4 6769.31 522.162 6
17 -6 -4 7461.95 1081.14 2
-6 17 -4 6594.98 520.198 5
-11 17 -5 1232.05 255.018 5
17 -11 -5 2278.65 658.869 2
17 -11 5 2044.22 652.305 2
-6 17 -5 1724.79 301.248 4
-6 17 5 2241.69 349.053 4
-11 17 -5 1917.99 327.431 4
-11 17 5 2758.25 388.205 4
17 -6 -5 2469.23 660.031 2
17 -6 5 2447.08 687.572 2
11 6 5 2032.57 312.986 6
6 11 5 2079.9 335.143 6
-6 17 5 1819.91 293.134 6
-6 17 -5 2223.98 329.723 5
-11 17 -6 1343.59 252.698 5
17 -11 -6 405.169 386.295 2
17 -11 6 1836.3 598.563 2
-6 17 -6 1822.4 325.288 4
-6 17 6 1486.2 300.939 4
-11 17 -6 2211.91 366.416 4
-11 17 6 1560.11 288.197 4
17 -6 -6 660.67 433.404 2
17 -6 6 1344.66 503.924 2
11 6 6 1512.45 276.525 6
6 11 6 1161.28 251.303 6
-6 17 6 1639.08 305.601 6
-6 17 -6 1621.29 293.833 5
-11 17 -7 1366.84 303.201 5
17 -11 -7 754.183 426.476 2
17 -11 7 782.381 420.592 2
-6 17 -7 1198.9 297.303 4
-6 17 7 862.581 240.617 4
-11 17 -7 914.313 266.223 4
-11 17 7 1123.88 259.437 4
17 -6 -7 500.609 337.177 2
17 -6 7 145.418 389.262 2
11 6 7 1042.23 233.934 6
6 11 7 1074.83 258.638 6
-6 17 7 1219.11 288.553 6
-6 17 -7 924.675 254.929 5
-11 17 -8 675.615 229.548 5
17 -11 -8 1011.74 470.51 2
-6 17 -8 421.277 207.002 4
-6 17 8 686.623 220.038 4
17 -11 8 647.377 502.564 2
-11 17 -8 1547.41 329.867 4
-11 17 8 346.513 222.477 4
17 -6 -8 141.051 407.697 2
17 -6 8 1011.73 379.743 2
11 6 8 569.682 204.758 6
-6 17 8 620.658 271.214 6
6 11 8 835.63 253.748 6
-11 17 8 527.288 281.717 6
-6 17 -8 591.468 253.612 5
11 6 9 4827.14 464.865 6
6 11 9 5508.66 511.959 6
-6 17 9 5572.93 517.465 6
-11 17 9 6108.52 551.591 6
-6 17 -9 4711.55 502.036 5
-11 17 -9 4781.98 495.858 5
-11 17 -10 1018.66 319.174 5
-17 6 -10 990.223 287.22 3
-6 17 10 1198.13 297.767 6
11 6 10 623.715 216.268 6
-17 6 -10 1761.27 537.669 1
-11 -6 -10 1477.78 308.232 3
6 11 10 913.897 273.561 6
-11 17 10 905.487 344.297 6
-6 17 -10 1096.85 298.413 5
-11 17 -11 3559.39 454.485 5
-17 6 -11 3522.27 423.325 3
-11 -6 -11 3858.9 511.891 3
6 11 11 3739.25 430.883 6
-6 -11 -11 3489.25 431.935 3
-6 17 11 4299.49 462.953 6
-11 17 11 3883.92 495.415 6
-6 17 -11 3851.78 483.349 5
-11 17 -12 2631.49 420.768 5
-17 6 -12 1788.03 343.827 3
6 11 12 2485.22 380.181 6
-11 -6 -12 2465.95 443.744 3
-6 -11 -12 2248.12 371.941 3
-6 17 12 2162.61 362.166 6
-11 17 12 2500.44 414.179 6
-6 17 -12 1867.02 375.546 5
-17 6 -13 1667.58 336.901 3
-6 17 13 1861.88 348.229 6
-11 -6 -13 1928.82 406.265 3
-6 -11 -13 1663.1 351.377 3
6 11 13 1445.46 285.576 6
-11 17 13 1599.1 332.72 6
-6 17 -13 1448.93 350.986 5
-11 17 -13 1768.62 370.247 5
-17 6 -14 178.071 216.563 3
-11 -6 -14 -14.19 277.406 3
-6 -11 -14 301.985 236.89 3
6 11 14 320.26 189.076 6
-6 17 14 237.573 228.464 6
-11 17 14 -0.92438 249.865 6
-6 17 -14 -159.294 249.773 5
-11 17 -14 -190.726 281.704 5
-11 -6 -15 237.861 288.006 3
-6 -11 -15 -556.51 285.875 3
6 11 15 -145.641 165.7 6
-6 17 15 879.926 327.185 6
-11 17 15 1206.44 334.236 6
-6 17 -15 99.3997 257.877 5
-11 17 -15 -47.8811 255.5 5
-17 6 -15 36.7059 208.077 3
-11 -6 -16 198.966 249.707 3
-6 -11 -16 272.774 214.588 3
6 11 16 471.645 190.85 6
-6 17 16 305.889 208.872 6
-11 17 16 530.356 239.1 6
-17 11 -16 238.835 201.94 3
-6 17 -16 353.156 291.397 5
-17 6 -16 158.157 221.633 3
-11 17 -16 386.842 281.915 5
-6 -11 -17 319.487 205.384 3
-11 -6 -17 519.695 263.98 3
-6 17 17 448.931 174.788 6
-17 11 -17 423.154 210.481 3
-11 17 17 284.923 218.658 6
-6 17 -17 345.446 250.878 5
-17 6 -17 456.869 270.078 3
-11 17 -17 322.338 243.645 5
-6 -11 -18 762.196 205.399 3
-11 -6 -18 546.143 239.703 3
-6 17 18 441.523 175.064 6
-17 11 -18 146.029 191.823 3
-11 17 18 695.356 206.747 6
-17 6 -18 432.004 220.379 3
-11 17 -18 557.177 250.523 5
-11 -6 -19 942.095 261.291 3
-17 11 -19 295.737 177.908 3
-6 -11 -19 192.459 184.607 3
-17 6 -19 332.282 195.937 3
-11 17 -19 585.183 251.828 5
-11 -6 -20 270.913 169.352 3
-17 11 -20 356.925 150.594 3
-17 6 -20 158.759 148.941 3
-11 17 -20 304.32 185.084 5
-6 -11 -20 -14.6038 95.6786 3
17 -12 0 919.313 440.217 2
-5 17 0 1267.08 302.72 4
17 -5 0 1031.74 420.154 2
-12 17 0 1172.9 266.644 4
5 12 0 1283.99 240.861 6
-5 17 0 1267.07 251.098 6
17 -12 -1 3881.82 852.946 2
17 -12 1 2830.45 695.328 2
-5 17 1 3046.53 415.626 4
-5 17 -1 2933.12 378.982 4
17 -5 -1 2778.9 699.426 2
17 -5 1 1914.4 556.258 2
-12 17 -1 2939.92 380.894 4
-12 17 1 2978.08 416.718 4
5 12 1 3253.71 373.32 6
5 12 -1 2515.63 316.512 6
-5 17 1 2894.63 358.257 6
17 -12 -2 2271.14 680.36 2
17 -12 2 1994.5 607.428 2
-5 17 -2 2128.03 343.034 4
-5 17 2 2288.02 335.895 4
17 -5 -2 1842.68 579.349 2
17 -5 2 1270.25 464.356 2
-12 17 -2 2475.77 344.312 4
-12 17 2 2114.86 321.637 4
5 12 -2 1572.05 232.127 6
5 12 2 2536.89 329.609 6
-5 17 2 2385.57 334.182 6
17 -12 -3 1179.47 519.25 2
17 -12 3 1482.54 507.28 2
-5 17 -3 965.483 269.351 4
-5 17 3 929.614 249.387 4
-12 17 -3 1015.28 281.486 4
-12 17 3 607.917 252.304 4
17 -5 -3 1224.24 530.631 2
17 -5 3 1657.11 522.34 2
5 12 3 907.703 238.823 6
-5 17 3 658.633 234.107 6
17 -12 -4 3588.96 740.508 2
17 -12 4 4299.78 846.147 2
5 12 4 3560.48 390.61 6
-5 17 -4 3719.52 408.149 4
-5 17 4 3895.51 416.213 4
-12 17 4 3636.43 418.407 4
-12 17 -4 4205.31 435.761 4
17 -5 -4 3683.08 836.032 2
17 -5 4 3905.75 792.651 2
-5 17 4 3507.24 390.371 6
-5 17 -4 3559.19 391.803 5
-12 17 -5 946.797 236.381 5
17 -12 -5 1298.01 484.014 2
17 -12 5 1590.39 537.938 2
-5 17 -5 1531.46 273.414 4
-5 17 5 1440.85 314.46 4
-12 17 -5 1581.21 317.645 4
-12 17 5 1433.62 292.717 4
17 -5 -5 1608.71 572.674 2
17 -5 5 1158.27 474.273 2
5 12 5 1461.3 293.302 6
-5 17 5 1286.58 255.836 6
-5 17 -5 1806.21 291.673 5
-12 17 -6 181.967 172.423 5
17 -12 -6 717.921 371.302 2
17 -12 6 544.864 451.183 2
-5 17 -6 563.592 221.915 4
-5 17 6 656.514 244.053 4
-12 17 6 276.899 198.29 4
-12 17 -6 769.873 286.519 4
17 -5 -6 360.285 288.182 2
17 -5 6 1258.96 555.898 2
5 12 6 263.96 217.035 6
-5 17 6 121.447 190.367 6
-5 17 -6 557.662 231.742 5
-12 17 -7 2390.94 335.003 5
17 -12 -7 1867.86 501.784 2
17 -12 7 2828.49 717.695 2
-5 17 -7 2713.41 360.454 4
-5 17 7 2347.65 341.152 4
-12 17 -7 2641.53 377.241 4
-12 17 7 2110.55 345.059 4
17 -5 -7 2502.28 671.705 2
17 -5 7 1728.83 547.219 2
5 12 7 2814.2 376.942 6
-5 17 7 2800.37 392.889 6
-5 17 -7 3010.7 397.649 5
-12 17 -8 3211.37 410.011 5
17 -5 8 1680.34 511.908 2
17 -12 -8 3002.04 683.413 2
17 -12 8 1737.35 586.82 2
-5 17 -8 2684.86 350.48 4
-5 17 8 3131.41 368.437 4
-12 17 -8 3229.42 390.175 4
-12 17 8 3242.17 381.816 4
-5 17 8 4135.2 469.214 6
17 -5 -8 1405.51 477.101 2
5 12 8 3801.54 436.711 6
-5 17 -8 3909.68 436.132 5
-12 17 -9 452.688 237.034 5
-5 17 9 1199.65 263.614 4
-17 5 -9 1351.46 318.48 3
-12 17 9 1097.98 286.679 4
5 12 9 1175.54 270.788 6
-5 17 9 1169.45 289.648 6
-5 17 -9 1192.11 320.782 5
5 12 10 5796.35 517.292 6
-5 17 10 5773.85 539.824 6
-17 5 -10 5336.9 484.26 3
-12 17 10 6355.78 589.618 6
-12 -5 -10 6172.37 573.826 3
-5 17 -10 5293.68 530.551 5
-12 17 -10 5032.56 505.146 5
-12 17 -11 1060.65 290.648 5
-17 5 -11 1604.43 337.11 3
-12 -5 -11 1400.87 336.073 3
-5 -12 -11 1897.85 353.945 3
5 12 11 1223.44 296.866 6
-5 17 11 1387.2 330.964 6
-12 17 11 1481.32 358.966 6
-5 17 -11 1378.89 307.717 5
-12 -5 -12 5360.44 553.174 3
-17 5 -12 5483.32 542.077 3
-5 -12 -12 5312.18 515.527 3
5 12 12 4506.97 479.032 6
-5 17 12 4852.75 483.058 6
-12 17 12 4747.68 507.076 6
-12 17 -12 5745.68 572.607 5
-5 17 -12 4628 520.482 5
-12 17 -13 -200.598 282.183 5
-17 5 -13 247.954 227.467 3
-12 -5 -13 209.632 286.213 3
-5 -12 -13 285.227 220.153 3
-5 17 13 149.472 202.653 6
5 12 13 361.872 229.182 6
-12 17 13 235.504 273.615 6
-5 17 -13 419.85 285.879 5
-12 17 -14 532.663 280.419 5
-17 5 -14 455.232 242.233 3
-12 -5 -14 704.828 325.241 3
-5 -12 -14 653.617 245.968 3
5 12 14 230.871 170.114 6
-5 17 14 508.843 235.926 6
-12 17 14 -49.5268 270.477 6
-5 17 -14 466.794 285.997 5
-17 5 -15 257.871 213.458 3
-12 -5 -15 800.209 338.889 3
-5 -12 -15 -111.367 203.2 3
5 12 15 -86.0573 189.017 6
-5 17 15 224.971 207.034 6
-12 17 15 322.674 256.9 6
-5 17 -15 -121.155 287.332 5
-12 17 -15 263.591 313.824 5
5 12 16 115.141 157.114 6
-5 -12 -16 203.363 188.806 3
-12 -5 -16 193.788 270.411 3
-5 17 16 404.687 226.373 6
-12 17 16 280.725 241.367 6
-5 17 -16 1078.12 351.973 5
-12 17 -16 207.583 264.967 5
-17 5 -16 199.682 209.72 3
-5 -12 -17 290.652 185.777 3
-12 -5 -17 390.279 269.143 3
-5 17 17 303.197 177.996 6
-17 12 -17 -305.897 203.647 3
-12 17 17 128.981 204.032 6
-17 5 -17 -113.61 265.507 3
-12 17 -17 518.655 299.904 5
-5 -12 -18 437.382 176.468 3
-12 -5 -18 931.207 290.156 3
-17 12 -18 601.571 199.75 3
-5 17 18 546.129 183.394 6
-12 17 18 541.205 184.174 6
-17 5 -18 573.188 237.383 3
-12 17 -18 1214.26 307.304 5
-12 -5 -19 208.558 184.76 3
-17 12 -19 84.2136 127.304 3
-17 5 -19 335.191 186.937 3
-12 17 -19 337.725 220.556 5
-17 12 -20 192.508 208.655 5
-17 5 -20 272.601 159.471 3
-12 17 -20 303.778 194.202 5
-12 -5 -20 397.68 167.792 3
-4 17 0 7989.47 582.101 4
-13 17 0 7796.82 564.35 4
17 -4 0 6568.95 997.217 2
4 13 0 8219.36 538.121 6
17 -13 0 8848.25 1187.11 2
-4 17 0 7392.14 520.639 6
17 -13 -1 549.791 442.072 2
17 -13 1 964.284 513.132 2
-4 17 -1 824.387 271.075 4
-4 17 1 822.351 262.814 4
-13 17 -1 974.038 268.261 4
-13 17 1 1204.05 312.815 4
17 -4 -1 1038.2 425.981 2
17 -4 1 691.811 433.11 2
4 13 -1 889.419 211.557 6
4 13 1 507.756 178.28 6
-4 17 1 729.75 218.875 6
17 -13 -2 3978.75 792.793 2
17 -13 2 3153.53 743.052 2
-4 17 -2 2889.37 370.013 4
-4 17 2 3205.59 395.485 4
-13 17 2 3611.6 430.368 4
-13 17 -2 3051.24 387.897 4
17 -4 -2 2753.24 684.005 2
17 -4 2 2479.71 680.441 2
4 13 -2 2640.33 327.144 6
4 13 2 4155.47 398.63 6
-4 17 2 3248.32 374.919 6
17 -13 -3 765.528 458.028 2
17 -13 3 1801.17 586.888 2
-4 17 -3 1388.37 315.534 4
-4 17 3 1217.11 300.108 4
-13 17 -3 1464.58 311.084 4
-13 17 3 1573.94 329.985 4
17 -4 -3 659.192 416.887 2
17 -4 3 1277.48 559.128 2
4 13 3 1149.96 252.796 6
-4 17 3 1607.21 289.463 6
17 -13 -4 421.92 457.241 2
17 -13 4 -284.343 481.46 2
-4 17 -4 263.689 219.329 4
-4 17 4 162.507 195.583 4
-13 17 -4 20.3689 226.305 4
-13 17 4 153.02 219.471 4
17 -4 -4 -54.0539 327.544 2
17 -4 4 850.483 496.135 2
4 13 4 174.31 189.082 6
-4 17 4 -6.29921 186.936 6
17 -13 -5 1085.28 455.788 2
17 -13 5 2108.52 705.179 2
-4 17 -5 2100.24 342.625 4
-4 17 5 1458.82 249.632 4
-13 17 -5 1463.74 327.766 4
-13 17 5 1634.55 307.68 4
17 -4 5 1516.94 510.283 2
17 -4 -5 846.447 393.666 2
4 13 5 1755.5 305.693 6
-4 17 5 1576.06 301.399 6
-13 17 -6 3113.91 378.445 5
17 -13 -6 3078.83 704.89 2
17 -13 6 4747.83 909.961 2
-4 17 -6 3481.07 404.506 4
-4 17 6 3703.27 409.27 4
-13 17 -6 3967.75 433.137 4
-13 17 6 3089.31 389.735 4
17 -4 -6 2650.44 673.613 2
17 -4 6 2158.44 552.818 2
4 13 6 3260.04 391.24 6
-4 17 6 3664.49 411.72 6
-13 17 -7 332.83 216.733 5
17 -13 -7 24.5066 425.691 2
17 -13 7 481.724 490.751 2
-4 17 -7 412.758 214.481 4
-4 17 7 78.906 197.429 4
-13 17 7 314.425 227.96 4
-13 17 -7 209.064 226.249 4
17 -4 -7 300.348 302.316 2
17 -4 7 1413.57 567.541 2
4 13 7 95.9496 191.05 6
-4 17 7 631.323 271.383 6
-4 17 -7 669.375 259.115 5
-4 17 -8 4338.77 423.89 4
-4 17 8 4320.18 428.913 4
17 -4 -8 3909.47 815.709 2
17 -13 -8 4062.35 766.536 2
17 -13 8 2939.92 714.216 2
-13 17 8 4677.61 450.976 4
-13 17 -8 4249.88 434.928 4
-17 4 -8 4410.17 435.253 3
4 13 8 4885.41 479.458 6
-4 17 8 5417.91 496.121 6
17 -4 8 3264.88 758.959 2
-4 17 -8 5149.41 504.013 5
-13 17 -8 5010.45 491.85 5
-13 17 -9 1705.12 335.506 5
-4 17 9 1281.68 284.811 4
-17 4 -9 1666.86 336.59 3
-13 17 9 881.264 258.368 4
4 13 9 1580.1 311.147 6
-13 -4 -9 1737.06 363.552 3
-4 17 9 1453.63 289.739 6
-4 17 -9 1073.74 290.327 5
-13 17 -10 1794.95 342.13 5
-17 4 -10 2128.46 375.718 3
-13 -4 -10 1844.07 387.647 3
4 13 10 2127.36 355.932 6
-4 17 10 1964.92 360.053 6
-4 17 -10 1971.86 378.144 5
-13 17 -11 2213.1 394.698 5
-17 4 -11 1804.4 339.132 3
-13 -4 -11 2043.04 369.248 3
-4 -13 -11 2170.28 350.244 3
4 13 11 2227.54 367.064 6
-4 17 11 2165.4 357.69 6
-13 17 11 1755.5 416.992 6
-4 17 -11 1352.78 326.615 5
-13 17 -12 2390.07 405.406 5
-17 4 -12 1696.14 340.853 3
-13 -4 -12 1472.88 375.951 3
-4 -13 -12 1227.27 284.759 3
4 13 12 1092.32 277.297 6
-4 17 12 1669.94 349.453 6
-13 17 12 1376.63 341.602 6
-4 17 -12 1327.73 350.334 5
-13 17 -13 1147.1 312.28 5
-17 4 -13 721.748 293.393 3
-13 -4 -13 592.127 282.168 3
-4 -13 -13 337.195 209.488 3
4 13 13 759.9 255.29 6
-4 17 13 588.789 260.662 6
-13 17 13 912.668 341.944 6
-4 17 -13 528.246 293.844 5
-13 17 -14 3293.51 472.234 5
-17 4 -14 2935.45 418.686 3
-13 -4 -14 3299.04 489.793 3
-4 -13 -14 2293.02 352.372 3
4 13 14 2846.38 373.916 6
-4 17 14 2865.86 393.294 6
-13 17 14 3278.88 438.382 6
-4 17 -14 3206.66 458.242 5
-13 17 -15 -114.15 245.248 5
-17 4 -15 -60.8661 234.941 3
-13 -4 -15 76.0213 284.668 3
-4 -13 -15 -9.85445 193.583 3
4 13 15 -56.8318 181.58 6
-4 17 15 -117.797 188.869 6
-13 17 15 -196.995 249.203 6
-17 4 -16 520.133 294.189 3
-4 -13 -16 786.47 242.465 3
-13 -4 -16 1230.53 342.317 3
4 13 16 1046.98 218.954 6
-4 17 16 1661.69 307.034 6
-13 17 16 1143.64 282.301 6
-17 13 16 907.427 308.785 6
-13 17 -16 1520.83 351.668 5
-4 -13 -17 11.4278 149.72 3
-13 -4 -17 457.356 264.419 3
4 13 17 204.583 150.118 6
-4 17 17 737.699 212.992 6
-13 17 17 346.039 229.564 6
-17 4 -17 259.158 219.618 3
-13 17 -17 186.642 251.497 5
-13 -4 -18 382.122 246.513 3
-4 17 18 168.929 145.019 6
-13 17 18 -0.6291 168.525 6
-17 4 -18 -218.787 226.157 3
-13 17 -18 153.495 209.279 5
-13 -4 -19 555.396 227.647 3
-17 13 -19 486.389 216.967 5
-17 4 -19 216.286 181.506 3
-13 17 -19 299.851 218.364 5
-3 17 0 558.601 278.6 4
3 14 0 427.642 178.765 6
17 -3 0 -157.067 469.956 2
-14 17 0 497.818 265.907 4
-3 17 0 435.597 179.007 6
17 -14 0 299.106 393.264 2
-3 17 -1 2672.93 354.78 4
-3 17 1 2259.03 341.585 4
17 -3 1 3136.09 736.074 2
-14 17 -1 2524.37 351.149 4
-14 17 1 2703.23 389.379 4
17 -3 -1 1983.94 565.295 2
3 14 -1 2208.53 306.912 6
3 14 1 2859.1 336.795 6
-3 17 1 2528.36 329.391 6
17 -14 -1 3261.08 763.45 2
17 -14 1 2084.27 609.539 2
-3 17 -2 842.839 249.28 4
-3 17 2 1009.22 260.286 4
-14 17 -2 689.148 237.085 4
-14 17 2 1265.74 278.185 4
17 -3 2 627.333 446.609 2
3 14 -2 907.609 200.312 6
3 14 2 1017.97 230.255 6
17 -3 -2 1063.34 519.106 2
-3 17 2 684.028 237.237 6
17 -14 -2 897.642 498.763 2
17 -14 2 530.731 348.46 2
17 -14 -3 884.174 385.775 2
17 -14 3 1450.55 542.341 2
-3 17 -3 1645.59 313.927 4
-3 17 3 1266.1 264.159 4
-14 17 -3 1449.53 309.512 4
-14 17 3 898.953 270.311 4
17 -3 -3 1570.61 536.051 2
17 -3 3 1316.1 542.232 2
3 14 3 1423.8 271.337 6
-3 17 3 1352.68 255.523 6
17 -14 -4 -365.024 498.757 2
17 -14 4 -191.221 440.006 2
-3 17 -4 353.211 214.315 4
-3 17 4 526.017 231.351 4
-14 17 -4 760.456 280.547 4
-14 17 4 310.246 222.048 4
17 -3 -4 1069.04 571.358 2
3 14 4 479.973 212.644 6
-3 17 4 184.198 182.498 6
17 -3 4 -478.408 455.075 2
17 -14 -5 -175.79 395.255 2
17 -14 5 11.9336 372.043 2
-3 17 -5 225.188 235.136 4
-3 17 5 -112.317 213.108 4
-14 17 -5 -221.846 249.267 4
-14 17 5 96.3074 228.986 4
17 -3 -5 -46.3822 349.283 2
17 -3 5 604.402 445.265 2
3 14 5 27.6202 175.548 6
-3 17 5 -161.828 199.462 6
17 -14 -6 931.515 476.245 2
17 -14 6 220.35 427.484 2
-3 17 -6 511.306 215.759 4
-3 17 6 511.906 249.062 4
-14 17 -6 343.917 226.028 4
-14 17 6 233.893 206.869 4
17 -3 6 89.3079 339.622 2
3 14 6 442.835 246.849 6
-3 17 6 433.084 221.929 6
17 -14 -7 428.629 310.213 2
17 -14 7 1452.93 590.545 2
-3 17 -7 645.727 244.191 4
-3 17 7 859.624 256.756 4
-17 3 -7 444.258 200.434 3
-14 17 7 1001.07 293.906 4
-14 17 -7 638.527 271.985 4
17 -3 -7 331.019 467.024 2
17 -3 7 69.1578 407.888 2
3 14 7 992.989 279.11 6
-3 17 7 1221.89 281.008 6
17 -14 -8 194.598 341.039 2
-3 17 -8 317.517 200.716 4
-3 17 8 458.249 219.74 4
-17 3 -8 361.869 249.028 3
17 -3 8 942.639 569.566 2
-14 17 8 176.315 229.87 4
-14 17 -8 865.717 284.236 4
3 14 8 181.692 190.666 6
17 -3 -8 380.831 355.299 2
-3 17 8 227.709 228.927 6
-3 17 -9 295.437 182.677 4
-3 17 9 564.026 228.176 4
-17 3 -9 -75.078 228.148 3
-14 17 -9 389.975 225.939 4
-14 17 9 71.4391 226.148 4
-14 -3 -9 591.037 284.187 3
3 14 9 524.829 246.174 6
-3 17 9 132.853 226.708 6
-17 3 -10 117.413 211.785 3
-14 -3 -10 -77.7014 240.664 3
3 14 10 168.203 221.045 6
-3 17 10 284.346 265.205 6
-14 17 -11 591.339 305.093 5
-17 3 -11 129.946 218.747 3
-14 -3 -11 -25.4983 259.553 3
-3 -14 -11 -51.0976 197.578 3
3 14 11 178.421 210.332 6
-3 17 11 342.195 247.606 6
-14 17 -12 168.678 257.775 5
-17 3 -12 -128.121 220.32 3
-14 -3 -12 108.881 261.303 3
3 14 12 206.76 199.194 6
-3 17 12 149.978 214.434 6
-14 17 12 21.4358 351.317 6
-14 17 -13 1534.02 367.372 5
-17 3 -13 1499.47 348.05 3
-14 -3 -13 1967.37 408.055 3
-3 -14 -13 1302.3 249.663 3
3 14 13 1802.46 310.814 6
-3 17 13 2230.17 345.774 6
-14 17 13 1375.27 378.534 6
-14 17 -14 278.137 276.986 5
-17 3 -14 326.727 255.123 3
-14 -3 -14 254.626 303.718 3
-3 -14 -14 401.608 203.679 3
3 14 14 61.6828 182.598 6
-3 17 14 -222.85 232.438 6
-14 17 14 149.838 267.101 6
-14 17 -15 726.588 281.922 5
-17 3 -15 1298.79 338.677 3
-14 -3 -15 1334.38 352.123 3
3 14 15 1081.95 252.584 6
-3 17 15 1182.24 268.408 6
-14 17 15 1598.03 353.708 6
-14 17 -16 173.954 271.059 5
-17 3 -16 11.789 213.147 3
-3 17 16 154.181 167.185 6
-14 -3 -16 302.42 271.726 3
3 14 16 -102.127 167.775 6
-14 17 16 -348.845 252.074 6
-17 14 16 -100.783 271.659 6
-14 -3 -17 -7.2539 232.55 3
3 14 17 583.503 181.77 6
-3 17 17 259.281 158.981 6
-14 17 17 271.727 202.525 6
-17 14 17 734.558 237.201 6
-14 17 -17 185.887 331.055 5
-17 3 -17 215.413 231.541 3
-17 14 -18 293.982 227.849 5
-14 -3 -18 27.5589 198.938 3
-3 17 18 -215.23 147.11 6
-14 17 18 140.989 160.979 6
-17 3 -18 372.069 193.175 3
-14 17 -18 7.5247 205.61 5
-14 -3 -19 -393.843 211.73 3
-17 14 -19 237.098 212.678 5
-17 3 -19 204.29 177.427 3
-14 17 -19 -39.5495 178.192 5
2 15 0 1085.82 296.943 4
-2 17 0 923.957 271.739 4
17 -2 0 1252.74 546.33 2
2 15 0 639.926 201.189 6
-2 17 0 743.804 231.055 6
17 -15 0 712.553 471.935 2
2 15 1 -23.2581 168.943 6
2 15 -1 225.673 208.356 4
2 15 1 413.067 252.796 4
-2 17 -1 2.31473 201.969 4
-2 17 1 75.4502 201.132 4
17 -2 -1 151.088 334.022 2
2 15 -1 -119.519 156.632 6
17 -2 1 68.1633 469.685 2
-2 17 1 150.048 184.627 6
17 -15 -1 -45.6065 389.88 2
17 -15 1 -79.5318 344.129 2
2 15 -2 1392.25 300.389 4
2 15 2 1235.63 269.203 4
-2 17 -2 1412.22 323.081 4
-2 17 2 1040.49 295.42 4
17 -2 -2 848.67 471.417 2
17 -2 2 636.438 365.63 2
2 15 2 1455.43 330.889 6
-2 17 2 940.029 246.119 6
17 -15 -2 1389.99 565.731 2
17 -15 2 343.966 375.406 2
2 15 -3 176.493 194.476 4
2 15 3 499.617 259.548 4
-2 17 -3 -130.719 219.167 4
-2 17 3 238.24 193.459 4
-15 17 3 366.98 261.422 4
-15 17 -3 139.686 233.935 4
17 -2 -3 -551.157 496.349 2
17 -2 3 -1.62061 361.171 2
2 15 3 -55.5851 199.95 6
-2 17 3 -26.8502 159.414 6
17 -15 -3 102.62 419.875 2
17 -15 3 191.59 516.291 2
-2 17 -4 1289.43 321.166 4
-2 17 4 1662.32 313.16 4
-15 17 -4 2356.29 385.115 4
-15 17 4 2263.88 399.965 4
17 -2 -4 1331.76 552.142 2
2 15 4 1710.77 313.809 6
-2 17 4 1992.78 317.911 6
17 -2 4 2238.57 637.92 2
17 -15 4 1033.55 544.7 2
17 -15 -5 -902.348 620.352 2
17 -15 5 -758.067 484.295 2
-2 17 -5 507.707 249.037 4
-2 17 5 743.344 274.782 4
-15 17 -5 127.477 263.135 4
-15 17 5 195.065 231.826 4
17 -2 -5 -306.157 532.775 2
17 -2 5 317.458 424.154 2
2 15 5 122.431 195.373 6
-2 17 5 35.5077 186.522 6
17 -15 -6 28.7936 282.801 2
17 -15 6 -109.942 435.045 2
-2 17 -6 263.86 213.628 4
-2 17 6 94.7595 195.069 4
-17 2 -6 273.11 201.331 3
-15 17 -6 401.002 260.564 4
-15 17 6 660.12 251.194 4
2 15 6 137.876 184.186 6
17 -2 -6 -37.9254 296.783 2
-2 17 6 494.024 228.293 6
17 -2 6 753.837 362.473 2
17 -15 -7 -582.068 457.395 2
17 -15 7 551.586 437.18 2
-2 17 -7 738.854 245.316 4
-2 17 7 796.77 263.801 4
-17 2 -7 268.618 195.013 3
-15 17 -7 249.727 221.139 4
-15 17 7 204.061 240.398 4
2 15 7 410.42 234.48 6
17 -2 -7 -162.7 404.891 2
17 -2 7 1376.58 582.713 2
-2 17 7 820.311 254.177 6
15 -17 7 407.77 463.152 2
-2 17 -8 95.9489 190.807 4
-2 17 8 336.984 179.648 4
-17 2 -8 394.017 232.454 3
-15 17 8 329.661 217.334 4
-15 17 -8 284.632 236.441 4
-15 -2 -8 128.627 236.102 3
2 15 8 605.877 280.318 6
-2 17 8 446.008 247.782 6
-2 17 -9 339.208 184.753 4
-2 17 9 370.011 198.281 4
-17 2 -9 1018.82 301.113 3
-15 17 -9 571.581 263.301 4
-15 17 9 290.059 220.431 4
-15 -2 -9 526.822 280.405 3
2 15 9 574.371 255.568 6
-2 17 9 292.93 211.048 6
-17 2 -10 -3.37099 243.446 3
-15 -2 -10 -242.431 267.353 3
-2 -15 -10 1.1817 176.849 3
2 15 10 457.061 247.738 6
-2 17 10 346.697 215.63 6
-17 2 -11 864.409 303.45 3
-15 -2 -11 700.57 276.11 3
-2 -15 -11 1001.89 239.943 3
2 15 11 905.862 260.88 6
-2 17 11 1087.45 310.326 6
-17 2 -12 658.765 287.091 3
-15 -2 -12 242.323 263.436 3
2 15 12 44.2617 207.706 6
-2 17 12 408.255 233.925 6
-15 17 -13 669.647 302.071 5
-17 2 -13 814.62 292.963 3
-15 -2 -13 552.903 304.952 3
2 15 13 607.57 253.489 6
-2 17 13 431.631 219.994 6
-15 17 13 668.578 329.21 6
-15 17 -14 225.13 238.555 5
-17 2 -14 170.126 242.775 3
-15 -2 -14 228.204 265.106 3
2 15 14 78.6841 201.822 6
-2 17 14 -11.112 189.044 6
-15 17 14 625.361 322.128 6
-15 17 -15 585.764 311.692 5
-17 2 -15 351.671 276.672 3
-15 -2 -15 107.784 254.369 3
2 15 15 365.017 175.646 6
-2 17 15 512.753 224.591 6
-15 17 15 486.974 296.042 6
-17 15 15 -194.231 281.758 6
-15 17 -16 403.345 252.745 5
-17 2 -16 28.9901 227.193 3
-15 -2 -16 231.13 240.358 3
2 15 16 168.051 169.369 6
-2 17 16 -30.8607 165.861 6
-15 17 16 -225.587 236.654 6
-17 15 16 137.565 226.081 6
-17 2 -17 101.512 229.337 3
-17 15 -17 388.316 250.037 5
-15 -2 -17 -24.9698 209.431 3
2 15 17 309.538 145.852 6
-2 17 17 -183.311 158.47 6
-15 17 17 77.064 179.879 6
-17 15 17 633.727 212.852 6
-15 17 -17 184.219 230.763 5
-17 15 -18 334.613 238.353 5
-15 -2 -18 162.607 190.924 3
-2 17 18 34.9168 117.216 6
-15 17 18 299.394 167.913 6
-17 2 -18 -149.821 184.229 3
-17 15 -19 -66.4346 187.051 5
-17 2 -19 -192.695 164.128 3
-15 17 -19 178.312 169.254 5
-15 -2 -19 61.4967 176.517 3
1 16 0 6322.45 542.174 4
-1 17 0 5746.28 525.142 4
1 16 0 6595.39 497.901 6
-1 17 0 5557.11 468.106 6
17 -1 0 4296.49 821.998 2
17 -16 0 6119.83 1017.28 2
1 16 -1 1122.08 319.541 4
1 16 1 1374.6 334.488 4
-1 17 -1 721.844 271.905 4
-1 17 1 1199.63 291.694 4
1 16 -1 1030.89 201.913 6
1 16 1 1206.58 260.198 6
-1 17 -1 1011.93 232.685 6
17 -1 -1 619.964 374.505 2
17 -1 1 459.431 459.894 2
-1 17 1 885.399 208.108 6
17 -16 -1 539.96 361.626 2
17 -16 1 1212.77 481.306 2
1 16 -2 1272.23 289.016 4
1 16 2 1252.18 289.461 4
-1 17 -2 1003.87 264.022 4
-1 17 2 1197.14 299.425 4
1 16 2 1461.36 288.757 6
17 -1 -2 1068.82 596.888 2
17 -1 2 211.958 438.355 2
-1 17 2 1170.13 278.377 6
17 -16 -2 715.71 574.299 2
17 -16 2 1371.09 586.001 2
1 16 -3 2690.34 370.968 4
1 16 3 2756.22 406.756 4
-1 17 -3 2362.44 375.313 4
-1 17 3 2361.04 369.015 4
1 16 3 2479.39 369.923 6
17 -1 -3 2424.66 659.65 2
17 -1 3 1057.11 548.164 2
-1 17 3 2936.11 389.922 6
17 -16 -3 2620.86 681.304 2
17 -16 3 1956.63 595.593 2
1 16 -4 689.525 247.499 4
1 16 4 945.474 273.86 4
-1 17 -4 667.908 212.763 4
-1 17 4 255.63 218.392 4
1 16 4 699.559 207.599 6
17 -1 -4 633.525 454.349 2
-1 17 4 606.059 233.434 6
17 -1 4 1091.91 566.632 2
17 -16 -4 278.456 355.131 2
17 -16 4 826.885 546.041 2
-1 17 -5 1399.97 285.993 4
-1 17 5 950.294 287.691 4
-16 17 -5 681.689 279.321 4
-16 17 5 983.744 301.976 4
-17 1 -5 957.462 267.294 3
1 16 5 916.513 267.171 6
-1 17 5 997.679 262.756 6
17 -1 -5 1315.8 555.179 2
17 -1 5 707.422 310.987 2
16 -17 -5 774.32 321.925 2
16 -17 5 949.514 481.023 2
17 -16 -5 336.965 433.515 2
17 -16 5 1498.83 530.271 2
17 -16 6 -799.735 571.275 2
-1 17 -6 79.0294 217.448 4
-1 17 6 -34.1682 201.677 4
-16 17 -6 2.23075 235.725 4
-16 17 6 -251.574 228.883 4
-17 1 -6 74.8225 216.847 3
1 16 6 -159.241 203.836 6
-1 17 6 105.373 220.242 6
16 -17 -6 700.689 437.257 2
16 -17 6 -547.02 469.127 2
17 -16 -6 -459.144 593.237 2
-1 17 -7 166.261 223.101 4
-1 17 7 204.176 212.958 4
-17 1 -7 14.8641 203.618 3
-16 17 -7 218.858 293.734 4
-16 17 7 -160.025 247.793 4
-16 -1 -7 -101.928 217.405 3
1 16 7 197.117 217.73 6
-1 17 7 273.508 233.374 6
-17 1 -8 470.461 258.383 3
-16 17 -8 127.835 245.204 4
-16 17 8 238.161 219.041 4
-16 -1 -8 -303.669 260.9 3
-17 16 -8 482.228 240.447 4
-17 16 8 65.7766 228.612 4
1 16 8 139.947 243.441 6
-1 17 8 358.032 254.188 6
-17 1 -9 922.914 283.554 3
-16 17 -9 1064.77 266.809 4
-16 17 9 1124.4 287.216 4
-16 -1 -9 773.217 288.492 3
-17 16 -9 810.367 264.693 4
-17 16 9 1291.41 296.359 4
1 16 9 992.612 281.799 6
-1 17 9 812.909 239.373 6
-17 1 -10 395.422 281.631 3
-16 -1 -10 -119.143 263.803 3
1 16 10 175.169 228.882 6
-1 17 10 48.6247 210.472 6
-17 1 -11 2541.55 393 3
-16 -1 -11 2219.38 400.128 3
1 16 11 2744.51 390.918 6
-1 17 11 2465.68 361.422 6
-17 1 -12 739.769 296.209 3
-16 -1 -12 504.926 280.248 3
1 16 12 123.167 208.543 6
-1 17 12 -14.9709 227.861 6
-16 17 -13 817.52 291.052 5
-17 1 -13 893.971 363.906 3
-16 -1 -13 1682.12 372.599 3
1 16 13 1550.45 316.801 6
-1 17 13 806.524 247.116 6
-16 17 13 622.338 347.134 6
-16 17 -14 162.817 253.601 5
-17 1 -14 395.184 258.586 3
-16 -1 -14 235.665 257.511 3
1 16 14 -146.107 183.82 6
-1 17 14 719.426 273.494 6
-16 17 14 182.129 273.119 6
-16 17 -15 29.8349 241.774 5
-17 1 -15 -714.254 271.124 3
-16 -1 -15 -257.242 257.166 3
1 16 15 -85.1522 189.166 6
-1 17 15 106.2 186.903 6
-16 17 15 374.961 258.435 6
-17 16 15 149.175 270.022 6
-16 17 -16 -28.7208 224.262 5
-17 16 -16 35.8453 249.164 5
-17 1 -16 181.111 227.47 3
-16 -1 -16 394.24 273.074 3
-1 17 16 216.975 177.922 6
1 16 16 -6.3832 151.372 6
-16 17 16 -40.8617 206.353 6
-17 16 16 -262.947 238.697 6
-16 17 -17 -45.0427 223.076 5
-17 16 -17 352.682 234.911 5
-17 1 -17 14.3938 188.068 3
-16 -1 -17 201.653 220.763 3
1 16 17 -50.4217 138.448 6
-1 17 17 98.2047 139.362 6
-16 17 17 -296.149 198.178 6
-17 16 17 18.9088 176.872 6
-17 16 -18 -82.0937 216.198 5
-16 -1 -18 28.1081 181.854 3
-1 17 18 130.51 110.665 6
-17 1 -18 -179.008 176.2 3
-16 17 -18 385.977 219.033 5
0 17 0 6037.66 549.532 4
0 17 0 5512.55 464.955 6
17 0 0 4300.29 832.14 2
17 -17 0 4299.24 936.999 2
0 17 -1 5617.57 521.615 4
0 17 1 5728.55 529.625 4
0 17 1 5833.52 483.592 6
0 17 -1 5718.67 472.65 6
17 0 -1 5068.69 913.745 2
17 0 1 5354.93 972.695 2
17 -17 -1 3961.96 835.852 2
17 -17 1 5476.59 1031.27 2
0 17 -2 3756.42 458.04 4
0 17 2 3337.16 405.884 4
0 17 2 3485.18 408.248 6
17 0 -2 2516 688.728 2
17 -17 -2 3069.06 714.172 2
17 -17 2 3749.03 895.51 2
0 17 -3 1209.58 308.721 4
0 17 3 886.53 282.518 4
0 17 3 1143.74 271.069 6
17 -17 -3 1519.79 626.823 2
17 -17 3 559.327 531.109 2
0 17 -4 3112.01 410.997 4
0 17 4 3198.83 425.354 4
0 17 4 3485.93 421.4 6
17 -17 -4 4058.51 902.513 2
17 -17 4 2486.5 757.036 2
0 17 -5 7522.92 589.515 4
0 17 5 8084.81 609.075 4
-17 0 -5 7536.4 554.21 3
0 17 5 7560.15 583.356 6
-17 17 -6 3130.84 415.316 4
-17 17 6 3123.11 397.159 4
-17 0 -6 4072.3 446.151 3
0 17 6 3503.24 415.626 6
-17 0 -7 2345.48 365.345 3
-17 17 -7 2645.94 393.602 4
-17 17 7 2568.42 377.418 4
0 17 7 2583.87 385.991 6
-17 0 -8 1944.51 387.23 3
-17 17 -8 1245.91 305.867 4
-17 17 8 1432.44 331.292 4
0 17 8 1466.93 316.624 6
-17 0 -9 2776.49 402.413 3
-17 17 -9 2114.07 329.985 4
-17 17 9 2283.72 369.594 4
0 17 9 2832.9 393.47 6
-17 0 -10 305.162 235.86 3
0 17 10 209.258 249.036 6
-17 0 -11 219.06 264.661 3
0 17 11 -5.77851 226.737 6
-17 0 -12 728.869 295.613 3
0 17 12 514.183 243.556 6
-17 0 -13 957.65 320.429 3
0 17 13 1213.63 287.562 6
-17 17 -14 739.968 288.677 5
-17 0 -14 458.721 296.898 3
0 17 14 752.783 234.985 6
-17 17 14 755.868 310.404 6
-17 17 -15 1240.37 308.528 5
-17 0 -15 542.644 265.547 3
0 17 15 586.762 207.414 6
-17 17 15 399.639 235.395 6
-17 17 -16 433.706 244.532 5
-17 0 -16 168.327 199.123 3
0 17 16 -14.6468 148.026 6
-17 17 16 -372.468 227.239 6
-17 17 -17 -145.625 214.256 5
-17 0 -17 -123.985 200.304 3
0 17 17 142.404 134.499 6
-17 17 17 -3.30039 157.306 6
-17 17 -18 348.279 212.458 5
-17 0 -18 -204.631 165.158 3
9 9 0 15973.9 741.622 6
-9 18 0 15167.7 787.573 4
18 -9 0 14405 1453.18 2
-9 18 0 13759.4 692.347 6
18 -9 -1 56.5151 390.9 2
18 -9 1 -445.85 405.808 2
-9 18 -1 5.65917 202.711 4
-9 18 1 114.558 208.271 4
9 9 -1 113.845 141.18 6
9 9 1 12.004 143.995 6
-9 18 1 234.797 191.157 6
18 -9 -2 845.055 484.176 2
18 -9 2 600.289 426.187 2
-9 18 -2 617.827 277.529 4
-9 18 2 329.709 211.222 4
9 9 2 127.326 189.35 6
-9 18 2 267.896 183.289 6
18 -9 -3 258.777 337.774 2
18 -9 3 359.404 373.133 2
-9 18 -3 378.269 275.869 4
-9 18 3 -291.896 215.712 4
9 9 3 104.492 174.331 6
-9 18 3 -105.684 233.906 6
18 -9 -4 128.689 338.885 2
18 -9 4 228.751 276.712 2
-9 18 -4 472.438 230.792 4
-9 18 4 640.191 214.144 4
9 9 4 727.652 223.555 6
-9 18 4 1017.71 281.205 6
18 -9 -5 9.78378 318.726 2
18 -9 5 91.857 325.758 2
-9 18 -5 217.186 230.803 4
-9 18 5 -9.47624 231.297 4
9 9 5 -170.682 183.948 6
-9 18 5 -55.2946 211.929 6
-9 18 -5 84.4739 160.625 5
18 -9 -6 -68.3023 421.385 2
-9 18 -6 206.508 241.717 4
-9 18 6 20.2401 226.506 4
18 -9 6 -225.592 373.28 2
9 9 6 195.164 198.719 6
-9 18 6 322.397 227.175 6
-9 18 -6 231.164 218.849 5
-9 18 -7 347.886 228.648 4
-9 18 7 253.508 211.56 4
18 -9 -7 617.706 459.626 2
18 -9 7 583.362 396.755 2
9 9 7 181.825 207.742 6
-9 18 7 324.389 275.164 6
-9 18 -7 175.354 211.063 5
-9 18 -8 368.406 236.034 4
-9 18 8 122.821 199.943 4
18 -9 -8 -424.259 334.774 2
18 -9 8 444.154 447.234 2
9 9 8 462.126 244.378 6
-9 18 8 48.3534 244.23 6
-9 18 -8 285.892 208.688 5
-9 18 9 89.1416 172.717 4
9 9 9 -70.2471 201.619 6
-9 18 9 -411.979 275.658 6
-9 18 -9 -86.1239 231.203 5
9 9 10 3323.98 403.11 6
-9 18 10 4333.15 461.288 6
-9 18 -10 3549.1 438.085 5
-9 -9 -11 152.709 266.735 3
9 9 11 -84.506 183.708 6
-9 18 11 319.405 228.572 6
-9 18 -11 -70.2905 229.438 5
-9 -9 -12 2317.44 405.085 3
9 9 12 1531.73 288.812 6
-9 18 12 1614.89 315.029 6
-9 18 -12 1650.6 369.414 5
-9 -9 -13 257.302 278.954 3
9 9 13 180.688 214.114 6
-9 18 13 -164.582 258.862 6
-9 18 -13 33.5509 262.053 5
-9 -9 -14 455.357 257.159 3
9 9 14 116.082 151.203 6
-9 18 14 591.402 242.499 6
-9 18 -14 541.14 276.469 5
-9 -9 -15 -4.03262 238.076 3
-9 18 15 -85.4552 226.253 6
-18 9 -15 -237.778 204.118 3
-9 18 -15 61.2318 278.446 5
-9 -9 -16 938.86 291.521 3
-9 18 16 690.121 233.082 6
-18 9 -16 1220.91 285.961 3
-9 18 -16 845.653 296.627 5
-9 -9 -17 -438.64 240.864 3
-9 18 17 351.012 197.6 6
-18 9 -17 289.412 217.141 3
-9 18 -17 60.5615 239.929 5
-9 -9 -18 435.418 224.043 3
-9 18 18 640.74 199.543 6
-18 9 -18 155.033 166.775 3
-9 18 -18 440.406 232.147 5
-9 -9 -19 -216.451 171.07 3
-18 9 -19 192.559 144.795 3
-9 18 -19 149.831 173.076 5
8 10 0 4219.32 401.006 6
18 -10 0 4083.01 837.492 2
-10 18 0 3780.06 432.148 4
18 -8 0 3094.15 766.121 2
-8 18 0 3618.35 430.779 4
-8 18 0 3939.36 387.925 6
-10 18 0 3698.88 373.859 6
18 -10 -1 2649.83 719.062 2
18 -10 1 1189.53 377.37 2
18 -8 -1 1828.68 595.962 2
18 -8 1 1928.36 650.047 2
-8 18 -1 1965.02 333.612 4
-8 18 1 2191.86 371.613 4
-10 18 -1 2083.77 336.326 4
-10 18 1 1724.86 322.184 4
10 8 1 2276.91 304.661 6
8 10 -1 2309.7 308.075 6
8 10 1 2349.81 319.926 6
-8 18 1 2351.96 325.615 6
-10 18 1 2261.73 315.576 6
18 -10 -2 2436.66 737.331 2
18 -10 2 1001.04 484.443 2
18 -8 -2 2020.94 637.88 2
18 -8 2 2275.77 703.876 2
-8 18 -2 2536.2 386.504 4
-8 18 2 2202.83 327.351 4
-10 18 -2 2295.07 353.53 4
-10 18 2 1923.29 330.374 4
8 10 -2 1816.52 270.564 6
10 8 2 1844.68 288.94 6
8 10 2 2411.02 343.772 6
-8 18 2 2352.13 332.957 6
-10 18 2 1969.11 322.165 6
18 -10 -3 2071.28 498.607 2
18 -10 3 2892.58 770.131 2
10 8 3 2178.36 341.631 6
18 -8 -3 1958.87 573.017 2
18 -8 3 2298.9 708.719 2
-8 18 -3 1929.8 326.3 4
-8 18 3 1939.57 318.349 4
-10 18 -3 2094.81 357.433 4
-10 18 3 2220.78 362.937 4
8 10 3 2024.73 314.318 6
-8 18 3 2291.39 333.365 6
-10 18 3 1697.08 329.85 6
18 -10 -4 3213.28 767.576 2
18 -10 4 2902.03 736.597 2
-8 18 -4 3089.51 390.827 4
-8 18 4 2783.09 371.014 4
18 -8 -4 1932.01 603.077 2
18 -8 4 1590.86 526.136 2
-10 18 -4 2313.32 352.225 4
-10 18 4 2672.22 375.194 4
8 10 4 3210.99 383.025 6
10 8 4 2539.03 337.857 6
-8 18 4 2568.06 357.752 6
-10 18 4 2547.52 396.349 6
-8 18 -4 2345.55 326.309 5
18 -10 -5 712.061 424.201 2
18 -10 5 983.994 441.538 2
-8 18 -5 474.085 251.456 4
-8 18 5 654.096 246.423 4
18 -8 -5 813.839 429.54 2
18 -8 5 516.172 382.368 2
-10 18 -5 657.229 256.766 4
-10 18 5 372.26 220.118 4
10 8 5 413.88 214.096 6
8 10 5 197.432 199.834 6
-8 18 5 449.786 242.351 6
-10 18 5 480.994 230.58 6
-8 18 -5 679.907 205.648 5
-10 18 -5 593.363 191.22 5
18 -10 -6 -271.301 351.078 2
18 -10 6 232.841 298.956 2
-8 18 -6 507.607 239.39 4
-8 18 6 544.319 228.741 4
-10 18 -6 851.007 288.325 4
-10 18 6 753.998 233.87 4
18 -8 -6 1320.5 532.141 2
18 -8 6 392.921 507.534 2
10 8 6 642.98 236.717 6
8 10 6 554.154 226.534 6
-8 18 6 625.646 234.911 6
-10 18 6 377.839 270.127 6
-8 18 -6 751.281 256.705 5
-10 18 -6 655.457 238.731 5
-8 18 -7 404.128 214.789 4
-8 18 7 677.614 232.544 4
18 -10 -7 301.469 374.897 2
18 -10 7 418.639 478.261 2
-10 18 -7 645.864 267.827 4
-10 18 7 639.102 262.997 4
18 -8 -7 -372.545 370.414 2
18 -8 7 312.188 477.99 2
10 8 7 721.239 242.879 6
8 10 7 741.83 237.488 6
-8 18 7 657.572 283.375 6
-10 18 7 1051.14 279.973 6
-8 18 -7 687.708 257.142 5
-10 18 -7 479.684 230.381 5
-8 18 -8 -63.0651 183.055 4
-8 18 8 49.8361 187.493 4
-10 18 -8 253.964 224.651 4
-10 18 8 81.4292 183.658 4
18 -10 -8 -245.653 382.533 2
18 -10 8 239.938 426.252 2
18 -8 -8 42.3133 313.144 2
18 -8 8 -242.762 419.394 2
10 8 8 518.74 238.09 6
8 10 8 195.263 210.345 6
-8 18 8 114.127 215.225 6
-10 18 8 84.8538 240.752 6
-8 18 -8 -10.8345 203.169 5
-10 18 -8 258.297 233.703 5
-8 18 9 74.7772 178.733 4
-10 18 9 406.235 215.041 4
8 10 9 136.955 193.218 6
10 8 9 94.9586 208.067 6
-8 18 9 2.28093 225.13 6
-10 18 9 -23.2167 250.837 6
-8 18 -9 212.085 252.237 5
-10 18 -9 739.279 394.112 5
10 8 10 1814.08 350.302 6
8 10 10 2756.25 375.388 6
-8 18 10 2791.35 419.297 6
-10 18 10 2284.17 356.138 6
-8 18 -10 2579.81 416.594 5
-10 18 -10 2050.71 373.464 5
-10 -8 -11 3251.62 440.473 3
-8 -10 -11 2191.69 384.739 3
10 8 11 2368.17 328.952 6
8 10 11 2357.05 369.344 6
-8 18 11 2090.08 376.448 6
-10 18 11 2237.16 374.998 6
-8 18 -11 2690.04 403.209 5
-10 18 -11 2752.6 444.052 5
-10 -8 -12 1279.04 340.114 3
-8 -10 -12 1438.23 359.043 3
10 8 12 937.54 238.794 6
-8 18 12 791.801 246.742 6
-10 18 12 1551.12 355.739 6
8 10 12 1069.59 256.236 6
-8 18 -12 1264.98 328.224 5
-10 18 -12 1093.12 309.089 5
-10 -8 -13 1780.67 377.032 3
-8 -10 -13 1173.49 320.68 3
8 10 13 626.647 218.818 6
-8 18 13 1816.48 338.15 6
-10 18 13 1968.68 375.233 6
-8 18 -13 1692.04 322.233 5
-10 18 -13 1516.48 346.648 5
-18 8 -13 1085.89 263.44 3
-10 -8 -14 508.481 287.352 3
-8 -10 -14 519.802 283.676 3
8 10 14 621.128 227.984 6
-8 18 14 534.756 253.703 6
-10 18 14 937.303 317.249 6
-8 18 -14 498.964 267.544 5
-18 8 -14 365.95 248.558 3
-10 18 -14 943.502 300.653 5
-10 -8 -15 699.607 283.532 3
-8 -10 -15 403.027 239.023 3
8 10 15 393.423 166.571 6
-8 18 15 861.765 277.55 6
-10 18 15 685.262 288.539 6
-18 8 -15 345.443 217.57 3
-8 18 -15 454.21 266.88 5
-10 18 -15 633.417 313.138 5
-10 -8 -16 97.3389 238.697 3
-8 -10 -16 -0.40388 220.99 3
-8 18 16 -104.386 218.134 6
-10 18 16 87.1889 192.707 6
-18 10 -16 -151.57 171.276 3
-18 8 -16 462.221 213.384 3
-8 18 -16 20.1123 245.831 5
-10 18 -16 249.36 260.401 5
-8 -10 -17 506.201 220.093 3
-10 -8 -17 849.947 278.684 3
-8 18 17 463.352 215.513 6
-10 18 17 287.175 185.097 6
-18 10 -17 691.362 213.281 3
-18 8 -17 334.271 194.289 3
-8 18 -17 882.498 270.038 5
-10 18 -17 485.316 248.897 5
-8 -10 -18 234.437 176.82 3
-10 -8 -18 583.11 236.209 3
-8 18 18 207.978 153.298 6
-10 18 18 677.224 203.983 6
-18 10 -18 342.88 162.792 3
-18 8 -18 45.1007 165.18 3
-8 18 -18 706.412 255.89 5
-10 18 -18 374.64 234.129 5
-8 -10 -19 35.8465 157.498 3
-10 -8 -19 214.17 163.536 3
-18 10 -19 207.818 139.687 3
-18 8 -19 235.698 157.816 3
-10 18 -19 -121.988 188.519 5
18 -11 0 1061.73 508.625 2
-7 18 0 1800.75 341.101 4
18 -7 0 1139.82 561.811 2
7 11 0 1547.01 278.016 6
-11 18 0 1277.7 315.816 4
-7 18 0 1225.64 225.04 6
-11 18 0 1074.53 260.251 6
18 -11 -1 1781.53 686.133 2
18 -11 1 1474.01 614.322 2
-7 18 -1 2067.85 364.45 4
-7 18 1 1518.14 308.619 4
18 -7 -1 1242.45 482.023 2
18 -7 1 748.689 394.861 2
-11 18 -1 1468.67 317.644 4
-11 18 1 1479.19 325.353 4
7 11 1 1849.22 298.06 6
7 11 -1 1572.69 279.027 6
-7 18 1 1618.28 295.567 6
-11 18 1 1415.03 280.861 6
-7 18 -2 9061.67 621.667 4
-7 18 2 9375.5 633.13 4
-11 18 -2 9704.45 652.924 4
-11 18 2 8744.86 611.459 4
7 11 2 9042.96 604.409 6
7 11 -2 8483.09 544.077 6
18 -11 -2 8742.91 1183.51 2
18 -11 2 9401.46 1251.41 2
-7 18 2 9462.45 614.164 6
18 -7 -2 8490.87 1156.77 2
-11 18 2 8518.16 586.076 6
18 -7 2 10556.3 1231.57 2
-7 18 -3 5028.99 459.976 4
-7 18 3 4535.25 456.643 4
18 -11 -3 4754.41 902.798 2
18 -11 3 6187.83 1006.69 2
-11 18 -3 4666.06 460.63 4
11 7 3 4707.26 442.764 6
-11 18 3 4758.79 464.901 4
7 11 -3 4290.83 375.142 6
18 -7 -3 4016.46 758.844 2
18 -7 3 3928.32 823.17 2
-7 18 3 4785.56 444.141 6
7 11 3 4811.16 469.986 6
-11 18 3 4123.33 442.408 6
-7 18 -4 10796.4 676.617 4
-7 18 4 10810.7 664.563 4
-11 18 -4 9328.38 649.845 4
-11 18 4 10400.4 670.968 4
7 11 4 10312.6 637.423 6
18 -11 4 9027.56 1203.05 2
18 -11 -4 9901.95 1270.76 2
11 7 4 9804.68 616.974 6
-7 18 4 10195.7 652.887 6
18 -7 -4 9426.58 1199.67 2
-11 18 4 9208.81 634.307 6
18 -7 4 9688.9 1230.3 2
-7 18 -4 8946.04 600.679 5
11 7 5 870.273 233.426 6
18 -11 5 339.09 418.173 2
-7 18 -5 1007.55 269.56 4
-7 18 5 1373.17 306.182 4
-11 18 -5 1644.15 323.655 4
-11 18 5 1402.47 307.433 4
18 -7 -5 1628.96 639.606 2
18 -7 5 696.863 464.288 2
7 11 5 1273.31 289.37 6
-11 18 5 716.76 301.123 6
-7 18 5 790.645 218.301 6
-7 18 -5 1454.98 300.202 5
-11 18 -5 712.284 218.66 5
18 -11 -6 2332.32 537.192 2
18 -11 6 2005.52 597.589 2
-7 18 -6 2791.89 365.921 4
-7 18 6 2614.16 381.364 4
-11 18 -6 2665.6 375.639 4
-11 18 6 2955.48 400.252 4
18 -7 -6 1759.09 591.337 2
18 -7 6 3213.99 743.523 2
11 7 6 2882.47 372.013 6
7 11 6 2548.39 368.908 6
-7 18 6 3013.11 398.81 6
-11 18 6 2728.67 388.543 6
-7 18 -6 2929.72 379.526 5
-11 18 -6 2265.59 331.955 5
18 -11 -7 2437.95 693.826 2
-7 18 -7 2158.8 352.031 4
-7 18 7 2744.17 367.27 4
18 -11 7 1285.24 542.145 2
-11 18 -7 2240.37 368.202 4
-11 18 7 2698.67 371.895 4
18 -7 -7 3064.84 707.012 2
18 -7 7 965.178 468.641 2
11 7 7 2658.01 353.729 6
7 11 7 3076.27 391.466 6
-7 18 7 2987.33 397.631 6
-11 18 7 2792.24 410.365 6
-7 18 -7 2528.37 359.997 5
-11 18 -7 2951.86 397.161 5
-7 18 -8 3525.83 408.491 4
-7 18 8 2819.13 367.428 4
18 -11 -8 1603.82 525.851 2
-11 18 -8 3231.32 400.234 4
-11 18 8 2655.43 367.798 4
18 -7 -8 2662.95 639.054 2
11 7 8 3592.67 421.688 6
7 11 8 3978.27 436.256 6
-7 18 8 3727.16 439.28 6
-11 18 8 3463.79 445.511 6
-7 18 -8 3210.02 405.738 5
-11 18 -8 3310.42 419.842 5
-7 18 9 942.775 250.328 4
-11 18 -9 1163.36 302.252 4
-11 18 9 844.627 256.033 4
11 7 9 1268.92 276.44 6
7 11 9 922.529 237.974 6
-7 18 9 1322.74 325.582 6
-11 18 9 1172.84 334.48 6
-7 18 -9 909.87 301.688 5
-11 18 -9 1167.67 304.885 5
7 11 10 5081.05 498.496 6
11 7 10 5583.73 495.259 6
-11 -7 -10 5567.65 552.509 3
-11 18 10 5912.33 558.229 6
-7 18 10 6089.28 555.099 6
-7 18 -10 5621.33 547.014 5
-11 18 -10 5324.81 536.205 5
-11 -7 -11 1205.41 339.803 3
-7 -11 -11 1501.49 352.186 3
7 11 11 969.034 285.038 6
-7 18 11 749.846 281.603 6
-11 18 11 1407.12 343.196 6
-7 18 -11 451.867 246.116 5
-11 18 -11 1255.18 335.563 5
-7 -11 -12 5930.72 551.322 3
7 11 12 4986.71 475.959 6
-18 7 -12 5163.3 481.652 3
-11 -7 -12 6166.43 599.971 3
-7 18 12 5607.68 517.837 6
-11 18 12 5504.13 521.229 6
-7 18 -12 5153.68 545.343 5
-11 18 -12 5689.32 553.511 5
-18 7 -13 282.262 197.618 3
-11 -7 -13 599.066 323.043 3
-7 -11 -13 362.027 266.038 3
7 11 13 546.45 238.324 6
-7 18 13 311.42 232.746 6
-11 18 13 1154.28 362.028 6
-7 18 -13 639.713 274.907 5
-11 18 -13 746.199 327.205 5
-11 -7 -14 1259.99 371.882 3
-7 -11 -14 1069.06 309.727 3
7 11 14 976.053 220.22 6
-7 18 14 1222.43 304.909 6
-11 18 14 833.306 280.077 6
-7 18 -14 1140.6 339.219 5
-11 18 -14 892.915 287.374 5
-18 7 -14 924.681 260.298 3
-11 -7 -15 1066.77 350.516 3
-7 -11 -15 375.002 220.533 3
7 11 15 372.165 154.654 6
-7 18 15 793.987 254.203 6
-11 18 15 936.95 278.394 6
-7 18 -15 1239.82 327.24 5
-18 7 -15 625.997 259.517 3
-11 18 -15 845.793 258.299 5
-11 -7 -16 644 310.373 3
-7 -11 -16 1111.79 278.93 3
7 11 16 759.012 188.318 6
-7 18 16 591.783 241.273 6
-11 18 16 814.441 254.736 6
-7 18 -16 785.739 267.515 5
-18 7 -16 391.285 197.692 3
-11 18 -16 621.716 288.422 5
-7 -11 -17 635.721 229.154 3
-11 -7 -17 553.638 251.544 3
-7 18 17 905.675 239.388 6
-11 18 17 520.502 212.892 6
-18 7 -17 494.146 218.62 3
-7 18 -17 481.907 244.323 5
-11 18 -17 504.762 251.833 5
-7 -11 -18 667.609 253.394 3
-11 -7 -18 957.51 260.725 3
-7 18 18 1181.53 217.353 6
-11 18 18 1213.92 211.809 6
-18 7 -18 1143 250.433 3
-11 18 -18 1237.44 289.309 5
-7 -11 -19 53.0003 132.118 3
-11 -7 -19 201.052 179.785 3
-18 7 -19 -176.594 164.982 3
-11 18 -19 390.99 193.263 5
-6 18 0 9797.23 644.913 4
-12 18 0 9681.29 643.437 4
6 12 0 11181.4 626.705 6
18 -12 0 9463.37 1245.9 2
-6 18 0 9584.55 594.613 6
18 -6 0 9879.75 1240.06 2
-12 18 0 8393.25 556.039 6
6 12 -1 4689.91 433.59 6
-6 18 -1 5012.86 501.614 4
-6 18 1 5049.82 488.2 4
18 -12 -1 4950.41 934.124 2
18 -12 1 4838.71 911.678 2
-12 18 1 4542.92 458.132 4
-12 18 -1 5003.16 494.08 4
18 -6 -1 4588.3 878.174 2
18 -6 1 4749.24 909.952 2
6 12 1 5120.03 468.918 6
-6 18 1 4606.62 432.92 6
6 12 -2 4325.31 404.043 6
-6 18 -2 4652.54 467.75 4
-6 18 2 4987.42 461.626 4
18 -12 -2 4876.95 926.198 2
18 -12 2 4402.05 849.908 2
-12 18 -2 5320.31 488.718 4
-12 18 2 5213.65 468.13 4
18 -6 -2 4754.85 950.4 2
18 -6 2 4372.9 814.65 2
6 12 2 4946 453.419 6
-6 18 2 4942.47 438.501 6
-6 18 -3 16717 841.351 4
-6 18 3 16497.8 843.193 4
-12 18 3 15326.9 799.592 4
-12 18 -3 16259.4 830.554 4
6 12 3 17306 826.299 6
-6 18 3 16265.4 794.238 6
18 -12 -3 17856.6 1704.6 2
18 -12 3 15771.4 1605.09 2
6 12 -3 13161.4 649.389 6
18 -6 -3 14602.7 1512.52 2
18 -6 3 15634.3 1558.67 2
18 -12 -4 663.411 410.828 2
18 -12 4 1106.09 503.003 2
-6 18 -4 1310.91 289.737 4
-6 18 4 1287.74 296.04 4
-12 18 -4 1041.07 270.483 4
-12 18 4 1329.11 310.095 4
18 -6 -4 1070.16 493.971 2
18 -6 4 1688.19 599.249 2
6 12 4 1619.06 302.717 6
-6 18 4 1049.44 268.805 6
-6 18 -5 7590.6 586.499 4
-6 18 5 8068.2 584.953 4
18 -12 -5 7642.5 1118.9 2
18 -12 5 7763.19 1107.5 2
-12 18 -5 8970.07 641.099 4
-12 18 5 8425.65 612.208 4
18 -6 -5 8380.56 1133.26 2
6 12 5 8931.99 614.66 6
-6 18 5 8459.27 593.027 6
18 -6 5 8275.45 1112.44 2
-6 18 -5 9284.91 621.783 5
18 -12 -6 731.9 362.589 2
18 -12 6 1463.68 528.387 2
-6 18 -6 2207.64 345.407 4
-6 18 6 2231.89 347.643 4
-12 18 -6 1756.4 324.825 4
-12 18 6 1789.04 330.657 4
18 -6 -6 1524.23 559.439 2
18 -6 6 2793.29 679.997 2
6 12 6 1945.75 328.028 6
-6 18 6 2155.75 336.153 6
-6 18 -6 2692.7 393.056 5
-12 18 -6 1886.35 314.903 5
18 -12 -7 -455.221 492.586 2
18 -12 7 399.943 426.233 2
-6 18 -7 183.993 195.803 4
-6 18 7 136.288 209.509 4
-12 18 -7 -230.423 249.332 4
-12 18 7 143.533 219.798 4
18 -6 -7 -15.0835 401.914 2
18 -6 7 -138.704 306.683 2
6 12 7 -74.0057 203.773 6
-6 18 7 -267.485 266.787 6
-12 18 7 620.035 286.948 6
-6 18 -7 95.0974 217.549 5
-12 18 -7 -4.41462 207.529 5
-12 18 -8 3681.21 430.535 5
-6 18 -8 4179.63 437.248 4
-6 18 8 4015.71 431.555 4
-12 18 8 4334.5 449.327 4
-12 18 -8 4061.82 436.706 4
6 12 8 4579.61 476.641 6
-6 18 8 4538.48 475.447 6
-12 18 8 3977.86 486.521 6
-6 18 -8 4315.43 471.953 5
-6 18 -9 4432.74 455.808 4
-6 18 9 4393.11 431.405 4
-12 18 -9 4642.51 475.208 4
-12 18 9 3967.9 431.387 4
-6 18 9 4837.19 482.384 6
-12 18 9 5707.55 547.065 6
6 12 9 5115.72 511.159 6
-6 18 -9 4805.09 493.478 5
-12 18 -9 5126.28 512.666 5
-12 18 -10 2400.99 394.455 5
-12 -6 -10 2532.54 424.126 3
6 12 10 2081.02 363.304 6
-6 18 10 2908.86 413.135 6
-12 18 10 2734.46 418.865 6
-6 18 -10 2054.16 367.059 5
-12 -6 -11 14458.9 833.875 3
-6 -12 -11 13196.3 763.366 3
6 12 11 13113.9 751.186 6
-18 6 -11 12347.7 723.979 3
-6 18 11 13380.2 779.49 6
-12 18 11 14711.4 837.695 6
-6 18 -11 13259.3 806.705 5
-12 18 -11 14483.5 845.623 5
-18 6 -12 43.0551 208.876 3
-12 -6 -12 99.7837 285.395 3
-6 -12 -12 151.319 254.505 3
6 12 12 297.628 244.367 6
-6 18 12 295.324 263.916 6
-12 18 12 120.374 280.229 6
-6 18 -12 27.1945 265.607 5
-12 18 -12 -15.067 237.755 5
6 12 13 4828.6 448.917 6
-6 18 13 4806.88 474.52 6
-12 -6 -13 5012.73 550.241 3
-18 6 -13 4589.34 464.794 3
-6 -12 -13 5283.68 500.953 3
-12 18 13 5151.11 509.309 6
-6 18 -13 4961.4 541.461 5
-12 18 -13 5187.94 535.511 5
-18 6 -14 741.97 260.846 3
-12 -6 -14 1086.75 351.721 3
-6 -12 -14 568.027 257.837 3
6 12 14 449.423 183.301 6
-6 18 14 669.477 231.561 6
-12 18 14 568.885 272.34 6
-6 18 -14 264.746 267.385 5
-12 18 -14 783.016 301.378 5
-12 -6 -15 27.879 272.157 3
-6 -12 -15 177.001 214.32 3
6 12 15 250.05 188.452 6
-6 18 15 228.75 204.607 6
-12 18 15 180.074 254.42 6
-6 18 -15 -71.948 251.36 5
-12 18 -15 485.422 296.898 5
-18 6 -15 65.0356 205.328 3
-6 -12 -16 1053.38 244.693 3
-12 -6 -16 1092.59 303.817 3
6 12 16 868.67 201.61 6
-6 18 16 1108.34 271.169 6
-12 18 16 1038.67 290.89 6
-18 6 -16 718.015 263.988 3
-12 18 -16 1282.88 343.039 5
-6 -12 -17 1749.81 278.012 3
-12 -6 -17 1836.8 345.707 3
-6 18 17 1816.51 275.052 6
-12 18 17 2090.25 296.452 6
-18 6 -17 1267.7 311.472 3
-12 18 -17 2735.15 424.031 5
-6 -12 -18 229.003 150.921 3
-12 -6 -18 330.224 197.862 3
-6 18 18 92.6988 154.134 6
-12 18 18 389.804 182.962 6
-18 6 -18 76.789 176.069 3
-12 18 -18 320.405 220.058 5
-12 -6 -19 1970.53 288.311 3
-18 6 -19 1804.63 266.047 3
-12 18 -19 2155.52 294.79 5
18 -13 0 2291.59 466.507 2
-5 18 0 1725.23 363.699 4
-13 18 0 2467.53 375.155 4
18 -5 0 2265.57 649.03 2
5 13 0 2720.79 347.372 6
-5 18 0 2433.21 314.267 6
-5 18 -1 15072.8 804.688 4
-5 18 1 13789 815.602 4
-13 18 1 14258.1 767.494 4
-13 18 -1 15428.9 804.323 4
5 13 -1 14638.6 710.351 6
18 -13 1 14672.1 1553.07 2
18 -13 -1 15999 1613.64 2
-5 18 1 14632.2 728.362 6
5 13 1 17156.1 791.629 6
18 -5 -1 11827 1360.87 2
18 -5 1 13497.9 1437.39 2
-5 18 -2 9122.18 645.584 4
-5 18 2 8647.61 610.711 4
5 13 -2 7966.55 541.457 6
-13 18 2 8936.78 613.941 4
-13 18 -2 9275.2 636.679 4
18 -5 -2 8138.49 1133.44 2
5 13 2 9728.49 612.005 6
18 -13 -2 9903.43 1261.92 2
18 -13 2 8736.42 1221.85 2
-5 18 2 9273.88 612.688 6
18 -5 2 8403.51 1148.93 2
-5 18 3 3974.7 440.59 4
18 -13 -3 2344.75 660.213 2
18 -13 3 2871.83 677.432 2
-5 18 -3 3175.09 401.831 4
-13 18 -3 3781.55 426.648 4
-13 18 3 3200.03 402.888 4
18 -5 -3 2865.99 721.78 2
18 -5 3 3395.46 750.489 2
5 13 3 3423.11 382.867 6
-5 18 3 3820.27 407.807 6
-5 18 -4 7949.65 601.934 4
-5 18 4 7993.93 594.443 4
-13 18 -4 8845.8 614.402 4
-13 18 4 7753.74 564.383 4
18 -5 -4 7548.65 1079.28 2
18 -5 4 6963.08 1055.17 2
18 -13 -4 8884.75 1247.93 2
18 -13 4 8365.63 1176.21 2
-5 18 4 7184.64 554.45 6
5 13 4 7991.49 584.998 6
18 -13 -5 1437.25 475.594 2
18 -13 5 1191.34 445.706 2
-5 18 -5 2161.06 361.34 4
-5 18 5 1938.79 332.456 4
-13 18 -5 2538.62 377.93 4
-13 18 5 1835.38 364.853 4
18 -5 -5 1768.02 585.77 2
18 -5 5 1684.04 534.374 2
5 13 5 1695.57 326.575 6
-5 18 5 1914.07 321.684 6
-13 18 -6 1790.82 320.294 5
18 -13 -6 2664.88 704.89 2
18 -13 6 611.908 401.046 2
-5 18 -6 1925.07 333.823 4
-5 18 6 1462.58 306.695 4
-13 18 -6 1955.49 341.521 4
-13 18 6 1501.17 319.44 4
18 -5 6 1380.44 513.36 2
5 13 6 1457.35 303.764 6
18 -5 -6 2086.58 617.614 2
-5 18 6 1710.86 325.646 6
-13 18 -7 3639.17 417.417 5
-5 18 -7 3918.15 441.609 4
18 -13 -7 3214.93 700.511 2
18 -13 7 2423.57 702.62 2
-5 18 7 3958.6 422.237 4
-13 18 -7 3679.74 442.261 4
-13 18 7 3916.14 441.473 4
5 13 7 4414.7 464.459 6
18 -5 -7 3569.45 826.783 2
18 -5 7 1463.1 544.362 2
-5 18 7 4416.56 464.778 6
-5 18 -7 5138.68 506.304 5
-13 18 -8 1066.77 274.747 5
-5 18 -8 817.997 248.313 4
-5 18 8 844.014 271.726 4
-13 18 -8 1153.24 330.813 4
-13 18 8 769.047 259.774 4
5 13 8 1066.31 298.34 6
-5 18 8 1187.99 307.91 6
-5 18 -8 646.434 248.219 5
-5 18 -9 5240.32 463.369 4
-5 18 9 5440.97 480.591 4
-13 -5 -9 6445.5 577.844 3
-13 18 -9 4712.38 474.522 4
-13 18 9 4782.46 460.887 4
5 13 9 6376.14 552.973 6
-5 18 9 6004.47 535.936 6
-13 18 9 5338.46 545.503 6
-5 18 -9 6138.95 555.576 5
-13 18 -9 5358.09 516.655 5
-13 18 -10 4096.49 479.73 5
-18 5 -10 3961.77 435.373 3
-13 -5 -10 4274.63 491.357 3
5 13 10 4140.17 454.064 6
-5 18 10 3941.97 451.807 6
-13 18 10 4021.37 499.6 6
-5 18 -10 4337.25 480.722 5
-13 18 -11 2046.12 384.419 5
-18 5 -11 2140.34 359.854 3
-13 -5 -11 1691.6 362.384 3
-5 -13 -11 2040.58 339.642 3
5 13 11 2233.46 359.992 6
-5 18 11 2847.31 408.78 6
-13 18 11 2683.22 441.213 6
-5 18 -11 2150.27 366.644 5
-13 18 -12 5071.91 510.779 5
-5 -13 -12 4564.89 471.248 3
-13 -5 -12 4204.86 512.406 3
-18 5 -12 5119.24 513.549 3
5 13 12 4327.2 458.807 6
-5 18 12 5075.59 493.478 6
-13 18 12 5759.3 576.812 6
-5 18 -12 4852.12 533.834 5
-18 5 -13 1558.51 336.707 3
-13 -5 -13 1422.32 354.478 3
-5 -13 -13 1672.3 311.009 3
5 13 13 1223.24 288.265 6
-5 18 13 1563.08 324.463 6
-13 18 13 1372.09 336.472 6
-5 18 -13 1941.07 385.922 5
-13 18 -13 1889.9 399.419 5
-18 5 -14 850.771 290.023 3
-13 -5 -14 1486.89 389.771 3
-5 -13 -14 848.596 275.725 3
5 13 14 1113.14 229.312 6
-5 18 14 1184.63 292.583 6
-13 18 14 1099.29 309.288 6
-13 18 -14 1732.62 361.944 5
-18 5 -15 1379.54 333.374 3
-13 -5 -15 2271.89 389.627 3
-5 -13 -15 1780.97 283.909 3
5 13 15 2361.33 311.559 6
-5 18 15 2079.24 320.607 6
-13 18 15 2341.55 370.415 6
-13 18 -15 3101.12 463.306 5
-5 -13 -16 683.291 236.86 3
-13 -5 -16 1289.03 317.599 3
5 13 16 542.822 171.788 6
-5 18 16 784.315 243.897 6
-13 18 16 876.314 266.867 6
-13 18 -16 670.562 297.227 5
-18 5 -16 417.81 232.249 3
-5 -13 -17 611.625 196.023 3
-13 -5 -17 1324.96 294.392 3
-5 18 17 1214.25 230.427 6
-13 18 17 1115.15 244.407 6
-18 5 -17 879.636 252.501 3
-13 18 -17 1094.42 318.836 5
-13 -5 -18 1820.26 316.675 3
-5 18 18 1160.68 197.253 6
-13 18 18 1313.26 224.903 6
-18 5 -18 1244.13 251.083 3
-13 18 -18 1113.69 264.508 5
-13 -5 -19 159.376 183.106 3
-18 13 -19 172.819 194.354 5
-18 5 -19 373.256 191.211 3
-13 18 -19 172.917 170.164 5
18 -14 0 1936.87 673.807 2
18 -4 0 1908.65 628.117 2
-4 18 0 2454.51 378.284 4
-14 18 0 2079.34 351.127 4
4 14 0 3075.95 359.098 6
-4 18 0 2606.45 340.377 6
18 -14 -1 3225.88 755.07 2
18 -14 1 3534.24 745.616 2
18 -4 1 3026.48 746.747 2
-4 18 -1 3632.02 430.211 4
-4 18 1 3794.7 429.899 4
-14 18 -1 3223.84 397.192 4
-14 18 1 3268.86 415.711 4
18 -4 -1 2339.85 749.621 2
4 14 1 3558.75 394.201 6
4 14 -1 3195.03 357.817 6
-4 18 1 3367.7 373.334 6
18 -14 -2 4242.04 850.649 2
18 -14 2 4908.18 947.219 2
-4 18 2 5440.07 500.098 4
4 14 -2 3989.29 386.049 6
-4 18 -2 4316.44 463.276 4
-14 18 -2 4814.69 507.236 4
-14 18 2 4975.9 495.772 4
18 -4 2 3422.45 750.597 2
18 -4 -2 3514.36 771.347 2
4 14 2 4946.58 452.395 6
-4 18 2 4391.8 435.42 6
18 -14 -3 1169.37 513.33 2
18 -14 3 2669.97 799.687 2
18 -4 -3 1116.61 543.675 2
-4 18 -3 1551.62 329.115 4
-4 18 3 1692.72 323.757 4
-14 18 -3 1850.53 363.33 4
-14 18 3 1584.02 344.182 4
4 14 3 1877.66 299.16 6
18 -4 3 1481.18 478.636 2
-4 18 3 1511.82 278.825 6
-4 18 -4 4519.94 483.081 4
18 -14 -4 4328.62 905.609 2
18 -14 4 3907.43 906.986 2
-4 18 4 3538.96 433.255 4
18 -4 4 3757.63 756.585 2
-14 18 -4 4104.67 458.765 4
-14 18 4 3985.78 457.262 4
4 14 4 4081.89 438.576 6
18 -4 -4 4637.39 928.545 2
-4 18 4 4104.08 437.756 6
18 -14 -5 701.34 359.804 2
18 -14 5 -103.595 408.903 2
-4 18 -5 -13.8909 209.493 4
-4 18 5 395.947 268.878 4
-14 18 -5 204.304 233.04 4
-14 18 5 50.1502 224.094 4
18 -4 -5 862.564 474.25 2
18 -4 5 -535.747 308.574 2
4 14 5 293.223 223.609 6
-4 18 5 95.9885 204.932 6
-14 18 -6 1426.9 286.907 5
18 -14 -6 785.739 345.252 2
18 -14 6 616.593 451.998 2
-4 18 -6 1254.59 299.785 4
-4 18 6 1475.72 293.769 4
-14 18 -6 1707.39 356.631 4
-14 18 6 1059.13 313.106 4
18 -4 -6 1814.78 633.791 2
18 -4 6 704.744 342.177 2
4 14 6 1789.92 333.497 6
-4 18 6 1405.43 289.134 6
-14 18 -7 992.521 261.605 5
18 -14 -7 501.886 392.343 2
18 -14 7 665.875 481.157 2
-4 18 -7 162.992 211.802 4
-4 18 7 489.463 250.642 4
-14 18 -7 560.318 256.689 4
-14 18 7 265.712 258.266 4
18 -4 -7 566.34 348.176 2
4 14 7 433.109 218.049 6
-4 18 7 299.155 209.549 6
-14 18 -8 868.524 272.896 5
-4 18 -8 969.757 246.089 4
-4 18 8 1126.85 284.474 4
-14 18 -8 1106.51 299.463 4
-14 18 8 1384.67 333.97 4
4 14 8 937.125 264.82 6
-4 18 8 1280.65 316.972 6
-14 18 -9 715.62 272.921 5
-4 18 -9 332.161 167.306 4
-4 18 9 894.866 253.27 4
-18 4 -9 1354.78 320.409 3
-14 18 -9 467.702 226.403 4
-14 18 9 816.24 259.582 4
-14 -4 -9 1052.03 318.895 3
4 14 9 776.156 267.012 6
-4 18 9 627.892 268.509 6
-14 18 -10 2231.26 376.329 5
-18 4 -10 1900.58 328.787 3
-14 -4 -10 2627.13 438.453 3
4 14 10 2203.58 356.418 6
-4 18 10 2109.81 363.045 6
-14 18 10 2658.09 436.456 6
-14 18 -11 1137.05 307.701 5
-18 4 -11 918.585 290.745 3
-14 -4 -11 1003.44 343.503 3
-4 -14 -11 1442.12 327.73 3
4 14 11 1236.27 304.38 6
-4 18 11 969.825 297.372 6
-14 18 11 673.217 319.254 6
-14 18 -12 3301.36 436.016 5
-18 4 -12 2765.23 388.239 3
-14 -4 -12 3707.51 486.836 3
-4 -14 -12 2287.24 342.381 3
4 14 12 2829.71 383.294 6
-4 18 12 2525.72 365.131 6
-14 18 12 3109.9 463.237 6
-14 18 -13 1289.9 328.418 5
-18 4 -13 963.744 272.24 3
-14 -4 -13 642.114 317.192 3
-4 -14 -13 950.53 252.656 3
4 14 13 1249.03 277.088 6
-4 18 13 703.384 291.379 6
-14 18 13 1267.71 329.325 6
-14 18 -14 999.427 296.195 5
-18 4 -14 952.483 304.627 3
-14 -4 -14 1597.71 372.608 3
-4 -14 -14 1003.98 243.612 3
4 14 14 1173.59 273.158 6
-4 18 14 1278.84 290.681 6
-14 18 14 1836.09 353.102 6
-18 4 -15 454.661 263.543 3
-14 -4 -15 1196.09 326.599 3
-4 -14 -15 689.318 207.694 3
4 14 15 688.213 186.683 6
-4 18 15 693.954 244.776 6
-14 18 15 952.348 281.153 6
-14 18 -15 1180.19 328.715 5
-14 -4 -16 836.156 298.991 3
4 14 16 516.948 164.924 6
-4 18 16 469.151 204.793 6
-14 18 16 678.767 231.883 6
-18 14 16 911.272 290.759 6
-14 18 -16 619.925 276.722 5
-14 -4 -17 136.728 210.898 3
4 14 17 197.38 137.971 6
-4 18 17 549.945 192.164 6
-14 18 17 -41.8985 180.616 6
-18 4 -17 261.844 194.752 3
-14 18 -17 521.236 254.709 5
-18 14 -18 815.389 240.206 5
-14 -4 -18 636.193 212.521 3
-4 18 18 525.766 163.753 6
-14 18 18 863.96 191.436 6
-18 4 -18 336.36 186.72 3
-14 18 -18 684.08 240.539 5
-14 -4 -19 210.264 182.676 3
-18 14 -19 31.7663 170.104 5
-18 4 -19 262.543 161.379 3
-14 18 -19 -2.02562 158.92 5
18 -15 0 -509.969 549.896 2
-3 18 0 239.853 228.463 4
-15 18 0 193.714 239.212 4
18 -3 0 -204.474 386.199 2
3 15 0 -161.723 153.941 6
-3 18 0 148.007 165.652 6
18 -15 -1 658.41 512.01 2
18 -15 1 1230.13 615.493 2
-3 18 -1 943.039 278.466 4
-3 18 1 742.855 235.376 4
-15 18 -1 728.395 294.235 4
-15 18 1 710.666 282.087 4
18 -3 -1 141.12 490.924 2
18 -3 1 1275.64 659.325 2
3 15 -1 621.885 206.127 6
3 15 1 723.986 188.832 6
-3 18 1 834.888 237.936 6
18 -15 -2 -9.09855 378.901 2
18 -15 2 -219.308 461.834 2
-3 18 -2 656.786 285.258 4
-3 18 2 -52.0173 209.863 4
-15 18 -2 34.0143 254.858 4
-15 18 2 332.871 247.273 4
18 -3 -2 -140.533 395.109 2
18 -3 2 -125.457 470.992 2
3 15 -2 148.919 176.524 6
3 15 2 135.439 202.764 6
-3 18 2 92.951 185.247 6
18 -15 -3 1435.3 565.141 2
18 -15 3 2078.43 645.773 2
-3 18 -3 1728.06 316.084 4
-3 18 3 1439.06 331.55 4
-15 18 -3 1348.83 322.797 4
-15 18 3 1539.22 321.462 4
18 -3 -3 1272.81 484.365 2
18 -3 3 1060.06 558.716 2
3 15 3 1427.92 297.095 6
-3 18 3 1482.24 266.52 6
18 -15 -4 -792.109 524.278 2
18 -15 4 -530.631 500.539 2
-3 18 -4 298.932 232.405 4
-3 18 4 317.479 229.975 4
-15 18 -4 420.485 242.01 4
-15 18 4 408.475 288.05 4
18 -3 -4 -310.932 459.289 2
18 -3 4 -88.1867 380.989 2
3 15 4 237.919 192.358 6
-3 18 4 337.526 226.738 6
18 -15 -5 773.672 418.03 2
18 -15 5 561.571 491.682 2
-3 18 -5 1189.47 296.878 4
-3 18 5 185.64 216.806 4
-15 18 -5 890.866 307.422 4
-15 18 5 865.57 312.435 4
3 15 5 987.928 280.886 6
18 -3 -5 399.71 323.103 2
18 -3 5 855.892 360.892 2
-3 18 5 836.237 266.711 6
18 -15 -6 -284.671 484.561 2
18 -15 6 821.155 555.909 2
-3 18 -6 599.21 233.147 4
-3 18 6 925.228 293.496 4
-15 18 6 387.478 224.518 4
-15 18 -6 579.337 299.868 4
3 15 6 683.44 273.566 6
18 -3 -6 -296.564 383.635 2
18 -3 6 -141.392 433.02 2
-3 18 6 611.543 249.853 6
-15 18 -7 313.46 233.157 5
-3 18 -7 -204.903 206.179 4
-3 18 7 -203.324 247.831 4
-15 18 -7 119.135 239.162 4
-15 18 7 -343.545 265.224 4
3 15 7 -119.901 202.228 6
-3 18 7 196.051 216.944 6
-15 18 -8 -51.8102 209.278 5
-3 18 -8 84.5881 185.289 4
-3 18 8 248.204 210.564 4
-15 -3 -8 105.35 233.185 3
-18 3 -8 136.233 215.932 3
-15 18 -8 -196.73 254.426 4
-15 18 8 4.326 242.944 4
3 15 8 -31.7429 214.639 6
-3 18 8 32.4001 209.557 6
-15 18 -9 99.3914 201.055 5
-3 18 -9 -9.64898 175.783 4
-3 18 9 263.874 178.743 4
-18 3 -9 416.815 205.868 3
-15 18 -9 -82.1698 215.167 4
-15 18 9 64.9362 258.326 4
-15 -3 -9 -9.76403 274.04 3
3 15 9 324.959 204.604 6
-3 18 9 842.461 290.012 6
-15 18 -10 221.703 245.158 5
-18 3 -10 376.658 256.874 3
-3 -15 -10 257.564 196.499 3
-15 -3 -10 -170.686 263.032 3
3 15 10 159.155 216.043 6
-3 18 10 -78.4248 252.395 6
-15 18 -11 1401.64 335.542 5
-18 3 -11 546.619 256.595 3
-15 -3 -11 1039.44 338.799 3
-3 -15 -11 903.646 255.653 3
3 15 11 1058.02 283.587 6
-3 18 11 1003.21 288.332 6
-15 18 11 834.368 361.772 6
-15 18 -12 331.235 261.925 5
-18 3 -12 131.25 241.744 3
-15 -3 -12 299.605 296.247 3
-3 -15 -12 597.955 225.342 3
3 15 12 328.804 231.892 6
-3 18 12 2.60487 216.36 6
-15 18 12 627.121 325.007 6
-15 18 -13 662.748 301.805 5
-18 3 -13 434.175 272.995 3
-15 -3 -13 133.956 293.744 3
-3 -15 -13 158.119 177.074 3
3 15 13 246.206 207.665 6
-3 18 13 756.125 261.333 6
-15 18 13 310.611 266.59 6
-15 18 -14 307.145 231.775 5
-18 3 -14 536.518 270.52 3
-15 -3 -14 489.147 306.993 3
3 15 14 1079.94 234.453 6
-3 18 14 709.961 277.351 6
-15 18 14 529.878 297.31 6
-18 3 -15 -13.1722 207.202 3
-15 -3 -15 -312.987 275.252 3
3 15 15 -323.528 188.67 6
-3 18 15 -119.262 200.495 6
-15 18 15 59.9295 229.977 6
-18 15 15 -40.8867 272.567 6
-15 18 -15 -77.9135 225.265 5
-18 3 -16 493.91 276.183 3
-15 -3 -16 823.856 288.464 3
3 15 16 24.1597 153.236 6
-3 18 16 466.513 207.602 6
-15 18 16 349.786 222.011 6
-18 15 16 -81.6924 231.055 6
-15 18 -16 313.344 271.226 5
-18 15 -17 246.83 201.723 5
-15 -3 -17 20.0234 199.296 3
3 15 17 -255.555 147.213 6
-3 18 17 120.313 132.633 6
-15 18 17 175.74 171.423 6
-18 15 17 -115.594 176.105 6
-18 3 -17 -60.6709 180.048 3
-15 18 -17 363.969 220.674 5
-18 15 -18 44.1829 207.699 5
-15 -3 -18 170.365 200.35 3
-3 18 18 352.227 143.787 6
-15 18 18 581.483 161.783 6
-18 3 -18 208.093 163.519 3
-15 18 -18 -71.0466 176.461 5
-2 18 0 2308.54 363.228 4
-16 18 0 2154.61 380.906 4
2 16 0 3029.47 371.522 6
18 -2 0 2588.27 756.199 2
-2 18 0 2468.68 330.627 6
18 -16 0 2186.1 704.482 2
-2 18 -1 3889.4 453.461 4
-2 18 1 4338.56 464.597 4
-16 18 1 4556.31 481.503 4
-16 18 -1 4102.48 456.855 4
2 16 -1 3813.9 384.381 6
2 16 1 4072.34 421.755 6
-2 18 1 3703.06 392.401 6
18 -2 -1 3371.31 764.225 2
18 -2 1 4456.11 883.719 2
18 -16 -1 2928.06 652.419 2
18 -16 1 3939.26 870.228 2
-2 18 -2 363.365 245.556 4
-2 18 2 494.507 239.434 4
-16 18 -2 655.281 284.759 4
-16 18 2 -99.3827 254.196 4
2 16 2 477.81 233.068 6
18 -2 -2 515.777 414.679 2
18 -2 2 554.095 501.151 2
-2 18 2 331.503 216.253 6
18 -16 -2 1116.02 454.305 2
18 -16 2 1308.94 770.542 2
18 -16 -3 819.153 574.192 2
18 -16 3 1021.41 575.691 2
-2 18 -3 329.06 227.014 4
-2 18 3 480.785 266.742 4
-16 18 -3 472.406 248.987 4
-16 18 3 244.3 247.991 4
2 16 3 488.785 241.477 6
18 -2 -3 218.034 389.526 2
18 -2 3 -496.471 721.595 2
-2 18 3 472.138 213.884 6
18 -16 -4 -197.662 453.945 2
18 -16 4 65.851 386.881 2
-2 18 -4 -42.9537 217.935 4
-2 18 4 442.405 233.397 4
-16 18 -4 372.839 248.23 4
-16 18 4 673.37 278.09 4
2 16 4 121.014 223.502 6
18 -2 -4 818.932 441.656 2
18 -2 4 446.071 472.357 2
-2 18 4 349.833 207.652 6
-2 18 -5 451.266 214.634 4
-2 18 5 205.619 218.663 4
-16 18 -5 -309.629 282.393 4
-16 18 5 319.187 275.55 4
2 16 5 140.353 201.734 6
-2 18 5 414.455 208.541 6
-2 18 -6 1514.75 297.314 4
-2 18 6 1551.95 305.536 4
-18 2 -6 1711.77 318.249 3
-16 18 -6 1240.7 311.735 4
-16 18 6 1507.89 313 4
2 16 6 1831.02 356.362 6
-2 18 6 1499.9 293.637 6
-16 18 -7 576.855 232.739 5
-2 18 -7 542.909 213.667 4
-2 18 7 699.075 234.393 4
-16 -2 -7 701.908 307.202 3
-18 2 -7 505.817 251.674 3
-16 18 -7 196.845 227.635 4
-16 18 7 604.914 267.382 4
2 16 7 376.028 216.57 6
-2 18 7 933.108 292.201 6
-16 18 -8 1012.66 270.963 5
-2 18 -8 1084.43 237.182 4
-2 18 8 1382.57 281.341 4
-18 2 -8 1468.58 324.286 3
-16 18 -8 1169.73 312.6 4
-16 18 8 1506.29 325.456 4
-16 -2 -8 1216.46 330.515 3
2 16 8 1474.19 312.807 6
-2 18 8 1477.34 313.966 6
-16 18 -9 1072.21 275.664 5
-18 2 -9 1591 310.526 3
-16 18 -9 1604.94 308.18 4
-16 18 9 1193.02 268.389 4
-16 -2 -9 1996.43 381.099 3
-18 16 -9 1444.32 289.838 4
-18 16 9 1152.65 285.305 4
2 16 9 1461.28 305.544 6
-2 18 9 1286.6 310.909 6
-16 18 -10 1403.64 310.838 5
-18 2 -10 846.172 245.733 3
-16 -2 -10 1582.8 366.781 3
-2 -16 -10 1089.09 265.782 3
2 16 10 1267.56 310.084 6
-2 18 10 1119.92 297.816 6
-16 18 -11 470.959 276.979 5
-18 2 -11 435.676 223.702 3
-16 -2 -11 686.583 302.888 3
2 16 11 474.393 249.533 6
-2 18 11 781.84 276.635 6
-16 18 -12 411.771 252.715 5
-18 2 -12 406.12 230.817 3
-16 -2 -12 208.526 259.097 3
2 16 12 97.6157 198.449 6
-2 18 12 3.83241 220.303 6
-16 18 12 161 303.013 6
-18 2 -13 172.791 241.563 3
-16 -2 -13 309.323 278.694 3
2 16 13 284.533 219.738 6
-2 18 13 12.9838 192.283 6
-16 18 13 -90.2613 308.327 6
-16 18 -14 -106.683 236.17 5
-18 2 -14 106.18 208.359 3
-16 -2 -14 97.2918 239.703 3
2 16 14 -212.868 194.096 6
-2 18 14 -176.521 200.696 6
-16 18 14 47.3489 255.469 6
-16 18 -15 -224.822 234.669 5
-18 2 -15 62.6044 236.156 3
-16 -2 -15 -113.953 218.995 3
2 16 15 195.897 178.719 6
-2 18 15 88.6594 160.91 6
-16 18 15 287.372 236.046 6
-18 16 15 -89.1401 268.97 6
-18 2 -16 55.0988 198.243 3
-18 16 -16 -37.6008 219.637 5
2 16 16 28.3816 153.184 6
-2 18 16 148.033 161.218 6
-16 18 16 271.279 222.852 6
-18 16 16 -99.6207 227.718 6
-16 18 -16 -60.8146 209.223 5
-18 16 -17 202.91 206.272 5
-16 -2 -17 88.3471 182.922 3
2 16 17 -47.2449 117.369 6
-2 18 17 -105.848 127.597 6
-16 18 17 6.00307 167.728 6
-18 16 17 -151.84 157.288 6
-16 18 -17 138.157 212.147 5
-18 2 -17 -61.1416 176.671 3
-18 16 -18 -220.859 188.499 5
-16 -2 -18 24.1561 162.583 3
-2 18 18 140.202 101.968 6
-16 18 18 133.885 133.217 6
-18 2 -18 14.8523 142.94 3
-16 18 -18 -346.869 200.832 5
1 17 0 3155.96 443.171 4
-1 18 0 3063.54 421.297 4
1 17 0 3443 386.146 6
-1 18 0 3324.27 371.591 6
18 -1 0 2444.79 625.702 2
18 -17 0 2955.39 824.616 2
1 17 -1 11686.6 742.657 4
1 17 1 11511.1 745.258 4
-1 18 -1 11165.7 735.64 4
-1 18 1 11919.2 758.373 4
1 17 1 11828.9 672.715 6
1 17 -1 10542.6 619.637 6
-17 18 -1 10947.4 711.002 4
-17 18 1 11091.2 712.528 4
-1 18 -1 11369.4 643.051 6
-1 18 1 12024.4 680.778 6
1 17 -2 779.029 266.998 4
1 17 2 1247.35 338.142 4
-1 18 -2 855.834 268.242 4
-1 18 2 557.768 233.078 4
-17 18 -2 937.358 317.272 4
-17 18 2 914.16 320.042 4
1 17 2 330.372 185.7 6
-1 18 2 665.563 218.091 6
-1 18 -3 969.481 280.515 4
-1 18 3 941.132 287.093 4
-17 18 -3 998.112 313.037 4
-17 18 3 1154.57 308.98 4
-1 18 3 906.752 228.371 6
-1 18 -4 1659.25 307.283 4
-1 18 4 1211.88 291.815 4
-17 18 -4 2118.07 381.588 4
-17 18 4 1446.82 337.486 4
1 17 4 1521.76 310.396 6
-1 18 4 1224.15 280.015 6
-1 18 -5 4459.21 495.344 4
-1 18 5 3869.11 444.153 4
-17 18 -5 4235.58 461.152 4
-17 18 5 4127.52 454.467 4
-18 1 -5 4109.98 416.857 3
1 17 5 4722.79 491.911 6
-1 18 5 4248.14 453.351 6
-1 18 -6 1846.73 338.309 4
-1 18 6 1762.26 354.804 4
-18 1 -6 1655.86 340.688 3
-17 18 -6 2161.15 396.68 4
-17 18 6 2063.66 376.744 4
-17 -1 -6 1474.87 332.433 3
1 17 6 2310.35 384.759 6
-1 18 6 1676.65 331.443 6
-17 -1 -7 7008.63 555.601 3
-17 18 -7 6625.93 539.451 4
-17 18 7 6553.06 539.177 4
-18 17 -7 7265.47 583.744 4
-18 17 7 6371.3 540.909 4
-18 1 -7 6937.7 560.177 3
1 17 7 6493.19 552.731 6
-1 18 7 6875.58 557.846 6
-18 1 -8 2174.31 349.499 3
-17 18 -8 2366.97 387.352 4
-17 18 8 1813.48 350.953 4
-17 -1 -8 2619.66 388.719 3
-18 17 -8 1779.1 343.361 4
-18 17 8 2034.71 366.097 4
1 17 8 2050.7 317.373 6
-1 18 8 2675.38 380.751 6
-17 18 9 4639.29 461.306 4
-18 17 9 5086.48 472.102 4
-17 18 -9 4477.33 435.209 4
-18 17 -9 4248.12 443.622 4
-18 1 -9 5185.14 503.138 3
-17 -1 -9 5495.05 531.471 3
1 17 9 5670.95 517.168 6
-1 18 9 6028.52 526.854 6
-17 18 -10 938 273.556 5
-18 1 -10 986.647 302.119 3
-17 -1 -10 1149.37 314.74 3
1 17 10 1265.28 299.664 6
-1 18 10 965.57 270.433 6
-17 18 -11 264.359 250.858 5
-18 1 -11 238.533 222.655 3
-17 -1 -11 300.237 258.321 3
1 17 11 120.043 221.947 6
-1 18 11 221.166 223.609 6
-17 18 -12 216.873 245.125 5
-18 1 -12 408.178 272.075 3
-17 -1 -12 412.602 273.625 3
1 17 12 146.181 198.6 6
-1 18 12 295.814 232.769 6
-17 18 12 210.409 320.922 6
-17 18 -13 2266.01 363.747 5
-18 1 -13 1740.98 349.861 3
-17 -1 -13 766.364 343.206 3
1 17 13 1173.8 292.065 6
-1 18 13 1332.99 291.786 6
-17 18 13 1744.97 391.683 6
-17 18 -14 264.722 231.503 5
-18 17 -14 228.011 243.697 5
-18 1 -14 112.556 227.852 3
-17 -1 -14 612.957 253.984 3
1 17 14 785.773 234.872 6
-1 18 14 -1.44696 175.127 6
-17 18 14 324.512 266.893 6
-18 17 14 730.093 318.696 6
-17 18 -15 2181.52 356.769 5
-18 17 -15 1407.89 288.865 5
-18 1 -15 1281.09 308.39 3
-17 -1 -15 1988.75 315.765 3
1 17 15 1596.71 267.591 6
-1 18 15 1347.73 240.636 6
-17 18 15 1678.6 320.979 6
-18 17 15 2152.4 366.141 6
-18 17 -16 -97.4645 200.897 5
-17 -1 -16 125.213 200.389 3
1 17 16 68.917 155.416 6
-1 18 16 -86.9105 151.319 6
-17 18 16 124.343 191.432 6
-18 17 16 130.237 216.715 6
-17 18 -16 171.842 209.939 5
-18 17 -17 449.595 198.85 5
-17 -1 -17 838.357 238.65 3
-1 18 17 659.852 172.362 6
1 17 17 694.524 166.101 6
-17 18 17 670.559 188.781 6
-18 17 17 584.219 183.782 6
-17 18 -17 682.368 234.173 5
-18 1 -17 356.869 166.973 3
0 18 0 33123.7 1226.53 4
0 18 0 33483.7 1116.15 6
0 18 -1 208.132 222.866 4
0 18 1 392.016 262.009 4
0 18 -1 349.571 190.143 6
0 18 1 729.48 259.699 6
0 18 -2 8105.72 618.94 4
0 18 2 7277.37 599.866 4
0 18 2 7343.47 550.019 6
0 18 -3 2146.38 390.903 4
0 18 3 1526.36 316.789 4
0 18 3 2423.31 362.165 6
-18 0 -4 5699.41 496.252 3
-18 18 -4 5857.73 535.485 4
-18 18 4 6198.29 561.835 4
0 18 4 5997.46 501.79 6
-18 18 -5 1325.66 319.63 4
-18 18 5 1541.48 348.06 4
-18 0 -5 703.35 284.252 3
0 18 5 994.008 283.078 6
-18 18 -6 12441.8 743.645 4
-18 18 6 11408.8 706.836 4
0 18 6 11473.7 718.182 6
-18 0 -6 11907.4 697.102 3
-18 0 -7 1689.91 321.694 3
-18 18 -7 1149.04 336.357 4
-18 18 7 1677.92 334.68 4
0 18 7 1990.74 355.31 6
-18 18 -8 18042.1 846.398 4
-18 18 8 17907.8 841.081 4
-18 0 -8 18387.5 878.766 3
0 18 8 19965.3 924.514 6
-18 0 -9 232.106 234.807 3
-18 18 -9 177.858 215.911 4
-18 18 9 249.582 224.811 4
0 18 9 403.853 224.355 6
-18 0 -10 5180.84 499.694 3
0 18 10 6486.43 539.491 6
-18 18 -11 96.803 221.328 5
-18 0 -11 -106.293 219.575 3
0 18 11 129.328 229.19 6
-18 18 -12 154.373 216.903 5
-18 0 -12 338.695 268.633 3
0 18 12 430.135 229.271 6
-18 18 -13 564.09 260.493 5
-18 0 -13 449.366 248.224 3
0 18 13 308.886 191.61 6
-18 18 13 16.0202 275.745 6
0 18 14 5367.95 432.591 6
-18 18 14 6169.3 522.031 6
-18 18 -14 5296.37 542.445 5
-18 18 -15 80.5533 202.676 5
-18 0 -15 191.787 199.883 3
0 18 15 403.947 188.212 6
-18 18 15 122.408 210.205 6
-18 0 -16 3372.73 353.72 3
0 18 16 2758.85 291.085 6
-18 18 16 3699.88 371.664 6
-18 0 -17 86.0008 161.746 3
0 18 17 132.206 107.035 6
-18 18 17 -158.77 142.644 6
-18 18 -17 71.0899 175.661 5
19 -10 0 121.014 303.69 2
19 -9 0 -290.871 334.841 2
-9 19 0 269.935 246.309 4
-10 19 0 404.166 263.523 4
9 10 0 157.912 193.896 6
-9 19 0 130.058 193.622 6
-10 19 0 43.2081 204.111 6
19 -10 -1 541.29 449.309 2
19 -10 1 569.703 321.884 2
19 -9 -1 784.408 456.989 2
19 -9 1 1041.69 552.619 2
-9 19 -1 609.232 240.513 4
-9 19 1 570.567 268.189 4
-10 19 -1 759.166 283.178 4
-10 19 1 597.367 292.701 4
10 9 1 554.839 224.843 6
9 10 1 490.887 195.251 6
-9 19 1 914.665 255.634 6
-10 19 1 633.427 225.948 6
19 -10 -2 850.904 438.454 2
19 -10 2 2858.13 766.779 2
19 -9 -2 1341.14 465.335 2
19 -9 2 1884.09 665.116 2
-9 19 -2 1530.05 340.403 4
-9 19 2 1769.94 351.783 4
-10 19 -2 1543.77 328.319 4
-10 19 2 1682.43 330.293 4
10 9 2 1636.35 301.63 6
9 10 2 1708.39 325.403 6
-9 19 2 1132.23 281.875 6
-10 19 2 1861.68 328.313 6
19 -10 -3 -40.0038 495.431 2
19 -10 3 352.693 407.475 2
19 -9 -3 553.116 354.707 2
-9 19 -3 858.221 269.048 4
-9 19 3 211.672 219.93 4
19 -9 3 257.7 299.532 2
-10 19 -3 911.115 275.741 4
-10 19 3 638.573 272.016 4
10 9 3 730.23 241.696 6
9 10 3 709.321 246.133 6
-9 19 3 612.034 244.661 6
-10 19 3 670.545 245.52 6
19 -10 -4 931.689 403.851 2
19 -10 4 502.175 463.08 2
-9 19 -4 1454.6 342.562 4
-9 19 4 1180.09 303.95 4
19 -9 -4 770.536 490.575 2
19 -9 4 1339.3 520.334 2
-10 19 -4 822.69 273.516 4
-10 19 4 861.56 265.028 4
10 9 4 1302.16 303.369 6
9 10 4 917.813 257.901 6
-9 19 4 1483.08 317.446 6
-10 19 4 896.428 260.001 6
19 -10 -5 1623.86 606.18 2
19 -10 5 1057.16 484.439 2
-9 19 -5 1484.59 326.745 4
-9 19 5 2185.92 348.897 4
-10 19 -5 2400.1 379.895 4
-10 19 5 1923.83 350.047 4
19 -9 -5 1088.46 401.2 2
19 -9 5 1912.99 557.537 2
10 9 5 1997.83 316.921 6
9 10 5 2047.04 329.961 6
-9 19 5 2035.56 348.739 6
-10 19 5 2122.98 340.559 6
-9 19 -5 1903.17 320.49 5
-10 19 -5 1522.41 292.864 5
-9 19 -6 1133.35 306.619 4
-9 19 6 1215.66 301.835 4
-10 19 -6 1328.29 301.473 4
-10 19 6 765.971 243.824 4
19 -10 -6 175.046 388.736 2
19 -10 6 273.644 344.17 2
19 -9 -6 171.684 333.411 2
19 -9 6 692.817 443.044 2
10 9 6 1139.15 275.411 6
9 10 6 1209.53 293.522 6
-9 19 6 1215.38 315.218 6
-10 19 6 1446.95 354.306 6
-9 19 -6 1454.98 306.598 5
-10 19 -6 1018.2 268.239 5
9 10 7 5912.22 525.876 6
-9 19 -7 6931.67 563.086 4
-9 19 7 6013.01 521.28 4
10 9 7 5882.42 533.201 6
-10 19 -7 5953.24 531.624 4
-10 19 7 5604.44 504.427 4
-10 19 7 5915.43 525.447 6
-9 19 7 6603.7 557.578 6
-9 19 -7 6158.81 527.984 5
-10 19 -7 6236.56 534.407 5
-9 19 -8 1360.01 301.854 4
-9 19 8 945.896 254.288 4
-10 19 -8 1346.08 303.21 4
-10 19 8 1250.42 283.563 4
10 9 8 1456.24 314.208 6
9 10 8 1613.92 315.386 6
-9 19 8 1858.51 373.58 6
-10 19 8 1785.07 365.303 6
-9 19 -8 1211.12 294.921 5
-9 19 -9 682.462 257.908 4
-9 19 9 805.931 250.794 4
-10 19 -9 895.207 252.004 4
-10 19 9 420.809 231.298 4
10 9 9 578.997 238.255 6
9 10 9 903.106 278.387 6
-9 19 9 1243.33 322.984 6
-10 19 9 975.768 324.999 6
-9 19 -9 644.869 246.554 5
-10 19 -9 602.812 262.414 5
-10 -9 -10 1590.4 360.944 3
10 9 10 2054.13 347.91 6
9 10 10 2243.75 340.031 6
-9 19 10 1988.39 372.818 6
-10 19 10 1935.98 363.145 6
-9 19 -10 1404.64 329.293 5
-10 19 -10 1751.97 351.134 5
-10 -9 -11 -194.097 270.895 3
-9 -10 -11 226.926 267.409 3
10 9 11 317.745 210.108 6
9 10 11 -383.744 241.268 6
-9 19 11 -392.622 268.357 6
-10 19 11 -53.928 245.831 6
-9 19 -11 -183.038 273.893 5
-10 19 -11 183.124 230.978 5
-10 -9 -12 1004.34 331.81 3
-9 -10 -12 623.221 303.907 3
10 9 12 914.783 235.023 6
9 10 12 1685.08 324.467 6
-9 19 12 975.759 295.085 6
-10 19 12 822.792 284.783 6
-9 19 -12 1027.01 305.087 5
-10 19 -12 627.426 267.634 5
-10 -9 -13 448.151 259.474 3
-9 -10 -13 137.131 242.916 3
9 10 13 265.279 190.355 6
-9 19 13 132.369 227.674 6
-10 19 13 469.166 249.519 6
-9 19 -13 698.184 308.426 5
-10 19 -13 267.785 262.066 5
-10 -9 -14 505.483 268.063 3
-9 -10 -14 48.5823 224.588 3
-9 19 14 816.843 278.505 6
-10 19 14 660.738 271.78 6
-9 19 -14 457.47 268.287 5
-10 19 -14 284.664 261.431 5
-10 -9 -15 907.441 290.393 3
-9 -10 -15 1067.81 306.952 3
-9 19 15 907.878 253.52 6
-10 19 15 1208.75 292.513 6
-9 19 -15 1099.97 327.045 5
-10 19 -15 914.909 296.055 5
-10 -9 -16 455.036 211.148 3
-9 -10 -16 639.03 262.994 3
-9 19 16 220.326 184.221 6
-10 19 16 229.672 179.502 6
-9 19 -16 805.966 255.548 5
-10 19 -16 842.901 280.636 5
-9 -10 -17 301.137 187.124 3
-10 -9 -17 1175.01 272.57 3
-9 19 17 561.584 199.024 6
-10 19 17 724.26 210.135 6
-9 19 -17 480.252 227.783 5
-10 19 -17 963.875 283.295 5
-9 -10 -18 -146.097 166.546 3
-10 -9 -18 99.2517 174.019 3
-9 19 18 471.226 156.267 6
-10 19 18 180.743 140.199 6
-10 19 -18 448.541 224.714 5
-8 19 0 4916.19 499.827 4
-11 19 0 5589.07 525.205 4
19 -11 0 5181.81 882.726 2
8 11 0 6321.18 498.107 6
19 -8 0 4671.27 871.096 2
-8 19 0 5468.24 459.842 6
-11 19 0 5374.44 445.837 6
19 -11 -1 151.74 423.549 2
19 -11 1 135.447 385.63 2
-8 19 -1 621.012 261.184 4
-8 19 1 935.447 278.69 4
19 -8 -1 964.751 647.018 2
19 -8 1 783.36 623.161 2
-11 19 -1 1004.82 300.862 4
-11 19 1 789.021 313.059 4
8 11 -1 608.471 202.388 6
8 11 1 685.716 252.786 6
-8 19 1 561.122 233.383 6
-11 19 1 893.583 263.597 6
8 11 2 5302.35 454.009 6
-8 19 -2 5001.95 500.755 4
-8 19 2 4718.67 478.905 4
-11 19 -2 5741.09 525.942 4
-11 19 2 5373.07 501.33 4
19 -11 -2 4634.17 870.274 2
19 -11 2 3421.99 729.972 2
19 -8 -2 4464.07 881.214 2
19 -8 2 5737.11 982.906 2
-8 19 2 5158.59 475.274 6
-11 19 2 4775.68 445.222 6
-8 19 -3 12629.4 751.549 4
-8 19 3 12887.7 741.315 4
-11 19 -3 12491.3 756.887 4
-11 19 3 11790.8 716.859 4
11 8 3 13485.6 734.071 6
8 11 3 12797.4 724.643 6
-8 19 3 12364.2 704.684 6
19 -11 -3 11340.9 1371.19 2
19 -11 3 11106.1 1321.73 2
-11 19 3 10937.5 663.209 6
19 -8 -3 10239.7 1257.55 2
19 -8 3 9248.79 1216.2 2
19 -11 -4 365.208 380.673 2
19 -11 4 -757.065 564.184 2
-8 19 -4 225.032 207.533 4
-8 19 4 1.35487 225.034 4
-11 19 -4 -75.5207 233.4 4
-11 19 4 58.8592 229.959 4
19 -8 -4 -210.249 406.597 2
19 -8 4 725.786 430.357 2
11 8 4 -45.4847 182.769 6
8 11 4 13.1551 203.034 6
-8 19 4 197.683 223.83 6
-11 19 4 233.312 236.468 6
-8 19 -4 154.013 184.334 5
-8 19 -5 7039.01 578.681 4
-8 19 5 6705.65 560.019 4
-11 19 -5 7689.95 597.735 4
-11 19 5 6872.1 558.252 4
-11 19 5 6874.03 561.655 6
19 -11 5 5670.96 896.925 2
19 -8 -5 6401.62 1054.39 2
19 -8 5 6168.91 1045.11 2
11 8 5 7503.95 574.529 6
8 11 5 7478.55 572.139 6
-8 19 5 6586.17 535.974 6
19 -11 -5 7017.86 1199.33 2
-8 19 -5 7336.8 548.378 5
8 11 6 7799.05 574.563 6
-8 19 -6 7915.17 600.394 4
-8 19 6 6966.67 555.659 4
-11 19 -6 8045.23 596.072 4
-11 19 6 7268.29 557.868 4
11 8 6 7774.97 583.274 6
19 -11 -6 5212.75 891.418 2
19 -11 6 4780.79 825.803 2
19 -8 -6 6023.16 978.135 2
19 -8 6 4362.97 767.042 2
-8 19 6 8193.53 606.131 6
-11 19 6 8103.8 614.102 6
-8 19 -6 7970.36 585.738 5
-11 19 -6 6807.83 524.89 5
-8 19 -7 661.06 264.281 4
-8 19 7 493.721 219.896 4
-11 19 -7 738.124 279.067 4
-11 19 7 366.008 282.234 4
8 11 7 441.181 237.749 6
11 8 7 357.155 222.144 6
-8 19 7 476.527 239.276 6
-11 19 7 432.514 250.837 6
-8 19 -7 634.616 262.029 5
-11 19 -7 767.821 272.485 5
-8 19 -8 8375.06 597.653 4
-8 19 8 8566.32 603.636 4
-11 19 -8 8325.52 614.385 4
-11 19 8 8268.42 595.743 4
8 11 8 8840.67 633.82 6
11 8 8 8769.73 613.609 6
-8 19 8 9667.12 669.719 6
-11 19 8 9644.24 663.115 6
-8 19 -8 8816.33 634.998 5
-11 19 -8 7531.67 593.489 5
-8 19 -9 1830.17 352.078 4
-8 19 9 2240.99 322.669 4
-11 19 -9 1631.92 307.559 4
-11 19 9 1623.98 294.896 4
11 8 9 1947.55 346.059 6
8 11 9 2161.61 366.924 6
-8 19 9 2148.55 393.097 6
-11 19 9 2178.48 383.897 6
-8 19 -9 2245.55 372.275 5
-11 19 -9 2074.72 352.634 5
-11 -8 -10 824.852 323.336 3
11 8 10 907.672 268.924 6
8 11 10 1048.77 295.89 6
-8 19 10 136.152 219.501 6
-11 19 10 400.893 234.352 6
-8 19 -10 882.286 297.245 5
-11 19 -10 601.592 266.635 5
8 11 11 6674.18 542.597 6
-11 -8 -11 7107.38 601.431 3
-8 -11 -11 6758.07 584.886 3
-8 19 11 6552.09 558.158 6
-11 19 11 7384.06 611.734 6
-8 19 -11 6664.47 580.698 5
-11 19 -11 6383.45 555.951 5
-11 -8 -12 11.0345 256.073 3
-8 -11 -12 -250.019 279.21 3
8 11 12 300.953 240.743 6
-8 19 12 386.684 264.8 6
-11 19 12 170.206 229.566 6
-8 19 -12 -81.5582 237.52 5
-11 19 -12 -154.694 254.4 5
-11 -8 -13 3966.94 492.395 3
-8 -11 -13 3689.75 466.224 3
8 11 13 3328.03 384.526 6
-8 19 13 3585.47 417.474 6
-11 19 13 4002.57 443.01 6
-8 19 -13 3554.55 457.716 5
-11 19 -13 3971.98 485.27 5
-11 -8 -14 1052.8 334.045 3
-8 -11 -14 1532.98 316.169 3
8 11 14 1253.46 247.271 6
-8 19 14 1503.9 303.45 6
-11 19 14 1614.46 337.184 6
-8 19 -14 1591.72 360.261 5
-11 19 -14 1211.41 328.409 5
-11 -8 -15 221.869 248.765 3
-8 -11 -15 -179.897 222.965 3
-8 19 15 -55.4912 185.946 6
-11 19 15 89.8174 191.641 6
-19 8 -15 155.209 167.555 3
-8 19 -15 -52.7282 271.732 5
-11 19 -15 -27.3489 241.835 5
-8 -11 -16 2047.46 307.955 3
-11 -8 -16 1170.61 306.514 3
-8 19 16 1314.32 269.997 6
-11 19 16 1110.15 268.341 6
-19 8 -16 1321.36 266.886 3
-8 19 -16 1770.87 373.527 5
-11 19 -16 1636.95 336.018 5
-8 -11 -17 909.439 235.94 3
-11 -8 -17 858.417 236.501 3
-8 19 17 523.929 190.505 6
-11 19 17 195.486 157.852 6
-19 8 -17 584.309 195.168 3
-11 19 -17 336.328 217.759 5
-8 -11 -18 94.6363 142.476 3
-11 -8 -18 312.399 196.892 3
-8 19 18 345.741 156.848 6
-11 19 18 253.024 156.55 6
-19 8 -18 291.401 149.882 3
-11 19 -18 152.291 176.44 5
19 -12 0 3291.14 724.26 2
-12 19 0 4249.7 474.284 4
-7 19 0 4103.3 444.067 4
19 -7 0 4389.43 868.437 2
7 12 0 4733.75 431.347 6
-7 19 0 4365.33 407.287 6
-12 19 0 4236.3 424.26 6
-7 19 -1 11951.5 737.278 4
-7 19 1 11965.3 727.463 4
-12 19 -1 12031.7 736.214 4
-12 19 1 11367.7 700.759 4
7 12 1 13087.1 694.202 6
-12 19 1 11587.6 689.176 6
7 12 -1 12368.8 671.871 6
-7 19 1 12437.2 682.039 6
19 -12 -1 10647.8 1330.52 2
19 -12 1 12747.5 1451.95 2
19 -7 -1 9645.99 1228.69 2
19 -7 1 10509.9 1278.61 2
7 12 -2 10614.5 621.056 6
-7 19 -2 11893 739.508 4
-7 19 2 11034.9 703.605 4
19 -12 2 9004.55 1204.03 2
-12 19 -2 11722.1 725.553 4
-12 19 2 11180.8 713.936 4
19 -7 -2 7610.89 1194.98 2
19 -7 2 9184.26 1228.07 2
7 12 2 11995 682.933 6
-7 19 2 11890.8 698.501 6
19 -12 -2 9649.42 1297.08 2
-12 19 2 10095.3 640.462 6
-7 19 -3 11402.4 708.27 4
-7 19 3 10478.2 687.798 4
-12 19 -3 10248.4 698.255 4
-12 19 3 9530.44 656.14 4
7 12 3 10828.3 665.368 6
19 -7 -3 7968.19 1124.32 2
19 -7 3 8524.83 1118.19 2
-7 19 3 9684.78 625.404 6
19 -12 -3 10798.6 1368.27 2
19 -12 3 9690.76 1286.7 2
-12 19 3 8593.4 613.445 6
-7 19 -4 21292.5 957.165 4
-7 19 4 19015.4 913.121 4
-12 19 -4 20985.5 961.155 4
-12 19 4 18894.9 892.365 4
7 12 4 20916.1 921.09 6
-7 19 4 18436.8 865.173 6
19 -12 -4 18058.5 1706 2
19 -12 4 17493 1701.07 2
-12 19 4 18015.3 872.645 6
19 -7 -4 15383.3 1573.14 2
19 -7 4 16564.6 1629.36 2
-7 19 -5 4418.51 467.69 4
-7 19 5 4730.87 473.973 4
-12 19 5 4871.32 491.211 4
19 -12 -5 3933.14 841.118 2
19 -12 5 3875.64 806.549 2
-12 19 -5 4410.93 474.462 4
7 12 5 4685.57 495.68 6
19 -7 -5 4352.86 882.483 2
19 -7 5 3126.35 784.643 2
-7 19 5 4337.08 464.55 6
-12 19 5 4275.85 462.779 6
-7 19 -6 10332.4 672.251 4
-7 19 6 9796.59 655.56 4
-12 19 -6 10634.6 687.029 4
-12 19 6 9733.8 654.692 4
19 -12 -6 7717.01 1091.66 2
19 -12 6 7199.35 1098.12 2
19 -7 -6 6508.27 1006.85 2
-7 19 6 10492.1 680.993 6
7 12 6 10257.6 679.238 6
-12 19 6 10196.6 698.505 6
19 -7 6 8746.28 1208.95 2
-7 19 -6 10260.2 644.787 5
-12 19 -6 9615.87 628.742 5
-7 19 -7 7678.06 595.254 4
-7 19 7 6592.45 551.651 4
-12 19 -7 7204.42 570.231 4
-12 19 7 7093.73 553.095 4
-12 19 7 6817.34 570.515 6
7 12 7 7101.68 564.485 6
-7 19 7 7626.98 591.332 6
-7 19 -7 6759.29 550.247 5
-12 19 -7 6811.17 553.837 5
-7 19 -8 3118.88 386.873 4
-7 19 8 2245.35 312.71 4
-12 19 -8 2518.9 364.439 4
-12 19 8 2476.96 374.302 4
7 12 8 2947.04 407.13 6
-7 19 8 2637 391.812 6
-12 19 8 2226.29 411.251 6
-7 19 -8 2888.32 402.824 5
-12 19 -8 2585.6 381.168 5
-7 19 -9 5853.8 496.425 4
-7 19 9 5359.39 469.331 4
-12 19 -9 5426.07 488.137 4
-12 19 9 5433.17 484.842 4
7 12 9 6097.67 526.28 6
-7 19 9 6944.25 571.654 6
-12 19 9 6658.97 576.134 6
-7 19 -9 6863.21 576.561 5
-12 19 -9 6379.03 551.055 5
7 12 10 11751.9 713.302 6
-7 19 10 12613.4 759.091 6
-12 -7 -10 13323.4 795.078 3
-12 19 10 13282.8 785.444 6
-7 19 -10 11332.5 726.113 5
-12 19 -10 12106.5 757.134 5
-12 -7 -11 5762.75 548.284 3
7 12 11 5704.78 512.413 6
-7 -12 -11 5631.34 522.451 3
-12 19 11 5912.14 540.177 6
-7 19 11 6162.9 541.679 6
-7 19 -11 5638.16 545.048 5
-12 19 -11 5360.65 532.088 5
7 12 12 9860.99 640.623 6
-12 -7 -12 9787.36 706.772 3
-7 19 12 10395.2 672.016 6
-7 -12 -12 9860.62 672.043 3
-12 19 12 10900.7 708.029 6
-7 19 -12 10386 720.521 5
-12 19 -12 10874 726.573 5
-12 -7 -13 2399.65 434.149 3
-7 -12 -13 1939.76 363.102 3
7 12 13 1518.08 288.84 6
-7 19 13 2300.57 377.353 6
-12 19 13 2240.74 357.9 6
-7 19 -13 1971.16 371.779 5
-12 19 -13 1954.94 382.016 5
-12 -7 -14 3070.87 451.675 3
-7 -12 -14 2360.83 342.22 3
7 12 14 2203.49 307.595 6
-7 19 14 2689.15 365.612 6
-12 19 14 3659.65 432.114 6
-7 19 -14 3221.25 441.094 5
-19 7 -14 2298.02 326.364 3
-12 19 -14 2829.48 421.467 5
-12 -7 -15 1212.55 315.454 3
-7 -12 -15 1422.59 303.271 3
7 12 15 1079.7 228.443 6
-7 19 15 840.27 242.302 6
-12 19 15 909.048 259.464 6
-7 19 -15 977.364 300.404 5
-19 7 -15 1514.9 297.85 3
-12 19 -15 1166.9 304.879 5
-7 -12 -16 944.934 247.771 3
-12 -7 -16 759.279 273.25 3
-7 19 16 994.55 251.702 6
-12 19 16 1305.16 277.273 6
-19 7 -16 904.987 214.851 3
-12 19 -16 1170.82 275.53 5
-7 -12 -17 225.792 191.569 3
-12 -7 -17 708.636 230.078 3
-7 19 17 652.363 191.73 6
-12 19 17 649.466 215.525 6
-19 7 -17 798.572 202.034 3
-12 19 -17 941.978 264.096 5
-7 -12 -18 1145.92 228.144 3
-12 -7 -18 2118.94 304.237 3
-7 19 18 1164.76 199.304 6
-12 19 18 1842.12 236.419 6
-19 7 -18 1704.21 238.389 3
-12 19 -18 2152.81 324.394 5
-6 19 0 4862.8 500.12 4
6 13 0 5092.38 455.64 6
19 -13 0 5673.55 1077.59 2
-13 19 0 4642.85 480.908 4
19 -6 0 5049.06 975.25 2
-6 19 0 5207.28 441.879 6
-13 19 0 4451.46 445.304 6
6 13 1 17435 804.967 6
-6 19 -1 15063.6 838.552 4
-6 19 1 14838 818.185 4
6 13 -1 16679.1 780.094 6
-13 19 1 16277.4 834.738 4
-13 19 -1 16707.5 839.75 4
19 -13 -1 17370.9 1718.91 2
-6 19 1 15919.7 775.35 6
19 -13 1 16416.7 1665.09 2
-13 19 1 16014.4 782.959 6
19 -6 -1 15004.3 1583.44 2
19 -6 1 14450.3 1521.64 2
-6 19 -2 13431.8 782.109 4
-6 19 2 13186.8 765.382 4
6 13 -2 12083.3 658.865 6
-13 19 -2 13374.6 781.256 4
-13 19 2 12816 753.965 4
6 13 2 13627.6 739.004 6
19 -13 -2 13951.8 1529.89 2
19 -13 2 12384.2 1484.02 2
-6 19 2 13922.9 742.875 6
19 -6 -2 11055.1 1385.81 2
19 -6 2 11462.6 1353.22 2
-13 19 2 11849.3 708.518 6
-6 19 -3 8029.66 641.196 4
-6 19 3 7959.23 614.837 4
6 13 3 8125.54 608.677 6
19 -13 3 8001.26 1156.64 2
-13 19 -3 8063.76 623.565 4
-13 19 3 8759.79 635.126 4
19 -6 -3 6936.11 1086.7 2
19 -6 3 7138.23 1038.69 2
6 13 -3 6889.48 499.802 6
19 -13 -3 8999.44 1267.4 2
-6 19 3 8136.18 587.688 6
-13 19 3 7276.26 585.728 6
-6 19 -4 21032.2 971.811 4
-6 19 4 22067.4 975.453 4
-13 19 -4 22079.2 981.88 4
-13 19 4 20475.2 931.601 4
6 13 4 22144.1 953.502 6
-6 19 4 20636.9 922.667 6
19 -13 -4 18552.5 1746.73 2
19 -13 4 18971 1800.16 2
19 -6 -4 16342.7 1659.39 2
19 -6 4 17279.6 1683.86 2
-13 19 4 18909.7 880.23 6
-6 19 -5 9481.78 666.99 4
-6 19 5 9403.34 646.819 4
19 -13 5 8223.74 1174.5 2
-13 19 -5 9307.15 653.993 4
-13 19 5 9245.13 630.195 4
19 -6 -5 6808.74 1122.86 2
19 -6 5 6159.02 989.738 2
6 13 5 9392.48 644.974 6
-6 19 5 8620.77 611.627 6
19 -13 -5 9003.48 1222.13 2
-13 19 5 8041.39 623.169 6
-6 19 -6 6324.46 534.751 4
-6 19 6 6061.25 540.021 4
-13 19 -6 6354.59 567.299 4
-13 19 6 5639.53 513.112 4
6 13 6 6429.55 539.399 6
-6 19 6 6802.12 559.689 6
-13 19 6 6757.24 587.568 6
-13 19 -6 6008.69 508.231 5
-6 19 -7 8837.37 615.03 4
-6 19 7 7608.17 578.572 4
-13 19 -7 9177.64 638.334 4
-13 19 7 8179.35 599.201 4
6 13 7 9614.2 656.785 6
-6 19 7 9484.23 658.252 6
-13 19 7 9859.67 684.275 6
-13 19 -7 8935.78 617.493 5
-6 19 -8 2735.76 358.606 4
-6 19 8 3018.43 380.7 4
-13 19 -8 2401.5 340.693 4
-13 19 8 2644.78 364.043 4
6 13 8 2913.08 385.475 6
-6 19 8 2570.32 391.137 6
-13 19 8 2609.3 412.287 6
-13 19 -8 2568.38 354.907 5
-6 19 -9 7358.19 552.376 4
-6 19 9 7087.74 545.686 4
-13 19 -9 7570.88 561.86 4
-13 19 9 6888.14 545.093 4
-13 -6 -9 8808.95 655.121 3
6 13 9 7550.35 586.58 6
-6 19 9 8949.64 633.727 6
-13 19 9 8055.08 629.848 6
-6 19 -9 8399.83 638.632 5
-13 19 -9 6772.72 552.491 5
6 13 10 12282.3 740.573 6
-13 -6 -10 11744.6 756.055 3
-6 19 10 12677.9 755.644 6
-13 19 10 12036.8 748.055 6
-6 19 -10 10980.2 720.332 5
-13 19 -10 11102 710.645 5
-6 -13 -11 4444.45 476.219 3
-13 -6 -11 4797.41 538.188 3
6 13 11 3975.76 435.877 6
-6 19 11 4560.51 474.652 6
-13 19 11 5065.61 513.798 6
-6 19 -11 5088.72 525.785 5
-13 19 -11 3831.63 451.729 5
-19 6 -12 9014.09 590.309 3
-13 -6 -12 10144.7 721.079 3
-6 -13 -12 9815.39 651.16 3
6 13 12 9191.92 611.309 6
-6 19 12 10667.5 684.037 6
-13 19 12 10523.2 703.742 6
-6 19 -12 9233.11 674.977 5
-13 19 -12 10508.4 701.045 5
-19 6 -13 3282.71 394.368 3
-13 -6 -13 3162.67 441.428 3
-6 -13 -13 2530.68 378.605 3
6 13 13 2809.39 359.61 6
-6 19 13 3858.22 428.332 6
-13 19 13 3109.9 421.335 6
-13 19 -13 4077.79 477.581 5
-13 -6 -14 1596.81 361.405 3
-6 -13 -14 1461.18 293.347 3
6 13 14 1302.85 270.176 6
-6 19 14 1401.37 301.441 6
-13 19 14 2200.38 362.823 6
-13 19 -14 1624.57 323.262 5
-19 6 -14 1098.48 281.741 3
-13 -6 -15 2599.53 383.192 3
-6 -13 -15 2349.1 320.871 3
6 13 15 1922.86 286.771 6
-6 19 15 2404.16 323.029 6
-13 19 15 2766.88 376.833 6
-19 6 -15 2040.05 317.979 3
-13 19 -15 3072.88 406.418 5
-6 -13 -16 668.196 206.055 3
-13 -6 -16 718.778 269.291 3
6 13 16 580.653 167.986 6
-6 19 16 783.871 223.041 6
-13 19 16 983.551 266.04 6
-19 13 16 814.804 251.799 6
-19 6 -16 685.349 210.561 3
-13 19 -16 1205.96 320.582 5
-6 -13 -17 1071.84 228.324 3
-13 -6 -17 1249.65 268.492 3
-6 19 17 1436.32 246.105 6
-13 19 17 957.471 213.244 6
-19 6 -17 829.846 201.864 3
-13 19 -17 1551.53 300.237 5
-13 -6 -18 2336.62 329.022 3
-6 19 18 1662.21 215.875 6
-13 19 18 1614.62 224.607 6
-19 6 -18 2156.97 277.053 3
-13 19 -18 1823.71 293.626 5
-5 19 0 9089.69 656.546 4
-14 19 0 8187.38 627.934 4
-5 19 0 8733.36 572.086 6
5 14 0 9054.52 596.54 6
19 -5 0 7707.83 1163.61 2
-5 19 -1 4547.13 486.014 4
-5 19 1 4869.06 499.168 4
19 -14 -1 4430.14 940.116 2
19 -14 1 4690.36 1016.25 2
-14 19 -1 4097.85 475.225 4
-14 19 1 4136.78 482.546 4
19 -5 -1 3243.5 748.858 2
19 -5 1 3688.34 804.57 2
5 14 -1 4518.03 432.569 6
5 14 1 4587.07 444.951 6
-5 19 1 4569.22 435.749 6
-5 19 -2 7654.13 604.313 4
-5 19 2 7875.42 601.719 4
19 -14 -2 7158.98 1126.54 2
19 -14 2 7931.05 1211.02 2
-14 19 -2 7410.36 586.121 4
-14 19 2 7422.25 571.805 4
19 -5 -2 6798.04 1083.82 2
19 -5 2 8226.92 1169.43 2
5 14 2 8515.76 605.183 6
5 14 -2 7373.14 525.215 6
-5 19 2 7665.76 543.268 6
-5 19 -3 17036.5 879.092 4
-5 19 3 18004.7 895.273 4
-14 19 -3 17234.4 887.228 4
-14 19 3 16974.3 872.387 4
5 14 3 19015.7 876.47 6
19 -14 -3 15190.9 1617.67 2
19 -14 3 15912.8 1645.79 2
-5 19 3 17197.2 824.564 6
19 -5 -3 13942.8 1511.76 2
19 -5 3 14257.5 1522.21 2
19 -14 4 -590.94 553.206 2
-5 19 -4 320.26 248.351 4
-5 19 4 486.946 239.524 4
-14 19 4 172.776 245.352 4
-14 19 -4 125.744 270.036 4
19 -5 -4 -149.377 378.927 2
19 -5 4 -36.3763 348.611 2
5 14 4 305.483 272.512 6
-5 19 4 434.212 228.321 6
-5 19 -5 16279.9 844.684 4
-5 19 5 17272.1 858.371 4
-14 19 -5 16817.2 865.416 4
-14 19 5 16805.8 840.019 4
5 14 5 17852.4 878.088 6
-5 19 5 15364.4 802.629 6
-5 19 -6 2658.72 386.186 4
-5 19 6 2319.59 351.27 4
-14 19 -6 2512.2 389.833 4
-14 19 6 2165.23 353.401 4
5 14 6 2178.76 357.269 6
-5 19 6 2634.46 387.071 6
-5 19 -7 2195.58 359.337 4
-5 19 7 1940.1 323.051 4
-14 19 -7 1782.21 347.486 4
-14 19 7 1646.53 327.756 4
5 14 7 2015.47 353.051 6
-5 19 7 1899.73 333.396 6
-14 19 7 1628.5 375.925 6
-14 19 -7 1868.92 322.188 5
-5 19 -8 4967.46 482.636 4
-5 19 8 4984.7 465.984 4
-14 19 -8 5547.99 495.114 4
-14 19 8 5382.59 496.307 4
5 14 8 5882.91 526.169 6
-5 19 8 6086.85 550.243 6
-14 19 8 4684.07 537.115 6
-14 19 -8 5470.21 508.761 5
-5 19 -9 2614.09 339.658 4
-5 19 9 2667.28 351.443 4
5 14 9 3135.73 411.683 6
-14 19 -9 2855.3 358.393 4
-14 19 9 2703.28 356.184 4
-14 -5 -9 3227.11 445.456 3
-5 19 9 3369.47 413.992 6
-14 19 9 2703.03 424.018 6
-14 19 -9 2836.85 403.585 5
-14 -5 -10 4184.48 496.043 3
-5 -14 -10 3159.72 404.341 3
5 14 10 3554.14 410.601 6
-5 19 10 3146.76 409.584 6
-14 19 10 3681.75 488.514 6
-14 19 -10 3854.76 451.407 5
5 14 11 12515 732.149 6
-5 -14 -11 11044.9 672.604 3
-19 5 -11 11311.8 686.389 3
-14 -5 -11 11210.6 751.318 3
-5 19 11 12751.7 737.851 6
-14 19 11 14172 783.24 6
-14 19 -11 12373.1 749.595 5
-19 5 -12 233.926 224.772 3
-14 -5 -12 114.618 277.786 3
-5 -14 -12 147.271 220.783 3
-5 19 12 -195.207 241.047 6
5 14 12 375.008 219.626 6
-14 19 12 -130.769 256.164 6
-14 19 -12 59.2519 225.675 5
-14 -5 -13 5013.71 525.907 3
-19 5 -13 4611.11 447.588 3
-5 -14 -13 3793.39 412.934 3
5 14 13 5178.19 468.668 6
-5 19 13 4918.1 473.958 6
-14 19 13 6023.33 540.026 6
-14 19 -13 5169.14 507.41 5
-19 5 -14 1888.42 317.489 3
-14 -5 -14 2124.06 387.374 3
-5 -14 -14 1256.8 252.474 3
5 14 14 1746.59 299.124 6
-5 19 14 1635.73 311.063 6
-14 19 14 1787.19 356.946 6
-14 19 -14 2034.58 365.779 5
-14 -5 -15 -296.546 252.922 3
-5 -14 -15 -213.231 182.186 3
5 14 15 445.566 184.932 6
-5 19 15 617.828 229.077 6
-14 19 15 568.497 242.631 6
-14 19 -15 201.842 216.988 5
-19 5 -15 -274.673 187.463 3
-5 -14 -16 696.35 219.469 3
-14 -5 -16 1110.94 302.336 3
5 14 16 933.156 183.222 6
-5 19 16 1192.28 222.41 6
-14 19 16 1460.01 287.969 6
-19 14 16 1637.49 313.867 6
-19 5 -16 626.627 223.109 3
-14 19 -16 996.908 269.932 5
-14 -5 -17 951.091 247.425 3
-5 19 17 942.977 199.947 6
-14 19 17 1277.5 251.064 6
-19 5 -17 1219.86 243.504 3
-14 19 -17 1850.47 297.581 5
-19 14 -18 247.869 186.995 5
-14 -5 -18 105.505 171.935 3
-5 19 18 16.0788 115.593 6
-14 19 18 169.861 127.231 6
-19 5 -18 194.834 145.727 3
-14 19 -18 454.084 201.353 5
19 -15 0 262.853 517.798 2
-4 19 0 167.855 225.347 4
-15 19 0 242.472 263.04 4
19 -4 0 -403.236 442.942 2
4 15 0 -73.5219 163.611 6
-4 19 0 151.367 145.596 6
19 -15 -1 459.583 457.673 2
19 -15 1 691.645 398.741 2
-4 19 -1 731.188 263.779 4
-4 19 1 570.53 283.421 4
4 15 -1 952.502 223.301 6
-15 19 -1 1254.3 346.471 4
-15 19 1 488.983 276.352 4
19 -4 -1 659.41 406.819 2
19 -4 1 431.692 290.615 2
4 15 1 868.063 241.44 6
-4 19 1 864.781 243.819 6
-4 19 -2 7390.74 592.108 4
-4 19 2 8068.34 623.368 4
19 -15 -2 7593.7 1159.29 2
-15 19 2 7772.86 607.085 4
-15 19 -2 8088.05 622.82 4
4 15 2 8074.18 575.766 6
4 15 -2 7056.82 522.554 6
19 -4 -2 5590.9 1029.58 2
-4 19 2 8109.83 575.217 6
19 -15 2 8978.43 1320.32 2
19 -4 2 7931.85 1215.71 2
-4 19 -3 2293.57 372.366 4
-4 19 3 2387.48 366.749 4
-15 19 3 1949.8 384.591 4
-15 19 -3 1783.14 368.75 4
4 15 3 1903.93 331.857 6
-4 19 3 2155.27 342 6
-4 19 -4 11341.2 717.272 4
-4 19 4 10930.1 705.082 4
-15 19 -4 8667.44 649.968 4
-15 19 4 10921.2 695.988 4
4 15 4 9717.43 655.266 6
-4 19 5 3704.88 451.201 4
-4 19 -5 3781.87 431.185 4
-15 19 -5 3415.12 445.599 4
-15 19 5 3606.86 433.347 4
4 15 5 4327.87 470.792 6
-4 19 5 3285.21 414.977 6
-4 19 -6 5982.24 534.09 4
-4 19 6 6010.65 534.906 4
-15 19 -6 5771.52 537.057 4
-15 19 6 5077.38 498.857 4
4 15 6 5638.69 530.137 6
-4 19 6 5381.31 506.838 6
-15 19 -7 1190.55 285.813 5
-4 19 -7 1202.71 294.052 4
-4 19 7 1478.86 310.098 4
-15 19 -7 1034.19 291.972 4
-15 19 7 1257.43 333.204 4
4 15 7 1018.35 290.526 6
-4 19 7 984.819 266.828 6
-15 19 -8 1166.27 292.559 5
-4 19 -8 2477.42 388.346 4
-4 19 8 1277.19 301.272 4
-15 19 -8 1865.75 394.914 4
-15 19 8 1310.08 303.111 4
-15 -4 -8 1732.75 357.067 3
4 15 8 1337.45 330.399 6
-4 19 8 1418.73 319.501 6
-15 19 -9 2276.89 358.32 5
-4 19 -9 1718.01 301.313 4
-4 19 9 2143.33 324.675 4
-15 19 -9 2010.81 325.895 4
-15 19 9 1558.58 282.992 4
-15 -4 -9 2477.8 391.288 3
4 15 9 2357.98 365.266 6
-4 19 9 1906.33 331.389 6
-15 19 9 2276.62 428.24 6
-15 19 -10 3373.19 416.382 5
-19 4 -10 2716.62 342.66 3
-4 -15 -10 3852.27 415.943 3
-15 -4 -10 3174.06 439.848 3
-4 19 10 4503.28 463.504 6
4 15 10 4327.21 456.841 6
-15 19 10 4511.54 520.174 6
-15 19 -11 1622.6 328.25 5
-19 4 -11 2068.42 348.156 3
-15 -4 -11 1234.52 330.185 3
-4 -15 -11 1722.53 304.733 3
4 15 11 1417.19 313.257 6
-4 19 11 1606.95 328.77 6
-15 19 11 2113.83 401.077 6
-19 4 -12 3816.27 420.139 3
-15 -4 -12 4171.65 488.634 3
-4 -15 -12 3066.19 356.701 3
4 15 12 4421.42 458.352 6
-4 19 12 4149.42 443.177 6
-15 19 12 4504.13 495.638 6
-15 19 -12 3720.21 441.568 5
-19 4 -13 812.127 251.876 3
-15 -4 -13 639.064 293.475 3
-4 -15 -13 499.579 212.71 3
4 15 13 362.285 208.748 6
-4 19 13 843.662 265.75 6
-15 19 13 886.328 311.192 6
-15 19 -13 738.795 276.521 5
-19 4 -14 1738.32 328.143 3
-15 -4 -14 1708.39 358.128 3
-4 -15 -14 1638.74 279.804 3
4 15 14 1675.93 271.597 6
-4 19 14 1431.19 287.205 6
-15 19 14 2217.4 369.778 6
-15 19 -14 2061.06 360.693 5
-19 4 -15 257.331 188.527 3
-15 -4 -15 548.143 277.04 3
4 15 15 632.786 212.334 6
-4 19 15 324.239 178.227 6
-15 19 15 467.859 246.716 6
-15 19 -15 438.028 246.005 5
-15 -4 -16 443.309 239.555 3
4 15 16 219.055 151.596 6
-4 19 16 168.363 158.213 6
-15 19 16 322.736 194.525 6
-19 15 16 393.577 213.706 6
-19 4 -16 77.3903 179.489 3
-15 19 -16 85.1154 205.546 5
-19 15 -17 409.904 244.97 5
-15 -4 -17 7.55517 182.62 3
4 15 17 335.06 129.85 6
-4 19 17 535.457 165.955 6
-15 19 17 225.585 178.703 6
-19 4 -17 396.659 174.807 3
-15 19 -17 41.1842 193.62 5
-3 19 0 3609.25 460.772 4
-16 19 0 3305.13 442.754 4
3 16 0 3743.23 396.469 6
-3 19 0 3750.13 382.8 6
-3 19 -1 2099.7 391.651 4
-3 19 1 1687.24 377.316 4
-16 19 -1 1682.58 348.606 4
-16 19 1 1733.18 348.272 4
3 16 -1 1670.49 278.992 6
3 16 1 2193.35 323.442 6
-3 19 1 1954.79 293.303 6
-3 19 -2 5371.4 511.512 4
-3 19 2 5184.23 520.188 4
3 16 -2 4847.98 428.988 6
-16 19 -2 5489.03 532.232 4
-16 19 2 4877.74 496.159 4
3 16 2 5546.66 489.077 6
-3 19 2 4923.31 462.372 6
-3 19 -3 3049.41 422.375 4
-3 19 3 2689.16 401.222 4
-16 19 -3 3159.3 447.408 4
-16 19 3 2638.49 414.404 4
3 16 3 2688.46 372.98 6
-3 19 3 2463.31 342.575 6
-3 19 -4 4335.26 463.004 4
-3 19 4 3547 442.373 4
-16 19 -4 4223.66 494.069 4
-16 19 4 3951.06 459.027 4
-3 19 4 4199.61 437.271 6
3 16 4 4151.96 444.897 6
-3 19 -5 1014.7 276.693 4
-3 19 5 910.03 278.416 4
-16 19 -5 1881.69 366.462 4
-16 19 5 1424.99 324.256 4
3 16 5 1206.25 279.615 6
-3 19 5 1267.73 276.022 6
-3 19 -6 3412.47 436.013 4
-3 19 6 3181.92 412.897 4
-16 19 -6 3279.96 454.232 4
-16 19 6 2755.63 413.677 4
3 16 6 3178.58 441.426 6
-3 19 6 2612.34 382.279 6
-16 19 -7 651.899 218.977 5
-3 19 -7 328.991 249.736 4
-16 -3 -7 172.444 243.051 3
-3 19 7 410.356 225.556 4
-16 19 -7 184.706 248.484 4
-16 19 7 551.275 258.093 4
3 16 7 560.491 238 6
-3 19 7 455.471 210.618 6
-16 19 -8 291.987 203.905 5
-3 19 -8 373.296 214.972 4
-3 19 8 522.335 225.842 4
-16 19 -8 419.001 256.115 4
-16 19 8 170.647 223.488 4
-16 -3 -8 621.251 291.403 3
3 16 8 726.388 265.599 6
-3 19 8 32.238 214.509 6
-16 19 -9 468.47 227.585 5
-19 3 -9 732.767 259.796 3
-16 19 -9 181.229 216.748 4
-16 19 9 439.594 240.588 4
-16 -3 -9 744.063 302.755 3
-19 16 -9 276.832 237.692 4
-19 16 9 793.935 264.924 4
3 16 9 709.251 300.906 6
-3 19 9 685.802 254.415 6
-16 19 -10 470.566 204.939 5
-19 3 -10 552.067 248.316 3
-16 -3 -10 182.066 243.613 3
-3 -16 -10 501.188 215.819 3
3 16 10 880.867 298.874 6
-3 19 10 383.564 224.285 6
-16 19 10 445.239 312.877 6
-16 19 -11 1180.52 298.755 5
-19 3 -11 1697.04 309.432 3
-16 -3 -11 803.811 289.528 3
-3 -16 -11 1158.13 248.18 3
3 16 11 1286.42 298.294 6
-3 19 11 1390.08 316.872 6
-16 19 11 1384.78 369.204 6
-16 19 -12 489.05 228.985 5
-19 3 -12 706.478 273.897 3
-16 -3 -12 554.88 283.129 3
-3 -16 -12 423.831 199.784 3
3 16 12 387.012 216.686 6
-3 19 12 400.974 217.84 6
-16 19 12 608.79 312.853 6
-19 3 -13 341.415 247.813 3
-16 -3 -13 365.126 239.406 3
3 16 13 487.292 208.976 6
-3 19 13 457.027 242.081 6
-16 19 13 392.283 261.924 6
-16 19 -13 474.262 244.1 5
-19 3 -14 173.622 195.341 3
-16 -3 -14 467.786 219.455 3
3 16 14 28.8991 191.653 6
-3 19 14 598.1 228.836 6
-16 19 14 8.27344 224.12 6
-16 19 -14 737.425 264.992 5
-19 3 -15 354.767 198.047 3
-16 -3 -15 89.413 209.138 3
3 16 15 13.2485 157.715 6
-3 19 15 -127.149 166.964 6
-16 19 15 376.531 215.33 6
-19 16 15 -44.3053 231.879 6
-16 19 -15 671.468 255.372 5
-19 16 -16 322.66 231.475 5
-16 -3 -16 533.564 243.123 3
3 16 16 -22.9013 145.743 6
-3 19 16 -17.9727 140.025 6
-16 19 16 -90.7717 177.962 6
-19 16 16 367.891 223.248 6
-16 19 -16 72.4885 200.669 5
-19 3 -16 175.43 160.101 3
-19 16 -17 13.788 177.185 5
-16 -3 -17 110.202 176.748 3
3 16 17 40.5167 95.7234 6
-3 19 17 219.175 145.555 6
-16 19 17 123.316 152.222 6
-19 16 17 130.518 141.141 6
-19 3 -17 61.2248 142.919 3
-16 19 -17 -27.8099 177.019 5
-2 19 0 17550.3 899.408 4
-17 19 0 17352.2 873.351 4
2 17 0 18979.3 845.92 6
-2 19 0 17899.6 809.588 6
-2 19 -1 178.609 231.31 4
-2 19 1 557.529 291.545 4
-17 19 -1 266.383 284.216 4
-17 19 1 385.205 272.697 4
2 17 -1 561.082 214.856 6
2 17 1 197.289 184.868 6
-2 19 1 850.108 257.991 6
-2 19 -2 5470.58 530.319 4
-2 19 2 5233.77 520.205 4
2 17 2 5098.06 471.578 6
-17 19 -2 4613.54 493.572 4
-17 19 2 4920.32 501.193 4
-2 19 2 5240.52 472.776 6
-2 19 -3 1345.08 328.627 4
-2 19 3 448.902 266.056 4
-17 19 3 709.066 287.229 4
-17 19 -3 1089.01 319.411 4
2 17 3 968.722 275.756 6
-2 19 3 1028.77 244.42 6
-2 19 -4 2046.19 354.762 4
-2 19 4 2010.3 361.94 4
-17 19 -4 1967.84 379.617 4
-17 19 4 1740.77 356.921 4
2 17 4 1635.07 315.971 6
-2 19 4 2337.16 368.397 6
-2 19 -5 645.067 272.89 4
-2 19 5 598.306 289.197 4
-17 19 -5 785.622 338.172 4
-17 19 5 77.1398 246.056 4
2 17 5 422.749 233.228 6
-2 19 5 232.264 192.456 6
-2 19 -6 5126.3 497.911 4
-2 19 6 4824.84 482.91 4
-17 19 -6 4882.93 494.394 4
-17 19 6 4150.13 451.149 4
2 17 6 4612.28 474.906 6
-17 -2 -6 5115.39 489.042 3
-2 19 6 4851.74 476.273 6
-2 19 7 -86.0592 193.357 4
-19 2 -7 86.4811 187.437 3
-17 19 -7 396.582 248.736 4
-17 19 7 94.467 238.841 4
-19 17 -7 -0.87527 259.242 4
-19 17 7 -72.7469 227.293 4
-17 -2 -7 -103.67 250.79 3
2 17 7 -69.2654 221.778 6
-2 19 7 149.61 199.011 6
-17 -2 -8 6730.16 562.544 3
-17 19 -8 6300.27 523.102 4
-17 19 8 5546.99 490.283 4
-19 17 -8 5355.63 489.639 4
-19 17 8 5737.58 511.037 4
-19 2 -8 5663.82 504.689 3
2 17 8 6665.99 555.383 6
-2 19 8 6246.02 531.766 6
-17 19 -8 5761.85 489.379 5
-17 19 -9 -8.13214 202.811 5
-19 2 -9 81.4591 197.025 3
-17 19 -9 232.576 208.961 4
-17 19 9 -243.015 222.963 4
-17 -2 -9 448.735 282.582 3
-19 17 -9 145.516 196.665 4
-19 17 9 330.455 256.321 4
-2 -17 -9 23.5879 193.593 3
2 17 9 239.472 224.682 6
-2 19 9 141.047 208.177 6
-17 19 -10 3157.56 399.204 5
-19 2 -10 3299.25 399.34 3
-17 -2 -10 2948.62 412.527 3
2 17 10 3423.42 412.406 6
-2 19 10 3249.33 429.22 6
-17 19 -11 173.24 221.119 5
-19 2 -11 404.95 221.608 3
-17 -2 -11 270.29 228.692 3
2 17 11 485.546 264.184 6
-2 19 11 254.049 231.467 6
-17 19 11 458.893 320.15 6
-17 19 -12 381.858 252.94 5
-19 2 -12 -29.4214 203.74 3
-17 -2 -12 -16.0373 241.568 3
2 17 12 8.64955 195.306 6
-2 19 12 -30.5726 214.172 6
-17 19 12 18.4912 304.83 6
-17 19 -13 -16.3055 238.914 5
-19 2 -13 78.428 196.725 3
-17 -2 -13 266.287 214.09 3
2 17 13 152.456 209.946 6
-2 19 13 97.9636 187.385 6
-17 19 13 65.5233 257.657 6
-19 17 -14 725.076 278.359 5
-19 2 -14 885.339 266.006 3
-17 -2 -14 1014.84 279.213 3
2 17 14 780.062 203.52 6
-2 19 14 809.064 214.688 6
-17 19 14 1199.22 296.636 6
-19 17 14 959.86 303.174 6
-17 19 -14 802.588 276.516 5
-19 17 -15 166.122 204.492 5
-19 2 -15 -46.2139 200.349 3
-17 -2 -15 307.251 223.519 3
2 17 15 344.715 185.16 6
-2 19 15 13.7296 155.323 6
-17 19 15 447.873 215.171 6
-19 17 15 -36.3012 210.678 6
-17 19 -15 -22.5958 187.992 5
-19 17 -16 522.296 250.866 5
-17 -2 -16 740.334 225.647 3
2 17 16 412.512 165.765 6
-2 19 16 503.012 153.738 6
-17 19 16 368.423 184.417 6
-19 17 16 989.406 239.462 6
-17 19 -16 436.776 214.714 5
-19 2 -16 186.383 151.394 3
-19 17 -17 97.8315 165.621 5
-17 -2 -17 -25.0801 153.513 3
2 17 17 9.52754 91.3606 6
-2 19 17 139.782 109.112 6
-17 19 17 111.827 139.321 6
-19 17 17 191.74 136.98 6
-19 2 -17 322.388 161.826 3
-17 19 -17 6.53506 161.157 5
-1 19 0 8736.57 658.22 4
-1 19 0 9783.36 603.799 6
-18 19 0 9286.91 679.243 4
1 18 0 10352.4 634.566 6
-1 19 -1 20553.8 973.943 4
-1 19 1 20514.7 977.603 4
-18 19 -1 19977.1 953.681 4
-18 19 1 20010.6 945.316 4
1 18 -1 20304.2 846.878 6
1 18 1 20671 882.544 6
-1 19 1 20201.4 872.091 6
-1 19 -2 3652.55 454.688 4
-1 19 2 3413.42 431.676 4
-18 19 -2 3936.66 480.09 4
-18 19 2 3824.7 473.469 4
-1 19 2 3974.04 408.382 6
1 18 2 3719.82 412.705 6
-1 19 -3 525.402 293.757 4
-1 19 3 415.021 241.191 4
-18 19 -3 99.0145 279.174 4
-18 19 3 570.657 298.755 4
1 18 3 812.923 258.282 6
-1 19 3 260.474 195.231 6
-1 19 -4 495.801 267.367 4
-18 19 -4 509.959 266.643 4
-18 19 4 300.655 242.147 4
1 18 4 -80.3316 220.161 6
-1 19 4 427.697 223.411 6
-18 19 -5 6403.86 551.03 4
-18 19 5 6121.57 544.882 4
-19 18 -5 6295.51 556.797 4
-19 18 5 5934.71 526.694 4
1 18 5 6139.69 524.986 6
-18 -1 -5 6606.81 514.951 3
-1 19 5 5764.39 494.302 6
-19 1 -6 1917.25 304.317 3
-18 19 -6 1921.15 360.196 4
-18 19 6 1828.17 337.383 4
-19 18 -6 2084.56 372.284 4
-19 18 6 1842.27 357.232 4
-18 -1 -6 1781.73 334.011 3
1 18 6 2152.03 349.476 6
-1 19 6 2008.93 348.308 6
-18 19 -7 10414.8 668.167 4
-18 19 7 9678.13 645.177 4
-19 18 -7 10908.3 693.678 4
-19 18 7 9398 634.599 4
-19 1 -7 9278.79 607.866 3
-18 -1 -7 10896.5 684.066 3
1 18 7 11195.1 688.164 6
-1 19 7 9953.88 660.544 6
-18 19 8 4957.05 489.332 4
-19 18 -8 4430.73 452.866 4
-19 18 8 4907.56 472.768 4
-19 1 -8 4253.23 440.246 3
-18 19 -8 4338.9 450.352 4
-18 -1 -8 4446.35 469.162 3
1 18 8 4852.49 479.168 6
-1 19 8 4648.16 469.235 6
-18 19 -8 4271.45 428.313 5
-18 19 -9 8371.57 567.151 4
-18 19 9 8356.27 583.474 4
-19 18 -9 7948.06 571.986 4
-19 18 9 8146.48 578.556 4
-19 1 -9 8666.66 595.715 3
-18 -1 -9 7320.41 585.088 3
1 18 9 9000.06 606.906 6
-1 19 9 9659.8 633.736 6
-18 19 -9 8594.77 595.812 5
-18 19 -10 1551.77 293.646 5
-19 1 -10 1503.1 313.927 3
-18 -1 -10 2004.71 352.85 3
1 18 10 1565.76 332.403 6
-1 19 10 1750.96 315.005 6
-18 19 -11 340.212 252.53 5
-19 1 -11 572.158 244.806 3
-18 -1 -11 604.997 284.719 3
1 18 11 1216.4 283.882 6
-1 19 11 988.601 266.838 6
-18 19 11 816.58 343.118 6
-18 19 -12 -48.7475 198.541 5
-19 18 -12 56.3827 215.309 5
-19 1 -12 -259.13 207.23 3
-18 -1 -12 8.52265 221.371 3
1 18 12 69.9288 205.705 6
-1 19 12 255.268 204.977 6
-18 19 12 119.797 287.549 6
-18 19 -13 1667.23 359.808 5
-19 18 -13 1896.25 366.706 5
-19 1 -13 2180.03 356.344 3
-18 -1 -13 1756.5 364.668 3
1 18 13 2370.28 317.083 6
-1 19 13 2149.76 297.136 6
-18 19 13 2990.88 413.559 6
-19 18 13 3546.83 447.294 6
-19 18 -14 987.417 294.98 5
-19 1 -14 930.968 257.236 3
-18 -1 -14 947.137 253.856 3
1 18 14 1284.28 254.684 6
-1 19 14 1170.77 242.215 6
-18 19 14 1060.16 284.752 6
-19 18 14 682.749 277.518 6
-18 19 -14 738.957 275.539 5
-19 18 -15 1615.73 368.439 5
-19 1 -15 3084.22 336.12 3
-1 19 15 3555.21 332.463 6
1 18 15 3727.33 332.392 6
-18 -1 -15 3736.78 385.81 3
-18 19 15 3314.6 356.17 6
-19 18 15 3326.13 367.573 6
-18 19 -15 1697.44 345.452 5
-19 1 -16 723.499 196.605 3
-18 -1 -16 330.487 155.699 3
1 18 16 487.571 160.957 6
-1 19 16 365.848 152.837 6
-18 19 16 468.383 186.274 6
-19 18 16 480.395 191.279 6
-18 19 -16 575.309 229.559 5
-19 18 -16 394.62 223.681 5
-19 19 0 14241.7 794.457 4
0 19 0 13965.9 712.254 6
-19 19 -1 39963.2 1306.67 4
-19 19 1 38143 1273.24 4
0 19 1 38795.8 1195.63 6
-19 19 -2 4064.15 468.814 4
-19 19 2 4032.01 468.201 4
0 19 2 4165.16 429.092 6
-19 19 -3 4608.63 489.882 4
-19 19 3 3626.8 445.817 4
0 19 3 4461.71 433.967 6
-19 19 -4 463.447 301.325 4
-19 19 4 1012.42 355.314 4
0 19 4 556.94 228.739 6
-19 0 -5 6544.66 516.011 3
-19 19 -5 6773.23 574.989 4
-19 19 5 6578.36 567.776 4
0 19 5 7584.16 587.106 6
-19 19 -6 5120.51 496.51 4
-19 19 6 4423.09 478 4
-19 0 -6 5164.66 481.172 3
0 19 6 5100.65 490.883 6
-19 19 -7 13151.4 729.579 4
-19 19 7 12909.5 714.633 4
-19 0 -7 13072.2 709.488 3
0 19 7 13235.1 737.48 6
-19 19 -8 4691.8 458.242 4
-19 19 8 4123.2 418.325 4
-19 0 -8 4319.13 435.236 3
0 19 8 4120.72 438.885 6
-19 19 -8 4012.19 405.767 5
-19 19 -9 10254.9 598.69 4
-19 19 9 10777.7 634.306 4
-19 0 -9 11919.6 691.05 3
-19 19 -9 10651.6 629.473 5
-19 19 -10 1466.59 290.599 5
-19 0 -10 1631.15 324.963 3
0 19 10 1843.56 315.29 6
-19 19 -11 896.595 281.777 5
-19 0 -11 1193.36 313.649 3
0 19 11 1661.15 297.735 6
0 19 12 637.991 232.878 6
-19 19 12 157.911 268.405 6
-19 0 -13 1698.98 301.492 3
0 19 13 2285.01 307.475 6
-19 19 13 2316.7 373.508 6
-19 0 -14 2627.2 326.098 3
0 19 14 2084.38 278.768 6
-19 19 14 2402.58 337.31 6
-19 0 -15 2982.82 326.065 3
0 19 15 2813.74 292.608 6
-19 19 15 2987.45 325.88 6
-19 19 -15 2076.92 341.134 5
20 -10 0 -261.709 423.427 2
-10 20 0 70.3155 238.82 4
-10 20 0 109.347 171.799 6
20 -10 -1 77.8474 331.895 2
20 -10 1 111.701 411.263 2
-10 20 -1 -3.7757 227.175 4
-10 20 1 0.46674 246.344 4
-10 20 1 -54.8805 181.706 6
20 -10 -2 3806.66 843.284 2
20 -10 2 3744.3 821.592 2
-10 20 -2 4118.37 469.645 4
-10 20 2 3988.73 441.302 4
10 10 2 4398.84 457.456 6
-10 20 2 4448.18 456.645 6
-10 20 -3 10.4665 253.129 4
-10 20 3 152.314 232.146 4
20 -10 -3 77.9391 403.745 2
20 -10 3 685.833 404.757 2
10 10 3 -128.38 193.067 6
-10 20 3 416.909 240.191 6
-10 20 -4 780.688 286.566 4
-10 20 4 1154.06 305.305 4
10 10 4 944.393 285.021 6
-10 20 4 582.567 242.992 6
-10 20 -5 24.5918 217.663 4
-10 20 5 -383.226 228.833 4
10 10 5 -74.3307 201.906 6
-10 20 5 -281.872 246.014 6
-10 20 -6 4844.2 490.695 4
-10 20 6 4885.65 469.925 4
10 10 6 5278.71 501.452 6
-10 20 6 5135.41 499.763 6
-10 20 -6 5773.1 492.255 5
-10 20 -7 56.4936 198.3 4
-10 20 7 -90.634 209.654 4
10 10 7 -16.5774 205.537 6
-10 20 7 200.252 241.183 6
-10 20 -7 21.6796 193.609 5
-10 20 -8 9535.93 656.879 4
-10 20 8 8166.07 595.636 4
10 10 8 7790.81 593.438 6
-10 20 8 7994.88 607.916 6
-10 20 -8 7595.28 585.21 5
-10 20 -9 -40.0082 191.098 4
-10 20 9 -250.642 178.997 4
10 10 9 -381.064 245.294 6
-10 20 9 -36.0247 263.824 6
-10 20 -9 399.827 256.049 5
-10 -10 -10 1528.92 367.013 3
10 10 10 1873.79 336.57 6
-10 20 10 1693.91 339.762 6
-10 20 -10 1601.61 325.394 5
-10 -10 -11 -529.292 303.648 3
10 10 11 121.775 187.503 6
-10 20 11 264.209 256.655 6
-10 20 -11 -370.956 230.658 5
-10 -10 -12 398.988 287.949 3
-10 20 12 813.111 310.973 6
-10 20 -12 349.351 271.161 5
-10 -10 -13 23.7072 230.729 3
-10 20 13 -95.8245 210.605 6
-10 20 -13 386.647 249.756 5
-10 -10 -14 1011.1 300.972 3
-10 20 14 692.01 253.876 6
-10 20 -14 406.857 229.486 5
-10 -10 -15 454.256 233.86 3
-10 20 -15 7.54423 219.757 5
-10 -10 -16 1136.94 262.656 3
-10 20 16 999.534 244.568 6
-10 20 -16 1098.37 272.251 5
-10 -10 -17 97.2039 158.092 3
-10 20 17 -67.7165 142.609 6
-10 -10 -18 446.139 166.537 3
-10 20 18 276.275 123.359 6
20 -11 0 -427.332 322.247 2
-9 20 0 28.6764 211.671 4
-11 20 0 46.7676 239.063 4
20 -9 0 -229.764 495.899 2
9 11 0 307.939 181.479 6
-9 20 0 571.22 207.691 6
-11 20 0 203.527 181.491 6
9 11 1 4926.99 461.864 6
20 -11 -1 3688.18 787.552 2
20 -11 1 4307.52 898.172 2
-9 20 -1 3922.66 467.006 4
-9 20 1 3898.15 456.205 4
-11 20 -1 4671.49 500.044 4
-11 20 1 3665.08 448.571 4
20 -9 -1 2840.18 714.039 2
20 -9 1 3498.87 793.868 2
-9 20 1 4393.27 422.523 6
-11 20 1 4207.88 426.683 6
-9 20 -2 5526.09 541.934 4
-11 20 -2 4665.56 508.479 4
-11 20 2 4468.69 483.858 4
20 -11 -2 2716.58 763.456 2
20 -11 2 4119.08 864.251 2
-9 20 2 4609.86 483.852 4
20 -9 -2 4037.43 721.044 2
20 -9 2 4091.44 871.438 2
9 11 2 5215.03 480.518 6
-9 20 2 5000.14 463.384 6
-11 20 2 4755.57 471.777 6
20 -11 -3 3658.83 831.368 2
-9 20 -3 3386.71 431.649 4
-9 20 3 2843.36 401.745 4
-11 20 -3 3289.07 419.15 4
-11 20 3 3536.74 444.347 4
20 -9 -3 2821.38 659.768 2
9 11 3 3881.54 446.79 6
-9 20 3 3265.49 401.109 6
-11 20 3 3599.18 427.935 6
-11 20 4 4768.72 489.446 4
-9 20 -4 4423.09 478.987 4
-9 20 4 4171 466.053 4
-11 20 -4 4476.52 483.126 4
11 9 4 4691.41 469.285 6
9 11 4 5026.62 474.388 6
-9 20 4 4274.38 458.133 6
-11 20 4 4682.84 470.437 6
-9 20 -5 2125.98 356.613 4
-9 20 5 1668.14 318.913 4
-11 20 -5 2232.78 373.138 4
-11 20 5 2123.25 362.955 4
11 9 5 1923.24 335.293 6
9 11 5 1728.69 321.27 6
-9 20 5 1749.44 321.24 6
-11 20 5 1758.75 339.684 6
-9 20 -5 1784.33 319.031 5
-9 20 -6 3625.6 433.274 4
-9 20 6 2834.6 390.542 4
-11 20 -6 3244.87 417.749 4
-11 20 6 3498.84 414.714 4
11 9 6 3407.47 424.302 6
9 11 6 3368.57 425.542 6
-9 20 6 3147.11 410.275 6
-11 20 6 3256.23 438.846 6
-9 20 -6 2737.75 356.892 5
-11 20 -6 3253.41 392.991 5
-9 20 -7 8744.56 637.724 4
-9 20 7 8829.8 633.968 4
-11 20 -7 9347.53 642.385 4
-11 20 7 9012.7 636.274 4
9 11 7 9363.67 641 6
11 9 7 9765.66 657.075 6
-9 20 7 10225.2 666.728 6
-11 20 7 9550.28 653.638 6
-9 20 -7 9745.65 633.601 5
-11 20 -7 9598.77 637.192 5
-9 20 -8 1671.31 365.186 4
-9 20 8 1459.03 305.846 4
-11 20 -8 2465.53 401.656 4
-11 20 8 1335.45 284.923 4
11 9 8 1527.26 324.224 6
9 11 8 791.993 294.918 6
-9 20 8 1392.43 336.693 6
-11 20 8 1775.17 381.039 6
-9 20 -8 1159.86 269.211 5
-11 20 -8 1075.64 281.796 5
9 11 9 1860.7 323.291 6
-9 20 -9 1273.77 264.887 4
-9 20 9 1737.21 313.106 4
-11 20 -9 2489.7 354.962 4
-11 20 9 1407.17 279.854 4
-9 20 9 1549.66 316.522 6
-11 20 9 2895.4 411.048 6
-9 20 -9 1804.26 364.051 5
-11 20 -9 2039.18 344.371 5
-11 -9 -10 2451.47 416.757 3
-9 -11 -10 1772.81 360.526 3
9 11 10 1729.31 348.709 6
-9 20 10 1896.31 349.917 6
-11 20 10 2625.17 415.845 6
-9 20 -10 1363.34 298.414 5
-11 20 -10 1956.32 356.647 5
-11 -9 -11 1309.97 326.056 3
-9 -11 -11 1295.61 304.968 3
9 11 11 1450.96 292.803 6
-9 20 11 1943.57 365.845 6
-11 20 11 1519.09 338.869 6
-9 20 -11 1183.25 313.853 5
-11 20 -11 1396.13 312.404 5
-11 -9 -12 1516.22 341.715 3
-9 -11 -12 1011.06 288.099 3
9 11 12 916.779 243.976 6
-9 20 12 1969.4 358.326 6
-11 20 12 1867.07 362.084 6
-9 20 -12 1681.27 354.752 5
-11 20 -12 1014.71 300.63 5
-11 -9 -13 538.869 269.519 3
-9 -11 -13 855.771 296.413 3
9 11 13 596.586 198.785 6
-9 20 13 794.659 280.823 6
-11 20 13 908.182 280.881 6
-9 20 -13 768.129 283.15 5
-11 20 -13 810.385 285.172 5
-11 -9 -14 618.789 267.711 3
-9 -11 -14 347.548 211.322 3
-9 20 14 686.024 232.761 6
-11 20 14 366.787 231.745 6
-9 20 -14 929.381 284.657 5
-11 20 -14 487.658 243.739 5
-11 -9 -15 1121.78 291.152 3
-9 -11 -15 1306.21 275.508 3
-9 20 15 1482.1 338.177 6
-11 20 15 930.603 261.754 6
-9 20 -15 1376.41 307.406 5
-11 20 -15 1052.39 288.161 5
-9 -11 -16 -17.4752 185.607 3
-11 -9 -16 360.512 226.881 3
-9 20 16 224.508 181.631 6
-11 20 16 687.807 218.153 6
-11 20 -16 732.419 244.586 5
-9 -11 -17 592.165 194.438 3
-11 -9 -17 782.605 225.391 3
-9 20 17 536.943 183.758 6
-11 20 17 402.746 172.21 6
-11 20 -17 390.153 221.703 5
-8 20 0 7217.37 596.878 4
-12 20 0 7448.17 591.832 4
20 -12 0 5357.58 963.648 2
20 -8 0 6566.95 1084.32 2
8 12 0 7161.5 533.839 6
-8 20 0 6916.85 527.142 6
-12 20 0 7452.11 537.799 6
-8 20 -1 7408.71 596.285 4
-8 20 1 7541.94 597.381 4
-12 20 -1 7191.28 589.309 4
-12 20 1 6704.48 566.459 4
20 -12 -1 6881.63 1086.38 2
20 -12 1 6939.27 1100.04 2
20 -8 -1 6333.14 1103.45 2
20 -8 1 6485.14 1095.4 2
8 12 -1 7344.84 535.559 6
8 12 1 7485.13 551.832 6
-8 20 1 8478.33 577.927 6
-12 20 1 7369.48 555.759 6
-8 20 -2 10228.6 705.346 4
-8 20 2 9189.54 652.275 4
-12 20 -2 10014 699.275 4
-12 20 2 9622.93 679.769 4
20 -8 -2 8547.57 1236.73 2
20 -8 2 7710.49 1152.92 2
8 12 2 10349.3 663.044 6
-8 20 2 9141.67 615.384 6
20 -12 -2 10174.2 1358.91 2
20 -12 2 9811.57 1349.47 2
-12 20 2 9618.77 634.225 6
-8 20 -3 10356.1 699.21 4
-8 20 3 10116.9 687.014 4
-12 20 3 10075.4 676.91 4
-12 20 -3 10661.4 704.531 4
8 12 3 10607.3 670.847 6
-8 20 3 9992.34 644.793 6
-12 20 3 10080.4 649.352 6
-8 20 -4 11640.7 730.284 4
-8 20 4 11390.6 711.081 4
-12 20 -4 11902.5 728.596 4
-12 20 4 10490.4 676.97 4
8 12 4 11951.6 710.869 6
-8 20 4 10508.8 660.166 6
-12 20 4 10505.3 672.459 6
-8 20 -5 6019.56 548.952 4
-8 20 5 5775.28 518.269 4
-12 20 -5 6567.15 566.974 4
-12 20 5 6045.8 538.707 4
8 12 5 6986.08 550.224 6
-8 20 5 5912.23 521.248 6
-12 20 5 6235.43 542.273 6
-8 20 -6 4652.92 474.192 4
-8 20 6 4171.27 459.656 4
-12 20 -6 4663.69 487.181 4
-12 20 6 4896.69 489.689 4
8 12 6 4627.35 488.67 6
-8 20 6 4352.14 458.925 6
-12 20 6 4484.77 472.424 6
-12 20 -6 4370 430.603 5
-8 20 -7 6213.65 519.696 4
-8 20 7 5858.14 523.193 4
-12 20 -7 6233.6 541.123 4
-12 20 7 6954.18 564.672 4
8 12 7 6593.2 568.218 6
-8 20 7 6870.21 557.499 6
-12 20 7 7786.76 613.945 6
-8 20 -7 6085.25 520.797 5
-12 20 -7 6170.51 520.168 5
-8 20 -8 1630.59 315.049 4
-8 20 8 2003.34 325.53 4
-12 20 -8 1452.02 313.042 4
-12 20 8 1824.95 313.807 4
8 12 8 2599.47 394.922 6
-8 20 8 1970.76 358.429 6
-12 20 8 2235.21 401.096 6
-8 20 -8 2097.2 354.641 5
-12 20 -8 1673.77 323.615 5
-8 20 -9 8258.24 577.765 4
-8 20 9 7593.81 550.398 4
-12 20 -9 7584.74 564.775 4
-12 20 9 7765.66 557.149 4
8 12 9 7724.64 592.096 6
-8 20 9 8986.32 640.824 6
-12 20 9 8535.31 626.513 6
-8 20 -9 8124.75 619.316 5
-12 20 -9 7470.15 579.685 5
-12 -8 -10 10491.2 713.924 3
8 12 10 10040.1 663.499 6
-8 -12 -10 9838.33 655.972 3
-8 20 10 11134.4 702.62 6
-12 20 10 10630.2 692.859 6
-8 20 -10 9787.95 661.3 5
-12 20 -10 8733.43 622.296 5
-12 -8 -11 4060.67 468.565 3
-8 -12 -11 5179.53 507.132 3
8 12 11 3929.45 419.349 6
-8 20 11 5118.29 502.523 6
-12 20 11 4479.2 477.009 6
-8 20 -11 4774.54 488.61 5
-12 20 -11 4065.3 450.591 5
-8 -12 -12 6455.49 547.918 3
-12 -8 -12 7692.67 620.285 3
8 12 12 6817.81 537.943 6
-8 20 12 7924.96 587.614 6
-12 20 12 7660.89 601.721 6
-8 20 -12 7213.9 588.287 5
-12 20 -12 7682.76 601.599 5
-12 -8 -13 1820.18 359.078 3
-8 -12 -13 1379.94 301.901 3
8 12 13 1466.91 271.395 6
-8 20 13 1800.81 337.761 6
-12 20 13 1687.46 344.063 6
-8 20 -13 1812.82 343.269 5
-12 20 -13 1483.78 321.14 5
-12 -8 -14 1623.28 339.751 3
-8 -12 -14 1411.88 302.115 3
8 12 14 1270.75 236.73 6
-8 20 14 1972.3 309.702 6
-12 20 14 1471.01 299.757 6
-12 20 -14 1591.02 314.769 5
-12 -8 -15 1481.46 298.975 3
-8 -12 -15 1611.96 287.315 3
-8 20 15 1450.83 268.976 6
-12 20 15 1478.36 286.508 6
-12 20 -15 1427.2 294.961 5
-8 -12 -16 175.288 171.542 3
-12 -8 -16 156.525 191.076 3
-8 20 16 272.647 173.151 6
-12 20 16 113.826 170.059 6
-8 -12 -17 531.81 205.769 3
-12 -8 -17 714.741 223.606 3
-8 20 17 630.24 176.705 6
-12 20 17 693.333 181.165 6
-12 20 -17 1093.24 252.615 5
-7 20 0 25493.6 1063.08 4
7 13 0 26320.6 988.649 6
-13 20 0 23283.4 1034.09 4
-7 20 0 25184.6 952.883 6
-13 20 0 24906.9 957.092 6
-7 20 -1 5933.17 566.202 4
-7 20 1 5816.71 551.839 4
-13 20 -1 6821.9 584.142 4
-13 20 1 6013.96 548.049 4
7 13 -1 6468.35 511.948 6
7 13 1 7452.4 562.251 6
-7 20 1 6515.24 514.26 6
-13 20 1 5887.77 520.765 6
-7 20 -2 10298.1 689.512 4
-7 20 2 10171.8 698.15 4
-13 20 -2 10047.1 673.186 4
-13 20 2 10848.6 709.581 4
7 13 2 10416.7 645.389 6
7 13 -2 9463.34 597.704 6
-7 20 2 10066.3 641.5 6
-13 20 2 9973.74 626.189 6
-7 20 -3 29099.4 1150.56 4
-7 20 3 28735.4 1124.01 4
-13 20 -3 30063.3 1150.87 4
-13 20 3 30475.1 1141.21 4
7 13 3 31680.7 1127.81 6
-7 20 3 30349.1 1103.18 6
-13 20 3 27888.7 1063.85 6
-7 20 -4 860.755 287.672 4
-7 20 4 961.065 299.19 4
-13 20 -4 704.87 266.617 4
-13 20 4 712.128 255.691 4
7 13 4 859.965 298.833 6
-7 20 4 763.66 234.589 6
-13 20 4 614.875 267.048 6
-7 20 -5 21221.2 970.258 4
-7 20 5 20097.6 930.961 4
-13 20 -5 21945.8 980.013 4
-13 20 5 20841.6 947.941 4
7 13 5 21489.1 962.792 6
-7 20 5 19589.2 906.513 6
-13 20 5 19431.6 901.951 6
-7 20 -6 5286.02 503.598 4
-7 20 6 4989.56 500.738 4
-13 20 -6 5522.38 519.956 4
-13 20 6 4871.62 480.35 4
7 13 6 5708.49 520.884 6
-7 20 6 4676.37 480.444 6
-13 20 6 5099.49 499.938 6
-7 20 -7 1649.31 309.479 4
-7 20 7 1061.76 282.254 4
-13 20 -7 1443.42 334.767 4
-13 20 7 1019.41 306.007 4
7 13 7 1368.99 312.164 6
-7 20 7 1253.32 306.141 6
-13 20 7 1991.01 397.326 6
-13 20 -7 1177.94 271.871 5
-7 20 -8 8127.94 588.63 4
-7 20 8 8346.62 583.664 4
-13 20 -8 8779.62 613.398 4
-13 20 8 8337.23 596.866 4
7 13 8 9822.67 659.88 6
-7 20 8 9363.39 637.506 6
-13 20 8 9359.37 662.722 6
-13 20 -8 8574.67 603.669 5
-7 20 -9 6910.9 535.124 4
-7 20 9 7330.39 554.838 4
-13 20 -9 7923.82 565.856 4
-13 20 9 7158.88 549.557 4
7 13 9 8783.17 618.97 6
-13 -7 -9 8921.28 672.944 3
-7 20 9 8810.52 633.397 6
-13 20 9 8022.77 634.742 6
-13 20 -9 7022.79 558.673 5
-13 -7 -10 5566.31 555.232 3
7 13 10 5094.28 497.378 6
-7 -13 -10 5135.04 495.895 3
-13 20 10 4803.94 516.393 6
-7 20 10 4616.86 466.953 6
-13 20 -10 3893.34 438.746 5
-13 -7 -11 17258.9 891.222 3
-7 -13 -11 16263.3 815.865 3
7 13 11 16881 811.659 6
-7 20 11 17340.9 846.585 6
-13 20 11 19068.2 888.966 6
-13 20 -11 16903.3 853.834 5
-13 -7 -12 253.965 259.905 3
-7 -13 -12 392.189 257.437 3
7 13 12 -43.455 203.318 6
-7 20 12 -152.798 213.825 6
-13 20 12 264.736 258.485 6
-13 20 -12 -126.961 224.338 5
7 13 13 6808.99 498.794 6
-13 -7 -13 6608.08 572.353 3
-7 -13 -13 6267.24 510.583 3
-7 20 13 7071.19 532.938 6
-13 20 13 8063.28 591.509 6
-13 20 -13 7682.93 593.263 5
-13 -7 -14 1494.53 320.829 3
-7 -13 -14 1130.06 259.943 3
7 13 14 1694.09 278.285 6
-7 20 14 1801.67 308.034 6
-13 20 14 1946.37 345.176 6
-13 20 -14 2058.42 347.03 5
-13 -7 -15 241.276 229.935 3
-7 -13 -15 222.574 201.95 3
7 13 15 -26.3335 136.789 6
-7 20 15 34.3142 174.203 6
-13 20 15 21.9001 203.91 6
-13 20 -15 433.952 244.9 5
-7 -13 -16 1046.68 252.428 3
-13 -7 -16 1855.38 300.929 3
-7 20 16 1550.25 250.212 6
-13 20 16 1756.06 284.743 6
-20 13 16 1031.61 240.647 6
-13 20 -16 1994.53 319.101 5
-7 -13 -17 890.471 205.804 3
-13 -7 -17 1752.03 281.253 3
-7 20 17 1854 244.255 6
-13 20 17 1166.22 218.715 6
-13 20 -17 1822.74 297.55 5
-6 20 0 4738 506.69 4
-14 20 0 4562.02 502.374 4
6 14 0 5392.29 467.289 6
-6 20 0 4996.99 438.317 6
-14 20 0 4626.84 455.541 6
-6 20 -1 13831.4 792.151 4
-6 20 1 13611.2 790.725 4
-14 20 -1 12931.9 768.992 4
-14 20 1 13690.4 786.137 4
6 14 -1 14859.6 739.855 6
6 14 1 14607.9 764.455 6
-6 20 1 15378.3 758.795 6
-14 20 1 12771.1 721.045 6
-6 20 -2 17450.9 905.101 4
-6 20 2 15951.7 864.484 4
-14 20 -2 15599.5 856.726 4
-14 20 2 15549.3 840.749 4
6 14 -2 15408.9 751.007 6
6 14 2 17262.5 841.443 6
-6 20 2 17095.4 820.872 6
-14 20 2 14664.7 765.312 6
-6 20 -3 9480.52 669.048 4
-6 20 3 8466.65 639.112 4
6 14 3 8991.22 612.42 6
-14 20 -3 8853.99 642.439 4
-14 20 3 8558.05 638.977 4
-6 20 3 8518.49 596.898 6
-14 20 3 8612.96 633.713 6
-6 20 -4 20649.3 966.31 4
-6 20 4 21056.8 959.975 4
-14 20 -4 20608.5 980.43 4
-14 20 4 19298.4 919.628 4
6 14 4 21061.2 943.603 6
-6 20 4 19842.4 897.302 6
-14 20 4 19744.9 907.428 6
-6 20 -5 6388.85 556.533 4
-6 20 5 5334.8 511.72 4
-14 20 -5 6029.49 537.974 4
-14 20 5 5682.28 540.183 4
6 14 5 5425.59 515.597 6
-6 20 5 4851.52 493.762 6
-14 20 5 5258.44 518.901 6
-6 20 -6 6397.56 553.816 4
-6 20 6 5704.33 494.031 4
-14 20 -6 5926.18 542.856 4
-14 20 6 6094.11 539.228 4
6 14 6 5968.29 533.444 6
-6 20 6 5020.28 493.325 6
-14 20 6 5953.66 554.26 6
-6 20 7 4075.15 441.181 4
-6 20 -7 4050.93 444.446 4
-14 20 -7 3982.96 449.836 4
-14 20 7 3522.14 421.822 4
6 14 7 3844.09 433.113 6
-6 20 7 4360.16 454.926 6
-14 20 7 4775.04 533.055 6
-14 20 -7 3928.36 418.558 5
-6 20 -8 1695.16 318.099 4
-6 20 8 1167.35 277.754 4
-14 20 -8 1336.44 305.349 4
-14 20 8 1305.14 309.098 4
6 14 8 1560.29 334.129 6
-6 20 8 1421.27 302.093 6
-14 20 8 1868.19 384.063 6
-14 20 -8 1241.48 296.268 5
-6 20 -9 6574.84 507.279 4
-6 20 9 6840.88 533.065 4
-14 20 -9 6101.17 516.768 4
-14 20 9 6543.06 525.411 4
6 14 9 7449.59 592.062 6
-14 -6 -9 7770.01 616.765 3
-6 20 9 7353.56 577.512 6
-14 20 9 7220.45 589.294 6
-14 20 -9 6306.95 530.95 5
-6 -14 -10 12072.4 691.165 3
-14 -6 -10 13515.8 806.87 3
6 14 10 12673.7 746.85 6
-6 20 10 12591.3 731.533 6
-14 20 10 13083.9 742.819 6
-14 20 -10 12163.8 717.67 5
6 14 11 4914.88 469.098 6
-14 -6 -11 6149.72 571.296 3
-6 -14 -11 4609.07 461.147 3
-6 20 11 5721.14 512.853 6
-14 20 11 5755.49 521.192 6
-14 20 -11 5167.37 485.431 5
6 14 12 9341.08 604.583 6
-14 -6 -12 9719.46 680.76 3
-6 -14 -12 8822.62 584.534 3
-6 20 12 9499.74 627.111 6
-14 20 12 10824.3 677.465 6
-14 20 -12 10020.6 659.957 5
-14 -6 -13 2167.29 370.564 3
-6 -14 -13 1279.31 282.761 3
6 14 13 1422.9 269.165 6
-6 20 13 1849.82 330.017 6
-14 20 13 2160.33 354.23 6
-14 20 -13 2008.96 340.392 5
-14 -6 -14 1850.3 335.064 3
-6 -14 -14 1389.92 252.517 3
6 14 14 1731.58 289.199 6
-6 20 14 2318.23 323.821 6
-14 20 14 1477.85 306.703 6
-14 20 -14 2386.65 355.08 5
-14 -6 -15 909.704 278.908 3
-6 -14 -15 319.051 193.31 3
6 14 15 666.106 187.823 6
-6 20 15 366.626 208.137 6
-14 20 15 968.239 278.29 6
-20 6 -15 648.162 195.468 3
-14 20 -15 911.229 261.58 5
-6 -14 -16 314.783 172.979 3
-14 -6 -16 735.069 252.802 3
-6 20 16 387.143 175.514 6
-14 20 16 264.652 201.053 6
-20 14 16 465.479 197.958 6
-20 6 -16 298.633 157.931 3
-14 20 -16 234.162 202.735 5
-14 -6 -17 421.338 204.497 3
-6 20 17 345.833 148.763 6
-14 20 17 415.955 157.411 6
-14 20 -17 656.699 221.753 5
-5 20 0 1611.48 347.202 4
-15 20 0 1434.6 356.103 4
5 15 0 1756.71 293.51 6
-5 20 0 2070.59 299.105 6
-15 20 0 2143.61 330.584 6
-5 20 -1 3428.44 430.94 4
-5 20 1 3451.36 432.923 4
-15 20 -1 3643.27 446.87 4
-15 20 1 3133.71 419.764 4
5 15 -1 3251.49 364.954 6
5 15 1 3724.32 397.34 6
-5 20 1 3367.15 391.486 6
-15 20 1 3089.08 373.645 6
-5 20 -2 13551.3 799.196 4
-5 20 2 13231.9 778.074 4
-15 20 -2 12476 765.797 4
-15 20 2 13180.8 770.697 4
5 15 -2 13625.6 704.221 6
5 15 2 13919.8 748.396 6
-5 20 2 13486 729.903 6
-15 20 2 11744.7 702.474 6
-5 20 -3 7199.55 602.968 4
-5 20 3 6132.88 551.135 4
-15 20 -3 6533.14 590.491 4
-15 20 3 6160.84 553.748 4
5 15 3 7144.68 577.682 6
-5 20 3 6779.56 533.731 6
-5 20 -4 14646.6 818.15 4
-5 20 4 14542.5 802.838 4
-15 20 -4 15342.9 836.254 4
-15 20 4 14938.1 812.575 4
5 15 4 15725.7 818.689 6
-5 20 4 15213.5 788.207 6
-15 20 4 14677.3 809.589 6
-5 20 -5 3811.72 447.751 4
-5 20 5 3635.38 443.346 4
-15 20 -5 3371.54 432.715 4
-15 20 5 3287.13 421.466 4
5 15 5 3539.62 431.224 6
-5 20 5 2900.76 387.11 6
-15 20 5 3596.2 445.966 6
-5 20 -6 5931.67 531.382 4
-5 20 6 5666.05 510.058 4
-15 20 -6 6096.34 554.403 4
-15 20 6 5338.12 506.928 4
5 15 6 5380.33 520.061 6
-5 20 6 5394.42 494.923 6
-15 20 6 5666.78 563.571 6
-5 20 -7 2349.36 360.332 4
-5 20 7 1901.29 317.208 4
-15 20 -7 1439.2 322.38 4
-15 20 7 1807.71 316.208 4
5 15 7 1749.84 337.83 6
-5 20 7 1853.45 322.683 6
-15 20 7 2005.55 407.526 6
-15 20 -7 1612.46 274.058 5
-15 -5 -8 1890.36 365.513 3
-5 20 -8 1477.55 292.121 4
-5 20 8 1589.41 306.804 4
-15 20 -8 1045.93 258.601 4
-15 20 8 854.397 255.916 4
5 15 8 1603.81 328.046 6
-5 20 8 1383.57 316.494 6
-15 20 8 895.509 342.083 6
-15 20 -8 1352.18 288.015 5
-5 20 -9 5120.98 460.615 4
-5 20 9 4754.13 447.376 4
-15 20 -9 4836.35 451.921 4
-15 20 9 4471.39 466.974 4
-15 -5 -9 5431.8 527.769 3
5 15 9 5841.09 521.092 6
-5 20 9 5690.84 505.798 6
-15 20 9 5423.49 544.874 6
-15 20 -9 5590.7 506.954 5
-5 -15 -10 6289.94 505.989 3
5 15 10 6939.74 551.4 6
-5 20 10 7216.77 566.025 6
-15 -5 -10 6341.84 551.848 3
-15 20 10 8020.72 615.814 6
-15 20 -10 6067.95 514.964 5
-15 -5 -11 3455.93 458.38 3
-5 -15 -11 2968.45 361.503 3
5 15 11 3018.9 392.419 6
-5 20 11 3309.2 400.497 6
-15 20 11 4388.16 483.949 6
-15 20 -11 3040.07 398.32 5
-15 -5 -12 6598.73 579.362 3
-5 -15 -12 4851.13 427.598 3
5 15 12 5780.81 500.946 6
-5 20 12 5286.9 471.289 6
-15 20 12 5792.2 511.878 6
-15 20 -12 5564.23 503.418 5
-20 5 -13 1396.9 249.654 3
-15 -5 -13 1736.82 353.503 3
-5 -15 -13 1458.19 262.938 3
5 15 13 1875.75 283.723 6
-5 20 13 2023.94 314.962 6
-15 20 13 2307.35 375.231 6
-15 20 -13 1575.53 331.993 5
-15 -5 -14 1111.55 297.062 3
-5 -15 -14 432.415 203.427 3
5 15 14 1139.18 237.453 6
-5 20 14 593.635 230.578 6
-15 20 14 1503.65 315.321 6
-15 20 -14 1757.74 369.842 5
-20 5 -14 688.941 206.12 3
-5 -15 -15 169.205 163.226 3
-15 -5 -15 875.143 264.765 3
5 15 15 444.812 181.266 6
-5 20 15 540.702 199.132 6
-15 20 15 491.549 228.416 6
-20 15 15 1001.33 294.284 6
-20 5 -15 784.882 201.789 3
-15 20 -15 1027.19 267.388 5
-15 -5 -16 -140.979 215.53 3
5 15 16 -114.237 124.064 6
-5 20 16 -109.924 139.516 6
-15 20 16 162.429 164.061 6
-20 15 16 181.825 183.098 6
-20 5 -16 87.5034 132.736 3
-15 20 -16 206.836 217.44 5
-20 15 -17 201.391 194.604 5
-15 -5 -17 -4.93501 166.048 3
-5 20 17 198.913 145.82 6
-15 20 17 101.575 137.411 6
-20 5 -17 34.7718 114.05 3
-15 20 -17 102.648 164.222 5
-4 20 0 89.8119 215.108 4
-16 20 0 -178.944 265.656 4
4 16 0 115.851 168.021 6
-4 20 0 164.311 161.065 6
4 16 1 3892.09 427.023 6
-4 20 -1 4050.03 476.749 4
-4 20 1 3569.77 455.611 4
-16 20 -1 4037.06 503.951 4
-16 20 1 3518.47 453.967 4
4 16 -1 3532.35 401.529 6
-4 20 1 4518.14 430.137 6
-4 20 -2 -231.435 260.589 4
-4 20 2 -64.8333 233.915 4
-16 20 -2 52.0856 277.259 4
-16 20 2 179.137 279.953 4
4 16 -2 -18.7015 162.577 6
4 16 2 262.987 247.984 6
-4 20 2 75.9935 205.273 6
-4 20 -3 16009.1 861.802 4
-4 20 3 15398.6 837.986 4
-16 20 -3 15192.2 848.525 4
-16 20 3 14917.5 817.517 4
4 16 3 15941.5 818.646 6
-4 20 3 14144.2 760.084 6
-4 20 -4 914.258 273.59 4
-4 20 4 684.831 281.841 4
-16 20 -4 725.299 282.613 4
-16 20 4 752.093 299.452 4
4 16 4 464.263 235.037 6
-4 20 4 530.624 207.872 6
-4 20 -5 9855.7 681.27 4
-4 20 5 9148.81 648.952 4
-16 20 -5 8723.06 640.223 4
-16 20 5 8179.48 620.959 4
4 16 5 8928.65 630.942 6
-4 20 5 7500.13 560.224 6
-4 20 -6 77.0558 206.56 4
-4 20 6 -147.129 208.267 4
-16 20 -6 199.882 254.092 4
-16 20 6 -31.4796 234.65 4
4 16 6 142.685 235.119 6
-4 20 6 -180.886 235.627 6
-4 20 -7 2010.93 324.251 4
-4 20 7 1799.84 330.379 4
-16 20 -7 1832.06 331.695 4
-16 20 7 1438.58 300.582 4
-16 -4 -7 2126.86 375.213 3
4 16 7 1971.6 347.73 6
-4 20 7 1413.78 304.366 6
-16 20 7 1473.11 383.538 6
-4 20 -8 636.81 225.606 4
-4 20 8 76.6915 201.894 4
-16 20 -8 439.344 231.941 4
-16 20 8 199.966 207.807 4
-16 -4 -8 343.819 274.428 3
4 16 8 100.211 216.909 6
-4 20 8 732.19 253.978 6
-16 20 8 1178.79 354.484 6
-16 20 -8 734.5 228.387 5
-16 20 -9 645.971 210.472 4
-16 20 9 996.253 260.128 4
-16 -4 -9 874.563 295.959 3
-20 16 -9 616.547 233.318 4
-20 16 9 1148.28 256.756 4
4 16 9 1305.64 301.552 6
-4 20 9 1177.25 309.092 6
-16 20 9 990.815 369.689 6
-16 20 -9 1169.06 285.51 5
-16 -4 -10 274.938 262.715 3
-4 -16 -10 262.977 200.852 3
4 16 10 92.5259 211.731 6
-4 20 10 149.124 218.356 6
-16 20 10 362.993 306.36 6
-16 20 -10 290.194 231.066 5
-20 4 -11 4217.4 412.288 3
-16 -4 -11 4936.97 504.912 3
-4 -16 -11 3982.74 397.275 3
4 16 11 4700.63 439.951 6
-4 20 11 4565.4 452.385 6
-16 20 11 4529.44 499.106 6
-16 20 -11 3716.16 399.372 5
-20 4 -12 285.512 186.829 3
-16 -4 -12 176.308 244.593 3
-4 -16 -12 -218.911 175.425 3
4 16 12 136.984 209.444 6
-4 20 12 13.3716 209.081 6
-16 20 12 240.196 242.924 6
-16 20 -12 137.154 199.261 5
-20 4 -13 1975.45 289.651 3
-16 -4 -13 2723.49 376.899 3
-4 -16 -13 1304.08 284.316 3
4 16 13 2683.36 332.292 6
-4 20 13 2323.97 314.009 6
-16 20 13 2519.08 371.715 6
-16 20 -13 1710.35 338.371 5
-20 4 -14 -22.8461 153.677 3
-16 -4 -14 222.906 209.216 3
4 16 14 144.136 150.805 6
-4 20 14 514.37 204.671 6
-16 20 14 397.064 219.062 6
-16 20 -14 111.03 204.473 5
-16 -4 -15 239.11 216.583 3
4 16 15 46.7973 145.465 6
-4 20 15 -71.1939 155.611 6
-16 20 15 -39.1812 187.1 6
-20 16 15 -36.7382 206.017 6
-16 20 -15 -15.7135 198.171 5
-20 4 -15 211.748 171.958 3
-20 16 -16 96.463 193.675 5
-16 -4 -16 258.273 187.696 3
4 16 16 132.97 133.823 6
-4 20 16 186.535 144.006 6
-16 20 16 -71.1534 170.357 6
-20 16 16 -93.8894 166.427 6
-20 4 -16 200.633 149.912 3
-16 20 -16 158.31 192.455 5
-3 20 0 1165.67 283.381 4
-17 20 0 632.782 325.502 4
3 17 0 1070.44 231.71 6
-3 20 0 1115.99 236.535 6
-3 20 -1 3285.98 435.707 4
-3 20 1 3341.49 440.246 4
-17 20 -1 3569.48 459.689 4
-17 20 1 3539.72 469.447 4
3 17 1 3670.08 400.528 6
-3 20 1 3608.94 386.346 6
3 17 -1 3319.62 366.03 6
-3 20 -2 1769.77 363.703 4
-3 20 2 2202.79 393.565 4
-17 20 -2 2490.66 429.04 4
-17 20 2 1590.18 344.377 4
3 17 2 1671.96 308.925 6
-3 20 2 2219.59 316.721 6
-3 20 -3 997.992 285.471 4
-3 20 3 1338.36 309.922 4
-17 20 -3 999.838 331.746 4
-17 20 3 745.287 332.442 4
3 17 3 1448.25 289.082 6
-3 20 3 840.157 251.026 6
-3 20 -4 2565.08 382.016 4
-3 20 4 2324.32 364.217 4
-17 20 -4 1902.36 363.814 4
-17 20 4 2574.5 438.061 4
3 17 4 2400.26 358.271 6
-3 20 4 2469.05 352.644 6
-3 20 -5 1648.25 340.354 4
-3 20 5 1432.44 313.559 4
-17 20 -5 2023.7 366.233 4
-17 20 5 1382.26 337.124 4
3 17 5 1560.9 332.502 6
-3 20 5 1827.3 337.769 6
-3 20 -6 1575.19 308.321 4
-3 20 6 1511.13 322.432 4
-17 20 -6 1617.11 348.301 4
-17 20 6 1650.85 346.296 4
-17 -3 -6 1323.27 305.151 3
3 17 6 1124.24 244.732 6
-3 20 6 1689.98 341.328 6
-3 20 -7 3243.72 409.428 4
-3 20 7 3084.49 384.861 4
-17 20 -7 3720.72 442.873 4
-17 20 7 3417.29 425.415 4
-20 17 -7 3452.08 425.251 4
-20 17 7 3266.24 413.128 4
-17 -3 -7 2692.87 371.083 3
3 17 7 3079.55 395.372 6
-3 20 7 3170.3 394.975 6
-17 20 -8 578.851 254.087 4
-17 20 8 -195.965 249.894 4
-17 -3 -8 134.848 257.407 3
-20 17 -8 388.949 228.245 4
-20 17 8 397.323 237.191 4
3 17 8 55.5888 209.457 6
-3 20 8 194.001 201.664 6
-17 20 -8 37.1397 182.578 5
-17 20 -9 2071.76 342.997 4
-17 20 9 1952.38 315.078 4
-17 -3 -9 2349.23 375.123 3
-20 17 -9 2518.18 357.092 4
-20 17 9 1647.34 283.601 4
-3 -17 -9 1710 272.297 3
3 17 9 2335.95 360.656 6
-3 20 9 2779.21 381.968 6
-17 20 9 1938.67 425.336 6
-17 20 -9 1850.44 295.457 5
-20 3 -10 1065.85 251.598 3
-17 -3 -10 1175.57 307.839 3
-3 -17 -10 818.807 220.769 3
3 17 10 1215.84 296.085 6
-3 20 10 813.347 261.41 6
-17 20 10 489.347 327.834 6
-17 20 -10 891.466 252.865 5
-20 3 -11 317.82 197.939 3
-17 -3 -11 277.309 245.389 3
3 17 11 723.113 257.376 6
-3 20 11 603.07 255.665 6
-17 20 11 1043.41 340.604 6
-17 20 -11 339.84 229.716 5
-20 3 -12 886.099 241.647 3
-17 -3 -12 1255.59 320.671 3
3 17 12 877.807 242.76 6
-3 20 12 795.078 256.562 6
-17 20 12 1101.39 300.386 6
-17 20 -12 757.252 276.69 5
-20 3 -13 623.554 212.996 3
-17 -3 -13 1092.55 285.929 3
3 17 13 1058.89 253.456 6
-3 20 13 340.432 214.528 6
-17 20 13 631.032 271.438 6
-17 20 -13 165.419 218.147 5
-20 3 -14 506.976 214.104 3
-20 17 -14 255.504 218.778 5
-17 -3 -14 598.5 261.752 3
3 17 14 -117.123 151.701 6
-3 20 14 376.247 187.026 6
-17 20 14 577.963 234.636 6
-20 17 14 142.067 233.017 6
-17 20 -14 173.1 220.268 5
-20 17 -15 260.542 222.827 5
-17 -3 -15 796.449 248.474 3
3 17 15 396.824 160.649 6
-3 20 15 1019.72 207.347 6
-17 20 15 742.677 224.719 6
-20 17 15 860.338 246.676 6
-17 20 -15 266.774 226.234 5
-20 3 -15 473.557 180.784 3
-20 17 -16 75.3416 179.27 5
-17 -3 -16 643.319 219.423 3
3 17 16 391.204 133.333 6
-3 20 16 299.845 154.605 6
-17 20 16 438.165 173.076 6
-20 17 16 159.912 150.981 6
-20 3 -16 126.183 135.825 3
-17 20 -16 190.018 179.078 5
-2 20 0 6561.53 583.295 4
-18 20 0 6861.35 596.421 4
2 18 0 7117.28 531.417 6
-2 20 0 6742.13 502.576 6
-2 20 -1 14622.8 828.707 4
-2 20 1 14785.7 829.947 4
-18 20 -1 14628 813.514 4
-18 20 1 14719.4 801.855 4
2 18 -1 14395.6 722.192 6
2 18 1 14836.7 749.019 6
-2 20 1 14477.9 737.287 6
-2 20 -2 2443.89 369.138 4
-2 20 2 2115.08 342.402 4
-18 20 -2 2361.02 410.899 4
-18 20 2 2382.65 388.519 4
2 18 2 2277.58 325.145 6
-2 20 2 2312.27 341.313 6
-2 20 -3 792.669 318.113 4
-2 20 3 56.9795 258.68 4
-18 20 -3 313.092 304.536 4
-18 20 3 381.868 271.107 4
2 18 3 319.687 210.824 6
-2 20 3 249.113 212.479 6
-2 20 -4 1390.09 337.054 4
-2 20 4 466.674 247.134 4
-18 20 -4 1086.03 343.673 4
-18 20 4 775.781 289.632 4
2 18 4 645.348 220.856 6
-2 20 4 920.234 282.531 6
-2 20 -5 5514.19 513.579 4
-2 20 5 4943.34 498.1 4
-18 20 -5 5038.12 509.308 4
-18 20 5 5223.62 521.537 4
-20 18 -5 5035.97 501.683 4
-20 18 5 5259.76 506.737 4
-18 -2 -5 4912.73 470.561 3
2 18 5 5149.25 489.511 6
-2 20 5 5107.36 474.859 6
-18 20 -6 2303.24 398.645 4
-18 20 6 1810.04 358.233 4
-20 18 -6 1394.91 318.613 4
-20 18 6 2208.85 362.625 4
-18 -2 -6 1751.2 345.347 3
2 18 6 1808.72 326.827 6
-2 20 6 2061.65 335.755 6
-18 -2 -7 11879.3 694.139 3
-18 20 -7 11852.7 714.524 4
-18 20 7 11029.5 672.563 4
-20 18 -7 11757.7 700.581 4
-20 18 7 11632.1 693.264 4
2 18 7 12753.5 735.651 6
-2 20 7 11467.2 693.211 6
-18 20 -8 2843.76 367.935 4
-18 20 8 3285.1 402.099 4
-18 -2 -8 3608.66 448.786 3
-20 18 -8 2795.01 380.17 4
-20 18 8 3131.36 396.975 4
2 18 8 3056.89 387.948 6
-2 20 8 2816.68 368.799 6
-18 20 -9 7681.59 528.451 4
-18 20 9 7437.01 531.896 4
-20 18 -9 7292.33 524.241 4
-20 18 9 7541.53 525.502 4
-20 2 -9 7463.25 540.49 3
-18 -2 -9 8144.63 608.204 3
2 18 9 9903.17 626.349 6
-2 20 9 9508.13 624.329 6
-18 20 9 8878.59 648.612 6
-18 20 -9 7358.89 521.57 5
-20 2 -10 1399.24 279.457 3
-18 -2 -10 1082.93 314.94 3
2 18 10 1245.22 294.958 6
-2 20 10 1231.44 287.488 6
-18 20 10 1016.06 346.797 6
-18 20 -10 856.807 247.749 5
-20 2 -11 697.668 241.868 3
-18 -2 -11 574.824 274.829 3
2 18 11 671.015 244.291 6
-2 20 11 840.606 263.719 6
-18 20 11 831.252 315.516 6
-18 20 -11 243.275 202.488 5
-20 2 -12 92.3135 182.355 3
-18 -2 -12 433.553 256.456 3
2 18 12 696.193 252.027 6
-2 20 12 956.419 263.75 6
-18 20 12 464.174 267.792 6
-20 18 -12 1034.86 536.446 5
-18 20 -12 49.7758 210.561 5
-20 18 -13 1168.2 316.272 5
-20 2 -13 2049.11 298.482 3
-18 -2 -13 1256.17 282.787 3
2 18 13 1765.3 269.212 6
-2 20 13 2204.32 314.128 6
-18 20 13 2829.22 494.489 6
-20 18 13 1671.18 360.598 6
-18 20 -13 663.501 278.552 5
-20 18 -14 344.673 244.461 5
-20 2 -14 702.559 189.776 3
-18 -2 -14 648.434 241.726 3
2 18 14 442.528 166.208 6
-2 20 14 804.114 208.78 6
-18 20 14 889.974 250.118 6
-20 18 14 545.998 251.471 6
-18 20 -14 385.07 220.574 5
-20 18 -15 1915.45 331.451 5
-20 2 -15 3347.79 307.511 3
-18 -2 -15 3622.25 349.432 3
2 18 15 2891.35 276.174 6
-2 20 15 3345.43 313.433 6
-18 20 15 3849.33 357.98 6
-20 18 15 2988.64 325.731 6
-18 20 -15 1807.77 313.542 5
-19 20 0 55811.7 1530.35 4
-20 19 0 55995.2 1525.12 4
1 19 0 56395.6 1411.92 6
-1 20 0 57238.4 1404.33 6
-19 20 -1 -22.3369 297.151 4
-19 20 1 187.773 258.216 4
-20 19 -1 -13.7066 273.446 4
-20 19 1 276.813 289.078 4
1 19 -1 7.01957 170.406 6
1 19 1 193.217 206.833 6
-1 20 1 82.5097 175.476 6
-19 20 -2 22855.7 995.29 4
-19 20 2 23010.7 993.251 4
-20 19 -2 24080.6 1027.79 4
-20 19 2 22198.1 977.592 4
1 19 2 21929.3 907.547 6
-1 20 2 22346.8 902.13 6
-19 -1 -3 65.1585 176.875 3
-19 20 -3 336.883 297.513 4
-19 20 3 -145.594 261.531 4
-20 19 -3 -323.419 261.231 4
-20 19 3 -182.184 294.309 4
1 19 3 -151.824 210.123 6
-1 20 3 229.954 186.836 6
-19 20 -4 305.822 289.133 4
-19 20 4 625.086 291.909 4
-20 19 -4 -119.099 269.327 4
-20 19 4 456.074 271.31 4
-19 -1 -4 -229.558 238.104 3
1 19 4 523.98 224.765 6
-1 20 4 330.263 231.717 6
-19 20 5 468.815 263.034 4
-19 20 -5 114.464 249.012 4
-20 19 -5 540.641 286.53 4
-20 19 5 168.408 261.381 4
-19 -1 -5 151.254 203.673 3
1 19 5 16.5599 197.667 6
-1 20 5 72.9897 192.381 6
-19 20 -6 12845.9 747.324 4
-19 20 6 13659 744.739 4
-20 19 -6 14594.9 780.008 4
-20 19 6 14774.6 776.555 4
-19 -1 -6 13468.6 718.831 3
1 19 6 13947.9 740.16 6
-1 20 6 13059.7 724.534 6
-20 1 -7 261.827 219.77 3
-19 -1 -7 17.8752 213.655 3
-19 20 -7 184.724 250.894 4
-19 20 7 -444.104 264.941 4
-20 19 -7 270.53 234.311 4
-20 19 7 225.559 245.861 4
1 19 7 88.1372 202.555 6
-1 20 7 146.37 207.419 6
-19 20 -8 18840.1 821.1 4
-19 20 8 21106.8 882.981 4
-20 19 -8 19864.6 839.026 4
-20 19 8 20167.3 843.937 4
-20 1 -8 18750.2 817.799 3
-19 -1 -8 20528 922.305 3
1 19 8 20666.9 884.87 6
-1 20 8 21760.8 903.312 6
-20 19 -9 -29.932 185.711 5
-20 1 -9 285.736 223.28 3
-19 -1 -9 273.074 246.193 3
-19 20 -9 -97.5183 181.338 4
-19 20 9 103.635 203.558 4
-20 19 -9 564.422 236.935 4
-20 19 9 -98.0197 202.668 4
1 19 9 270.658 222.639 6
-1 20 9 765.602 251.421 6
-19 20 -9 227.432 170.313 5
-20 1 -10 6389.81 485.253 3
-19 -1 -10 5658.75 517.488 3
1 19 10 6886.95 516.455 6
-1 20 10 6878.95 522.169 6
-19 20 10 5867.77 554.412 6
-19 20 -10 5863.27 462.158 5
-20 19 -10 6203.18 473.18 5
-20 19 -11 186.562 202.372 5
-20 1 -11 -81.9823 189.532 3
1 19 11 31.8683 180.004 6
-1 20 11 -173.044 214.31 6
-19 20 11 110.379 260.776 6
-19 20 -11 -114.932 175.695 5
-20 19 -12 430.383 244.179 5
-20 1 -12 451.395 214.405 3
-19 -1 -12 472.768 224.63 3
1 19 12 630.771 211.847 6
-1 20 12 361.689 197.753 6
-19 20 12 788.088 272.131 6
-20 19 12 586.426 293.937 6
-19 20 -12 201.028 201.161 5
-20 19 -13 -132.484 199.812 5
-20 1 -13 -61.0262 157.599 3
-19 -1 -13 344.132 187.196 3
1 19 13 146.564 176.155 6
-1 20 13 398.546 207.671 6
-19 20 13 151.165 205.478 6
-20 19 13 144.501 214.415 6
-19 20 -13 99.4793 195.65 5
-20 1 -14 6004.63 414.001 3
-19 -1 -14 5732.78 425.864 3
1 19 14 5545.99 395.125 6
-1 20 14 6117.06 409.941 6
-19 20 14 6883.64 471.331 6
-20 19 14 7483.36 484.181 6
-19 20 -14 5084.06 440.966 5
-20 19 -14 4444.87 436.458 5
-19 -1 -15 -172.367 155.863 3
1 19 15 230.177 136.222 6
-1 20 15 -4.12915 119.502 6
-19 20 15 9.16201 162.764 6
-20 19 15 99.133 162.541 6
-19 20 -15 -188.133 182.216 5
-20 19 -15 -111.906 162.523 5
-20 1 -15 69.3452 129.319 3
-20 20 0 19326.6 935.394 4
0 20 0 20689.8 837.662 6
0 20 1 40178.9 1178.93 6
-20 20 -1 41208.9 1306.47 4
-20 20 1 41496 1306.6 4
-20 20 -2 8207.38 634.711 4
-20 20 2 8590.35 636.55 4
0 20 2 8080 560.182 6
-20 20 3 5651.72 539.83 4
-20 20 -3 5213.99 517.191 4
0 20 3 5104.76 460.77 6
-20 20 -4 350.701 259.546 4
-20 20 4 355.949 278.192 4
0 20 4 607.545 236.111 6
-20 20 -5 5506.24 504.548 4
-20 20 5 5138.13 495.247 4
0 20 5 4854.21 454.181 6
0 20 6 3886.26 419.873 6
-20 0 -6 3605.01 382.802 3
-20 20 -6 4006.27 455.93 4
-20 20 6 3973.39 449.877 4
-20 20 -7 20164.1 855.119 4
-20 20 7 19336.9 840.579 4
-20 0 -7 19068.5 804.508 3
0 20 7 20184.5 860.647 6
-20 20 -8 7114.63 520.174 4
-20 20 8 7640.22 540.373 4
-20 0 -8 7308.26 523.703 3
0 20 8 7431.08 535.752 6
-20 20 -9 11370.6 597.126 4
-20 20 9 11866.2 627.615 4
-20 0 -9 12466.7 659.535 3
0 20 9 12898.1 680.865 6
-20 0 -10 1182.16 248.543 3
0 20 10 1640.55 291.241 6
-20 20 10 1023.81 325.465 6
-20 20 -10 1053.31 214.298 5
-20 0 -11 1306.21 290.047 3
0 20 11 1357.41 265.45 6
-20 20 11 1874.58 343.301 6
-20 20 -11 729.486 267.64 5
-20 0 -12 1188.63 251.153 3
0 20 12 794.536 232.875 6
-20 20 12 778.984 277.577 6
-20 20 -12 144.543 190.952 5
-20 0 -13 4054.41 347.502 3
0 20 13 3446.84 334.74 6
-20 20 13 4782.4 403.242 6
-20 20 -13 2798.13 336.125 5
-20 0 -14 2025.6 247.862 3
0 20 14 1985.74 243.042 6
-20 20 14 2649.87 304.097 6
-20 20 -14 2037.63 271.314 5
-10 21 0 661.027 314.06 4
-11 21 0 376.095 300.132 4
-11 21 0 376.138 204.747 6
-10 21 -1 1196.06 307.632 4
-10 21 1 2011.91 355.569 4
-11 21 -1 1770.51 364.439 4
-11 21 1 1807.7 338.308 4
-10 21 1 2111.58 313.475 6
-11 21 1 2349.17 330.897 6
-10 21 -2 1365.25 338.991 4
-10 21 2 985.23 289.706 4
-11 21 -2 1191.08 299.949 4
-11 21 2 1516.04 322.833 4
-10 21 2 1458.91 304.239 6
-11 21 2 1031.94 273.903 6
-10 21 -3 214.712 235.715 4
-10 21 3 329 266.029 4
-11 21 -3 740.77 295.847 4
-11 21 3 269.909 226.454 4
10 11 3 319.286 199.896 6
-10 21 3 292.947 206.058 6
-11 21 3 456.997 199.95 6
-10 21 -4 1186.53 346.007 4
-10 21 4 1066.3 311.88 4
-11 21 -4 651.997 270.261 4
-11 21 4 738.85 280.135 4
10 11 4 546.516 228.809 6
-10 21 4 1119.12 284.018 6
-11 21 4 595.277 235.556 6
-10 21 -5 1390.27 320.022 4
-10 21 5 1001.57 251.478 4
-11 21 -5 1507.37 320.55 4
-11 21 5 1432.04 322.149 4
10 11 5 1416.43 318.608 6
-10 21 5 1010.27 265.689 6
-11 21 5 1304.59 294.472 6
-10 21 -6 1263.96 309.2 4
-10 21 6 1413.44 285.374 4
-11 21 -6 1561.83 331.066 4
-11 21 6 1457.53 334.857 4
10 11 6 1271.61 284.652 6
-10 21 6 1186.21 281.928 6
-11 21 6 1361.44 301.091 6
-11 21 -6 1659.49 284.783 5
-10 21 -7 4598.38 480.429 4
-10 21 7 4307.15 460.907 4
-11 21 -7 3702.29 428.38 4
-11 21 7 4007.74 434.604 4
10 11 7 4024.96 438.581 6
-10 21 7 4442.07 459.625 6
-11 21 7 4292.35 462.689 6
-10 21 -7 4607.96 443.464 5
-11 21 -7 4193.99 428.353 5
-10 21 -8 1258.69 291.834 4
-10 21 8 709.321 253.311 4
-11 21 -8 912.832 262.571 4
-11 21 8 907.333 259.224 4
10 11 8 836.943 247.411 6
-10 21 8 1094.42 317.148 6
-11 21 8 1089.28 309.364 6
-10 21 -8 1028.9 270.938 5
-11 21 -8 590.361 249.056 5
-10 21 -9 884.12 238.344 4
-10 21 9 929.371 250.251 4
-11 21 -9 1073.32 240.56 4
-11 21 9 756.036 231.619 4
10 11 9 1189.44 291.753 6
-10 21 9 1380.23 307.552 6
-11 21 9 955.863 295.624 6
-10 21 -9 1081.05 270.04 5
-11 21 -9 900.131 272.394 5
10 11 10 408.123 237.299 6
-11 -10 -10 612.352 292.639 3
-10 -11 -10 1093.66 305.991 3
-10 21 10 963.702 277.935 6
-11 21 10 608.334 247.264 6
-10 21 -10 973.36 282.623 5
-11 21 -10 891.938 283.316 5
-11 -10 -11 525.412 295.119 3
-10 -11 -11 344.177 268.677 3
-10 21 11 -106.423 238.438 6
-11 21 11 0.41397 224.814 6
-10 21 -11 10.2345 230.565 5
-11 21 -11 511.563 235.532 5
-11 -10 -12 482.369 275.175 3
-10 -11 -12 197.507 255.007 3
-10 21 12 271.757 229.975 6
-11 21 12 392.052 254.346 6
-10 21 -12 180.54 209.249 5
-11 21 -12 361.539 249.468 5
-11 -10 -13 154.457 219.093 3
-10 -11 -13 589.084 264.417 3
-10 21 13 461.109 233.421 6
-11 21 13 -52.5549 203.849 6
-10 21 -13 86.9637 201.683 5
-11 21 -13 214.704 202.984 5
-11 -10 -14 -83.5058 202.694 3
-10 -11 -14 -75.4344 210.388 3
-10 21 14 205.253 177.095 6
-11 21 14 66.765 190.004 6
-10 21 -14 256.693 214.983 5
-11 21 -14 -56.291 201.285 5
-11 -10 -15 264.337 203.237 3
-10 -11 -15 813.396 241.022 3
-10 21 15 526.532 190.174 6
-11 21 15 888.925 238.325 6
-11 21 -15 548.177 211.948 5
-10 -11 -16 -10.7687 156.496 3
-11 -10 -16 113.565 165.247 3
-10 21 16 356.871 160.857 6
-11 21 16 129.592 146.79 6
-9 21 0 4908.17 502.792 4
-12 21 0 5633.55 529.045 4
-12 21 0 5320.46 448.44 6
-9 21 -1 1256.54 340.168 4
-9 21 1 1199.86 315.996 4
-12 21 -1 1198.76 298.285 4
-12 21 1 1041.88 304.862 4
9 12 1 861.945 236.972 6
-9 21 1 1215.01 285.037 6
-12 21 1 1475.4 284.184 6
-9 21 -2 3082.22 404.323 4
-9 21 2 2609.68 392.747 4
-12 21 -2 2515.75 382.494 4
-12 21 2 2373.61 394.768 4
9 12 2 2807.57 374.626 6
-9 21 2 2501.04 350.735 6
-12 21 2 2211.65 337.462 6
-9 21 -3 12815.5 770.669 4
-9 21 3 13051.7 765.29 4
-12 21 -3 13112.1 790.985 4
-12 21 3 12071.7 750.291 4
9 12 3 13387.5 755.514 6
-9 21 3 12715.8 720.3 6
-12 21 3 12267.9 708.588 6
-9 21 -4 163.94 237.998 4
-9 21 4 195.405 262.865 4
-12 21 -4 234.84 279.127 4
-12 21 4 -153.55 236.216 4
9 12 4 111.58 211.27 6
-9 21 4 -162.367 214.906 6
-12 21 4 277.298 227.113 6
-9 21 -5 8580 637.039 4
-9 21 5 7256.2 577.097 4
-12 21 -5 8021 613.641 4
-12 21 5 7351.1 582.887 4
9 12 5 8767.15 630.733 6
-9 21 5 8082 601.131 6
-12 21 5 7996.94 591.431 6
-12 21 -6 4187.19 478.675 4
-9 21 -6 3815.65 456.026 4
-9 21 6 3766.07 425.966 4
-12 21 6 3880.3 437.352 4
9 12 6 4215.65 449.389 6
-12 21 6 4765.54 476.693 6
-9 21 6 4123.06 447.376 6
-9 21 -7 941.578 274.053 4
-9 21 7 868.931 254.721 4
-12 21 -7 629.286 253.688 4
-12 21 7 1117.51 277.677 4
9 12 7 1325.12 346.712 6
-9 21 7 838.111 249.085 6
-12 21 7 1221.73 299.26 6
-12 21 -7 1204.5 267.74 5
-9 21 -8 3519.96 410.884 4
-9 21 8 3071.3 358.235 4
-12 21 -8 3084.14 375.783 4
-12 21 8 3078.27 380.301 4
9 12 8 3574.16 421.162 6
-9 21 8 3438.08 425.008 6
-12 21 8 3892.03 449.233 6
-12 21 -8 3180 395.892 5
-9 21 -9 3219.84 373.443 4
-9 21 9 2626.91 338.311 4
-12 21 -9 3314.5 388.431 4
-12 21 9 3194.24 372.641 4
-12 -9 -9 3930.17 472.961 3
9 12 9 3135.4 423.497 6
-9 21 9 3832.48 442.303 6
-12 21 9 3807.73 446.135 6
-12 21 -9 2694.51 371.927 5
9 12 10 995.156 267.574 6
-12 -9 -10 1547.8 354.075 3
-9 -12 -10 1029.26 306.666 3
-9 21 10 1514.5 310.744 6
-12 21 10 1914.57 350.209 6
-9 21 -10 1898.3 374.504 5
-12 21 -10 1437.93 313.764 5
-9 -12 -11 5826.75 518.405 3
9 12 11 5384.41 474.111 6
-12 -9 -11 5556.24 536.071 3
-9 21 11 5367.44 487.381 6
-12 21 11 7169.58 566.462 6
-9 21 -11 5127.55 488.694 5
-12 21 -11 5261.86 490.809 5
-12 -9 -12 -137.988 266.762 3
-9 -12 -12 143.435 240.751 3
9 12 12 89.5447 196.896 6
-9 21 12 -155.451 227.624 6
-12 21 12 -222.691 267.968 6
-12 21 -12 -108.863 226.12 5
-12 -9 -13 3285.92 418.336 3
-9 -12 -13 3222.9 389.257 3
-9 21 13 3074.83 368.913 6
-12 21 13 3143.8 388.16 6
-12 21 -13 2507.59 402.735 5
-12 -9 -14 651.493 260.016 3
-9 -12 -14 585.416 217.762 3
-9 21 14 598.697 220.438 6
-12 21 14 894.22 237.712 6
-12 21 -14 558.3 234.303 5
-12 -9 -15 1.00613 196.599 3
-9 -12 -15 -4.05884 179.344 3
-9 21 15 -29.9789 165.558 6
-12 21 15 298.693 186.23 6
-12 21 -15 132.926 183.913 5
-9 -12 -16 675.242 207.247 3
-12 -9 -16 847.152 226.58 3
-9 21 16 882.847 201.988 6
-12 21 16 254.941 163.527 6
-12 21 -16 690.224 234.833 5
-13 21 0 4023.23 485.507 4
8 13 0 5074.65 453.627 6
-13 21 0 4470.66 414.604 6
-8 21 -1 6138.92 563.896 4
-8 21 1 5318.09 522.515 4
-13 21 -1 5421.6 522.49 4
-13 21 1 5919.29 562.827 4
8 13 1 6344.94 512.647 6
-8 21 1 5959.18 485.77 6
-13 21 1 6697.78 518.322 6
-8 21 -2 7884.01 623.465 4
-8 21 2 8084.34 625.628 4
-13 21 -2 9180.72 674.004 4
-13 21 2 8095.05 637.439 4
8 13 2 8752.4 608.005 6
-8 21 2 8680.69 592.967 6
-13 21 2 8671.41 589.5 6
-8 21 -3 7785.83 620.501 4
-8 21 3 7553.88 595.948 4
-13 21 -3 7717.34 624.948 4
-13 21 3 7986.15 624.554 4
8 13 3 8609.88 603.911 6
-8 21 3 8129.62 591.196 6
-13 21 3 7584.63 562.76 6
-8 21 -4 19990.8 948.441 4
-8 21 4 18989 904.799 4
-13 21 -4 19579.8 942.52 4
-13 21 4 18185.1 890.505 4
8 13 4 18917.6 895.565 6
-8 21 4 18209.2 858.03 6
-13 21 4 17756.9 853.059 6
-8 21 -5 3993.39 465.286 4
-8 21 5 3315.77 409.699 4
-13 21 -5 3734.63 474.09 4
-13 21 5 3732.63 446.758 4
8 13 5 3926.14 445.671 6
-8 21 5 3192.91 402.589 6
-13 21 5 3621.2 442.162 6
-8 21 -6 7914.65 610.394 4
-8 21 6 7993.42 606.837 4
-13 21 -6 7918.39 606.138 4
-13 21 6 7447.93 578.83 4
8 13 6 7453.71 591.23 6
-8 21 6 7337.05 556.839 6
-13 21 6 7814.46 602.826 6
-8 21 -7 3527.01 413.162 4
-8 21 7 3314.37 403.871 4
-13 21 -7 3324.52 412.289 4
-13 21 7 3432.79 415.271 4
8 13 7 3009.89 404.278 6
-8 21 7 4019.12 458.685 6
-13 21 7 3522.04 426.543 6
-13 21 -7 3627.27 396.552 5
-8 21 -8 3607.02 407.033 4
-8 21 8 3355.07 386.805 4
-13 21 -8 3045.96 389.672 4
-13 21 8 3031.33 391.801 4
8 13 8 3014.5 402.263 6
-8 21 8 3619.73 437.527 6
-13 21 8 3944.19 454.062 6
-13 21 -8 3346.65 391.651 5
-8 21 -9 2824.62 343.325 4
-8 21 9 3408.83 387.376 4
-13 21 -9 3589.48 391.305 4
-13 21 9 3679.67 401.47 4
-13 -8 -9 3954.1 472.425 3
8 13 9 3843.99 443.339 6
-8 21 9 4074.88 433.8 6
-13 21 9 4276.62 485.371 6
-13 21 -9 3521.72 385.676 5
-13 -8 -10 7323.19 584.246 3
8 13 10 6570.48 536.196 6
-8 -13 -10 6440.81 557.332 3
-8 21 10 7059.51 548.919 6
-13 21 10 7292.57 587.115 6
-13 21 -10 6829.56 528.603 5
-13 -8 -11 4168.72 480.86 3
-8 -13 -11 4314.89 445.569 3
8 13 11 3784.44 409.456 6
-8 21 11 4283.15 444.01 6
-13 21 11 3850.07 464.681 6
-13 21 -11 4061.71 428.873 5
-13 -8 -12 6661.13 562.993 3
-8 -13 -12 6169.67 514.592 3
8 13 12 6506.11 487.427 6
-8 21 12 7157.11 532.423 6
-13 21 12 6675.95 532.716 6
-13 -8 -13 2329.44 366.578 3
-8 -13 -13 2092.52 347.899 3
8 13 13 2244.27 301.03 6
-8 21 13 2412.55 348.488 6
-13 21 13 2395.29 356.407 6
-13 21 -13 1267.17 343.659 5
-13 -8 -14 1977.57 328.323 3
-8 -13 -14 2027.12 296.547 3
-8 21 14 1945.94 301.989 6
-13 21 14 2101.89 306.772 6
-13 21 -14 1620.93 349.934 5
-13 -8 -15 1308.62 287.24 3
-8 -13 -15 859.515 248.657 3
-8 21 15 1399.46 259.197 6
-13 21 15 1093.45 240.455 6
-13 21 -15 617.321 274.523 5
-8 -13 -16 175.714 152.173 3
-13 -8 -16 381.073 204.872 3
-8 21 16 236.733 148.802 6
-13 21 16 515.101 183.931 6
-13 21 -16 502.572 224.448 5
-7 21 0 1036.22 324.007 4
-14 21 0 867.932 286.694 4
7 14 0 860.979 253.407 6
-7 21 0 680.126 189.375 6
-14 21 0 882.953 230.172 6
-7 21 -1 13313.1 772.577 4
-7 21 1 13822.2 790.93 4
-14 21 -1 13033.1 781.17 4
-14 21 1 12174.9 753.166 4
7 14 -1 12963.6 702.039 6
7 14 1 14445.2 758.754 6
-7 21 1 13592.9 716.025 6
-14 21 1 14234.4 734.403 6
-7 21 -2 13791.3 806.929 4
-7 21 2 12646.2 761.113 4
-14 21 -2 12823.6 781.171 4
-14 21 2 13666 795.519 4
7 14 2 12782.3 727.126 6
-7 21 2 12767.7 704.078 6
-14 21 2 13380.6 728.984 6
-7 21 -3 5017.58 523.729 4
-7 21 3 4977.55 517.008 4
-14 21 -3 4683.03 499.458 4
-14 21 3 4617 495.737 4
7 14 3 5216.45 493.533 6
-7 21 3 4769.49 463.827 6
-14 21 3 4341.51 479.48 6
-7 21 -4 24573.3 1044.79 4
-7 21 4 23198.3 1001.97 4
-14 21 -4 24739.4 1039.34 4
-14 21 4 23155.1 1000.08 4
7 14 4 23919.8 1002.87 6
-7 21 4 21993.6 935.669 6
-14 21 4 20972 933.531 6
-7 21 -5 5505.41 507.305 4
-7 21 5 4340.98 461.856 4
-14 21 -5 5248.52 532.727 4
-14 21 5 4416.68 468.902 4
7 14 5 5447.71 510.182 6
-7 21 5 4418 448.356 6
-14 21 5 5845.45 526.312 6
-7 21 -6 7183.94 573.89 4
-7 21 6 7037.34 553.615 4
-14 21 -6 7589.12 606.84 4
-14 21 6 7961.81 594.589 4
7 14 6 7874.85 601.62 6
-7 21 6 6791.66 548.651 6
-14 21 6 7789.8 613.612 6
-7 21 -7 3264.15 401.462 4
-7 21 7 3293.99 403.041 4
-14 21 -7 3511.87 435.585 4
-14 21 7 3276.68 411.345 4
7 14 7 3787.15 431.029 6
-7 21 7 3723.16 435.66 6
-14 21 7 3958.86 469.516 6
-7 21 -8 627.845 221.91 4
-7 21 8 470.532 229.544 4
-14 21 -8 256.137 204.586 4
-14 21 8 286.039 201.678 4
7 14 8 793.916 286.05 6
-7 21 8 797.004 274.374 6
-14 21 8 461.964 257.166 6
-14 21 -8 478.979 223.311 5
-7 21 -9 4563.65 429.317 4
-7 21 9 4535.43 432.41 4
-14 21 -9 4461.25 417.44 4
-14 21 9 4589.11 439.305 4
7 14 9 4566.04 462.882 6
-14 -7 -9 5289.97 539.62 3
-7 21 9 5381.93 489.232 6
-14 21 9 5277.53 492.648 6
-14 21 -9 3968.19 417.517 5
-7 -14 -10 9335.9 618.227 3
-14 -7 -10 9771.57 654.523 3
7 14 10 10296.5 645.551 6
-7 21 10 9755.74 633.006 6
-14 21 10 10697.1 674.055 6
-14 21 -10 8901.62 588.491 5
-14 -7 -11 3119.18 423.09 3
-7 -14 -11 3127.63 393.97 3
7 14 11 2732.91 361.076 6
-7 21 11 3657.15 414.457 6
-14 21 11 3830.68 454.113 6
-14 21 -11 2628.62 384.848 5
-14 -7 -12 7658.73 582.837 3
-7 -14 -12 8586.75 569.712 3
7 14 12 7669.21 548.56 6
-7 21 12 8578.68 570.116 6
-14 21 12 9102.94 598.907 6
-14 -7 -13 1740.64 348.761 3
-7 -14 -13 1784.33 297.338 3
7 14 13 1891.98 284.15 6
-7 21 13 1990.94 317.574 6
-14 21 13 2058.14 334.191 6
-14 21 -13 788.69 287.206 5
-14 -7 -14 1545.2 303.394 3
-7 -14 -14 1811.69 274.04 3
7 14 14 1747.91 258.925 6
-7 21 14 1628.96 266.067 6
-14 21 14 1822.66 308.25 6
-14 21 -14 1049.97 295.946 5
-7 -14 -15 474.828 205.269 3
-14 -7 -15 1177.14 268.713 3
-7 21 15 1451.68 227.501 6
-14 21 15 1364.98 263.27 6
-14 21 -15 333.583 228.748 5
-7 -14 -16 205.928 148.861 3
-14 -7 -16 336.003 182.364 3
-7 21 16 389.606 164.289 6
-14 21 16 -1.35379 140.507 6
-14 21 -16 476.45 204.078 5
-6 21 0 6529.2 585.289 4
-15 21 0 6352.62 567.064 4
6 15 0 6370.09 514.285 6
-6 21 0 6146.46 480.643 6
-15 21 0 5975.39 485.78 6
-6 21 -1 4537.1 494.598 4
-6 21 1 4578.43 502.485 4
6 15 -1 4575.74 437.938 6
-15 21 1 4497.77 532.676 4
-15 21 -1 4383.59 492.263 4
6 15 1 5084.49 477.935 6
-6 21 1 5175.81 455.098 6
-15 21 1 5116.6 511.237 6
-6 21 -2 2496.31 385.051 4
-6 21 2 3106.69 425.996 4
-15 21 -2 2554.91 429.157 4
-15 21 2 2721.34 439.397 4
6 15 2 2446.74 369.312 6
-6 21 2 2318.17 314.179 6
-15 21 2 2308.4 352.674 6
-6 21 -3 16782.2 874.101 4
-6 21 3 16407.3 869.823 4
-15 21 -3 17824.4 898.088 4
-15 21 3 16180.8 848.956 4
6 15 3 17241.8 853.154 6
-6 21 3 15390.1 775.999 6
-15 21 3 14912.4 780.051 6
-6 21 -4 713.032 274.037 4
-6 21 4 1050.28 280.675 4
-15 21 -4 1382.93 376.167 4
-15 21 4 755.936 285.673 4
6 15 4 616.474 258.247 6
-6 21 4 504.144 224.823 6
-15 21 4 631.993 274.358 6
-6 21 -5 14231 794.414 4
-6 21 5 13587.2 766.927 4
-15 21 -5 15044.8 828.426 4
-15 21 5 14071.2 778.68 4
6 15 5 15223.5 807.823 6
-6 21 5 13393.5 749.404 6
-15 21 5 13566.6 759.972 6
-6 21 -6 2445.82 354.927 4
-6 21 6 2413.22 346.443 4
-15 21 -6 2343.29 376.32 4
-15 21 6 1944.17 351.211 4
6 15 6 2384.33 362.737 6
-6 21 6 2821.73 385.04 6
-15 21 6 2668.69 406.818 6
-6 21 -7 1771.45 326.479 4
-6 21 7 1944.26 334.166 4
-15 21 -7 1384.73 296.328 4
-15 21 7 1646.37 321.439 4
6 15 7 1445.47 298.04 6
-6 21 7 1731.56 311.463 6
-15 21 7 2033.67 377.62 6
-6 21 -8 4354.21 442.174 4
-6 21 8 4794.3 464.025 4
-15 21 -8 5024.33 469.585 4
-15 21 8 4777.97 458.314 4
6 15 8 6009.19 525.697 6
-6 21 8 5370.34 478.527 6
-15 21 8 6008.01 522.263 6
-15 -6 -8 5999.2 541.245 3
-15 21 -8 5354.64 462.478 5
-6 21 -9 2888.62 361.388 4
-6 21 9 3000.01 370.343 4
-15 21 -9 3497.26 395.855 4
-15 21 9 3498.75 397.793 4
-15 -6 -9 4085.94 481.139 3
6 15 9 3437.08 418.681 6
-6 21 9 3238.36 404.52 6
-15 21 9 3954.91 453.752 6
-15 21 -9 2933.55 385.675 5
-15 -6 -10 3570.91 447.895 3
-6 -15 -10 3129.12 373.29 3
6 15 10 3583.01 395.28 6
-6 21 10 3118.31 385.93 6
-15 21 10 4110.94 463.807 6
-15 21 -10 3009.55 373.453 5
-15 -6 -11 9540.68 645.466 3
-6 -15 -11 8625.56 568.443 3
6 15 11 9544.86 610.507 6
-6 21 11 9451.43 617.548 6
-15 21 11 9882.88 635.071 6
-15 -6 -12 -93.7142 262.401 3
-6 -15 -12 -177.981 194.259 3
6 15 12 -66.7858 191.117 6
-6 21 12 -245.464 189.857 6
-15 21 12 252.917 246.999 6
-15 21 -12 80.0206 200.307 5
-15 -6 -13 3585.97 420.682 3
-6 -15 -13 3035.86 334.01 3
6 15 13 3363.46 360.973 6
-6 21 13 3364.03 368.133 6
-15 21 13 3708.65 406.144 6
-15 -6 -14 1130.19 272.891 3
-6 -15 -14 800.063 224.496 3
6 15 14 753.843 179.037 6
-6 21 14 1303.99 254.524 6
-15 21 14 876.213 250.694 6
-15 21 -14 810.148 272.771 5
-6 -15 -15 -11.5108 121.596 3
-15 -6 -15 30.298 190.034 3
-6 21 15 173.9 216.01 6
-15 21 15 227.19 190.301 6
-21 15 15 -42.2922 203.04 6
-15 21 -15 72.0777 163.089 5
-15 -6 -16 727.669 221.33 3
-6 21 16 666.179 172.071 6
-15 21 16 272.625 143.214 6
-21 15 16 5.96809 136.385 6
-5 21 0 3374.63 439.519 4
-16 21 0 3815.45 487.121 4
-5 21 0 3885.45 374.878 6
5 16 0 3446.32 392.723 6
-16 21 0 3765.84 406.343 6
-5 21 -1 593.913 284.328 4
-5 21 1 821.763 287.992 4
-16 21 -1 342.651 262.834 4
-16 21 1 640.732 298.427 4
5 16 -1 820.415 236.005 6
5 16 1 541.313 240.969 6
-5 21 1 753.609 241.991 6
-16 21 1 969.542 291.722 6
-5 21 -2 9145.16 657.861 4
-5 21 2 7319.38 588.088 4
-16 21 -2 7450.53 613.56 4
-16 21 2 7177.27 594.488 4
5 16 -2 7261.38 518.262 6
5 16 2 7960.45 573.824 6
-5 21 2 8585.26 579.704 6
-16 21 2 6289.39 522.852 6
-5 21 -3 1896.93 366.884 4
-5 21 3 1799.83 334.463 4
-16 21 -3 1520.79 356.825 4
-16 21 3 1367.68 338.247 4
5 16 3 2300.54 344.877 6
-5 21 3 1516.64 303.583 6
-16 21 3 1451.61 326.168 6
-5 21 -4 7203.51 597.463 4
-5 21 4 7835.9 607.269 4
-16 21 -4 7673.57 612.743 4
-16 21 4 7445.83 596.194 4
5 16 4 7884.65 589.3 6
-5 21 4 7653.66 561.574 6
-16 21 4 6789.66 554.851 6
-5 21 -5 3128.25 403.303 4
-5 21 5 2730.8 383.194 4
-16 21 -5 3363.33 436.321 4
-16 21 5 3393.43 440.59 4
5 16 5 2717.26 378.175 6
-5 21 5 2807.61 365.233 6
-16 21 5 2808.4 424.109 6
-5 21 6 3774.26 442.46 4
-5 21 -6 3668 426.781 4
-16 21 -6 3604.21 426.923 4
-16 21 6 3633.63 413.504 4
5 16 6 3723.91 437.328 6
-5 21 6 3216.34 379.988 6
-16 21 6 4340.77 467.124 6
-5 21 -7 1184.07 300.156 4
-5 21 7 861.637 252.396 4
-16 21 -7 810.031 267.481 4
-16 21 7 859.908 266.048 4
-16 -5 -7 1046.6 305.862 3
5 16 7 622.548 249.728 6
-5 21 7 1065.57 262.115 6
-16 21 7 1202.97 335.108 6
-5 21 -8 971.528 277.022 4
-5 21 8 951.23 261.614 4
-16 21 -8 875.125 252.039 4
-16 21 8 880.527 289.97 4
-16 -5 -8 1551.82 357.494 3
5 16 8 1034.9 318.274 6
-5 21 8 1103.58 287.814 6
-16 21 8 1158.74 325.496 6
-16 21 -8 756.391 247.466 5
-16 21 -9 1022.49 241.81 4
-16 21 9 1216.52 271.62 4
-16 -5 -9 1510.29 334.446 3
-21 16 -9 1012.52 258.419 4
-21 16 9 1132.86 265.971 4
-5 -16 -9 1543.85 271.428 3
5 16 9 1419.13 338.295 6
-5 21 9 1629.96 302.607 6
-16 21 9 1835.79 357.3 6
-16 21 -9 1073.85 252.31 5
-16 -5 -10 3147.47 415.464 3
-5 -16 -10 3186.32 358.804 3
5 16 10 3201.32 407.508 6
-5 21 10 3362.84 397.359 6
-16 21 10 2858.99 380.02 6
-16 21 -10 2939.83 359.725 5
-16 -5 -11 1077.43 303.863 3
-5 -16 -11 436.75 181.756 3
5 16 11 645.245 229.248 6
-5 21 11 734.717 253.503 6
-16 21 11 863.919 285.816 6
-16 21 -11 392.069 259.624 5
-16 -5 -12 2534.61 367.098 3
-5 -16 -12 2609.74 312.463 3
5 16 12 2698.92 326.183 6
-5 21 12 2810.23 352.287 6
-16 21 12 2725.34 374.876 6
-16 -5 -13 782.978 254.039 3
-5 -16 -13 -61.8638 152.261 3
5 16 13 394.374 167.189 6
-5 21 13 213.021 169.31 6
-16 21 13 284.019 222.551 6
-16 21 -13 519.56 241.1 5
-16 -5 -14 836.688 245.279 3
5 16 14 838.98 217.521 6
-5 21 14 751.039 215.54 6
-16 21 14 1051.63 243.628 6
-16 21 -14 460.4 247.513 5
-16 -5 -15 334.299 193.914 3
5 16 15 253.184 140.822 6
-5 21 15 171.255 156.594 6
-16 21 15 105.431 167.427 6
-21 16 15 -211.833 211.474 6
-16 21 -15 134.141 175.441 5
-4 21 0 1110.47 321.496 4
-17 21 0 963.245 355.845 4
4 17 0 872.714 240.398 6
-4 21 0 733.393 201.556 6
-17 21 0 819.213 261.429 6
-4 21 -1 884.912 292.892 4
-4 21 1 847.822 293.553 4
-17 21 -1 412.648 305.232 4
-17 21 1 206.817 261.146 4
4 17 1 301.029 194.099 6
-4 21 1 674.146 221.538 6
-17 21 1 827.225 276.224 6
-4 21 -2 1617.56 332.226 4
-4 21 2 1636.46 331.383 4
-17 21 -2 2452.53 413.214 4
-17 21 2 1895.22 378.759 4
4 17 2 1670.75 306.541 6
-4 21 2 1520.17 290.774 6
-17 21 2 1694.61 321.785 6
-4 21 -3 1572.52 340.494 4
-4 21 3 1438.49 329.095 4
-17 21 -3 1370.72 362.094 4
-17 21 3 1086.61 315.561 4
4 17 3 1371.91 269.002 6
-4 21 3 1263.72 275.86 6
-17 21 3 1392.32 342.851 6
-4 21 -4 1528.95 316.217 4
-4 21 4 1497.42 316.438 4
-17 21 -4 1683.1 366.954 4
-17 21 4 1372.27 324.53 4
4 17 4 818.061 251.338 6
-4 21 4 1320.13 272.804 6
-17 21 4 1690.1 358.174 6
-4 21 -5 315.805 228.532 4
-4 21 5 -17.6032 210.191 4
-17 21 -5 54.0608 233.379 4
-17 21 5 -167.567 241.37 4
4 17 5 -161.904 219.68 6
-4 21 5 136.234 204.352 6
-17 21 5 9.47188 271.813 6
-4 21 -6 1597.8 329.296 4
-4 21 6 1612.37 291.469 4
-17 21 -6 2141.24 383.263 4
-17 21 6 1613.06 330.487 4
-17 -4 -6 1008.99 279.388 3
4 17 6 1210.89 294.383 6
-4 21 6 1186.41 283.616 6
-17 21 6 808.883 308.401 6
-4 21 -7 592.6 213.968 4
-4 21 7 597.473 242.697 4
-17 21 -7 602.295 235.144 4
-17 21 7 1031.59 283.482 4
-17 -4 -7 495.274 235.093 3
4 17 7 611.306 280.353 6
-4 21 7 458.659 218.642 6
-17 21 7 846.64 322.932 6
-17 21 -8 413.123 224.072 4
-17 21 8 328.53 199.279 4
-17 -4 -8 357.351 225.328 3
-21 17 -8 132.787 212.481 4
-21 17 8 610.882 245.755 4
4 17 8 58.8073 217.915 6
-4 21 8 370.313 196.733 6
-17 21 8 508.902 295.652 6
-17 21 -9 208.505 200.686 4
-17 21 9 -17.0934 192.896 4
-17 -4 -9 110.729 245.524 3
-21 17 -9 429.729 216.855 4
-21 17 9 192.964 199.821 4
-4 -17 -9 -156.301 181.739 3
4 17 9 29.8582 199.073 6
-4 21 9 187.871 204.558 6
-17 21 9 416.781 259.484 6
-17 21 -9 259.624 198.986 5
-17 -4 -10 1059.61 306.837 3
-4 -17 -10 551.276 228.166 3
4 17 10 755.484 251.024 6
-4 21 10 733.541 234.705 6
-17 21 10 387.273 281.875 6
-17 21 -10 442.133 196.001 5
-17 -4 -11 536.068 271.389 3
-4 -17 -11 169.39 200.969 3
4 17 11 709.367 230.681 6
-4 21 11 462.121 235.378 6
-17 21 11 912.232 303.282 6
-17 21 -11 -66.9929 198.607 5
-17 -4 -12 705.672 265.091 3
4 17 12 742.578 240.345 6
-4 21 12 707.915 230.867 6
-17 21 12 938.185 274.201 6
-17 21 -12 559.65 251.218 5
-17 -4 -13 540.465 222.562 3
4 17 13 200.556 167.194 6
-4 21 13 15.2984 159.028 6
-17 21 13 228.103 214.312 6
-17 21 -13 154.221 180.781 5
-21 17 -14 191.593 216.66 5
-17 -4 -14 132.376 186.983 3
4 17 14 167.338 149.788 6
-4 21 14 271.386 162.337 6
-17 21 14 335.067 198.526 6
-21 17 14 323.846 228.796 6
-17 21 -14 165.554 204.706 5
-21 17 -15 -16.5374 163.502 5
-17 -4 -15 405.444 202.756 3
4 17 15 -37.6755 132.512 6
-4 21 15 586.832 188.957 6
-17 21 15 -82.7926 167.499 6
-21 17 15 120.549 177.384 6
-17 21 -15 44.9242 143.325 5
-3 21 0 10337.8 696.369 4
-18 21 0 9495.22 688.269 4
3 18 0 10061.6 604.409 6
-3 21 0 10946.1 610.807 6
-18 21 0 10844.1 639.392 6
-3 21 -1 316.925 247.664 4
-3 21 1 747.445 299.261 4
-18 21 -1 412.404 293.482 4
-18 21 1 618.812 318.624 4
3 18 -1 673.073 212.404 6
3 18 1 444.781 198.678 6
-3 21 1 502.424 187.532 6
-3 21 2 4211.5 483.842 4
-3 21 -2 3666.72 436.901 4
-18 21 -2 4257.29 497.404 4
-18 21 2 4087.61 470.267 4
3 18 2 4104.12 433.577 6
-3 21 2 3805.84 383.59 6
-3 21 -3 744.804 282.508 4
-3 21 3 723.734 285.952 4
-18 21 -3 354.276 275.588 4
-18 21 3 606.571 294.834 4
3 18 3 835.03 270.901 6
-3 21 3 189.737 200 6
-3 21 -4 690.608 251.349 4
-3 21 4 1289.06 320.278 4
-18 21 -4 740.363 302.821 4
-18 21 4 614.089 296.058 4
3 18 4 974.003 282.61 6
-3 21 4 948.46 243.585 6
-3 21 -5 28.097 200.161 4
-3 21 5 -233.61 242.108 4
-18 21 -5 251.318 271.642 4
-18 21 5 21.9156 228.564 4
-18 -3 -5 230.532 216.32 3
3 18 5 175.262 202.245 6
-3 21 5 49.2785 191.639 6
-18 21 -6 7019.52 562.418 4
-18 21 6 8424.3 629.734 4
3 18 6 6639.13 535.514 6
-21 18 -6 7559.29 571.066 4
-21 18 6 7671.61 587.992 4
-18 -3 -6 8098.56 577.151 3
-3 21 6 6163.68 509.197 6
-18 21 6 6327.53 567.593 6
-18 21 -7 714.403 267.348 4
-18 21 7 513.661 252.819 4
-18 -3 -7 157.365 219.3 3
-21 18 -7 459.712 253.469 4
-21 18 7 868.286 268.146 4
3 18 7 399.347 220.673 6
-3 21 7 530.56 233.699 6
-18 21 7 187.148 283.943 6
-18 21 -8 6169.36 478.64 4
-18 21 8 6558.51 501.691 4
-21 18 -8 5519.59 473.504 4
-21 18 8 6083.87 483.362 4
-18 -3 -8 5359.35 511.69 3
3 18 8 6379.47 518.185 6
-3 21 8 5736.75 486.585 6
-18 21 8 6818.37 553.539 6
-18 21 -9 -71.5046 181.992 4
-18 21 9 467.579 195.711 4
-18 -3 -9 -6.04101 218.01 3
-21 18 -9 245.934 210.795 4
-21 18 9 -71.8089 197.668 4
-3 -18 -9 -86.5279 171.041 3
3 18 9 121.437 228.739 6
-3 21 9 210.392 219.953 6
-18 21 9 143.548 261.301 6
-18 21 -9 9.5989 168.761 5
-18 -3 -10 1506.42 326.021 3
3 18 10 1581.96 300.404 6
-3 21 10 1544.1 293.413 6
-18 21 10 1429.26 333.376 6
-18 21 -10 1487.95 267.572 5
-21 18 -11 -90.3702 173.163 5
-18 -3 -11 -66.8597 219.572 3
3 18 11 95.3095 180.791 6
-3 21 11 350.056 196.792 6
-18 21 -11 49.7788 161.308 5
-21 18 -12 -116.467 181.887 5
-18 -3 -12 112.317 212.133 3
3 18 12 228.661 168.979 6
-3 21 12 32.6679 174.207 6
-18 21 12 290.322 215.127 6
-18 21 -12 55.5216 175.173 5
-21 18 -13 -128.413 160.277 5
-18 -3 -13 120.476 199.933 3
3 18 13 33.8326 152.103 6
-3 21 13 -274.578 178.894 6
-18 21 13 223.324 212.023 6
-18 21 -13 39.2536 164.875 5
-18 -3 -14 1975.62 281.868 3
3 18 14 1677.7 235.751 6
-3 21 14 1463.97 226.984 6
-18 21 14 1710.74 269.107 6
-21 18 14 1747.69 285.835 6
-18 21 -14 1213.74 263.967 5
-2 21 0 7391.97 602.893 4
-19 21 0 7308.71 603.529 4
-21 19 0 7539.38 600.154 4
2 19 0 7537.69 522.835 6
-2 21 0 7398.93 502.837 6
-2 21 -1 24729.1 1048.91 4
-2 21 1 24568.9 1034.41 4
-19 21 -1 25015.6 1018.74 4
-19 21 1 24309.2 1008.02 4
-21 19 -1 25325.5 1042.59 4
-21 19 1 24509.7 1022.5 4
2 19 -1 23125.6 864.406 6
2 19 1 24638.6 940.904 6
-2 21 1 25003.2 931.007 6
-19 21 -2 3408.23 455.132 4
-19 21 2 3437.38 451.66 4
-21 19 -2 3458.01 454.105 4
-21 19 2 3240.22 452.776 4
-2 21 2 3539.35 377.781 6
2 19 2 3439.19 376.927 6
-19 21 -3 2100.05 384.81 4
-19 21 3 2777.24 422.102 4
-21 19 -3 3498.42 445.082 4
-21 19 3 3049.82 425.046 4
-19 -2 -3 2887.53 347.637 3
2 19 3 2651.58 349.567 6
-2 21 3 2832.09 340.958 6
-19 21 -4 191.65 268.243 4
-19 21 4 447.314 292.29 4
-21 19 -4 124.686 246.435 4
-21 19 4 -55.2229 249.241 4
-19 -2 -4 -178.371 186.768 3
2 19 4 246.186 210.781 6
-2 21 4 330.688 193.439 6
-19 21 -5 4107.24 454.486 4
-19 21 5 4500.82 462.321 4
-21 19 -5 4264.26 441.563 4
-21 19 5 4251.87 463.717 4
-19 -2 -5 3855.38 411.759 3
2 19 5 4123.27 421.206 6
-2 21 5 4080.05 415.163 6
-19 21 -6 3643.59 418.843 4
-19 21 6 3733.84 420.517 4
-19 -2 -6 3375.29 380.383 3
-21 19 -6 3620.41 429.017 4
-21 19 6 3611.9 433.438 4
2 19 6 3251.76 392.673 6
-2 21 6 3592.89 401.498 6
-19 21 -7 11800.7 674.375 4
-19 21 7 12104.1 680.078 4
-21 19 -7 11724.4 672.659 4
-21 19 7 12268.2 683.753 4
-19 -2 -7 10347.1 646.047 3
2 19 7 11295.4 654.089 6
-2 21 7 11282.2 644.762 6
-19 21 7 11144.9 700.147 6
-19 21 -8 3523.06 374.132 4
-19 21 8 3387.76 369.408 4
-19 -2 -8 2851.36 395.87 3
-21 19 -8 3482.35 389.876 4
-21 19 8 3528.3 408.783 4
2 19 8 3951.97 413.485 6
-2 21 8 3882.59 387.66 6
-19 21 8 3904.79 458.732 6
-19 21 -9 6117.54 453.076 4
-19 21 9 6622.1 476.541 4
-21 19 -9 6442.86 469.528 4
-21 19 9 6139.55 466.877 4
-19 -2 -9 6550.61 522.165 3
2 19 9 6729.62 493.573 6
-2 21 9 7239.32 516.306 6
-19 21 9 6994.89 553.584 6
-21 19 -10 1359.86 231.29 5
-19 -2 -10 921.498 298.713 3
2 19 10 1993.07 317.604 6
-2 21 10 1958.32 305.9 6
-19 21 10 1946.73 349.407 6
-19 21 -10 1417.08 242.443 5
-21 19 -11 216.28 204.466 5
-19 -2 -11 409.128 219.518 3
2 19 11 639.892 227.735 6
-2 21 11 613.094 212.332 6
-19 21 11 610.69 275.472 6
-19 21 -11 172.464 199.329 5
-21 19 -12 -69.1413 168.164 5
-21 2 -12 27.6676 127.46 3
-19 -2 -12 -122.941 179.272 3
2 19 12 -217.993 174.444 6
-2 21 12 112.686 167.414 6
-19 21 12 70.2366 194.631 6
-21 19 12 -311.998 262.082 6
-19 21 -12 10.4724 153.372 5
-21 19 -13 1057.79 246.527 5
-21 2 -13 1223.95 208.531 3
-19 -2 -13 1239.22 225.47 3
2 19 13 1278.94 225.936 6
-2 21 13 1412.54 246.738 6
-19 21 13 1691.01 289.384 6
-21 19 13 1468.63 280.735 6
-19 21 -13 927.01 237.839 5
-19 -2 -14 153.184 147.003 3
2 19 14 315.83 138.193 6
-2 21 14 282.369 141.479 6
-19 21 14 458.286 183.238 6
-21 19 14 527.07 205.929 6
-19 21 -14 310.844 186.559 5
-21 2 -14 509.474 139.764 3
-21 19 -14 149.751 149.929 5
-20 21 0 13122.8 750.074 4
-21 20 0 12996.3 759.671 4
1 20 0 13332.2 666.254 6
-1 21 0 12463.6 627.76 6
-20 21 -1 34991.4 1187.53 4
-20 21 1 33554.9 1154.22 4
-21 20 -1 34746.3 1191.22 4
-21 20 1 33753.3 1165.72 4
1 20 1 33374.4 1059.22 6
-1 21 1 33501.6 1048.82 6
-20 21 -2 5729.52 531.988 4
-20 21 2 6938.79 565.228 4
-21 20 -2 6353.18 545.763 4
-21 20 2 6852.44 577.323 4
1 20 2 6350.01 485.104 6
-1 21 2 6424.12 489.081 6
-21 20 -3 5670.58 536.457 4
-21 20 3 5314.76 512.64 4
-20 21 -3 5248.23 509.333 4
-20 21 3 4792.62 489.984 4
1 20 3 4553.55 432.82 6
-1 21 3 4721.9 425.551 6
-20 21 -4 330.367 261.779 4
-20 21 4 47.418 264.431 4
-21 20 -4 338.928 266.138 4
-21 20 4 400.68 281.32 4
1 20 4 116.535 201.178 6
-1 21 4 317.545 210.19 6
-20 21 5 4835.69 470.752 4
-21 20 -5 5196.69 504.673 4
-20 21 -5 4370.68 457.219 4
-21 20 5 4468.98 454.191 4
-20 -1 -5 4068.16 404.97 3
1 20 5 4705.53 436.853 6
-1 21 5 4219.69 418.212 6
1 20 6 5874.47 483.735 6
-20 21 -6 5684.91 501.833 4
-20 21 6 5781.16 487.593 4
-21 20 -6 5887.2 494.607 4
-21 20 6 5320.26 470.237 4
-20 -1 -6 5762.99 448.477 3
-1 21 6 5362.36 450.934 6
-20 21 -7 14216.8 714.604 4
-20 21 7 14118.8 707.84 4
-21 20 -7 14828.6 721.264 4
-21 20 7 14573.1 706.592 4
-20 -1 -7 13069 663.811 3
1 20 7 13801 701.159 6
-1 21 7 13798.4 699.375 6
-20 21 -8 4102.98 403.172 4
-20 21 8 4462.72 421.406 4
-21 20 -8 4541.91 400.356 4
-21 20 8 4239.24 400.643 4
-20 -1 -8 3931.93 389.724 3
1 20 8 4633.76 422.49 6
-1 21 8 4014.61 399.248 6
-20 21 8 4244.13 456.97 6
-20 21 -9 8019.88 487.883 4
-20 21 9 8923.57 522.945 4
-21 20 -9 8619.04 502.879 4
-21 20 9 8854.68 523.818 4
-20 -1 -9 8501.59 527.198 3
1 20 9 9165.99 549.733 6
-1 21 9 9441.37 558.57 6
-20 21 9 10380 638.434 6
-21 1 -10 1426.12 234.206 3
-20 -1 -10 862.252 234.248 3
1 20 10 1389.86 248.168 6
-1 21 10 1205.62 247.477 6
-20 21 10 1253.76 310.632 6
-21 20 10 1226.32 313.728 6
-21 1 -11 395.185 154.487 3
-20 -1 -11 599.808 194.156 3
1 20 11 386.146 177.735 6
-1 21 11 600.1 200.654 6
-20 21 11 539.914 254.71 6
-21 20 11 701.272 272.447 6
-20 21 -11 320.861 168.147 5
-21 20 -11 74.5551 178.159 5
-21 1 -12 443.731 175.514 3
-20 -1 -12 311.32 162.331 3
1 20 12 288.852 172.513 6
-1 21 12 -84.8847 153.646 6
-20 21 12 -49.4672 194.472 6
-21 20 12 14.169 210.529 6
-20 21 -12 -68.6381 134.976 5
-21 20 -12 -92.8427 146.638 5
-21 1 -13 1818.02 220.044 3
-20 -1 -13 2795.57 285.823 3
-1 21 13 2833.84 288.518 6
1 20 13 1986.58 254.312 6
-20 21 13 2945.56 321.208 6
-21 20 13 2957.6 326.727 6
-20 21 -13 1662.98 259.567 5
-21 20 -13 1556.97 244.683 5
-21 21 0 55949.8 1462.04 4
0 21 0 54456.4 1257.32 6
-21 21 -1 -76.404 274.798 4
-21 21 1 -256.655 282.067 4
0 21 1 36.7566 165.318 6
-21 21 -2 27229.9 1023.64 4
-21 21 2 26994.9 1021.34 4
0 21 2 26107.1 917.281 6
-21 21 -3 71.8963 244.227 4
-21 21 3 177.607 270.178 4
0 21 3 86.8591 179.683 6
-21 21 -4 -1.20213 237.302 4
-21 21 4 -162.399 258.814 4
0 21 4 178.323 173.859 6
-21 21 -5 -275.868 259.725 4
-21 21 5 45.7345 227.381 4
0 21 5 45.2907 201.474 6
-21 21 -6 18362.9 803.024 4
-21 21 6 16085.4 759.712 4
0 21 6 16518.5 731.852 6
-21 21 -7 -52.2586 219.726 4
-21 21 7 271.05 204.707 4
0 21 7 289.488 202.743 6
-21 21 -8 16932.3 699.548 4
-21 21 8 17313.5 716.883 4
0 21 8 16917.1 726.931 6
-21 21 8 18843.9 820.86 6
-21 0 -9 211.07 148.726 3
-21 21 -9 -48.7499 134.833 4
-21 21 9 298.224 174.23 4
0 21 9 102.003 179.272 6
-21 21 9 285.68 258.943 6
-21 0 -10 4379.1 358.88 3
0 21 10 4385.29 374.004 6
-21 21 10 4871.36 434.149 6
-21 0 -11 58.8974 130.632 3
0 21 11 288 160.717 6
-21 21 11 45.7529 217.134 6
-21 0 -12 734.969 161.332 3
0 21 12 964.753 206.033 6
-21 21 12 913.329 234.166 6
-11 22 0 167.022 241.222 4
-11 22 -1 245.126 236.978 4
-11 22 1 145.065 237.026 4
-11 22 1 125.388 176.172 6
-11 22 -2 1216.36 316.424 4
-11 22 2 780.946 259.729 4
-11 22 2 1164.14 255.428 6
-11 22 -3 98.5293 214.708 4
-11 22 3 -42.2649 233.628 4
-11 22 3 -77.8698 184.845 6
-11 22 -4 560.289 320.148 4
-11 22 4 167.255 236.928 4
-11 22 4 403.349 218.311 6
-11 22 -5 -107.945 239.222 4
-11 22 5 501.401 263.296 4
-11 22 5 594.099 251.059 6
-11 22 -6 -68.9714 213.912 4
-11 22 6 20.3834 198.359 4
-11 22 6 263.159 225.609 6
-11 22 -7 -15.1579 190.4 4
-11 22 7 -205.458 210.921 4
-11 22 7 131.33 217.796 6
-11 22 -8 103.881 179.177 4
-11 22 8 381.014 228.804 4
-11 22 8 313.594 241.872 6
-11 22 -9 -17.3579 174.212 4
-11 22 9 -137.924 201.591 4
-11 -11 -9 -5.49698 234.55 3
-11 22 9 113.427 212.948 6
-11 -11 -10 225.27 261.951 3
-11 22 10 42.1803 217.029 6
-11 -11 -11 93.242 240.164 3
-11 22 11 82.0866 204.27 6
-11 -11 -12 1048.16 279.328 3
-11 22 12 431.623 225.196 6
-11 -11 -13 -96.7866 206.523 3
-11 22 13 -179.579 192.419 6
-11 -11 -14 274.878 178.741 3
-11 22 14 263.106 177.587 6
-11 -11 -15 -110.089 163.09 3
-11 22 15 106.635 155.35 6
-10 22 0 241.498 247.766 4
-12 22 0 -32.3693 247.373 4
-10 22 -1 525.732 260.659 4
-10 22 1 592.479 277.591 4
-12 22 -1 982.401 290.94 4
-12 22 1 528.678 254.083 4
-10 22 1 1014.6 257.925 6
-12 22 1 520.444 223.451 6
-10 22 -2 3073.21 441.841 4
-10 22 2 2796.92 415.655 4
-12 22 -2 3360.84 448.973 4
-12 22 2 2765.85 410.937 4
-10 22 2 2558.86 339.588 6
-12 22 2 3095.21 369.739 6
-10 22 -3 922.148 312.23 4
-10 22 3 624.386 259.819 4
-12 22 -3 968.609 305.625 4
-12 22 3 798.153 273.161 4
-10 22 3 355.37 194.871 6
-12 22 3 470.367 227.662 6
-10 22 -4 4892.56 528.308 4
-10 22 4 4149.89 476.746 4
-12 22 -4 4964.94 515.669 4
-12 22 4 3898.83 449.647 4
-10 22 4 4114.47 433.983 6
-12 22 4 4344.62 442.666 6
-10 22 -5 439.948 272.141 4
-10 22 5 608.302 272.549 4
-12 22 -5 54.8701 218.456 4
-12 22 5 254.25 253.003 4
10 12 5 326.872 241.325 6
-10 22 5 599.014 262.128 6
-12 22 5 579.037 267.607 6
-10 22 -6 1402.79 325.544 4
-10 22 6 1942.52 343.883 4
-12 22 -6 1371.88 311.983 4
-12 22 6 1508.13 333.574 4
10 12 6 1294.66 298.383 6
-10 22 6 1808.5 321.918 6
-12 22 6 1679.65 326.132 6
-10 22 -7 1190.51 274.419 4
-10 22 7 921.861 261.378 4
-12 22 -7 685.472 233.134 4
-12 22 7 837.124 266.835 4
10 12 7 702.698 235.863 6
-10 22 7 869.441 273.388 6
-12 22 7 1181.37 317.971 6
-12 22 -7 808.291 236.157 5
-10 22 -8 481.788 216.128 4
-10 22 8 393.005 227.453 4
-12 22 -8 982.202 267.865 4
-12 22 8 672.044 253.496 4
10 12 8 514.7 247.664 6
-10 22 8 599.467 251.503 6
-12 22 8 517.197 242.71 6
-12 22 -8 549.421 186.579 5
-12 -10 -9 -46.3 272.822 3
-10 22 -9 165.066 161.264 4
-10 22 9 359.927 188.967 4
-12 22 -9 395.195 197.629 4
-12 22 9 402.418 190.585 4
-10 -12 -9 443.53 272.245 3
-10 22 9 428.534 252.874 6
-12 22 9 870.753 273.197 6
-12 22 -9 331.704 200.5 5
-12 -10 -10 3203.65 421.573 3
-10 -12 -10 1980.11 341.452 3
-10 22 10 2303.86 332.489 6
-12 22 10 2801.46 376.597 6
-12 22 -10 1695.96 334.32 5
-12 -10 -11 680.296 286.616 3
-10 -12 -11 806.383 280.736 3
-10 22 11 806.785 270.004 6
-12 22 11 1055.23 274.795 6
-12 22 -11 412.66 227.768 5
-12 -10 -12 1082.11 270.591 3
-10 -12 -12 1404.43 299.802 3
-10 22 12 1271.45 282.759 6
-12 22 12 1733.35 300.026 6
-12 22 -12 739.298 312.166 5
-12 -10 -13 205.454 220.122 3
-10 22 13 -312.312 187.999 6
-12 22 13 -129.581 187.859 6
-12 22 -13 240.266 261.14 5
-12 -10 -14 584.252 218.563 3
-10 -12 -14 557.926 223.788 3
-10 22 14 385.019 192.852 6
-12 22 14 305.717 194.135 6
-10 -12 -15 -54.885 171.576 3
-12 -10 -15 382.949 191.806 3
-10 22 15 135.153 152.083 6
-12 22 15 291.976 179.684 6
-9 22 0 1679.24 338.137 4
-13 22 0 2141.26 379.095 4
-9 22 -1 3789.41 454.377 4
-9 22 1 4443.17 479.643 4
-13 22 -1 4195.61 481.632 4
-13 22 1 4042.42 479.455 4
-9 22 1 4500.97 422.086 6
-13 22 1 4274.09 408.298 6
-9 22 -2 4728.87 497.044 4
-13 22 2 4692.24 499.955 4
-9 22 2 3929.51 461.379 4
-13 22 -2 4375.02 491.97 4
9 13 2 5036.4 482.839 6
-9 22 2 5014.28 454.033 6
-13 22 2 4082.72 424.735 6
-9 22 -3 5067.49 523.295 4
-9 22 3 5666.72 531.349 4
-13 22 -3 5292.54 530.596 4
-13 22 3 6102.26 552.169 4
9 13 3 6026.77 512.639 6
-9 22 3 5806.46 490.764 6
-13 22 3 5740.09 497.39 6
-9 22 -4 9817 664.832 4
-9 22 4 8361.75 620.675 4
-13 22 -4 9540.06 661.271 4
-13 22 4 8638.12 635.081 4
9 13 4 8496.34 596.334 6
-9 22 4 8031.25 574.197 6
-13 22 4 8256.53 580.199 6
-9 22 -5 3932.32 444.282 4
-9 22 5 4309.24 442.49 4
-13 22 -5 3901.65 457.394 4
-13 22 5 3854.67 436.061 4
9 13 5 4893.88 481.781 6
-9 22 5 3919.84 429.15 6
-13 22 5 3842.05 426.158 6
-9 22 -6 3711.55 422.351 4
-9 22 6 3402.55 409.993 4
-13 22 -6 4115.66 439.579 4
-13 22 6 2891.92 396.69 4
9 13 6 3715.98 420.598 6
-9 22 6 3100.47 396.858 6
-13 22 6 3282.75 401.039 6
-9 22 -7 1271.08 290.465 4
-9 22 7 695.944 221.446 4
-13 22 -7 853.517 277.748 4
-13 22 7 760.804 261.52 4
9 13 7 915.346 291.593 6
-9 22 7 1040.25 278.621 6
-13 22 7 704.45 261.729 6
-9 22 -8 607.808 226.416 4
-9 22 8 74.2819 192.284 4
-13 22 -8 -154.267 203.293 4
-13 22 8 397.977 205.315 4
9 13 8 83.0085 197.794 6
-9 22 8 225.003 196.608 6
-13 22 8 396.403 257.575 6
-13 22 -8 551.475 210.748 5
-9 22 -9 1660.16 274.078 4
-9 22 9 1619.21 265.535 4
-13 22 -9 1585.44 261.109 4
-13 22 9 1963.19 308.252 4
-13 -9 -9 1925.5 358.48 3
-9 -13 -9 1913.35 341.038 3
9 13 9 1472.63 299.456 6
-9 22 9 2016.11 331.722 6
-13 22 9 1774.52 340.87 6
-13 22 -9 1737.8 300.339 5
-13 -9 -10 4657.97 481.099 3
-9 -13 -10 4093.19 435.62 3
9 13 10 3952.33 407.875 6
-13 22 10 4148.22 440.605 6
-9 22 10 3764.36 407.36 6
-13 22 -10 2943.96 407.924 5
-13 -9 -11 2338.55 367.191 3
-9 -13 -11 1953.2 323.939 3
-9 22 11 2100.86 329.766 6
-13 22 11 1781.93 321.366 6
-13 22 -11 924.153 293.168 5
-13 -9 -12 2589.9 354.423 3
-9 -13 -12 2284.05 319.582 3
-9 22 12 1907.8 291.65 6
-13 22 12 2637.37 356.505 6
-13 22 -12 1581.28 353.849 5
-13 -9 -13 838.035 269.744 3
-9 -13 -13 665.308 213.962 3
-9 22 13 1268.17 262.112 6
-13 22 13 1252.69 279.631 6
-13 22 -13 329.066 233.068 5
-13 -9 -14 581.38 223.121 3
-9 -13 -14 372.212 195.472 3
-9 22 14 963.337 239.71 6
-13 22 14 589.924 214.565 6
-13 22 -14 347.501 221.502 5
-9 -13 -15 583.54 181.413 3
-13 -9 -15 748.093 223.989 3
-9 22 15 583.275 190.426 6
-13 22 15 627.192 192.17 6
-8 22 0 11742.1 737.371 4
-14 22 0 11838.3 733.551 4
-8 22 -1 2534.23 413.995 4
-8 22 1 2818.19 419.906 4
-14 22 -1 2419.26 388.753 4
-14 22 1 2444.67 408.7 4
8 14 1 2601.95 361.615 6
-14 22 1 3371.01 457.66 6
-8 22 1 2184.68 334.189 6
-8 22 -2 3449.47 432.447 4
-8 22 2 3206.71 420.813 4
-14 22 -2 3102.81 437.396 4
-14 22 2 3686.67 439.871 4
8 14 2 3259.26 388.323 6
-8 22 2 3443.11 385.297 6
-14 22 2 3104.05 363.752 6
-8 22 -3 13588.2 802.926 4
-8 22 3 14091.1 790.797 4
-14 22 -3 13545.5 786.468 4
-14 22 3 14501.9 809.808 4
8 14 3 14120.9 766.668 6
-8 22 3 14101.2 736.409 6
-14 22 3 13528.7 724.845 6
-8 22 -4 584.452 245.537 4
-8 22 4 530.177 237.077 4
-14 22 -4 659.092 303.104 4
-14 22 4 514.784 274.861 4
8 14 4 652.005 233.35 6
-8 22 4 225.009 195.607 6
-14 22 4 675.998 247.486 6
-8 22 -5 13023.6 755.581 4
-8 22 5 13009.3 739.611 4
-14 22 -5 13187.5 765.124 4
-14 22 5 12617.9 730.609 4
8 14 5 13604.4 756.717 6
-8 22 5 12440.4 705.875 6
-14 22 5 12625.4 718.975 6
-8 22 -6 629.186 256.203 4
-8 22 6 435.482 225.383 4
-14 22 -6 472.299 285.25 4
-14 22 6 587.559 268.995 4
8 14 6 551.044 274.956 6
-8 22 6 333.762 195.383 6
-14 22 6 206.441 236.995 6
-8 22 -7 2100.68 345.096 4
-8 22 7 1883.43 328.15 4
-14 22 -7 2189.25 348.945 4
-14 22 7 1389.04 306.499 4
8 14 7 1856 335.716 6
-8 22 7 1944.27 331.462 6
-14 22 7 1836.12 324.756 6
-8 22 -8 1576.4 302.568 4
-8 22 8 1837.92 304.796 4
-14 22 -8 1566.95 299.947 4
-14 22 8 2151.5 321.896 4
-14 -8 -8 1978.05 372.125 3
8 14 8 1795.89 327.724 6
-8 22 8 2384.67 357.094 6
-14 22 8 1969 328.352 6
-14 22 -8 1581.79 277.929 5
-8 22 -9 4126.68 388.245 4
-8 22 9 4276.51 402.673 4
-14 22 -9 3823.9 390.507 4
-14 22 9 4705.33 411.179 4
8 14 9 4850.08 471.134 6
-14 -8 -9 5068.6 501.887 3
-8 -14 -9 4396.5 452.471 3
-8 22 9 4694.7 449.737 6
-14 22 9 4826.35 465.607 6
-14 22 -9 4499.45 419.189 5
-14 -8 -10 1394.66 334.004 3
-8 -14 -10 1546.6 316.1 3
8 14 10 1668.24 306.35 6
-8 22 10 1341.9 294.645 6
-14 22 10 1601.65 316.759 6
-14 22 -10 793.85 261.018 5
-14 -8 -11 8274.2 588.159 3
-8 -14 -11 8120.89 547.392 3
8 14 11 8113.69 541.387 6
-8 22 11 8430.07 549.994 6
-14 22 11 8564.85 577.332 6
-14 -8 -12 30.4152 227.746 3
-8 -14 -12 269.466 194.638 3
8 14 12 64.7468 172.759 6
-8 22 12 95.866 195.954 6
-14 22 12 212.083 193.944 6
-14 22 -12 217.034 181.16 5
-14 -8 -13 2820.73 357.745 3
-8 -14 -13 2288.93 300.028 3
-8 22 13 2979.78 340.76 6
-14 22 13 2920.04 354.314 6
-14 22 -13 1736.97 315.147 5
-8 -14 -14 519.763 197.201 3
-8 22 14 1014.99 218.333 6
-14 22 14 944.821 229.248 6
-14 22 -14 632.381 241.188 5
-8 -14 -15 -22.9687 135.612 3
-14 -8 -15 154.455 186.954 3
-8 22 15 368.556 161.78 6
-14 22 15 -12.0678 143.853 6
-22 14 15 416.965 206.218 6
-14 22 -15 260.996 180.33 5
-7 22 0 3107.6 431.318 4
-15 22 0 2950.88 429.102 4
7 15 0 3447.29 393.976 6
-7 22 -1 7691.91 617.026 4
-7 22 1 6708.8 573.179 4
-15 22 -1 7193.43 589.337 4
-15 22 1 7308.87 608.095 4
7 15 1 7500.52 554.435 6
-7 22 1 7567.61 510.781 6
-15 22 1 7669.31 538.782 6
-7 22 -2 6316.02 549.105 4
-7 22 2 6120.29 546.335 4
-15 22 -2 5916.32 550.535 4
-15 22 2 6045.85 544.522 4
7 15 2 5743.61 498.746 6
-7 22 2 5935.83 477.741 6
-15 22 2 5797.79 489.604 6
-7 22 -3 3121.65 426.01 4
-7 22 3 2739.59 401.428 4
-15 22 -3 2490.7 410.666 4
-15 22 3 1886.06 348.537 4
7 15 3 2508.52 364.467 6
-7 22 3 2017.66 297.95 6
-15 22 3 2052.61 336.136 6
-7 22 -4 10148.6 679.072 4
-7 22 4 9849.23 661.514 4
-15 22 -4 10564.8 690.036 4
-15 22 4 9915.49 664.936 4
7 15 4 9770.68 634.656 6
-7 22 4 9489.34 614.617 6
-15 22 4 8920.45 591.385 6
-7 22 -5 2343.1 372.652 4
-7 22 5 2776.21 396.777 4
-15 22 -5 2377.4 380.143 4
-15 22 5 2083.58 353.871 4
7 15 5 2466.13 376.215 6
-7 22 5 2648.91 380.086 6
-15 22 5 2060.32 336.589 6
-7 22 6 4096.41 435.667 4
-7 22 -6 4133.46 429.904 4
-15 22 -6 4370.31 487.278 4
-15 22 6 4007.72 442.08 4
7 15 6 4120.83 433.556 6
-7 22 6 3968.96 413.713 6
-15 22 6 4480.95 467.423 6
-7 22 -7 1722.98 317.473 4
-7 22 7 1549.59 285.839 4
-15 22 -7 1837.63 322.748 4
-15 22 7 1828.58 321.212 4
7 15 7 1952.58 330.421 6
-7 22 7 2059.39 329.263 6
-15 22 7 1957.97 351.301 6
-7 22 -8 2016.34 299.624 4
-7 22 8 1919.29 312.639 4
-15 22 -8 2460.4 348.588 4
-15 22 8 2392.37 337.491 4
-15 -7 -8 2224.07 362.883 3
7 15 8 2254.56 344.024 6
-7 22 8 2550.31 372.626 6
-15 22 8 2306.26 358.502 6
-7 22 -9 2682.14 331.69 4
-7 22 9 3231.67 346.092 4
-15 22 -9 2363.35 322.102 4
-15 22 9 2495.18 325.428 4
-15 -7 -9 3671.29 441.459 3
-7 -15 -9 3145.58 381.363 3
7 15 9 3636.82 411.22 6
-7 22 9 2972.19 357.264 6
-15 22 9 3541.71 422.724 6
-15 22 -9 3319 359.157 5
-15 -7 -10 6128.93 533.69 3
7 15 10 5622.36 473.656 6
-7 -15 -10 5387.46 465.714 3
-7 22 10 5407.95 463.702 6
-15 22 10 5352.29 487.436 6
-15 22 -10 3923.72 416.446 5
-15 -7 -11 748.966 291.642 3
-7 -15 -11 1038.02 244.038 3
7 15 11 967.827 257.446 6
-7 22 11 940.361 246.785 6
-15 22 11 1329.07 289.538 6
-15 22 -11 340.657 224.482 5
-15 -7 -12 3250.55 407.403 3
-7 -15 -12 3029.7 334.053 3
7 15 12 3690.51 367.161 6
-7 22 12 3693.15 376.744 6
-15 22 12 3481.34 393.575 6
-15 -7 -13 1124.31 276.988 3
-7 -15 -13 317.259 179.479 3
7 15 13 919.945 207.049 6
-7 22 13 1086.97 244.288 6
-15 22 13 834.848 240.516 6
-15 22 -13 644.692 240.616 5
-15 -7 -14 219.246 196.231 3
-7 -15 -14 393.841 186.591 3
-7 22 14 445.791 168.194 6
-15 22 -14 534.007 209.133 5
-7 -15 -15 176.433 136.041 3
-15 -7 -15 610.518 199.462 3
-22 15 15 610.557 183.729 6
-15 22 -15 639.771 201.204 5
-6 22 0 148.748 236.656 4
-16 22 0 235.736 256.707 4
6 16 0 328.281 200.572 6
-6 22 -1 8029.76 625.552 4
-6 22 1 7823.77 618.852 4
-16 22 -1 8789.31 650.703 4
-16 22 1 8536.44 639.314 4
6 16 1 8759.65 589.025 6
-6 22 1 8550.05 542.965 6
-16 22 1 8795.47 569.465 6
-6 22 -2 2770.79 408.274 4
-6 22 2 2654.68 392.341 4
-16 22 -2 2193.72 376.581 4
-16 22 2 2852.02 408.483 4
6 16 2 2392.3 335.119 6
-6 22 2 2150.53 323.231 6
-16 22 2 2314.2 339.067 6
-6 22 -3 3442.43 448.547 4
-6 22 3 2947.78 401.762 4
-16 22 -3 3287.04 449.056 4
-16 22 3 3321.15 444.386 4
6 16 3 2671.58 359.755 6
-6 22 3 3057.6 372.269 6
-16 22 3 2906.14 379.031 6
-6 22 -4 3571.7 423.688 4
-6 22 4 3034.45 404.205 4
-16 22 -4 3547.01 429.514 4
-16 22 4 3392.83 437.342 4
6 16 4 3137.05 388.865 6
-6 22 4 2950.11 365.683 6
-16 22 4 2974.87 391.072 6
-6 22 -5 1050.84 283.961 4
-6 22 5 780.659 258.611 4
-16 22 -5 1214.41 304.393 4
-16 22 5 1199.68 312.329 4
6 16 5 825.314 275.696 6
-6 22 5 864.836 258.501 6
-16 22 5 1469.45 311.39 6
-6 22 -6 1906.68 339.388 4
-6 22 6 2424.71 352.445 4
-16 22 -6 2156.43 357.333 4
-16 22 6 3230.84 429.982 4
6 16 6 2138.49 345.431 6
-6 22 6 2226.89 337.757 6
-16 22 6 2269.8 366.085 6
-6 22 -7 1135.5 255.26 4
-6 22 7 1631.05 303.485 4
-16 22 -7 2077.26 363.181 4
-16 22 7 1814.22 309.802 4
-16 -6 -7 1773.47 327.516 3
6 16 7 1750.13 317.699 6
-6 22 7 1331.49 291.186 6
-16 22 7 1511.27 311.769 6
-6 22 -8 1030.84 244.628 4
-6 22 8 1227.69 264.894 4
-16 22 -8 1094.04 275.221 4
-16 22 8 1033.73 253.771 4
-16 -6 -8 1706.12 348.667 3
6 16 8 990.033 271.567 6
-6 22 8 1395.65 307.097 6
-16 22 8 1170.73 298.719 6
-16 22 -9 3692.49 377.32 4
-16 22 9 3376.82 372.229 4
-22 16 -9 3753.14 388.825 4
-22 16 9 4128.94 419.62 4
-16 -6 -9 4431.69 451.042 3
-6 -16 -9 3504.41 381.476 3
6 16 9 3587.71 391.752 6
-6 22 9 3592.72 385.929 6
-16 22 9 4639.98 463.706 6
-16 22 -9 3684.22 365.077 5
-16 -6 -10 1980.19 347.682 3
-6 -16 -10 1531.71 270.683 3
6 16 10 1672.57 291.702 6
-6 22 10 1439.89 280.592 6
-16 22 10 2182.3 333.503 6
-16 22 -10 1325.21 257.153 5
-16 -6 -11 1478.03 309.625 3
-6 -16 -11 867.48 203.652 3
6 16 11 1474.33 264.975 6
-6 22 11 1018.63 256.258 6
-16 22 11 1326.3 283.021 6
-16 22 -11 682.245 257.525 5
-16 -6 -12 831.271 265.047 3
-6 -16 -12 803.27 227.865 3
6 16 12 1077.19 217.204 6
-6 22 12 1385.63 269.671 6
-16 22 12 1821.52 319.211 6
-16 22 -12 207.939 204.704 5
-16 -6 -13 715.911 231.553 3
-6 -16 -13 115.37 149.481 3
6 16 13 724.713 193.144 6
-6 22 13 659.139 213.192 6
-16 22 13 719.031 230.031 6
-16 22 -13 77.2117 148.934 5
-6 -16 -14 77.0381 95.6961 3
-16 -6 -14 502.351 186.849 3
-6 22 14 346.863 174.969 6
-16 22 14 -1.14313 161.458 6
-22 16 14 197.742 218.283 6
-16 22 -14 238.128 160.151 5
-5 22 0 3213.22 424.882 4
-17 22 0 3384.51 435.843 4
5 17 0 2949.26 343.649 6
-17 22 0 3467.24 376.042 6
-5 22 -1 -56.5736 262.524 4
-5 22 1 602.879 275.754 4
-17 22 -1 -108.16 267.89 4
-17 22 1 82.4334 266.238 4
5 17 -1 317.367 181.404 6
5 17 1 456.789 210.473 6
-5 22 1 253.246 156.601 6
-17 22 1 53.891 213.904 6
-5 22 -2 1613.45 329.263 4
-5 22 2 1718.18 351.093 4
-17 22 -2 1574.92 369.076 4
-17 22 2 1781.24 359.171 4
5 17 2 1868.83 323.882 6
-5 22 2 1935.02 290.181 6
-17 22 2 1680.99 292.244 6
-5 22 -3 1410.87 329.774 4
-5 22 3 1378.29 316.006 4
-17 22 -3 1328.46 314.876 4
-17 22 3 1589.22 360.954 4
5 17 3 1816.15 307.055 6
-5 22 3 1125.13 234.104 6
-17 22 3 1108.37 284.249 6
-5 22 -4 -28.5324 213.481 4
-5 22 4 85.0402 213.467 4
-17 22 -4 337.125 260.247 4
-17 22 4 386.402 264.954 4
5 17 4 -188.665 220.749 6
-5 22 4 265.027 199.182 6
-17 22 4 116.19 228.403 6
-5 22 -5 430.816 250.177 4
-5 22 5 711.525 280.582 4
-17 22 -5 591.07 269.612 4
-17 22 5 641.798 260.068 4
5 17 5 498.42 238.035 6
-5 22 5 485.824 228.853 6
-17 22 5 -6.464 226.84 6
-5 22 -6 65.7962 210.28 4
-5 22 6 245.444 242.157 4
-17 22 -6 -73.8553 210.219 4
-17 22 6 -181.966 234.228 4
-17 -5 -6 296.865 245.105 3
5 17 6 -270.917 222.92 6
-5 22 6 50.9973 182.266 6
-17 22 6 -90.7024 238.661 6
-5 22 -7 -190.356 187.208 4
-5 22 7 -51.6179 194.151 4
-17 22 -7 -221.532 220.35 4
-17 22 7 -262.729 222.74 4
-17 -5 -7 -48.6454 250.665 3
5 17 7 174.166 209.453 6
-5 22 7 -39.7504 183.059 6
-17 22 7 81.5585 239.818 6
-17 22 -8 860.536 230.261 4
-17 22 8 1196.61 260.512 4
-17 -5 -8 839.203 263.358 3
-22 17 -8 1123.19 241.068 4
-22 17 8 988.736 268.14 4
5 17 8 1277.28 300.776 6
-5 22 8 839.568 242.269 6
-17 22 8 1426.96 331.759 6
-17 22 -9 528.544 201.159 4
-17 22 9 528.499 235.151 4
-17 -5 -9 484.997 245.744 3
-22 17 -9 581.924 227.786 4
-22 17 9 320.691 222.155 4
-5 -17 -9 488.557 212.487 3
5 17 9 138.887 207.833 6
-5 22 9 598.749 238.109 6
-17 22 9 556.161 259.584 6
-17 -5 -10 995.349 287.688 3
-5 -17 -10 1343.78 250.97 3
5 17 10 659.761 221.795 6
-5 22 10 823.297 235.956 6
-17 22 10 1157.55 294.389 6
-17 22 -10 1542.5 260.474 5
-17 -5 -11 328.173 229.555 3
-5 -17 -11 313.357 201.809 3
5 17 11 418.242 213.411 6
-5 22 11 376.81 204.93 6
-17 22 11 374.646 219.309 6
-17 22 -11 126.375 181.266 5
-17 -5 -12 115.944 196.254 3
-5 -17 -12 2.31511 137.023 3
5 17 12 118.697 171.07 6
-5 22 12 -25.5972 165.545 6
-17 22 12 54.0447 193.619 6
-17 22 -12 -8.57151 170.34 5
-17 -5 -13 306.622 205.166 3
-5 22 13 -159.161 174.542 6
-17 22 13 498.466 210.474 6
-17 22 -13 -109.499 154.841 5
-22 17 -14 173.986 175.61 5
-17 -5 -14 -108.108 182.256 3
5 17 14 -151.775 140.572 6
-5 22 14 -109.668 142.297 6
-17 22 14 156.442 166.184 6
-22 17 14 153.864 184.407 6
-17 22 -14 -76.8396 157.588 5
-4 22 0 87.2788 217.98 4
-18 22 0 313.701 297.542 4
4 18 0 -107.953 185.596 6
-18 22 0 4.60581 191.738 6
-4 22 -1 -481.913 274.854 4
-4 22 1 96.8392 260.384 4
-18 22 -1 276.192 276.252 4
-18 22 1 58.9318 276.913 4
4 18 -1 36.2542 146.174 6
4 18 1 236.924 173.331 6
-4 22 1 50.5575 155.598 6
-18 22 1 98.2956 201.503 6
-4 22 -2 122.303 268.959 4
-4 22 2 94.7524 244.571 4
-18 22 -2 325.165 287.899 4
-18 22 2 325.378 295.699 4
4 18 2 42.9014 186.941 6
-4 22 2 129.074 192.471 6
-18 22 2 86.5397 210.64 6
-4 22 -3 484.261 252.061 4
-4 22 3 33.2281 215.841 4
-18 22 -3 621.105 297.508 4
-18 22 3 369.826 255.902 4
4 18 3 754.863 258.736 6
-4 22 3 307.506 197.893 6
-18 22 3 463.651 268.396 6
-4 22 -4 428.196 204.095 4
-4 22 4 85.4516 214.414 4
-18 22 -4 34.9891 248.233 4
-18 22 4 203.016 234.996 4
4 18 4 -157.353 198.409 6
-4 22 4 -18.8286 168.048 6
-18 22 4 -41.4872 232.147 6
-4 22 -5 1139.47 308.827 4
-4 22 5 926.272 276.704 4
-18 22 -5 606.059 253.198 4
-18 22 5 625.978 272.811 4
-18 -4 -5 1001.56 268.511 3
4 18 5 1089.61 269.947 6
-4 22 5 579.921 217.892 6
-18 22 5 1155.87 313.714 6
-18 22 -6 632.739 279.023 4
-18 22 6 1315.79 320.05 4
-22 18 -6 582.275 257.069 4
-22 18 6 285.961 215.92 4
-18 -4 -6 565.926 256.552 3
4 18 6 880.649 254.46 6
-4 22 6 881.941 228.283 6
-18 22 6 1223.89 329.344 6
-18 22 -7 1200.67 300.912 4
-18 22 7 823.258 264.504 4
-18 -4 -7 109.699 217.401 3
-22 18 -7 776.781 289.87 4
-22 18 7 604.246 260.078 4
4 18 7 617.761 235.804 6
-4 22 7 666.497 218.246 6
-18 22 7 914.175 281.376 6
-18 22 -8 150.221 195.009 4
-18 22 8 347.656 224.581 4
-18 -4 -8 48.8306 218.538 3
-22 18 -8 106.195 193.574 4
-22 18 8 -132.544 222.699 4
-4 -18 -8 128.215 177.528 3
4 18 8 633.801 225.094 6
-4 22 8 -1.45349 197.284 6
-18 22 8 20.4737 228.886 6
-18 22 -9 92.6049 161.277 4
-18 22 9 312.06 189.198 4
-18 -4 -9 344.009 262.813 3
-22 18 -9 281.369 186.53 4
-22 18 9 244.933 202.396 4
-4 -18 -9 -0.60916 174.29 3
4 18 9 488.96 231.225 6
-4 22 9 112.371 185.161 6
-18 22 9 616.378 268.979 6
-18 -4 -10 198.632 236.883 3
-4 -18 -10 143.272 153.264 3
4 18 10 109.797 211.721 6
-4 22 10 146.841 191.072 6
-18 22 10 359.211 226.415 6
-22 18 -11 146.831 162.559 5
-18 -4 -11 111.496 189.972 3
4 18 11 126.155 171.62 6
-4 22 11 240.158 175.203 6
-18 22 11 -161.841 217.322 6
-18 22 -11 -55.628 153.365 5
-22 18 -12 291.862 167.92 5
-18 -4 -12 133.014 174.024 3
4 18 12 622.385 205.748 6
-4 22 12 310.681 173.881 6
-18 22 12 520.926 232.526 6
-18 22 -12 156.465 171.57 5
-22 18 -13 -47.785 139.133 5
-18 -4 -13 -33.8255 177.61 3
4 18 13 49.0982 140.562 6
-4 22 13 94.7052 148.426 6
-18 22 13 338.183 191.344 6
-22 18 13 37.2358 208.584 6
-18 22 -13 -18.9272 141.376 5
-3 22 0 2614.78 386.912 4
-19 22 0 3233.82 449.085 4
3 19 0 2452.54 311.162 6
-19 22 0 2994.4 365.731 6
-3 22 1 4544.4 483.589 4
-3 22 -1 4278.84 460.205 4
-19 22 -1 4856.36 500.034 4
-19 22 1 4784.16 486.991 4
-22 19 -1 4598.17 496.362 4
-22 19 1 4945.9 505.329 4
3 19 -1 4441.86 385.876 6
3 19 1 4944.62 438.304 6
-3 22 1 4720.52 402.081 6
-19 22 1 4838.38 415.528 6
-3 22 -2 772.012 261.889 4
-3 22 2 1552.09 333.103 4
-19 22 -2 1007.92 337.715 4
-19 22 2 924.724 325.161 4
-22 19 -2 1031 286.144 4
-22 19 2 1242.04 339.573 4
3 19 2 978.478 238.891 6
-3 22 2 1225.32 244.811 6
-19 22 2 834.711 261.175 6
-19 22 -3 313.084 269.723 4
-19 22 3 988.246 307.774 4
-22 19 -3 938.23 323.334 4
-22 19 3 553.636 284.797 4
-19 -3 -3 532.069 196.341 3
3 19 3 462.841 217.107 6
-3 22 3 514.915 205.927 6
-19 22 3 432.386 231.912 6
-19 22 -4 58.3532 250.256 4
-19 22 4 94.9854 237.532 4
-22 19 -4 247.753 268.173 4
-22 19 4 -0.80983 250.888 4
-19 -3 -4 185.503 185.484 3
3 19 4 255.682 198.666 6
-3 22 4 125.483 185.224 6
-19 22 4 111.295 235.83 6
-19 22 -5 1310.28 313.552 4
-19 22 5 1110.47 276.304 4
-22 19 -5 1191.83 307.237 4
-22 19 5 1217.28 305.286 4
-19 -3 -5 1540.76 284.605 3
3 19 5 1571.71 297.305 6
-3 22 5 1515.62 288.825 6
-19 22 5 1547.23 308.584 6
-19 22 -6 705.726 234.113 4
-19 22 6 1033 267.895 4
-19 -3 -6 685.794 227.872 3
-22 19 -6 830.88 274.37 4
-22 19 6 1393.18 321.333 4
3 19 6 965.783 261.916 6
-3 22 6 874.801 227.424 6
-19 22 6 791.909 295.386 6
-22 19 -7 4080.57 420.603 4
-19 22 -7 3759.45 394.621 4
-19 22 7 3870.38 394.676 4
-22 19 7 4250.31 401.642 4
-19 -3 -7 3385.56 398.321 3
3 19 7 4294.14 405.433 6
-3 22 7 4087.76 393.955 6
-19 22 7 4999.35 460.565 6
-19 22 -8 1745.4 271.411 4
-19 22 8 2011.37 287.321 4
-19 -3 -8 1127.2 291.099 3
-22 19 -8 1941.92 293.402 4
-22 19 8 1756.18 330.324 4
3 19 8 1955 312.088 6
-3 22 8 1741.94 299.925 6
-19 22 8 2182.59 342.168 6
-19 22 -9 1710.93 265.744 4
-19 22 9 1927.1 269.973 4
-19 -3 -9 1194.78 305.574 3
-22 19 -9 1550.95 246.935 4
-22 19 9 1969.2 288.752 4
3 19 9 1816.29 278.889 6
-3 22 9 2032.41 292.2 6
-19 22 9 2550.69 357.262 6
-22 19 -10 431.652 175.875 5
-19 -3 -10 435.507 226.018 3
3 19 10 272.379 176.803 6
-3 22 10 394.636 191.466 6
-19 22 10 638.269 240.659 6
-22 19 -11 94.4316 143.687 5
-19 -3 -11 200.958 175.277 3
3 19 11 173.001 164.555 6
-3 22 11 393.391 179.343 6
-19 22 11 278.884 214.106 6
-22 19 -12 12.4728 140.665 5
-19 -3 -12 -92.2747 162.097 3
3 19 12 385.074 173.141 6
-3 22 12 -182.854 155.031 6
-19 22 12 111.681 171.841 6
-22 19 12 53.5841 222.002 6
-19 22 -12 75.044 138.943 5
-19 -3 -13 269.944 161.287 3
3 19 13 313.778 146.254 6
-3 22 13 332.524 151.457 6
-19 22 13 225.77 166.982 6
-22 19 13 -10.8942 176.985 6
-19 22 -13 -2.59949 117.769 5
-22 19 -13 127.613 141.889 5
-20 22 0 19445.3 887.934 4
-22 20 0 19660.7 890.364 4
2 20 0 19027.6 758.1 6
-20 22 0 19318.9 764.431 6
-20 22 -1 121.867 263.464 4
-20 22 1 -334.699 306.277 4
-22 20 -1 184.702 270.639 4
-22 20 1 -137.695 294.356 4
2 20 1 -67.2199 151.823 6
-2 22 1 106.124 139.098 6
-20 22 1 -144.921 193.856 6
-20 22 -2 9100.91 625.017 4
-20 22 2 8191.32 599.969 4
-22 20 -2 10724.7 662.801 4
-22 20 2 9335.81 633.822 4
2 20 2 8941.41 555.139 6
-2 22 2 9077.37 545.928 6
-20 22 2 9117.41 561.781 6
-20 22 -3 -14.7256 236.643 4
-20 22 3 -95.6603 236.746 4
-22 20 -3 567.826 315.048 4
-22 20 3 196.61 278.187 4
2 20 3 133.78 182.391 6
-2 22 3 237.111 152.736 6
-20 22 3 159.468 230.612 6
-20 22 -4 431.801 258.504 4
-20 22 4 396.102 272.59 4
-20 -2 -4 202.429 168.1 3
-22 20 -4 598.594 268.302 4
-22 20 4 644.258 270.414 4
2 20 4 886.875 252.029 6
-2 22 4 864.798 225.467 6
-20 22 4 824.171 281.008 6
-20 22 -5 -7.33449 225.832 4
-20 22 5 -93.1881 219.695 4
-20 -2 -5 -37.8504 162.439 3
-22 20 -5 -45.758 235.52 4
-22 20 5 -38.2423 218.413 4
2 20 5 -77.349 194.07 6
-2 22 5 -54.5992 169.434 6
-20 22 5 308.978 256.67 6
-20 22 -6 7411.64 533.357 4
-20 22 6 7541.07 526.765 4
-22 20 -6 7160.93 518.51 4
-22 20 6 7657.47 529.53 4
-20 -2 -6 7293.02 502.979 3
2 20 6 6927.29 485.947 6
-2 22 6 6740.5 481.846 6
-20 22 6 8307.36 549.565 6
-20 -2 -7 36.6095 173.328 3
-20 22 -7 437.9 236.093 4
-20 22 7 75.407 184.628 4
-22 20 -7 -34.7211 199.571 4
-22 20 7 425.999 208.035 4
2 20 7 242.068 198.309 6
-2 22 7 37.9175 181.456 6
-20 22 7 462.875 273.312 6
-20 22 -8 9028.63 532.764 4
-20 22 8 9516.07 536.826 4
-22 20 -8 9457.74 530.84 4
-22 20 8 10122.7 559.731 4
-20 -2 -8 9332.82 540.891 3
2 20 8 9796.31 562.248 6
-2 22 8 10237.3 572.805 6
-20 22 8 11138.5 624.387 6
-20 -2 -9 14.0783 160.614 3
-20 22 9 -176.84 167.245 4
-22 20 -9 21.1543 141.671 4
-22 20 9 13.0835 171.367 4
2 20 9 -87.4459 158.762 6
-2 22 9 242.892 174.376 6
-20 22 9 -271.35 242.326 6
-20 -2 -10 2450.79 293.904 3
2 20 10 2519.15 304.142 6
-2 22 10 2211.52 277.874 6
-20 22 10 2472.56 321.715 6
-22 20 10 3192.27 382.411 6
-20 -2 -11 28.1668 144.107 3
2 20 11 -81.4669 157.235 6
-2 22 11 274.472 177.929 6
-20 22 11 168.766 183.863 6
-22 20 11 209.775 211.855 6
-20 -2 -12 148.002 156.661 3
2 20 12 568.179 166.228 6
-2 22 12 293.404 148.612 6
-20 22 12 529.095 216.219 6
-22 20 12 631.328 211.425 6
-22 20 -12 186.074 132.345 5
-22 21 0 8790.31 608.369 4
1 21 0 7672.36 467.473 6
-21 22 0 7629.87 491.781 6
-21 22 -1 16202.3 799.647 4
-21 22 1 14559 749.564 4
-22 21 -1 15865.4 782.489 4
-22 21 1 16092.5 786.709 4
1 21 1 14659.9 659.631 6
-1 22 1 14794.9 645.322 6
-21 22 1 14034.4 664.393 6
-21 22 -2 4386.36 465.855 4
-21 22 2 3775.76 446.928 4
-22 21 -2 4252.09 455.45 4
-22 21 2 3857.14 430.025 4
1 21 2 4036.33 375.009 6
-1 22 2 3502.05 350.354 6
-21 22 2 3675.29 372.112 6
-21 22 -3 3398.3 419.613 4
-21 22 3 3522.97 427.498 4
-22 21 -3 3405.33 404.485 4
-22 21 3 3148.07 399.214 4
-1 22 3 3078.59 333.121 6
1 21 3 3095.92 330.745 6
-21 22 3 3076.38 358.827 6
-21 22 -4 -59.4524 223.313 4
-21 22 4 16.3619 227.916 4
-22 21 -4 -44.0601 228.593 4
-22 21 4 -163.858 235.916 4
1 21 4 -7.7083 156.79 6
-1 22 4 -20.8415 158.726 6
-21 22 4 -210.649 225.746 6
-21 22 -5 2418.63 355.716 4
-21 22 5 2804.51 365.677 4
-22 21 -5 2608.06 360.51 4
-22 21 5 2691.49 356.759 4
1 21 5 2317.46 309.06 6
-1 22 5 2034.82 283.832 6
-21 22 5 2433 351.79 6
-21 22 -6 1617.66 299.603 4
-21 22 6 1392.73 278.211 4
-22 21 -6 1376.78 281.993 4
-22 21 6 1448.39 280.467 4
1 21 6 1250.04 236.082 6
-1 22 6 1526.88 259.223 6
-21 22 6 1440.51 279.074 6
-21 22 -7 9935.83 557.255 4
-21 22 7 9589.58 553.869 4
-22 21 -7 9688.61 542.523 4
-22 21 7 9636.85 548.74 4
1 21 7 9432.52 537.362 6
-1 22 7 9529.33 543.136 6
-21 22 7 8974.92 567.654 6
-21 -1 -8 2496.4 281.693 3
-21 22 -8 2801.96 304.501 4
-21 22 8 2893.73 307.324 4
-22 21 -8 2579.46 301.204 4
-22 21 8 2824.46 306.665 4
1 21 8 2568.73 302.607 6
-1 22 8 3025.61 321.585 6
-21 22 8 3278.24 375.458 6
-22 21 8 2595.52 366.308 6
-21 -1 -9 3558.93 306.464 3
1 21 9 3891.9 348.036 6
-1 22 9 4514.3 373.017 6
-21 22 9 4723.12 418.474 6
-22 21 9 4527.38 420.121 6
-21 -1 -10 779.981 185.337 3
1 21 10 754.395 174.493 6
-1 22 10 1216.11 223.463 6
-21 22 10 1113.13 256.672 6
-22 21 10 1197.03 279.574 6
-21 -1 -11 142.777 113.972 3
1 21 11 103.999 142.929 6
-1 22 11 332.382 163.886 6
-21 22 11 679.579 214.957 6
-22 21 11 133.868 185.017 6
-22 22 0 2130.9 356.744 4
-22 22 -1 11352.2 653.712 4
-22 22 1 11323.4 653.699 4
0 22 1 10237 518.942 6
-22 22 1 9541.52 530.622 6
-22 22 -2 1578.68 325.106 4
-22 22 2 1605.09 321.269 4
0 22 2 1306 228.083 6
-22 22 2 964.955 229.947 6
-22 22 -3 1897.57 317.167 4
-22 22 3 2010.43 315.151 4
0 22 3 2535.25 304.377 6
-22 22 3 1802.55 309.877 6
-22 22 -4 517.993 265.219 4
-22 22 4 252.679 219.246 4
0 22 4 426.493 193.53 6
-22 22 4 220.016 223.83 6
-22 22 -5 758.535 251.242 4
-22 22 5 800.772 252.917 4
0 22 5 446.728 164.764 6
-22 22 5 343.919 211.736 6
-22 22 -6 2893.38 334.127 4
-22 22 6 2524.55 309.076 4
0 22 6 2747.32 300.23 6
-22 22 6 2768.23 348.833 6
-22 22 -7 4588.8 417.319 4
-22 22 7 5129.17 396.402 4
0 22 7 5633.74 403.003 6
-22 22 7 6033.67 450.962 6
-22 22 8 2293.93 265.775 4
0 22 8 2065.18 258.584 6
0 22 9 3457.95 309.38 6
-22 22 9 3601.47 360.646 6
0 22 10 1015.3 198.664 6
-22 22 10 1373.95 247.312 6
-11 23 0 1974 342.013 4
-12 23 0 1852.64 367.969 4
-11 23 -1 2928.65 393.813 4
-11 23 1 3174.95 433.449 4
-12 23 -1 2578.24 408.761 4
-12 23 1 3195.77 451.111 4
-11 23 1 3229.66 362.952 6
-12 23 1 2847.35 325.194 6
-11 23 -2 1128.42 294.921 4
-11 23 2 1324.49 318.922 4
-12 23 -2 1557.43 342.53 4
-12 23 2 1120.55 298.978 4
-11 23 2 1347.94 249.71 6
-12 23 2 1689.82 296.24 6
-11 23 -3 184.33 260.098 4
-11 23 3 457.178 270.811 4
-12 23 -3 659.838 278.402 4
-12 23 3 434.827 238.589 4
-11 23 3 485.883 230.287 6
-12 23 3 417.004 196.716 6
-11 23 -4 907.009 298.493 4
-11 23 4 788.057 284.947 4
-12 23 -4 719.634 275.512 4
-12 23 4 614.584 265.179 4
-11 23 4 1444.17 301.343 6
-12 23 4 458.847 214.37 6
-11 23 -5 504.309 242.164 4
-11 23 5 218.627 214.99 4
-12 23 -5 568.596 236.405 4
-12 23 5 648.43 278.559 4
-11 23 5 190.873 187.341 6
-12 23 5 -143.124 192.932 6
-11 23 -6 449.25 244.654 4
-11 23 6 454.581 217.156 4
-12 23 -6 746.235 265.456 4
-12 23 6 618.36 229.942 4
-11 23 6 580.026 243.484 6
-12 23 6 532.823 239.692 6
-11 23 -7 1586.38 296.602 4
-11 23 7 1108.17 255.706 4
-12 23 -7 1799.72 323.051 4
-12 23 7 1615.16 289.026 4
-11 23 7 1670.53 300.93 6
-12 23 7 1947.54 312.313 6
-11 23 -8 372.555 211.727 4
-11 23 8 348.529 200.132 4
-12 23 -8 571.713 237.889 4
-12 23 8 458.865 198.147 4
-11 23 8 708.901 239.127 6
-12 23 8 646.714 230.629 6
-11 23 -9 492.316 174.377 4
-11 23 9 762.357 216.719 4
-12 23 -9 954.039 238.657 4
-12 23 9 855.271 240.601 4
-12 -11 -9 826.584 312.089 3
-11 -12 -9 882.183 263.764 3
-11 23 9 502.807 208.018 6
-12 23 9 627.018 230.906 6
-12 -11 -10 509.032 238.692 3
-11 -12 -10 636.905 262.396 3
-11 23 10 344.1 211.794 6
-12 23 10 291.392 199.999 6
-12 -11 -11 26.3684 207.199 3
-11 -12 -11 183.903 213.158 3
-11 23 11 140.211 180.673 6
-12 23 11 -81.375 177.418 6
-12 -11 -12 277.075 204.443 3
-11 -12 -12 302.721 215.553 3
-11 23 12 312.481 196.438 6
-12 23 12 215.275 180.219 6
-12 -11 -13 2.73539 173.149 3
-11 -12 -13 260.758 167.693 3
-12 23 13 429.87 171.052 6
-12 -11 -14 -22.6349 156.785 3
-11 -12 -14 -221.246 171.188 3
-11 23 14 -71.2873 156.504 6
-12 23 14 121.089 144.589 6
-10 23 0 1358.62 323.704 4
-13 23 0 1445.94 350.1 4
-10 23 -1 675.091 273.425 4
-10 23 1 450.214 232.086 4
-13 23 -1 1222.55 320.481 4
-13 23 1 1069.27 284.51 4
-10 23 1 1046.73 210.226 6
-13 23 1 647.512 196.742 6
-10 23 -2 869.387 268.739 4
-10 23 2 1036.39 306.349 4
-13 23 -2 954.044 332.057 4
-13 23 2 382.856 243.365 4
-10 23 2 886.937 236.984 6
-13 23 2 875.293 233.318 6
-10 23 -3 3601.91 446.526 4
-10 23 3 3763.37 441.427 4
-13 23 -3 3271.22 435.866 4
-13 23 3 3869.94 446.141 4
-13 23 3 3456.66 388.056 6
-10 23 3 3421.16 376.465 6
-10 23 -4 146.7 231.188 4
-10 23 4 342.561 253.339 4
-13 23 -4 3.12008 220.1 4
-13 23 4 -45.6054 215.249 4
-10 23 4 56.2116 175.731 6
-13 23 4 -199.376 220.086 6
-10 23 -5 2329.45 368.844 4
-10 23 5 2267.36 348.46 4
-13 23 -5 3298.87 412.888 4
-13 23 5 2382.05 347.078 4
-10 23 5 2535.47 360.036 6
-13 23 5 1720.15 295.41 6
-10 23 -6 681.235 261.012 4
-10 23 6 341.092 194.146 4
-13 23 -6 253.233 216.714 4
-13 23 6 527.056 249.526 4
-10 23 6 640.515 245.565 6
-13 23 6 367.509 220.409 6
-10 23 -7 478.176 199.613 4
-10 23 7 512.519 203.63 4
-13 23 -7 537.38 232.391 4
-13 23 7 696.91 256.016 4
-10 23 7 534.715 237.812 6
-13 23 7 477.011 238.196 6
-10 23 -8 614.861 211.823 4
-10 23 8 332.417 188.276 4
-13 23 -8 1073.44 255.2 4
-13 23 8 643.443 225.186 4
-13 -10 -8 1047.79 312.587 3
-10 23 8 766.94 236.533 6
-13 23 8 304.021 216.113 6
-10 23 -9 1066.14 232.827 4
-10 23 9 653.925 202.001 4
-13 23 -9 781.122 214.18 4
-13 23 9 965.321 221.32 4
-13 -10 -9 674.52 300.58 3
-10 -13 -9 837.39 283.473 3
-10 23 9 543.845 223.636 6
-13 23 9 887.336 257.569 6
-13 -10 -10 397.352 237.711 3
-10 -13 -10 474.717 228.525 3
-10 23 10 -3.13756 199.346 6
-13 23 10 107.456 198.348 6
-13 -10 -11 1217.13 292.162 3
-10 -13 -11 1018.21 262.321 3
-10 23 11 928.533 241.182 6
-13 23 11 1048.01 248.458 6
-13 -10 -12 135.436 206.911 3
-10 -13 -12 -68.0024 197.926 3
-10 23 12 -195.651 175.715 6
-13 23 12 117.976 181.449 6
-13 -10 -13 46.8858 185.303 3
-10 -13 -13 323.509 181.318 3
-10 23 13 716.627 220.123 6
-13 23 13 542.226 213.337 6
-13 -10 -14 15.9756 159.747 3
-10 -13 -14 -85.4598 148.614 3
-10 23 14 4.81594 134.476 6
-13 23 14 110.388 141.827 6
-9 23 0 1339.13 323.576 4
-14 23 0 814.743 289.149 4
-9 23 -1 299.019 270.777 4
-9 23 1 486.361 282.264 4
-14 23 -1 122.352 257.015 4
-14 23 1 120.213 244.606 4
-9 23 1 343.418 184.946 6
-14 23 1 153.03 178.863 6
-9 23 -2 1809.78 357.948 4
-9 23 2 1891.32 335.82 4
-14 23 -2 2275.83 369.512 4
-14 23 2 2314.98 373.742 4
-9 23 2 2293.6 320.511 6
-14 23 2 2148.75 317.821 6
-9 23 -3 1610.64 318.969 4
-9 23 3 1441.52 304.689 4
-14 23 -3 1425.42 322.81 4
-14 23 3 1077.38 299.42 4
-9 23 3 1515.14 273.348 6
-14 23 3 882.093 231.737 6
-9 23 -4 5323.34 503.868 4
-9 23 4 5113.85 479.557 4
-14 23 -4 5689.99 524.113 4
-14 23 4 5500.1 512.035 4
-9 23 4 5404.39 463.918 6
-14 23 4 4633.8 441.766 6
-9 23 -5 895.564 259.19 4
-9 23 5 1002.33 274.901 4
-14 23 -5 1064.76 295.912 4
-14 23 5 1025.57 283.461 4
9 14 5 1086.05 290.386 6
-9 23 5 1071.39 253.035 6
-14 23 5 964.363 266.15 6
-9 23 -6 1417.48 299.264 4
-9 23 6 1507.06 279.719 4
-14 23 -6 1482.18 292.16 4
-14 23 6 1251.27 274.004 4
9 14 6 1919.23 339.369 6
-9 23 6 1637.42 293.737 6
-14 23 6 1751.25 335.111 6
-9 23 -7 200.892 172.776 4
-9 23 7 257.535 179.323 4
-14 23 -7 354.028 226.643 4
-14 23 7 497.136 234.619 4
9 14 7 620.577 267.841 6
-9 23 7 418.024 199.22 6
-14 23 7 246.808 208.718 6
-9 23 -8 164.39 166.205 4
-9 23 8 404.582 198.669 4
-14 23 -8 222.776 189.734 4
-14 23 8 410.695 202.799 4
-14 -9 -8 403.474 252.103 3
9 14 8 649.965 245.053 6
-9 23 8 328.544 211.767 6
-14 23 8 564.993 257.796 6
-9 23 -9 299.785 186.071 4
-9 23 9 508.681 189.356 4
-14 23 -9 245.021 177.339 4
-14 23 9 492.457 198.272 4
-14 -9 -9 688.942 269.738 3
-9 -14 -9 370.696 223.976 3
-9 23 9 624.278 225.227 6
-14 23 9 579.737 244.514 6
-14 -9 -10 1978.54 387.829 3
-9 -14 -10 1512.14 282.785 3
-9 23 10 1829.74 292.891 6
-14 23 10 2046.14 322.282 6
-14 -9 -11 544.979 232.429 3
-9 -14 -11 574.985 213.903 3
-9 23 11 310.871 176.679 6
-14 23 11 737.584 225.176 6
-14 -9 -12 1926.42 319.681 3
-9 -14 -12 1733.59 282.405 3
-9 23 12 1860.34 259.796 6
-14 23 12 1715.62 285.036 6
-14 -9 -13 671.706 223.191 3
-9 -14 -13 372.366 177.432 3
-9 23 13 469.519 173.531 6
-14 23 13 797.896 214.895 6
-14 -9 -14 154.39 174.927 3
-9 -14 -14 410.539 160.419 3
-9 23 14 221.259 145.031 6
-14 23 14 683.577 194.777 6
-8 23 0 -310.833 267.126 4
-15 23 0 90.9784 262.816 4
-8 23 -1 1510.21 318.49 4
-8 23 1 1953.96 363.165 4
-15 23 -1 2224.66 371.516 4
-15 23 1 1293.82 330.107 4
-8 23 1 1912.47 279.448 6
-15 23 1 1568.14 275.993 6
-8 23 -2 827.4 285.897 4
-8 23 2 758.105 276.187 4
-15 23 -2 668.021 287.704 4
-15 23 2 280.083 253.008 4
-8 23 2 798.836 237.822 6
-15 23 2 507.912 204.519 6
-8 23 -3 974.391 289.251 4
-8 23 3 670.571 273.219 4
-15 23 -3 475.566 276.961 4
-15 23 3 672.947 292.688 4
8 15 3 885.715 230.38 6
-8 23 3 605.913 182.372 6
-15 23 3 968.211 250.067 6
-8 23 -4 2520.82 376.236 4
-8 23 4 2056.96 362.471 4
-15 23 -4 2238.85 375.835 4
-15 23 4 2399.3 376.376 4
8 15 4 2451.71 352.81 6
-8 23 4 2048.87 314.263 6
-15 23 4 2276.1 319.514 6
-8 23 -5 904.503 288.083 4
-8 23 5 1472.59 305.262 4
-15 23 -5 1634.57 325.012 4
-15 23 5 1061.03 287.226 4
8 15 5 1294.34 299.626 6
-8 23 5 1319.7 287.059 6
-15 23 5 1045.77 262.594 6
-8 23 -6 307.677 207.214 4
-8 23 6 527.921 245.415 4
-15 23 -6 425.924 232.154 4
-15 23 6 728.703 270.533 4
8 15 6 675.037 237.468 6
-8 23 6 761.521 234.516 6
-15 23 6 784.583 245.814 6
-8 23 -7 1049.82 247.577 4
-8 23 7 1331.88 289.343 4
-15 23 -7 923.462 258.302 4
-15 23 7 1022.3 262.581 4
-15 -8 -7 899.065 285.834 3
8 15 7 826.38 250.141 6
-8 23 7 1050.83 270.573 6
-15 23 7 1660.13 318.429 6
-8 23 -8 657.624 217.327 4
-8 23 8 586.702 228.527 4
-15 23 -8 630.479 209.463 4
-15 23 8 872.327 248.188 4
-15 -8 -8 350.183 259.373 3
8 15 8 137.187 215.931 6
-8 23 8 98.3754 187.392 6
-15 23 8 618.568 259.315 6
-8 23 -9 480.605 210.169 4
-8 23 9 509.283 189.9 4
-15 23 -9 120.617 167.48 4
-15 23 9 253.605 167.015 4
-15 -8 -9 81.2136 218.955 3
-8 -15 -9 451.361 243.456 3
8 15 9 686.688 249.786 6
-8 23 9 437.169 236.952 6
-15 23 9 183.583 203.586 6
-15 -8 -10 1600.74 316.445 3
-8 -15 -10 1071.43 250.334 3
8 15 10 1092.23 252.543 6
-8 23 10 1258.93 268.21 6
-15 23 10 1252.9 280.145 6
-15 23 -10 406.141 196.871 5
-15 -8 -11 737.51 249.14 3
-8 -15 -11 514.648 205.35 3
-8 23 11 214.248 178.09 6
-15 23 11 598.403 221.271 6
-15 23 -11 154.196 173.55 5
-15 -8 -12 986.346 256.688 3
-8 -15 -12 1052.46 224.757 3
-8 23 12 1081.45 221.596 6
-15 23 12 1234.31 255.182 6
-15 23 -12 615.698 232.711 5
-15 -8 -13 646.467 209.598 3
-8 -15 -13 537.78 200.946 3
-8 23 13 1273.43 224.036 6
-15 23 13 1149.79 223.154 6
-8 -15 -14 199.219 130.065 3
-15 -8 -14 334.929 174.713 3
-8 23 14 494.386 147.341 6
-15 23 14 627.379 169.503 6
-7 23 0 5462.01 512.344 4
-16 23 0 5748.32 526.501 4
-7 23 -1 1787.4 342.702 4
-7 23 1 2063.48 345.71 4
-16 23 -1 1831.45 353.465 4
-16 23 1 2384.92 386.631 4
-7 23 1 2152.27 283.781 6
-16 23 1 2261.51 300.355 6
-7 23 -2 2159.18 368.184 4
-7 23 2 1905.54 350.015 4
-16 23 -2 1988.32 370.099 4
-16 23 2 2027.64 398.08 4
7 16 2 1515.76 284.66 6
-7 23 2 2322.6 309.674 6
-16 23 2 2233 321.815 6
-7 23 -3 232.773 229.152 4
-7 23 3 65.9896 227.188 4
-16 23 -3 430.237 281.394 4
-16 23 3 237.357 255.894 4
7 16 3 188.742 200.583 6
-7 23 3 365.999 209.059 6
-16 23 3 444.069 209.18 6
-7 23 -4 63.704 220.821 4
-7 23 4 589.469 262.477 4
-16 23 -4 451.037 250.759 4
-16 23 4 -69.2413 230.221 4
7 16 4 139.789 206.818 6
-7 23 4 430.419 204.916 6
-16 23 4 374.329 227.624 6
-7 23 -5 714.126 265.946 4
-7 23 5 580.643 250.852 4
-16 23 -5 640.252 269.878 4
-16 23 5 554.452 271.497 4
7 16 5 786.201 235.162 6
-7 23 5 962.868 254.927 6
-16 23 5 887.03 285.352 6
-7 23 -6 1360.82 289.767 4
-7 23 6 1270.38 257.042 4
-16 23 -6 1567.93 321.579 4
-16 23 6 1027.49 260.993 4
7 16 6 1002.03 244.887 6
-7 23 6 1093.51 256.352 6
-16 23 6 1283.04 285.401 6
-7 23 -7 -18.4206 178.518 4
-7 23 7 -79.3621 179.436 4
-16 23 -7 186.901 206.06 4
-16 23 7 -13.3419 197.71 4
-16 -7 -7 104.89 212.744 3
7 16 7 -147.792 212.794 6
-7 23 7 -220.41 197.378 6
-16 23 7 -15.2863 204.669 6
-7 23 -8 1784.05 282.27 4
-7 23 8 1830.47 275.999 4
-16 23 -8 2031.2 289.726 4
-16 23 8 2030.22 295.034 4
-16 -7 -8 1931.28 310.948 3
7 16 8 2041.51 322.927 6
-7 23 8 1515.25 268.12 6
-16 23 8 2441.74 341.201 6
-16 23 -9 594.686 188.836 4
-16 23 9 198.632 160.462 4
-16 -7 -9 668.4 249.483 3
-23 16 -9 469.371 201.912 4
-23 16 9 210.494 188.148 4
-7 -16 -9 201.837 213.238 3
7 16 9 58.5233 185.659 6
-7 23 9 416.278 208.285 6
-16 23 9 1086.01 309.241 6
-16 -7 -10 975.861 257.45 3
-7 -16 -10 1380.39 261.004 3
7 16 10 1196.02 245.927 6
-7 23 10 744.974 223.252 6
-16 23 10 1623.22 295.997 6
-16 23 -10 928.414 192.902 5
-16 -7 -11 691.949 241.926 3
-7 -16 -11 340.908 202.093 3
7 16 11 977.594 214.7 6
-7 23 11 1128.62 238.676 6
-16 23 11 955.268 247.716 6
-16 23 -11 387.132 184.088 5
-16 -7 -12 -76.5535 177.559 3
-7 -16 -12 14.6264 143.434 3
-7 23 12 -12.9601 145.528 6
-16 23 12 20.0514 167.473 6
-16 23 -12 58.3403 138.049 5
-16 -7 -13 51.7234 171.891 3
-7 -16 -13 86.7749 132.536 3
-7 23 13 298.81 161.761 6
-16 23 13 114.937 162.636 6
-16 23 -13 353.707 167.292 5
-6 23 0 3810.78 435.49 4
-17 23 0 3569.59 447.907 4
-6 23 -1 2481.58 373.968 4
-6 23 1 2756.02 376.286 4
-17 23 -1 2830.98 435.645 4
-17 23 1 2818.2 406.476 4
6 17 1 2837.22 352.178 6
-6 23 1 2071.51 290.568 6
-17 23 1 2872.37 347.995 6
-6 23 -2 1477.27 319.687 4
-6 23 2 1245.7 301.856 4
-17 23 -2 1254.8 298.685 4
-17 23 2 1436.97 341.451 4
6 17 2 1092.55 263.325 6
-6 23 2 1431.01 246.684 6
-17 23 2 1373.65 277.087 6
-6 23 -3 752.759 256.187 4
-6 23 3 476.175 259.971 4
-17 23 -3 622.221 232.236 4
-17 23 3 801.002 282.988 4
6 17 3 598.67 218.4 6
-6 23 3 656.212 216.075 6
-17 23 3 836.707 254.407 6
-6 23 -4 1171.42 301.865 4
-6 23 4 1169.49 283.828 4
-17 23 -4 1612.73 353.749 4
-17 23 4 1407.87 306.686 4
6 17 4 1377.88 293.462 6
-6 23 4 1763.5 295.061 6
-17 23 4 1519.41 298.676 6
-6 23 -5 510.179 245.777 4
-6 23 5 65.4905 194.135 4
-17 23 -5 494.83 253.159 4
-17 23 5 242.236 223.623 4
6 17 5 536.282 220.104 6
-6 23 5 362.717 197.466 6
-17 23 5 107.6 229.327 6
-6 23 -6 612.436 249.427 4
-6 23 6 437.078 218.138 4
-17 23 -6 910.273 274.76 4
-17 23 6 1003.69 274.411 4
-17 -6 -6 42.0208 213.934 3
6 17 6 791.105 239.069 6
-6 23 6 393.958 208.937 6
-17 23 6 801.206 266.766 6
-6 23 7 950.453 229.945 4
-17 23 -7 858.904 242.961 4
-17 23 7 971.366 240.842 4
-17 -6 -7 614.463 270.641 3
-23 17 -7 1320.87 288.385 4
-23 17 7 1124.49 270.95 4
6 17 7 779.643 256.337 6
-6 23 7 823.27 220.128 6
-17 23 7 986.614 256.512 6
-17 23 -8 532.405 178.407 4
-17 23 8 750.789 212.116 4
-17 -6 -8 1188.13 281.74 3
-23 17 -8 1013.27 247.109 4
-23 17 8 971.774 244.8 4
-6 -17 -8 979.795 246.672 3
6 17 8 1319.22 288.281 6
-6 23 8 731.93 224.682 6
-17 23 8 790.141 257.801 6
-17 23 -9 1037.62 205.378 4
-17 23 9 948.667 198.673 4
-17 -6 -9 1193.63 273.218 3
-23 17 -9 786.9 215.218 4
-23 17 9 799.333 214.262 4
-6 -17 -9 963.029 214.82 3
6 17 9 970.897 228.351 6
-6 23 9 1007.06 239.646 6
-17 23 9 1300.18 282.269 6
-17 -6 -10 730.767 230.818 3
-6 -17 -10 604.442 217.695 3
6 17 10 815.647 203.208 6
-6 23 10 769.602 196.871 6
-17 23 10 742.013 231.342 6
-17 -6 -11 250.349 192.038 3
-6 -17 -11 162.955 159.435 3
6 17 11 166.565 170.248 6
-6 23 11 411.098 181.599 6
-17 23 11 358.935 205.564 6
-17 23 -11 155.792 153.779 5
-17 -6 -12 96.3815 193.229 3
-6 -17 -12 3.17017 120.639 3
6 17 12 -6.88585 133.106 6
-6 23 12 -105.926 150.477 6
-17 23 12 333.785 185.543 6
-17 23 -12 44.2027 125.59 5
-23 17 -13 29.4896 144.039 5
-17 -6 -13 -198.03 171.703 3
-6 23 13 -180.368 145.821 6
-17 23 13 59.8648 144.815 6
-23 17 13 -47.1955 188.835 6
-17 23 -13 -82.0258 123.326 5
-5 23 0 181.634 246.538 4
-18 23 0 240.599 295.732 4
-5 23 -1 3508.96 430.967 4
-5 23 1 3235.59 419.735 4
-18 23 -1 3382.29 441.36 4
-18 23 1 3078.1 421.644 4
5 18 1 3381.47 359.892 6
-5 23 1 3015.9 336.479 6
-18 23 1 3805.44 363.769 6
-5 23 -2 956.614 266.309 4
-5 23 2 827.538 270.894 4
-18 23 -2 991.665 302.16 4
-18 23 2 763.97 291.355 4
5 18 2 882.063 230.337 6
-5 23 2 990.025 238.196 6
-18 23 2 701.581 214.88 6
-5 23 -3 1107.28 286.457 4
-5 23 3 1422.09 309.178 4
-18 23 -3 1638.49 323.141 4
-18 23 3 1233.88 332.863 4
5 18 3 1531.51 282.424 6
-5 23 3 1367.38 251.981 6
-18 23 3 1162.48 257.777 6
-5 23 -4 1934.61 345.588 4
-5 23 4 1697.78 321.053 4
-18 23 -4 2207.46 380.67 4
-18 23 4 1892.76 325.718 4
-18 -5 -4 1529.22 317.642 3
5 18 4 1803.51 307.664 6
-5 23 4 2071 291.71 6
-18 23 4 1881.17 313.532 6
-5 23 -5 1534.97 294.182 4
-5 23 5 1485.05 299.477 4
-18 23 -5 1242.76 298.892 4
-18 23 5 1398.65 304.317 4
-23 18 -5 1439.1 315.459 4
-23 18 5 1855.31 341.7 4
-18 -5 -5 970.325 265.082 3
5 18 5 1380.32 292.999 6
-5 23 5 1640.5 287.643 6
-18 23 5 1387.29 287.889 6
-18 23 -6 655.438 249.062 4
-18 23 6 629.251 221.262 4
-23 18 -6 206.489 213.717 4
-23 18 6 317.837 209.286 4
-18 -5 -6 107.271 217.282 3
5 18 6 350.564 222.849 6
-5 23 6 285.573 189.473 6
-18 23 6 279.65 203.27 6
-18 23 -7 452.151 230.527 4
-18 23 7 -39.6254 181.051 4
-18 -5 -7 145.189 231.648 3
-23 18 -7 174.987 192.481 4
-23 18 7 203.348 204.615 4
5 18 7 21.0125 176.186 6
-5 23 7 394.017 197.828 6
-18 23 7 139.28 206.879 6
-18 23 -8 -84.1694 166.071 4
-18 23 8 88.9887 175.511 4
-18 -5 -8 -53.7888 215.513 3
-23 18 -8 293.319 203.215 4
-23 18 8 -338.643 211.923 4
-5 -18 -8 136.637 157.991 3
5 18 8 -65.6389 186.993 6
-5 23 8 -141.37 177.576 6
-18 23 8 72.2719 200.118 6
-18 23 -9 607.199 203.191 4
-18 23 9 710.615 182.126 4
-18 -5 -9 665.115 248.425 3
-23 18 -9 616.555 211.692 4
-23 18 9 808.085 199.163 4
-5 -18 -9 905.505 234.205 3
5 18 9 630.768 203.033 6
-5 23 9 1128.3 231.188 6
-18 23 9 990.726 239.21 6
-23 18 -10 51.2318 142.774 5
-18 -5 -10 512.37 230.714 3
-5 -18 -10 243.863 158.743 3
5 18 10 -74.4745 184.541 6
-5 23 10 250.134 183.239 6
-18 23 10 10.0518 180.23 6
-23 18 -11 30.5733 148.457 5
-18 -5 -11 843.324 219.558 3
5 18 11 481.279 176.402 6
-5 23 11 237.036 154.972 6
-18 23 11 603.75 212.359 6
-23 18 -12 248.606 147.117 5
-18 -5 -12 -78.5098 148.171 3
5 18 12 96.6959 142.182 6
-5 23 12 291.866 163.552 6
-18 23 12 200.939 169.45 6
-18 23 -12 27.652 101.878 5
-4 23 0 581.263 279.352 4
-19 23 0 541.692 282.272 4
-4 23 -1 1036.07 312.562 4
-4 23 1 945.642 271.106 4
-19 23 -1 872.858 310.516 4
-19 23 1 775.476 285.979 4
-23 19 -1 782.501 299.845 4
-23 19 1 881.878 307.594 4
4 19 1 976.178 217.454 6
-4 23 1 917.577 206.305 6
-19 23 1 706.915 214.945 6
-19 23 -2 424.149 284.172 4
-19 23 2 495.403 282.12 4
-23 19 -2 334.604 267.628 4
-23 19 2 424.338 287.178 4
4 19 2 382.822 177.02 6
-4 23 2 662.745 203.438 6
-19 23 2 108.915 177.531 6
-19 23 -3 2193.41 361.248 4
-19 23 3 2711.53 386.24 4
-23 19 -3 3039.33 418.776 4
-23 19 3 2814.63 373.76 4
-19 -4 -3 2718.13 331.613 3
4 19 3 2445.81 323.62 6
-4 23 3 2186.33 295.277 6
-19 23 3 2677.69 345.427 6
-19 23 -4 452.971 253.166 4
-19 23 4 289.211 257.145 4
-23 19 -4 277.252 251.773 4
-23 19 4 477.158 251.584 4
-19 -4 -4 335.959 196.121 3
4 19 4 102.9 170.298 6
-19 23 4 -203.744 226.484 6
-19 23 -5 2403.47 351.171 4
-19 23 5 2285.84 334.2 4
-23 19 -5 3143.84 391.313 4
-23 19 5 2783.89 381.949 4
-19 -4 -5 1504.52 301.384 3
4 19 5 2540.36 326.645 6
-4 23 5 1946.89 283.204 6
-19 23 5 2823.93 350.052 6
-19 23 -6 386.65 220.785 4
-19 23 6 547.38 236.66 4
-19 -4 -6 183.595 179.747 3
-23 19 -6 74.1002 211.312 4
-23 19 6 688.059 256.288 4
4 19 6 125.45 182.421 6
-4 23 6 -43.4436 161.524 6
-19 23 6 328.402 240.548 6
-19 23 -7 150.673 175.554 4
-19 23 7 394.017 191.104 4
-19 -4 -7 127.16 193.65 3
-23 19 -7 -437.215 234.626 4
-23 19 7 68.5471 194.02 4
-4 -19 -7 -12.7831 152.754 3
4 19 7 44.0331 170.464 6
-4 23 7 -100.539 179.711 6
-19 23 7 304.152 219.546 6
-19 23 -8 -134.352 169.63 4
-19 23 8 307.369 167.576 4
-19 -4 -8 104.177 179.527 3
-23 19 -8 241.265 176.954 4
-23 19 8 347.429 188.752 4
-4 -19 -8 216.174 161.397 3
4 19 8 226.522 182.012 6
-4 23 8 15.8802 159.787 6
-19 23 8 58.3081 210.353 6
-19 -4 -9 410.206 200.572 3
4 19 9 240.813 174.207 6
-4 23 9 386.79 181.799 6
-19 23 9 453.224 219.482 6
-19 -4 -10 -41.6558 169.268 3
4 19 10 39.8718 149.394 6
-4 23 10 204.949 162.803 6
-19 23 10 313.654 200.97 6
-19 -4 -11 535.304 178.089 3
4 19 11 879.32 206.958 6
-4 23 11 412.436 167.627 6
-19 23 11 727.605 220.841 6
-19 -4 -12 29.0778 151.86 3
4 19 12 262.993 137.418 6
-4 23 12 -163.36 142.883 6
-19 23 12 -188.964 172.251 6
-23 19 12 378.205 198.188 6
-23 19 -12 -97.6068 111.934 5
-20 23 0 562.55 285.117 4
-23 20 0 412.695 272.495 4
-20 23 -1 2772.69 385.146 4
-20 23 1 3075.65 395.266 4
-23 20 -1 3217.5 394.124 4
-23 20 1 4123.51 446.018 4
3 20 1 3443.85 339.103 6
-3 23 1 2938.05 300.227 6
-20 23 1 2456.42 292.059 6
-20 23 -2 801.132 283.769 4
-20 23 2 1078.96 305.485 4
-23 20 -2 1275.33 313.172 4
-23 20 2 906.628 274.712 4
3 20 2 1240.69 250.224 6
-3 23 2 929.944 209.132 6
-20 23 2 621.859 209.88 6
-20 23 -3 667.964 254.652 4
-20 23 3 1001.48 286.073 4
-23 20 -3 631.908 269.341 4
-23 20 3 1194.76 322.434 4
-20 -3 -3 970.96 224.52 3
3 20 3 873.927 227.434 6
-3 23 3 1022.4 223.18 6
-20 23 3 717.081 217.668 6
-20 23 -4 1894.9 338.997 4
-20 23 4 1718.97 301.925 4
-20 -3 -4 1303.61 237.049 3
-23 20 -4 1465.1 313.892 4
-23 20 4 1987.62 319.558 4
3 20 4 1462.45 272.141 6
-3 23 4 1869.87 279.641 6
-20 23 4 1479.94 263.197 6
-20 23 -5 1232.62 285.257 4
-20 23 5 1186.9 271.602 4
-20 -3 -5 1289.21 253.582 3
-23 20 -5 688.551 249.292 4
-23 20 5 1268.46 308.73 4
3 20 5 1183.8 232.308 6
-3 23 5 1596.13 269.338 6
-20 23 5 1381.04 274.74 6
-20 23 -6 773.608 243.655 4
-20 23 6 1077.6 213.74 4
-20 -3 -6 321.382 169.686 3
-23 20 -6 547.644 225.903 4
-23 20 6 878.97 256.641 4
3 20 6 715.054 209.49 6
-3 23 6 394.006 180.757 6
-20 23 6 790.938 246.013 6
-20 23 -7 1958.39 288.587 4
-20 23 7 2143.59 297.503 4
-20 -3 -7 1957.57 274.247 3
-23 20 -7 2161.52 298.803 4
-23 20 7 1490.4 267.037 4
3 20 7 2075.95 275.302 6
-3 23 7 1548.5 250.945 6
-20 23 7 2275.52 325.72 6
-20 23 -8 90.2967 139.245 4
-20 -3 -8 362.563 181.796 3
-20 23 8 21.9838 149.738 4
-23 20 -8 177.864 182.507 4
-23 20 8 658.434 196.128 4
3 20 8 551.133 197.233 6
-3 23 8 154.837 158.101 6
-20 23 8 278.054 201.056 6
-20 -3 -9 587.717 193.202 3
3 20 9 274.414 153.839 6
-3 23 9 520.174 188.996 6
-20 23 9 848.289 248.603 6
-20 -3 -10 792.088 204.401 3
3 20 10 671.049 189.775 6
-3 23 10 417.243 172.649 6
-20 23 10 827.829 217.411 6
-23 20 10 194.892 213.309 6
-20 -3 -11 381.545 155.244 3
3 20 11 -49.9723 135.77 6
-3 23 11 -318.309 153.847 6
-20 23 11 16.3111 153.594 6
-23 20 11 -25.2689 193.96 6
-21 23 0 2268.7 351.899 4
-23 21 0 2515.05 373.352 4
-21 23 -1 6220.32 496.903 4
-21 23 1 6043.16 484.642 4
-23 21 -1 6116.28 502.682 4
-23 21 1 5743.08 485.199 4
2 21 1 5878.74 407.801 6
-21 23 1 6438.82 430.757 6
-21 23 -2 1704.94 317.719 4
-21 23 2 1884.67 327.328 4
-23 21 -2 1847.98 333.419 4
-23 21 2 1923.41 345.592 4
2 21 2 1353.31 227.805 6
-2 23 2 1831.01 231.104 6
-21 23 2 1708.5 265.439 6
-21 23 -3 572.401 245.29 4
-21 23 3 1119.97 300.215 4
-23 21 -3 829.155 272.154 4
-23 21 3 465.453 246.545 4
2 21 3 674.545 179.252 6
-2 23 3 861.133 213.253 6
-21 23 3 433.945 199.582 6
-21 23 -4 -87.2007 206.894 4
-21 23 4 -4.46822 194.079 4
-23 21 -4 279.281 242.875 4
-23 21 4 321.024 240.192 4
2 21 4 250.675 172.126 6
-2 23 4 -26.0261 143.594 6
-21 23 4 -190.601 206.815 6
-21 23 -5 2057.45 301.205 4
-21 23 5 1764.16 289.989 4
-23 21 -5 1938.86 312.588 4
-23 21 5 2054.29 302.699 4
2 21 5 1564.24 240.758 6
-2 23 5 1559.14 245.589 6
-21 23 5 1429.54 260.296 6
-21 23 -6 876.888 224.861 4
-21 23 6 837.035 223.413 4
-23 21 -6 1313.29 263.731 4
-23 21 6 1032.6 261.469 4
2 21 6 648.26 195.841 6
-2 23 6 962.625 212.352 6
-21 23 6 1015.98 251.981 6
-21 23 -7 2568.37 326.142 4
-21 23 7 3236.85 315.471 4
-23 21 -7 3246.29 317.386 4
-23 21 7 3104.17 321.501 4
-21 -2 -7 3145.8 293.929 3
2 21 7 3345.02 315.28 6
-2 23 7 3077.14 311.73 6
-21 23 7 3890.71 361.121 6
-21 -2 -8 727.903 176.152 3
-21 23 -8 224.726 155.382 4
-21 23 8 740.746 179.438 4
-23 21 -8 518.172 190.984 4
-23 21 8 462.498 185.749 4
2 21 8 427.909 166.651 6
-2 23 8 596.102 163.199 6
-21 23 8 621.444 217.992 6
-23 21 8 867.691 263.836 6
-21 -2 -9 1191.43 201.033 3
2 21 9 1885.03 250.036 6
-2 23 9 1830.27 241.636 6
-21 23 9 1810.57 269.247 6
-23 21 9 1501.69 289.521 6
-21 -2 -10 26.7492 116.304 3
2 21 10 69.7094 117.487 6
-2 23 10 109.505 123.057 6
-21 23 10 55.6064 151.825 6
-23 21 10 -194.282 192.32 6
-22 23 0 5197.55 449.538 4
-23 22 0 5960.5 482.275 4
-22 23 -1 150.067 208.65 4
-22 23 1 -128.288 228.687 4
-23 22 -1 129.887 217.796 4
-23 22 1 182.197 250.866 4
1 22 1 221.891 133.747 6
-22 23 1 306.537 156.15 6
-23 22 1 178.929 173.223 6
-22 23 -2 2802.88 360.255 4
-22 23 2 3354.45 366.829 4
-23 22 -2 2826.07 364.556 4
-23 22 2 3062.75 371.332 4
-1 23 2 3113.46 283.023 6
1 22 2 2498.89 269.505 6
-22 23 2 2527.59 285.568 6
-23 22 2 2717.17 312.33 6
-22 23 -3 -66.9638 206.726 4
-22 23 3 241.635 215.553 4
-23 22 -3 -225.105 226.816 4
-23 22 3 -368.551 243.034 4
1 22 3 237.674 139.078 6
-1 23 3 357.262 154.118 6
-22 23 3 -216.985 195.151 6
-23 22 3 -122.196 202.938 6
-22 23 -4 -149.043 207.899 4
-22 23 4 224.976 223.118 4
-23 22 -4 74.2926 203.183 4
-23 22 4 -115.61 197.276 4
1 22 4 335.664 167.834 6
-1 23 4 -27.0797 128.133 6
-22 23 4 83.6521 178.961 6
-23 22 4 36.988 200.003 6
-22 23 -5 489.494 203.61 4
-22 23 5 -135.009 189.555 4
-23 22 -5 355.735 209.058 4
-23 22 5 224.157 196.678 4
1 22 5 125.11 143.667 6
-1 23 5 84.3192 140.105 6
-22 23 5 240.989 215.505 6
-23 22 5 354.287 218.302 6
-23 22 -6 3407.16 327.863 4
-22 23 -6 2698.97 300.528 4
-22 23 6 2917.47 311.078 4
-23 22 6 2553.04 296.666 4
1 22 6 2497.27 274.276 6
-1 23 6 2525.02 274.327 6
-22 23 6 2932.43 313.054 6
-23 22 6 2890.76 328.239 6
-22 23 -7 44.0393 147.406 4
-22 23 7 372.764 174.008 4
-23 22 -7 155.026 173.123 4
-23 22 7 -202.76 165.723 4
1 22 7 -252.124 137.189 6
-1 23 7 -12.8616 124.991 6
-22 23 7 53.4451 171.498 6
-23 22 7 -68.7436 200.581 6
-22 23 -8 667.99 160.088 4
-22 23 8 1526.48 197.173 4
-23 22 -8 373.312 134.786 4
-23 22 8 1366.79 201.613 4
1 22 8 1907.55 237.876 6
-1 23 8 1655.31 218.264 6
-22 23 8 2214.08 274.377 6
-23 22 8 2245.74 289.915 6
1 22 9 335.5 146.86 6
-1 23 9 316.268 136.523 6
-22 23 9 -73.8426 152.652 6
-23 22 9 296.993 181.768 6
-23 23 0 1115.56 268.914 4
-23 23 -1 796.835 239.787 4
-23 23 1 561.903 222.111 4
-23 23 -2 717.367 248.546 4
-23 23 2 248.866 207.358 4
0 23 2 555.782 153.212 6
-23 23 2 203.773 160.117 6
-23 23 -3 401.883 224.593 4
-23 23 3 125.018 197.844 4
0 23 3 83.7081 109.663 6
-23 23 3 427.965 177.851 6
-23 23 -4 718.36 228.877 4
0 23 4 555.953 148.516 6
-23 23 4 552.958 204.657 6
-23 23 -5 707.934 188.687 4
-23 23 5 643.397 185.153 4
0 23 5 554.209 154.772 6
-23 23 5 806.936 186.919 6
-23 23 -6 227.397 155.981 4
-23 23 6 434.284 166.177 4
0 23 6 230.936 121.84 6
-23 23 6 355.647 175.896 6
-23 23 7 1162.92 194.414 4
0 23 7 1220.44 190.792 6
-23 23 7 1367.98 222.661 6
-12 24 0 19957.1 901.542 4
-12 24 -1 -29.6055 225.034 4
-12 24 1 -64.9573 279.065 4
-12 24 -2 9212.19 626.236 4
-12 24 2 7941.33 568.066 4
-12 24 2 8377.96 531.274 6
-12 24 -3 -63.0719 217.436 4
-12 24 3 329.481 231.843 4
-12 24 3 84.8733 177.09 6
-12 24 -4 73.4573 225.769 4
-12 24 4 144.646 211.702 4
-12 24 4 -268.45 203.648 6
-12 24 5 -216.094 189.739 4
-12 24 5 -16.1319 175.863 6
-12 24 -6 10200.4 610.703 4
-12 24 6 9748.21 588.844 4
-12 24 6 9425.78 572.49 6
-12 24 -7 -12.2987 167.662 4
-12 24 7 234.234 188.51 4
-12 24 7 -13.9425 173.82 6
-12 24 -8 9780.96 553.521 4
-12 24 8 9624.91 542.256 4
-12 -12 -8 10605.1 622.57 3
-12 24 8 10198.2 584.884 6
-12 24 -9 120.79 134.976 4
-12 24 9 -382.404 194.46 4
-12 -12 -9 -262.697 214.097 3
-12 24 9 -152.37 178.442 6
-12 -12 -10 1871.75 305.739 3
-12 24 10 1844.31 280.465 6
-12 -12 -11 80.885 191.632 3
-12 24 11 -82.8318 174.912 6
-12 -12 -12 248.04 182.117 3
-12 24 12 298.502 171.148 6
-12 -12 -13 143.413 146.287 3
-12 24 13 671.273 204.386 6
-11 24 0 4904.19 479.55 4
-13 24 0 4360.29 465.169 4
-11 24 -1 8279.61 599.56 4
-11 24 1 8692.86 622.601 4
-13 24 -1 9406.19 639.718 4
-13 24 1 8663.92 619.733 4
-11 24 -2 1780.07 321.192 4
-11 24 2 1388.19 283.558 4
-13 24 2 1245.71 301.185 4
-13 24 -2 1011.12 279.853 4
-11 24 2 1163.33 232.98 6
-13 24 2 1288.96 241.306 6
-11 24 -3 2271.95 358.721 4
-11 24 3 1913 336.639 4
-13 24 -3 2181.09 366.512 4
-13 24 3 2059.6 353.515 4
-11 24 3 2208.92 303.858 6
-13 24 3 2111.24 299.237 6
-11 24 -4 108.96 235.666 4
-11 24 4 320.177 233.699 4
-13 24 -4 481.67 258.701 4
-13 24 4 10.8067 226.925 4
-11 24 4 492.211 208.234 6
-13 24 4 114.408 174.264 6
-11 24 -5 1625.21 302.302 4
-11 24 5 1534.26 291.128 4
-13 24 -5 1190.99 267.072 4
-13 24 5 1538.99 304.076 4
-11 24 5 1094.88 248.875 6
-13 24 5 1379.59 265.998 6
-11 24 -6 1084.79 257.915 4
-11 24 6 1540.14 282.272 4
-13 24 -6 1494.36 285.233 4
-13 24 6 1286.57 278.42 4
-11 24 6 1550.65 262.628 6
-13 24 6 1426.91 270.677 6
-11 24 -7 8685.44 558.229 4
-11 24 7 8566.4 533.108 4
-13 24 -7 9135.01 568.428 4
-13 24 7 8678.29 549.657 4
-11 24 7 8624.99 546.681 6
-13 24 7 9189.57 555.391 6
-11 24 -8 1528.34 259.02 4
-11 24 8 1537.74 248.681 4
-13 24 -8 1881.73 273.324 4
-13 24 8 1827.7 272.999 4
-13 -11 -8 2177.35 321.988 3
-11 -13 -8 2242.1 343.19 3
-11 24 8 2162.98 305.903 6
-13 24 8 2291.42 317.248 6
-11 24 -9 2808.07 354.882 4
-11 24 9 4137.11 357.939 4
-13 24 -9 2488.76 331.418 4
-13 24 9 4003.04 352.598 4
-13 -11 -9 5073.86 450.599 3
-11 -13 -9 4486.49 422.974 3
-11 24 9 4882.99 413.607 6
-13 24 9 4358.25 395.644 6
-13 -11 -10 735.596 246.491 3
-11 -13 -10 885.953 259.738 3
-11 24 10 807.579 215.85 6
-13 24 10 669.142 214.04 6
-13 -11 -11 315.365 189.45 3
-11 -13 -11 434.952 203.107 3
-11 24 11 92.9314 167.712 6
-13 24 11 296.466 178.809 6
-13 -11 -12 45.8394 170.517 3
-11 -13 -12 -90.2675 155.499 3
-11 24 12 221.755 150.588 6
-13 24 12 -88.3592 160.056 6
-10 24 0 1776.34 340.862 4
-14 24 0 1522.09 325.304 4
-10 24 -1 5387.06 499.65 4
-10 24 1 5398.26 498.776 4
-14 24 -1 5444 503.162 4
-14 24 1 4865.93 463.686 4
-10 24 -2 2297.08 352.843 4
-10 24 2 1750.59 342.642 4
-14 24 -2 2395.84 366.379 4
-14 24 2 2227.12 355.095 4
-10 24 2 1892.12 284.578 6
-14 24 2 1740.09 273.649 6
-10 24 -3 824.673 274.511 4
-10 24 3 632.438 267.721 4
-14 24 -3 326.364 259.839 4
-14 24 3 899.514 232.956 4
-10 24 3 999.619 241.74 6
-14 24 3 941.646 225.222 6
-10 24 -4 1115.7 277.085 4
-10 24 4 844.145 247.946 4
-14 24 -4 607.089 266.45 4
-14 24 4 802.253 268.872 4
-10 24 4 717.876 205.096 6
-14 24 4 1029.35 240.044 6
-10 24 -5 735.241 260.085 4
-10 24 5 1356.39 294.466 4
-14 24 -5 1544.82 316.952 4
-14 24 5 1205.49 278.192 4
-10 24 5 1060.35 239.332 6
-14 24 5 723.045 225.079 6
-10 24 -6 2492.6 349.227 4
-10 24 6 2296.17 317.109 4
-14 24 -6 2422.42 343.577 4
-14 24 6 2201.16 315.944 4
-10 24 6 1927.9 295.637 6
-14 24 6 2252.31 308.399 6
-10 24 -7 2546.51 325.602 4
-10 24 7 2819 335.034 4
-14 24 -7 2697.26 339.47 4
-14 24 7 2872.35 329.411 4
-14 -10 -7 2847.94 357.882 3
-10 24 7 2934.38 352.338 6
-14 24 7 2723.83 335.703 6
-10 24 -8 1609.54 266.862 4
-10 24 8 1712.5 257.8 4
-14 24 -8 1132.51 234.609 4
-14 24 8 1332.17 229.971 4
-14 -10 -8 1983.06 329.332 3
-10 -14 -8 2062.56 327.298 3
-10 24 8 1693.62 272.088 6
-14 24 8 1118.97 259.415 6
-10 24 -9 623.211 218.763 4
-10 24 9 1491.52 231.596 4
-14 24 -9 629.535 222.393 4
-14 24 9 1557.31 230.823 4
-14 -10 -9 1573.8 288.684 3
-10 -14 -9 2072.05 316.822 3
-10 24 9 1753.92 274.9 6
-14 24 9 1599.58 275.315 6
-14 -10 -10 942.506 269.932 3
-10 -14 -10 1002.91 246.899 3
-10 24 10 758.034 208.322 6
-14 24 10 935.328 215.742 6
-14 -10 -11 351.903 202.563 3
-10 -14 -11 512.634 185.205 3
-10 24 11 532.039 186.974 6
-14 24 11 546.072 204.868 6
-14 -10 -12 96.4953 168.636 3
-10 -14 -12 68.3537 158.633 3
-10 24 12 263.649 153.693 6
-14 24 12 308.963 173.158 6
-9 24 0 2669.03 376.999 4
-15 24 0 3003.44 411.334 4
-9 24 -1 -37.546 248.913 4
-9 24 1 -249.625 272.489 4
-15 24 -1 -252.523 268.62 4
-15 24 1 184.716 250.151 4
-9 24 -2 2198.07 349.428 4
-9 24 2 1995.86 327.494 4
-15 24 -2 2907.53 388.463 4
-15 24 2 2659.66 396.446 4
-9 24 2 2651.28 317.532 6
-15 24 2 2671.72 323.583 6
-9 24 -3 453.998 242.783 4
-9 24 3 649.614 246.644 4
-15 24 -3 504.512 250.789 4
-15 24 3 142.653 229.7 4
-9 24 3 400.677 175.191 6
-15 24 3 -112.271 186.834 6
-9 24 -4 774.546 270.67 4
-9 24 4 60.9117 196.86 4
-15 24 -4 129.902 211.753 4
-15 24 4 89.8399 212.551 4
-9 24 4 156.675 165.35 6
-15 24 4 377.417 184.614 6
-9 24 -5 515.839 234.967 4
-9 24 5 935.172 255.353 4
-15 24 -5 717.72 228.951 4
-15 24 5 1013.89 276.831 4
-9 24 5 364.001 182.171 6
-15 24 5 637.89 208.067 6
-9 24 -6 745.289 245.019 4
-9 24 6 305.981 197.268 4
-15 24 -6 919.189 243.287 4
-15 24 6 355.646 206.817 4
-9 24 6 169.489 164.471 6
-15 24 6 435.471 204.601 6
-9 24 -7 177.994 171.289 4
-9 24 7 118.119 162.794 4
-15 24 -7 367.086 183.403 4
-15 24 7 346.696 191.356 4
-15 -9 -7 305.033 244.282 3
-9 24 7 281.909 199.412 6
-15 24 7 172.67 191.366 6
-9 24 -8 200.409 167.038 4
-9 24 8 293.437 186.778 4
-15 24 -8 250.431 161.004 4
-15 24 8 343.435 171.852 4
-15 -9 -8 476.397 226.57 3
-9 -15 -8 745.079 236.089 3
-9 24 8 447.366 202.667 6
-15 24 8 293.768 180.984 6
-15 24 -9 233.175 158.96 4
-15 24 9 352.669 188.215 4
-15 -9 -9 550.259 221.683 3
-24 15 -9 263.353 160.906 4
-24 15 9 222.7 156.086 4
-9 -15 -9 848.991 248.313 3
-9 24 9 534.352 183.573 6
-15 24 9 658.418 218.806 6
-15 -9 -10 302.824 219.035 3
-9 -15 -10 250.397 177.991 3
-9 24 10 526.932 186.216 6
-15 24 10 128.346 183.449 6
-15 -9 -11 234.915 181.039 3
-9 -15 -11 213.22 181.721 3
-9 24 11 145.876 137.32 6
-15 24 11 162.75 163.426 6
-15 -9 -12 199.743 183.746 3
-9 -15 -12 341.375 166.06 3
-9 24 12 221.498 157.296 6
-15 24 12 172.947 157.991 6
-8 24 0 964.295 288.944 4
-16 24 0 891.414 278.873 4
-8 24 -1 108.483 217.463 4
-8 24 1 -227.094 263.448 4
-16 24 -1 441.968 270.209 4
-16 24 1 6.94106 228.998 4
-8 24 -2 777.257 251.128 4
-8 24 2 306.622 243.161 4
-16 24 -2 486.299 254.007 4
-16 24 2 711.083 263.412 4
-8 24 2 549.938 177.899 6
-16 24 2 341.298 176.45 6
-8 24 -3 90.5884 222.787 4
-8 24 3 199.457 199.363 4
-16 24 -3 349.171 237.387 4
-16 24 3 705.973 280.454 4
-8 24 3 510.624 192.511 6
-16 24 3 -26.4825 184.125 6
-8 24 -4 812.201 260.647 4
-8 24 4 583.094 226.491 4
-16 24 -4 894.719 270.842 4
-16 24 4 739.055 259.151 4
-8 24 4 571.335 206.82 6
-16 24 4 800.687 247.653 6
-8 24 -5 278.81 191.918 4
-8 24 5 -92.7386 197.001 4
-16 24 -5 13.7867 214 4
-16 24 5 -127.481 215.717 4
-8 24 5 76.0473 178.575 6
-16 24 5 -31.3955 189.435 6
-8 24 -6 -36.5101 176.996 4
-8 24 6 212.302 175.594 4
-16 24 -6 -176.499 198.96 4
-16 24 6 -135.967 213.794 4
-16 -8 -6 114.391 221.392 3
-8 24 6 90.828 162.478 6
-16 24 6 -35.6032 192.254 6
-8 24 -7 499.325 216.601 4
-8 24 7 -14.7225 178.064 4
-16 24 -7 472.532 209.154 4
-16 24 7 155.21 177.521 4
-16 -8 -7 183.524 223.497 3
-8 24 7 154.605 155.646 6
-16 24 7 563.29 233.643 6
-16 24 -8 862.713 199.473 4
-16 24 8 529.792 190.597 4
-16 -8 -8 1008.55 289.451 3
-24 16 -8 499.584 207.818 4
-24 16 8 427.216 206.723 4
-8 -16 -8 563.708 222.711 3
-8 24 8 715.841 220.763 6
-16 24 8 664.283 227.126 6
-16 24 9 391.868 162.362 4
-16 -8 -9 284.934 215.338 3
-24 16 9 503.049 185.302 4
-8 -16 -9 286.253 186.284 3
-8 24 9 186.39 162.02 6
-16 24 9 137.79 176.438 6
-16 -8 -10 -87.607 177.763 3
-8 -16 -10 297.587 181.27 3
-8 24 10 286.355 171.944 6
-16 24 10 295.816 184.784 6
-16 -8 -11 -6.4045 172.225 3
-8 -16 -11 147.065 160.299 3
-8 24 11 -162.138 143.142 6
-16 24 11 -43.5358 164.208 6
-16 -8 -12 -281.719 175.919 3
-8 -16 -12 -39.2203 118.871 3
-8 24 12 -174.695 140.374 6
-16 24 12 67.1695 154.772 6
-7 24 0 519.727 270.717 4
-17 24 0 272.266 245.307 4
-7 24 -1 4024.86 426.367 4
-7 24 1 3377.27 416.155 4
-17 24 -1 3412.72 417.095 4
-17 24 1 3644.7 429.468 4
-7 24 -2 1388.22 309.972 4
-7 24 2 1266.76 302.777 4
-17 24 -2 1222.78 301.104 4
-17 24 2 1553.11 307.715 4
-7 24 2 1152.21 230.711 6
-17 24 2 1560.56 257.524 6
-7 24 -3 1800.02 323.58 4
-7 24 3 1945.01 316.959 4
-17 24 -3 1934.59 329.824 4
-17 24 3 1871.16 325.529 4
-7 24 3 1564.21 250.069 6
-17 24 3 1645.31 268.916 6
-7 24 -4 2437.39 353.559 4
-7 24 4 2548.03 340.321 4
-17 24 -4 2214.72 345.18 4
-17 24 4 2246.47 342.209 4
-7 24 4 2456.46 307.417 6
-17 24 4 2329.56 315.912 6
-7 24 -5 635.51 233.926 4
-7 24 5 485.67 227.783 4
-17 24 -5 790.246 234.928 4
-17 24 5 858.484 274.011 4
-17 -7 -5 360.179 242.826 3
7 17 5 801.143 220.252 6
-7 24 5 654.363 194.136 6
-17 24 5 743.371 235.783 6
-7 24 -6 1776.34 296.949 4
-7 24 6 1719.71 300.787 4
-17 24 -6 2149.61 323.875 4
-17 24 6 1889.65 303.978 4
-17 -7 -6 2674.53 378.871 3
7 17 6 1527.69 266.429 6
-7 24 6 1639.22 257.108 6
-17 24 6 2151.74 312.895 6
-17 24 -7 1576.06 264.566 4
-17 24 7 1646.24 268.13 4
-17 -7 -7 1771.2 299.677 3
-24 17 -7 1979.8 301.445 4
-24 17 7 1132.07 236.633 4
7 17 7 1413.64 258.017 6
-7 24 7 1654.34 264.509 6
-17 24 7 1727.45 284.12 6
-17 24 -8 476.818 185.39 4
-17 24 8 775.065 204.997 4
-17 -7 -8 223.681 193.185 3
-24 17 -8 572.207 200.863 4
-24 17 8 252.693 189.025 4
-7 -17 -8 825.381 226.832 3
7 17 8 550.035 214.524 6
-7 24 8 595.25 210.958 6
-17 24 8 484.404 209.714 6
-17 -7 -9 1862.42 295.334 3
-7 24 9 1761.75 252.37 6
-17 24 9 2468.07 308.982 6
-17 -7 -10 613.27 221.633 3
-7 -17 -10 39.0413 145.979 3
-7 24 10 450.387 168.714 6
-17 24 10 562.562 197.029 6
-24 17 -11 -5.9093 120.416 5
-17 -7 -11 334.86 203.139 3
-7 -17 -11 87.5447 138.976 3
-7 24 11 73.2255 133.054 6
-17 24 11 474.103 179.745 6
-6 24 0 6904.32 536.251 4
-18 24 0 7204.66 564.769 4
-6 24 -1 1067.11 257.623 4
-6 24 1 1695.45 331.834 4
-18 24 -1 924.339 285.323 4
-18 24 1 1432.78 303.062 4
-6 24 -2 3841.7 425.951 4
-6 24 2 4486.17 459.678 4
-18 24 -2 3857.63 425.88 4
-18 24 2 3876.87 424.533 4
-6 24 2 4021.63 344.801 6
-18 24 2 4112.22 374.882 6
-6 24 -3 6783.73 534.257 4
-6 24 3 6565.22 510.02 4
-18 24 -3 6506.61 525.125 4
-18 24 3 6039.56 498.021 4
-6 24 3 6084.96 431.439 6
-18 24 3 6011.44 450.465 6
-6 24 -4 283.261 192.308 4
-6 24 4 555.943 217.914 4
-18 24 -4 371.639 228.053 4
-18 24 4 821.943 278.827 4
-18 -6 -4 272.357 237.268 3
6 18 4 661.979 209.019 6
-6 24 4 598.707 195.517 6
-18 24 4 703.733 210.335 6
-18 24 -5 7652.82 517.854 4
-18 24 5 7643.11 509.622 4
-24 18 -5 8272.66 558.664 4
-24 18 5 7651.27 532.028 4
6 18 5 7078.79 482.871 6
-18 -6 -5 6005.65 510.939 3
-6 24 5 6611.57 448.532 6
-18 24 5 6982.3 471.949 6
-18 24 -6 868.494 234.327 4
-18 24 6 868.249 234.065 4
-18 -6 -6 580.393 249.639 3
-24 18 -6 861.469 255.899 4
-24 18 6 680.34 213.435 4
6 18 6 952.336 219.448 6
-6 24 6 751.934 196.014 6
-18 24 6 589.104 203.84 6
-18 24 -7 1246.2 223.546 4
-18 24 7 1500.2 245.2 4
-18 -6 -7 876.013 258.024 3
-24 18 -7 1128.89 242.375 4
-24 18 7 1539.16 274.674 4
-6 -18 -7 1206.77 242.495 3
6 18 7 1690.57 276.082 6
-6 24 7 1418.5 245.071 6
-18 24 7 1960.65 291.646 6
-18 24 8 2775.36 299.506 4
-18 24 -8 1374.62 261.899 4
-18 -6 -8 2632.61 319.645 3
-24 18 -8 1827.16 290.984 4
-24 18 8 2480.48 288.016 4
-6 -18 -8 1901.14 300.658 3
6 18 8 2705.35 315.062 6
-6 24 8 2098.18 263.676 6
-18 24 8 2562.59 309.563 6
-18 -6 -9 700.596 224.86 3
-6 -18 -9 214.368 168.805 3
6 18 9 636.083 215.945 6
-6 24 9 819.748 201.711 6
-18 24 9 554.705 202.355 6
-18 -6 -10 881.306 206.2 3
-6 -18 -10 1125.65 616.12 3
-6 24 10 779.013 184.064 6
-18 24 10 1200.11 231.834 6
-18 -6 -11 1641.87 238.092 3
-6 24 11 1780.25 224.093 6
-18 24 11 2038.07 257.384 6
-5 24 0 1277.14 273.907 4
-19 24 0 1107.03 284.104 4
-24 19 0 1780.48 336.559 4
-19 24 -1 1659.95 320.22 4
-19 24 1 1513.51 309.482 4
-24 19 -1 1711.08 325.033 4
-24 19 1 1478.8 327.77 4
-19 24 -2 2976.99 407.56 4
-19 24 2 3380.43 394.989 4
-24 19 -2 3098.76 432.467 4
-24 19 2 3415.14 399.614 4
-5 24 2 3353.55 318.203 6
-19 -5 -2 2695.86 314.719 3
-19 24 2 2892.03 309.708 6
-19 24 -3 2178.48 349.464 4
-19 24 3 1940.79 319.234 4
-24 19 -3 1948.46 341.931 4
-24 19 3 2274.86 350.188 4
-19 -5 -3 1439.41 264.324 3
5 19 3 1982.08 279.603 6
-5 24 3 1897.88 258.073 6
-19 24 3 1733.91 263.947 6
-19 24 -4 6774.25 500.946 4
-19 24 4 6842.45 503.459 4
-24 19 -4 7463.17 536.721 4
-24 19 4 7678.22 532.672 4
5 19 4 7261.49 481.174 6
-19 -5 -4 6544.06 475.55 3
-5 24 4 6338.63 430.829 6
-19 24 4 6461.06 454.736 6
-19 24 -5 2995.79 348.599 4
-19 24 5 3214.63 361.585 4
-19 -5 -5 2047.49 307.52 3
-24 19 -5 2811.54 353.149 4
-24 19 5 2789.07 350.681 4
5 19 5 2738.47 324.993 6
-5 24 5 2612.87 297.348 6
-19 24 5 2581.21 316.404 6
-19 24 -6 4061.46 382.062 4
-19 24 6 4147.51 377.732 4
-24 19 -6 3546.09 376.835 4
-24 19 6 4002.52 390.143 4
-19 -5 -6 3307.51 359.767 3
5 19 6 3386.8 338.387 6
-5 24 6 3668.07 333.785 6
-19 24 6 4067.08 372.568 6
-19 24 -7 1839.98 260.856 4
-19 24 7 1750.4 266.551 4
-19 -5 -7 1208.9 244.636 3
-24 19 -7 1586.71 261.895 4
-24 19 7 1684.32 261.018 4
-5 -19 -7 1080.63 238.87 3
5 19 7 1457.33 251.893 6
-5 24 7 2024.62 257.831 6
-19 24 7 2116.57 284.252 6
-19 24 -8 245.753 171.901 4
-19 24 8 -96.9887 151.345 4
-19 -5 -8 159.887 193.982 3
-24 19 -8 29.3429 170.571 4
-24 19 8 305.05 185.248 4
-5 -19 -8 207.062 159.402 3
5 19 8 347.045 191.985 6
-5 24 8 130.431 140.451 6
-19 24 8 87.8058 176.685 6
-19 -5 -9 463.922 181.82 3
5 19 9 666.236 183.513 6
-5 24 9 529.544 170.39 6
-19 24 9 952.297 216.144 6
-19 -5 -10 2131.44 258.043 3
5 19 10 2069.03 239.017 6
-5 24 10 1548.11 213.95 6
-19 24 10 2398.31 275.415 6
-20 24 0 185.243 231.14 4
-24 20 0 185.067 253.144 4
-20 24 -1 249.787 221.137 4
-20 24 1 440.548 237.628 4
-24 20 -1 181.449 243.047 4
-24 20 1 541.69 266.266 4
-20 24 -2 2150.38 333.531 4
-20 24 2 1889.24 319.647 4
-24 20 -2 2090.3 326.211 4
-24 20 2 2589.22 367.423 4
-20 -4 -2 1654.55 242.478 3
-4 24 2 2446.46 272.368 6
-20 24 2 2319.1 282.246 6
-20 24 -3 2742.37 352.94 4
-20 24 3 2298.39 334.489 4
-24 20 -3 2874.79 360.632 4
-24 20 3 2555.32 354.315 4
-20 -4 -3 2196.51 264.004 3
4 20 3 2407.08 283.359 6
-4 24 3 2197.49 258.915 6
-20 24 3 2056.49 257.931 6
-20 24 -4 4091.52 385.769 4
-20 24 4 4533.73 408.505 4
-24 20 -4 3849.04 384.026 4
-24 20 4 4094.5 393.967 4
-20 -4 -4 3729.73 333.77 3
4 20 4 3388.67 336.937 6
-4 24 4 3504.46 312.002 6
-20 24 4 3662.37 331.156 6
-20 24 -5 2768.5 332.194 4
-20 24 5 2411.98 311.871 4
-20 -4 -5 2465.09 288.508 3
-24 20 -5 2359.81 329.896 4
-24 20 5 2087.26 312.35 4
4 20 5 1793.49 256.685 6
-4 24 5 2178.58 269.105 6
-20 24 5 2329.52 278.524 6
-20 24 -6 2581.01 299.684 4
-20 24 6 2568.95 299.205 4
-20 -4 -6 2245.15 275.394 3
-24 20 -6 2440.97 312.986 4
-24 20 6 2405.17 317.512 4
-4 -20 -6 1801.11 252.74 3
-4 24 6 2659.83 283.642 6
4 20 6 2793.22 300.889 6
-20 24 6 2395.83 281.962 6
-20 24 -7 259.379 175.775 4
-20 24 7 586.181 181.971 4
-20 -4 -7 412.18 176.781 3
-24 20 -7 532.793 207.446 4
-24 20 7 328.102 179.68 4
4 20 7 348.673 164.177 6
-4 24 7 424.366 155.254 6
-20 24 7 514.797 192.047 6
-20 24 8 262.715 148.611 4
-20 -4 -8 137.04 146.889 3
-24 20 8 294.32 146.881 4
4 20 8 142.162 145.895 6
-4 24 8 -81.3581 133.112 6
-20 24 8 180.285 158.07 6
-20 -4 -9 1022.12 203.742 3
4 20 9 741.71 181.074 6
-4 24 9 761.279 179.592 6
-20 24 9 595.123 186.773 6
-21 24 0 434.315 218.706 4
-24 21 0 155.86 233.761 4
-21 24 -1 612.797 248.632 4
-21 24 1 548.437 233.653 4
-24 21 -1 341.42 223.224 4
-24 21 1 758.571 273.718 4
-21 24 -2 489.324 232.007 4
-21 24 2 363.943 231.889 4
-24 21 -2 100.319 215.559 4
-24 21 2 783.891 279.42 4
-3 24 2 73.3639 112.983 6
-21 24 2 -11.6955 135.697 6
-21 24 -3 1604.64 288.825 4
-21 24 3 1667.11 284.038 4
-24 21 -3 1839.92 307.629 4
-24 21 3 1842.96 316.013 4
3 21 3 1808.66 242.171 6
-3 24 3 1613.95 226.73 6
-21 24 3 1733.04 248.95 6
-21 24 -4 -116.738 195.645 4
-21 24 4 37.1885 180.801 4
-24 21 -4 151.877 203.107 4
-24 21 4 112.134 199.674 4
3 21 4 -74.3841 130.891 6
-3 24 4 6.89682 120.125 6
-21 24 4 -78.1936 165.313 6
-21 24 -5 1954.38 272.737 4
-21 24 5 1665.02 258.565 4
-24 21 -5 1877.65 280.712 4
-24 21 5 1991.75 292.023 4
3 21 5 1616.01 235.333 6
-3 24 5 1605.06 225.446 6
-21 24 5 2162.96 272.005 6
-21 -3 -6 137.661 127.467 3
-21 24 -6 -18.6255 153.545 4
-21 24 6 16.8727 166.715 4
-24 21 -6 49.0867 158.345 4
-24 21 6 193.361 172.423 4
3 21 6 361.555 162.36 6
-3 24 6 -56.2183 123.058 6
-21 24 6 -63.8643 159.706 6
-21 -3 -7 4.33774 133.833 3
-21 24 -7 242.603 143.18 4
-21 24 7 45.4755 146.861 4
-24 21 -7 328.134 192.751 4
-24 21 7 511.874 192.526 4
3 21 7 241.46 155.48 6
-3 24 7 392.699 157.033 6
-21 24 7 477.09 184.187 6
-21 -3 -8 -86.1163 124.265 3
-21 24 -8 -117.59 116.344 4
-21 24 8 135.215 115.062 4
-24 21 -8 -34.687 82.158 4
-24 21 8 206.124 140.887 4
3 21 8 334.694 137.209 6
-3 24 8 78.0625 134.434 6
-21 24 8 307.83 158.525 6
-24 21 8 126.894 197.08 6
-22 24 0 -94.2003 191.765 4
-24 22 0 222.75 210.791 4
-22 24 -1 462.43 225.155 4
-22 24 1 31.187 193.685 4
-24 22 -1 82.2206 204.445 4
-24 22 1 -59.3641 196.985 4
-24 22 1 -82.9849 146.333 6
-22 24 -2 175.384 187.631 4
-22 24 2 189.624 182.96 4
-24 22 -2 364.084 226.808 4
-24 22 2 509.381 236.83 4
-22 24 2 73.5387 124.836 6
-24 22 2 112.316 166.177 6
-22 24 -3 141.831 174.908 4
-22 24 3 258.509 196.708 4
-24 22 -3 26.1459 191.163 4
-24 22 3 -147.754 203.558 4
2 22 3 227.144 133.165 6
-2 24 3 -62.9609 122.185 6
-22 24 3 337.299 167.747 6
-24 22 3 -63.0464 168.202 6
-22 24 -4 184.578 183.1 4
-22 24 4 787.259 261.849 4
-24 22 -4 182.273 175.305 4
-24 22 4 883.336 291.591 4
2 22 4 342.268 153.468 6
-2 24 4 71.5348 111.114 6
-22 24 4 -38.4443 134.264 6
-24 22 4 115.247 176.541 6
-22 24 -5 -163.588 176.926 4
-22 24 5 30.3607 152.449 4
-24 22 5 -278.012 183.407 4
2 22 5 -58.4572 124.113 6
-2 24 5 113.224 119.537 6
-22 24 5 179.804 157.413 6
-24 22 5 28.3611 173.965 6
-22 24 -6 192.386 146.042 4
-22 24 6 -30.955 137.494 4
-24 22 -6 77.7544 159.24 4
-24 22 6 330.058 168.209 4
2 22 6 299.71 141.255 6
-2 24 6 -72.0637 126.961 6
-22 24 6 226.019 154.799 6
-24 22 6 46.1932 173.085 6
-22 24 -7 -77.053 126.134 4
-22 24 7 171.567 123.443 4
-24 22 -7 53.0911 122.822 4
-24 22 7 132.48 130.471 4
2 22 7 114.742 116.818 6
-2 24 7 285.714 142.439 6
-22 24 7 433.507 169.868 6
-24 22 7 504.969 197.675 6
-23 24 0 87.962 174.645 4
-24 23 0 474.977 212.322 4
-23 24 -1 10.548 180.931 4
-23 24 1 -62.6351 184.663 4
-24 23 -1 237.737 200.1 4
-24 23 1 -151.372 185.464 4
-23 24 -2 -7.29982 170.065 4
-23 24 2 306.488 184.454 4
-24 23 2 203.477 192.387 4
-24 23 -2 97.7786 174.967 4
-23 24 2 76.8301 80.376 6
-24 23 2 -84.4303 132.901 6
-23 24 -3 15.7779 171.134 4
-23 24 3 -89.7565 167.286 4
-24 23 -3 -27.9818 171.523 4
-24 23 3 -261.84 189.077 4
-1 24 3 -50.0179 95.1164 6
-23 24 3 157.424 131.802 6
-24 23 3 59.8833 136.976 6
-23 24 -4 922.752 198.206 4
-23 24 4 927.578 213.034 4
-24 23 -4 770.5 198.09 4
-24 23 4 1021.14 222.839 4
1 23 4 726.958 149.672 6
-1 24 4 767.875 141.028 6
-23 24 4 562.616 166.083 6
-24 23 4 870.022 194.975 6
-23 24 -5 51.1912 132.012 4
-23 24 5 262.499 163.94 4
-24 23 -5 -153.123 150.668 4
-24 23 5 20.2111 141.635 4
1 23 5 -33.4512 101.028 6
-1 24 5 -16.0926 99.6978 6
-23 24 5 -126.295 133.272 6
-24 23 5 -102.196 145.831 6
-24 24 0 1097.18 222.365 4
-24 24 -1 276.62 165.597 4
-24 24 1 919.888 267.499 4
-12 25 0 6281.71 510.148 4
-13 25 0 5978.84 509.954 4
-12 25 -1 16777.2 797.279 4
-12 25 1 16047.3 771.9 4
-13 25 -1 16709.3 779.588 4
-13 25 1 16370.5 778.117 4
-12 25 -2 2716.16 359.51 4
-12 25 2 2580.43 350.162 4
-13 25 -2 2844.5 380.193 4
-13 25 2 2224.71 339.681 4
-12 25 2 2663.55 300.056 6
-13 25 2 2585.04 288.572 6
-12 25 -3 2044.77 337.029 4
-12 25 3 1761.36 304.772 4
-13 25 -3 1912.01 315.329 4
-13 25 3 1943.97 317.785 4
-12 25 3 1755.37 256.919 6
-13 25 3 1640.51 242.311 6
-12 25 -4 195.541 202.451 4
-12 25 4 124.228 187.088 4
-13 25 -4 407.965 227.972 4
-13 25 4 139.259 181.96 4
-12 25 4 82.11 140.784 6
-13 25 4 593.395 213.978 6
-13 25 5 3581.79 373.938 4
-12 25 -5 3006.57 350.233 4
-12 25 5 3446.14 354.684 4
-13 25 -5 3202.91 350.908 4
-12 25 5 2950.09 319.194 6
-13 25 5 2567.43 307.864 6
-12 25 -6 3751.66 386.884 4
-12 25 6 4043.41 385.707 4
-13 25 -6 4187.44 373.999 4
-13 25 6 4326.43 389.592 4
-12 25 6 3758.67 346.069 6
-13 25 6 3781.38 357.517 6
-12 25 -7 11883.6 591.459 4
-12 25 7 12162.7 595.768 4
-13 25 -7 11506.2 578.044 4
-13 25 7 11258.2 574.689 4
-13 -12 -7 13541.2 646.356 3
-12 -13 -7 13470.2 665.709 3
-12 25 7 12179.6 588.337 6
-13 25 7 12516.7 592.109 6
-12 25 -8 2507.07 323.865 4
-12 25 8 3614 329.876 4
-13 25 -8 2557.52 311.672 4
-13 25 8 3325.96 313.746 4
-13 -12 -8 3745.57 370.329 3
-12 -13 -8 3977.11 378.201 3
-12 25 8 3761.69 341.238 6
-13 25 8 3106.93 314.272 6
-13 -12 -9 7393.9 488.519 3
-12 -13 -9 7140.92 468.836 3
-12 25 9 7373.46 448.529 6
-13 25 9 6840.65 433.546 6
-13 -12 -10 1497.25 258.341 3
-12 -13 -10 1129.22 246.572 3
-12 25 10 882.093 194.172 6
-13 25 10 894.54 187.09 6
-13 -12 -11 729.024 204.229 3
-12 -13 -11 641.365 208.628 3
-12 25 11 772.654 176.697 6
-13 25 11 728.033 175.26 6
-11 25 0 17727.3 811.097 4
-14 25 0 19197 840.164 4
-11 25 -1 138.721 240.972 4
-11 25 1 339.329 232.993 4
-14 25 -1 68.0993 214.645 4
-14 25 1 -80.112 215.172 4
-11 25 -2 7823.79 545.116 4
-11 25 2 8685.96 569.278 4
-14 25 -2 8142.33 559.765 4
-14 25 2 7810.69 555.867 4
-11 25 2 7603.29 450.559 6
-14 25 2 7748.24 466.804 6
-11 25 -3 281.373 232.75 4
-11 25 3 91.126 199.224 4
-14 25 -3 -60.338 198.587 4
-14 25 3 -29.9405 196.198 4
-11 25 3 160.484 160.6 6
-14 25 3 0.60605 155.16 6
-11 25 -4 2.96239 187.687 4
-11 25 4 127.353 181.852 4
-14 25 -4 68.3174 196.554 4
-14 25 4 -152.107 199.385 4
-11 25 4 257.314 168.912 6
-14 25 4 35.8283 151.071 6
-11 25 -5 -181.859 196.665 4
-11 25 5 -156.074 189.301 4
-14 25 -5 -245.098 210.505 4
-14 25 5 288.34 205.93 4
-11 25 5 135.175 160.295 6
-14 25 5 78.636 154.208 6
-11 25 -6 8734.82 527.055 4
-11 25 6 8437.76 512.884 4
-14 25 -6 9062.6 536.051 4
-14 25 6 8242.82 517.148 4
-11 25 6 8368.85 493.421 6
-14 25 6 8515.36 507.081 6
-11 25 -7 549.279 208.951 4
-11 25 7 812.686 220.316 4
-14 25 -7 439.359 187.568 4
-14 25 7 409.08 204.086 4
-14 -11 -7 169.61 207.598 3
-11 -14 -7 273.623 219.983 3
-11 25 7 478.309 194.473 6
-14 25 7 403.442 172.118 6
-11 25 -8 7219.83 491.059 4
-11 25 8 8665.06 476.535 4
-14 25 -8 7064.66 470.467 4
-14 25 8 9004.73 486.593 4
-14 -11 -8 9872.26 551.85 3
-11 -14 -8 10629.5 571.344 3
-11 25 8 8813.19 488.847 6
-14 25 8 9061.11 509.359 6
-14 -11 -9 412.316 224.754 3
-11 -14 -9 -123.467 195.813 3
-11 25 9 71.0655 142.553 6
-14 25 9 373.627 179.248 6
-14 -11 -10 2931.31 309.281 3
-11 -14 -10 3399.39 326.976 3
-11 25 10 2906.16 288.724 6
-14 25 10 3008.41 292.28 6
-14 -11 -11 -247.475 175.425 3
-11 -14 -11 -10.0479 138.943 3
-11 25 11 21.7316 136.265 6
-14 25 11 -128.064 138.558 6
-10 25 0 1488.91 310.813 4
-15 25 0 1297 314.425 4
-10 25 -1 7512.94 539.227 4
-10 25 1 8022.06 551.482 4
-15 25 -1 8289.88 566.929 4
-15 25 1 7361.93 536.375 4
-10 25 -2 1439.64 293.955 4
-10 25 2 1201.27 264.599 4
-15 25 -2 1557.72 311.414 4
-15 25 2 1240.32 288.007 4
-10 25 2 1387.28 214.107 6
-15 25 2 1095.37 211.127 6
-10 25 -3 1955.17 321.024 4
-10 25 3 1497.88 289.139 4
-15 25 -3 2438.59 350.949 4
-15 25 3 1737.53 308.273 4
-10 25 3 1579.91 239.494 6
-15 25 3 1667.37 242.956 6
-10 25 -4 98.1988 183.103 4
-10 25 4 508.547 213.88 4
-15 25 -4 662.684 239.338 4
-15 25 4 465.223 240.05 4
-10 25 4 148.876 140.523 6
-15 25 4 435.177 199.098 6
-10 25 -5 982.686 236.274 4
-10 25 5 982.683 251.487 4
-15 25 -5 1073.77 258.913 4
-15 25 5 799.637 236.401 4
-10 25 5 763.671 211.527 6
-15 25 5 762.725 220.295 6
-10 25 -6 433.757 203.959 4
-10 25 6 240.682 187.867 4
-15 25 -6 123.124 167.599 4
-15 25 6 492.569 179.699 4
-15 -10 -6 519.418 226.011 3
-10 25 6 640.978 187.704 6
-15 25 6 330.976 187.101 6
-10 25 -7 2478.06 304.944 4
-10 25 7 2513.06 305.898 4
-15 25 -7 2206.16 277.167 4
-15 25 7 2704 313.381 4
-15 -10 -7 2239.84 316.284 3
-10 -15 -7 2613.22 312.989 3
-10 25 7 2066.97 260.509 6
-15 25 7 2379.03 292.328 6
-10 25 -8 805.403 205.257 4
-10 25 8 750.852 174.932 4
-15 25 -8 554.69 211.837 4
-15 25 8 1099.02 213.087 4
-15 -10 -8 901.494 242.994 3
-10 -15 -8 1616.66 268.674 3
-10 25 8 1147.18 218.813 6
-15 25 8 783.87 213.955 6
-15 -10 -9 1525.31 267.219 3
-10 -15 -9 1829 270.399 3
-10 25 9 1869.44 256.963 6
-15 25 9 1612.1 250.341 6
-15 -10 -10 266.776 173.781 3
-10 -15 -10 825.135 209.255 3
-10 25 10 452.854 149.071 6
-15 25 10 642.91 176.967 6
-9 25 0 1773.35 311.701 4
-16 25 0 1428.66 314.828 4
-9 25 -1 -60.5344 202.403 4
-9 25 1 359.792 246.749 4
-16 25 -1 -76.9576 207.708 4
-16 25 1 -293.623 226.775 4
-9 25 -2 1535.22 290.18 4
-9 25 2 1615.62 297.223 4
-16 25 -2 1925.28 348.765 4
-16 25 2 1440.06 313.281 4
-9 25 2 1948.45 250.967 6
-16 25 2 1277.54 218.086 6
-9 25 -3 214.449 180.941 4
-9 25 3 187.538 179.18 4
-16 25 -3 602.915 243.203 4
-16 25 3 536.822 232.898 4
-9 25 3 347.529 179.345 6
-16 25 3 466.189 180.987 6
-9 25 -4 532.037 219.184 4
-9 25 4 316.992 202.391 4
-16 25 -4 580.975 244.449 4
-16 25 4 190.42 184.237 4
-9 25 4 478.446 162.655 6
-16 25 4 890.526 220.072 6
-9 25 -5 720.041 241.447 4
-9 25 5 796.647 209.504 4
-16 25 -5 696.534 219.482 4
-16 25 5 648.04 206.508 4
-16 -9 -5 560.391 205.279 3
-9 25 5 698.954 203.818 6
-16 25 5 883.291 211.637 6
-9 25 -6 313.18 179.435 4
-9 25 6 541.629 203.501 4
-16 25 -6 346.401 181.199 4
-16 25 6 297.675 181.025 4
-16 -9 -6 382.571 204.517 3
-9 25 6 469.675 189.399 6
-16 25 6 62.3248 157.472 6
-9 25 -7 476.223 193.167 4
-9 25 7 38.3222 163.422 4
-16 25 -7 -138.212 188.303 4
-16 25 7 192.604 151.832 4
-16 -9 -7 43.3785 199.609 3
-9 -16 -7 448.168 210.403 3
-9 25 7 273.253 173.342 6
-16 25 7 145.892 154.101 6
-16 25 -8 136.553 140.212 4
-16 25 8 -218.118 146.82 4
-16 -9 -8 247.862 197.344 3
-25 16 -8 103.632 159.575 4
-25 16 8 -197.95 177.92 4
-9 -16 -8 162.909 177.694 3
-9 25 8 205.682 154.243 6
-16 25 8 -90.1686 146.348 6
-16 -9 -9 154.187 184.473 3
-9 -16 -9 131.555 160.109 3
-9 25 9 27.7575 137.369 6
-16 25 9 -37.6235 145.51 6
-16 -9 -10 331.389 184.596 3
-9 -16 -10 257.685 165.492 3
-9 25 10 269.804 145.329 6
-16 25 10 207.082 143.906 6
-8 25 0 1884.31 321.818 4
-17 25 0 2177.5 341.472 4
-8 25 -1 1081.8 257.361 4
-8 25 1 920.618 263.788 4
-17 25 -1 824.664 255.362 4
-17 25 1 1064.16 290.193 4
-8 25 -2 1576.16 298.235 4
-8 25 2 1492.67 290.557 4
-17 25 -2 1351.6 266.021 4
-17 25 2 1008.45 258.583 4
-8 25 2 1419.68 220.306 6
-17 25 2 1210.53 217.86 6
-8 25 -3 4908.96 432.835 4
-8 25 3 5320.42 451.799 4
-17 25 -3 5960.74 476.533 4
-17 25 3 5933.65 463.418 4
-8 25 3 5654.35 392.462 6
-17 25 3 5475.85 402.97 6
-8 25 -4 307.354 295.102 4
-8 25 4 403.785 218.303 4
-17 25 -4 620.95 275.525 4
-17 25 4 548.36 235.062 4
-8 25 4 222.046 145.179 6
-17 25 4 279.986 173.074 6
-8 25 -5 4074.55 386.87 4
-8 25 5 3425.1 356.766 4
-17 25 -5 3593.57 364.533 4
-17 25 5 3565.93 360.299 4
-17 -8 -5 3944.93 377.12 3
-8 25 5 3140.47 315.97 6
-17 25 5 2878.05 306.868 6
-8 25 6 730.019 207.888 4
-17 25 -6 -12.6674 156.589 4
-17 25 6 637.523 211.167 4
-25 17 -6 232.632 199.762 4
-17 -8 -6 284.937 203.978 3
-25 17 6 547.91 212.105 4
-8 25 6 274.545 156.483 6
-17 25 6 526.372 212.194 6
-17 25 -7 752.589 208.54 4
-17 25 7 255.769 159.776 4
-17 -8 -7 638.311 207.117 3
-25 17 -7 384.801 194.335 4
-25 17 7 536.838 201.328 4
-8 -17 -7 732.882 191.633 3
-8 25 7 573.863 178.688 6
-17 25 7 401.046 175.567 6
-17 25 -8 436.372 181.664 4
-17 25 8 494.788 157.667 4
-17 -8 -8 817.85 225.298 3
-25 17 -8 512.641 171.314 4
-25 17 8 600.177 198.521 4
-8 -17 -8 374.109 179.395 3
-8 25 8 518.026 183.105 6
-17 25 8 946.805 196.203 6
-17 -8 -9 426.473 181.103 3
-8 -17 -9 181.289 157.214 3
-8 25 9 642.562 177.009 6
-17 25 9 524.135 179.347 6
-17 -8 -10 292.17 188.272 3
-8 -17 -10 216.578 146.929 3
-8 25 10 312.714 143.534 6
-17 25 10 245.497 156.777 6
-7 25 0 4545.73 421.554 4
-18 25 0 4511.17 429.564 4
-7 25 -1 5146.69 446.777 4
-7 25 1 5450.3 465.966 4
-18 25 -1 5964.02 467.766 4
-18 25 1 5502.47 440.762 4
-7 25 -2 6214.52 485.02 4
-7 25 2 5726.18 459.264 4
-18 25 -2 5743.34 460.348 4
-18 25 2 5596.93 447.908 4
-18 25 2 5509.71 381.078 6
-7 25 -3 4409.13 409.211 4
-7 25 3 4997.73 540.902 4
-18 25 -3 4974.56 441.004 4
-18 25 3 5044.17 439.553 4
-18 -7 -3 4137.52 409.086 3
-7 25 3 4114.43 326.484 6
-18 25 3 4741.22 364.391 6
-7 25 4 8772.85 531.597 4
-18 25 -4 8913.94 552.969 4
-18 25 4 9000.03 535.005 4
-25 18 -4 9836.67 570.613 4
-25 18 4 9526 552.126 4
-18 -7 -4 8389.36 517.482 3
-7 25 4 8674.97 471.58 6
-18 25 4 8090.25 465.245 6
-18 25 -5 1852.85 274.571 4
-18 25 5 2103.38 297.315 4
-25 18 -5 1910.62 301.447 4
-25 18 5 1593.27 274.641 4
-18 -7 -5 1385.96 281.042 3
-7 25 5 1588.36 240.598 6
-18 25 5 1623.36 232.977 6
-18 25 -6 4337.26 371.857 4
-18 25 6 3790.36 341.017 4
-25 18 -6 3890.61 364.084 4
-25 18 6 3926.84 354.749 4
-18 -7 -6 4655.62 385.861 3
-7 25 6 3588.26 317.378 6
-18 25 6 3946.12 347.765 6
-18 25 -7 727.892 230.96 4
-18 25 7 1537.71 227.85 4
-18 -7 -7 1597.54 247.162 3
-25 18 -7 893.83 237.276 4
-25 18 7 1759.83 265.235 4
-7 -18 -7 883.851 214.342 3
-7 25 7 1474.66 219.25 6
-18 25 7 1849.22 255.247 6
-18 25 8 1155.18 199.566 4
-18 -7 -8 1002.32 220.027 3
-25 18 8 1278.56 210.015 4
-7 -18 -8 264.19 174.818 3
-7 25 8 893.173 184.354 6
-18 25 8 1145.81 206.824 6
-18 -7 -9 1671.19 242.444 3
-7 -18 -9 593.934 189.085 3
-7 25 9 1055.06 186.507 6
-18 25 9 1214.11 199.409 6
-19 25 0 767.025 240.631 4
-25 19 0 654.493 259.771 4
-19 25 1 4277.7 412.562 4
-19 25 -1 4144.82 391.522 4
-25 19 -1 5403.13 458.662 4
-25 19 1 5310.25 434.964 4
-19 25 -2 7802.59 517.428 4
-19 25 2 7327.66 503.126 4
-25 19 -2 7140.88 510.176 4
-25 19 2 7678.56 526.493 4
-19 -6 -2 6511.07 435.796 3
-19 25 -3 3959.58 385.502 4
-19 25 3 4134.82 382.465 4
-25 19 -3 4134.1 401.205 4
-25 19 3 4465.71 405.741 4
-19 -6 -3 3283.29 308.236 3
-6 25 3 3492.66 297.781 6
-19 25 3 3871.4 337.43 6
-19 25 -4 12564.2 624.144 4
-19 25 4 12379.7 610.88 4
-25 19 -4 13297.4 639.791 4
-25 19 4 12171.5 601.954 4
-19 -6 -4 12205.5 564.581 3
-6 25 4 11311.1 514.158 6
-19 25 4 11493.1 540.684 6
-19 25 5 3630.48 343.304 4
-19 25 -5 3329.4 333.597 4
-25 19 -5 3071.2 338.396 4
-25 19 5 3785.74 352.067 4
-19 -6 -5 3333.7 324.12 3
-6 25 5 3204.82 300.465 6
-19 25 5 3178.14 300.973 6
-19 25 -6 4959.47 375.145 4
-19 25 6 5253.18 378.728 4
-25 19 -6 5033.96 387.298 4
-25 19 6 5489.65 392.803 4
-19 -6 -6 5572.09 397.878 3
-6 -19 -6 4554.53 385.975 3
-6 25 6 4708.35 343.783 6
-19 25 6 5896.03 396.672 6
-19 25 -7 1779.39 263.32 4
-19 25 7 2020.03 246.715 4
-19 -6 -7 2322.9 271.104 3
-25 19 -7 1856.95 291.395 4
-25 19 7 2410.65 275.674 4
-6 -19 -7 1664.97 249.675 3
-6 25 7 2041.89 246.357 6
-19 25 7 2225.99 261.409 6
-19 25 -8 44.8964 79.1883 4
-19 25 8 693.478 153.624 4
-19 -6 -8 587.394 179.766 3
-25 19 -8 -33.0617 103.3 4
-25 19 8 520.493 161.398 4
-6 -19 -8 698.897 176.684 3
-6 25 8 805.763 175.81 6
-19 25 8 1146.06 208.171 6
-20 25 0 2903.21 342.542 4
-25 20 0 3490.29 380.445 4
-20 25 -1 1943.85 302.723 4
-20 25 1 2348.86 323.12 4
-25 20 -1 2313.31 323.034 4
-25 20 1 1938.95 314.597 4
-20 -5 -1 1798.12 226.172 3
-20 25 -2 1809.83 286.608 4
-20 25 2 1734.9 274.168 4
-25 20 -2 1569.51 291.058 4
-25 20 2 1624.98 294.747 4
-20 -5 -2 1547.34 216.36 3
-20 25 -3 12993.9 616.482 4
-20 25 3 12694.7 605.865 4
-25 20 -3 11894.7 600.852 4
-25 20 3 12601.1 611.881 4
-20 -5 -3 10429.6 483.638 3
-5 25 3 10145.8 459.796 6
-20 25 3 9928.18 493.096 6
-20 25 -4 31.4902 167.502 4
-20 25 4 -37.0846 182.864 4
-20 -5 -4 -55.7175 144.769 3
-25 20 -4 -185.055 185.547 4
-25 20 4 46.1029 185.262 4
-5 25 4 67.021 116.987 6
-20 25 4 57.1437 136.88 6
-20 25 -5 11660.4 554.18 4
-20 25 5 11108.3 534.293 4
-25 20 -5 11538.7 555.73 4
-25 20 5 11563.6 553.475 4
-20 -5 -5 10328.4 491.477 3
-5 -20 -5 8445.33 483.665 3
-5 25 5 9642.24 461.467 6
-20 25 5 10154.9 488.779 6
-20 25 -6 2032.41 250.551 4
-20 25 6 1984.24 241.824 4
-20 -5 -6 1970.6 245.029 3
-25 20 -6 2036.41 258.703 4
-25 20 6 1637.18 234.736 4
-5 -20 -6 1017.5 204.287 3
-5 25 6 1741.51 222.199 6
-20 25 6 2293.78 258.641 6
-20 25 -7 347.777 156.92 4
-20 25 7 785.689 168.843 4
-20 -5 -7 700.393 166.882 3
-25 20 -7 314.906 167.024 4
-25 20 7 1109.87 206.668 4
-5 25 7 540.94 147.487 6
-20 25 7 850.544 178.661 6
-21 25 0 226.792 208.816 4
-25 21 0 -571.803 233.706 4
-21 25 -1 1069.79 246.869 4
-21 25 1 1558.64 270.781 4
-25 21 -1 1533.89 287.824 4
-25 21 1 1668.91 296.782 4
-21 25 -2 2345.55 297.791 4
-21 25 2 2771.26 313.564 4
-25 21 -2 2364.72 318.834 4
-25 21 2 2732.43 324.661 4
-21 25 -3 1539.1 260.556 4
-21 25 3 1583.69 257.726 4
-25 21 -3 1358.2 255.701 4
-25 21 3 1412.06 259.081 4
-4 25 3 646.393 139.322 6
-21 25 -4 4652.98 373.03 4
-21 25 4 5296.75 391.88 4
-25 21 -4 5455.82 404.985 4
-25 21 4 5119.96 389.658 4
-4 25 4 3786.41 281.631 6
-21 25 4 4191.03 324.964 6
-21 25 -5 929.408 187.985 4
-21 25 5 1353.88 225.005 4
-25 21 -5 1099.65 221.976 4
-25 21 5 1454.89 244.872 4
-4 25 5 1109.51 179.426 6
-21 25 5 1177.82 191.549 6
-21 25 -6 2011.3 240.005 4
-21 25 6 1824.38 232.855 4
-25 21 -6 2160.89 255.495 4
-25 21 6 1624.39 235.389 4
-4 25 6 1524.84 196.558 6
-21 25 6 1552.76 211.547 6
-22 25 0 929.419 220.036 4
-25 22 0 829.68 224.031 4
-22 25 -1 463.325 204.235 4
-22 25 1 328.899 179.396 4
-25 22 -1 271.962 179.822 4
-25 22 1 155.532 179.801 4
-25 22 1 -32.5764 72.8698 6
-22 25 -2 833.438 211.044 4
-22 25 2 772.9 188.575 4
-25 22 -2 834.13 234.303 4
-25 22 2 833.172 227.027 4
-25 22 2 483.94 160.155 6
-22 25 -3 526.57 185.448 4
-22 25 3 86.4786 151.169 4
-25 22 -3 169.776 182.536 4
-25 22 3 599.739 192.016 4
-22 25 3 -69.0917 108.967 6
-25 22 3 120.296 152.096 6
-22 25 -4 687.329 181.372 4
-22 25 4 684.75 186.971 4
-25 22 -4 873.315 202.131 4
-25 22 4 623.082 191.898 4
-3 25 4 498.747 114.537 6
-22 25 4 174.507 120.728 6
-25 22 4 419.123 159.859 6
-13 26 0 29787.7 968.949 4
-13 26 -1 173.219 213.102 4
-13 26 1 -21.699 184.589 4
-13 26 -2 14535.4 684.578 4
-13 26 2 13536 654.878 4
-13 26 -3 -95.1353 171.766 4
-13 26 3 86.5071 179.923 4
-13 26 3 -34.7609 117.46 6
-13 26 -4 704.456 217.5 4
-13 26 4 206.662 190.863 4
-13 26 4 191.03 130.464 6
-13 26 5 256.757 181.4 4
-13 26 5 126.007 129.124 6
-13 26 -6 19783.4 716.49 4
-13 26 6 18960.6 699.976 4
-13 26 6 17842.5 642.328 6
-13 26 -7 222.361 145.558 4
-13 26 7 -148.494 131.791 4
-13 -13 -7 123.817 186.919 3
-13 26 7 217.808 149.834 6
-13 -13 -8 21826.7 737.497 3
-13 26 8 20713.3 665.853 6
-13 -13 -9 98.3587 146.336 3
-13 26 9 -71.7146 121.123 6
-12 26 0 8924.51 558.091 4
-14 26 0 9444.83 574.91 4
-12 26 -1 15358.1 703.234 4
-12 26 1 15572 704.798 4
-14 26 -1 16039.2 720.728 4
-14 26 1 15378.1 702.166 4
-12 26 -2 3614.47 376.98 4
-12 26 2 3044.55 343.362 4
-14 26 -2 3360.12 359.7 4
-14 26 2 3392.23 362.692 4
-12 26 -3 2199.51 304.031 4
-12 26 3 2026.59 290.132 4
-14 26 -3 2063.19 302.814 4
-14 26 3 2424.62 308.704 4
-12 26 3 1785.42 215.097 6
-14 26 3 1892.45 232.801 6
-12 26 -4 803.56 231.313 4
-12 26 4 187.775 160.699 4
-14 26 -4 537.39 216.429 4
-14 26 4 117.557 157.554 4
-12 26 4 419.613 149.269 6
-14 26 4 15.5815 122.827 6
-12 26 -5 5212.23 406.488 4
-12 26 5 4936.5 382.899 4
-14 26 -5 5287.85 402.263 4
-14 26 5 5326.35 393.561 4
-12 26 5 5007.13 349.804 6
-14 26 5 4564.69 342.563 6
-12 26 -6 3630.02 327.414 4
-12 26 6 3704.76 329.763 4
-14 26 -6 3852.89 336.659 4
-14 26 6 4050.83 342.613 4
-14 -12 -6 3841.83 359.404 3
-12 -14 -6 3816.89 357.317 3
-12 26 6 3612.48 313.746 6
-14 26 6 3246.14 296.278 6
-12 26 -7 12990.8 554.531 4
-12 26 7 13130.7 555.116 4
-14 26 7 13419 556.354 4
-14 -12 -7 14334.4 624.367 3
-12 -14 -7 14574.4 627.37 3
-12 26 7 13445.4 552.139 6
-14 26 7 13791.6 564.903 6
-14 26 8 2388.45 233.121 4
-12 26 8 2216.37 229.197 4
-14 -12 -8 3379.71 329.553 3
-12 -14 -8 3426.26 319.646 3
-12 26 8 3551.26 298.446 6
-14 26 8 3321.93 286.615 6
-14 -12 -9 6948.53 419.678 3
-12 -14 -9 6607.21 407.462 3
-12 26 9 6364.92 371.194 6
-14 26 9 6594.8 381.69 6
-11 26 0 2752.2 342.926 4
-15 26 0 2498.66 318.129 4
-11 26 -1 11569.9 618.663 4
-11 26 1 11903.7 619.674 4
-15 26 -1 12277.6 640.244 4
-15 26 1 12862.7 648.899 4
-11 26 -2 3089.43 361.28 4
-11 26 2 3131.13 347.047 4
-15 26 -2 3213.87 359.264 4
-15 26 2 3068.42 358.256 4
-11 26 -3 1747.78 285.31 4
-11 26 3 1253.51 246.745 4
-15 26 -3 1431.45 267.307 4
-15 26 3 1881.61 288.032 4
-11 26 3 851.728 182.85 6
-15 26 3 1126.85 191.645 6
-11 26 -4 415.488 211.677 4
-11 26 4 148.708 161.744 4
-15 26 -4 256.849 192.927 4
-15 26 4 161.806 162.783 4
-11 26 4 -158.621 123.916 6
-15 26 4 -13.1912 140.391 6
-11 26 -5 2678.01 297.491 4
-11 26 5 2366.85 280.441 4
-15 26 -5 2619.18 303.352 4
-15 26 5 2416.37 282.005 4
-15 -11 -5 2642.15 309.002 3
-11 26 5 2633.96 270.104 6
-15 26 5 2074.8 242.358 6
-11 26 -6 1956.45 263.458 4
-11 26 6 2030.65 248.229 4
-15 26 -6 2381.8 271.202 4
-15 26 6 1969.03 254.661 4
-15 -11 -6 2569.4 309.849 3
-11 -15 -6 2405.12 301.107 3
-11 26 6 1814.19 231.936 6
-15 26 6 1892.97 244.172 6
-11 26 -7 5427.05 359.844 4
-11 26 7 5297.06 358.155 4
-15 26 -7 4272.64 382.308 4
-15 26 7 5668.14 359.384 4
-15 -11 -7 6181.38 430.214 3
-11 -15 -7 6141.55 420.274 3
-11 26 7 5621.54 372.416 6
-15 26 7 5335.94 359.814 6
-15 26 8 1854.01 209.682 4
-15 -11 -8 2488.45 298.487 3
-11 -15 -8 2113.7 261.37 3
-26 15 8 1705.61 211.346 4
-11 26 8 2120.99 237.072 6
-15 26 8 2278.74 243.944 6
-10 26 0 3925.21 374.25 4
-16 26 0 4224.9 398.066 4
-10 26 -1 868.02 246.948 4
-10 26 1 715.781 225.337 4
-16 26 -1 954.767 253.51 4
-16 26 1 788.096 234.26 4
-10 26 -2 1135.4 234.613 4
-10 26 2 1421.32 270.613 4
-16 26 -2 1623.12 286.231 4
-16 26 2 1269.04 263.481 4
-10 26 -3 1899.78 279.713 4
-10 26 3 2084.58 277.673 4
-16 26 -3 1833.12 286.301 4
-16 26 3 1991.33 285.899 4
-10 26 3 1298.97 211.722 6
-16 26 3 1320.7 221.031 6
-10 26 -4 261.86 183.89 4
-10 26 4 56.5505 158.926 4
-16 26 -4 95.0555 176.015 4
-16 26 4 642.135 221.101 4
-10 26 4 118.879 119.151 6
-16 26 4 55.6316 148.22 6
-10 26 -5 445.517 187.241 4
-10 26 5 587.954 195.897 4
-16 26 -5 732.092 214.346 4
-16 26 5 468.85 189.521 4
-16 -10 -5 774.454 222.667 3
-10 26 5 202.924 116.182 6
-16 26 5 427.746 160.643 6
-10 26 -6 1056.06 209.755 4
-10 26 6 1015.21 198.16 4
-16 26 -6 898.726 177.984 4
-16 26 6 1238.26 211.173 4
-16 -10 -6 1642.49 266.384 3
-10 -16 -6 1512 242.299 3
-10 26 6 842.806 171.94 6
-16 26 6 1256.32 208.794 6
-16 26 -7 177.094 154.623 4
-16 26 7 242.76 144.544 4
-16 -10 -7 425.086 200.377 3
-26 16 -7 -13.0283 140.454 4
-26 16 7 323.389 176.692 4
-10 -16 -7 66.2454 158.373 3
-10 26 7 316.901 139.869 6
-16 26 7 686.295 171.102 6
-16 26 -8 2.533 77.6843 4
-16 26 8 730.629 137.272 4
-16 -10 -8 916.029 226.088 3
-26 16 -8 -71.4896 84.0328 4
-10 -16 -8 750.131 189.503 3
-26 16 8 858.969 166.13 4
-10 26 8 917.349 171.379 6
-16 26 8 905.256 180.666 6
-9 26 0 45.873 175.571 4
-17 26 0 180.331 191.461 4
-9 26 -1 331.865 210.925 4
-9 26 1 420.527 211.808 4
-17 26 -1 443.455 217.292 4
-17 26 1 322.174 193.904 4
-9 26 -2 2341.65 303.139 4
-9 26 2 2332.12 296.273 4
-17 26 -2 2290.5 304.066 4
-17 26 2 3012.93 345.357 4
-9 26 -3 668.632 202.386 4
-9 26 3 760.876 211.928 4
-17 26 -3 849.532 218.76 4
-17 26 3 813.23 226.032 4
-9 26 3 460.261 148.512 6
-17 26 3 582.34 167.774 6
-9 26 -4 3466.16 344.431 4
-9 26 4 3050.7 318.226 4
-17 26 4 3395.57 334.818 4
-17 26 -4 2969.92 321.82 4
-17 -9 -4 3137.45 323.82 3
-9 26 4 2230.04 259.514 6
-17 26 4 2475.9 256.315 6
-9 26 5 471.299 174.108 4
-17 26 -5 869.842 211.54 4
-17 26 5 576.297 176.646 4
-26 17 -5 485.652 170.71 4
-26 17 5 689.581 223.273 4
-17 -9 -5 990.172 227.245 3
-9 26 5 913.78 163.473 6
-17 26 5 582.479 169.497 6
-17 26 -6 681.966 185.319 4
-17 26 6 611.353 174.486 4
-17 -9 -6 481.657 194.113 3
-26 17 -6 915.221 217.27 4
-26 17 6 832.467 196.175 4
-9 -17 -6 482.552 179.502 3
-9 26 6 706.026 158.049 6
-17 26 6 777.761 180.774 6
-17 26 -7 9.70762 122.742 4
-17 26 7 108.629 120.613 4
-17 -9 -7 -169.783 165.53 3
-26 17 -7 201.673 160.32 4
-26 17 7 -6.13101 143.825 4
-9 -17 -7 55.2248 138.053 3
-9 26 7 194.008 137.154 6
-17 26 7 171.513 128.213 6
-8 26 0 1546.59 265.784 4
-18 26 0 985.051 228.766 4
-8 26 -1 3949.24 361.599 4
-8 26 1 4595.69 391.153 4
-18 26 -1 4255.98 375.297 4
-18 26 1 4171.91 384.452 4
-8 26 -2 4748.04 398.729 4
-8 26 2 4448.49 387.922 4
-18 26 -2 4606.74 380.751 4
-18 26 2 5111.23 406.683 4
-18 -8 -2 4550.85 348.657 3
-18 26 -3 4978.48 396.889 4
-18 26 3 5400.96 404.087 4
-26 18 -3 5384.3 420.912 4
-26 18 3 5810.6 434.507 4
-18 -8 -3 5212.57 379.601 3
-18 26 -4 6664.99 435.729 4
-18 26 4 8322.09 483.501 4
-26 18 -4 6873.58 449.054 4
-26 18 4 7337.41 465.645 4
-18 -8 -4 6889.71 419.098 3
-8 26 4 5988.78 351.363 6
-18 26 4 5769.46 370.744 6
-18 26 -5 1526.51 241.278 4
-18 26 5 1313.7 235.484 4
-18 -8 -5 1259.43 223.787 3
-26 18 -5 1353.01 245.761 4
-26 18 5 1213.95 241.86 4
-8 26 5 989.2 168.888 6
-18 26 5 1142.92 191.47 6
-18 26 -6 2384.92 260.586 4
-18 26 6 2215.87 254.997 4
-18 -8 -6 2164.75 258.87 3
-26 18 -6 2503.13 276.92 4
-26 18 6 2174.19 249.162 4
-8 -18 -6 2201.64 249.183 3
-8 26 6 2107.51 226.403 6
-18 26 6 2126.84 230.739 6
-18 26 -7 845.984 197.966 4
-18 26 7 1447.59 197.909 4
-18 -8 -7 1630.33 227.192 3
-26 18 -7 1055.56 204.869 4
-26 18 7 1476.49 199.674 4
-8 -18 -7 1363.24 231.342 3
-8 26 7 1539.03 200.709 6
-18 26 7 1673.06 209.666 6
-19 26 0 6080.37 436.859 4
-26 19 0 6394.76 447.429 4
-19 -7 0 5552.56 352.644 3
-19 26 -1 1534.5 270.351 4
-19 26 1 1559.18 256.508 4
-26 19 -1 2326.41 319.152 4
-26 19 1 1691.26 274.846 4
-19 -7 -1 1293.91 212.693 3
-19 26 -2 5928.98 416.782 4
-19 26 2 4680.98 373.156 4
-26 19 -2 5434.33 405.428 4
-26 19 2 5471.27 405.476 4
-19 -7 -2 4848.75 348.181 3
-19 26 -3 12795.8 585.866 4
-19 26 3 12002.2 571.2 4
-26 19 -3 13645.2 612.995 4
-26 19 3 13744.4 607.008 4
-19 -7 -3 11590.4 512.702 3
-19 26 -4 771.274 206.413 4
-19 26 4 154.044 167.11 4
-19 -7 -4 335.706 163.662 3
-26 19 -4 355.838 180.276 4
-26 19 4 267.187 170.666 4
-7 26 4 448.448 133.43 6
-19 26 4 385.769 137.184 6
-19 26 -5 11757.6 529.508 4
-19 26 5 10482.1 496.294 4
-26 19 -5 11324.3 519.841 4
-26 19 5 10968.4 508.766 4
-19 -7 -5 10907.3 488.864 3
-7 26 5 9585.14 424.276 6
-19 26 5 9960.55 453.968 6
-19 26 -6 2782.79 264.551 4
-19 26 6 2797.67 260.598 4
-26 19 -6 2977.51 279.991 4
-26 19 6 2993.62 279.077 4
-19 -7 -6 2887.18 271.261 3
-7 -19 -6 1983.92 260.351 3
-7 26 6 2506.44 233.057 6
-19 26 6 2441.28 239.948 6
-20 26 0 1735.96 252.376 4
-26 20 0 1940.89 281.722 4
-20 26 -1 3623.67 331.701 4
-20 26 1 3406.91 328.479 4
-26 20 -1 3675.49 351.264 4
-26 20 1 3727.2 347.147 4
-20 26 -2 7774.76 453.324 4
-20 26 2 7863.5 454.986 4
-26 20 -2 8130.23 479.316 4
-26 20 2 7797.96 464.164 4
-20 26 -3 4058.73 343.99 4
-20 26 3 4372.83 350.416 4
-26 20 -3 4403.04 364.871 4
-26 20 3 4892.54 380.047 4
-20 26 -4 11747.4 531.611 4
-20 26 4 10675.6 501.005 4
-26 20 -4 12518.6 551.292 4
-26 20 4 12332.7 537.187 4
-20 -6 -4 9006.83 416.949 3
-20 26 4 8557.76 409.799 6
-20 26 -5 4394.02 325.974 4
-20 26 5 4272.15 330.709 4
-26 20 -5 4428.06 330.478 4
-26 20 5 4129.38 330.838 4
-20 -6 -5 3028.97 254.521 3
-6 -20 -5 2470.67 272.66 3
-6 26 5 2889.96 239.776 6
-20 26 5 3234.87 274.271 6
-21 26 0 1294.59 226.297 4
-26 21 0 1146.34 227.015 4
-21 26 -1 1929.67 255.462 4
-21 26 1 1754.82 245.063 4
-26 21 -1 1937.31 276.6 4
-26 21 1 1528.04 240.794 4
-21 26 -2 4473.88 352.644 4
-21 26 2 4861.22 353.066 4
-26 21 -2 4377.45 361.246 4
-26 21 2 4705.54 365.832 4
-13 27 0 6203.08 432.361 4
-14 27 0 6301.67 442.221 4
-13 27 -1 18381 704.562 4
-13 27 1 19381.7 716.701 4
-14 27 -1 19432.1 721.864 4
-14 27 1 18757.3 700.699 4
-14 27 2 3199.31 316.389 4
-13 27 -2 2753.17 313.514 4
-13 27 2 2694.9 298.076 4
-14 27 -2 2540.89 291.966 4
-13 27 -3 2069.02 261.097 4
-13 27 3 2418.09 272.316 4
-14 27 -3 2164 269.036 4
-14 27 3 2267.07 277.334 4
-13 27 -4 -60.8791 132.275 4
-13 27 4 325.851 158.399 4
-14 27 -4 133.202 145.801 4
-14 27 4 35.9756 135.095 4
-13 27 4 38.7264 67.5693 6
-14 27 4 10.5869 79.6607 6
-13 27 -5 4603.29 336.19 4
-13 27 5 4740.83 339.868 4
-14 27 -5 4490.05 327.126 4
-14 27 5 4073.67 311.872 4
-14 -13 -5 5150.69 364.149 3
-13 -14 -5 4568.38 344.686 3
-13 27 5 3403.71 268.981 6
-14 27 5 3620.07 274.514 6
-12 27 0 20678.6 740.495 4
-15 27 0 21550.2 757.108 4
-12 27 -1 -107.007 175.264 4
-12 27 1 135.619 165.776 4
-15 27 -1 180.508 164.821 4
-15 27 1 328.109 187.878 4
-12 27 -2 9841.11 517.191 4
-12 27 2 10366.3 523.702 4
-15 27 -2 10817.7 540.527 4
-15 27 2 10162.2 522.095 4
-12 27 -3 10.4106 143.883 4
-12 27 3 481.489 177.26 4
-15 27 -3 267.928 162.035 4
-15 27 3 361.815 160.855 4
-12 27 -4 237.479 147.273 4
-12 27 4 543.613 189.712 4
-15 27 -4 213.199 148.639 4
-15 27 4 376.027 170.877 4
-15 -12 -4 176.446 169.66 3
-12 27 4 -69.247 74.3717 6
-15 27 4 84.4212 65.8142 6
-12 27 -5 8.03943 128.04 4
-12 27 5 379.264 156.897 4
-15 27 -5 309.208 139.709 4
-15 27 5 165.826 133.811 4
-15 -12 -5 306.662 165.158 3
-12 -15 -5 104.182 161.262 3
-12 27 5 123.762 89.6785 6
-15 27 5 31.7782 96.1771 6
-11 27 0 1793.4 253.432 4
-16 27 0 1785.24 252.816 4
-11 27 -1 4788.64 368.853 4
-11 27 1 5034.16 380.042 4
-16 27 -1 5034.56 382.406 4
-16 27 1 4663.03 364.56 4
-11 27 -2 648.932 186.928 4
-11 27 2 717.859 207.418 4
-16 27 -2 758.412 200.67 4
-16 27 2 593.969 187.124 4
-11 27 -3 1012.19 211.786 4
-11 27 3 743.356 187.538 4
-16 27 -3 963.964 206.229 4
-16 27 3 813.066 191.545 4
-11 27 -4 523.307 169.716 4
-11 27 4 567.903 181.088 4
-16 27 -4 531.136 177.496 4
-16 27 4 944.517 218.998 4
-16 -11 -4 515.311 180.085 3
-11 27 -5 1023.01 188.019 4
-11 27 5 1068.31 193.164 4
-16 27 -5 929.006 178.959 4
-16 27 5 660.083 158.044 4
-16 -11 -5 1116.73 206.436 3
-11 -16 -5 1184.66 213.692 3
-11 27 5 429.499 129.906 6
-16 27 5 379.958 124.594 6
-10 27 0 17.0058 154.16 4
-17 27 0 187.998 174.264 4
-10 27 -1 308.246 164.076 4
-10 27 1 401.106 173.622 4
-17 27 -1 448.588 191.707 4
-17 27 1 563.145 194.497 4
-10 27 -2 893.567 202.959 4
-10 27 2 827.702 178.761 4
-17 27 -2 759.219 205.995 4
-17 27 2 1148.66 214.839 4
-10 27 -3 784.237 203.128 4
-10 27 3 560.865 180.159 4
-17 27 -3 477.831 165.61 4
-17 27 3 402.323 159.856 4
-17 -10 -3 699.72 189.912 3
-17 27 -4 1028.93 198.032 4
-17 27 4 967.508 191.437 4
-27 17 -4 1389.16 237.949 4
-27 17 4 853.584 191.415 4
-17 -10 -4 1160.97 213.08 3
-18 27 0 2070.66 261.637 4
-27 18 0 2094.92 274.021 4
-18 27 -1 1297.4 218.107 4
-18 27 1 1319.5 226.168 4
-27 18 -1 1743.86 268.395 4
-27 18 1 1848.4 265.766 4
-18 -9 -1 949.473 175.674 3
-18 27 -2 1883.55 253.351 4
-18 27 2 1893.71 250.593 4
-27 18 -2 1923.9 268.442 4
-27 18 2 1834.34 252.629 4
-18 -9 -2 1623.36 221.247 3
-18 27 -3 4440.54 354.045 4
-18 27 3 4038.36 337.516 4
-27 18 -3 4716.53 351.01 4
-27 18 3 5063.24 367.327 4
-18 -9 -3 4289.33 315.749 3
-19 27 0 927.901 208.599 4
-27 19 0 1018.85 220.545 4
-19 -8 0 520.403 129.39 3
loop_
_smtbx_masks_void_nr
_smtbx_masks_void_average_x
_smtbx_masks_void_average_y
_smtbx_masks_void_average_z
_smtbx_masks_void_volume
_smtbx_masks_void_count_electrons
1 -0.618 -0.332 -0.665 7269.4 1562.0
