#------------------------------------------------------------------------------
#$Date: 2019-11-10 01:28:30 +0200 (Sun, 10 Nov 2019) $
#$Revision: 225537 $
#$URL: file:///home/coder/svn-repositories/cod/cif/4/51/53/4515384.cif $
#------------------------------------------------------------------------------
#
# This file is available in the Crystallography Open Database (COD),
# http://www.crystallography.net/
#
# All data on this site have been placed in the public domain by the
# contributors.
#
data_4515384
loop_
_publ_author_name
'Zhang, Lin'
'Cheng, Fangyi'
'Shi, Wei'
'Chen, Jun'
'Cheng, Peng'
_publ_section_title
;
 Transition-Metal-Triggered High-Efficiency Lithium Ion Storage via
 Coordination Interactions with Redox-Active Croconate in One-Dimensional
 Metal-Organic Anode Materials.
;
_journal_issue                   7
_journal_name_full               'ACS applied materials &amp; interfaces'
_journal_page_first              6398
_journal_page_last               6406
_journal_paper_doi               10.1021/acsami.7b18758
_journal_volume                  10
_journal_year                    2018
_chemical_formula_moiety         'C5 H6 Mn O8'
_chemical_formula_sum            'C5 H6 Mn O8'
_chemical_formula_weight         249.04
_space_group_crystal_system      orthorhombic
_space_group_IT_number           61
_space_group_name_Hall           '-P 2ac 2ab'
_space_group_name_H-M_alt        'P b c a'
_atom_sites_solution_hydrogens   difmap
_atom_sites_solution_primary     iterative
_audit_creation_date             2017-11-17
_audit_creation_method
;
Olex2 1.2
(compiled 2016.02.19 svn.r3266 for OlexSys, GUI svn.r5155)
;
_cell_angle_alpha                90
_cell_angle_beta                 90
_cell_angle_gamma                90
_cell_formula_units_Z            8
_cell_length_a                   11.9302(3)
_cell_length_b                   8.18070(16)
_cell_length_c                   15.6895(3)
_cell_measurement_reflns_used    1842
_cell_measurement_temperature    120.65(10)
_cell_measurement_theta_max      28.8810
_cell_measurement_theta_min      3.9630
_cell_volume                     1531.25(6)
_computing_cell_refinement
;
CrysAlisPro, Agilent Technologies,
Version 1.171.36.32 (release 02-08-2013 CrysAlis171 .NET)
(compiled Aug  2 2013,16:46:58)
;
_computing_data_collection
;
CrysAlisPro, Agilent Technologies,
Version 1.171.36.32 (release 02-08-2013 CrysAlis171 .NET)
(compiled Aug  2 2013,16:46:58)
;
_computing_data_reduction
;
CrysAlisPro, Agilent Technologies,
Version 1.171.36.32 (release 02-08-2013 CrysAlis171 .NET)
(compiled Aug  2 2013,16:46:58)
;
_computing_molecular_graphics    'Olex2 (Dolomanov et al., 2009)'
_computing_publication_material  'Olex2 (Dolomanov et al., 2009)'
_computing_structure_refinement  'XL (Sheldrick, 2008)'
_computing_structure_solution
;
Superflip (Palatinus & Chapuis, 2007;Palatinus & van der Lee, 2008;
Palatinus et al., 2012)
;
_diffrn_ambient_temperature      120.65(10)
_diffrn_detector_area_resol_mean 16.2116
_diffrn_measured_fraction_theta_full 0.996
_diffrn_measured_fraction_theta_max 0.996
_diffrn_measurement_details
;
#__ type_ start__ end____ width___ exp.time_
  1 omega  -86.00   -6.00   1.0000    6.0000
omega____ theta____ kappa____ phi______ frames
    -      -19.2521  -57.0000 -180.0000 80

#__ type_ start__ end____ width___ exp.time_
  2 omega   20.00   46.00   1.0000    6.0000
omega____ theta____ kappa____ phi______ frames
    -      -19.2521   57.0000 -120.0000 26

#__ type_ start__ end____ width___ exp.time_
  3 omega  -91.00  -47.00   1.0000    6.0000
omega____ theta____ kappa____ phi______ frames
    -      -19.2521  178.0000 -180.0000 44
;
_diffrn_measurement_device_type  'SuperNova, Single source at offset, Eos'
_diffrn_measurement_method       '\w scans'
_diffrn_orient_matrix_UB_11      0.0452707000
_diffrn_orient_matrix_UB_12      0.0447848000
_diffrn_orient_matrix_UB_13      0.0177214000
_diffrn_orient_matrix_UB_21      -0.0193066000
_diffrn_orient_matrix_UB_22      0.0716781000
_diffrn_orient_matrix_UB_23      -0.0207707000
_diffrn_orient_matrix_UB_31      -0.0333882000
_diffrn_orient_matrix_UB_32      0.0193274000
_diffrn_orient_matrix_UB_33      0.0360178000
_diffrn_radiation_monochromator  mirror
_diffrn_radiation_type           MoK\a
_diffrn_radiation_wavelength     0.71073
_diffrn_reflns_av_R_equivalents  0.0203
_diffrn_reflns_av_unetI/netI     0.0250
_diffrn_reflns_Laue_measured_fraction_full 0.996
_diffrn_reflns_Laue_measured_fraction_max 0.996
_diffrn_reflns_limit_h_max       9
_diffrn_reflns_limit_h_min       -14
_diffrn_reflns_limit_k_max       9
_diffrn_reflns_limit_k_min       -9
_diffrn_reflns_limit_l_max       16
_diffrn_reflns_limit_l_min       -18
_diffrn_reflns_number            3433
_diffrn_reflns_point_group_measured_fraction_full 0.996
_diffrn_reflns_point_group_measured_fraction_max 0.996
_diffrn_reflns_theta_full        24.989
_diffrn_reflns_theta_max         24.989
_diffrn_reflns_theta_min         3.108
_diffrn_source                   'SuperNova (Mo) X-ray Source'
_exptl_absorpt_coefficient_mu    1.746
_exptl_absorpt_correction_T_max  1.00000
_exptl_absorpt_correction_T_min  0.86857
_exptl_absorpt_correction_type   multi-scan
_exptl_absorpt_process_details
;
CrysAlisPro, Agilent Technologies,
Version 1.171.36.32 (release 02-08-2013 CrysAlis171 .NET)
(compiled Aug  2 2013,16:46:58)
Empirical absorption correction using spherical harmonics,
 implemented in SCALE3 ABSPACK scaling algorithm.
;
_exptl_crystal_colour            'clear dark green'
_exptl_crystal_colour_lustre     clear
_exptl_crystal_colour_modifier   dark
_exptl_crystal_colour_primary    green
_exptl_crystal_density_diffrn    2.161
_exptl_crystal_description       block
_exptl_crystal_F_000             1000
_exptl_crystal_size_max          0.09
_exptl_crystal_size_mid          0.09
_exptl_crystal_size_min          0.005
_refine_diff_density_max         0.600
_refine_diff_density_min         -0.818
_refine_diff_density_rms         0.075
_refine_ls_extinction_method     none
_refine_ls_goodness_of_fit_ref   1.084
_refine_ls_hydrogen_treatment    constr
_refine_ls_matrix_type           full
_refine_ls_number_parameters     130
_refine_ls_number_reflns         1342
_refine_ls_number_restraints     0
_refine_ls_restrained_S_all      1.084
_refine_ls_R_factor_all          0.0344
_refine_ls_R_factor_gt           0.0295
_refine_ls_shift/su_max          0.000
_refine_ls_shift/su_mean         0.000
_refine_ls_structure_factor_coef Fsqd
_refine_ls_weighting_details
'w=1/[\s^2^(Fo^2^)+(0.0270P)^2^+2.7580P] where P=(Fo^2^+2Fc^2^)/3'
_refine_ls_weighting_scheme      calc
_refine_ls_wR_factor_gt          0.0705
_refine_ls_wR_factor_ref         0.0742
_reflns_Friedel_coverage         0.000
_reflns_number_gt                1178
_reflns_number_total             1342
_reflns_threshold_expression     'I > 2\s(I)'
_cod_data_source_file            am7b18758_si_002.cif
_cod_data_source_block           CP-1
_cod_database_code               4515384
_chemical_oxdiff_formula         'C H O N Cu'
_chemical_oxdiff_usercomment     CU1
_shelx_space_group_comment
;
The symmetry employed for this shelxl refinement is uniquely defined
by the following loop, which should always be used as a source of
symmetry information in preference to the above space-group names.
They are only intended as comments.
;
_reflns_odcompleteness_completeness 99.56
_reflns_odcompleteness_iscentric 1
_reflns_odcompleteness_theta     26.32
_olex2_refinement_description
;
1. Fixed Uiso
 At 1.5 times of:
  All O(H,H) groups
2.a Rotating group:
 O3(H3a,H3b), O4(H4a,H4b), O5(H5a,H5b)
;
_shelx_res_file
;
    p160107c.res created by SHELXL-2014/7

TITL P160107C in Pbcm New: Pbca
CELL 0.71073 11.930194 8.180699 15.689462 90 90 90
ZERR 8 0.000261 0.000164 0.000328 0 0 0
LATT 1
SYMM 0.5-X,-Y,0.5+Z
SYMM 0.5+X,0.5-Y,-Z
SYMM -X,0.5+Y,0.5-Z
SFAC C H Mn O
UNIT 40 48 8 64

L.S. 10
PLAN  -20
BOND $H
CONF
MORE -1
fmap 2
acta
OMIT -3 50.02
OMIT 0 0 4
OMIT 3 0 4
OMIT 2 3 0
OMIT 3 1 2
REM <olex2.extras>
REM <HklSrc "%.\\P160107C.hkl">
REM </olex2.extras>

WGHT    0.027000    2.758000
FVAR       3.64059
MN1   3    0.375661    0.384108    0.186121    11.00000    0.01117    0.00665 =
         0.00518   -0.00002   -0.00025    0.00011
O3    4    0.558141    0.348495    0.178731    11.00000    0.01366    0.00621 =
         0.00956    0.00196    0.00051    0.00016
AFIX   7
H3A   2    0.586011    0.398776    0.134392    11.00000   -1.50000
H3B   2    0.574351    0.244685    0.174261    11.00000   -1.50000
AFIX   0
O7    4    0.363621    0.296703    0.584383    11.00000    0.01258    0.01212 =
         0.00494    0.00117    0.00024    0.00099
O4    4    0.389681    0.601749    0.113384    11.00000    0.01259    0.01239 =
         0.00878    0.00218   -0.00048   -0.00162
AFIX   7
H4A   2    0.375776    0.580921    0.061035    11.00000   -1.50000
H4B   2    0.456153    0.640155    0.117601    11.00000   -1.50000
AFIX   0
O1    4    0.385406    0.530244    0.307699    11.00000    0.01899    0.00733 =
         0.00611    0.00125   -0.00052   -0.00123
O5    4    0.189857    0.399812    0.178034    11.00000    0.01342    0.01026 =
         0.00697    0.00111    0.00114    0.00108
AFIX   7
H5A   2    0.170147    0.476262    0.142934    11.00000   -1.50000
H5B   2    0.161967    0.421751    0.227664    11.00000   -1.50000
AFIX   0
O6    4    0.382090    0.605965    0.495463    11.00000    0.01534    0.00882 =
         0.01061   -0.00378   -0.00042   -0.00027
O8    4    0.367371    0.027833    0.454776    11.00000    0.01491    0.00656 =
         0.00935    0.00110    0.00188    0.00065
O2    4    0.365083    0.193633    0.284930    11.00000    0.01662    0.00832 =
         0.00700   -0.00027   -0.00057   -0.00067
C4    1    0.368146    0.310535    0.504828    11.00000    0.00425    0.01140 =
         0.00921   -0.00015   -0.00071    0.00092
C3    1    0.367599    0.179370    0.441067    11.00000    0.00578    0.00939 =
         0.00840    0.00158    0.00043   -0.00048
C5    1    0.376733    0.470656    0.461064    11.00000    0.00612    0.01012 =
         0.00980   -0.00039    0.00029    0.00121
C2    1    0.368420    0.258020    0.357813    11.00000    0.00661    0.00932 =
         0.00730    0.00045   -0.00018   -0.00028
C1    1    0.377412    0.433154    0.370096    11.00000    0.00543    0.00954 =
         0.00862    0.00129   -0.00089    0.00138
HKLF 4 1 -1 0 0 0 1 0 0 0 -1

REM  P160107C in Pbcm New: Pbca
REM R1 =  0.0295 for    1178 Fo > 4sig(Fo)  and  0.0344 for all    1342 data
REM    130 parameters refined using      0 restraints

END

WGHT      0.0272      2.7581

REM Highest difference peak  0.600,  deepest hole -0.818,  1-sigma level  0.075
Q1    1   0.3650  0.7148  0.1282  11.00000  0.05    0.60
Q2    1   0.3785  0.3498  0.3626  11.00000  0.05    0.30
Q3    1   0.3658  0.3916  0.4884  11.00000  0.05    0.30
Q4    1   0.3760  0.4653  0.4169  11.00000  0.05    0.28
Q5    1   0.3924  0.2137  0.3952  11.00000  0.05    0.24
Q6    1   0.4733  0.4976  0.2787  11.00000  0.05    0.23
Q7    1   0.3803  0.4914  0.2684  11.00000  0.05    0.23
Q8    1   0.3778  0.3005  0.5462  11.00000  0.05    0.23
Q9    1   0.3825  0.5036  0.3409  11.00000  0.05    0.23
Q10   1   0.1311  0.3455  0.1912  11.00000  0.05    0.23
Q11   1   0.3582  0.2327  0.4777  11.00000  0.05    0.21
Q12   1   0.2924  0.6958  0.4284  11.00000  0.05    0.20
Q13   1   0.5208  0.2225  0.2530  11.00000  0.05    0.19
Q14   1   0.3672  0.2280  0.3212  11.00000  0.05    0.19
Q15   1   0.6372  0.1584  0.1712  11.00000  0.05    0.19
Q16   1   0.3448  0.5269  0.4793  11.00000  0.05    0.19
Q17   1   0.3586  0.5524  0.0977  11.00000  0.05    0.18
Q18   1   0.4209  0.5285  0.4773  11.00000  0.05    0.18
Q19   1   0.3003  0.5815  0.3565  11.00000  0.05    0.18
Q20   1   0.3571  0.2780  0.0793  11.00000  0.05    0.18
;
_shelx_res_checksum              22735
_shelx_hkl_file
;
   0   0   3 48.5920 52.0678   3
   0   0  -3 37.6085 38.9297   3
   0   0   3-7.29159 22.1917   2
   0   0   4 2981.35 166.451   2
   0   0   4 3080.73 248.311   3
   0   0  -4 2912.10 235.612   3
   0   0  -5 15.0667 41.0149   3
   0   0   5 17.9529 26.7034   2
   0   0   5-44.7991 86.7383   3
   0   0   6 598716. 4206.66   3
   0   0   6 625449. 2774.74   2
   0   0   7 153.376 88.6783   3
   0   0   7 69.8431 42.4990   2
   0   0   8 439262. 4190.63   3
   0   0   9 56.5917 88.0484   3
   0   0  10 225924. 3379.76   3
   0   0  11 28.8166 125.275   3
   0   0  12 140.278 147.324   3
   0   0  13 280.962 206.290   3
   0   0  14 73244.2 2327.32   3
   0   0  15 250.254 233.879   3
   0   0  16 208193. 4272.40   3
   0   0  17 1121.20 363.516   3
   0   0  18 9033.93 976.864   3
   0   0  19-71.6294 242.753   3
   0   0  20 510.191 235.677   3
  -1   0   2 23119.9 501.534   3
   1   0  -3-9.10430 34.6350   3
  -1   0   3-9.40087 49.4165   3
   1   0   4 152780. 1638.37   3
   1   0  -4 149209. 1327.63   2
  -1   0   4 148900. 1752.82   3
   1   0  -4 147109. 1722.58   3
   1   0  -5 38.7006 55.7967   3
   1   0   5 43.3029 66.4730   3
   1   0  -5 4.36565 29.7609   2
  -1   0   5-66.5461 84.3245   3
   1   0   6 20878.2 756.703   3
  -1   0   6 20380.7 792.851   3
   1   0  -6 20329.2 584.558   2
   1   0  -7 58.2101 45.1526   2
  -1   0   7 26.4854 73.0554   3
   1   0   7-50.6652 98.3485   3
   1   0   8 29125.1 1057.91   3
   1   0   8 29327.9 687.877   2
  -1   0   8 27938.4 1073.75   3
   1   0   9-29.6173 46.0134   2
   1   0   9-48.1315 113.359   3
  -1   0   9 44.7905 97.6522   3
   1   0  10 198266. 1908.90   2
   1   0  10 193219. 3065.96   3
   1   0  11-140.025 157.664   3
  -1   0  11 293.444 174.804   3
  -1   0  12 165449. 3239.18   3
   1   0  12 162263. 3128.87   3
   1   0  13 93.7608 133.581   3
  -1   0  13-26.6417 167.881   3
   1   0  14 461.882 222.139   3
  -1   0  14 913.476 290.969   3
  -1   0  15-398.050 225.923   3
   1   0  15-27.5393 136.292   3
   1   0  16 4402.66 623.914   3
  -1   0  16 3829.41 605.633   3
  -1   0  17-344.327 225.299   3
   1   0  17-94.3801 196.832   3
  -1   0  18 51174.0 2340.52   3
   1   0  18 52711.0 2298.64   3
   1   0  19 92.6411 169.249   3
  -1   0  19-170.780 134.276   3
   1   0  20 13891.3 1289.69   3
   2   0   0 126.565 54.9412   1
   2   0  -1-6.15638 35.2242   1
  -2   0   1-10.3595 31.7306   1
   2   0   1 31.5312 44.9643   1
  -2   0  -1 14.6519 41.4869   1
   2   0  -2 737.643 110.508   1
  -2   0  -2 475.337 99.3212   1
   2   0  -2 660.537 97.7112   3
   2   0  -3-11.7180 37.8152   3
  -2   0   3 1.24531 54.1228   3
   2   0   4 1023.99 136.217   3
  -2   0   4 1242.47 174.866   3
   2   0  -4 1177.91 162.350   3
   2   0   5-31.7001 52.2719   3
   2   0  -5 52.3416 67.0206   3
  -2   0   5 14.2071 65.3724   3
  -2   0   6 1929.58 255.722   3
   2   0   6 2024.83 238.971   3
  -2   0   7 1.91025 76.6021   3
   2   0   7 151.719 67.7055   3
   2   0  -7 48.9083 50.3556   2
   2   0   8 563.171 149.575   3
   2   0  -8 572.878 123.283   2
  -2   0   8 624.356 179.997   3
  -2   0   9 58.8538 121.941   3
   2   0   9 53.0043 91.6335   3
   2   0  -9 21.2782 42.2078   2
   2   0 -10 800.215 154.152   2
   2   0  10 948.676 142.293   2
  -2   0  10 1022.13 262.104   3
   2   0  10 1122.55 237.954   3
   2   0  11 28.4705 52.1847   2
   2   0  11-43.5996 105.487   3
  -2   0  11 50.3382 112.837   3
   2   0  12-109.144 174.211   3
   2   0  12 15.9182 56.1280   2
  -2   0  12-88.7369 149.138   3
  -2   0  13-128.417 171.103   3
   2   0  13 194.285 166.793   3
   2   0  13-39.4786 65.4839   2
  -2   0  14 824.217 300.934   3
   2   0  14 1091.64 285.173   3
   2   0  15 61.9162 156.058   3
  -2   0  15-90.6610 200.744   3
  -2   0  16 643.951 292.491   3
   2   0  16 644.179 256.555   3
   2   0  17 92.7173 216.040   3
  -2   0  17 15.9408 221.867   3
   2   0  18-125.509 163.561   3
  -2   0  18 34.7676 174.299   3
  -2   0  19 270.428 158.427   3
   2   0  19-440.500 246.973   3
   2   0  20 367.830 267.318   3
  -3   0   0-39.5517 53.3439   1
   3   0   0 17.1975 54.7820   1
   3   0   1-30.1081 63.8298   1
  -3   0  -1 17.1282 58.1789   1
   3   0  -1 56.3237 60.6616   1
  -3   0   1-12.3295 59.6609   1
   3   0  -2 16663.9 518.920   3
   3   0   2 16575.0 590.818   1
  -3   0   2 15668.2 547.389   1
   3   0  -2 14106.7 541.707   1
  -3   0  -2 16108.4 601.934   1
   3   0  -3 100.148 53.0466   1
   3   0  -3 176.748 70.7656   3
  -3   0  -3 91.8115 69.0094   1
  -3   0  -4 279.124 87.3284   1
  -3   0   4 312.971 107.468   3
   3   0  -4 437.647 107.677   3
  -3   0   5 102.027 77.9490   3
  -3   0   6 50433.0 1333.25   3
   3   0   6 52243.7 1147.44   3
  -3   0   7 46.9956 90.5645   3
   3   0   7 125.121 72.4114   3
  -3   0   8 64622.3 1714.34   3
   3   0   8 65779.3 1527.71   3
  -3   0   9 100.101 142.869   3
   3   0   9 254.683 124.104   3
   3   0  10 36134.4 1292.18   3
  -3   0  10 38305.6 1484.60   3
   3   0  11 313.652 169.078   3
  -3   0  11-119.338 173.807   3
  -3   0  12 66584.0 2161.17   3
   3   0  12 67998.9 1975.85   3
  -3   0  13 138.860 171.621   3
   3   0  13 139.062 138.799   3
   3   0  14 101.196 111.066   3
  -3   0  14 102.044 133.033   3
  -3   0  15-36.6309 150.953   3
   3   0  15-19.4827 120.055   3
  -3   0  16 332.657 227.820   3
   3   0  16 292.948 205.008   3
  -3   0  17 135.601 173.819   3
   3   0  17 106.195 160.207   3
   3   0  18 16440.7 1265.02   3
   3   0  19-70.9205 160.345   3
   3   0  20 4641.82 745.004   3
  -4   0  -1 62.1425 60.1720   1
   4   0  -1-46.8932 76.4772   1
   4   0   1-22.4591 63.0020   1
  -4   0   1 14.3710 56.1790   1
  -4   0   2 756.755 134.259   1
   4   0   2 1141.98 184.186   1
   4   0  -2 708.477 144.674   1
   4   0  -2 919.446 137.881   3
  -4   0  -2 966.570 174.479   1
   4   0   3-28.2495 73.2663   1
   4   0  -3-21.6508 57.5147   1
   4   0  -3 17.4121 53.1112   3
   4   0  -4 3224.30 297.684   3
   4   0  -4 3441.85 322.852   1
   4   0  -5 60.1479 70.7477   1
   4   0   6 176078. 2078.49   3
   4   0   7 84.5188 59.8508   3
  -4   0   7-54.5785 104.228   3
  -4   0   8 147609. 2658.53   3
   4   0   8 146055. 2247.62   3
   4   0   9 75.6675 85.0154   3
  -4   0   9-113.243 150.494   3
   4   0  10 141492. 2504.99   3
  -4   0  10 133858. 2823.92   3
   4   0  11 180.723 148.036   3
  -4   0  11-94.2461 175.446   3
   4   0  12 12226.8 835.170   3
  -4   0  12 12363.6 946.964   3
   4   0  13 136.709 141.019   3
  -4   0  13 6.25378 144.810   3
  -4   0  14 13459.2 1077.18   3
   4   0  14 13022.4 943.311   3
   4   0  15 301.795 183.741   3
  -4   0  15 13.1138 177.569   3
   4   0  16 126361. 3187.30   3
   4   0  17-415.377 215.771   3
   4   0  18 12506.8 1087.63   3
   4   0  19-52.9624 209.023   3
   4   0  20 3410.14 601.549   3
   5   0   0 240.106 98.4989   1
   5   0   1-44.4506 95.1106   1
   5   0  -1 56.3250 78.1624   1
   5   0  -2 42887.7 1162.21   1
   5   0  -2 45073.6 999.215   3
   5   0   2 43077.2 1179.76   1
   5   0  -3-30.8784 91.7734   1
   5   0   3 24.6238 69.8436   1
   5   0  -3 83.8006 64.7170   3
   5   0  -4 191424. 2572.74   1
   5   0  -5 79.0342 87.0417   1
   5   0  -6 251.699 109.427   1
   5   0  -7-65.4193 113.834   1
   5   0   7-140.742 80.8094   3
   5   0   8 7387.16 498.857   3
   5   0   9 43.2075 118.028   3
   5   0  10 210260. 3012.35   3
   5   0  11 110.838 123.600   3
   5   0  12 174133. 3067.62   3
   5   0  13-68.3378 133.872   3
   5   0  14 1922.58 367.903   3
   5   0  15 164.528 166.968   3
   5   0  16 2266.16 432.042   3
   5   0  17-122.138 127.463   3
   5   0  18 63321.4 2402.03   3
   5   0  19 1186.32 346.944   3
   5   0  20 18705.5 1410.95   3
   6   0   0 1439.58 239.918   1
   6   0  -1-84.9364 104.211   1
   6   0   1 55.2268 84.0319   1
   6   0   2 1488.14 243.759   1
   6   0  -2 1298.45 234.745   1
   6   0  -2 1758.52 212.590   3
   6   0  -3 50.5529 71.3481   1
   6   0   3-84.2030 121.971   1
   6   0   4 2357.66 328.450   1
   6   0  -4 2486.40 321.319   1
   6   0  -5 94.0060 103.896   1
   6   0  -6 6563.62 555.658   1
   6   0   7 113.605 76.3980   3
   6   0  -7-14.8949 103.261   1
   6   0   8 3206.28 329.636   3
   6   0  -8 2865.84 401.989   1
   6   0   9 16.5474 74.8580   3
   6   0  -9-41.6473 104.888   1
   6   0 -10 5022.79 567.135   1
   6   0  10 4846.85 459.066   3
   6   0  11-9.69713 111.587   3
   6   0  12 323.510 160.087   3
   6   0  13-84.0861 142.311   3
   6   0  14 5184.55 588.237   3
   6   0  15 122.335 123.218   3
   6   0  16 3205.27 506.058   3
   6   0  17-10.8901 118.498   3
   6   0  18-289.781 131.190   3
   7   0   0 104.196 113.924   1
   7   0  -1-49.5140 127.468   1
   7   0   1 4.78728 105.729   1
   7   0  -2 6481.12 538.591   1
   7   0   2 6562.55 548.247   1
   7   0   3 22.0867 81.1263   1
   7   0  -3-67.7365 94.3024   1
   7   0   4 31070.1 1240.13   1
   7   0  -4 34892.3 1292.76   1
   7   0  -5 72.5993 113.355   1
   7   0  -6 1599.66 298.631   1
   7   0  -7 282.923 164.117   1
   7   0  -8 16992.8 1000.46   1
   7   0   8 16678.8 735.336   3
   7   0   9 76.5651 78.1026   3
   7   0  -9 54.5273 118.558   1
   7   0  10 40249.8 1304.23   3
   7   0 -10 39306.4 1630.12   1
   7   0 -11 158.654 154.144   1
   7   0  11 435.638 158.605   3
   7   0 -12 61588.6 2170.74   1
   7   0  12 61894.9 1805.74   3
   7   0 -13 57.6896 116.089   1
   7   0  13 108.612 117.987   3
   7   0 -14 1162.58 361.407   1
   7   0  14 1040.66 250.938   3
   7   0  15-48.3889 124.395   3
   7   0 -15-11.3739 127.715   1
   7   0 -16 4133.82 643.748   1
   7   0 -17-401.692 225.018   1
   7   0 -18 16298.6 1381.85   1
   8   0   0 999999. 7151.70   1
   8   0  -1 93.8323 146.358   1
   8   0   1 35.4137 115.255   1
   8   0   2 3912.41 457.587   1
   8   0  -2 4288.33 477.430   1
   8   0  -3-22.9566 115.159   1
   8   0   3-20.4227 94.1701   1
   8   0   4 8009.96 671.202   1
   8   0  -4 7660.03 645.747   1
   8   0  -5 39.0369 109.105   1
   8   0  -6 30559.0 1332.71   1
   8   0  -7 68.2145 138.767   1
   8   0   8 32482.8 1033.23   3
   8   0  -8 30318.6 1394.57   1
   8   0   9 123.734 102.290   3
   8   0  -9 38.8641 112.748   1
   8   0  10 52710.0 1472.61   3
   8   0 -10 49318.6 1874.91   1
   8   0  11 283.686 134.347   3
   8   0 -11 138.962 125.321   1
   8   0 -12 18482.8 1231.78   1
   8   0  12 21039.2 1037.00   3
   8   0 -13-47.9093 157.239   1
   8   0 -14 63.6680 155.026   1
   8   0 -15 248.515 254.824   1
   8   0 -16 56824.9 2456.70   1
   8   0 -17 134.389 125.674   1
   9   0   0 327.905 208.734   1
   9   0  -1 62.3105 115.429   1
   9   0   1-88.4603 184.410   1
   9   0  -2 898.175 272.057   1
   9   0   2 11.8061 122.589   1
   9   0  -3-7.93052 139.361   1
   9   0   3-29.1293 110.603   1
   9   0   4 24965.3 1252.90   1
   9   0  -4 24506.9 1214.91   1
   9   0  -5-177.269 139.004   1
   9   0  -6 277.643 149.237   1
   9   0  -7 155.006 158.909   1
   9   0  -8 11783.0 902.644   1
   9   0   8 14661.8 679.224   3
   9   0  -9 29.8860 86.6619   1
   9   0 -10 55638.0 2061.91   1
   9   0 -11 255.170 218.152   1
   9   0 -12 60238.1 2291.36   1
   9   0 -13-211.529 167.791   1
   9   0 -14 2179.89 477.322   1
   9   0 -15-318.770 207.012   1
   9   0 -16 2545.36 542.814   1
  10   0   0 1510.44 325.925   1
  10   0  -1-212.550 202.120   1
  10   0   1-425.144 197.308   1
  10   0  -2 1461.89 337.307   1
  10   0   2 1631.02 323.100   1
  10   0  -3 54.2971 151.762   1
  10   0   3-38.5880 149.371   1
  10   0   4 1456.31 331.342   1
  10   0  -4 2049.86 393.790   1
  10   0  -5-42.0847 179.841   1
  10   0  -6 4450.80 572.499   1
  10   0  -7 15.1130 126.813   1
  10   0  -8 3282.44 513.785   1
  10   0  -9-37.7351 97.5428   1
  10   0 -10 4845.66 650.227   1
  10   0 -11-36.9528 122.052   1
  10   0 -12 450.474 227.313   1
  10   0 -13-429.157 236.439   1
  10   0 -14 6476.99 829.776   1
  11   0   0 397.112 217.827   1
  11   0   1-289.405 181.005   1
  11   0  -1-99.6810 126.678   1
  11   0   2 23181.1 1317.02   1
  11   0  -2 19808.9 1215.46   1
  11   0   3 65.9694 183.959   1
  11   0  -3-256.362 184.951   1
  11   0  -4 67211.5 2273.25   1
  11   0   4 64063.0 2230.54   1
  11   0  -5-370.898 201.097   1
  11   0  -6 3453.68 524.138   1
  11   0  -7-124.798 177.049   1
  11   0  -8 878.418 265.642   1
  11   0  -9-223.645 206.923   1
  11   0 -10 42647.9 1996.97   1
  11   0 -11-3.80396 189.397   1
  11   0 -12 44413.8 2096.10   1
  11   0 -13 269.311 202.081   1
  12   0   0 478520. 6197.89   1
  12   0  -1 140.931 159.391   1
  12   0   1-182.642 214.674   1
  12   0   2 3054.09 502.942   1
  12   0  -2 3892.02 584.208   1
  12   0  -3 39.7971 124.155   1
  12   0   3-300.917 186.566   1
  12   0  -4 481.707 239.230   1
  12   0   4 1120.64 324.023   1
  12   0  -5 43.3855 145.015   1
  12   0  -6 61283.0 2299.88   1
  12   0  -7 19.8402 174.911   1
  12   0  -8 48353.4 2129.95   1
  12   0  -9 14.8431 152.826   1
  12   0 -10 20305.7 1418.86   1
  12   0 -11-204.318 172.926   1
  13   0   0 376.445 185.936   1
  13   0   1-15.1503 106.499   1
  13   0  -1 64.5229 155.151   1
  13   0  -2 2063.30 426.009   1
  13   0   2 2362.80 485.616   1
  13   0  -3-37.5663 145.709   1
  13   0   3 144.652 131.763   1
  13   0  -4 12180.5 1070.30   1
  13   0  -5 6.03884 142.775   1
  13   0  -6 207.911 175.549   1
  13   0  -7 144.584 148.970   1
  13   0  -8 6982.00 839.085   1
  13   0  -9 111.647 165.109   1
  14   0   0 1274.51 401.592   1
  14   0   1-39.1629 125.320   1
  14   0  -1 82.6772 86.7444   1
  14   0   2 1716.94 428.689   1
  14   0  -2 1955.49 455.001   1
  14   0   3-490.603 246.559   1
  14   0  -3-332.841 204.642   1
  14   0  -4 646.424 275.998   1
  14   0  -5-110.731 198.024   1
  14   0  -6 3715.64 630.293   1
  14   0  -7-441.461 246.968   1
  14   0  -8 1204.76 389.665   1
  15   0   0 260.239 142.935   1
  15   0  -1-68.9839 148.659   1
  15   0   1-407.791 233.399   1
  15   0  -2 3297.43 609.403   1
  15   0   2 4679.77 717.550   1
  15   0  -3 292.224 230.135   1
  15   0  -4 21165.7 1535.66   1
  15   0  -5 390.878 211.985   1
  15   0  -6 2209.47 515.222   1
  16   0  -1 320.483 199.415   1
  16   0  -2 4433.07 727.638   1
  16   0  -3-148.933 149.676   1
   0  -1  -2 2.19068 22.8175   1
   0  -1  -3 32.7961 47.0919   3
   0  -1  -4 29.6887 53.0005   3
   0   1   5-4.77292 61.3004   3
   0  -1   5 34.5546 56.6635   3
   0  -1   5 3.62711 48.2740   2
   0  -1  -5 141.411 67.8860   3
   0  -1   6 9.10198 64.4823   3
   0   1   6 25.3212 60.1663   3
   0  -1   6-29.1806 63.6744   2
   0  -1   7-21.0432 61.8458   2
   0   1   7-58.0664 110.278   3
   0  -1   7 81.8072 77.1245   3
   0  -1   8-88.3442 66.0660   2
   0   1   8 10.4471 79.9021   3
   0  -1   8 21.0182 102.268   3
   0  -1   9 20.3686 83.5599   3
   0   1   9 210.817 121.075   3
   0  -1   9 42.5271 58.5894   2
   0  -1  10-48.2806 65.7846   2
   0  -1  10-45.8473 149.802   3
   0   1  10-41.2533 87.3354   3
   0  -1  11 2.32395 67.2159   2
   0  -1  11-25.8107 126.756   3
   0   1  11 116.218 106.599   3
   0   1  12-66.1897 145.269   3
   0  -1  12-74.1692 155.614   3
   0   1  13 132.204 139.198   3
   0  -1  13-136.532 183.326   3
   0   1  14-128.274 166.352   3
   0  -1  14-5.09702 142.412   3
   0   1  15 214.560 200.072   3
   0  -1  15-36.6701 126.321   3
   0   1  16-979.780 322.865   3
   0  -1  16 56.4805 170.963   3
   0   1  17-438.398 240.661   3
   0  -1  17-11.8508 125.908   3
   0  -1  18 56.9054 163.429   3
   0  -1  19-567.139 287.355   3
  -1  -1  -1 1547.74 135.095   1
  -1  -1  -2 8350.89 332.120   1
   1   1   2 8191.74 317.489   1
   1   1  -2 8588.15 367.949   2
  -1  -1   2 8647.60 363.050   2
   1   1   2 8363.98 236.858   2
  -1  -1   3 126810. 1483.13   2
  -1  -1  -3 128526. 1395.82   1
   1   1  -3 133639. 1550.64   2
  -1  -1   3 130017. 1490.34   3
  -1  -1  -3 128060. 1232.28   3
  -1  -1   4 99803.8 1478.64   3
   1   1  -4 100232. 1419.85   2
   1   1   4 93981.7 1305.02   3
  -1  -1  -4 102223. 1309.97   3
  -1  -1   4 99054.3 1384.27   2
   1  -1  -4 99555.4 1459.52   3
   1   1   5 1272.51 173.457   3
  -1  -1   5 1533.22 182.776   2
  -1  -1   5 1225.90 190.939   3
   1  -1  -5 1540.80 200.653   3
   1   1  -5 1106.78 159.853   2
   1   1   6 47836.7 1138.24   3
  -1  -1   6 47040.7 1061.52   2
  -1  -1   6 51177.4 1281.07   3
  -1  -1  -6 50824.4 1125.70   3
  -1   1   6 47460.2 1237.70   3
  -1   1   7 49069.6 1349.83   3
  -1  -1   7 47731.1 1119.55   2
   1  -1   7 50696.1 1320.58   3
  -1  -1   7 50139.4 1357.79   3
   1  -1  -7 48724.5 737.816   2
   1   1   7 48483.0 1247.33   3
   1   1   8 1343.57 225.496   3
   1  -1   8 1301.14 238.139   3
   1  -1  -8 1226.70 129.894   2
  -1   1   8 1453.11 254.994   3
  -1  -1   8 1281.75 240.573   3
   1  -1   9 34068.2 1002.57   2
  -1  -1   9 35254.0 1303.37   3
  -1   1   9 35700.3 1314.15   3
   1  -1   9 35792.3 1271.21   3
   1   1   9 35928.3 1239.07   3
  -1   1  10 136892. 2716.65   3
   1  -1  10 135123. 2083.41   2
  -1  -1  10 136690. 2708.58   3
   1   1  10 134387. 2553.01   3
   1  -1  10 134653. 2601.02   3
  -1   1  11 7136.51 666.179   3
   1   1  11 6965.65 619.166   3
  -1  -1  11 6198.38 611.526   3
   1  -1  11 6317.57 456.977   2
   1  -1  11 6363.03 603.587   3
   1  -1  12 99273.9 2484.70   3
   1  -1  12 101358. 1871.82   2
   1   1  12 97430.2 2422.79   3
  -1  -1  12 103802. 2595.68   3
  -1   1  12 99460.9 2567.38   3
   1  -1  13 49771.6 1837.97   3
   1   1  13 47550.0 1782.74   3
  -1  -1  13 47202.7 1838.40   3
  -1   1  13 46684.7 1841.71   3
   1  -1  13 44983.1 1235.37   2
  -1  -1  14 458.218 218.164   3
   1   1  14 407.860 198.291   3
  -1   1  14 590.276 252.143   3
   1  -1  14 539.930 221.430   3
  -1  -1  15 3147.68 521.255   3
   1  -1  15 3767.74 563.736   3
   1   1  15 2774.69 496.605   3
  -1   1  15 2955.85 527.140   3
   1  -1  16 51.2482 164.158   3
  -1  -1  16-29.9497 155.469   3
   1   1  16 190.011 135.549   3
   1  -1  17 13731.9 1145.03   3
  -1  -1  17 14822.7 1211.34   3
   1   1  17 11173.7 1028.35   3
   1  -1  18 24839.0 1590.14   3
  -1  -1  18 25727.1 1648.15   3
  -1  -1  19 3102.33 637.834   3
   1  -1  19 3369.61 608.394   3
   1  -1  20 24480.7 1701.39   3
   2  -1   0 598557. 2213.95   1
  -2   1   0 595321. 2370.73   1
   2   1   0 594430. 3196.65   1
  -2  -1  -1 243785. 2088.10   1
   2   1  -1 245560. 2113.54   1
  -2  -1   1 237183. 1446.74   3
   2  -1  -1 240983. 1323.03   1
  -2   1   1 242281. 1300.89   1
  -2  -1   1 245815. 2091.62   1
   2   1   1 236966. 2014.21   1
   2   1   2 13111.0 490.431   1
   2   1  -2 13379.4 526.605   1
   2  -1  -2 12690.7 328.279   1
  -2  -1  -2 14130.2 276.500   3
  -2  -1  -2 13333.4 507.679   1
  -2  -1   2 12972.6 417.572   3
  -2  -1  -3 8937.56 433.510   1
  -2  -1  -3 8733.47 294.066   3
  -2  -1   3 8866.49 405.453   3
   2   1  -3 8965.81 428.205   2
   2   1   3 8479.98 416.778   1
   2   1   3 9052.68 299.585   3
  -2  -1  -4 1489.66 153.015   3
  -2  -1   4 1723.57 202.221   3
  -2  -1  -4 1868.48 208.025   1
   2  -1  -4 1518.16 190.607   3
   2   1   4 1746.17 160.198   3
   2   1  -4 1680.71 198.312   2
  -2  -1  -5 150372. 2000.08   1
  -2  -1   5 142056. 1999.93   3
  -2  -1  -5 145867. 1663.35   3
   2   1  -5 145225. 1923.32   2
   2   1   5 141080. 1662.17   3
   2   1   6 1239.86 181.649   3
  -2  -1   6 1423.60 223.587   3
  -2  -1  -6 1543.09 194.498   3
   2   1  -6 1343.52 195.643   2
   2   1   7 28854.2 936.355   3
  -2  -1   7 32871.3 1125.96   3
   2   1   8 109880. 1963.06   3
  -2  -1   8 111618. 2214.84   3
   2  -1   8 108011. 2041.58   3
   2  -1   9 45487.9 1419.10   3
   2   1   9 46816.5 1384.09   3
  -2  -1   9 46874.7 1516.82   3
   2  -1  -9 47252.9 956.779   2
   2   1  10 6720.82 555.531   3
  -2  -1  10 7681.75 653.018   3
   2  -1 -10 7326.96 398.187   2
  -2   1  10 6531.49 614.541   3
   2  -1  10 7814.66 628.585   3
  -2  -1  11 88487.0 2315.48   3
   2  -1  11 86953.3 1735.78   2
   2   1  11 87266.0 2122.11   3
   2  -1 -11 90689.7 1418.77   2
   2  -1  11 86845.5 2182.37   3
   2  -1  12 1777.73 258.317   2
   2   1  12 2083.79 351.385   3
  -2   1  12 1357.99 342.145   3
  -2  -1  12 1817.93 362.276   3
   2  -1  12 2302.94 372.579   3
   2  -1  13 13958.7 712.473   2
  -2  -1  13 13626.9 999.736   3
   2  -1  13 12738.9 925.296   3
   2   1  13 13148.9 916.945   3
  -2  -1  14 6605.33 728.673   3
   2  -1  14 6206.50 480.558   2
   2  -1  14 5929.63 666.336   3
   2   1  14 7201.57 720.995   3
   2  -1  15 58798.5 2147.02   3
   2   1  15 60697.3 2152.50   3
  -2  -1  15 61492.5 2289.82   3
   2   1  16 7840.83 839.400   3
  -2  -1  16 10168.7 974.046   3
   2  -1  16 8014.77 839.999   3
   2  -1  17 71830.4 2590.63   3
   2   1  17 72047.2 2570.27   3
  -2  -1  17 72212.5 2697.76   3
  -2  -1  18 21771.5 1532.83   3
   2   1  18 19887.6 1418.08   3
   2  -1  18 22114.9 1493.46   3
   2  -1  19 5428.85 769.632   3
  -2  -1  19 6323.72 866.393   3
   2  -1  20 346.810 212.514   3
  -3  -1   0 11.4349 47.2765   1
   3  -1   0 26.8524 46.2932   1
   3   1   0 185.204 110.616   1
  -3   1   0 106.645 65.9273   1
   3  -1  -1 2856.09 198.762   1
   3   1  -1 2758.76 261.082   1
   3   1  -1 3134.58 180.887   3
  -3   1   1 2833.43 199.864   1
   3   1   1 2968.17 268.989   1
  -3  -1   1 3161.35 278.346   1
  -3  -1   1 3420.73 181.980   3
  -3  -1  -1 2806.73 263.107   1
  -3   1  -1 2837.01 230.576   1
  -3  -1  -2 16896.8 658.238   1
  -3   1   2 15927.4 471.645   1
  -3  -1   2 16413.8 640.511   1
   3  -1  -2 16621.2 474.334   1
  -3   1  -2 16641.9 575.082   1
  -3  -1   2 16130.7 484.153   3
   3   1  -2 16045.4 495.728   3
   3   1  -2 15168.2 627.107   1
   3   1   2 16307.4 631.611   1
   3   1  -3 5391.62 330.934   3
   3  -1  -3 5626.16 296.224   1
  -3  -1  -3 6099.11 405.414   1
   3   1   3 5560.37 382.336   1
   3   1   3 5623.48 212.608   3
  -3  -1   3 5369.40 323.884   3
   3   1  -3 5465.89 398.508   1
  -3  -1   4 500.798 114.173   3
   3   1   4 636.387 96.3252   3
   3   1  -4 750.933 144.307   3
   3   1   4 687.677 151.535   1
  -3  -1   5 455.288 123.117   3
   3   1   5 668.508 113.374   3
   3   1   6 4062.46 304.365   3
  -3  -1   6 3371.04 345.087   3
  -3  -1   7 54118.4 1466.30   3
   3   1   7 53418.6 1234.00   3
   3   1   8 4461.45 385.274   3
  -3  -1   8 5228.33 487.101   3
   3   1   9 9278.17 600.351   3
   3  -1   9 10131.5 666.659   3
  -3  -1   9 9648.28 700.005   3
  -3  -1  10 49178.6 1667.91   3
   3  -1  10 46636.7 1514.61   3
   3   1  10 49421.1 1474.24   3
   3   1  11 667.557 85.5745   2
   3  -1  11 424.132 182.140   3
  -3  -1  11 396.609 185.217   3
   3   1  11 550.778 185.038   3
   3  -1  12 60568.5 1894.46   3
   3   1  12 57806.9 1782.50   3
  -3  -1  12 54927.2 1940.39   3
   3  -1  13 28212.1 1350.73   3
  -3  -1  13 29996.7 1496.55   3
   3  -1  13 31136.6 1095.33   2
   3   1  13 28497.6 1327.51   3
  -3  -1  14 1439.74 361.513   3
   3  -1  14 629.036 220.764   3
   3   1  14 1084.53 299.615   3
   3  -1  15-14.6788 189.858   3
  -3  -1  15 198.060 185.473   3
   3   1  15 141.345 128.662   3
  -3  -1  16 4531.96 675.949   3
   3  -1  16 3859.97 582.007   3
   3   1  16 3422.98 536.866   3
   3  -1  17 2816.42 512.913   3
  -3  -1  17 2645.96 543.364   3
   3   1  17 1497.87 377.787   3
   3   1  18 8892.66 932.156   3
  -3  -1  18 8292.53 976.129   3
   3  -1  18 7781.20 881.296   3
   3   1  19-369.922 212.302   3
  -3  -1  19 33.5351 167.863   3
   3  -1  19-8.85443 134.506   3
   3  -1  20 15639.3 1336.40   3
   4   1   0 64587.9 679.050   3
   4   1   0 64674.8 1372.22   1
  -4   1   0 65741.1 1176.89   1
   4  -1   0 65318.1 1148.15   1
  -4  -1   0 66451.0 1387.53   1
   4   1  -1 27302.6 575.535   3
   4  -1  -1 27153.0 726.782   1
  -4   1   1 27491.2 727.262   1
  -4  -1   1 27774.0 898.526   1
   4   1  -1 26304.1 896.802   1
  -4   1  -1 28775.3 812.366   1
   4   1   1 27822.2 907.799   1
   4  -1   1 28732.7 785.583   1
   4   1  -2 97.2474 77.8245   1
  -4  -1   2 256.106 71.7538   3
  -4   1  -2 164.625 62.1088   1
   4  -1  -2 254.619 76.5142   1
   4   1   2 149.546 92.9718   1
  -4   1   2 437.640 99.5038   1
   4   1  -2 208.538 72.0218   3
   4   1   3 2490.47 284.561   1
   4   1  -3 2475.64 287.718   1
   4   1   3 2307.12 127.744   3
   4   1  -3 2594.90 238.964   3
   4  -1  -3 2283.67 221.300   1
  -4  -1   3 2229.35 214.669   3
  -4  -1   4 423.191 119.421   3
   4   1   4 482.299 77.6848   3
   4  -1  -4 358.596 92.5057   1
   4   1  -4 396.174 105.590   3
   4   1  -4 408.855 125.841   1
   4   1   4 446.473 154.346   1
  -4  -1   5-112.120 76.1345   3
   4   1  -5 49.0633 81.2815   1
   4   1   5 75.2908 48.9698   3
   4  -1  -5-201.919 84.8349   1
  -4  -1   6 42.0113 88.2436   3
   4   1   6 73.3115 59.4142   3
  -4  -1   7 2465.26 329.401   3
   4   1   7 1809.73 219.064   3
   4   1   8 72.7849 62.5669   3
  -4  -1   8 16.3575 107.358   3
   4   1   9 1087.11 209.270   3
  -4  -1   9 943.141 219.005   3
   4  -1   9 1317.97 248.381   3
  -4  -1  10 2642.44 404.324   3
   4   1  10 2042.95 302.998   3
   4  -1  10 1765.12 299.490   3
  -4  -1  11 1618.64 324.730   3
   4   1  11 920.874 224.709   3
   4  -1  11 1208.07 264.128   3
   4   1  12 133.179 124.018   3
   4  -1  12-3.50027 128.742   3
  -4  -1  12-120.803 169.414   3
  -4  -1  13 21.0917 139.480   3
   4   1  13 54.2084 148.470   3
   4  -1  13 204.000 151.650   3
   4  -1  14 148.037 128.659   3
   4   1  14 114.748 149.751   3
   4  -1  15 1613.20 365.444   3
  -4  -1  15 1793.34 420.266   3
   4   1  15 1465.55 357.936   3
   4   1  16 109.884 128.859   3
   4  -1  16 234.852 215.229   3
  -4  -1  17-133.961 209.394   3
   4  -1  17 160.284 218.291   3
   4   1  17-162.113 196.435   3
   4  -1  18 33.0144 89.3341   3
  -4  -1  18 40.8154 217.122   3
   4   1  18 122.165 132.636   3
   4   1  19 25.4401 243.747   3
   4  -1  19-271.683 206.552   3
   4  -1  20-286.707 196.754   3
   5  -1   0 63.5281 63.7616   1
   5   1   0 303.644 57.3754   3
  -5   1   0 17.0488 54.9664   1
   5   1   0 178.282 135.457   1
  -5   1  -1 5921.70 417.989   1
   5  -1  -1 5385.56 370.630   1
   5  -1   1 5114.04 375.347   1
   5   1   1 5520.78 452.838   1
   5   1  -1 5353.59 281.222   3
   5   1  -1 5674.98 452.706   1
  -5   1   1 6076.92 392.884   1
   5   1   2 14419.3 733.980   1
   5   1  -2 12844.6 495.944   3
  -5   1   2 13465.0 582.469   1
   5   1  -2 13485.9 707.926   1
   5  -1   2 14719.6 663.237   1
   5  -1  -2 13493.8 581.342   1
   5   1  -3 160167. 1962.66   3
   5   1  -3 162632. 2504.62   1
   5   1   3 156647. 1005.46   3
   5   1   3 162075. 2475.22   1
   5  -1  -3 160160. 2048.08   1
  -5   1   3 159524. 2061.46   1
   5   1   4 106535. 2063.69   1
   5   1   4 108318. 1063.90   3
   5   1  -4 107881. 2119.61   1
  -5  -1   4 106809. 1713.82   3
   5  -1  -4 106227. 1696.69   1
   5   1   5 5631.69 496.150   1
   5   1  -5 5833.36 510.489   1
   5   1   5 5922.33 300.383   3
  -5  -1   5 5777.06 438.607   3
   5  -1  -5 5599.10 416.856   1
   5  -1  -6 52963.9 1335.30   1
  -5  -1   6 53460.5 1422.98   3
   5   1   6 52006.2 1022.03   3
   5   1  -6 53189.8 1612.24   1
   5   1   7 23092.9 761.837   3
   5   1  -7 22434.9 1086.27   1
   5  -1  -7 23190.4 948.026   1
  -5  -1   7 23531.8 1011.62   3
   5  -1  -8 2384.65 324.356   1
   5   1   8 2435.90 279.174   3
  -5  -1   8 2327.80 351.675   3
   5   1   9 35645.0 1114.39   3
  -5  -1   9 36601.1 1421.89   3
  -5  -1  10 91423.0 2358.46   3
   5  -1  10 89256.9 2067.91   3
   5   1  10 88379.9 1899.38   3
  -5  -1  11 20488.0 1176.18   3
   5  -1  11 19834.5 1027.19   3
   5   1  11 19721.8 955.028   3
   5  -1  12 74463.5 2109.76   3
   5   1  12 76726.5 1975.49   3
  -5  -1  12 74656.1 2338.04   3
  -5  -1  13 36100.8 1706.20   3
   5   1  13 36986.7 1454.34   3
   5  -1  13 37443.1 1548.99   3
  -5  -1  14 100.781 177.145   3
   5   1  14 85.1013 136.306   3
   5  -1  14 81.6356 119.350   3
   5  -1  15 5206.57 637.544   3
   5   1  15 5931.66 642.489   3
  -5  -1  15 5818.86 751.640   3
   5  -1  16 246.037 203.975   3
  -5  -1  16 121.834 156.499   3
   5   1  16 101.617 159.565   3
   5   1  17 19299.4 1276.60   3
  -5  -1  17 17145.5 1381.72   3
   5  -1  17 15579.4 1189.45   3
   5  -1  18 22077.2 1469.70   3
  -5  -1  18 18478.1 1518.91   3
   5   1  18 19725.9 1335.56   3
   5  -1  19 5879.79 785.224   3
   5  -1  20 15627.0 1308.24   3
   6  -1   0 650178. 4609.17   1
   6   1   0 647119. 5223.54   1
   6   1   0 641406. 2786.69   3
   6   1  -1 348065. 3828.95   1
   6  -1  -1 347813. 3350.09   1
   6  -1   1 340775. 3381.74   1
   6   1  -1 349209. 2389.41   3
   6   1   1 348002. 3856.78   1
   6   1   1 352589. 1690.49   3
   6  -1   2 78594.6 1678.35   1
   6   1  -2 73961.7 1276.34   3
   6  -1  -2 77197.3 1566.45   1
   6   1  -2 76234.9 1838.05   1
   6   1   2 79189.7 1861.15   1
   6   1   3 19709.8 938.651   1
   6   1  -3 20130.6 956.990   1
   6  -1  -3 17819.2 757.612   1
   6   1  -3 19326.9 707.609   3
   6  -1  -4 2506.53 301.505   1
   6   1  -4 2107.94 324.357   1
   6   1   4 2599.32 160.272   3
   6   1   4 2091.05 315.750   1
   6   1  -5 160211. 2838.70   1
   6   1   5 164492. 2815.41   1
   6   1   5 165865. 1513.65   3
   6  -1  -5 162106. 2387.39   1
   6   1   6 49113.9 953.742   3
   6   1  -6 48568.7 1626.44   1
   6  -1  -6 49680.6 1378.93   1
   6   1   7 130762. 1742.24   3
  -6  -1   7 129519. 2431.07   3
   6  -1  -7 127744. 2324.89   1
   6   1  -7 127675. 2714.19   1
   6   1   8 171724. 2209.41   3
   6  -1  -8 170679. 2803.28   1
   6   1  -8 171461. 3253.28   1
  -6  -1   8 169431. 2955.72   3
   6   1   9 72753.8 1556.18   3
   6   1  -9 70591.1 2161.29   1
   6  -1  -9 71859.2 1892.53   1
  -6  -1   9 68887.7 1993.20   3
   6  -1  10 10728.1 717.528   3
   6   1  10 11621.0 670.515   3
   6   1 -10 10655.2 871.831   1
   6  -1 -10 10309.3 755.997   1
  -6  -1  10 10662.9 837.224   3
  -6  -1  11 36779.7 1609.61   3
   6  -1 -11 37438.3 1486.47   1
   6  -1  11 38749.5 1425.42   3
   6   1  11 37701.1 1278.94   3
  -6  -1  12 2286.36 435.872   3
   6   1  12 2022.38 320.369   3
   6  -1  12 2223.24 369.200   3
   6   1  13 37425.8 1427.81   3
  -6  -1  13 33642.0 1670.24   3
   6  -1  13 38092.4 1555.49   3
  -6  -1  14 2397.71 498.014   3
   6   1  14 3387.80 457.361   3
   6  -1  14 2654.32 434.109   3
   6   1  15 94212.3 2510.66   3
   6  -1  15 91029.4 2625.33   3
   6   1  16 21564.0 1257.35   3
   6  -1  16 23927.7 1412.43   3
   6  -1  17 61648.5 2335.45   3
   6  -1  18 11387.7 1048.77   3
   6  -1  19 794.373 320.750   3
   7   1   0 5.42880 33.1602   3
   7   1   0-106.890 137.024   1
   7  -1   0 155.965 96.1604   1
   7   1   1 1525.49 293.474   1
   7  -1  -1 1757.84 272.137   1
   7  -1   1 1304.34 235.173   1
   7   1   1 1350.31 123.402   3
   7   1  -1 1183.17 244.703   1
   7   1  -1 1375.15 160.795   3
   7  -1   2 136.103 97.9461   1
   7   1   2 162.403 37.8432   3
   7  -1  -2 216.631 122.377   1
   7   1  -2 337.121 166.363   1
   7   1   2 370.629 175.230   1
   7   1  -2 65.0046 53.9210   3
   7   1  -3 26767.5 1196.12   1
   7   1   3 27297.2 1168.14   1
   7  -1  -3 27061.2 1032.61   1
   7   1  -4 1993.08 334.728   1
   7   1   4 1819.05 312.870   1
   7  -1  -4 1538.68 250.447   1
   7   1   4 2009.80 137.368   3
   7   1   5 25039.4 1167.69   1
   7   1   5 22746.2 540.278   3
   7  -1  -5 22622.8 986.141   1
   7   1  -6 2019.45 377.263   1
   7   1   6 1972.33 184.360   3
   7  -1  -6 2104.18 312.954   1
   7  -1  -7 30705.8 1191.02   1
   7   1  -7 32493.7 1435.83   1
   7   1   7 33195.5 850.821   3
   7   1  -8 2601.56 429.774   1
   7  -1  -8 2569.01 366.928   1
   7   1   8 2313.36 250.854   3
   7   1   9 26504.8 905.417   3
   7  -1  -9 23676.7 1138.18   1
   7   1  -9 24676.7 1326.41   1
   7   1 -10 38598.2 1708.72   1
   7  -1  10 38792.5 1360.68   3
   7  -1 -10 38008.6 1492.51   1
   7   1  10 39581.9 1196.68   3
   7  -1 -11 3063.21 441.573   1
   7   1  11 3290.54 376.499   3
   7  -1  11 2746.34 381.866   3
   7   1 -11 3162.72 517.613   1
   7   1  12 58612.3 1658.54   3
   7   1 -12 55780.9 2182.78   1
   7  -1  12 61703.6 1880.46   3
   7  -1 -12 58534.3 2000.80   1
   7  -1  13 23742.6 1228.70   3
   7   1 -13 22701.7 1442.02   1
   7  -1 -13 23416.0 1321.95   1
   7   1  13 24249.1 1128.08   3
   7  -1  14 1228.80 304.691   3
   7   1 -14 1015.23 366.007   1
   7  -1 -14 781.748 270.886   1
   7   1 -15 5.40494 136.929   1
   7  -1 -15-387.429 194.374   1
   7  -1  15-10.6955 146.614   3
   7  -1  16 1026.96 312.798   3
   7   1 -16 543.773 275.675   1
   7  -1  17 5156.24 676.055   3
   7   1 -17 5366.38 804.346   1
   7   1 -18 9119.76 1063.98   1
   8  -1   0 41891.4 1381.50   1
   8   1   0 40368.9 1524.07   1
   8   1   0 40322.4 824.979   3
   8   1  -1 17034.5 999.086   1
   8   1   1 17966.0 1020.94   1
   8  -1   1 15910.0 874.988   1
   8   1   1 17295.2 469.659   3
   8   1  -1 17184.7 612.979   3
   8  -1  -1 17820.1 913.544   1
   8   1   2 2720.31 401.294   1
   8   1  -2 2877.14 271.922   3
   8   1   2 2871.95 168.487   3
   8  -1  -2 3208.45 394.146   1
   8  -1   2 2374.75 341.415   1
   8   1  -2 3130.01 439.939   1
   8   1  -3 3611.86 472.120   1
   8  -1   3 4202.65 465.215   1
   8  -1  -3 3637.13 420.971   1
   8   1   3 3517.77 462.509   1
   8   1   4-9.59918 17.4618   3
   8   1   4-55.0391 100.282   1
   8  -1  -4 3.86547 106.848   1
   8   1  -4 97.8299 156.263   1
   8   1  -5 208.548 147.302   1
   8   1   5 629.252 88.3975   3
   8   1   5 404.061 190.581   1
   8   1  -6 1641.96 328.523   1
   8  -1  -6 1328.22 279.829   1
   8   1   6 1426.58 148.389   3
   8   1   7 1077.74 149.357   3
   8  -1  -7 574.526 192.534   1
   8   1  -7 889.154 262.443   1
   8  -1  -8 516.044 186.835   1
   8   1  -8 756.758 250.949   1
   8   1   8 778.544 142.791   3
   8   1  -9 644.815 255.574   1
   8  -1  -9 862.290 233.564   1
   8   1   9 519.007 124.521   3
   8  -1 -10 1649.07 326.997   1
   8  -1  10 2436.99 351.950   3
   8  -1  11 3363.58 425.770   3
   8  -1 -11 3560.22 505.084   1
   8   1 -11 3115.85 529.444   1
   8  -1 -12-291.458 175.926   1
   8  -1  12-111.441 123.327   3
   8   1 -12-135.792 152.880   1
   8  -1  13 197.412 128.175   3
   8   1 -13-28.2347 145.767   1
   8  -1 -13 314.674 208.273   1
   8  -1  14 3992.31 523.400   3
   8   1 -14 3281.24 592.608   1
   8  -1 -14 4179.93 601.313   1
   8   1 -15 1694.00 431.587   1
   8   1 -16-178.329 247.955   1
   8   1 -17 1013.09 375.661   1
   8   1 -18 18.9179 153.056   1
   9   1   0 17.6938 32.9000   3
   9   1   0 96.5928 135.204   1
   9  -1   0-84.7841 140.511   1
   9   1   1 111.252 162.465   1
   9  -1  -1 477.719 184.001   1
   9  -1   1 68.8124 102.239   1
   9   1   1 246.341 60.1736   3
   9   1  -1 36.7094 133.237   1
   9   1  -1 165.839 72.0930   3
   9  -1  -2 160.270 139.337   1
   9  -1   2 39.5921 124.267   1
   9   1   2-116.591 172.578   1
   9   1  -2 61.4433 125.381   1
   9   1   2 74.4202 27.1453   3
   9   1   3 27102.5 1329.78   1
   9   1  -3 28780.2 1375.31   1
   9  -1   3 28464.9 1283.27   1
   9  -1  -3 29761.9 1257.48   1
   9  -1  -4 17669.9 974.342   1
   9   1   4 18188.1 1098.28   1
   9   1  -4 17556.6 1091.03   1
   9   1   4 18533.3 369.666   3
   9   1   5 27.4676 121.195   1
   9  -1  -5 270.746 166.838   1
   9   1  -5 244.510 166.254   1
   9   1  -6 17659.8 1133.59   1
   9  -1  -6 17726.4 1009.45   1
   9  -1  -7 9969.56 774.060   1
   9   1  -7 10457.1 898.055   1
   9   1  -8 4.89617 95.4504   1
   9  -1  -8 155.852 134.062   1
   9  -1  -9 4546.18 542.564   1
   9   1  -9 3577.27 555.884   1
   9   1 -10 14867.5 1134.47   1
   9  -1 -10 12477.6 920.787   1
   9  -1  10 13299.5 809.637   3
   9   1 -11 5220.36 693.299   1
   9  -1 -11 5511.73 643.544   1
   9  -1  11 5383.69 532.558   3
   9  -1 -12 17317.4 1163.09   1
   9   1 -12 17098.3 1294.84   1
   9  -1 -13 12238.7 1007.33   1
   9   1 -13 11859.3 1105.99   1
   9   1 -14 328.411 248.140   1
   9   1 -15 873.977 342.165   1
   9   1 -16 1235.73 390.241   1
   9   1 -17 3570.35 684.526   1
  10   1   0 213938. 3935.28   1
  10  -1   0 219489. 3600.10   1
  10  -1  -1 117467. 2670.05   1
  10  -1   1 117130. 2666.03   1
  10   1   1 113316. 2880.43   1
  10   1  -1 114097. 2880.47   1
  10   1  -2 21592.2 1260.67   1
  10  -1  -2 24897.6 1229.03   1
  10   1   2 21950.6 1265.14   1
  10  -1  -3 7924.15 692.556   1
  10   1  -3 5849.12 665.800   1
  10  -1   3 6748.66 669.628   1
  10   1   3 6776.34 714.522   1
  10   1   4 1247.26 326.770   1
  10   1  -4 1212.37 306.814   1
  10  -1  -4 1294.58 289.634   1
  10   1  -5 48104.8 1938.31   1
  10  -1  -5 51638.4 1782.46   1
  10   1   5 47095.8 1885.34   1
  10   1  -6 22190.0 1335.67   1
  10  -1  -6 23125.5 1209.78   1
  10   1  -7 53892.6 2120.57   1
  10  -1  -7 52231.7 1859.03   1
  10  -1  -8 56130.5 1973.85   1
  10   1  -8 60916.9 2284.75   1
  10  -1  -9 26394.2 1382.87   1
  10   1  -9 25383.0 1504.81   1
  10  -1 -10 3794.97 548.412   1
  10   1 -10 4744.95 669.850   1
  10  -1 -11 16966.6 1156.10   1
  10   1 -11 15478.6 1222.68   1
  10   1 -12-252.858 179.855   1
  10   1 -13 13396.4 1208.91   1
  10   1 -14 1886.30 484.732   1
  10   1 -15 42344.4 2252.53   1
  10   1 -16 12745.3 1270.65   1
  11  -1   0-32.1726 123.968   1
  11   1   0 67.4992 158.032   1
  11   1  -1 3232.55 511.861   1
  11  -1  -1 3615.76 505.374   1
  11  -1   1 3722.63 523.059   1
  11   1   1 3351.37 526.466   1
  11  -1  -2 6970.96 688.201   1
  11  -1   2 6976.76 705.167   1
  11   1  -2 8309.36 830.153   1
  11   1   2 7571.63 779.087   1
  11  -1  -3 34719.8 1536.80   1
  11   1  -3 33140.8 1657.89   1
  11   1   3 30387.4 1560.39   1
  11   1  -4 12947.7 1040.83   1
  11  -1  -4 13908.2 985.118   1
  11   1   4 16030.7 1145.19   1
  11  -1  -5 34935.5 1571.31   1
  11   1  -5 38367.8 1810.99   1
  11   1   5 32672.6 1655.57   1
  11  -1  -6 2930.69 460.116   1
  11   1  -6 3378.00 562.185   1
  11  -1  -7 14821.2 1041.90   1
  11   1  -7 16410.8 1222.89   1
  11   1  -8-544.128 256.837   1
  11  -1  -8 563.857 224.438   1
  11   1  -9 26915.8 1625.06   1
  11  -1  -9 25011.2 1405.66   1
  11   1 -10 35406.0 1890.90   1
  11  -1 -10 35455.6 1703.13   1
  11   1 -11 8840.64 978.938   1
  11   1 -12 54442.4 2437.70   1
  11   1 -13 14710.6 1289.33   1
  11   1 -14 996.776 342.502   1
  11   1 -15 325.527 200.142   1
  12   1   0 24915.9 1480.38   1
  12  -1   0 24350.1 1365.93   1
  12   1  -1 7157.38 817.268   1
  12  -1  -1 7931.50 772.512   1
  12   1   1 6282.86 746.447   1
  12  -1   1 7449.00 756.154   1
  12   1   2 2980.32 514.319   1
  12  -1   2 2346.01 438.747   1
  12   1  -2 1814.35 427.566   1
  12  -1  -2 2630.93 456.172   1
  12   1   3 1947.65 434.757   1
  12   1  -3 2311.76 483.398   1
  12   1   4-6.80632 111.477   1
  12  -1  -4 106.269 140.050   1
  12   1  -4 94.9081 200.241   1
  12   1   5 816.526 264.829   1
  12  -1  -5 671.405 252.972   1
  12   1  -5 887.610 314.166   1
  12   1  -6 1314.98 412.285   1
  12  -1  -6 1264.40 323.277   1
  12   1  -7 192.599 165.897   1
  12  -1  -7 511.090 251.826   1
  12   1  -8 703.907 316.681   1
  12  -1  -8 1326.62 354.192   1
  12   1  -9 3.79308 162.290   1
  12   1 -10 968.713 357.552   1
  12   1 -11 3037.63 606.968   1
  12   1 -12-402.239 250.256   1
  12   1 -13-13.6754 114.227   1
  12   1 -14 5481.15 846.776   1
  13  -1   0 270.794 165.530   1
  13   1   0 40.2566 166.189   1
  13  -1   1 867.958 312.835   1
  13   1  -1 691.631 293.537   1
  13  -1  -1 996.831 327.976   1
  13   1   1 1086.22 332.291   1
  13  -1  -2 14.7981 125.965   1
  13   1   2 163.086 124.016   1
  13  -1   2 66.8724 94.5493   1
  13  -1  -3 8439.90 843.532   1
  13   1  -3 9083.66 965.491   1
  13   1   3 8084.26 902.049   1
  13   1  -4 11913.7 1105.96   1
  13  -1  -4 10798.3 971.633   1
  13   1   4 11495.9 1074.76   1
  13   1  -5-112.556 254.728   1
  13   1   5-30.1893 172.579   1
  13  -1  -5 172.510 132.822   1
  13   1  -6 8384.90 947.511   1
  13  -1  -6 9200.38 890.363   1
  13   1  -7 4363.99 689.729   1
  13   1  -8 99.5529 202.129   1
  13   1  -9 395.458 212.401   1
  13   1 -10 4957.45 773.281   1
  13   1 -11 3588.93 676.535   1
  13   1 -12 6750.14 927.603   1
  14   1   0 44163.1 2166.49   1
  14  -1   0 46405.0 2059.78   1
  14   1  -1 18901.6 1432.55   1
  14   1   1 18163.7 1392.66   1
  14  -1  -1 17574.1 1273.07   1
  14  -1   1 20129.2 1384.62   1
  14   1  -2 1926.44 486.168   1
  14   1   2 1154.49 358.001   1
  14  -1  -3 1471.96 377.212   1
  14   1   3 1557.57 422.045   1
  14   1  -3 1312.98 400.645   1
  14   1   4 86.5390 138.948   1
  14  -1  -4 552.286 263.587   1
  14   1  -4 560.047 292.772   1
  14   1  -5 6372.52 858.409   1
  14   1  -6 1540.44 454.015   1
  14   1  -7 10800.6 1136.37   1
  14   1  -8 6047.57 850.958   1
  14   1  -9 4317.85 729.756   1
  14   1 -10 740.161 330.020   1
  15   1   0 614.230 305.303   1
  15  -1   0 484.701 273.854   1
  15  -1   1 1010.88 316.871   1
  15   1  -1 416.646 131.297   1
  15   1   1 338.043 188.150   1
  15  -1  -1 848.728 297.989   1
  15   1   2 919.151 370.995   1
  15   1  -2 891.177 337.125   1
  15  -1  -2 1264.10 348.841   1
  15   1   3 4176.96 719.323   1
  15   1  -3 5408.89 829.512   1
  15   1  -4 3941.38 699.374   1
  15   1  -5 9293.06 1081.59   1
  15   1  -6 718.344 319.243   1
  15   1  -7 6714.57 914.226   1
   0   2   0 20464.5 493.404   1
   0   2   1 334679. 1810.40   1
   0  -2  -1 336523. 1823.38   1
   0   2   2 4271.67 203.314   1
   0  -2  -2 4003.47 202.256   1
   0  -2  -3 257295. 1754.79   1
   0  -2  -4 5643.19 291.440   1
   0  -2  -5 422226. 3248.69   3
   0  -2  -5 407658. 2725.10   1
   0  -2   6 38779.9 1135.47   2
   0  -2   7 506865. 4270.96   2
   0  -2   8 20194.6 882.883   2
   0  -2   8 21129.9 961.394   3
   0  -2   9 132204. 2320.25   2
   0  -2   9 130504. 2531.45   3
   0  -2  10 1285.52 280.114   3
   0  -2  10 1345.17 244.287   2
   0  -2  11 731.685 213.767   3
   0  -2  11 1097.72 237.604   2
   0  -2  12 36337.1 1289.84   2
   0  -2  12 35800.7 1536.46   3
   0  -2  13 73032.3 2295.05   3
   0  -2  13 72662.5 1844.19   2
   0  -2  14 70298.0 2342.45   3
   0  -2  15 149045. 3571.41   3
   0  -2  16 11770.2 1036.68   3
   0  -2  17 69441.7 2613.28   3
   0  -2  18 1433.16 406.847   3
   0  -2  19 6141.44 850.802   3
   1   2   0 116.710 69.7265   1
  -1  -2   0 2.37120 78.7622   2
  -1  -2   0 4.15052 47.7443   1
  -1  -2  -1 30189.4 732.623   2
   1   2  -1 29545.9 759.580   1
   1   2   1 30073.2 689.379   1
  -1  -2  -1 29336.1 674.001   1
  -1  -2   1 29026.4 809.424   2
  -1  -2  -2 1485.79 153.989   2
  -1  -2   2 1617.04 204.944   2
  -1  -2  -2 1276.41 149.205   1
   1   2   2 1476.16 158.818   1
  -1  -2  -3 135219. 1279.52   2
  -1  -2  -3 134555. 1570.43   1
  -1  -2   3 136020. 1921.09   2
   1  -2  -3 138081. 947.229   1
   1   2   3 133385. 1513.11   1
  -1  -2  -4 115816. 1539.66   1
  -1  -2   4 112016. 1837.04   2
  -1  -2  -4 111158. 993.988   2
  -1  -2   5 546827. 4209.04   2
  -1  -2  -5 560119. 3564.76   1
  -1  -2  -5 553480. 3482.86   3
  -1  -2   6 11170.0 617.367   2
  -1  -2  -6 10701.6 526.582   1
  -1  -2   7 50046.2 1409.26   3
  -1  -2   7 49231.8 1336.65   2
  -1  -2   8 1885.36 272.127   2
  -1  -2   8 1788.17 293.795   3
   1  -2  -9 58997.2 705.692   2
  -1  -2   9 58109.1 1530.25   2
  -1  -2   9 57530.3 1700.92   3
   1  -2   9 59596.2 1690.69   3
  -1  -2  10-42.3045 119.989   3
   1  -2  10-3.88971 88.1291   2
  -1  -2  10 33.0205 75.4806   2
   1  -2  10-112.422 115.175   3
   1  -2  11 83265.1 2233.64   3
   1  -2  11 84505.3 1954.84   2
  -1  -2  11 84225.0 1932.37   2
  -1  -2  11 82448.7 2239.32   3
   1  -2  12 3507.52 486.636   3
   1  -2  12 3629.54 418.118   2
  -1  -2  12 3795.29 513.750   3
   1  -2  13 37694.8 1354.97   2
   1  -2  13 37266.2 1630.93   3
  -1  -2  13 33876.2 1575.01   3
   1  -2  14 113.487 144.201   3
   1  -2  14 327.341 133.038   2
  -1  -2  14 81.5539 121.907   3
   1  -2  15 6245.39 561.160   2
   1  -2  15 5151.72 668.139   3
  -1  -2  15 6306.95 746.329   3
   1  -2  16 90.2542 176.660   3
  -1  -2  16 293.565 197.638   3
  -1  -2  17 20556.9 1439.19   3
   1  -2  17 21690.9 1458.57   3
   1  -2  18 1586.09 418.303   3
  -1  -2  18 931.562 333.546   3
   1  -2  19 12558.5 1186.76   3
  -1  -2  19 12261.9 1187.54   3
   2   2   0 229.525 97.6920   1
   2   2   0 197.648 78.0148   2
  -2  -2   0 265.172 90.2060   1
  -2  -2  -1 56.7337 55.5386   1
  -2  -2   1 12.4299 55.3415   1
   2   2   1 39.8305 59.4199   1
   2   2  -1 19.7510 59.3594   2
   2   2   1 16.8768 56.3252   2
  -2  -2   1 211.256 70.2638   2
   2   2  -1 71.9512 56.8513   1
  -2  -2  -2 1965.03 214.339   1
   2   2   2 1580.09 198.923   1
   2   2   2 1749.08 180.856   2
   2   2  -2 1872.87 230.570   2
  -2  -2   2 1742.71 216.110   2
   2   2  -2 2329.69 259.841   1
   2   2   3 30.2920 61.7392   1
  -2  -2   3 78.4192 74.9104   2
  -2  -2  -3 44.6139 58.3925   1
   2   2  -3 163.751 86.0355   2
   2   2   3 179.711 65.8932   2
  -2  -2  -4 102.830 78.1102   1
  -2  -2  -4 172.387 58.2259   3
   2   2   4 190.134 59.6557   2
  -2  -2   4 263.939 104.207   2
   2   2   4 137.354 74.2389   1
   2   2   5 628.949 87.0060   2
  -2  -2  -5 595.226 110.469   3
  -2  -2   5 731.732 151.462   3
  -2  -2   5 634.119 148.233   2
  -2  -2   6 5332.44 435.306   2
  -2  -2   6 4458.76 398.582   3
  -2  -2  -6 4412.83 327.678   3
  -2  -2   7 568.345 166.802   3
  -2  -2   7 647.803 178.967   2
  -2  -2   8 2269.30 326.486   3
  -2  -2   9 0.19925 125.558   3
  -2  -2  10 558.415 231.194   3
   2  -2  10 412.834 158.046   3
  -2  -2  11 97.2759 164.956   3
   2  -2  11 329.334 202.275   3
   2  -2 -11 564.189 101.216   2
   2  -2  12 282.966 125.015   2
   2  -2  12 263.508 139.700   3
  -2  -2  12 586.380 240.355   3
   2  -2  13 104.237 133.692   3
  -2  -2  13 140.529 150.082   3
   2  -2  13 165.047 97.0352   2
  -2  -2  14 1909.36 409.482   3
   2  -2  14 2778.71 465.145   3
   2  -2  14 1952.44 324.920   2
  -2  -2  15 542.360 268.312   3
   2  -2  15 522.692 236.768   3
  -2  -2  16 152.469 150.543   3
   2  -2  16-78.0935 162.464   3
  -2  -2  17 211.006 214.345   3
   2  -2  17 3.09792 166.874   3
  -2  -2  18 164.261 182.545   3
   2  -2  18 326.593 224.844   3
  -2  -2  19 147.491 213.254   3
   2  -2  19 93.2145 173.146   3
  -3   2   0-24.6623 37.9623   1
   3   2   0-55.2763 85.1062   1
   3   2   0 111.980 53.9244   2
  -3  -2   0-36.0275 65.7567   1
  -3  -2  -1 133.895 68.9515   1
   3   2  -1 296.476 114.037   1
  -3   2   1 176.477 47.6218   1
  -3   2  -1 150.544 58.3323   1
   3   2   1 41.3233 83.8614   1
   3   2  -1 401.155 114.762   2
   3   2   1 283.200 97.2481   2
  -3  -2   1 257.608 94.1066   1
   3  -2  -2 5119.81 193.263   1
  -3  -2  -2 5456.77 396.651   1
  -3   2   2 5030.82 199.790   1
   3   2   2 4958.88 377.633   1
   3   2  -2 5346.33 422.435   1
   3   2  -3 379.050 126.161   1
  -3  -2   3 286.707 88.6711   3
   3  -2  -3 369.095 62.1630   1
  -3  -2  -3 311.502 57.3279   3
   3   2   3 385.385 126.062   1
  -3  -2  -4 29989.4 634.654   3
   3   2   4 31521.5 978.450   1
   3  -2  -4 30429.2 590.761   1
  -3  -2   4 31202.8 902.397   3
  -3  -2  -5 274749. 2147.50   3
   3   2   5 275057. 3032.68   1
  -3  -2   5 264775. 2892.66   3
  -3  -2   6 15345.3 750.093   3
  -3  -2  -6 15955.1 586.939   3
   3   2   7 36809.3 677.622   2
  -3  -2   7 37896.2 1250.64   3
  -3  -2   8 2971.04 374.280   3
   3   2   8 2625.26 156.696   2
  -3  -2   9 9062.48 699.079   3
  -3  -2  10-10.0695 116.020   3
  -3  -2  11 32784.8 1450.10   3
   3  -2  11 34553.8 1415.96   3
   3  -2  12 4155.34 519.257   3
  -3  -2  12 3771.30 519.106   3
   3  -2  13 12634.2 937.980   3
  -3  -2  13 12431.1 977.249   3
  -3  -2  14 454.938 236.093   3
   3  -2  14 691.803 205.823   2
   3  -2  14 758.594 283.462   3
  -3  -2  15 17172.2 1238.36   3
   3  -2  15 16694.1 1175.40   3
  -3  -2  16 170.500 145.246   3
   3  -2  16 65.3305 163.953   3
  -3  -2  17 1500.68 410.268   3
   3  -2  17 1974.10 458.837   3
   3  -2  18 252.962 223.070   3
  -3  -2  18 330.559 207.987   3
   3  -2  19 4924.85 756.257   3
  -4  -2   0 14447.4 340.609   3
  -4   2   0 14742.3 520.231   1
   4   2   0 14385.9 710.616   1
   4   2   1 45024.9 1237.87   1
  -4  -2   1 46571.8 772.562   3
   4  -2  -1 47408.3 814.418   1
   4   2  -1 45770.2 1278.27   1
  -4   2   1 45520.4 851.252   1
  -4   2  -1 47832.3 1000.52   1
   4   2   2 2009.78 276.940   1
   4  -2  -2 1941.70 162.293   1
  -4   2  -2 1866.39 215.568   1
  -4  -2   2 1711.62 174.086   3
  -4   2   2 1760.44 157.564   1
   4   2  -2 1798.45 269.104   1
   4   2   3 110700. 1997.32   1
   4  -2  -3 109998. 1226.98   1
  -4  -2   3 109887. 1555.04   3
   4   2  -3 111530. 2124.30   1
  -4  -2   4 3708.92 316.810   3
  -4  -2  -4 3624.35 188.360   3
   4   2   4 3408.13 356.438   1
   4   2  -4 3073.16 378.765   1
   4  -2  -4 3295.58 226.246   1
  -4  -2   5 132188. 2072.68   3
   4   2   5 131989. 2254.30   1
   4  -2  -5 133845. 1578.84   1
   4   2  -5 132644. 2495.55   1
  -4  -2  -5 137132. 1399.91   3
  -4  -2  -6 27618.2 716.427   3
   4  -2  -6 25719.7 769.668   1
  -4  -2   6 25609.3 974.199   3
  -4  -2   7 151049. 2540.99   3
  -4  -2   8 16739.0 908.299   3
  -4  -2   9 46324.8 1574.77   3
  -4  -2  10 808.194 222.624   3
   4   2  10 1141.95 116.279   2
  -4  -2  11 311.958 157.676   3
   4  -2  11 1877.70 339.567   3
   4  -2  12 26467.9 1298.19   3
  -4  -2  12 27905.1 1417.06   3
   4  -2  13 15978.2 1048.17   3
  -4  -2  13 13706.0 1034.82   3
  -4  -2  14 62302.0 2282.65   3
   4  -2  14 66502.6 2232.45   3
   4  -2  15 68912.3 2359.75   3
  -4  -2  15 73858.3 2589.07   3
   4  -2  16 9110.80 901.170   3
  -4  -2  16 8250.96 904.063   3
   4  -2  17 51833.9 2235.99   3
  -4  -2  17 54150.2 2410.09   3
   4  -2  18 1165.17 363.148   3
  -4  -2  18 2325.77 525.743   3
   4  -2  19 15249.2 1302.91   3
   5  -2   0 26.6415 47.8262   1
   5   2   0 62.6010 88.5809   1
  -5   2   0 99.3907 55.4099   1
  -5   2   1 41331.4 945.671   1
   5   2   1 40089.6 1289.78   1
  -5   2  -1 41468.9 1054.62   1
   5  -2  -1 39239.0 890.915   1
   5   2  -1 38749.7 1296.66   1
  -5  -2   1 40633.0 704.681   3
   5   2   2 8941.23 616.414   1
   5  -2  -2 9322.71 432.436   1
  -5   2   2 8557.18 420.080   1
  -5  -2   2 8889.47 395.502   3
   5   2  -2 8597.14 612.183   1
  -5  -2   3 177534. 2017.30   3
   5  -2  -3 179615. 1914.99   1
   5   2   3 182992. 2806.58   1
  -5   2   3 184183. 1906.79   1
   5   2  -3 177584. 2837.32   1
   5   2   4 47320.7 1415.31   1
   5   2  -4 49399.3 1555.09   1
  -5  -2   4 48032.8 1164.78   3
   5  -2  -4 47184.1 1006.05   1
   5   2   5 336186. 3858.83   1
   5   2  -5 338204. 4206.20   1
   5  -2  -5 331255. 2744.37   1
  -5  -2   5 332983. 3347.17   3
   5  -2  -6 6262.94 410.185   1
   5   2  -6 6698.98 612.216   1
   5   2   6 6273.49 553.743   1
  -5  -2   6 6387.73 496.290   3
   5   2  -7 38535.4 1514.63   1
   5  -2  -7 37071.8 1060.00   1
  -5  -2   7 37357.7 1277.57   3
   5   2  -8 3916.69 510.061   1
   5  -2  -8 4497.21 394.311   1
  -5  -2   8 3944.31 456.223   3
  -5  -2   9 54299.0 1727.18   3
  -5  -2  10 2391.96 388.294   3
  -5  -2  11 66436.6 2098.44   3
   5  -2  12 9067.19 766.769   3
  -5  -2  12 8474.38 787.298   3
   5  -2  13 45528.0 1772.44   3
  -5  -2  13 46259.2 1914.43   3
   5  -2  14-9.94261 121.017   3
  -5  -2  14-35.1481 113.219   3
  -5  -2  15 1860.18 433.764   3
   5  -2  15 1742.59 393.349   3
   5  -2  16 1055.77 321.388   3
  -5  -2  16 657.198 300.646   3
   5  -2  17 28608.9 1650.11   3
  -5  -2  17 27380.0 1726.25   3
   5  -2  18-249.129 244.999   3
  -5  -2  18 38.9497 141.257   3
   5  -2  19 13431.3 1213.49   3
   6   2   0 10741.1 723.653   1
   6  -2   0 11764.2 573.454   1
  -6   2   1 162.596 86.3928   1
   6   2  -1 9.65780 100.893   1
   6  -2  -1-29.0153 55.7831   1
   6   2   1 23.4207 109.499   1
   6   2   2-26.1468 140.662   1
  -6  -2   2-24.8735 50.4841   3
   6   2  -2 29.1827 110.609   1
   6  -2  -2 131.342 79.8257   1
  -6   2   2 59.5024 81.9732   1
   6  -2  -3 182.337 95.3109   1
  -6  -2   3 44.6538 50.2996   3
  -6   2   3 80.8666 53.4469   1
   6   2   3 30.7384 111.562   1
   6   2  -4-15.1386 120.086   1
  -6  -2   4 228.499 106.379   3
   6   2   4 130.245 124.563   1
   6  -2  -4 97.1907 64.5019   1
   6  -2  -5 3921.62 339.381   1
   6   2  -5 3915.19 474.521   1
  -6  -2   5 3595.91 357.217   3
   6   2   5 3547.30 421.878   1
   6  -2  -6 1954.68 247.339   1
   6   2   6 1682.71 305.699   1
  -6  -2   6 1724.24 264.231   3
   6   2  -6 1634.20 333.308   1
  -6  -2   7 1133.56 236.960   3
   6  -2  -7 975.390 195.817   1
   6   2  -7 1316.08 316.786   1
  -6  -2   8 634.279 184.735   3
   6   2  -8 150.816 160.992   1
   6  -2  -8 780.628 183.161   1
  -6  -2   9 606.230 217.870   3
   6   2  -9 512.710 210.918   1
   6  -2  -9 446.525 148.194   1
  -6  -2  10 4184.55 516.569   3
   6  -2 -10 3703.54 417.765   1
   6   2 -10 3171.52 511.881   1
  -6  -2  11 1381.17 326.926   3
   6  -2 -11 1168.55 258.596   1
   6   2 -11 1777.28 398.242   1
  -6  -2  12 9.02060 113.658   3
   6  -2  12-94.7309 164.007   3
   6  -2 -12 14.6525 108.872   1
   6  -2  13 1021.40 290.456   3
  -6  -2  13 750.292 272.560   3
  -6  -2  14 2887.89 530.155   3
   6  -2  14 2544.16 438.313   3
  -6  -2  15 1212.91 373.512   3
   6  -2  15 1486.13 349.284   3
  -6  -2  16-112.280 152.051   3
   6  -2  16-157.756 148.353   3
   6  -2  17 185.751 159.355   3
  -6  -2  17 15.9745 172.779   3
   6  -2  18 811.541 322.127   3
   6  -2  19 209.656 217.258   3
   7  -2   0 13.6644 72.2374   1
   7   2   0 46.3262 138.358   1
   7   2   1 6261.12 597.220   1
   7  -2  -1 6455.73 461.592   1
   7   2  -1 5544.93 560.909   1
   7   2  -2 8551.50 704.337   1
   7   2   2 8145.05 673.849   1
   7  -2  -2 7947.25 514.698   1
   7  -2  -3 17951.6 762.712   1
   7   2   3 18159.2 1020.67   1
   7   2  -3 16430.2 994.233   1
   7   2  -4-48.0413 112.448   1
   7   2   4 8.35451 124.334   1
   7  -2  -4 50.1149 101.401   1
  -7  -2   5 194039. 2630.82   3
   7  -2  -5 188754. 2537.11   1
   7   2   5 185650. 3266.68   1
   7   2  -5 185961. 3404.01   1
  -7  -2   6 12281.2 715.802   3
   7  -2  -6 11865.3 665.292   1
   7   2   6 11817.0 853.347   1
   7   2  -6 12388.2 917.634   1
   7   2  -7 16616.3 1090.69   1
  -7  -2   7 16368.8 877.213   3
   7  -2  -7 16193.7 789.894   1
   7   2  -8 3177.07 503.990   1
  -7  -2   8 3980.44 459.947   3
   7  -2  -8 3855.61 402.401   1
  -7  -2   9 18142.4 1037.34   3
   7  -2  -9 18872.1 932.692   1
   7   2  -9 18287.3 1198.59   1
  -7  -2  10 103.907 137.912   3
   7   2 -10 268.379 189.912   1
   7  -2 -10 368.053 148.703   1
   7   2 -11 57205.7 2252.97   1
  -7  -2  11 59384.7 2066.84   3
   7  -2 -11 54161.3 1736.78   1
  -7  -2  12 5047.05 637.131   3
   7   2 -12 3972.88 621.233   1
   7  -2 -12 4794.86 541.141   1
   7  -2  12 4579.46 546.499   3
  -7  -2  13 9398.32 908.277   3
   7   2 -13 10246.8 1028.89   1
   7  -2  13 9328.13 813.299   3
   7  -2  14 501.324 204.820   3
  -7  -2  14 987.376 332.228   3
   7   2 -14 1395.01 422.757   1
  -7  -2  15 7788.37 887.594   3
   7  -2  15 8764.86 845.017   3
   7   2 -15 9114.26 1033.17   1
   7  -2  16-54.9706 163.803   3
  -7  -2  16-35.4216 164.450   3
   7   2 -16-31.8307 175.301   1
   7  -2  17 3873.78 606.418   3
  -7  -2  17 5265.42 802.985   3
   7   2 -17 3677.17 670.022   1
   7  -2  18 5.20966 164.477   3
   8   2   0 4036.55 511.304   1
   8  -2   0 4656.87 440.390   1
   8   2  -1 5979.90 625.029   1
   8  -2  -1 6698.91 513.577   1
   8   2   1 5966.75 629.186   1
   8  -2   1 6959.77 550.774   1
   8   2   2 406.918 222.811   1
   8  -2  -2 208.541 117.085   1
   8   2  -2 228.575 172.359   1
   8  -2  -3 28425.0 1056.08   1
   8   2   3 26162.5 1293.97   1
   8   2  -3 27555.6 1353.00   1
   8   2  -4 1398.00 313.899   1
   8   2   4 1184.76 283.670   1
   8  -2  -4 1129.47 214.134   1
   8  -2  -5 26620.9 1037.49   1
   8   2   5 27766.3 1339.11   1
   8   2  -5 23883.9 1300.05   1
   8  -2  -6 8039.95 586.090   1
   8   2   6 7498.55 708.913   1
   8   2  -6 6859.80 750.259   1
   8  -2  -7 27458.7 1114.65   1
   8   2  -7 27325.0 1451.25   1
   8  -2  -8 8411.26 636.525   1
   8   2  -8 7759.31 802.279   1
   8   2  -9 14176.6 1099.90   1
   8  -2  -9 13788.5 830.704   1
   8  -2 -10 442.853 172.964   1
   8   2 -10 712.035 273.145   1
   8   2 -11 4228.14 644.021   1
   8  -2 -11 4267.65 504.282   1
   8  -2  12 16420.2 1035.58   3
   8   2 -12 15333.1 1234.61   1
   8  -2  13 1010.67 256.252   3
   8   2 -13 391.155 194.516   1
   8  -2  14 38292.0 1705.84   3
   8   2 -14 37428.7 2056.49   1
   8  -2  15 24718.1 1408.93   3
   8   2 -15 25532.8 1747.06   1
   8  -2  16 3507.30 552.104   3
   8   2 -16 2917.32 605.097   1
   8   2 -17 30107.5 2004.20   1
   9  -2   0 48.1968 103.244   1
   9   2   0 102.263 150.728   1
   9   2  -1 5081.70 614.259   1
   9   2   1 4642.97 585.494   1
   9  -2  -1 4217.74 451.124   1
   9  -2   1 4194.60 459.325   1
   9  -2  -2 2509.44 345.016   1
   9   2   2 2686.53 448.586   1
   9   2  -2 2298.19 419.345   1
   9   2  -3 24378.7 1346.09   1
   9  -2  -3 26146.1 1107.72   1
   9   2   3 24666.3 1324.96   1
   9   2  -4 22974.9 1329.94   1
   9  -2  -4 21746.7 1012.01   1
   9   2   4 20999.8 1218.02   1
   9   2  -5 52329.6 2033.31   1
   9  -2  -5 51716.4 1588.07   1
   9   2   5 46576.6 1836.69   1
   9   2  -6 1440.59 367.852   1
   9   2   6 1732.29 364.556   1
   9  -2  -6 1464.61 275.781   1
   9  -2  -7 19408.4 991.040   1
   9   2  -7 19722.4 1279.82   1
   9  -2  -8 1724.63 312.905   1
   9   2  -8 1662.23 388.166   1
   9   2  -9 4787.63 662.821   1
   9  -2  -9 5639.06 571.660   1
   9  -2 -10 812.058 230.204   1
   9   2 -10 801.996 286.864   1
   9   2 -11 5320.27 742.867   1
   9  -2  12 5622.15 615.200   3
   9   2 -12 5918.07 797.373   1
   9   2 -13 21944.0 1591.55   1
   9  -2  13 24059.4 1309.76   3
   9   2 -14 534.494 280.969   1
   9   2 -15 3288.93 655.254   1
   9   2 -16 1228.17 425.578   1
  10   2   0 32209.9 1590.98   1
  10  -2   0 33715.3 1357.98   1
  10   2   1 268.138 144.889   1
  10  -2   1 55.6581 117.516   1
  10   2  -1 76.9835 145.207   1
  10   2  -2 1558.86 374.045   1
  10  -2  -2 2296.78 358.666   1
  10   2   2 1593.70 346.711   1
  10   2   3 193.198 196.340   1
  10  -2  -3 148.076 104.288   1
  10   2  -3 311.825 193.681   1
  10  -2  -4 787.775 223.247   1
  10   2  -4 770.539 282.367   1
  10   2   4 759.583 242.335   1
  10  -2  -5 2408.41 369.096   1
  10   2   5 3246.38 531.210   1
  10   2  -5 2551.11 480.280   1
  10   2  -6 1151.28 330.651   1
  10   2   6 763.311 260.789   1
  10  -2  -6 847.059 223.065   1
  10   2  -7 1972.19 440.718   1
  10  -2  -7 1238.12 275.224   1
  10   2  -8 554.004 231.053   1
  10  -2  -8 1077.83 262.268   1
  10   2  -9 527.927 256.989   1
  10   2 -10 4769.37 707.880   1
  10   2 -11 1539.31 401.279   1
  10   2 -12 1214.77 398.540   1
  10   2 -13 774.392 324.273   1
  10   2 -14 481.563 268.007   1
  10   2 -15 382.834 281.117   1
  11  -2   0-4.44966 112.860   1
  11   2   0 230.839 235.929   1
  11   2  -1 10966.8 983.786   1
  11  -2  -1 11530.0 839.692   1
  11   2   1 9330.47 910.824   1
  11   2   2 1582.93 383.576   1
  11  -2  -2 1022.80 261.262   1
  11   2  -2 790.766 267.138   1
  11   2  -3 34800.9 1761.15   1
  11  -2  -3 35029.8 1458.28   1
  11   2   3 36260.7 1761.92   1
  11   2   4-99.5352 173.093   1
  11   2  -4 156.912 233.159   1
  11  -2  -5 115835. 2683.43   1
  11   2  -5 112763. 3243.35   1
  11   2   5 109509. 3098.72   1
  11  -2  -6 3966.46 508.101   1
  11   2  -6 3769.53 619.836   1
  11   2   6 3711.85 580.185   1
  11   2  -7 5052.75 712.396   1
  11   2  -8 1306.48 386.547   1
  11   2  -9 21406.3 1520.29   1
  11   2 -10 660.901 275.596   1
  11   2 -11 70783.5 2857.50   1
  11   2 -12 1404.47 438.809   1
  11   2 -13 7167.33 941.105   1
  11   2 -14 889.779 335.599   1
  12   2   0 1738.81 437.814   1
  12  -2   0 1618.05 347.703   1
  12   2  -1 44274.3 2068.49   1
  12  -2  -1 41299.4 1684.01   1
  12   2   1 44208.6 2060.00   1
  12   2  -2-189.295 207.653   1
  12   2   2-97.6773 211.249   1
  12  -2  -2 69.4797 117.477   1
  12  -2  -3 12781.4 928.132   1
  12   2   3 14270.8 1163.12   1
  12   2  -3 14395.7 1202.01   1
  12   2   4-21.2458 105.761   1
  12   2  -4 234.868 213.506   1
  12  -2  -4 334.700 162.475   1
  12   2  -5 33009.2 1824.46   1
  12   2   5 32159.4 1768.58   1
  12   2  -6 2053.18 513.405   1
  12   2   6 1622.69 396.044   1
  12   2  -7 47691.5 2277.01   1
  12   2  -8 3331.43 627.580   1
  12   2  -9 22830.7 1641.05   1
  12   2 -10 692.010 350.097   1
  12   2 -11 2505.81 585.608   1
  12   2 -12 5895.86 874.529   1
  13  -2   0 103.529 112.525   1
  13   2   0-281.522 204.378   1
  13   2  -1 2087.55 506.828   1
  13  -2  -1 1715.88 365.820   1
  13   2   1 1840.38 444.277   1
  13  -2  -2 35.6372 107.469   1
  13   2   2 28.2522 98.2521   1
  13   2  -3 10418.6 1081.84   1
  13   2   3 10697.6 1065.04   1
  13   2  -4 15762.4 1329.60   1
  13   2   4 18293.9 1381.45   1
  13   2  -5 11542.0 1144.56   1
  13   2   5 11744.4 1126.29   1
  13   2   6 158.930 181.374   1
  13   2  -6 300.275 212.975   1
  13   2  -7 11525.5 1167.12   1
  13   2  -8 20.1609 238.374   1
  13   2  -9 2059.73 533.726   1
  13   2 -10 37.0328 144.356   1
  13   2 -11 894.159 374.817   1
  14   2   0 17127.4 1417.69   1
  14   2   1 479.520 226.167   1
  14   2  -1 715.511 301.060   1
  14   2  -2 424.954 238.026   1
  14   2   2 690.817 304.779   1
  14   2   3-53.8620 120.828   1
  14   2  -3 357.153 268.441   1
  14   2  -4 418.714 245.061   1
  14   2   4 431.160 218.461   1
  14   2   5 2063.62 508.976   1
  14   2  -5 653.078 277.362   1
  14   2  -6 183.152 205.324   1
  14   2  -7 1689.54 491.794   1
  14   2  -8 629.085 302.733   1
  15   2   0 174.844 191.565   1
  15   2  -1 1849.51 483.961   1
  15   2  -2 188.834 160.872   1
   0   3   0 127.879 63.9077   1
   0   3   1 16.9081 31.9274   1
   0  -3  -2-9.91372 27.1593   1
   0   3   2-41.4527 42.5593   1
   0   3   3 19.8217 41.9352   1
   0  -3  -3-28.7254 43.1516   1
   0  -3  -4 40.7270 29.5628   1
   0  -3  -5-24.0633 51.0249   1
   0  -3  -6-7.37985 50.6490   1
   0  -3   7 14.5735 120.420   2
   0  -3  -7 291.161 100.117   1
   0  -3   8-82.7971 104.289   2
   0  -3   9 321.237 160.340   2
   0  -3  10-17.5660 128.892   2
   0  -3  10 18.7522 114.066   3
   0  -3  11 100.682 119.136   3
   0  -3  11 52.6191 127.462   2
   0  -3  12 129.207 125.950   2
   0  -3  12-107.843 180.897   3
   0  -3  13-276.320 161.454   2
   0  -3  13 76.0744 158.321   3
   0  -3  14-41.3141 146.328   2
   0  -3  14-461.660 219.315   3
   0  -3  15 221.123 170.353   2
   0  -3  15 157.757 164.108   3
   0  -3  16 64.3746 143.506   3
   0  -3  17 58.0445 214.238   3
   0  -3  18 326.346 314.497   3
  -1  -3   0 18.4955 73.7488   2
   1   3   0 110.265 77.1760   1
  -1  -3   1 9235.93 547.861   2
  -1  -3  -1 9824.94 517.488   2
   1   3  -1 9414.36 492.374   1
  -1  -3  -1 10003.2 456.886   1
  -1   3   1 9576.35 309.483   1
   1   3   1 10869.3 482.150   1
   1   3   2 4258.35 299.050   1
  -1   3   2 4611.53 184.521   1
  -1  -3   2 4214.98 388.541   2
  -1  -3  -2 4615.70 342.027   2
  -1  -3  -2 4442.10 306.755   1
  -1  -3  -3 366022. 2847.91   1
   1   3   3 368561. 2760.47   1
   1  -3  -3 370161. 1700.63   1
  -1  -3   3 364490. 3704.20   2
  -1  -3  -3 365934. 2882.28   2
  -1  -3  -4 301483. 2641.23   1
   1  -3  -4 298450. 1787.75   1
  -1  -3   4 288948. 3428.15   2
  -1  -3  -4 293768. 2394.42   2
   1   3   4 295064. 2548.78   1
  -1  -3  -5 119766. 1752.11   1
  -1  -3  -5 116299. 1363.78   2
  -1  -3   5 120062. 2255.27   2
   1  -3  -5 122695. 1312.16   1
  -1  -3  -6 83366.4 1546.54   1
  -1  -3   6 86611.3 1983.05   2
   1  -3  -6 79901.6 1179.36   1
  -1  -3  -6 86157.9 1018.16   2
  -1  -3   7 41707.5 1416.01   2
   1  -3  -7 38570.7 893.802   1
  -1  -3   8 1488.34 285.418   2
  -1  -3   9 17717.5 976.368   3
  -1  -3   9 18050.9 983.855   2
   1  -3  10 38981.0 1460.33   2
  -1  -3  10 38679.8 1447.69   2
  -1  -3  10 41167.8 1559.01   3
   1  -3  11 11853.5 867.477   3
   1  -3  11 12895.2 863.376   2
  -1  -3  11 11888.1 817.050   2
  -1  -3  11 14362.8 965.394   3
   1  -3  12 24628.9 1310.41   3
   1  -3  12 23485.2 1190.79   2
  -1  -3  12 24020.9 1173.48   2
  -1  -3  12 25235.3 1337.47   3
   1  -3  13 68198.6 2050.97   2
  -1  -3  13 65511.5 1980.70   2
   1  -3  13 67733.3 2250.50   3
  -1  -3  13 68069.4 2277.63   3
   1  -3  14 7711.99 704.502   2
   1  -3  14 7470.53 780.575   3
  -1  -3  14 8979.70 867.178   3
   1  -3  15 479.129 239.352   3
  -1  -3  15 1.06975 129.184   3
   1  -3  15 358.661 185.447   2
   1  -3  16 4427.95 646.402   3
  -1  -3  16 3382.13 599.184   3
  -1  -3  17 7917.05 911.355   3
   1  -3  17 7026.99 849.529   3
   1  -3  18 11380.6 1127.91   3
  -1  -3  18 9498.00 1045.70   3
   1  -3  19 13134.5 1250.52   3
  -2  -3   0 46089.2 1185.63   2
  -2  -3   0 48534.6 1159.38   1
   2   3   0 46225.8 1139.92   1
   2   3   1 19752.9 736.338   1
  -2  -3   1 20022.8 819.298   2
  -2  -3  -1 19617.7 738.753   2
  -2  -3  -1 19482.0 728.398   1
   2   3  -1 21065.8 807.760   1
   2   3   2 53517.4 1196.26   1
  -2  -3   2 55087.9 1398.50   2
  -2  -3  -2 53857.3 1173.92   2
   2   3  -2 56192.4 1371.96   1
  -2  -3  -2 53239.2 1172.55   1
  -2  -3  -3 1145.07 182.170   1
   2   3   3 903.214 172.932   1
  -2  -3   3 1127.26 216.512   2
  -2  -3  -3 1057.11 157.085   2
   2   3   4 354.298 104.930   1
  -2  -3  -4 369.607 109.555   1
  -2  -3   4 332.315 133.717   2
   2  -3  -5 29069.9 515.138   1
  -2  -3   5 30204.6 1147.07   2
   2   3   5 30607.7 947.213   1
  -2  -3   6 19347.1 942.427   2
  -2  -3   7 7862.31 617.156   2
  -2  -3   8 143460. 2666.46   2
  -2  -3   8 148498. 2689.44   3
  -2  -3   9 1884.80 334.157   3
  -2  -3   9 2118.34 340.655   2
  -2  -3  10 4995.83 536.451   2
  -2  -3  10 4772.95 538.159   3
  -2  -3  11 1407.46 330.818   3
   2  -3  12 16579.6 1003.38   2
   2  -3  12 15808.3 1053.81   3
  -2  -3  12 16677.4 1093.32   3
   2  -3  13 6948.25 659.706   2
   2  -3  13 7071.81 728.520   3
  -2  -3  13 7083.84 746.835   3
  -2  -3  14 70687.8 2431.70   3
   2  -3  14 70563.5 2384.39   3
   2  -3  14 71511.8 2149.20   2
   2  -3  15 38206.6 1585.80   2
   2  -3  15 34688.4 1746.95   3
  -2  -3  15 33401.8 1747.29   3
   2  -3  16 20854.6 1402.77   3
  -2  -3  16 22390.6 1488.27   3
   2  -3  17 3592.89 609.382   3
  -2  -3  17 3836.11 659.521   3
  -2  -3  18 27251.5 1760.43   3
   2  -3  18 30132.0 1807.23   3
   2  -3  19 3057.04 632.033   3
   3   3   0-157.285 94.5429   1
  -3   3   1 2959.80 151.534   1
   3   3   1 2510.88 296.698   1
   3   3  -1 2789.66 316.462   1
   3   3   2 200.496 95.5559   2
   3   3   2 185.170 106.404   1
   3   3  -2 71.4936 77.8730   1
   3   3   3 107690. 1900.94   1
   3   3   3 108760. 1769.17   2
   3   3  -3 109887. 2140.03   1
   3   3   4 149998. 2258.14   1
   3   3  -4 151139. 2601.80   1
   3   3   4 150817. 1985.40   2
   3   3   5 32804.6 866.213   2
   3   3   5 33248.5 1080.99   1
   3  -3  -5 31845.8 495.259   1
  -3  -3  -5 33390.7 816.224   3
  -3  -3   6 33365.2 1144.61   3
  -3  -3  -6 30791.6 867.784   3
  -3  -3   7 33951.3 1231.48   3
  -3  -3   8 321.579 140.715   3
  -3  -3   9 228.159 127.295   3
  -3  -3  10 7410.92 672.367   3
  -3  -3  11 554.635 202.516   3
   3  -3  12 11288.6 887.988   3
  -3  -3  12 9766.16 845.938   3
   3  -3  13 35016.1 1611.40   3
  -3  -3  13 35763.3 1683.24   3
   3  -3  14 8753.27 768.595   2
   3  -3  14 9900.69 898.828   3
  -3  -3  14 10433.6 957.633   3
  -3  -3  15 3265.04 569.086   3
   3  -3  15 3916.50 581.363   3
   3  -3  15 3091.41 467.859   2
  -3  -3  16 6641.29 801.474   3
   3  -3  16 5654.31 743.656   3
   3  -3  17 667.847 300.187   3
  -3  -3  17 410.552 255.413   3
   3  -3  18 3445.11 610.779   3
  -3  -3  18 2818.98 582.794   3
   3  -3  19 2776.34 566.196   3
   4   3   0 5882.84 500.990   1
  -4   3   0 5771.32 310.560   1
   4   3   1 3420.92 379.222   1
  -4   3   1 3585.70 210.684   1
  -4   3  -1 3683.95 272.107   1
   4   3  -1 3712.52 398.890   1
   4   3   2 8052.75 576.424   1
   4   3  -2 7937.30 597.547   1
  -4   3   2 8419.38 265.251   1
   4   3   3 1915.83 289.316   1
   4   3  -3 1699.96 293.938   1
  -4  -3   4 13.4146 60.7861   3
  -4  -3  -4 104.341 40.2237   3
   4   3  -4 172.179 84.2702   1
   4   3   4-4.64437 73.1555   1
   4  -3  -5 5436.58 230.698   1
  -4  -3   5 5357.55 439.846   3
   4   3   5 4554.09 363.481   2
   4   3   5 5448.19 484.958   1
   4   3  -5 5899.72 567.410   1
  -4  -3  -5 5507.38 301.462   3
   4  -3  -6 2862.29 202.536   1
   4   3   6 2821.24 276.700   2
   4   3   6 3320.65 383.331   1
   4   3  -6 2978.02 420.104   1
  -4  -3   6 2827.15 347.222   3
  -4  -3  -6 3281.94 261.123   3
   4   3   7 11285.4 521.770   2
  -4  -3  -7 11584.2 527.338   3
   4  -3  -7 10820.8 452.214   1
  -4  -3   7 10586.5 694.466   3
   4   3   8 7224.55 379.891   2
  -4  -3   8 7073.71 607.306   3
  -4  -3   9 246.075 140.336   3
  -4  -3  10 154.930 144.108   3
  -4  -3  11 124.151 106.352   3
  -4  -3  12 2703.66 459.829   3
  -4  -3  13 1197.13 337.964   3
   4  -3  13 513.208 219.114   3
  -4  -3  14-69.2033 185.655   3
   4  -3  14 295.145 221.650   3
   4  -3  15 4045.50 607.559   3
  -4  -3  15 3486.22 589.234   3
  -4  -3  16 57.4805 122.802   3
   4  -3  16 99.7583 179.984   3
   4  -3  17-68.3597 140.219   3
  -4  -3  17 127.409 157.381   3
   4  -3  18 60.3396 157.868   3
  -4  -3  18-75.4977 200.023   3
  -5  -3   0 135.442 44.5522   3
  -5   3   0 48.7765 59.9060   1
   5   3   0-83.3548 130.456   1
  -5   3  -1 10795.7 522.222   1
  -5   3   1 9395.19 414.143   1
   5   3   1 11165.9 723.347   1
  -5  -3   1 10692.7 419.578   3
   5   3  -1 9235.00 676.960   1
   5   3   2 29506.1 1187.23   1
  -5  -3   2 27775.9 764.388   3
  -5   3   2 28370.2 650.008   1
   5   3  -2 28132.4 1183.59   1
   5   3  -3 167940. 2997.20   1
   5  -3  -3 172270. 1414.89   1
   5   3   3 172393. 2853.55   1
  -5  -3   3 171292. 2101.19   3
   5  -3  -4 272066. 1851.56   1
   5   3   4 278058. 3632.61   1
  -5  -3  -4 276540. 1519.75   3
   5   3  -4 283140. 3979.96   1
  -5  -3   4 274231. 2901.51   3
   5  -3  -5 54430.8 879.479   1
   5   3   5 54475.1 1629.87   1
   5   3  -5 55009.3 1801.53   1
  -5  -3  -5 55432.0 817.604   3
  -5  -3   5 54221.0 1396.99   3
   5   3   6 95940.2 2181.92   1
  -5  -3   6 95438.2 1967.57   3
   5   3  -6 96133.8 2447.26   1
  -5  -3  -6 99938.7 1274.51   3
   5  -3  -6 99295.4 1317.29   1
   5  -3  -7 25636.7 741.246   1
  -5  -3   7 26071.4 1102.44   3
   5   3   7 26276.7 878.075   2
   5   3  -7 26250.5 1328.24   1
  -5  -3  -7 25534.8 734.828   3
   5   3   8 4827.83 369.702   2
   5   3  -8 4850.71 592.356   1
   5  -3  -8 5342.59 376.698   1
  -5  -3   8 5379.23 526.752   3
  -5  -3   9 13721.7 892.490   3
   5  -3  -9 12589.7 630.954   1
   5  -3 -10 78830.0 1660.74   1
  -5  -3  10 78367.2 2226.28   3
  -5  -3  11 9788.59 829.185   3
  -5  -3  12 38299.9 1698.03   3
   5  -3  13 53816.1 2013.10   3
  -5  -3  13 56087.3 2149.14   3
  -5  -3  14 4600.25 657.349   3
   5  -3  14 4314.09 603.021   3
  -5  -3  15 639.397 264.565   3
   5  -3  15 938.003 315.428   3
  -5  -3  16 1041.73 344.974   3
   5  -3  16 174.250 141.277   3
  -5  -3  17 3816.00 659.523   3
   5  -3  17 3570.30 600.435   3
   5  -3  18 20522.5 1481.77   3
  -6   3   0 22539.3 781.414   1
   6   3   0 22070.0 1088.60   1
  -6  -3   0 22999.3 464.466   3
  -6   3   1 15820.8 620.714   1
   6   3   1 16839.0 948.897   1
  -6  -3   1 16263.1 491.862   3
   6   3  -1 15437.3 925.711   1
   6   3   2 95647.1 2279.67   1
  -6   3   2 94555.7 1416.22   1
  -6  -3   2 95407.7 1387.15   3
   6   3  -2 95548.3 2338.79   1
  -6  -3   3 9641.32 502.029   3
   6   3   3 8401.52 680.092   1
   6  -3  -3 8716.77 396.931   1
  -6   3   3 8658.78 416.969   1
   6   3  -3 6837.57 645.749   1
   6   3  -4 1525.25 324.542   1
  -6  -3   4 1530.54 223.566   3
   6  -3  -4 2034.42 198.710   1
   6   3   4 1688.09 321.376   1
   6  -3  -5 57276.2 1072.83   1
   6   3   5 56668.9 1763.67   1
   6   3  -5 60216.1 1967.43   1
  -6  -3   5 59364.5 1461.63   3
   6  -3  -6 69283.6 1226.82   1
   6   3   6 68944.2 1970.85   1
   6   3  -6 67127.9 2162.06   1
  -6  -3   6 69605.2 1693.47   3
   6   3   7 55982.0 1822.14   1
   6   3  -7 54885.8 2005.30   1
  -6  -3   7 54886.5 1605.53   3
   6  -3  -7 55381.4 1173.17   1
   6  -3  -8 168977. 2153.45   1
   6   3  -8 175044. 3657.76   1
  -6  -3   9 6988.09 640.596   3
   6   3  -9 6238.02 731.895   1
   6  -3  -9 6968.80 472.279   1
  -6  -3  10 72.5855 112.105   3
   6   3 -10 274.670 216.595   1
   6  -3 -10 269.524 107.688   1
   6   3 -11 291.771 214.968   1
  -6  -3  11-62.1691 96.9317   3
  -6  -3  12 2766.02 461.215   3
   6   3 -12 2658.26 511.483   1
  -6  -3  13 25119.0 1447.49   3
   6  -3  14 104399. 2912.40   3
  -6  -3  14 106059. 3084.58   3
  -6  -3  15 53404.8 2278.54   3
   6  -3  15 53522.6 2176.27   3
   6  -3  16 32679.6 1772.08   3
  -6  -3  16 34625.6 1913.81   3
   6  -3  17 4537.03 688.480   3
  -6  -3  17 5952.64 837.125   3
   6  -3  18 14711.9 1261.64   3
   7   3   0 10.3298 137.918   1
   7   3  -1 2557.44 418.666   1
   7   3   1 2730.85 426.383   1
   7   3  -2 17139.9 1060.97   1
   7   3   2 17807.2 1043.12   1
   7  -3  -2 17305.4 664.101   1
  -7   3   2 16762.1 694.052   1
  -7  -3   2 17834.8 596.627   3
  -7  -3   3 46784.6 1084.16   3
   7   3   3 45630.2 1676.54   1
   7  -3  -3 46461.8 1070.39   1
  -7   3   3 44599.6 1107.05   1
   7   3  -3 45597.9 1749.19   1
   7  -3  -4 143847. 1911.05   1
   7   3   4 139695. 2934.13   1
  -7  -3   4 147393. 2119.21   3
   7   3  -4 141661. 3108.80   1
   7   3  -5 18244.6 1139.03   1
   7  -3  -5 19589.0 716.682   1
   7   3   5 19294.2 1093.87   1
  -7  -3   5 20616.4 862.251   3
   7  -3  -6 20709.5 759.420   1
   7   3   6 20117.2 1129.75   1
   7   3  -6 20652.4 1254.98   1
  -7  -3   6 20930.9 939.776   3
   7  -3  -7 20032.6 767.202   1
  -7  -3   7 19847.0 972.794   3
   7   3   7 20111.0 1150.05   1
  -7  -3   8 351.851 150.245   3
   7  -3  -8 464.350 138.241   1
   7   3  -8 597.435 277.473   1
   7  -3  -9 1229.94 222.068   1
  -7  -3   9 1101.51 263.237   3
   7   3  -9 1008.30 284.108   1
   7   3 -10 16903.3 1257.24   1
  -7  -3  10 17736.3 1079.08   3
   7   3 -11 511.673 252.803   1
  -7  -3  11 943.584 276.566   3
  -7  -3  12 16233.3 1136.81   3
   7   3 -12 15820.9 1294.14   1
   7   3 -13 20508.2 1505.89   1
  -7  -3  13 19494.2 1299.17   3
   7   3 -14 5951.01 843.627   1
   7  -3  14 7118.81 775.690   3
  -7  -3  14 7081.16 812.401   3
   7  -3  15 1976.52 425.822   3
  -7  -3  15 1289.40 384.113   3
   7   3 -15 2042.90 528.956   1
   7  -3  16 343.224 193.833   3
  -7  -3  16 313.558 211.283   3
   7  -3  17 472.921 267.815   3
   7  -3  18 8228.22 944.169   3
   8   3   0 118.455 148.765   1
   8   3   1 1714.08 368.322   1
   8   3  -1 1844.22 382.373   1
   8  -3  -2 1006.32 189.238   1
   8   3   2 862.340 281.144   1
   8   3  -2 679.151 271.752   1
   8   3  -3 696.651 251.061   1
   8   3   3 959.128 277.549   1
   8  -3  -3 552.123 138.840   1
   8  -3  -4 53.5060 60.1533   1
   8   3  -4 63.9483 197.921   1
   8   3   4-18.0929 151.908   1
  -8  -3   4 30.7204 65.0289   3
   8   3  -5 239.111 166.520   1
  -8  -3   5 210.224 92.1171   3
   8  -3  -5 460.929 125.001   1
   8   3   5 175.041 155.860   1
   8  -3  -6 208.241 89.1357   1
   8   3  -6 153.561 151.473   1
  -8  -3   6 317.175 123.908   3
   8   3   6 82.1699 123.408   1
   8   3   7 1601.15 336.697   1
  -8  -3   7 1343.38 264.685   3
   8  -3  -7 1428.90 227.633   1
   8   3  -7 1021.91 311.718   1
  -8  -3   8 1102.99 257.418   3
   8   3  -8 1105.22 322.553   1
  -8  -3   9 1277.29 297.052   3
   8   3  -9 1998.17 445.565   1
  -8  -3  10 579.550 204.461   3
   8   3 -10 1185.90 355.128   1
  -8  -3  11-223.569 164.026   3
   8   3 -11-85.5049 142.023   1
  -8  -3  12 630.373 277.169   3
   8   3 -12 401.603 268.584   1
  -8  -3  13-484.808 242.836   3
   8   3 -13 96.5228 167.978   1
  -8  -3  14 2819.05 542.430   3
   8  -3  14 3286.11 539.772   3
   8   3 -14 2562.76 554.537   1
  -8  -3  15 665.896 287.955   3
   8  -3  15 1056.54 306.457   3
   8   3 -15 905.710 366.828   1
   8  -3  16 1536.54 400.904   3
  -8  -3  16 975.915 339.932   3
   8   3 -16 449.912 252.218   1
   8  -3  17-145.704 196.988   3
   9   3   0-105.426 148.374   1
   9   3   1 2607.15 466.965   1
   9   3  -1 2477.65 453.382   1
   9   3   2 4629.94 608.338   1
   9  -3  -2 5051.21 448.244   1
   9   3  -2 5226.58 662.073   1
   9   3  -3 26909.3 1476.17   1
   9  -3  -3 29091.4 1048.12   1
   9   3   3 25599.6 1412.89   1
   9   3   4 78634.2 2462.17   1
   9  -3  -4 75835.9 1685.14   1
   9   3  -4 75355.3 2517.87   1
   9   3  -5 5331.02 694.919   1
   9  -3  -5 5978.66 488.271   1
   9   3   5 4735.41 606.142   1
   9  -3  -6 39730.2 1260.93   1
   9   3   6 37781.3 1711.06   1
   9   3  -6 40247.8 1896.40   1
   9   3   7 12004.5 987.000   1
   9   3  -7 12146.1 1055.40   1
   9   3  -8 419.983 244.352   1
  -9  -3   9 1363.34 308.948   3
   9   3  -9 989.924 343.687   1
  -9  -3  10 32714.7 1523.76   3
   9   3 -10 34028.1 1894.89   1
   9   3 -11 1215.35 420.991   1
  -9  -3  11 616.158 221.166   3
  -9  -3  12 15228.7 1159.64   3
   9   3 -12 17987.1 1449.99   1
   9   3 -13 25905.8 1782.37   1
   9  -3  14 1988.27 418.346   3
   9   3 -14 2671.28 582.379   1
   9   3 -15 1373.98 475.265   1
  10   3   0 22249.6 1390.73   1
  10   3  -1 8113.84 846.232   1
  10   3   1 7046.51 773.674   1
  10   3  -2 37305.2 1812.52   1
  10   3   2 37175.6 1785.62   1
  10  -3  -2 39244.0 1346.06   1
  10   3  -3 5998.30 737.389   1
  10   3   3 6263.25 740.270   1
  10  -3  -3 6326.55 538.904   1
  10   3   4 1469.19 351.705   1
  10   3  -4 1845.34 439.028   1
  10  -3  -4 1469.44 261.860   1
  10   3   5 21411.7 1358.67   1
  10   3  -5 22453.3 1464.96   1
  10   3  -6 28374.7 1670.59   1
  10   3   6 26772.5 1516.53   1
  10   3   7 21361.3 1383.14   1
  10   3  -7 22788.6 1516.57   1
  10   3  -8 75044.0 2780.29   1
  10   3  -9 6489.64 843.237   1
  10   3 -10-27.0465 199.599   1
  10   3 -11 560.974 257.545   1
  10   3 -12 2375.65 561.971   1
  10   3 -13 13717.8 1348.32   1
  10   3 -14 57038.9 2774.78   1
  11   3   0 3.74838 140.993   1
  11   3   1-230.081 259.500   1
  11   3  -1-126.186 219.349   1
  11   3  -2 19846.7 1391.52   1
  11   3   2 19110.4 1348.73   1
  11  -3  -2 19447.2 1022.67   1
  11   3  -3 39733.1 1970.19   1
  11   3   3 38204.7 1889.94   1
  11   3   4 80771.4 2720.39   1
  11   3  -4 80768.8 2846.66   1
  11   3  -5 23103.7 1542.13   1
  11   3   5 20109.6 1382.19   1
  11   3  -6 6950.83 865.105   1
  11   3   6 7905.53 869.891   1
  11   3   7 9860.79 992.530   1
  11   3  -7 10217.3 1058.57   1
  11   3  -8 874.969 353.794   1
  11   3  -9 7856.80 968.573   1
  11   3 -10 13231.1 1258.93   1
  11   3 -11 1228.87 448.722   1
  11   3 -12 12045.7 1255.47   1
  12   3   0 773.072 323.751   1
  12   3  -1 2792.47 565.875   1
  12   3   1 2770.44 532.722   1
  12   3   2 232.072 252.424   1
  12   3  -2 339.921 258.146   1
  12   3   3 672.487 262.648   1
  12   3  -3 464.941 275.328   1
  12   3   4 252.367 223.059   1
  12   3  -4 32.4178 136.190   1
  12   3   5 19.5686 178.334   1
  12   3  -5 148.826 174.998   1
  12   3   6 1424.11 402.603   1
  12   3  -6 1756.89 442.495   1
  12   3   7 397.162 202.883   1
  12   3  -7 396.315 268.107   1
  12   3  -8-5.37463 131.745   1
  12   3  -9 1272.89 431.233   1
  12   3 -10 969.983 404.217   1
  12   3 -11-161.027 258.045   1
  13   3   0 115.634 166.858   1
  13   3  -1 3866.01 671.714   1
  13   3   1 4195.04 709.256   1
  13   3  -2 659.791 321.386   1
  13   3   2 749.979 359.546   1
  13   3  -3 12251.1 1204.22   1
  13   3   3 15877.5 1321.78   1
  13   3  -4 16176.6 1410.23   1
  13   3   4 19625.1 1480.64   1
  13   3   5 4552.01 730.156   1
  13   3  -5 4651.12 754.064   1
  13   3  -6 14533.0 1355.07   1
  13   3   6 13559.3 1248.70   1
  13   3  -7 4768.08 787.915   1
  13   3  -8-476.001 291.375   1
  13   3  -9 2216.72 546.538   1
  14   3   0 4731.91 779.079   1
  14   3  -1 516.623 312.058   1
  14   3   1 91.0678 171.153   1
  14   3   2 7196.39 928.300   1
  14   3  -2 7450.61 987.372   1
  14   3  -3 2330.88 563.763   1
  14   3   3 3632.94 666.480   1
  14   3  -4-121.628 295.150   1
  14   3  -5 4129.77 760.431   1
   0   4   0 284515. 2630.18   1
   0   4  -1 61453.0 1295.92   1
   0   4   1 61066.4 1119.62   1
   0   4   2 142872. 1639.60   1
   0   4   3 2482.38 214.692   1
   0  -4  -3 2438.91 214.011   1
   0   4   4 3594.95 259.224   1
   0  -4  -4 3771.77 271.112   1
   0  -4  -5 10309.1 472.927   1
   0  -4  -6 228062. 2365.34   1
   0  -4   7 161.027 159.224   2
   0  -4  -7 146.980 89.4342   1
   0  -4   8 76461.7 2166.88   2
   0  -4  -8 78839.4 1172.48   2
   0  -4   9 10253.7 818.360   2
   0  -4  -9 9319.35 324.560   2
   0  -4  10 168464. 3349.89   2
   0  -4  11 34.8775 131.505   2
   0  -4  12 35950.9 1637.72   3
   0  -4  12 40080.7 1696.76   2
   0  -4  13 2350.90 445.418   3
   0  -4  13 2253.42 412.239   2
   0  -4  14 79152.0 2448.01   2
   0  -4  14 80956.4 2651.64   3
   0  -4  15 6079.97 756.748   3
   0  -4  15 6411.68 699.244   2
   0  -4  16 142087. 3322.03   2
   0  -4  16 145900. 3805.41   3
   0  -4  17 3097.35 588.356   3
   0  -4  18 923.723 324.786   3
  -1  -4   0 70.7561 105.955   2
  -1   4   0-11.7455 56.7258   1
   1   4   0-17.6186 61.9945   1
  -1  -4  -1 26412.0 996.870   2
  -1  -4   1 25013.6 1037.25   2
   1   4  -1 26061.4 917.981   1
  -1   4   1 25860.6 632.894   1
   1   4   1 27194.9 856.769   1
   1   4   2 220503. 2360.52   1
  -1   4   2 229345. 1665.47   1
  -1  -4   2 224429. 3212.31   2
  -1  -4  -2 226327. 2848.02   2
   1   4  -2 230137. 2859.12   1
  -1  -4  -2 223980. 2389.93   1
   1   4   3 1273.53 187.986   1
  -1   4   3 1055.55 104.711   1
  -1  -4   3 1022.60 227.365   2
  -1  -4  -3 1030.26 195.149   2
  -1  -4  -3 1892.39 229.325   1
  -1  -4   4 165995. 2923.73   2
  -1  -4  -4 163837. 2213.60   2
   1   4   4 164459. 2003.29   1
   1  -4  -4 165828. 1396.91   1
  -1  -4  -4 163446. 2078.95   1
  -1  -4  -5 44791.3 1138.26   1
  -1  -4   5 43326.8 1536.68   2
  -1  -4  -5 44346.5 1098.43   2
   1   4   5 46318.1 1096.86   1
   1  -4  -5 44152.5 788.600   1
   1  -4  -6 80756.8 1188.89   1
  -1  -4   6 79857.8 2119.02   2
  -1  -4  -6 82662.9 1368.03   2
   1  -4  -7 1155.59 158.181   1
  -1  -4  -7 1474.63 165.795   2
  -1  -4   7 1313.56 292.388   2
   1  -4  -8 7628.03 437.054   1
  -1  -4   8 8176.72 728.374   2
  -1  -4   9 9795.47 797.561   2
   1  -4  10 23626.8 1250.95   2
  -1  -4  10 25067.4 1296.81   2
   1  -4  11 79612.7 2335.36   2
  -1  -4  11 84650.7 2401.21   2
  -1  -4  11 82801.2 2393.85   3
   1  -4  12 63927.0 2146.78   2
  -1  -4  12 65080.5 2139.99   2
  -1  -4  12 64476.6 2198.35   3
   1  -4  12 66213.4 2214.23   3
   1  -4  13-79.1889 168.458   3
   1  -4  13-48.1339 132.166   2
  -1  -4  13 139.089 149.086   2
  -1  -4  13-200.922 207.574   3
   1  -4  14 43149.6 1822.52   2
  -1  -4  14 42019.8 1774.76   2
   1  -4  14 44049.4 1945.14   3
  -1  -4  14 41419.9 1904.20   3
   1  -4  15 122.622 142.276   3
  -1  -4  15 169.486 181.172   3
   1  -4  15 16.6668 152.057   2
   1  -4  16 10053.7 905.175   2
   1  -4  16 7611.95 881.726   3
  -1  -4  16 10089.0 1022.34   3
   1  -4  17 548.930 275.852   3
  -1  -4  17 515.914 256.041   3
   1  -4  18 7654.45 956.009   3
  -1  -4  18 8341.50 996.140   3
  -2  -4   0 2439.47 320.772   2
   2   4   0 2938.03 323.393   1
   2   4   1 24204.6 903.103   1
  -2  -4   1 21747.2 977.690   2
  -2  -4  -1 22550.3 937.630   2
   2   4  -1 23731.1 936.100   1
  -2   4   1 24344.4 522.868   1
  -2  -4   2 836.906 213.043   2
  -2  -4  -2 721.478 173.492   2
   2   4   2 686.074 155.955   1
   2   4  -2 744.125 178.988   1
   2   4   3 352.353 133.909   1
  -2  -4   3 348.290 149.586   2
  -2  -4  -3 98.3422 63.6955   2
   2   4  -3 107.329 105.121   1
   2   4   4 402.086 131.898   1
  -2  -4   4 174.545 103.783   2
  -2  -4  -4 233.285 95.9720   2
  -2  -4  -5 2728.40 271.929   2
   2   4   5 2389.79 282.160   1
  -2  -4   5 2441.00 370.905   2
   2  -4  -6 38.2236 34.3519   1
  -2  -4   6 19.7626 98.5978   2
   2  -4  -7 5791.43 301.816   1
  -2  -4   7 6022.76 601.508   2
  -2  -4   8 225.053 138.184   2
   2  -4  -8 589.260 112.129   1
   2  -4  -9 4469.74 321.254   1
  -2  -4   9 4919.83 574.079   2
  -2  -4   9 5284.15 567.426   3
  -2  -4  10 133.103 121.003   3
  -2  -4  10 20.6924 127.499   2
  -2  -4  11-29.4730 105.724   3
  -2  -4  11-92.2700 125.887   2
  -2  -4  12 70.9314 160.328   3
   2  -4  12 136.669 150.659   2
  -2  -4  12 92.3894 108.346   2
  -2  -4  13 2557.99 466.604   3
   2  -4  13 2227.76 429.751   3
   2  -4  13 2140.37 408.396   2
  -2  -4  14-384.355 216.810   3
   2  -4  14 136.605 215.941   3
   2  -4  14-9.67188 175.043   2
   2  -4  15 797.087 312.131   3
  -2  -4  15 950.236 331.310   3
   2  -4  15 505.457 220.259   2
   2  -4  16 194.853 171.412   3
  -2  -4  16-98.6107 181.630   3
   2  -4  16-12.8197 140.413   2
   2  -4  17 82.1374 128.864   3
  -2  -4  17 58.8518 165.788   3
   2  -4  18 101.498 217.659   3
   3   4   0 89.7508 85.7100   1
  -3  -4   0 62.3851 93.0373   2
   3   4   1 6462.77 505.423   1
  -3  -4   1 6726.75 548.651   2
  -3  -4  -1 6897.24 521.872   2
  -3   4   1 6960.68 237.148   1
   3   4  -1 6561.27 535.273   1
   3   4   2 108546. 2039.17   1
  -3  -4   2 107965. 2238.41   2
   3   4  -2 111808. 2248.10   1
   3   4   3 184.705 91.9734   1
  -3  -4   3 53.8950 110.914   2
   3   4  -3 279.612 139.308   1
   3   4   4 54670.9 1461.21   1
  -3  -4   4 49492.0 1606.79   2
   3   4  -4 49690.7 1618.62   1
   3   4   5 45260.3 1317.95   1
  -3  -4   5 43009.7 1533.26   2
   3   4  -5 43792.9 1572.21   1
  -3  -4   6 35331.2 1426.99   2
   3   4   6 34858.7 1195.08   1
   3  -4  -7 285.238 58.9382   1
  -3  -4   7 402.335 197.626   2
  -3  -4   8 59.8830 83.9495   3
   3  -4  -8 232.914 66.9997   1
  -3  -4   9 4848.78 545.415   3
  -3  -4  10 2632.08 424.118   3
  -3  -4  11 53535.2 1954.02   3
  -3  -4  12 38695.4 1724.08   3
  -3  -4  13 274.865 171.941   3
   3  -4  14 44166.1 1871.92   2
   3  -4  14 41175.8 1901.73   3
   3  -4  15 929.190 318.994   3
  -3  -4  15 1116.48 337.376   3
   3  -4  15 715.884 265.664   2
  -3  -4  16 2388.53 490.730   3
   3  -4  16 1557.80 406.792   3
   3  -4  17 264.722 210.264   3
  -3  -4  17-741.445 317.231   3
   3  -4  18 912.063 389.367   3
   4   4   0 76732.5 1918.35   1
  -4   4   0 81329.2 1130.99   1
   4   4   1 43904.0 1427.90   1
  -4   4   1 44665.6 670.975   1
   4   4  -1 44734.6 1483.41   1
   4   4   2 49541.3 1503.42   1
   4   4  -2 50215.6 1600.82   1
   4   4   3 2098.29 325.078   1
   4   4  -3 1960.98 330.514   1
   4   4   4 2.54269 102.892   1
   4   4  -4 162.100 145.912   1
  -4  -4  -5 4899.23 331.952   3
   4   4   5 5227.33 496.712   1
   4   4  -5 4804.55 560.152   1
   4   4   6 84380.7 1991.58   1
   4   4  -6 83182.5 2324.71   1
  -4  -4   6 76761.5 1851.91   3
  -4  -4  -6 78295.7 1377.42   3
  -4  -4   7 432.600 158.616   3
   4   4  -7 513.771 199.291   1
   4  -4  -8 20012.3 519.163   1
  -4  -4   8 20317.8 1049.92   3
  -4  -4   9 6970.81 658.446   3
  -4  -4  10 115128. 2741.89   3
  -4  -4  11 117.384 120.728   3
  -4  -4  12 13108.8 1012.88   3
  -4  -4  13 1121.80 315.306   3
   4  -4  14 28854.8 1590.58   3
  -4  -4  14 29884.0 1642.59   3
   4  -4  15 4940.78 696.349   3
  -4  -4  15 3675.46 608.837   3
   4  -4  16 99174.7 3143.84   3
  -4  -4  16 96193.6 3185.93   3
   4  -4  17 3422.18 623.899   3
  -4  -4  17 2324.93 524.054   3
   4  -4  18 346.180 234.208   3
  -5   4   0-9.70922 65.2760   1
   5   4   0 106.352 155.664   1
   5   4   1 8303.06 672.664   1
  -5   4  -1 8814.54 460.602   1
  -5   4   1 8573.39 352.104   1
   5   4  -1 8466.43 697.620   1
   5   4   2 148793. 2812.45   1
  -5   4   2 145568. 1096.80   1
   5   4  -2 148477. 2924.16   1
   5   4  -3 8465.91 718.182   1
   5   4   3 8532.39 672.213   1
  -5  -4  -4 138007. 1430.90   3
   5   4   4 142532. 2750.87   1
  -5  -4   4 139233. 2191.38   3
   5   4  -4 139067. 2981.44   1
  -5  -4   5 1362.85 238.899   3
   5   4   5 1139.34 264.413   1
   5   4  -5 1682.46 363.812   1
  -5  -4  -5 1514.25 157.636   3
   5   4   6 67225.3 1898.47   1
   5   4  -6 65863.5 2177.04   1
  -5  -4   6 68473.7 1740.59   3
  -5  -4  -6 68455.4 1154.53   3
   5   4   7 2584.49 391.283   1
   5   4  -7 2224.44 422.896   1
  -5  -4   7 2408.15 353.147   3
   5   4  -8 14281.1 1073.04   1
  -5  -4   8 14316.7 890.874   3
  -5  -4   9-1.20119 105.170   3
   5   4  -9 10.9943 123.540   1
   5   4 -10 26025.2 1523.99   1
  -5  -4  10 24952.1 1294.62   3
  -5  -4  11 33464.9 1556.17   3
  -5  -4  12 52211.2 2024.76   3
  -5  -4  13 1503.38 379.666   3
  -5  -4  14 33440.1 1745.42   3
   5  -4  15 798.781 258.175   3
  -5  -4  15 465.232 248.294   3
   5  -4  16 8438.85 937.863   3
  -5  -4  16 7293.39 887.849   3
  -5  -4  17 0.45848 136.692   3
   5  -4  17 133.456 192.652   3
  -6   4   0 8660.47 472.081   1
   6   4   0 8957.54 747.029   1
  -6  -4   0 9840.29 401.506   3
  -6   4   1 21727.9 659.017   1
  -6  -4   1 20986.2 663.265   3
   6   4  -1 20212.5 1127.91   1
   6   4   1 19827.7 1098.04   1
  -6   4  -1 20071.4 779.696   1
  -6  -4  -1 19712.2 500.332   3
   6   4  -2 3480.09 487.530   1
  -6   4   2 3160.17 218.476   1
  -6  -4   2 2945.04 277.970   3
   6   4   2 3264.61 460.823   1
  -6  -4   3 32.9990 59.5318   3
   6   4  -3-118.733 145.819   1
   6   4  -4 1090.50 286.355   1
  -6  -4   4 1412.63 230.420   3
   6   4   4 1163.04 278.188   1
  -6  -4  -4 1058.50 87.8315   3
  -6  -4   5 123.643 101.580   3
   6   4   5 38.3204 145.113   1
  -6  -4  -5 228.806 52.3987   3
   6   4  -5 160.566 138.635   1
  -6  -4   6 26.2320 77.6818   3
   6   4  -6 311.817 165.964   1
   6   4   6 158.940 123.564   1
  -6  -4   7 839.603 208.416   3
   6   4   7 1007.50 274.924   1
   6   4  -7 796.724 315.342   1
  -6  -4   8 3115.17 422.610   3
   6   4  -8 2461.90 482.423   1
   6   4  -9 7564.05 824.664   1
  -6  -4   9 7645.90 690.499   3
  -6  -4  10 79.7201 123.420   3
   6   4 -10 27.3165 161.291   1
  -6  -4  11 384.353 181.047   3
   6   4 -11 171.872 211.394   1
  -6  -4  12-34.3216 162.662   3
   6   4 -12 183.595 175.118   1
  -6  -4  13 710.304 293.249   3
   6   4 -13 1323.03 407.441   1
  -6  -4  14 35.6541 159.229   3
   6   4 -14-139.331 160.380   1
   6  -4  15 208.282 159.016   3
  -6  -4  15-108.338 167.774   3
   6  -4  16-128.731 148.138   3
  -6  -4  16 77.0110 162.671   3
   6  -4  17 59.9681 200.407   3
  -7  -4   0-20.7647 35.4773   3
   7   4   0 28.0542 185.176   1
  -7  -4   1 140.900 52.1685   3
   7   4   1-114.023 156.331   1
  -7   4   1 5.66879 48.0572   1
   7   4  -1 39.1420 148.888   1
   7   4  -2 96090.0 2630.92   1
   7   4   2 90457.5 2477.82   1
  -7  -4   2 95605.9 1485.09   3
  -7   4   2 87559.7 1376.24   1
   7   4   3 6037.51 641.613   1
  -7  -4   3 5283.11 399.559   3
   7   4  -3 5750.52 663.966   1
   7   4   4 57177.5 1964.02   1
  -7  -4   4 58536.5 1438.04   3
   7   4  -4 57355.5 2092.86   1
   7   4   5 15174.0 1013.65   1
   7   4  -5 13924.0 1043.20   1
  -7  -4   5 15432.9 782.059   3
   7   4  -6 26876.6 1488.92   1
   7   4   6 26892.9 1348.37   1
  -7  -4   6 26366.9 1097.91   3
   7   4   7 3.86627 151.770   1
  -7  -4   7 69.9384 114.919   3
   7   4  -7 45.8652 143.276   1
  -7  -4   8 247.545 137.476   3
   7   4  -8 32.8160 186.402   1
  -7  -4   9 112.721 98.7218   3
   7   4  -9-29.2517 172.975   1
   7   4 -10 10183.2 1017.32   1
  -7  -4  10 11287.5 884.926   3
   7   4 -11 16222.8 1322.71   1
  -7  -4  11 16749.3 1129.58   3
   7   4 -12 43421.5 2214.50   1
  -7  -4  12 43809.1 1879.81   3
  -7  -4  13 956.456 317.934   3
   7   4 -13 766.081 324.768   1
   7   4 -14 32350.4 2027.11   1
  -7  -4  14 33519.1 1787.52   3
   7  -4  15 2560.00 503.887   3
  -7  -4  15 2891.81 563.843   3
   7   4 -15 2998.52 645.625   1
   7  -4  16 2644.50 553.673   3
  -7  -4  16 2807.87 565.413   3
   7  -4  17 726.195 330.396   3
   8   4   0 12892.2 1002.69   1
   8   4  -1 20817.6 1283.80   1
   8   4   1 20185.3 1247.52   1
   8   4  -2 15602.8 1128.04   1
   8   4   2 16135.7 1100.29   1
  -8  -4   2 15432.2 573.752   3
  -8  -4   3 1301.34 192.446   3
   8   4  -3 1093.60 330.916   1
   8   4   3 921.984 302.210   1
  -8  -4   4 771.048 167.785   3
   8   4  -4 982.507 326.639   1
   8   4   4 835.553 278.715   1
   8   4  -5 1682.91 419.204   1
  -8  -4   5 2267.18 299.511   3
   8   4   5 1444.28 336.041   1
   8   4   6 20207.1 1234.42   1
   8   4  -6 17893.0 1258.81   1
  -8  -4   6 21159.7 982.727   3
   8   4  -7 710.792 285.459   1
  -8  -4   7 778.238 212.961   3
   8   4   7 584.039 242.495   1
   8   4   8 5830.28 687.544   1
   8   4  -8 5841.10 757.826   1
  -8  -4   8 6188.86 594.356   3
  -8  -4   9 2434.96 404.436   3
   8   4  -9 2412.66 505.819   1
   8   4 -10 61247.4 2562.26   1
  -8  -4  10 64632.9 2109.56   3
  -8  -4  11 6.97855 133.587   3
   8   4 -11 178.440 208.647   1
  -8  -4  12 3004.86 510.132   3
   8   4 -12 2689.49 584.817   1
  -8  -4  13 1123.18 319.351   3
   8   4 -13 707.479 319.024   1
  -8  -4  14 6772.86 812.293   3
   8   4 -14 6996.88 964.777   1
  -8  -4  15 1352.67 403.583   3
   8  -4  15 1232.43 364.517   3
   8   4 -15 970.664 389.661   1
   8  -4  16 50242.6 2283.87   3
  -8  -4  16 51224.4 2418.30   3
   8  -4  17 1954.47 484.761   3
   9   4   0-544.003 257.396   1
   9   4   1 2882.51 511.691   1
   9   4  -1 3137.82 531.015   1
   9   4  -2 24810.3 1478.13   1
   9   4   2 25540.7 1470.53   1
   9   4  -3 6310.25 767.425   1
   9   4   3 5871.59 713.951   1
   9   4  -4 27640.6 1602.44   1
   9   4   4 26852.5 1490.71   1
   9   4  -5 2.66402 196.221   1
   9   4   5-153.124 215.367   1
  -9  -4   6 23658.7 1041.87   3
   9   4   6 22021.7 1354.57   1
   9   4  -6 20665.7 1428.22   1
   9   4  -7 2210.18 489.159   1
  -9  -4   7 2722.39 385.499   3
   9   4   7 2651.82 494.833   1
   9   4   8 4488.78 633.442   1
   9   4  -8 5191.60 736.735   1
  -9  -4   8 5511.37 567.232   3
   9   4  -9 484.408 232.205   1
  -9  -4   9 596.915 207.983   3
  -9  -4  10 2054.35 389.850   3
   9   4 -10 1735.82 464.261   1
   9   4 -11 17602.5 1459.61   1
  -9  -4  11 17489.3 1177.63   3
  -9  -4  12 9318.93 903.452   3
   9   4 -12 8012.43 1009.00   1
  -9  -4  13 788.938 278.088   3
   9   4 -13 1780.75 526.484   1
  -9  -4  14 15364.1 1260.02   3
   9   4 -14 14545.1 1431.96   1
   9  -4  15 93.2027 199.562   3
  -9  -4  15 568.192 247.459   3
  10   4   0 9254.09 939.677   1
  10   4   1 849.911 306.960   1
  10   4  -1 368.643 247.988   1
  10   4   2 2306.80 475.795   1
  10   4  -2 2458.04 513.539   1
  10   4  -3 1103.02 367.392   1
  10   4   3 838.955 300.496   1
  10   4   4 551.877 245.795   1
  10   4  -4 1262.14 361.983   1
  10   4  -5 3208.84 595.938   1
  10   4   5 3725.88 581.938   1
  10   4   6 233.345 239.114   1
  10   4  -6 63.2735 160.037   1
  10   4  -7 4658.41 733.049   1
  10   4   7 5533.79 724.899   1
  10   4  -8 3348.24 627.354   1
  10   4   8 3230.72 572.324   1
  10   4  -9 1000.64 350.534   1
  10   4 -10-389.742 233.046   1
  10   4 -11 1202.81 383.397   1
  10   4 -12 628.805 348.411   1
  11   4   0-180.830 274.762   1
  11   4   1 208.887 197.332   1
  11   4  -1 155.260 241.693   1
  11   4  -2 66269.4 2636.72   1
  11   4   2 65256.8 2570.42   1
  11   4  -3-312.029 306.504   1
  11   4   3-48.6480 196.666   1
  11   4  -4 51354.7 2357.68   1
  11   4   4 56158.0 2353.78   1
  11   4  -5 14975.9 1304.53   1
  11   4   5 16835.4 1292.88   1
  11   4  -6 21776.0 1587.45   1
  11   4   6 20936.1 1453.70   1
  11   4  -7-55.9495 218.373   1
  11   4   7-126.817 225.001   1
  11   4  -8 1436.47 427.227   1
  11   4  -9-105.320 274.984   1
  11   4 -10 17978.3 1541.98   1
  11   4 -11 13067.7 1342.85   1
  12   4   0 32087.1 1892.17   1
  12   4  -1 7656.92 938.568   1
  12   4   1 9524.98 1040.15   1
  12   4  -2 22422.8 1617.82   1
  12   4   2 21760.9 1563.52   1
  12   4   3 889.434 368.626   1
  12   4  -3 1553.69 428.122   1
  12   4   4 135.054 225.558   1
  12   4  -4-83.8779 249.655   1
  12   4  -5 657.795 347.504   1
  12   4   5 745.458 323.476   1
  12   4  -6 32049.4 2009.43   1
  12   4   6 31534.3 1866.23   1
  12   4  -7 395.830 209.675   1
  12   4   7 1152.00 365.424   1
  12   4  -8 24573.3 1817.17   1
  12   4  -9 1889.56 535.235   1
  13   4   0-771.655 356.181   1
  13   4  -1 3233.00 629.139   1
  13   4   1 3229.00 655.131   1
  13   4  -2 7119.93 960.468   1
  13   4   2 8747.53 1023.12   1
  13   4   3 118.537 192.762   1
  13   4  -3 7.70127 232.041   1
  13   4  -4 8596.72 1057.33   1
  13   4   4 8731.58 1022.35   1
  13   4   5 598.258 236.651   1
  13   4  -5 597.968 273.570   1
  13   4  -6 10918.2 1215.19   1
  13   4   6 11802.9 1190.83   1
   0   5   0 36.0636 76.6093   1
   0   5   1-71.7821 59.8088   1
   0   5  -1-14.4039 69.8062   1
   0   5   2 35.1216 56.6171   1
   0   5  -2-49.7724 87.1301   1
   0   5   3-66.6185 64.4160   1
   0   5   4-33.0299 61.9956   1
   0  -5  -4 54.8977 40.4248   1
   0  -5  -5-1.06631 41.2931   1
   0  -5   6 213.846 202.310   2
   0  -5  -6-66.1384 64.6921   1
   0  -5  -7 30.5866 63.6512   1
   0  -5  -7 13.2471 62.0932   2
   0  -5   7 11.6990 124.550   2
   0  -5   8 141.264 119.958   2
   0  -5  -8 117.638 93.6760   2
   0  -5   9-67.6696 201.804   2
   0  -5  -9 13.7810 49.2267   2
   0  -5  10-76.5774 151.585   2
   0  -5  11 331.713 167.812   2
   0  -5  12-131.805 174.780   2
   0  -5  13 238.665 162.822   3
   0  -5  13 52.3369 138.619   2
   0  -5  14 278.859 200.392   3
   0  -5  14-27.8528 199.911   2
   0  -5  15 144.314 164.948   3
   0  -5  15 174.737 147.767   2
   0  -5  16 200.755 174.871   3
   0  -5  16-69.5518 190.749   2
   0  -5  17-706.687 313.166   3
   1   5   0-70.1389 87.7160   1
  -1  -5   0 114.805 106.109   2
  -1   5   0 97.1639 83.8178   1
   1   5   1 14458.0 694.724   1
  -1  -5   1 14139.9 875.969   2
  -1  -5  -1 14037.3 836.142   2
  -1   5   1 13168.0 529.526   1
  -1   5  -1 15084.2 663.321   1
   1   5  -1 14869.7 759.119   1
  -1   5   2 62172.0 1038.29   1
   1   5   2 60014.8 1365.05   1
  -1  -5   2 60057.9 1852.72   2
  -1  -5  -2 61716.1 1688.20   2
   1   5  -2 61513.6 1606.29   1
   1   5   3 93721.2 1657.75   1
  -1   5   3 90613.0 1173.21   1
  -1  -5   3 92180.0 2346.53   2
  -1  -5  -3 90362.2 1974.91   2
   1   5  -3 90529.5 2031.63   1
  -1  -5   4 16564.6 1032.43   2
  -1  -5  -4 17495.4 854.073   2
   1   5   4 16266.5 685.711   1
   1   5   5 2985.62 292.593   1
  -1  -5   5 2544.64 423.793   2
  -1  -5  -5 2348.55 296.396   2
   1  -5  -5 3074.55 215.684   1
  -1  -5   6 5353.39 622.219   2
  -1  -5  -6 5924.78 449.937   2
   1  -5  -6 5788.49 315.656   1
  -1  -5  -7 5436.96 400.390   2
  -1  -5   7 4705.55 593.538   2
   1  -5  -7 5231.32 330.359   1
  -1  -5   8 26534.9 1419.38   2
  -1  -5  -8 26106.8 791.997   2
  -1  -5   9 3841.58 565.455   2
   1  -5  10 1801.24 394.516   2
  -1  -5  10 2352.95 458.814   2
   1  -5  11 65751.8 2321.68   2
  -1  -5  11 68019.7 2366.26   2
   1  -5  12 10000.1 928.808   2
  -1  -5  12 8502.14 836.431   3
  -1  -5  12 10278.4 935.436   2
   1  -5  13 37391.1 1818.29   2
  -1  -5  13 36296.1 1762.96   2
  -1  -5  13 36755.4 1794.66   3
   1  -5  14 2087.97 448.935   3
  -1  -5  14 2408.44 472.322   3
   1  -5  14 2963.75 525.223   2
  -1  -5  14 2260.74 452.015   2
   1  -5  15 217.635 130.663   3
  -1  -5  15-83.8392 171.105   3
   1  -5  15 395.886 251.588   2
  -1  -5  15 527.784 280.160   2
   1  -5  16 1353.86 402.795   3
  -1  -5  16 2044.91 472.200   3
   1  -5  16 1562.17 401.409   2
   1  -5  17 842.946 330.319   3
  -1  -5  17 913.749 353.165   3
   2   5   0 797.071 193.843   1
  -2  -5   0 550.597 190.381   2
  -2   5   0 511.965 110.616   1
   2   5   1 239432. 3062.76   1
  -2  -5   1 235247. 3614.22   2
  -2  -5  -1 230760. 3394.32   2
  -2   5   1 237771. 1931.49   1
   2   5  -1 236723. 3224.51   1
   2   5   2 64386.8 1557.67   1
  -2   5   2 66845.5 818.397   1
  -2  -5   2 67274.3 1985.82   2
  -2  -5  -2 67544.7 1768.19   2
   2   5  -2 63826.1 1736.72   1
   2   5   3 13463.2 704.462   1
  -2  -5   3 12625.4 881.446   2
  -2  -5  -3 14178.0 776.868   2
   2   5  -3 12005.7 787.081   1
   2   5   4 7929.39 541.759   1
  -2  -5   4 6744.70 659.008   2
  -2  -5  -4 7177.73 537.705   2
   2   5  -4 6984.24 620.159   1
  -2  -5   5 1418.02 314.961   2
   2   5   5 1554.95 245.803   1
  -2  -5  -5 1401.47 220.121   2
  -2  -5   6 6787.84 696.903   2
  -2  -5  -6 6528.49 456.190   2
   2   5   6 6835.77 512.791   1
  -2  -5   7 22439.1 1275.66   2
  -2  -5   8 51895.6 1983.22   2
  -2  -5   9 62141.7 2190.01   2
  -2  -5  10 60199.3 2171.57   2
  -2  -5  11 21524.4 1324.11   2
  -2  -5  11 21279.1 1266.43   3
   2  -5  12 5128.65 666.094   2
  -2  -5  12 5446.77 682.059   2
  -2  -5  12 6544.03 731.342   3
  -2  -5  13 2619.43 493.321   3
   2  -5  13 3173.16 540.467   2
  -2  -5  13 2764.01 496.058   2
  -2  -5  14 2622.76 510.260   3
   2  -5  14 2146.12 441.793   3
   2  -5  14 2051.69 454.791   2
   2  -5  15 16463.5 1253.28   2
  -2  -5  15 17370.3 1322.50   3
   2  -5  15 17323.8 1319.58   3
   2  -5  16 24584.2 1551.70   2
   2  -5  16 24676.6 1640.44   3
  -2  -5  16 27471.4 1716.82   3
   2  -5  17 17877.9 1447.65   3
   3   5   0-24.1547 124.824   1
  -3  -5   0 93.2145 106.888   2
   3   5   1 5915.55 532.797   1
  -3  -5   1 6185.07 581.550   2
  -3  -5  -1 5637.36 528.293   2
  -3   5   1 5855.71 263.001   1
   3   5  -1 6199.92 548.917   1
   3   5   2 19704.8 929.601   1
  -3  -5   2 20085.7 1076.31   2
  -3  -5  -2 19911.6 952.245   2
   3   5  -2 18859.5 997.873   1
   3   5   3 37064.5 1274.43   1
  -3  -5   3 34876.8 1446.93   2
   3   5  -3 36419.7 1430.46   1
   3   5   4 49.2651 100.906   1
  -3  -5   4-65.6275 171.188   2
   3   5  -4 383.562 175.445   1
   3   5   5 533.898 159.945   1
  -3  -5   5 439.514 185.453   2
   3   5   6 1026.09 235.729   1
   3   5  -6 1249.17 315.406   1
  -3  -5   6 1082.97 302.088   2
  -3  -5   7 1391.18 324.297   2
  -3  -5   8 13221.9 1000.71   2
  -3  -5   9 1492.94 361.047   2
  -3  -5   9 1692.42 336.150   3
  -3  -5  10 3097.48 461.941   3
  -3  -5  10 2637.84 473.703   2
  -3  -5  11 64306.7 2209.47   3
  -3  -5  12 1659.65 379.177   3
  -3  -5  13 17780.6 1260.15   3
  -3  -5  14 3561.75 593.057   3
   3  -5  14 2365.47 489.712   2
   3  -5  15 908.556 340.923   3
  -3  -5  15 829.108 321.169   3
   3  -5  15 513.495 289.144   2
   3  -5  16 46.6758 152.407   3
  -3  -5  16 65.5854 128.707   3
   3  -5  16 414.944 237.195   2
   4   5   0 4976.06 530.569   1
  -4   5   0 4968.81 286.742   1
   4   5   1 3937.00 468.004   1
   4   5  -1 3579.02 458.700   1
  -4   5   1 3409.31 183.295   1
   4   5  -2 2005.35 356.028   1
   4   5   2 2015.30 336.216   1
   4   5   3 297.942 148.590   1
   4   5  -3 132.097 136.994   1
   4   5   4 28.6814 129.005   1
   4   5  -4 161.430 191.438   1
   4   5   5 10063.9 716.973   1
   4   5  -5 9095.88 798.035   1
   4   5   6 3750.30 446.567   1
   4   5  -6 3083.74 487.516   1
   4   5  -7 1596.84 366.023   1
   4   5   7 1802.29 310.315   1
  -4  -5   8 1328.52 295.631   3
   4   5  -8 1971.13 436.154   1
  -4  -5   9 0.25926 90.9473   3
  -4  -5  10 284.489 154.746   3
  -4  -5  11-77.8625 150.843   3
  -4  -5  12 1284.02 338.379   3
  -4  -5  13 4709.17 658.142   3
  -4  -5  14 1009.19 349.355   3
  -4  -5  15 5179.30 735.904   3
   4  -5  15 4721.65 692.075   2
   4  -5  15 3510.51 623.304   3
  -4  -5  16 571.042 304.568   3
   4  -5  16 244.469 129.158   2
   5   5   0 126.591 176.570   1
  -5   5   0-31.1768 63.0908   1
  -5   5   1 22735.4 494.897   1
   5   5   1 22307.2 1158.76   1
  -5   5  -1 23639.8 757.339   1
   5   5  -1 24142.7 1239.80   1
   5   5   2 20871.5 1110.59   1
   5   5  -2 21267.4 1184.82   1
   5   5   3 150912. 2974.72   1
   5   5  -3 151353. 3179.47   1
   5   5   4 2948.33 430.129   1
   5   5  -4 3072.35 478.688   1
   5   5   5 25229.4 1205.28   1
   5   5  -5 25086.8 1373.72   1
  -5  -5   6 1207.06 250.857   3
   5   5  -6 992.444 301.964   1
   5   5   6 1283.71 288.806   1
   5   5   7 7088.55 657.708   1
   5   5  -7 6287.07 732.154   1
  -5  -5   7 6967.19 621.581   3
   5   5  -8 10037.0 947.928   1
  -5  -5   8 12380.8 865.671   3
   5   5  -9 13834.3 1141.93   1
  -5  -5   9 14298.6 969.434   3
  -5  -5  10 377.050 208.458   3
   5   5 -10 150.996 141.721   1
   5   5 -11 71844.6 2737.92   1
  -5  -5  11 74039.1 2391.92   3
  -5  -5  12 3501.62 546.717   3
   5   5 -12 3254.48 630.314   1
  -5  -5  13 52782.7 2182.22   3
  -5  -5  14 1205.14 351.983   3
  -5  -5  15 334.320 165.182   3
   5  -5  16-52.0973 188.136   3
  -5  -5  16 634.558 273.829   3
   6   5   0 18276.5 1130.09   1
   6   5  -1 225260. 3999.96   1
   6   5   1 211952. 3754.78   1
   6   5   2 66276.1 2110.16   1
   6   5  -2 69024.0 2243.12   1
   6   5  -3 1349.24 305.443   1
   6   5   3 1803.57 369.958   1
  -6  -5   3 1230.92 217.125   3
  -6  -5   4 2134.76 298.234   3
   6   5  -4 1397.19 338.896   1
   6   5   4 2235.06 410.311   1
  -6  -5   5 1761.85 280.228   3
   6   5   5 2615.82 413.087   1
   6   5  -5 2467.43 456.579   1
   6   5   6 22802.9 1219.93   1
   6   5  -6 21134.1 1338.01   1
  -6  -5   6 23288.1 1078.05   3
   6   5   7 55833.4 1922.06   1
   6   5  -7 53863.2 2204.13   1
  -6  -5   7 53201.9 1706.40   3
   6   5   8 83869.0 2420.23   1
   6   5  -8 77563.7 2705.65   1
  -6  -5   8 77384.5 2156.08   3
   6   5  -9 68514.4 2609.74   1
  -6  -5   9 70024.8 2140.08   3
   6   5 -10 49842.8 2276.00   1
  -6  -5  10 51128.4 1907.36   3
   6   5 -11 9476.21 1018.97   1
  -6  -5  11 10328.3 906.007   3
   6   5 -12 11597.9 1174.81   1
  -6  -5  12 13945.3 1083.50   3
   6   5 -13 10077.3 1121.46   1
  -6  -5  13 9732.97 951.965   3
   6   5 -14 12344.2 1266.15   1
  -6  -5  14 11483.3 1069.21   3
   6   5 -15 27480.7 1935.11   1
  -6  -5  15 30379.4 1794.49   3
   6  -5  16 28193.2 1759.95   3
  -6  -5  16 28680.1 1812.63   3
  -7  -5   0-33.6108 59.1676   3
   7   5   0 133.961 168.001   1
   7   5  -1 8467.35 826.622   1
   7   5   1 7780.41 776.186   1
  -7  -5   1 8535.53 456.455   3
   7   5  -2 9890.70 903.781   1
   7   5   2 8430.17 817.159   1
  -7  -5   2 10074.8 541.462   3
   7   5   3 41122.9 1732.91   1
  -7  -5   3 40871.2 1171.83   3
   7   5  -3 39967.8 1817.47   1
  -7  -5   4 289.244 128.125   3
   7   5  -4 59.6153 124.791   1
   7   5   4 88.6644 170.809   1
   7   5   5 14433.8 1028.55   1
  -7  -5   5 15509.0 827.303   3
   7   5  -5 13666.5 1089.19   1
  -7  -5   6 81.6897 93.0971   3
   7   5   6 377.485 197.045   1
   7   5  -6 169.332 152.519   1
  -7  -5   7 135.178 98.7470   3
   7   5   7 289.002 146.232   1
   7   5  -7 405.016 245.289   1
   7   5   8 8001.54 790.191   1
   7   5  -8 8218.24 918.765   1
  -7  -5   8 7001.40 658.926   3
   7   5  -9 8803.76 985.630   1
  -7  -5   9 8071.74 738.737   3
  -7  -5  10 2949.20 464.422   3
   7   5 -10 4424.89 719.658   1
   7   5 -11 86608.5 3183.03   1
  -7  -5  11 82854.6 2565.26   3
  -7  -5  12 697.305 256.978   3
   7   5 -12 475.483 269.579   1
   7   5 -13 9095.42 1082.77   1
  -7  -5  13 10752.1 1003.83   3
  -7  -5  14 2240.99 484.961   3
   7   5 -14 1723.04 486.501   1
  -7  -5  15 64.8190 109.008   3
   8   5   0 2243.74 441.152   1
   8   5  -1 1543.54 400.625   1
   8   5   1 1129.84 330.808   1
   8   5   2 476.635 230.938   1
   8   5  -2 576.561 242.359   1
   8   5  -3-35.7552 165.116   1
   8   5   3 181.317 141.618   1
  -8  -5   4 184.315 77.4678   3
   8   5  -4-23.4738 153.600   1
   8   5   4 323.589 209.110   1
   8   5   5 4852.57 631.362   1
   8   5  -5 4126.41 637.710   1
  -8  -5   5 4950.00 465.776   3
   8   5  -6 1112.10 356.801   1
  -8  -5   6 1082.14 242.608   3
   8   5   6 913.464 277.772   1
   8   5  -7 2663.76 545.766   1
  -8  -5   7 3194.39 428.391   3
   8   5   7 2329.43 446.664   1
  -8  -5   8 1816.50 340.236   3
   8   5   8 2364.48 472.514   1
   8   5  -8 2473.63 570.478   1
  -8  -5   9 2422.55 413.910   3
   8   5  -9 2641.60 544.240   1
  -8  -5  10-29.4650 93.5294   3
   8   5 -10 257.874 258.264   1
  -8  -5  11 879.709 273.964   3
   8   5 -11 1111.39 365.256   1
  -8  -5  12-326.357 187.384   3
   8   5 -12-579.569 313.793   1
  -8  -5  13 534.914 255.998   3
   8   5 -13 694.484 368.962   1
  -8  -5  14 154.849 170.825   3
  -8  -5  15 910.405 343.703   3
   9   5   0 150.683 168.889   1
   9   5  -1 9308.12 940.040   1
   9   5   1 8263.90 873.083   1
   9   5   2 3585.86 573.246   1
   9   5  -2 3713.38 604.479   1
   9   5  -3 66670.0 2575.64   1
   9   5   3 63246.2 2399.00   1
   9   5  -4 247.161 188.740   1
   9   5   4 524.258 259.278   1
   9   5   5 15733.0 1186.21   1
   9   5  -5 13820.9 1206.85   1
   9   5  -6-200.932 302.505   1
   9   5   6-13.5623 146.593   1
   9   5   7 7275.70 813.878   1
   9   5  -7 6939.49 898.963   1
   9   5  -8 1844.80 489.377   1
   9   5   8 2586.09 499.051   1
   9   5  -9 5636.19 819.319   1
   9   5 -10 2427.94 571.204   1
   9   5 -11 26482.4 1873.26   1
  -9  -5  11 27856.4 1501.31   3
  -9  -5  12 346.238 158.269   3
   9   5 -12 232.802 215.501   1
  -9  -5  13 40030.4 1966.01   3
  -9  -5  14 1105.88 365.132   3
  10   5   0 4948.19 718.323   1
  10   5  -1 96890.8 3146.31   1
  10   5   1 98180.3 3148.86   1
  10   5  -2 26727.6 1673.56   1
  10   5   2 24386.6 1569.39   1
  10   5  -3-378.401 251.216   1
  10   5   3 160.736 242.821   1
  10   5  -4 1566.08 456.968   1
  10   5   4 1111.05 359.069   1
  10   5  -5 2912.01 568.211   1
  10   5   5 2754.46 534.602   1
  10   5  -6 7635.53 962.851   1
  10   5   6 6992.92 845.325   1
  10   5   7 35145.2 1863.89   1
  10   5  -7 33462.2 2011.83   1
  10   5   8 36028.6 1923.28   1
  10   5  -8 35889.6 2116.60   1
  10   5  -9 36667.6 2170.21   1
  10   5 -10 29136.4 1960.20   1
  10   5 -11 3900.70 749.286   1
  11   5   0 386.682 305.039   1
  11   5   1 5006.49 751.501   1
  11   5  -1 5639.71 820.592   1
  11   5  -2 18402.0 1449.62   1
  11   5   2 20450.1 1506.18   1
  11   5  -3 19359.7 1509.26   1
  11   5   3 19396.1 1453.23   1
  11   5   4 6204.66 829.049   1
  11   5  -4 7383.45 945.998   1
  11   5  -5 14514.9 1349.44   1
  11   5   5 14918.4 1273.98   1
  11   5   6 1558.62 438.805   1
  11   5  -6 1196.60 366.703   1
  11   5  -7 108.281 182.108   1
  11   5   7-71.7668 256.978   1
  11   5  -8 8312.34 1069.66   1
  11   5   8 7721.10 944.380   1
  11   5  -9 4802.96 830.000   1
  12   5   0 2951.38 629.764   1
  12   5  -1 4825.66 790.241   1
  12   5   1 5489.07 828.139   1
  12   5   2 2766.69 598.586   1
  12   5  -2 2035.49 523.637   1
  12   5  -3 447.160 317.876   1
  12   5   3 204.857 161.121   1
  12   5   4 542.150 273.446   1
  12   5  -4 254.840 273.378   1
  12   5  -5 3141.17 667.826   1
  12   5   5 2424.05 547.623   1
  12   5   6 2633.63 561.108   1
  12   5  -6 2866.78 651.135   1
  12   5   7 7381.35 945.963   1
  13   5   0 136.981 225.942   1
  13   5  -1 1002.92 382.154   1
  13   5   1 867.392 373.128   1
   0   6   0 12207.3 655.831   1
   0   6   1 327481. 3315.52   1
   0   6  -1 326164. 3618.76   1
   0   6   2 9498.45 529.260   1
   0   6  -2 9775.84 659.062   1
   0   6   3 37416.9 1001.42   1
   0   6  -3 33070.4 1257.81   1
   0   6   4 35065.9 928.930   1
   0  -6   5 2109.33 422.350   2
   0  -6  -6 21676.0 1000.99   2
   0  -6   6 19709.4 1268.95   2
   0  -6   7 225184. 4330.27   2
   0  -6  -7 227857. 3129.19   2
   0  -6   8 14787.9 1138.31   2
   0  -6  -8 16278.4 796.629   2
   0  -6   9 234080. 4581.11   2
   0  -6  10 7333.07 832.784   2
   0  -6  11 1833.48 437.938   2
   0  -6  12 1332.42 376.283   2
   0  -6  13 21378.6 1470.44   2
   0  -6  14 2135.46 463.397   3
   0  -6  14 2308.33 510.259   2
   0  -6  15 44130.1 2169.24   2
   0  -6  15 42055.0 2126.45   3
   0  -6  16 9050.95 996.780   2
   0  -6  17 31654.6 1870.38   2
   1   6   0-37.6477 112.525   1
  -1  -6   0-77.6468 128.189   2
  -1   6   0-56.1240 102.575   1
   1   6   1 27403.3 1044.59   1
  -1  -6   1 27901.8 1369.56   2
  -1  -6  -1 25636.9 1249.88   2
  -1   6  -1 28279.5 1000.41   1
   1   6  -1 25711.5 1078.67   1
  -1   6   1 28234.6 862.121   1
  -1   6   2 30812.0 821.226   1
   1   6   2 30159.6 1055.18   1
  -1  -6   2 29522.3 1437.19   2
  -1  -6  -2 31782.3 1357.35   2
  -1   6  -2 30661.2 1107.28   1
   1   6  -2 32592.3 1276.88   1
   1   6   3 20709.1 841.576   1
  -1   6   3 19523.1 606.023   1
  -1  -6   3 18869.7 1167.87   2
  -1  -6  -3 19911.6 1042.88   2
   1   6  -3 20061.4 1031.26   1
  -1  -6   4 15396.5 1088.34   2
   1   6   4 16404.7 749.883   1
  -1  -6  -4 15270.3 894.090   2
  -1   6   4 16017.9 498.426   1
   1   6  -4 16343.3 970.750   1
  -1  -6   5 31537.8 1584.31   2
  -1  -6  -5 32367.6 1262.78   2
   1   6   5 34686.2 1050.62   1
  -1  -6   6 49155.4 2006.04   2
  -1  -6  -6 51624.3 1529.43   2
  -1  -6  -7 3652.26 385.368   2
  -1  -6   7 3099.31 524.192   2
  -1  -6   8 347.246 191.642   2
  -1  -6  -8 400.627 124.512   2
   1  -6   9 5299.31 705.009   2
  -1  -6   9 6191.95 767.381   2
   1  -6  10 15403.4 1198.27   2
  -1  -6  10 17917.2 1297.43   2
   1  -6  11 78057.8 2739.96   2
  -1  -6  11 73844.1 2649.67   2
   1  -6  12 15210.0 1236.18   2
  -1  -6  12 13408.5 1151.49   2
  -1  -6  13 1763.47 412.755   3
   1  -6  13 1908.86 455.184   2
  -1  -6  13 2198.93 489.136   2
   1  -6  14 8406.22 953.960   2
  -1  -6  14 7979.23 897.831   2
   1  -6  14 8157.77 921.640   3
  -1  -6  14 8102.75 917.073   3
   1  -6  15 2236.02 488.118   3
  -1  -6  15 3101.67 595.946   3
   1  -6  15 2405.97 521.015   2
  -1  -6  15 2258.21 504.744   2
   1  -6  16 17665.8 1407.81   2
  -1  -6  16 16486.2 1346.39   2
   1  -6  17 4396.19 707.294   2
  -2  -6   0 5168.90 579.488   2
  -2   6   0 5700.79 384.691   1
   2   6   0 4993.35 499.454   1
   2   6  -1 126.173 102.881   1
  -2   6   1 38.9314 55.8718   1
   2   6   1 144.364 114.441   1
  -2  -6   1-91.6003 200.731   2
  -2  -6  -1 125.236 154.399   2
  -2   6  -1 36.8410 82.3052   1
   2   6   2 6621.33 534.948   1
  -2   6   2 6422.76 301.422   1
  -2  -6   2 6484.89 677.393   2
  -2  -6  -2 5986.41 593.026   2
   2   6  -2 5940.06 576.475   1
   2   6   3 1034.76 223.682   1
  -2   6   3 752.748 72.0903   1
  -2  -6   3 686.759 267.904   2
  -2  -6  -3 631.644 217.417   2
   2   6  -3 547.477 196.941   1
   2   6   4 433.769 139.817   1
  -2  -6   4 139.043 154.725   2
  -2  -6  -4 231.831 134.170   2
   2   6  -4 349.775 150.696   1
   2   6   5 510.422 151.586   1
  -2  -6   5 349.475 215.198   2
  -2  -6  -5 421.559 168.072   2
   2   6  -5 349.109 180.665   1
  -2  -6   6 8116.29 821.077   2
  -2  -6  -6 6960.47 548.290   2
   2   6   6 7098.55 531.856   1
   2   6  -6 8089.76 750.767   1
  -2  -6   7 473.875 225.718   2
  -2  -6   8 5524.64 698.743   2
  -2  -6   9-105.927 167.507   2
  -2  -6  10-64.1156 216.074   2
   2  -6  11-14.6668 161.554   2
  -2  -6  11-93.4099 195.607   2
  -2  -6  12 1870.26 423.616   3
   2  -6  12 1183.37 342.430   2
  -2  -6  12 1429.02 396.444   2
  -2  -6  13 413.494 200.762   3
   2  -6  13 117.213 159.203   2
  -2  -6  13-75.2319 156.595   2
  -2  -6  14 3102.36 573.021   3
   2  -6  14 2887.83 564.765   2
  -2  -6  14 3420.02 606.707   2
   2  -6  15 24.4155 175.526   3
   2  -6  15-276.333 207.930   2
   2  -6  16 548.769 286.977   2
   3   6   0-144.418 154.612   1
  -3  -6   0 96.8905 128.606   2
  -3   6   0-52.6278 51.4160   1
   3   6   1 12771.5 818.446   1
  -3  -6   1 12119.1 896.980   2
  -3  -6  -1 12456.1 864.117   2
  -3   6   1 13369.8 436.406   1
   3   6  -1 13461.4 869.202   1
   3   6   2 19210.6 985.393   1
  -3  -6   2 19589.6 1171.24   2
  -3  -6  -2 18941.4 1029.12   2
   3   6  -2 17439.3 1029.59   1
   3   6   3 1904.08 318.266   1
  -3  -6   3 1893.41 390.536   2
  -3  -6  -3 1669.71 296.961   2
   3   6  -3 1626.44 354.989   1
   3   6   4 5524.23 532.311   1
  -3  -6   4 4513.74 591.922   2
   3   6  -4 5103.43 595.754   1
   3   6   5 19610.4 968.695   1
  -3  -6   5 19136.2 1232.37   2
   3   6  -5 19734.0 1188.34   1
  -3  -6   6 26169.7 1468.11   2
   3   6   6 28626.1 1163.62   1
   3   6  -6 27344.7 1443.27   1
   3   6   7 2240.20 336.926   1
   3   6  -7 2328.56 448.378   1
  -3  -6   7 2648.69 487.162   2
  -3  -6   8 1099.33 335.018   2
   3   6  -8 1529.26 369.886   1
  -3  -6   9 609.687 245.377   2
  -3  -6  10 6901.06 805.321   2
  -3  -6  10 7520.78 763.428   3
  -3  -6  11 35328.3 1846.23   2
  -3  -6  11 32054.9 1624.69   3
  -3  -6  12 10045.9 949.859   3
  -3  -6  13 114.701 109.203   3
   3  -6  13 299.024 209.552   2
   3  -6  14 7769.63 935.758   2
  -3  -6  14 7186.27 865.792   3
  -3  -6  15 3830.45 653.545   3
   3  -6  15 4685.65 742.538   2
   3  -6  16 10061.9 1085.42   2
   4   6   0 10755.8 816.899   1
   4   6   1 179672. 3246.02   1
  -4   6   1 168535. 1213.67   1
   4   6  -1 176206. 3354.33   1
   4   6   2 11129.5 811.769   1
  -4  -6   2 10777.3 880.527   2
   4   6  -2 10474.0 829.824   1
   4   6   3 21481.9 1116.02   1
  -4  -6   3 20222.2 1218.29   2
   4   6  -3 22187.0 1246.31   1
   4   6   4 27112.1 1236.67   1
  -4  -6   4 27246.3 1446.22   2
   4   6  -4 26831.4 1398.22   1
   4   6   5 356.474 178.434   1
   4   6  -5 153.233 121.524   1
   4   6   6 20242.1 1055.50   1
   4   6  -6 19121.2 1248.22   1
   4   6   7 130806. 2719.04   1
   4   6  -7 122829. 3240.83   1
   4   6  -8 9304.41 930.664   1
   4   6  -9 161393. 3930.90   1
  -4  -6   9 165720. 3447.21   3
   4   6 -10 5912.45 789.161   1
  -4  -6  10 5836.17 664.427   3
  -4  -6  11 3356.84 536.507   3
   4   6 -11 2120.97 505.404   1
  -4  -6  12 894.250 300.328   3
  -4  -6  13 8502.56 915.369   3
  -4  -6  14 2233.82 491.244   3
   4  -6  15 23081.4 1631.44   2
  -4  -6  15 25869.3 1689.98   3
   4  -6  16 8968.32 1022.14   2
   5   6   0-162.729 160.189   1
   5   6  -1 27044.5 1397.46   1
   5   6   1 28526.0 1372.43   1
   5   6  -2 1094.16 303.985   1
   5   6   2 1141.82 288.766   1
   5   6   3 30370.4 1403.62   1
   5   6  -3 30964.9 1520.33   1
   5   6  -4 521.258 225.836   1
   5   6   4 259.014 152.002   1
   5   6   5 24182.9 1241.35   1
   5   6  -5 23963.1 1416.34   1
   5   6   6 27970.7 1331.86   1
   5   6  -6 28996.8 1600.16   1
   5   6   7 3077.13 458.280   1
   5   6  -7 2511.96 510.859   1
  -5  -6   7 2636.13 414.808   3
  -5  -6   8 2100.85 381.458   3
   5   6  -8 1737.32 437.283   1
   5   6  -9 4189.41 659.865   1
  -5  -6   9 4363.75 579.847   3
  -5  -6  10 1618.05 363.132   3
   5   6 -10 1101.54 373.581   1
   5   6 -11 81679.6 3026.45   1
  -5  -6  11 84876.5 2651.85   3
  -5  -6  12 900.660 323.252   3
   5   6 -12 438.336 258.805   1
  -5  -6  13 3042.38 540.834   3
   5   6 -13 3109.20 636.418   1
   5   6 -14 8241.48 1069.75   1
  -5  -6  14 8215.67 928.219   3
  -5  -6  15 2044.23 479.092   3
   5  -6  16 3727.61 688.089   2
   6   6   0-50.1736 122.789   1
   6   6  -1 779.650 241.207   1
   6   6   1 1012.26 303.851   1
   6   6  -2 6678.56 740.617   1
   6   6   2 5917.57 672.028   1
   6   6  -3 3948.11 582.634   1
   6   6   3 4088.79 544.008   1
   6   6  -4 647.623 248.933   1
   6   6   4 468.305 209.023   1
   6   6  -5 2652.41 502.397   1
  -6  -6   5 2083.40 321.787   3
   6   6   5 2245.72 417.437   1
   6   6   6 4033.61 538.531   1
  -6  -6   6 4189.30 490.369   3
   6   6  -6 5378.73 713.702   1
  -6  -6   7 768.198 229.689   3
   6   6   7 669.738 233.668   1
   6   6  -7 508.637 259.285   1
  -6  -6   8 4595.56 554.447   3
   6   6  -8 4692.88 710.269   1
   6   6   8 4219.08 563.285   1
  -6  -6   9 397.487 195.467   3
   6   6  -9-68.2210 248.295   1
  -6  -6  10 125.120 125.558   3
   6   6 -10-99.8905 199.376   1
  -6  -6  11 251.506 220.572   3
   6   6 -11-65.2256 146.593   1
  -6  -6  12 1448.35 379.708   3
   6   6 -12 1225.08 360.534   1
  -6  -6  13 74.1881 123.217   3
   6   6 -13 152.913 197.472   1
  -6  -6  14 1555.73 390.577   3
  -6  -6  15 1102.75 370.229   3
   7   6   0 209.174 191.500   1
   7   6  -1 12138.7 1024.99   1
   7   6   1 12161.9 1009.26   1
   7   6   2 1326.20 347.659   1
   7   6  -2 1274.84 360.283   1
   7   6   3 5374.64 669.365   1
   7   6  -3 4385.61 658.667   1
  -7  -6   3 4199.23 419.821   3
  -7  -6   4 750.413 193.857   3
   7   6  -4 908.059 316.894   1
   7   6   4 344.305 215.318   1
   7   6   5 29166.7 1530.60   1
  -7  -6   5 27211.6 1175.00   3
   7   6  -5 27299.4 1614.19   1
   7   6   6 7614.75 777.540   1
  -7  -6   6 7001.74 622.383   3
   7   6  -6 7015.32 836.731   1
  -7  -6   7 1033.29 238.824   3
   7   6   7 1536.85 356.213   1
   7   6  -7 1421.35 392.441   1
  -7  -6   8 3121.78 449.346   3
   7   6   8 3898.63 561.673   1
   7   6  -8 2566.89 548.348   1
  -7  -6   9 2080.66 403.448   3
   7   6  -9 2802.22 574.557   1
  -7  -6  10 136.371 140.126   3
   7   6 -10 60.5277 224.361   1
   7   6 -11 21541.9 1658.37   1
  -7  -6  11 24093.8 1430.98   3
  -7  -6  12 2406.49 479.438   3
   7   6 -12 1796.51 530.049   1
  -7  -6  13 1724.20 421.347   3
   7   6 -13 2453.62 602.491   1
  -7  -6  14 5388.31 766.313   3
   8   6   0 4546.72 660.862   1
   8   6  -1 65209.7 2482.79   1
   8   6   1 69255.2 2526.08   1
   8   6  -2 8664.26 929.157   1
   8   6   2 7042.73 810.596   1
   8   6  -3 10293.9 1021.41   1
   8   6   3 9985.04 940.487   1
   8   6  -4 16325.1 1296.61   1
   8   6   4 16294.4 1211.69   1
   8   6   5 572.801 255.812   1
   8   6  -5 736.458 311.664   1
   8   6   6 13989.3 1103.59   1
   8   6  -6 10880.3 1094.43   1
   8   6   7 48377.1 2073.90   1
   8   6  -7 43882.6 2203.17   1
   8   6  -8 4936.65 780.287   1
   8   6   8 4684.73 663.140   1
   8   6  -9 88489.7 3293.17   1
  -8  -6   9 85723.5 2477.56   3
  -8  -6  10 3399.51 526.254   3
   8   6 -10 3755.33 694.127   1
  -8  -6  11 1697.01 389.933   3
   8   6 -11 2495.69 586.748   1
  -8  -6  12 97.1203 160.950   3
  -8  -6  13 2129.41 473.110   3
  -8  -6  14 1343.22 371.942   3
   9   6   0 96.8321 216.050   1
   9   6  -1 13102.8 1156.33   1
   9   6   1 14061.9 1197.00   1
   9   6   2 199.175 214.697   1
   9   6  -2 339.166 279.912   1
   9   6  -3 10695.5 1093.70   1
   9   6   3 11825.1 1083.45   1
   9   6  -4 805.877 330.095   1
   9   6   4 441.654 232.770   1
   9   6   5 5807.13 746.565   1
   9   6  -5 4658.77 751.258   1
   9   6   6 20873.0 1429.61   1
   9   6  -6 22144.4 1618.98   1
   9   6  -7 1106.90 378.209   1
   9   6   7 1649.85 413.442   1
   9   6  -8 1013.89 387.233   1
   9   6   8 1052.84 327.088   1
   9   6  -9 155.146 173.928   1
   9   6 -10 585.196 292.443   1
  10   6   0 22826.7 1590.95   1
  10   6   1 480.262 260.215   1
  10   6  -1 547.145 306.312   1
  10   6   2 319.360 257.770   1
  10   6  -2 240.515 254.068   1
  10   6   3 4187.76 701.357   1
  10   6  -3 5389.89 806.835   1
  10   6  -4 102.305 208.768   1
  10   6   4 125.095 155.601   1
  10   6   5 3221.43 583.248   1
  10   6  -5 3071.82 638.885   1
  10   6  -6 1230.78 452.864   1
  10   6   6 695.786 247.987   1
  10   6  -7 1071.45 414.709   1
  10   6   7 1398.93 414.574   1
  10   6  -8 1101.54 410.868   1
  10   6   8 1775.17 455.119   1
  10   6  -9 349.982 327.349   1
  11   6   0-106.344 229.924   1
  11   6  -1 12851.9 1276.81   1
  11   6   1 12063.7 1214.41   1
  11   6   2 2903.39 639.018   1
  11   6  -2 3412.62 658.830   1
  11   6  -3 9456.55 1100.29   1
  11   6   3 10262.8 1118.88   1
  11   6   4 824.495 307.114   1
  11   6  -4 256.945 218.338   1
  11   6  -5 28707.7 1949.98   1
  11   6   5 30217.3 1882.50   1
  11   6  -6 4898.10 824.537   1
  11   6   6 4702.07 757.724   1
  11   6   7 322.041 230.988   1
  11   6   8 189.984 241.915   1
  12   6   0 2673.31 635.668   1
  12   6  -1 49140.3 2580.95   1
  12   6   1 53785.3 2650.06   1
  12   6   2 4735.83 798.176   1
  12   6  -2 6476.44 964.113   1
  12   6   3 6892.41 950.311   1
  12   6   4 6989.85 957.433   1
   0   7   0 37.9264 82.3566   1
   0  -7   0-142.654 113.527   2
   0  -7  -1-76.5419 156.678   2
   0  -7   1 25.7764 155.393   2
   0   7   1 48.7188 64.7331   1
   0   7  -1 94.3678 93.6901   1
   0  -7  -2 30.1424 115.995   2
   0  -7   2-48.3439 152.996   2
   0   7   2 70.6489 80.3864   1
   0   7  -2 125.635 151.945   1
   0   7   3-45.1801 59.2262   1
   0  -7  -3-88.6086 120.937   2
   0  -7   3-67.5296 150.246   2
   0   7  -3 86.3769 101.937   1
   0  -7  -4 43.9310 98.6527   2
   0  -7   4 137.998 176.581   2
   0   7  -4-65.4803 129.917   1
   0  -7  -5-69.2402 107.457   2
   0  -7   5 61.4629 139.090   2
   0  -7   6-209.336 173.443   2
   0  -7  -6 161.321 108.344   2
   0  -7   7 41.9022 153.085   2
   0  -7  -7 79.3757 92.8612   2
   0  -7   8-54.4066 172.812   2
   0  -7   9 48.0246 185.439   2
   0  -7  10-22.4808 188.371   2
   0  -7  11 157.521 178.940   2
   0  -7  12 406.589 231.666   2
   0  -7  13 367.424 298.600   2
   0  -7  14 191.252 214.696   2
   0  -7  14-69.1281 184.829   3
   0  -7  15 57.3885 174.140   2
   0  -7  16 63.9726 222.555   2
  -1   7   0-40.9979 89.4717   1
   1   7   0-87.2441 124.319   1
  -1  -7   0 159.001 176.441   2
  -1   7   1 16143.4 717.520   1
   1   7   1 14975.2 832.241   1
  -1  -7   1 15287.9 1106.93   2
  -1  -7  -1 15692.0 1068.57   2
  -1   7  -1 15252.0 792.173   1
   1   7  -1 15179.6 873.639   1
   1   7   2 6439.36 524.631   1
  -1   7   2 5797.48 393.102   1
  -1  -7  -2 5180.46 611.399   2
  -1  -7   2 5236.66 672.981   2
  -1   7  -2 5305.26 493.834   1
   1   7  -2 5792.79 568.946   1
   1   7   3 15736.0 794.165   1
  -1  -7   3 15891.6 1177.26   2
  -1  -7  -3 14752.2 997.192   2
  -1   7  -3 15604.3 898.313   1
   1   7  -3 16396.1 1003.61   1
   1   7   4 5551.21 460.687   1
  -1  -7  -4 4644.42 544.251   2
  -1  -7   4 4553.75 644.847   2
   1   7  -4 5630.25 608.174   1
  -1  -7  -5 4398.66 522.976   2
   1   7   5 4165.61 384.876   1
  -1  -7   5 3506.37 587.656   2
   1   7  -5 4689.69 579.844   1
  -1  -7   6 65458.6 2505.23   2
  -1  -7  -6 71472.4 2005.20   2
   1   7  -6 66948.3 2217.97   1
   1  -7   7 448.415 226.482   2
  -1  -7   7 370.832 227.103   2
  -1  -7  -7 284.029 118.920   2
   1  -7   8 2707.98 536.847   2
  -1  -7   8 3355.48 609.695   2
   1  -7   9 8015.15 920.063   2
  -1  -7   9 7888.20 916.682   2
   1  -7  10 5483.18 774.624   2
  -1  -7  10 3985.39 664.433   2
   1  -7  11 15897.1 1328.50   2
  -1  -7  11 13892.5 1257.34   2
   1  -7  12 2539.11 558.085   2
  -1  -7  12 3300.30 618.958   2
   1  -7  13 689.967 315.927   2
  -1  -7  13 999.742 337.282   2
  -1  -7  13 1059.33 343.632   3
   1  -7  14 11483.2 1202.72   2
  -1  -7  14 11224.0 1159.52   2
  -1  -7  14 8730.17 974.749   3
   1  -7  15 1872.18 513.694   2
  -1  -7  15 1248.51 406.808   2
   1  -7  16 2380.84 557.286   2
  -1  -7  16 2332.75 548.250   2
  -2   7   0 1949.12 249.646   1
   2   7   0 1951.98 327.050   1
  -2  -7   0 1967.18 405.367   2
   2   7   1 14135.4 858.812   1
  -2  -7   1 13384.3 1045.20   2
  -2  -7  -1 14110.5 1017.15   2
  -2   7  -1 14116.2 719.296   1
   2   7  -1 14611.1 914.515   1
   2   7   2 220348. 3297.52   1
  -2  -7   2 218181. 4274.50   2
  -2  -7  -2 217100. 3888.16   2
  -2   7  -2 214785. 3018.73   1
   2   7  -2 211764. 3611.75   1
   2   7   3 6443.49 558.578   1
  -2  -7   3 6483.18 740.037   2
  -2  -7  -3 6803.76 670.218   2
   2   7  -3 6035.29 628.319   1
   2   7   4 21266.7 994.565   1
  -2  -7   4 20493.0 1356.34   2
  -2  -7  -4 19410.8 1096.53   2
   2   7  -4 20084.9 1185.60   1
   2   7   5 3619.34 406.139   1
  -2  -7   5 3042.13 552.061   2
  -2  -7  -5 3135.84 440.627   2
   2   7  -5 3243.92 495.308   1
  -2  -7   6 61666.0 2421.83   2
  -2  -7  -6 64204.0 1844.88   2
   2   7   6 64252.8 1663.85   1
   2   7  -6 59810.3 2170.70   1
  -2  -7   7 10461.1 1023.13   2
  -2  -7  -7 11819.3 764.045   2
   2   7  -7 10293.2 932.366   1
  -2  -7   8 92748.9 3064.20   2
   2   7  -8 86746.3 2758.19   1
  -2  -7   9 35465.2 1916.34   2
   2  -7  10 17048.0 1354.94   2
  -2  -7  10 17251.4 1352.59   2
   2  -7  11 828.929 328.572   2
  -2  -7  11 1390.85 432.240   2
   2  -7  12 2339.81 525.011   2
  -2  -7  12 1786.55 466.241   2
  -2  -7  12 2981.94 546.099   3
   2  -7  13 7987.53 999.318   2
  -2  -7  13 6129.00 862.094   2
  -2  -7  13 6505.15 808.612   3
   2  -7  14 30100.2 1931.07   2
  -2  -7  14 26179.1 1766.42   2
  -2  -7  14 28096.6 1758.19   3
   2  -7  15 184.755 244.132   2
   2  -7  16 28676.6 1921.52   2
   3   7   0 195.020 150.422   1
  -3  -7   0-256.462 165.502   2
   3   7   1 10908.9 800.755   1
  -3  -7   1 10123.0 893.293   2
  -3  -7  -1 10992.7 889.023   2
  -3   7  -1 10911.3 594.491   1
   3   7  -1 10978.5 843.051   1
   3   7   2 10566.0 776.241   1
  -3  -7   2 10036.9 916.969   2
  -3  -7  -2 9892.02 819.965   2
   3   7  -2 9167.14 778.347   1
   3   7   3 2152.19 342.178   1
  -3  -7   3 1878.10 413.848   2
  -3  -7  -3 1838.29 355.976   2
   3   7  -3 1540.48 334.732   1
   3   7   4 5186.60 534.864   1
  -3  -7  -4 4792.44 542.017   2
  -3  -7   4 4212.57 621.277   2
   3   7  -4 5284.55 637.559   1
   3   7   5-361.090 157.981   1
  -3  -7   5-98.4333 179.820   2
   3   7  -5-33.1906 135.911   1
  -3  -7   6 66458.5 2505.25   2
   3   7   6 68076.1 1875.73   1
   3   7  -6 63487.3 2313.83   1
   3   7   7 354.884 182.547   1
  -3  -7   7 484.757 248.605   2
   3   7  -7 187.250 132.425   1
  -3  -7   8 1410.24 384.292   2
   3   7  -8 1043.39 353.379   1
   3   7  -9 1392.83 397.867   1
  -3  -7   9 978.121 327.106   2
  -3  -7  10 3025.06 571.008   2
   3   7 -10 2909.08 554.380   1
  -3  -7  11 4646.84 740.755   2
  -3  -7  11 5517.78 705.265   3
  -3  -7  12 3868.46 610.037   3
   3  -7  12 4111.47 705.225   2
  -3  -7  13 416.813 230.898   3
   3  -7  13 250.350 295.672   2
   3  -7  14 18003.7 1503.76   2
  -3  -7  14 15775.7 1322.48   3
   3  -7  15 1996.87 541.623   2
   3  -7  16 4416.14 762.066   2
   4   7   0 10112.6 840.066   1
   4   7  -1 7262.03 733.307   1
   4   7   1 7237.98 699.751   1
  -4  -7   1 7264.15 762.686   2
   4   7  -2 4641.40 596.525   1
  -4  -7   2 4476.62 611.809   2
   4   7   2 4226.22 537.885   1
   4   7  -3-201.048 160.506   1
   4   7   3 304.824 177.787   1
  -4  -7   3 81.0271 139.515   2
   4   7   4 218.202 123.275   1
  -4  -7   4 397.289 194.398   2
   4   7  -4 524.877 194.514   1
   4   7   5 1931.64 352.253   1
  -4  -7   5 1139.88 353.839   2
   4   7  -5 1341.06 346.670   1
  -4  -7   6 3812.53 618.218   2
   4   7  -6 4038.57 612.441   1
   4   7   6 3079.75 439.059   1
   4   7   7 2332.59 391.654   1
   4   7  -7 1607.18 407.884   1
   4   7  -8 14753.2 1220.38   1
   4   7  -9 3215.91 609.013   1
  -4  -7  10-5.78798 156.550   3
   4   7 -10 347.380 181.776   1
  -4  -7  11-24.3300 122.863   3
   4   7 -11 137.081 148.773   1
  -4  -7  12 1171.77 340.555   3
   4   7 -12 504.546 295.411   1
  -4  -7  13 1586.82 393.121   3
   4   7 -13 2469.69 570.698   1
  -4  -7  14 1550.76 415.507   3
   4  -7  14 1429.14 436.167   2
   4  -7  15 666.193 289.141   2
   5   7   0 59.8630 121.422   1
   5   7  -1 3989.92 562.375   1
   5   7   1 4289.59 571.853   1
   5   7   2 16540.2 1110.66   1
   5   7  -2 15785.8 1143.05   1
   5   7  -3 3355.55 540.540   1
   5   7   3 4066.92 543.564   1
   5   7   4 20043.9 1197.41   1
   5   7  -4 22546.6 1387.27   1
   5   7   5 705.120 230.041   1
   5   7  -5 1094.46 335.216   1
   5   7   6 67308.1 2138.53   1
   5   7  -6 64873.0 2500.21   1
   5   7   7 558.809 211.531   1
   5   7  -7 388.870 252.861   1
  -5  -7   8 9299.75 836.961   3
   5   7  -8 7271.48 885.754   1
  -5  -7   9 773.104 258.637   3
   5   7  -9 927.723 331.931   1
   5   7 -10 17654.4 1440.91   1
  -5  -7  10 17974.7 1243.43   3
  -5  -7  11 2733.03 515.504   3
   5   7 -11 3357.98 662.117   1
   5   7 -12 8455.35 1063.57   1
  -5  -7  12 9772.85 987.278   3
  -5  -7  13 138.568 180.293   3
   5   7 -13 532.261 360.169   1
  -5  -7  14 6423.87 842.507   3
   6   7   0 1857.72 406.078   1
   6   7  -1 19478.7 1299.12   1
   6   7   1 18826.8 1246.39   1
   6   7  -2 185176. 4076.22   1
   6   7   2 183848. 3867.25   1
   6   7  -3 6233.30 764.791   1
   6   7   3 6044.71 708.434   1
   6   7   4 20111.3 1270.78   1
   6   7  -4 19420.9 1362.57   1
   6   7  -5 438.758 246.815   1
   6   7   5 240.511 176.142   1
   6   7   6 64034.1 2217.89   1
  -6  -7   6 58401.9 1931.99   3
   6   7  -6 58928.9 2466.47   1
   6   7   7 20132.4 1244.94   1
  -6  -7   7 20489.6 1188.41   3
   6   7  -7 17475.6 1379.97   1
   6   7   8 84100.3 2580.87   1
  -6  -7   8 80277.7 2433.20   3
   6   7  -8 79752.7 3001.22   1
   6   7  -9 30799.9 1917.53   1
  -6  -7   9 32449.0 1602.58   3
   6   7 -10 14929.1 1373.25   1
  -6  -7  10 13821.4 1097.09   3
  -6  -7  11 500.890 237.093   3
   6   7 -11 458.183 304.784   1
  -6  -7  12 4120.14 642.183   3
   6   7 -12 2652.69 617.762   1
  -6  -7  13 10089.7 1032.99   3
   7   7   0-204.105 194.609   1
   7   7   1 6593.03 781.184   1
   7   7  -1 5633.07 741.870   1
   7   7  -2 29509.5 1699.69   1
   7   7   2 28219.9 1593.46   1
   7   7   3-13.7414 167.007   1
   7   7  -3 186.448 182.954   1
   7   7   4 13684.8 1105.69   1
   7   7  -4 15570.1 1266.50   1
   7   7   5 1582.54 383.976   1
   7   7  -5 931.536 364.861   1
   7   7   6 69553.6 2428.97   1
   7   7  -6 66716.5 2699.83   1
   7   7  -7 173.513 185.457   1
   7   7   7 230.092 189.273   1
   7   7  -8 2162.46 522.417   1
   7   7   8 1657.82 406.865   1
  -7  -7   9 340.115 182.510   3
   7   7  -9 311.190 236.638   1
   7   7 -10 9030.68 1102.25   1
  -7  -7  10 8857.19 865.104   3
  -7  -7  11 862.884 278.088   3
   7   7 -11 1877.03 528.118   1
  -7  -7  12 10725.7 1031.52   3
  -7  -7  13-142.812 141.641   3
   8   7   0 180.177 175.722   1
   8   7  -1 192.999 207.702   1
   8   7   1 295.979 227.349   1
   8   7   2-11.4225 235.980   1
   8   7  -2 234.991 151.028   1
   8   7   3 142.584 155.422   1
   8   7  -3 172.388 180.166   1
   8   7  -4 2691.85 564.750   1
   8   7   4 3404.45 597.298   1
   8   7   5 368.007 198.822   1
   8   7  -5 172.950 186.039   1
   8   7  -6 335.736 201.938   1
   8   7   6 209.577 162.169   1
   8   7  -7 2304.13 536.259   1
   8   7   7 1339.80 389.351   1
   8   7   8 6875.61 824.755   1
   8   7  -8 7585.68 991.900   1
   8   7  -9 288.315 285.691   1
   8   7 -10-157.430 260.176   1
   9   7   0-539.137 286.215   1
   9   7   1 481.754 242.482   1
   9   7  -1 699.883 271.350   1
   9   7  -2 8224.79 982.201   1
   9   7   2 7741.92 917.456   1
   9   7   3-2.56097 247.265   1
   9   7  -3 217.259 194.479   1
   9   7  -4 12441.4 1235.79   1
   9   7   4 12519.3 1173.86   1
   9   7   5 229.963 212.520   1
   9   7  -5-156.381 209.722   1
   9   7   6 34229.9 1886.95   1
   9   7  -6 28850.0 1949.67   1
   9   7  -7 655.567 356.645   1
   9   7   7 592.324 303.444   1
   9   7  -8 5157.63 848.010   1
   9   7   8 5715.12 774.023   1
  10   7   0 3826.60 713.133   1
  10   7   1 8899.84 1048.87   1
  10   7  -1 8104.32 1010.03   1
  10   7  -2 102129. 3570.28   1
  10   7   2 103482. 3485.38   1
  10   7   3 3524.43 666.062   1
  10   7  -3 2467.15 574.303   1
  10   7  -4 12727.7 1309.10   1
  10   7   4 12157.5 1204.29   1
  10   7   5 259.605 189.517   1
  10   7  -5 349.226 320.701   1
  10   7  -6 29654.0 2041.49   1
  10   7   6 33274.9 1952.87   1
  10   7   7 10170.1 1084.23   1
  10   7   8 41425.3 2203.80   1
  11   7   0-918.946 392.077   1
  11   7   1 8758.29 1072.26   1
  11   7  -1 8521.93 1078.20   1
  11   7  -2 19579.1 1646.31   1
  11   7   2 17756.4 1513.64   1
  11   7   3 2481.21 544.483   1
  11   7   4 5382.34 826.139   1
  11   7   5 68.0423 247.822   1
   0  -8   0 35721.2 1779.45   2
   0  -8   1 13505.4 1116.07   2
   0  -8  -1 17101.4 1204.09   2
   0   8  -1 15708.7 898.155   1
   0  -8   2 37591.0 1878.82   2
   0  -8  -2 40125.7 1811.77   2
   0   8  -2 37946.3 1473.23   1
   0  -8   3 9939.29 990.814   2
   0  -8  -3 11707.2 956.780   2
   0   8  -3 11763.7 859.194   1
   0  -8   4 2176.00 482.030   2
   0  -8  -4 2312.59 430.735   2
   0   8  -4 2252.55 400.139   1
   0  -8   5 3716.03 621.441   2
   0  -8  -5 3289.25 495.442   2
   0   8  -5 3386.61 502.037   1
   0  -8   6 83803.3 3014.73   2
   0  -8  -6 78190.0 2330.46   2
   0   8  -6 80568.8 2499.00   1
   0  -8   7 48988.7 2345.64   2
   0   8  -7 48107.3 2003.74   1
   0  -8   8 46708.2 2330.25   2
   0  -8   9 13073.2 1254.72   2
   0  -8  10 9307.81 1082.69   2
   0  -8  11 379.678 263.879   2
   0  -8  12 2610.20 617.093   2
   0  -8  13 1137.57 429.858   2
   1   8   0 188.629 140.793   1
  -1  -8   0 45.2743 104.787   2
   1   8  -1 153.735 136.276   1
  -1  -8   1-153.936 147.980   2
  -1  -8  -1 49.1524 163.041   2
   1   8   1-118.050 96.9965   1
  -1  -8   2 21782.8 1452.68   2
  -1  -8  -2 22087.9 1354.85   2
  -1   8  -2 24335.2 1114.65   1
   1   8  -2 23182.5 1196.98   1
  -1  -8  -3 5420.02 652.696   2
  -1  -8   3 5274.51 737.057   2
  -1   8  -3 6608.44 634.317   1
   1   8  -3 5657.88 624.414   1
  -1  -8   4 49741.9 2258.70   2
  -1  -8  -4 48544.5 1929.59   2
  -1   8  -4 47322.3 1720.90   1
   1   8  -4 45328.6 1811.39   1
   1  -8   5 39023.1 2022.78   2
  -1  -8   5 39477.4 2049.18   2
  -1  -8  -5 40610.7 1711.72   2
  -1   8  -5 37646.3 1606.95   1
   1   8  -5 38302.4 1736.55   1
   1  -8  -6 15577.1 1049.53   2
   1  -8   6 18265.9 1408.91   2
  -1  -8   6 17091.3 1376.09   2
  -1  -8  -6 19860.5 1155.40   2
   1   8  -6 18088.5 1230.49   1
   1  -8   7 671.587 323.443   2
  -1  -8   7 298.750 217.363   2
   1   8  -7 381.890 174.753   1
   1  -8   8 1486.02 415.783   2
  -1  -8   8 1333.12 401.604   2
   1   8  -8 834.629 277.090   1
   1  -8   9 1143.45 397.667   2
  -1  -8   9 2831.20 615.453   2
   1  -8  10 7463.79 975.502   2
  -1  -8  10 6794.68 923.392   2
   1  -8  11 15150.6 1398.68   2
  -1  -8  11 15891.3 1413.22   2
   1  -8  12 12917.4 1303.64   2
  -1  -8  12 10678.5 1176.50   2
   1  -8  13 1172.78 421.681   2
  -1  -8  13 807.341 389.767   2
   2   8   0 911.148 296.600   1
  -2  -8   0 631.510 223.822   2
   2   8   1 4854.93 539.455   1
  -2  -8   1 4106.71 625.670   2
  -2  -8  -1 4932.25 652.159   2
   2   8  -1 5233.96 589.481   1
   2   8  -2 205.466 149.964   1
  -2  -8   2-112.236 243.595   2
   2   8   2-222.190 141.557   1
   2   8  -3 160.638 193.192   1
  -2  -8   3 180.245 162.164   2
  -2  -8  -3 176.324 145.692   2
  -2  -8   4 274.911 194.690   2
  -2   8  -4 145.533 141.494   1
  -2  -8  -4 224.214 200.370   2
   2   8  -4 136.604 122.363   1
  -2  -8   5 2440.53 531.008   2
  -2  -8  -5 1902.81 379.336   2
   2   8  -5 1705.05 399.463   1
  -2  -8   6-177.998 182.362   2
  -2  -8  -6-402.532 168.283   2
   2   8  -6-19.5274 189.098   1
  -2  -8   7 3466.41 632.679   2
   2   8  -7 4460.21 656.724   1
  -2  -8   8-152.448 235.940   2
   2   8  -8 62.6880 154.895   1
   2  -8   9 667.576 317.507   2
  -2  -8   9 383.567 291.355   2
   2   8  -9 514.793 264.683   1
   2  -8  10-17.2558 210.306   2
   2   8 -10 562.424 286.296   1
  -2  -8  10 110.886 132.734   2
   2  -8  11 107.305 174.814   2
  -2  -8  11 41.5035 161.787   2
   2   8 -11 90.8291 136.853   1
   2  -8  12 268.614 266.344   2
  -2  -8  12-561.412 305.561   2
   2  -8  13 2868.57 631.934   2
   3   8   0-202.005 150.403   1
  -3  -8   0 39.2838 125.337   2
  -3  -8   1 502.849 257.548   2
  -3  -8  -1-32.8015 182.071   2
   3   8   1 148.227 142.816   1
   3   8   2 17989.8 1075.12   1
  -3  -8   2 18406.2 1320.81   2
  -3  -8  -2 18001.9 1204.02   2
   3   8  -2 19629.9 1230.37   1
   3   8  -3 229.532 189.790   1
   3   8   3 156.033 136.538   1
  -3  -8   3-29.6323 156.048   2
  -3  -8  -3 391.833 226.557   2
   3   8   4 32743.3 1405.50   1
  -3  -8   4 29600.1 1730.29   2
  -3  -8  -4 30800.4 1515.68   2
   3   8  -4 31439.1 1613.35   1
  -3  -8   5 22979.5 1554.24   2
   3   8  -5 25709.3 1505.63   1
  -3  -8   6 9524.03 1018.09   2
   3   8  -6 10658.5 1006.45   1
  -3  -8   7 80.4992 174.376   2
   3   8  -7 866.866 317.155   1
  -3  -8   8 1664.10 437.434   2
   3   8  -8 885.001 334.878   1
  -3  -8   9 1889.81 504.923   2
   3   8  -9 1617.07 430.381   1
   3   8 -10 3906.14 705.032   1
  -3  -8  10 5218.63 813.333   2
   3  -8  11 7435.33 980.541   2
  -3  -8  11 9336.00 1083.97   2
   3   8 -11 7371.57 967.225   1
   3  -8  12 8184.38 1044.03   2
   3   8 -12 8237.88 1044.89   1
  -3  -8  12 10101.3 1044.97   3
   4   8   0 21728.7 1292.70   1
   4   8  -1 16512.6 1156.98   1
   4   8   1 17832.4 1143.08   1
  -4  -8   1 15998.5 1219.76   2
   4   8   2 31002.8 1496.71   1
  -4  -8   2 29791.8 1698.67   2
   4   8  -2 28802.0 1555.21   1
   4   8   3 8183.62 759.852   1
  -4  -8   3 8807.23 941.302   2
   4   8  -3 8094.05 837.275   1
   4   8  -4 941.547 316.824   1
   4   8   4 1217.20 298.573   1
  -4  -8   4 1865.84 457.194   2
   4   8   5 4711.58 553.317   1
  -4  -8   5 4647.17 711.081   2
   4   8  -5 3615.48 586.112   1
  -4  -8   6 58908.7 2534.80   2
   4   8  -6 53383.2 2302.03   1
   4   8  -7 40693.7 2069.31   1
   4   8  -8 30876.3 1852.21   1
   4   8  -9 9368.03 1057.99   1
   4   8 -10 6469.48 893.115   1
  -4  -8  10 6663.88 804.468   3
  -4  -8  11 537.141 229.123   3
   4   8 -11-68.3206 139.204   1
  -4  -8  12 703.517 308.236   3
   4   8 -12 750.597 350.231   1
   5   8   0 235.001 199.666   1
   5   8  -1 2501.29 484.949   1
   5   8   1 2638.98 480.694   1
   5   8  -2 16615.9 1232.04   1
   5   8   2 17185.2 1183.02   1
   5   8  -3 248.241 209.266   1
   5   8   3 47.8704 152.742   1
   5   8   4 45355.3 1881.49   1
   5   8  -4 44166.7 2063.73   1
   5   8   5 9810.96 859.529   1
   5   8  -5 8304.07 906.816   1
   5   8   6 23182.7 1306.98   1
   5   8  -6 20211.1 1463.17   1
   5   8  -7 301.112 189.582   1
   5   8  -8 880.353 303.871   1
  -5  -8   9 1914.98 414.956   3
   5   8  -9 1497.84 453.017   1
  -5  -8  10 5992.84 750.363   3
   5   8 -10 7103.55 946.849   1
  -5  -8  11 576.899 259.112   3
   5   8 -11 1603.95 517.245   1
  -5  -8  12 7809.32 907.008   3
   6   8   0 3402.33 562.237   1
   6   8  -1 1242.73 375.434   1
   6   8   1 2489.50 492.992   1
   6   8   2 302.938 227.909   1
   6   8  -2 175.885 169.443   1
   6   8  -3 464.554 222.476   1
   6   8   3 599.765 273.863   1
   6   8  -4 284.071 170.516   1
   6   8   4 692.332 269.063   1
   6   8   5 1099.92 317.628   1
   6   8  -5 829.166 347.211   1
   6   8  -6 354.407 282.478   1
   6   8   6 464.390 236.503   1
   6   8  -7 1325.91 428.311   1
   6   8   7 1154.47 312.920   1
  -6  -8   8 48.4153 134.761   3
   6   8  -8 170.251 153.664   1
  -6  -8   9-128.183 143.714   3
   6   8  -9 178.759 133.189   1
  -6  -8  10 969.246 297.380   3
   6   8 -10 1369.95 441.374   1
  -6  -8  11 84.8888 121.293   3
  -6  -8  12 498.183 273.311   3
   7   8   0 5.63788 160.499   1
   7   8  -1 731.671 292.278   1
   7   8   1 446.887 237.099   1
   7   8  -2 15662.2 1299.52   1
   7   8   2 18378.8 1353.46   1
   7   8  -3 7946.39 950.861   1
   7   8   3 9431.90 963.854   1
   7   8  -4 20980.5 1560.11   1
   7   8   4 25009.2 1562.03   1
   7   8   5 4514.75 663.861   1
   7   8  -5 4373.96 747.625   1
   7   8  -6 6579.43 903.931   1
   7   8   6 6260.43 761.102   1
   7   8  -7 448.299 335.480   1
   7   8   7 281.060 175.637   1
   7   8  -8 860.093 323.421   1
   7   8   8 613.336 274.412   1
   7   8  -9 168.783 173.948   1
   8   8   0 10077.8 1076.92   1
   8   8  -1 12287.9 1186.72   1
   8   8   1 10795.6 1105.47   1
   8   8  -2 18355.9 1473.79   1
   8   8   2 18925.1 1421.50   1
   8   8   3 4253.70 686.315   1
   8   8  -3 3750.23 682.417   1
   8   8  -4 483.276 308.508   1
   8   8   4 300.167 185.705   1
   8   8   5 3698.82 619.061   1
   8   8  -5 3879.32 716.294   1
   8   8   6 27950.7 1691.24   1
   8   8  -6 29512.6 1970.68   1
   8   8   7 22642.0 1526.37   1
   8   8  -7 22657.7 1753.11   1
   8   8   8 19427.9 1420.62   1
   9   8   0-813.419 357.625   1
   9   8   1 1227.61 383.826   1
   9   8  -1 2072.36 547.668   1
   9   8   2 6883.84 907.934   1
   9   8  -2 6451.81 923.587   1
   9   8   3 185.263 225.366   1
   9   8  -3-876.470 369.788   1
   9   8  -4 20342.3 1659.41   1
   9   8   4 21854.3 1588.88   1
   9   8   5 4825.74 757.054   1
   9   8  -5 5596.87 892.275   1
   9   8   6 14290.3 1275.22   1
   9   8   7-117.634 271.866   1
   9   8   8 828.811 325.068   1
  10   8   0 5178.89 843.570   1
  10   8   1 3751.56 727.823   1
  10   8  -1 4254.71 762.211   1
  10   8   2 657.963 300.143   1
  10   8   3 2955.86 614.705   1
  10   8   4 1010.94 395.503   1
  10   8   5 1445.60 441.500   1
   0  -9   0 84.5546 89.9296   2
   0  -9   1-93.7290 136.009   2
   0  -9  -1 48.9852 145.347   2
   0  -9   2 3.49026 146.561   2
   0  -9  -2 233.641 185.150   2
   0  -9   3-85.1946 211.314   2
   0  -9  -3-59.7181 131.419   2
   0  -9   4 111.280 238.427   2
   0  -9  -4-468.298 232.107   2
   0  -9   5-146.205 177.733   2
   0  -9  -5-441.065 222.772   2
   0  -9   6 380.974 218.172   2
   0   9  -6-461.360 207.223   1
   0  -9   7-70.9164 113.099   2
   0   9  -7 56.9347 148.298   1
   0  -9   8-450.611 265.342   2
   0   9  -8-892.586 310.822   1
   0  -9   9 185.755 154.783   2
   0   9  -9 228.899 169.490   1
   0   9 -10-243.951 206.808   1
   1  -9   0 38.7985 150.190   2
  -1  -9   0 330.652 187.851   2
   1  -9  -1 562.436 224.871   2
   1  -9   1 655.128 248.253   2
  -1  -9   1 826.885 321.044   2
  -1  -9  -1 1219.38 377.260   2
   1  -9  -2 4963.77 699.107   2
   1  -9   2 6249.19 826.253   2
  -1  -9   2 5363.58 760.947   2
  -1  -9  -2 5023.98 703.456   2
   1  -9  -3 31853.5 1720.42   2
   1  -9   3 34650.5 1965.05   2
  -1  -9   3 33132.2 1949.41   2
  -1  -9  -3 32619.8 1733.29   2
   1  -9  -4 38975.5 1857.45   2
   1  -9   4 40411.6 2152.15   2
  -1  -9   4 39388.1 2148.26   2
  -1  -9  -4 41253.1 1903.07   2
   1   9  -4 40260.9 1788.24   1
   1  -9   5 5193.32 784.983   2
   1  -9  -5 4691.96 635.725   2
  -1  -9   5 5508.22 824.246   2
  -1  -9  -5 4535.56 615.267   2
   1   9  -5 4558.64 628.980   1
   1  -9   6 2245.11 559.383   2
  -1  -9   6 2385.36 552.891   2
   1   9  -6 2420.14 558.629   1
   1  -9   7 701.883 334.629   2
  -1  -9   7 499.547 298.592   2
   1   9  -7 1428.64 400.495   1
   1  -9   8 4147.85 759.038   2
  -1  -9   8 5118.18 829.954   2
  -1   9  -8 3989.28 625.477   1
   1   9  -8 3948.28 651.799   1
   1  -9   9-268.061 251.124   2
  -1  -9   9-241.875 286.767   2
   1   9  -9 92.7572 202.292   1
   1   9 -10 2556.64 549.632   1
   1   9 -11 4945.30 784.076   1
   1   9 -12 4906.58 802.357   1
  -2  -9   0 519.052 243.120   2
  -2  -9   1 52526.6 2342.87   2
  -2  -9  -1 55866.4 2353.50   2
  -2  -9   2 2472.54 525.777   2
  -2  -9  -2 3237.73 566.581   2
   2   9  -3 2793.95 467.000   1
  -2  -9   3 2625.25 563.201   2
  -2  -9  -3 3448.11 569.552   2
   2   9  -4 664.810 268.641   1
  -2  -9   4 1013.11 384.254   2
  -2  -9  -4 1749.91 402.611   2
  -2  -9   5 5328.59 806.754   2
   2   9  -5 6216.25 746.407   1
   2  -9   6 3356.20 642.483   2
  -2  -9   6 3095.68 632.138   2
   2   9  -6 3748.54 609.477   1
   2  -9   7 46935.4 2421.85   2
  -2  -9   7 46111.7 2401.48   2
   2   9  -7 42965.5 2103.59   1
  -2  -9   8-242.484 213.872   2
   2   9  -8 111.458 226.254   1
   2  -9   9 26754.9 1893.86   2
  -2  -9   9 27816.8 1936.07   2
   2   9  -9 26193.4 1735.34   1
   2   9 -10 11700.3 1184.62   1
   2   9 -11 5518.77 834.135   1
  -3  -9   0 67.5287 117.971   2
   3   9  -1 613.357 237.795   1
  -3  -9   1 1025.02 314.828   2
  -3  -9  -1 354.528 180.133   2
   3   9  -2 611.267 289.705   1
  -3  -9   2 591.290 254.514   2
  -3  -9  -2 1024.60 340.499   2
  -3  -9   3 32854.3 1912.51   2
  -3  -9  -3 34723.9 1769.99   2
   3   9  -3 32367.0 1684.23   1
  -3  -9   4 25702.1 1721.96   2
   3   9  -4 26024.0 1537.91   1
  -3  -9   5 13381.1 1256.82   2
   3   9  -5 12900.7 1114.98   1
  -3  -9   6 1241.45 389.430   2
   3   9  -6 1292.27 385.543   1
  -3  -9   7 768.485 322.339   2
   3   9  -7 792.844 322.736   1
  -3  -9   8 6694.86 934.506   2
   3   9  -8 6091.52 837.422   1
   3   9  -9 741.719 358.230   1
   3   9 -10 741.094 344.600   1
   3   9 -11 8635.97 1071.89   1
   4   9   0 1591.21 397.823   1
   4   9  -1 4700.21 643.727   1
   4   9  -2 2652.79 490.063   1
   4   9  -3 404.936 240.155   1
   4   9  -4 475.388 239.563   1
   4   9  -5 1090.36 311.690   1
   4   9  -6 5495.51 780.558   1
   4   9  -7 1966.42 488.967   1
   4   9  -8 2668.57 589.714   1
   4   9  -9 2429.86 590.861   1
   4   9 -10 171.528 161.546   1
   5   9   0-587.605 259.038   1
   5   9  -1 4399.93 658.809   1
   5   9   1 4142.87 608.614   1
   5   9  -2 1983.85 457.760   1
   5   9  -3 64350.6 2599.05   1
   5   9  -4 12105.4 1154.44   1
   5   9  -5 9005.75 1003.42   1
   5   9  -6-46.1969 162.044   1
   5   9  -7 854.804 339.546   1
   5   9  -8 6171.44 891.314   1
  -5  -9   9 2761.81 517.419   3
   5   9  -9 2926.73 634.179   1
  -5  -9  10 126.932 125.700   3
   6   9   0 825.306 330.270   1
   6   9  -1 39598.8 2044.22   1
   6   9   1 43210.1 2080.20   1
   6   9   2 758.070 269.230   1
   6   9  -2 911.291 344.522   1
   6   9  -3 2645.95 542.070   1
   6   9  -4 621.084 337.148   1
   6   9  -5 4138.03 707.337   1
   6   9  -6 3383.63 669.223   1
   6   9  -7 38146.7 2205.91   1
   6   9  -8 276.046 260.706   1
   7   9   0 14.6347 173.234   1
   7   9   1 2032.35 485.766   1
   7   9  -1 1477.47 448.171   1
   7   9   2 1249.13 372.310   1
   7   9  -2 597.737 286.773   1
   7   9  -3 35387.9 2083.70   1
   7   9   3 32956.2 1860.30   1
   7   9  -4 8160.10 1008.57   1
   7   9  -5 23755.0 1760.42   1
   7   9  -6 327.978 264.614   1
   8   9   0 900.470 365.857   1
   8   9   1-96.2480 186.863   1
   8   9  -1 112.184 162.153   1
   8   9   2 112.396 192.159   1
   8   9  -2-61.0095 322.076   1
   8   9  -3-1441.74 477.961   1
   8   9   3 222.525 196.976   1
   8   9  -4 277.816 221.830   1
   8   9   4-32.4004 132.971   1
   9   9   0 204.288 242.257   1
   9   9   1 4971.63 812.433   1
   9   9   2 819.557 359.132   1
   9   9   3 47676.4 2447.86   1
   9   9   4 2951.52 614.414   1
   9   9   5 7118.90 923.040   1
   0 -10   0 57012.1 2586.64   2
   0 -10   1 18434.6 1503.82   2
   0 -10  -1 16875.0 1386.57   2
   0 -10   2 105.902 169.053   2
   0 -10  -2 214.510 174.733   2
   0 -10   3 2851.28 601.967   2
   0 -10  -3 3211.45 592.187   2
   0 -10   4 4078.38 746.057   2
   0 -10  -4 4569.36 682.017   2
   1 -10   0-272.124 189.486   2
  -1 -10   0-126.783 160.407   2
   1 -10   1 4555.69 741.112   2
   1 -10  -1 4786.37 736.508   2
  -1 -10   1 5076.49 784.401   2
  -1 -10  -1 4399.63 706.913   2
   1 -10   2 33821.5 2041.28   2
   1 -10  -2 33545.1 1911.50   2
  -1 -10   2 34422.7 2059.20   2
  -1 -10  -2 35530.6 1964.85   2
   1 -10   3 15929.7 1429.09   2
   1 -10  -3 14050.5 1219.71   2
  -1 -10   3 14390.7 1349.73   2
  -1 -10  -3 13892.0 1212.12   2
   1 -10  -4 8671.54 948.536   2
   1 -10   4 7797.80 1029.20   2
  -1 -10   4 6849.65 954.995   2
   2 -10   0 3924.80 680.767   2
  -2 -10   0 3560.10 643.129   2
   2 -10  -1 97.5200 156.229   2
   2 -10   1-31.4202 179.845   2
  -2 -10   1 241.880 189.629   2
  -2 -10  -1 418.097 266.483   2
   2 -10  -2 1749.63 449.971   2
   2 -10   2 1336.92 418.098   2
  -2 -10   2 2136.89 535.150   2
  -2 -10  -2 1748.56 435.216   2
   2 -10  -3-9.66459 133.151   2
   2 -10   3 91.7214 180.607   2
  -2 -10   3-173.476 193.907   2
  -2 -10  -3-422.901 223.886   2
   2 -10  -4 108.692 120.433   2
   2 -10   4-26.6729 145.245   2
  -2 -10   4-60.8741 177.994   2
  -3 -10   0-147.991 160.684   2
  -3 -10   1 5727.59 829.657   2
  -3 -10  -1 6369.24 843.174   2
  -3 -10   2 24263.7 1723.19   2
  -3 -10  -2 26686.1 1684.76   2
  -3 -10   3 20293.3 1598.60   2
   3  10  -8 274.091 228.154   1
   3  10  -9 827.420 306.517   1
   4  10  -6 1425.31 427.141   1
   4  10  -7 25403.8 1748.59   1
   4  10  -8 3765.29 715.995   1
   5  10  -5 17350.1 1444.99   1
   5  10  -6-29.8983 221.880   1
   6  10  -3 704.561 349.185   1
   6  10  -4-48.5318 176.880   1
   6  10  -5 451.963 264.819   1
   7  10  -2 7329.84 961.334   1
   7  10  -3 15989.0 1429.81   1
   0 -11  -2 120.652 164.625   2
  -1 -11  -2 10650.2 1125.28   2
   0   0   0    0.00    0.00   0
TITL P160107C in Pbca
REM Pbca (#61, found as Pcab in ba-c setting)
CELL 0.71073  11.930194   8.180699  15.689462  90.0000  90.0000  90.0000
ZERR   22.00   0.000261   0.000164   0.000328   0.0000   0.0000   0.0000
LATT  1
SYMM -x+1/2,-y, z+1/2
SYMM -x, y+1/2,-z+1/2
SYMM  x+1/2,-y+1/2,-z
SFAC C H N O Cu
UNIT 22.00 22.00 22.00 22.00 22.00
TREF
HKLF 4
END
;
_shelx_hkl_checksum              51382
_shelx_shelxl_version_number     2014/7
_olex2_submission_special_instructions 'No special instructions were received'
loop_
_space_group_symop_operation_xyz
'x, y, z'
'-x+1/2, -y, z+1/2'
'x+1/2, -y+1/2, -z'
'-x, y+1/2, -z+1/2'
'-x, -y, -z'
'x-1/2, y, -z-1/2'
'-x-1/2, y-1/2, z'
'x, -y-1/2, z-1/2'
loop_
_atom_site_label
_atom_site_type_symbol
_atom_site_fract_x
_atom_site_fract_y
_atom_site_fract_z
_atom_site_U_iso_or_equiv
_atom_site_adp_type
_atom_site_occupancy
_atom_site_site_symmetry_order
_atom_site_calc_flag
_atom_site_refinement_flags_posn
Mn1 Mn 0.37566(3) 0.38411(5) 0.18612(2) 0.00767(15) Uani 1 1 d .
O3 O 0.55814(15) 0.3485(2) 0.17873(11) 0.0098(4) Uani 1 1 d .
H3A H 0.5860 0.3988 0.1344 0.015 Uiso 1 1 d GR
H3B H 0.5744 0.2447 0.1743 0.015 Uiso 1 1 d GR
O7 O 0.36362(15) 0.2967(2) 0.58438(11) 0.0099(4) Uani 1 1 d .
O4 O 0.38968(15) 0.6017(2) 0.11338(12) 0.0112(4) Uani 1 1 d .
H4A H 0.3758 0.5809 0.0610 0.017 Uiso 1 1 d GR
H4B H 0.4562 0.6402 0.1176 0.017 Uiso 1 1 d GR
O1 O 0.38541(15) 0.5302(2) 0.30770(11) 0.0108(4) Uani 1 1 d .
O5 O 0.18986(15) 0.3998(2) 0.17803(11) 0.0102(4) Uani 1 1 d .
H5A H 0.1701 0.4763 0.1429 0.015 Uiso 1 1 d GR
H5B H 0.1620 0.4218 0.2277 0.015 Uiso 1 1 d GR
O6 O 0.38209(15) 0.6060(2) 0.49546(12) 0.0116(4) Uani 1 1 d .
O8 O 0.36737(15) 0.0278(2) 0.45478(12) 0.0103(4) Uani 1 1 d .
O2 O 0.36508(15) 0.1936(2) 0.28493(12) 0.0106(4) Uani 1 1 d .
C4 C 0.3681(2) 0.3105(3) 0.50483(17) 0.0083(6) Uani 1 1 d .
C3 C 0.3676(2) 0.1794(3) 0.44107(16) 0.0079(5) Uani 1 1 d .
C5 C 0.3767(2) 0.4707(3) 0.46106(17) 0.0087(6) Uani 1 1 d .
C2 C 0.3684(2) 0.2580(3) 0.35781(16) 0.0077(5) Uani 1 1 d .
C1 C 0.3774(2) 0.4332(3) 0.37010(17) 0.0079(5) Uani 1 1 d .
loop_
_atom_site_aniso_label
_atom_site_aniso_U_11
_atom_site_aniso_U_22
_atom_site_aniso_U_33
_atom_site_aniso_U_23
_atom_site_aniso_U_13
_atom_site_aniso_U_12
Mn1 0.0112(2) 0.0066(2) 0.0052(2) -0.00002(15) -0.00025(16) 0.00011(16)
O3 0.0137(10) 0.0062(9) 0.0096(9) 0.0020(7) 0.0005(8) 0.0002(8)
O7 0.0126(10) 0.0121(9) 0.0049(9) 0.0012(8) 0.0002(7) 0.0010(8)
O4 0.0126(10) 0.0124(9) 0.0088(10) 0.0022(8) -0.0005(8) -0.0016(8)
O1 0.0190(11) 0.0073(9) 0.0061(9) 0.0012(7) -0.0005(8) -0.0012(8)
O5 0.0134(10) 0.0103(9) 0.0070(9) 0.0011(8) 0.0011(8) 0.0011(8)
O6 0.0153(10) 0.0088(10) 0.0106(10) -0.0038(8) -0.0004(8) -0.0003(8)
O8 0.0149(10) 0.0066(9) 0.0094(9) 0.0011(8) 0.0019(8) 0.0006(8)
O2 0.0166(10) 0.0083(9) 0.0070(9) -0.0003(8) -0.0006(8) -0.0007(8)
C4 0.0043(12) 0.0114(13) 0.0092(13) -0.0002(11) -0.0007(10) 0.0009(10)
C3 0.0058(12) 0.0094(13) 0.0084(13) 0.0016(11) 0.0004(10) -0.0005(10)
C5 0.0061(13) 0.0101(14) 0.0098(13) -0.0004(11) 0.0003(10) 0.0012(10)
C2 0.0066(12) 0.0093(13) 0.0073(13) 0.0005(11) -0.0002(10) -0.0003(10)
C1 0.0054(12) 0.0095(12) 0.0086(13) 0.0013(11) -0.0009(10) 0.0014(10)
loop_
_atom_type_symbol
_atom_type_description
_atom_type_scat_dispersion_real
_atom_type_scat_dispersion_imag
_atom_type_scat_source
C C 0.0033 0.0016 'International Tables Vol C Tables 4.2.6.8 and 6.1.1.4'
H H 0.0000 0.0000 'International Tables Vol C Tables 4.2.6.8 and 6.1.1.4'
Mn Mn 0.3368 0.7283 'International Tables Vol C Tables 4.2.6.8 and 6.1.1.4'
O O 0.0106 0.0060 'International Tables Vol C Tables 4.2.6.8 and 6.1.1.4'
loop_
_geom_angle_atom_site_label_1
_geom_angle_atom_site_label_2
_geom_angle_atom_site_label_3
_geom_angle
_geom_angle_site_symmetry_1
_geom_angle_site_symmetry_3
O3 Mn1 O1 93.66(7) . .
O3 Mn1 O5 172.38(7) . .
O3 Mn1 O2 90.01(7) . .
O7 Mn1 O3 86.38(7) 8_565 .
O7 Mn1 O1 169.24(7) 8_565 .
O7 Mn1 O5 86.09(7) 8_565 .
O7 Mn1 O2 91.81(7) 8_565 .
O4 Mn1 O3 90.27(7) . .
O4 Mn1 O7 100.41(7) . 8_565
O4 Mn1 O1 90.35(7) . .
O4 Mn1 O5 89.97(7) . .
O4 Mn1 O2 167.77(7) . .
O5 Mn1 O1 93.96(7) . .
O2 Mn1 O1 77.44(7) . .
O2 Mn1 O5 91.37(7) . .
Mn1 O3 H3A 110.9 . .
Mn1 O3 H3B 110.6 . .
H3A O3 H3B 108.0 . .
C4 O7 Mn1 141.87(18) . 8_566
Mn1 O4 H4A 109.5 . .
Mn1 O4 H4B 109.9 . .
H4A O4 H4B 109.1 . .
C1 O1 Mn1 108.55(16) . .
Mn1 O5 H5A 110.4 . .
Mn1 O5 H5B 110.1 . .
H5A O5 H5B 108.5 . .
C2 O2 Mn1 109.97(16) . .
O7 C4 C3 127.8(2) . .
O7 C4 C5 122.9(2) . .
C3 C4 C5 109.3(2) . .
O8 C3 C4 127.2(2) . .
O8 C3 C2 126.1(2) . .
C2 C3 C4 106.8(2) . .
O6 C5 C4 126.4(2) . .
O6 C5 C1 128.0(2) . .
C1 C5 C4 105.5(2) . .
O2 C2 C3 129.0(2) . .
O2 C2 C1 122.4(2) . .
C1 C2 C3 108.5(2) . .
O1 C1 C5 128.7(2) . .
O1 C1 C2 121.6(2) . .
C2 C1 C5 109.7(2) . .
loop_
_geom_bond_atom_site_label_1
_geom_bond_atom_site_label_2
_geom_bond_distance
_geom_bond_site_symmetry_2
Mn1 O3 2.1995(19) .
Mn1 O7 2.1809(18) 8_565
Mn1 O4 2.1214(18) .
Mn1 O1 2.2542(18) .
Mn1 O5 2.2240(19) .
Mn1 O2 2.2016(18) .
O3 H3A 0.8739 .
O3 H3B 0.8738 .
O7 Mn1 2.1809(18) 8_566
O7 C4 1.254(3) .
O4 H4A 0.8551 .
O4 H4B 0.8556 .
O1 C1 1.264(3) .
O5 H5A 0.8659 .
O5 H5B 0.8656 .
O6 C5 1.233(3) .
O8 C3 1.258(3) .
O2 C2 1.260(3) .
C4 C3 1.467(4) .
C4 C5 1.483(4) .
C3 C2 1.456(4) .
C5 C1 1.460(4) .
C2 C1 1.450(4) .
loop_
_geom_torsion_atom_site_label_1
_geom_torsion_atom_site_label_2
_geom_torsion_atom_site_label_3
_geom_torsion_atom_site_label_4
_geom_torsion
_geom_torsion_site_symmetry_1
Mn1 O7 C4 C3 11.5(4) 8_566
Mn1 O7 C4 C5 -167.58(18) 8_566
Mn1 O1 C1 C5 -178.5(2) .
Mn1 O1 C1 C2 2.3(3) .
Mn1 O2 C2 C3 -177.8(2) .
Mn1 O2 C2 C1 0.3(3) .
O7 C4 C3 O8 -3.4(4) .
O7 C4 C3 C2 177.2(2) .
O7 C4 C5 O6 1.1(4) .
O7 C4 C5 C1 -178.9(2) .
O6 C5 C1 O1 1.3(5) .
O6 C5 C1 C2 -179.4(2) .
O8 C3 C2 O2 2.8(4) .
O8 C3 C2 C1 -175.5(2) .
O2 C2 C1 O1 -1.9(4) .
O2 C2 C1 C5 178.7(2) .
C4 C3 C2 O2 -177.7(3) .
C4 C3 C2 C1 4.0(3) .
C4 C5 C1 O1 -178.7(2) .
C4 C5 C1 C2 0.6(3) .
C3 C4 C5 O6 -178.1(2) .
C3 C4 C5 C1 1.9(3) .
C3 C2 C1 O1 176.5(2) .
C3 C2 C1 C5 -2.9(3) .
C5 C4 C3 O8 175.9(2) .
C5 C4 C3 C2 -3.6(3) .
