#------------------------------------------------------------------------------
#$Date: 2019-11-10 00:56:47 +0200 (Sun, 10 Nov 2019) $
#$Revision: 225477 $
#$URL: file:///home/coder/svn-repositories/cod/cif/4/51/53/4515314.cif $
#------------------------------------------------------------------------------
#
# This file is available in the Crystallography Open Database (COD),
# http://www.crystallography.net/
#
# All data on this site have been placed in the public domain by the
# contributors.
#
data_4515314
loop_
_publ_author_name
'Zhang, Yong-Zheng'
'He, Tao'
'Kong, Xiang-Jing'
'Lv, Xiu-Liang'
'Wu, Xue-Qian'
'Li, Jian-Rong'
_publ_section_title
;
 Tuning Water Sorption in Highly Stable Zr(IV)-Metal-Organic Frameworks
 through Local Functionalization of Metal Clusters.
;
_journal_issue                   33
_journal_name_full               'ACS applied materials &amp; interfaces'
_journal_page_first              27868
_journal_page_last               27874
_journal_paper_doi               10.1021/acsami.8b09333
_journal_volume                  10
_journal_year                    2018
_chemical_formula_moiety         '0.13(C720 H408 O280 Zr48)'
_chemical_formula_sum            'C90 H51 O35 Zr6'
_chemical_formula_weight         2239.62
_space_group_crystal_system      cubic
_space_group_IT_number           212
_space_group_name_Hall           'P 4acd 2ab 3'
_space_group_name_H-M_alt        'P 43 3 2'
_atom_sites_solution_hydrogens   mixed
_audit_creation_date             2017-12-07
_audit_creation_method
;
Olex2 1.2-alpha
(compiled 2017.08.10 svn.r3458 for OlexSys, GUI svn.r5381)
;
_cell_angle_alpha                90
_cell_angle_beta                 90
_cell_angle_gamma                90
_cell_formula_units_Z            8
_cell_length_a                   32.7630(3)
_cell_length_b                   32.7630(3)
_cell_length_c                   32.7630(3)
_cell_measurement_reflns_used    3980
_cell_measurement_temperature    173.00(10)
_cell_measurement_theta_max      71.0800
_cell_measurement_theta_min      3.7860
_cell_volume                     35168.3(6)
_computing_cell_refinement       'CrysAlisPro 1.171.39.32a (Rigaku OD, 2017)'
_computing_data_collection       'CrysAlisPro 1.171.39.32a (Rigaku OD, 2017)'
_computing_data_reduction        'CrysAlisPro 1.171.39.32a (Rigaku OD, 2017)'
_computing_molecular_graphics    'Olex2 (Dolomanov et al., 2009)'
_computing_publication_material  'Olex2 (Dolomanov et al., 2009)'
_computing_structure_refinement  'ShelXL (Sheldrick, 2015)'
_diffrn_ambient_environment      N~2~
_diffrn_ambient_temperature      173.00(10)
_diffrn_detector                 'CCD plate'
_diffrn_detector_area_resol_mean 10.3376
_diffrn_detector_type            AtlasS2
_diffrn_measured_fraction_theta_full 0.986
_diffrn_measured_fraction_theta_max 0.998
_diffrn_measurement_details
;
List of Runs (angles in degrees, time in seconds):

  # Type    Start    End  Width  t~exp~   \w     \q     \k     \f   Frames
--------------------------------------------------------------------------
  1  \w   -113.00 -53.00   1.00   40.00    --  -42.06-155.00 -80.00   60
  2  \w     83.00 153.00   1.00  100.00    --  107.13 -15.00   0.00   70
;
_diffrn_measurement_device       'four-circle diffractometer'
_diffrn_measurement_device_type  'SuperNova, Dual, Cu at home/near, AtlasS2'
_diffrn_measurement_method       '\w scans'
_diffrn_orient_matrix_type
'CrysAlisPro convention (1999,Acta A55,543-557)'
_diffrn_orient_matrix_UB_11      0.0056371000
_diffrn_orient_matrix_UB_12      0.0130924000
_diffrn_orient_matrix_UB_13      -0.0447975000
_diffrn_orient_matrix_UB_21      -0.0222352000
_diffrn_orient_matrix_UB_22      0.0404294000
_diffrn_orient_matrix_UB_23      0.0090279000
_diffrn_orient_matrix_UB_31      0.0410715000
_diffrn_orient_matrix_UB_32      0.0201052000
_diffrn_orient_matrix_UB_33      0.0110309000
_diffrn_radiation_monochromator  mirror
_diffrn_radiation_probe          x-ray
_diffrn_radiation_type           CuK\a
_diffrn_radiation_wavelength     1.54184
_diffrn_reflns_av_R_equivalents  0.0923
_diffrn_reflns_av_unetI/netI     0.1367
_diffrn_reflns_Laue_measured_fraction_full 0.986
_diffrn_reflns_Laue_measured_fraction_max 0.998
_diffrn_reflns_limit_h_max       19
_diffrn_reflns_limit_h_min       -23
_diffrn_reflns_limit_k_max       37
_diffrn_reflns_limit_k_min       -14
_diffrn_reflns_limit_l_max       39
_diffrn_reflns_limit_l_min       -27
_diffrn_reflns_number            26321
_diffrn_reflns_point_group_measured_fraction_full 0.987
_diffrn_reflns_point_group_measured_fraction_max 0.999
_diffrn_reflns_theta_full        67.684
_diffrn_reflns_theta_max         67.027
_diffrn_reflns_theta_min         3.304
_diffrn_source                   'micro-focus sealed X-ray tube'
_diffrn_source_type              'SuperNova (Cu) X-ray Source'
_exptl_absorpt_coefficient_mu    3.198
_exptl_absorpt_correction_T_max  1.00000
_exptl_absorpt_correction_T_min  0.76565
_exptl_absorpt_correction_type   multi-scan
_exptl_absorpt_process_details
;
CrysAlisPro 1.171.39.32a (Rigaku Oxford Diffraction, 2017)
Empirical absorption correction using spherical harmonics,
 implemented in SCALE3 ABSPACK scaling algorithm.
;
_exptl_crystal_colour            'light colourless'
_exptl_crystal_density_diffrn    0.846
_exptl_crystal_description       block
_exptl_crystal_F_000             8888
_exptl_crystal_size_max          0.035
_exptl_crystal_size_mid          0.035
_exptl_crystal_size_min          0.035
_refine_diff_density_max         0.679
_refine_diff_density_min         -0.897
_refine_diff_density_rms         0.078
_refine_ls_abs_structure_details
;
 Flack x determined using 2125 quotients [(I+)-(I-)]/[(I+)+(I-)]
 (Parsons, Flack and Wagner, Acta Cryst. B69 (2013) 249-259).
;
_refine_ls_abs_structure_Flack   0.156(14)
_refine_ls_extinction_method     none
_refine_ls_goodness_of_fit_ref   0.884
_refine_ls_hydrogen_treatment    constr
_refine_ls_matrix_type           full
_refine_ls_number_parameters     389
_refine_ls_number_reflns         10490
_refine_ls_number_restraints     12
_refine_ls_restrained_S_all      0.884
_refine_ls_R_factor_all          0.0975
_refine_ls_R_factor_gt           0.0639
_refine_ls_shift/su_max          0.001
_refine_ls_shift/su_mean         0.000
_refine_ls_structure_factor_coef Fsqd
_refine_ls_weighting_details
'w=1/[\s^2^(Fo^2^)+(0.0940P)^2^] where P=(Fo^2^+2Fc^2^)/3'
_refine_ls_weighting_scheme      calc
_refine_ls_wR_factor_gt          0.1536
_refine_ls_wR_factor_ref         0.1830
_reflns_Friedel_coverage         0.763
_reflns_Friedel_fraction_full    0.988
_reflns_Friedel_fraction_max     1.000
_reflns_number_gt                6934
_reflns_number_total             10490
_reflns_threshold_expression     'I > 2\s(I)'
_iucr_refine_instructions_details
;
TITL but-46-hcl-smart_a.res in P4(3)32
REM Old TITL BUT-46-HCl-smart in P4332 #212
CELL 1.54184 32.763 32.763 32.763 90 90 90
ZERR 8 0.0003 0.0003 0.0003 0 0 0
LATT -1
SYMM 0.5-X,-Y,0.5+Z
SYMM -X,0.5+Y,0.5-Z
SYMM 0.5+X,0.5-Y,-Z
SYMM +Z,+X,+Y
SYMM 0.5+Z,0.5-X,-Y
SYMM 0.5-Z,-X,0.5+Y
SYMM -Z,0.5+X,0.5-Y
SYMM +Y,+Z,+X
SYMM -Y,0.5+Z,0.5-X
SYMM 0.5+Y,0.5-Z,-X
SYMM 0.5-Y,-Z,0.5+X
SYMM 0.25+Y,0.75+X,0.75-Z
SYMM 0.25-Y,0.25-X,0.25-Z
SYMM 0.75+Y,0.75-X,0.25+Z
SYMM 0.75-Y,0.25+X,0.75+Z
SYMM 0.25+X,0.75+Z,0.75-Y
SYMM 0.75-X,0.25+Z,0.75+Y
SYMM 0.25-X,0.25-Z,0.25-Y
SYMM 0.75+X,0.75-Z,0.25+Y
SYMM 0.25+Z,0.75+Y,0.75-X
SYMM 0.75+Z,0.75-Y,0.25+X
SYMM 0.75-Z,0.25+Y,0.75+X
SYMM 0.25-Z,0.25-Y,0.25-X
SFAC C H O Zr
UNIT 720 408 280 48
ISOR 0.01 0.005 C1
ISOR 0.02 0.01 O2
EADP C29 C28
 
L.S. 10
PLAN  1
BOND $H
LIST 6
ABIN
fmap 2
acta
REM <olex2.extras>
REM <HklSrc "%.\\BUT-46-HCl-smart.hkl">
REM </olex2.extras>
 
WGHT    0.094000
FVAR       0.28049
ZR1   4    0.321387    0.793550    0.764812    11.00000    0.03331    0.03527 =
         0.03666   -0.00290   -0.00263    0.00044
ZR2   4    0.223518    0.780390    0.804900    11.00000    0.03461    0.03826 =
         0.03307   -0.00258    0.00101    0.00293
O7    3    0.261880    0.828325    0.770622    11.00000    0.02643    0.03666 =
         0.02532   -0.00317   -0.00104    0.01215
O6    3    0.281773    0.756614    0.793448    11.00000    0.03853    0.02882 =
         0.01673    0.00280    0.00134    0.00496
O9    3    0.215251    0.715251    0.784749    10.33333    0.02126    0.02126 =
         0.02126   -0.00698   -0.00698    0.00698
O12   3    0.571089    0.580930    0.930287    11.00000    0.03926    0.01933 =
         0.04022    0.00922   -0.00080   -0.00034
O5    3    0.293323    0.793323    0.706677    10.33333    0.04626    0.04626 =
         0.04626   -0.00598   -0.00598    0.00598
O13   3    0.506458    0.601731    0.934104    11.00000    0.03649    0.05202 =
         0.04692    0.00927    0.00301   -0.00677
O10   3    0.726781    0.757870    1.139836    11.00000    0.06123    0.06751 =
         0.03924    0.01659   -0.00448   -0.01844
O11   3    0.761286    0.812532    1.158457    11.00000    0.05783    0.04188 =
         0.03617    0.00624   -0.01192    0.00333
O8    3    0.187324    0.837321    0.817225    11.00000    0.05287    0.04329 =
         0.06207   -0.01101    0.00147    0.01888
AFIX   7
H8A   2    0.165976    0.838045    0.801702    11.00000   -1.50000
H8B   2    0.201154    0.858594    0.809809    11.00000   -1.50000
AFIX   0
O1    3    0.376083    0.773286    0.793859    11.00000    0.04982    0.06632 =
         0.07974   -0.00048   -0.02199    0.01156
O4    3    0.342047    0.859003    0.759255    11.00000    0.06209    0.04019 =
         0.07665    0.00339   -0.00165   -0.00671
C25   1    0.737127    0.807469    1.091834    11.00000    0.03334    0.03873 =
         0.04115    0.00295   -0.00145    0.00379
C24   1    0.741618    0.848225    1.085535    11.00000    0.07665    0.07622 =
         0.06542    0.01221   -0.00623    0.00717
AFIX  43
H24   2    0.752510    0.864816    1.105829    11.00000   -1.20000
AFIX   0
O3    3    0.375191    0.802029    0.718593    11.00000    0.06604    0.09553 =
         0.09761    0.00620    0.02707   -0.01245
C17   1    0.552426    0.649732    0.919367    11.00000    0.03448    0.03824 =
         0.04809   -0.00656   -0.00557   -0.00482
C29   1    0.543153    0.608594    0.929489    11.00000    0.04843    0.03730 =
         0.03021    0.01443    0.00352    0.00407
C21   1    0.675006    0.840121    0.959200    11.00000    0.05701    0.04777 =
         0.04920    0.00942   -0.00576   -0.00175
AFIX  43
H21   2    0.663567    0.817250    0.971521    11.00000   -1.20000
AFIX   0
C27   1    0.720352    0.797831    1.020347    11.00000    0.06494    0.05889 =
         0.05920    0.01005   -0.00993   -0.00213
AFIX  43
H27   2    0.713969    0.780390    0.998880    11.00000   -1.20000
AFIX   0
C00M  1    0.721935    0.838882    1.014043    11.00000    0.05293    0.04883 =
         0.05342    0.00269   -0.00672    0.00091
C22   1    0.705736    0.858177    0.974879    11.00000    0.06809    0.07312 =
         0.06075    0.00037   -0.02783   -0.01818
C28   1    0.741155    0.791110    1.131701    11.00000    0.04843    0.03730 =
         0.03021    0.01443    0.00352    0.00407
C2    1    0.444199    0.762579    0.806985    11.00000    0.05280    0.08579 =
         0.11282    0.00522   -0.01154   -0.00276
O2    3    0.407188    0.719622    0.754416    11.00000    0.08321    0.09156 =
         0.10766   -0.01568   -0.00576    0.00301
C26   1    0.728348    0.781921    1.059184    11.00000    0.03296    0.03639 =
         0.02855    0.00031   -0.00353    0.00143
AFIX  43
H26   2    0.727771    0.753823    1.063176    11.00000   -1.20000
AFIX   0
C15   1    0.531210    0.718397    0.912892    11.00000    0.06141    0.04590 =
         0.06168    0.00568   -0.00721   -0.01013
AFIX  43
H15   2    0.511279    0.738148    0.917180    11.00000   -1.20000
AFIX   0
C23   1    0.729203    0.865437    1.046779    11.00000    0.06156    0.05624 =
         0.05659   -0.00112    0.00428   -0.00881
AFIX  43
H23   2    0.726120    0.893483    1.043675    11.00000   -1.20000
AFIX   0
C18   1    0.594548    0.659932    0.910334    11.00000    0.06055    0.04212 =
         0.06917    0.00187   -0.00504   -0.00059
AFIX  43
H18   2    0.615197    0.640472    0.911171    11.00000   -1.20000
AFIX   0
C16   1    0.522917    0.680689    0.920795    11.00000    0.05608    0.05042 =
         0.05702    0.00419    0.00403   -0.00746
AFIX  43
H16   2    0.496270    0.673779    0.927720    11.00000   -1.20000
AFIX   0
C12   1    0.613096    0.790893    0.910585    11.00000    0.04951    0.05959 =
         0.06003    0.00952   -0.00693   -0.00400
AFIX  43
H12   2    0.627780    0.776441    0.930111    11.00000   -1.20000
AFIX   0
C5    1    0.516540    0.785514    0.843512    11.00000    0.07303    0.04787 =
         0.06281   -0.00617   -0.01229    0.00063
C9    1    0.567372    0.838979    0.845923    11.00000    0.08075    0.07039 =
         0.08343    0.00292   -0.03176   -0.01003
AFIX  43
H9    2    0.553201    0.851976    0.825043    11.00000   -1.20000
AFIX   0
C8    1    0.556039    0.801082    0.861415    11.00000    0.04957    0.05058 =
         0.08374    0.00357   -0.01880   -0.01487
C20   1    0.657818    0.857151    0.919929    11.00000    0.07407    0.05623 =
         0.05215    0.00791   -0.01577   -0.00271
C14   1    0.570418    0.730574    0.897658    11.00000    0.05547    0.04616 =
         0.05756    0.00991   -0.00058   -0.00031
C11   1    0.622266    0.836911    0.898460    11.00000    0.07571    0.07661 =
         0.12799    0.02771   -0.01814   -0.01464
C19   1    0.602384    0.700789    0.900266    11.00000    0.06460    0.06158 =
         0.08579    0.00483    0.00313   -0.00538
AFIX  43
H19   2    0.629123    0.708811    0.895125    11.00000   -1.20000
AFIX   0
C4    1    0.481337    0.805407    0.849425    11.00000    0.05463    0.05113 =
         0.06507   -0.01111   -0.00154    0.00085
AFIX  43
H4    2    0.482479    0.827197    0.867581    11.00000   -1.20000
AFIX   0
C13   1    0.578709    0.773762    0.887379    11.00000    0.08498    0.06305 =
         0.08244   -0.00356    0.00523   -0.00461
C3    1    0.442994    0.797886    0.831995    11.00000    0.06776    0.06713 =
         0.06224   -0.01086   -0.00746   -0.00221
AFIX  43
H3    2    0.419922    0.813864    0.836250    11.00000   -1.20000
AFIX   0
C7    1    0.478765    0.737387    0.802743    11.00000    0.05292    0.06400 =
         0.05957    0.00920   -0.00588   -0.01188
AFIX  43
H7    2    0.477123    0.712641    0.788933    11.00000   -1.20000
AFIX   0
C6    1    0.517553    0.751196    0.820709    11.00000    0.05473    0.07641 =
         0.06106    0.00599   -0.00809    0.00769
AFIX  43
H6    2    0.541719    0.736902    0.816537    11.00000   -1.20000
AFIX   0
C10   1    0.601475    0.855590    0.864248    11.00000    0.07100    0.05686 =
         0.07421    0.00818   -0.00471   -0.00881
C1    1    0.404459    0.749125    0.788702    11.00000    0.11098    0.11640 =
         0.11484   -0.00419   -0.00839    0.01081
HKLF 4
 
REM  but-46-hcl-smart_a.res in P4(3)32
REM R1 =  0.0639 for    6934 Fo > 4sig(Fo)  and  0.0975 for all   10490 data
REM    389 parameters refined using     12 restraints
 
END  
     
WGHT      0.0641      0.0000 

REM Highest difference peak  0.679,  deepest hole -0.897,  1-sigma level  0.078
Q1    1   0.7692  0.7364  1.1476  11.00000  0.05    0.52

  REM The information below was added by Olex2.
  REM
  REM R1 = 0.0639 for 6934 Fo > 4sig(Fo) and 0.0975 for all 26349 data
  REM n/a parameters refined using n/a restraints
  REM Highest difference peak 0.68, deepest hole -0.90
  REM Mean Shift 0, Max Shift 0.001.

  REM +++ Tabular Listing of Refinement Information +++
  REM R1_all = 0.0975
  REM R1_gt = 0.0639
  REM wR_ref = 0.1830
  REM GOOF = 0.884
  REM Shift_max = 0.001
  REM Shift_mean = 0
  REM Reflections_all = 26349
  REM Reflections_gt = 6934
  REM Parameters = n/a
  REM Hole = -0.90
  REM Peak = 0.68
  REM Flack = 0.156(14)

  
;
_cod_data_source_file            am8b09333_si_007.cif
_cod_data_source_block           BUT-46W
_cod_original_cell_volume        35168.3(10)
_cod_database_code               4515314
_shelxl_version_number           2014-1
_chemical_oxdiff_formula         'C H O Zr'
_shelx_space_group_comment
;
The symmetry employed for this shelxl refinement is uniquely defined
by the following loop, which should always be used as a source of
symmetry information in preference to the above space-group names.
They are only intended as comments.
;
_reflns_odcompleteness_completeness 99.73
_reflns_odcompleteness_iscentric 1
_reflns_odcompleteness_theta     66.97
_olex2_refinement_description
;
1. Fixed Uiso
 At 1.2 times of:
  All C(H) groups
 At 1.5 times of:
  All O(H,H) groups
2. Uiso/Uaniso restraints and constraints
Uanis(C1) \\sim Ueq: with sigma of 0.01 and sigma for terminal atoms of 0.005
Uanis(O2) \\sim Ueq: with sigma of 0.02 and sigma for terminal atoms of 0.01
Uanis(C29) = Uanis(C28)
3.a Rotating group:
 O8(H8A,H8B)
3.b Aromatic/amide H refined with riding coordinates:
 C24(H24), C21(H21), C27(H27), C26(H26), C15(H15), C23(H23), C18(H18),
 C16(H16), C12(H12), C9(H9), C19(H19), C4(H4), C3(H3), C7(H7), C6(H6)
;
_shelx_fab_file
;
-21 -24 -22 3.6821 8.5174
-21 -23 -22 8.6449 0.4151
-20 -26 -21 -0.7027 9.4207
-20 -25 -22 -6.0700 -15.3871
-20 -25 -21 19.2527 -10.0129
-20 -24 -23 0.7113 -5.2997
-20 -24 -22 -6.4599 -1.4282
-20 -24 -21 6.0739 0.6771
-20 -23 -22 -12.6339 1.6768
-20 -23 -21 -19.5342 -9.4998
-20 -22 -21 14.7928 5.5092
-19 -27 -21 -6.5932 2.6884
-19 -27 -20 3.8196 4.6160
-19 -26 -22 11.2276 -2.2196
-19 -26 -21 6.4457 0.9510
-19 -26 -20 -2.3180 5.3422
-19 -25 -23 1.6661 5.3091
-19 -25 -22 15.6769 -14.7627
-19 -25 -21 -9.2504 -13.7557
-19 -25 -20 0.8479 9.4499
-19 -24 -23 2.5139 1.7984
-19 -24 -22 4.1513 2.0234
-19 -24 -21 -3.6684 -3.0416
-19 -24 -20 -23.1389 7.3863
-19 -23 -22 -5.9048 -6.0316
-19 -23 -21 8.1010 -20.1395
-19 -23 -20 -10.9011 13.7134
-19 -22 -21 10.6803 6.8454
-19 -22 -20 9.4666 7.3283
-19 -21 -20 2.3851 4.2282
-18 -29 -19 5.9951 7.6547
-18 -28 -20 5.2776 1.4939
-18 -28 -19 2.0181 -11.6546
-18 -27 -21 -4.2581 6.8087
-18 -27 -20 24.6493 -24.2306
-18 -27 -19 16.7373 3.4897
-18 -26 -23 -4.5775 -7.3821
-18 -26 -22 13.7997 14.8133
-18 -26 -21 -6.2403 17.7324
-18 -26 -20 -1.3389 8.0531
-18 -26 -19 -3.1367 4.6872
-18 -25 -24 -2.5010 6.8760
-18 -25 -23 2.2562 7.2711
-18 -25 -22 6.5703 -27.1047
-18 -25 -21 -14.9819 -0.8544
-18 -25 -20 4.2871 10.2674
-18 -25 -19 -4.3506 -22.4704
-18 -24 -23 4.3784 2.1158
-18 -24 -22 20.5593 -1.8019
-18 -24 -21 15.1891 2.3828
-18 -24 -20 7.9779 8.2024
-18 -24 -19 -13.1997 -3.9978
-18 -23 -22 8.6307 -14.7837
-18 -23 -21 7.0353 -12.0828
-18 -23 -20 -13.4429 -15.3581
-18 -23 -19 1.5570 14.3649
-18 -22 -21 1.0995 -18.8832
-18 -22 -20 0.2518 -21.8361
-18 -22 -19 -6.7399 -11.4364
-18 -21 -20 -26.4390 -16.8974
-18 -21 -19 -8.8744 -8.7847
-18 -20 -19 11.2549 7.9194
-17 -30 -18 4.6944 14.9942
-17 -29 -20 0.7186 -5.2879
-17 -29 -19 -4.8091 -7.1827
-17 -29 -18 25.2648 8.8034
-17 -28 -21 6.3930 -10.6872
-17 -28 -20 5.9970 14.7370
-17 -28 -19 -26.4462 -1.7451
-17 -28 -18 26.7907 -1.1223
-17 -27 -22 8.0957 3.5586
-17 -27 -21 -19.5625 -5.5192
-17 -27 -20 8.3790 -11.6581
-17 -27 -19 -23.2254 23.6446
-17 -27 -18 10.6711 -14.6382
-17 -26 -23 9.5879 -5.0414
-17 -26 -22 -1.9139 0.9114
-17 -26 -21 -6.8613 14.5978
-17 -26 -20 -4.2482 0.2980
-17 -26 -19 17.8458 6.8031
-17 -26 -18 -14.1409 -10.1428
-17 -25 -24 -4.0961 -4.5882
-17 -25 -23 -22.3991 -19.6381
-17 -25 -22 -14.0038 8.6737
-17 -25 -21 -17.3097 11.4720
-17 -25 -20 -14.1944 8.3884
-17 -25 -19 -12.6775 15.7351
-17 -25 -18 7.4780 5.4532
-17 -24 -23 -10.1947 12.9699
-17 -24 -22 -9.3769 12.8735
-17 -24 -21 25.0211 9.9208
-17 -24 -20 -10.5477 -4.4855
-17 -24 -19 -3.0543 -20.7201
-17 -24 -18 -9.2551 5.8957
-17 -23 -22 7.0672 8.6071
-17 -23 -21 11.6527 13.2832
-17 -23 -20 6.7600 9.8447
-17 -23 -19 17.4066 4.5616
-17 -23 -18 6.8480 37.1736
-17 -22 -21 -2.9102 5.8868
-17 -22 -20 8.8199 -8.9875
-17 -22 -19 -22.7839 18.4572
-17 -22 -18 27.0247 -15.5841
-17 -21 -20 -5.6613 22.4547
-17 -21 -19 -1.6055 -10.4694
-17 -21 -18 8.2852 10.0315
-17 -20 -19 14.6761 6.5735
-17 -20 -18 14.5266 -4.3227
-17 -19 -18 -9.5646 -5.1397
-16 -31 -17 20.4704 -8.6732
-16 -30 -19 3.1075 -5.7485
-16 -30 -18 15.3831 -3.3796
-16 -30 -17 1.8429 12.6782
-16 -29 -20 0.7903 3.8442
-16 -29 -19 -10.0505 -23.6923
-16 -29 -18 11.4336 4.0813
-16 -29 -17 1.7179 -21.4247
-16 -28 -22 22.4770 12.2614
-16 -28 -21 -1.5005 -10.7808
-16 -28 -20 0.9545 -3.0779
-16 -28 -19 15.7217 11.8054
-16 -28 -18 -15.4484 -7.3859
-16 -28 -17 -6.8530 12.4210
-16 -27 -23 3.1087 -1.2438
-16 -27 -22 -2.7015 10.1581
-16 -27 -21 -6.5188 8.5742
-16 -27 -20 -16.4476 14.0240
-16 -27 -19 -8.6261 -3.8492
-16 -27 -18 -15.1858 14.0630
-16 -27 -17 2.6058 -8.9097
-16 -26 -24 -14.0316 9.6150
-16 -26 -23 4.4206 -0.7747
-16 -26 -22 -5.9615 6.1017
-16 -26 -21 19.7399 4.0357
-16 -26 -20 31.1909 2.8144
-16 -26 -19 -27.0393 -3.3809
-16 -26 -18 -4.3177 45.0207
-16 -26 -17 -29.7475 -18.4917
-16 -25 -24 6.7751 -23.3953
-16 -25 -23 -0.1541 13.1803
-16 -25 -22 22.9367 -4.5378
-16 -25 -21 -13.3249 -23.4390
-16 -25 -20 -3.2574 8.8352
-16 -25 -19 19.7564 19.6512
-16 -25 -18 27.5080 -14.5058
-16 -25 -17 10.9138 19.1846
-16 -24 -23 5.9581 8.0690
-16 -24 -22 -9.6525 -8.7268
-16 -24 -21 12.7659 24.0595
-16 -24 -20 36.6521 11.0622
-16 -24 -19 -16.6464 -6.9675
-16 -24 -18 18.6050 19.7744
-16 -24 -17 3.2468 15.5167
-16 -23 -22 24.4863 -1.2828
-16 -23 -21 5.8706 -9.6583
-16 -23 -20 -29.8903 12.9686
-16 -23 -19 28.5035 -16.6578
-16 -23 -18 -18.6103 2.3575
-16 -23 -17 -13.6577 5.8832
-16 -22 -21 -9.1050 -32.0717
-16 -22 -20 -31.7173 34.1190
-16 -22 -19 10.5426 -14.1048
-16 -22 -18 1.8751 4.5526
-16 -22 -17 22.8799 -3.4484
-16 -21 -20 15.9727 -8.0777
-16 -21 -19 -20.0253 -35.2839
-16 -21 -18 -24.2162 13.3638
-16 -21 -17 -13.9349 33.4512
-16 -20 -19 -16.3269 21.2596
-16 -20 -18 52.0928 -2.2130
-16 -20 -17 -27.7821 7.3412
-16 -19 -18 -37.4057 35.2753
-16 -19 -17 6.7237 -12.8207
-16 -18 -17 -26.5246 9.6982
-15 -32 -16 12.4240 4.1872
-15 -31 -18 1.6471 -8.9130
-15 -31 -17 -4.2930 -13.6419
-15 -31 -16 -13.7145 7.3255
-15 -30 -20 7.6540 22.6056
-15 -30 -19 10.3316 4.8053
-15 -30 -18 -0.9510 -7.4687
-15 -30 -17 11.7744 1.3694
-15 -30 -16 -5.8078 3.3176
-15 -29 -21 10.8601 2.5436
-15 -29 -20 -7.3153 7.0350
-15 -29 -19 3.6502 1.6721
-15 -29 -18 -2.2655 -13.2120
-15 -29 -17 9.4843 1.7968
-15 -29 -16 2.1292 -35.9470
-15 -28 -22 15.8584 -5.7940
-15 -28 -21 4.6808 5.3050
-15 -28 -20 -12.0706 6.8083
-15 -28 -19 8.3180 -21.8027
-15 -28 -18 -13.9803 -8.8425
-15 -28 -17 23.3774 -24.4128
-15 -28 -16 -9.6956 -4.8074
-15 -27 -24 -4.4519 9.0743
-15 -27 -23 1.2456 -25.3162
-15 -27 -22 1.7162 6.0137
-15 -27 -21 8.6960 -24.5219
-15 -27 -20 -8.1310 12.2803
-15 -27 -19 -10.3453 -27.9071
-15 -27 -18 -33.5643 -7.7172
-15 -27 -17 -39.9731 0.6699
-15 -27 -16 5.4188 13.6985
-15 -26 -25 -1.5163 -0.3905
-15 -26 -24 -6.6298 -5.4570
-15 -26 -23 0.2135 0.6798
-15 -26 -22 2.1972 2.5721
-15 -26 -21 -29.7325 -6.3716
-15 -26 -20 14.8180 10.9869
-15 -26 -19 -6.1084 1.5025
-15 -26 -18 0.3920 8.7550
-15 -26 -17 -46.5165 13.1083
-15 -26 -16 -3.5035 -27.0071
-15 -25 -24 -23.0518 2.3010
-15 -25 -23 7.8203 -11.1923
-15 -25 -22 -36.0987 -13.5789
-15 -25 -21 4.3767 -18.9602
-15 -25 -20 -1.9134 4.0636
-15 -25 -19 12.5855 -23.7473
-15 -25 -18 5.6444 -37.5953
-15 -25 -17 5.0008 -6.1715
-15 -25 -16 25.9189 -19.7744
-15 -24 -23 -15.2484 8.6162
-15 -24 -22 -18.1355 2.5379
-15 -24 -21 -6.0161 0.2880
-15 -24 -20 13.9085 0.2181
-15 -24 -19 -8.6571 37.3865
-15 -24 -18 -33.1461 13.9895
-15 -24 -17 -17.3508 22.1112
-15 -24 -16 -1.8600 5.4623
-15 -23 -22 13.1168 -11.9397
-15 -23 -21 -12.7520 -5.6261
-15 -23 -20 -18.4810 -18.7527
-15 -23 -19 15.7058 -4.3303
-15 -23 -18 -10.7049 21.7324
-15 -23 -17 -36.0263 35.1699
-15 -23 -16 -28.2106 -6.3220
-15 -22 -21 -8.1071 -9.7357
-15 -22 -20 -37.8906 -29.3017
-15 -22 -19 34.2017 -33.8192
-15 -22 -18 -0.9806 -22.0412
-15 -22 -17 -28.6022 -15.0860
-15 -22 -16 14.7890 5.2092
-15 -21 -20 11.6558 5.0005
-15 -21 -19 16.9581 -14.8628
-15 -21 -18 39.9927 6.6402
-15 -21 -17 -32.8600 -5.7702
-15 -21 -16 -0.5093 10.2198
-15 -20 -19 38.4275 5.4503
-15 -20 -18 12.1006 -6.5490
-15 -20 -17 28.2305 57.9922
-15 -20 -16 -29.9812 9.9093
-15 -19 -18 34.1893 -27.5721
-15 -19 -17 50.4510 -63.0889
-15 -19 -16 -13.7378 -5.4542
-15 -18 -17 23.6412 -8.4138
-15 -18 -16 3.3744 -14.1216
-15 -17 -16 -6.7142 7.1512
-14 -33 -15 5.5593 3.4050
-14 -32 -17 19.8782 1.4793
-14 -32 -16 -13.9387 -1.3836
-14 -32 -15 3.1564 6.3015
-14 -31 -19 13.9492 -13.1663
-14 -31 -18 -13.5933 9.0702
-14 -31 -17 17.2647 -5.1863
-14 -31 -16 20.0996 -25.5905
-14 -31 -15 -8.7263 11.0489
-14 -30 -20 6.1770 -6.5353
-14 -30 -19 -0.0043 -1.2855
-14 -30 -18 8.9204 13.3571
-14 -30 -17 8.6525 15.2331
-14 -30 -16 -0.3638 -1.0406
-14 -30 -15 -3.9269 17.8285
-14 -29 -22 6.3113 9.8099
-14 -29 -21 5.5983 10.5572
-14 -29 -20 20.5870 -3.2936
-14 -29 -19 -0.1200 7.2281
-14 -29 -18 12.9011 -35.3210
-14 -29 -17 -34.5146 14.4969
-14 -29 -16 36.7370 -0.5130
-14 -29 -15 -13.9298 -9.3861
-14 -28 -23 15.6667 7.5541
-14 -28 -22 -9.8324 9.1199
-14 -28 -21 13.1902 -4.6156
-14 -28 -20 -28.2583 4.0657
-14 -28 -19 1.1330 9.5311
-14 -28 -18 -0.6232 5.4625
-14 -28 -17 -9.2524 -17.2903
-14 -28 -16 -1.5967 22.0121
-14 -28 -15 22.1610 3.5098
-14 -27 -24 -7.8748 -1.0092
-14 -27 -23 -3.4042 7.9284
-14 -27 -22 -18.8960 -20.4196
-14 -27 -21 -15.4192 -8.2373
-14 -27 -20 -17.8138 14.6867
-14 -27 -19 -5.2312 -0.7712
-14 -27 -18 14.0109 -6.9547
-14 -27 -17 33.0225 -7.9650
-14 -27 -16 -6.8591 -13.7822
-14 -27 -15 4.2741 16.4108
-14 -26 -25 9.2207 -7.8526
-14 -26 -24 -3.7087 -12.3685
-14 -26 -23 9.9726 -11.3740
-14 -26 -22 -12.6722 1.2036
-14 -26 -21 28.7259 -14.1303
-14 -26 -20 -1.3921 25.2973
-14 -26 -19 -1.2403 0.0495
-14 -26 -18 40.2885 22.7610
-14 -26 -17 -5.4018 20.1220
-14 -26 -16 1.8905 -6.1920
-14 -26 -15 -10.8590 9.8668
-14 -25 -24 18.5315 -0.8311
-14 -25 -23 8.9303 -11.3692
-14 -25 -22 4.8270 20.4334
-14 -25 -21 35.2691 -13.8794
-14 -25 -20 -14.0969 -17.7642
-14 -25 -19 25.3137 -0.0283
-14 -25 -18 19.0771 5.3320
-14 -25 -17 17.5837 6.3895
-14 -25 -16 0.4278 22.3909
-14 -25 -15 8.6855 14.0314
-14 -24 -23 16.8829 8.3145
-14 -24 -22 -0.8205 -5.4661
-14 -24 -21 -4.6784 -14.2022
-14 -24 -20 -4.8766 -14.7924
-14 -24 -19 10.5201 31.2167
-14 -24 -18 26.4183 15.8047
-14 -24 -17 26.6176 13.8295
-14 -24 -16 4.8911 24.5296
-14 -24 -15 -41.1220 20.0813
-14 -23 -22 4.2750 9.0971
-14 -23 -21 -15.0616 -0.2379
-14 -23 -20 16.7291 -10.5732
-14 -23 -19 -19.6874 37.0115
-14 -23 -18 11.9461 -43.2808
-14 -23 -17 5.5349 4.2765
-14 -23 -16 17.2220 -22.3972
-14 -23 -15 -6.8270 10.2278
-14 -22 -21 -12.8750 5.0131
-14 -22 -20 6.5164 -27.7583
-14 -22 -19 17.1292 -3.4822
-14 -22 -18 -0.8317 -15.2280
-14 -22 -17 11.5009 -24.7534
-14 -22 -16 0.3956 9.9473
-14 -22 -15 -19.9159 -5.4159
-14 -21 -20 -0.0592 -24.6708
-14 -21 -19 -1.1417 7.4996
-14 -21 -18 -1.2982 -22.9811
-14 -21 -17 16.6878 14.2353
-14 -21 -16 -26.4018 30.9520
-14 -21 -15 14.6885 -5.2729
-14 -20 -19 -21.5145 27.4704
-14 -20 -18 -9.4078 -17.4309
-14 -20 -17 4.4038 2.6014
-14 -20 -16 17.3493 0.6332
-14 -20 -15 21.7174 -23.7389
-14 -19 -18 -17.7159 -11.5502
-14 -19 -17 -4.5818 -8.5586
-14 -19 -16 5.2063 -24.6331
-14 -19 -15 3.5219 -14.8360
-14 -18 -17 17.4020 -1.7585
-14 -18 -16 -2.8692 -20.1799
-14 -18 -15 0.2203 -3.2802
-14 -17 -16 5.7234 -2.6064
-14 -17 -15 23.9146 1.6573
-14 -16 -15 -19.8033 0.1017
-13 -34 -14 -6.6793 -5.8223
-13 -33 -16 -0.5273 -4.7745
-13 -33 -15 -5.8285 -7.2489
-13 -33 -14 -3.5210 -16.9359
-13 -32 -18 -2.5168 4.2567
-13 -32 -17 -11.9177 -7.3574
-13 -32 -16 -0.3427 -2.9212
-13 -32 -15 15.9091 7.8379
-13 -32 -14 1.2264 6.6076
-13 -31 -20 6.7828 -0.0984
-13 -31 -19 1.7890 3.2942
-13 -31 -18 4.6132 -2.5605
-13 -31 -17 11.8561 -0.8011
-13 -31 -16 -23.8752 -8.1921
-13 -31 -15 -5.4401 8.6340
-13 -31 -14 12.4012 -38.2790
-13 -30 -21 9.0727 23.3380
-13 -30 -20 -32.7940 -4.1057
-13 -30 -19 -7.9606 -7.8663
-13 -30 -18 -9.8717 -1.7027
-13 -30 -17 16.3180 11.9870
-13 -30 -16 5.0591 22.6611
-13 -30 -15 -6.9872 19.7465
-13 -30 -14 0.0132 13.2769
-13 -29 -22 7.5996 -9.4940
-13 -29 -21 -3.3761 16.7229
-13 -29 -20 19.1754 -0.4922
-13 -29 -19 -2.0893 -2.0543
-13 -29 -18 -25.1102 11.0104
-13 -29 -17 8.6767 15.3340
-13 -29 -16 -13.4968 -8.7559
-13 -29 -15 -18.3112 -15.0811
-13 -29 -14 56.0698 -3.3380
-13 -28 -24 8.3111 -4.7146
-13 -28 -23 15.1090 1.0343
-13 -28 -22 26.5757 -12.8798
-13 -28 -21 -14.2002 4.2183
-13 -28 -20 -24.8147 -36.0460
-13 -28 -19 -8.1625 11.8143
-13 -28 -18 -9.7252 10.4031
-13 -28 -17 3.3637 -19.0657
-13 -28 -16 -10.6165 13.6233
-13 -28 -15 10.6228 -6.8579
-13 -28 -14 -1.1838 -4.8685
-13 -27 -25 19.0037 14.6054
-13 -27 -24 -1.9277 3.5271
-13 -27 -23 18.0593 9.9921
-13 -27 -22 0.0592 -10.3173
-13 -27 -21 9.8674 -3.2075
-13 -27 -20 -13.3526 -4.6737
-13 -27 -19 19.9788 -28.3727
-13 -27 -18 -25.7574 1.2629
-13 -27 -17 -7.6876 -4.7415
-13 -27 -16 42.1982 -0.2463
-13 -27 -15 -19.3344 39.7063
-13 -27 -14 -8.5407 -0.8578
-13 -26 -25 -12.7905 4.9629
-13 -26 -24 -3.3840 -27.9046
-13 -26 -23 -7.4687 17.2117
-13 -26 -22 -31.4735 10.1366
-13 -26 -21 23.2273 -2.4135
-13 -26 -20 9.9423 -21.5973
-13 -26 -19 -5.6863 -9.8980
-13 -26 -18 14.0306 15.1996
-13 -26 -17 2.9998 39.9128
-13 -26 -16 12.0369 12.8111
-13 -26 -15 -13.7493 -14.6300
-13 -26 -14 -29.1828 29.4369
-13 -25 -24 -29.4915 10.7845
-13 -25 -23 5.6491 20.4505
-13 -25 -22 -4.0612 -3.4465
-13 -25 -21 1.0309 -5.9011
-13 -25 -20 -8.0484 37.3165
-13 -25 -19 -40.3680 4.1992
-13 -25 -18 26.5843 -18.9105
-13 -25 -17 -8.0308 -18.4142
-13 -25 -16 19.9607 -8.1523
-13 -25 -15 -2.7530 4.0346
-13 -25 -14 -8.5431 22.0740
-13 -24 -23 -1.7555 -0.8656
-13 -24 -22 -19.1824 -24.5731
-13 -24 -21 5.0059 11.8765
-13 -24 -20 -7.9276 2.9459
-13 -24 -19 -24.0936 13.7166
-13 -24 -18 -7.8128 1.0987
-13 -24 -17 36.6018 22.5748
-13 -24 -16 -18.9369 -61.1220
-13 -24 -15 -16.1312 -10.8672
-13 -24 -14 -12.6544 -35.6295
-13 -23 -22 -6.8229 39.2183
-13 -23 -21 -5.3711 37.6528
-13 -23 -20 12.1438 -9.1041
-13 -23 -19 -15.2956 5.5477
-13 -23 -18 2.9176 -32.6081
-13 -23 -17 12.9578 2.2971
-13 -23 -16 -5.6372 -1.9651
-13 -23 -15 20.0144 -26.1577
-13 -23 -14 33.1213 22.8494
-13 -22 -21 -5.4670 0.5874
-13 -22 -20 -8.8924 1.8059
-13 -22 -19 23.0339 19.9605
-13 -22 -18 15.2932 -4.8229
-13 -22 -17 -16.8616 -9.8551
-13 -22 -16 -0.7641 -1.5312
-13 -22 -15 17.9719 24.7333
-13 -22 -14 19.9044 14.4951
-13 -21 -20 14.8373 14.4599
-13 -21 -19 5.4487 -4.6311
-13 -21 -18 -21.7885 18.3948
-13 -21 -17 -20.6530 31.1811
-13 -21 -16 17.0119 -7.7419
-13 -21 -15 -2.7325 9.4396
-13 -21 -14 -5.6748 -0.1882
-13 -20 -19 10.2164 21.7969
-13 -20 -18 12.1199 -19.4176
-13 -20 -17 -0.7843 28.4613
-13 -20 -16 -15.2161 8.0976
-13 -20 -15 3.4629 -2.3397
-13 -20 -14 2.8281 -15.6899
-13 -19 -18 32.7292 -33.3644
-13 -19 -17 1.0381 3.3140
-13 -19 -16 24.7513 0.4287
-13 -19 -15 9.5308 -35.4835
-13 -19 -14 19.2878 3.9426
-13 -18 -17 22.6069 1.5412
-13 -18 -16 -3.4432 19.3186
-13 -18 -15 15.3971 18.8765
-13 -18 -14 -4.9667 6.8060
-13 -17 -16 -11.5634 -11.5242
-13 -17 -15 -22.1710 7.7742
-13 -17 -14 -6.8689 -17.1296
-13 -16 -15 9.3546 17.7638
-13 -16 -14 -0.8347 12.0663
-13 -15 -14 -6.5157 -8.6606
-12 -34 -15 -10.4094 -2.5994
-12 -34 -14 -3.9805 -9.5156
-12 -34 -13 -3.1406 -16.3003
-12 -33 -17 14.1025 -9.2478
-12 -33 -16 -7.8652 1.5458
-12 -33 -15 -12.4637 -26.0653
-12 -33 -14 11.3534 -27.5263
-12 -33 -13 10.9879 -1.4762
-12 -32 -19 2.0393 8.4629
-12 -32 -18 3.3230 -9.4150
-12 -32 -17 16.4681 15.1326
-12 -32 -16 1.7290 -2.9045
-12 -32 -15 13.2771 -9.6899
-12 -32 -14 3.1844 11.7061
-12 -32 -13 -3.4788 20.7405
-12 -31 -20 -3.1520 -11.5900
-12 -31 -19 4.9398 -1.1047
-12 -31 -18 -2.5578 1.1200
-12 -31 -17 -1.5086 0.5886
-12 -31 -16 -19.2838 1.4407
-12 -31 -15 5.2257 -14.4022
-12 -31 -14 19.5352 0.6962
-12 -31 -13 -19.2450 5.5264
-12 -30 -22 3.1996 -0.7320
-12 -30 -21 -6.4441 -1.3257
-12 -30 -20 5.0810 -13.3690
-12 -30 -19 1.2728 -13.8811
-12 -30 -18 -30.8275 15.2922
-12 -30 -17 0.5909 5.0811
-12 -30 -16 -10.3475 -18.6957
-12 -30 -15 -3.7703 19.2544
-12 -30 -14 17.2693 14.9043
-12 -30 -13 -8.6068 9.4397
-12 -29 -23 13.8829 11.2940
-12 -29 -22 17.2928 -3.7177
-12 -29 -21 -19.2897 -11.1695
-12 -29 -20 5.7532 9.9553
-12 -29 -19 31.2053 -4.7536
-12 -29 -18 6.2252 -14.6354
-12 -29 -17 13.9223 -9.8705
-12 -29 -16 -5.3965 42.2298
-12 -29 -15 8.8385 0.3431
-12 -29 -14 41.9488 -46.8269
-12 -29 -13 15.4619 27.8787
-12 -28 -24 -18.8470 4.1699
-12 -28 -23 -8.7368 -1.1264
-12 -28 -22 0.1760 -3.0656
-12 -28 -21 -33.2636 -2.2708
-12 -28 -20 25.2537 -12.6301
-12 -28 -19 14.0881 17.8393
-12 -28 -18 0.2524 3.2964
-12 -28 -17 -4.2645 -1.2049
-12 -28 -16 19.5867 -14.2854
-12 -28 -15 -11.0536 -7.3566
-12 -28 -14 35.7266 0.9151
-12 -28 -13 -11.4040 0.9839
-12 -27 -25 9.9733 -4.8925
-12 -27 -24 -20.2506 0.1268
-12 -27 -23 0.0705 -1.5089
-12 -27 -22 14.6670 1.5908
-12 -27 -21 -2.5899 21.2358
-12 -27 -20 10.0462 -12.6821
-12 -27 -19 18.7191 -4.5474
-12 -27 -18 -34.5621 17.5057
-12 -27 -17 -11.3316 20.4693
-12 -27 -16 -12.3032 -22.7623
-12 -27 -15 -22.9991 1.5086
-12 -27 -14 -46.0289 -6.6821
-12 -27 -13 13.1317 6.6226
-12 -26 -25 11.1477 -14.6508
-12 -26 -24 3.0109 -6.0002
-12 -26 -23 14.5681 -19.9474
-12 -26 -22 23.7843 -27.6094
-12 -26 -21 -36.7137 -8.3565
-12 -26 -20 -0.0458 -23.1185
-12 -26 -19 12.1528 -8.9348
-12 -26 -18 6.4876 -6.4625
-12 -26 -17 14.2807 7.0443
-12 -26 -16 -3.1822 -2.9747
-12 -26 -15 0.1026 -20.1557
-12 -26 -14 15.1408 40.4102
-12 -26 -13 -13.1103 13.2175
-12 -25 -24 15.4406 -6.7213
-12 -25 -23 19.1240 25.0932
-12 -25 -22 -10.9964 -34.8835
-12 -25 -21 12.4946 18.2466
-12 -25 -20 11.3882 -31.7279
-12 -25 -19 -1.5047 -7.8734
-12 -25 -18 -9.7555 -19.5473
-12 -25 -17 -2.6961 -7.6997
-12 -25 -16 -18.0392 -33.6410
-12 -25 -15 15.7824 -10.2325
-12 -25 -14 46.9104 -14.6342
-12 -25 -13 3.9265 19.5479
-12 -24 -23 -13.6206 -20.0603
-12 -24 -22 3.6666 3.0374
-12 -24 -21 19.2873 16.3359
-12 -24 -20 11.0761 0.4240
-12 -24 -19 8.4382 -0.0470
-12 -24 -18 -3.7358 4.7172
-12 -24 -17 12.6793 -22.6563
-12 -24 -16 -0.6662 -27.2024
-12 -24 -15 -20.4507 -6.4892
-12 -24 -14 -3.5167 -5.4642
-12 -24 -13 14.8374 1.5030
-12 -23 -22 1.2466 -13.3190
-12 -23 -21 13.5280 5.1814
-12 -23 -20 -22.4286 18.5254
-12 -23 -19 -19.5042 55.7177
-12 -23 -18 13.5099 -17.1577
-12 -23 -17 -21.9918 -6.2343
-12 -23 -16 7.5725 -3.5619
-12 -23 -15 -7.1265 -9.9324
-12 -23 -14 12.6400 2.4586
-12 -23 -13 4.4378 5.2612
-12 -22 -21 -6.9875 -9.2681
-12 -22 -20 -25.8394 -14.1931
-12 -22 -19 13.1125 -33.2712
-12 -22 -18 3.0048 -8.1040
-12 -22 -17 0.8398 17.3166
-12 -22 -16 7.5400 10.9264
-12 -22 -15 4.0805 18.4475
-12 -22 -14 -30.5402 -30.2144
-12 -22 -13 10.3761 18.4848
-12 -21 -20 -5.5475 8.5948
-12 -21 -19 -30.9625 -10.1768
-12 -21 -18 14.1085 8.2437
-12 -21 -17 -8.2295 -14.7122
-12 -21 -16 -24.9322 -13.8424
-12 -21 -15 11.2507 -11.3065
-12 -21 -14 -40.1578 -21.5222
-12 -21 -13 11.9475 5.7898
-12 -20 -19 -41.7910 13.2898
-12 -20 -18 40.0845 -12.0718
-12 -20 -17 -22.5328 23.6018
-12 -20 -16 20.2206 7.5540
-12 -20 -15 19.4245 -24.3878
-12 -20 -14 10.5149 -45.1217
-12 -20 -13 6.4406 -22.7634
-12 -19 -18 -7.8439 12.7763
-12 -19 -17 16.8852 -0.4463
-12 -19 -16 -0.7317 -16.3633
-12 -19 -15 14.8375 14.3476
-12 -19 -14 25.7012 -14.0237
-12 -19 -13 -23.2503 -22.8958
-12 -18 -17 8.3637 -30.9747
-12 -18 -16 -6.7644 9.5443
-12 -18 -15 -12.2584 8.9600
-12 -18 -14 6.4381 15.4145
-12 -18 -13 -0.1001 19.5388
-12 -17 -16 -9.5930 -7.9358
-12 -17 -15 8.0970 25.3670
-12 -17 -14 1.9464 -23.5781
-12 -17 -13 -16.5501 -1.2454
-12 -16 -15 -1.4544 -1.5004
-12 -16 -14 -19.6818 4.2002
-12 -16 -13 23.1328 -16.1097
-12 -15 -14 0.5066 18.9035
-12 -15 -13 -22.1155 3.1746
-12 -14 -13 -6.2921 20.6257
-11 -35 -13 -2.4297 -5.8689
-11 -35 -12 16.2685 5.6068
-11 -34 -15 -3.2223 -7.4826
-11 -34 -14 -14.3279 -11.5570
-11 -34 -13 -0.3227 12.3141
-11 -34 -12 -2.2176 -3.5362
-11 -33 -17 7.3620 11.3118
-11 -33 -16 2.3653 1.1791
-11 -33 -15 -16.2330 -10.9664
-11 -33 -14 -4.0357 -5.5584
-11 -33 -13 -3.1520 -22.6368
-11 -33 -12 -5.2732 -8.2912
-11 -32 -19 1.3636 2.2324
-11 -32 -18 0.7466 2.6369
-11 -32 -17 0.6934 5.4655
-11 -32 -16 5.7340 5.0273
-11 -32 -15 -1.3969 -13.3665
-11 -32 -14 0.4549 -10.0212
-11 -32 -13 26.4574 12.0279
-11 -32 -12 7.9939 16.9103
-11 -31 -21 -5.8677 7.5885
-11 -31 -20 19.8162 -14.2501
-11 -31 -19 4.6428 -8.4421
-11 -31 -18 -3.2755 4.5315
-11 -31 -17 14.6758 -4.6526
-11 -31 -16 -6.3970 0.5008
-11 -31 -15 -10.9206 28.9546
-11 -31 -14 23.6217 -15.1105
-11 -31 -13 -17.1874 -3.5876
-11 -31 -12 -7.0254 -0.1894
-11 -30 -22 7.3470 -1.6692
-11 -30 -21 -4.0393 7.9005
-11 -30 -20 -27.2647 27.1480
-11 -30 -19 -4.6935 1.3541
-11 -30 -18 -2.0827 16.1299
-11 -30 -17 0.4038 4.1286
-11 -30 -16 -23.5704 -15.7144
-11 -30 -15 46.4130 20.1480
-11 -30 -14 14.2122 9.5390
-11 -30 -13 -8.3491 -5.2822
-11 -30 -12 5.4073 -5.0089
-11 -29 -23 1.1392 9.6067
-11 -29 -22 -9.6383 10.9838
-11 -29 -21 4.5361 -0.4203
-11 -29 -20 2.1089 -3.8734
-11 -29 -19 2.4071 -20.9475
-11 -29 -18 6.4233 -11.6889
-11 -29 -17 0.6195 19.6492
-11 -29 -16 -21.5177 13.2442
-11 -29 -15 27.2850 -5.2165
-11 -29 -14 13.6853 -0.0243
-11 -29 -13 -3.7616 -16.8096
-11 -29 -12 -7.6547 15.1941
-11 -28 -25 7.5830 -15.0211
-11 -28 -24 -0.7756 -6.8088
-11 -28 -23 -3.9718 -2.0370
-11 -28 -22 -40.0129 3.1947
-11 -28 -21 -1.7336 -14.1108
-11 -28 -20 21.4882 6.1026
-11 -28 -19 -32.5426 24.2368
-11 -28 -18 -14.9805 -13.6609
-11 -28 -17 2.0070 -1.7941
-11 -28 -16 -7.6934 -43.7543
-11 -28 -15 -58.9347 20.0247
-11 -28 -14 19.6358 2.7731
-11 -28 -13 -17.1036 -4.3372
-11 -28 -12 -6.0129 13.6305
-11 -27 -26 -13.6137 22.7589
-11 -27 -25 3.3686 11.3770
-11 -27 -24 9.2966 -1.8051
-11 -27 -23 8.9434 27.9561
-11 -27 -22 -1.5847 21.3827
-11 -27 -21 -22.2040 14.2022
-11 -27 -20 19.6257 6.1930
-11 -27 -19 -4.8573 10.3750
-11 -27 -18 3.0017 -13.3385
-11 -27 -17 0.0174 -7.0418
-11 -27 -16 2.6622 -9.4162
-11 -27 -15 -19.7737 15.1626
-11 -27 -14 -12.4634 8.6041
-11 -27 -13 16.1268 -27.4611
-11 -27 -12 2.3247 -3.5791
-11 -26 -25 -5.0418 7.8549
-11 -26 -24 1.8906 8.1540
-11 -26 -23 18.2212 3.8831
-11 -26 -22 -0.0913 5.3010
-11 -26 -21 -26.6215 46.1872
-11 -26 -20 -6.1689 9.5323
-11 -26 -19 23.6619 -14.7297
-11 -26 -18 4.2533 15.4644
-11 -26 -17 32.9882 5.5105
-11 -26 -16 -9.7998 -22.2967
-11 -26 -15 -8.5689 30.6799
-11 -26 -14 -14.5640 0.7038
-11 -26 -13 53.5198 -5.6094
-11 -26 -12 -6.9676 -0.0311
-11 -25 -24 -1.4410 3.8168
-11 -25 -23 -29.9255 25.3661
-11 -25 -22 1.9266 25.1697
-11 -25 -21 -3.9495 24.4322
-11 -25 -20 -20.7846 8.6990
-11 -25 -19 -8.3215 -5.7835
-11 -25 -18 -1.1464 29.2297
-11 -25 -17 1.5464 -14.4511
-11 -25 -16 -3.9654 0.2600
-11 -25 -15 -12.8561 14.0214
-11 -25 -14 6.3711 -0.5902
-11 -25 -13 2.0016 17.0484
-11 -25 -12 -3.3186 16.0522
-11 -24 -23 -3.6421 28.7164
-11 -24 -22 -2.6459 3.5439
-11 -24 -21 -17.2703 -30.9082
-11 -24 -20 7.9951 -15.6491
-11 -24 -19 5.6858 -6.0965
-11 -24 -18 40.2621 -21.2437
-11 -24 -17 -5.2764 23.4554
-11 -24 -16 -2.5603 3.4554
-11 -24 -15 18.9358 12.1807
-11 -24 -14 18.8327 26.8023
-11 -24 -13 7.0780 -8.5420
-11 -24 -12 -0.7015 -2.1926
-11 -23 -22 14.1722 -10.1717
-11 -23 -21 2.4626 18.6673
-11 -23 -20 -34.9814 -19.4003
-11 -23 -19 -21.5236 -8.2198
-11 -23 -18 -6.2929 -18.6925
-11 -23 -17 -18.4869 6.0725
-11 -23 -16 -8.4292 -15.6473
-11 -23 -15 -2.0080 -6.8598
-11 -23 -14 25.8594 -22.8197
-11 -23 -13 -1.9786 11.4012
-11 -23 -12 13.0585 -22.0751
-11 -22 -21 16.6653 20.1412
-11 -22 -20 -11.6997 10.8978
-11 -22 -19 23.9087 15.7540
-11 -22 -18 -7.8037 1.5768
-11 -22 -17 11.4038 27.6013
-11 -22 -16 12.2019 17.7857
-11 -22 -15 6.8087 -5.8943
-11 -22 -14 7.5180 3.0345
-11 -22 -13 15.5162 -18.1311
-11 -22 -12 -5.4718 -10.4643
-11 -21 -20 -36.4293 5.7553
-11 -21 -19 -10.6998 1.4076
-11 -21 -18 -21.0305 24.7597
-11 -21 -17 -14.3787 -5.3744
-11 -21 -16 -16.8573 22.1520
-11 -21 -15 8.4327 2.6451
-11 -21 -14 9.3228 4.9531
-11 -21 -13 -13.0742 -6.9614
-11 -21 -12 -25.0000 -13.1924
-11 -20 -19 -8.6392 -9.8171
-11 -20 -18 19.3331 0.6193
-11 -20 -17 -3.8086 7.9635
-11 -20 -16 -5.5301 11.5751
-11 -20 -15 -19.8032 9.0650
-11 -20 -14 3.6243 -2.7642
-11 -20 -13 13.0050 -1.2047
-11 -20 -12 0.3012 -17.9372
-11 -19 -18 19.6172 0.1571
-11 -19 -17 -40.4691 -14.7428
-11 -19 -16 8.8324 17.2305
-11 -19 -15 -4.7003 16.0703
-11 -19 -14 -12.3826 1.8017
-11 -19 -13 25.9766 4.4597
-11 -19 -12 -4.4433 -9.0122
-11 -18 -17 -2.4779 2.3398
-11 -18 -16 0.0247 6.9459
-11 -18 -15 -18.8904 -24.6723
-11 -18 -14 -9.4493 -9.4547
-11 -18 -13 25.8906 20.7834
-11 -18 -12 -12.8340 -11.0928
-11 -17 -16 -7.3155 23.1648
-11 -17 -15 0.3521 -1.9891
-11 -17 -14 -1.7278 10.8380
-11 -17 -13 -9.9462 2.4732
-11 -17 -12 -2.9360 -5.2796
-11 -16 -15 0.6530 4.8623
-11 -16 -14 14.1677 -19.7997
-11 -16 -13 -11.4435 11.6652
-11 -16 -12 -13.0652 -8.5033
-11 -15 -14 22.2325 -22.1382
-11 -15 -13 -20.6033 9.9119
-11 -15 -12 36.1268 -5.9964
-11 -14 -13 -39.1068 -1.5612
-11 -14 -12 -5.6391 -34.0945
-11 -13 -12 6.5764 -18.0693
-10 -36 -11 0.6219 13.2793
-10 -35 -14 -27.8711 -15.4718
-10 -35 -13 6.1592 -7.1620
-10 -35 -12 2.8855 -29.6885
-10 -35 -11 -17.8245 -14.2061
-10 -34 -16 5.9692 -3.7645
-10 -34 -15 -4.7372 -0.7553
-10 -34 -14 10.2973 -8.3881
-10 -34 -13 -3.0216 -9.6391
-10 -34 -12 1.4587 -3.3028
-10 -34 -11 15.2617 -13.2975
-10 -33 -18 10.6594 2.0729
-10 -33 -17 -13.8010 -10.1732
-10 -33 -16 -13.2635 -14.5991
-10 -33 -15 17.9168 10.4853
-10 -33 -14 -3.7180 4.9522
-10 -33 -13 -3.7753 -13.4680
-10 -33 -12 11.3904 1.3555
-10 -33 -11 12.7628 1.8679
-10 -32 -20 -4.6391 11.9258
-10 -32 -19 3.9582 3.4160
-10 -32 -18 6.5780 6.1169
-10 -32 -17 -3.3994 2.9713
-10 -32 -16 8.5629 -24.2146
-10 -32 -15 -1.1151 5.5877
-10 -32 -14 12.0793 5.2542
-10 -32 -13 1.2622 18.9919
-10 -32 -12 14.3552 38.4688
-10 -32 -11 5.6280 9.1521
-10 -31 -21 0.8531 -2.0244
-10 -31 -20 2.4388 -1.6342
-10 -31 -19 21.7558 -2.4492
-10 -31 -18 0.7469 -12.4203
-10 -31 -17 -7.6906 -21.4559
-10 -31 -16 6.4352 22.3847
-10 -31 -15 7.9711 10.6751
-10 -31 -14 -12.9908 -6.1778
-10 -31 -13 8.1910 -15.9776
-10 -31 -12 -43.5637 2.2991
-10 -31 -11 4.0309 8.6669
-10 -30 -23 0.0282 -8.0098
-10 -30 -22 2.6389 -15.4003
-10 -30 -21 5.8702 -8.5852
-10 -30 -20 -5.7129 -18.2102
-10 -30 -19 -13.4671 10.6335
-10 -30 -18 -23.6300 4.0562
-10 -30 -17 -15.7943 -0.3146
-10 -30 -16 4.3618 2.3272
-10 -30 -15 -28.3874 0.3963
-10 -30 -14 -14.1683 -5.9824
-10 -30 -13 16.4391 5.5586
-10 -30 -12 -3.2685 4.4990
-10 -30 -11 15.1264 -27.1594
-10 -29 -24 5.9025 -3.7878
-10 -29 -23 0.2203 -11.1524
-10 -29 -22 -0.7328 2.2777
-10 -29 -21 19.8441 7.3070
-10 -29 -20 -18.7059 -12.4031
-10 -29 -19 15.3914 -23.1574
-10 -29 -18 14.4144 1.4328
-10 -29 -17 7.1241 0.5266
-10 -29 -16 -8.4378 -17.8980
-10 -29 -15 -5.8134 9.4511
-10 -29 -14 -19.0399 -0.3005
-10 -29 -13 1.0635 6.7482
-10 -29 -12 -14.0754 27.1241
-10 -29 -11 -16.0309 -8.4219
-10 -28 -25 8.8049 -10.6865
-10 -28 -24 -7.5565 -8.0865
-10 -28 -23 0.8929 -2.2339
-10 -28 -22 -31.7814 -7.3552
-10 -28 -21 -12.2690 4.0402
-10 -28 -20 -1.8256 12.5965
-10 -28 -19 18.3238 4.3277
-10 -28 -18 -0.8851 11.0941
-10 -28 -17 21.3539 1.0618
-10 -28 -16 10.0420 -40.0219
-10 -28 -15 -6.9580 0.2400
-10 -28 -14 10.1953 0.0050
-10 -28 -13 -10.9076 7.1112
-10 -28 -12 -0.4391 1.1056
-10 -28 -11 -2.7223 4.5868
-10 -27 -26 15.3350 3.4717
-10 -27 -25 9.9483 -8.6972
-10 -27 -24 15.3593 6.7389
-10 -27 -23 6.8952 25.3406
-10 -27 -22 -19.1226 -9.9732
-10 -27 -21 -2.0187 -9.7785
-10 -27 -20 37.1783 15.2366
-10 -27 -19 -7.8713 7.6778
-10 -27 -18 19.5438 -10.8361
-10 -27 -17 11.6045 -10.5086
-10 -27 -16 8.4631 2.3853
-10 -27 -15 10.5499 12.0038
-10 -27 -14 -5.8715 6.0128
-10 -27 -13 -0.2663 -13.2508
-10 -27 -12 -13.1175 -32.8894
-10 -27 -11 -27.4155 8.7554
-10 -26 -25 -5.7040 -22.9216
-10 -26 -24 7.5417 -28.3292
-10 -26 -23 20.4621 1.0157
-10 -26 -22 -11.5527 -13.9014
-10 -26 -21 13.7902 -26.7607
-10 -26 -20 10.5666 -5.2098
-10 -26 -19 -4.1361 -19.4590
-10 -26 -18 17.7582 1.2489
-10 -26 -17 -15.7416 24.5497
-10 -26 -16 36.7915 -9.6954
-10 -26 -15 5.1995 -4.8824
-10 -26 -14 12.1864 6.3888
-10 -26 -13 -16.5276 3.8252
-10 -26 -12 14.6110 -20.5518
-10 -26 -11 27.1429 10.0033
-10 -25 -24 5.0909 -1.4475
-10 -25 -23 14.0216 0.6171
-10 -25 -22 8.0963 -15.8117
-10 -25 -21 6.6557 1.5383
-10 -25 -20 -9.2016 -1.6369
-10 -25 -19 -6.6483 -2.6122
-10 -25 -18 15.7717 -27.5404
-10 -25 -17 -9.1669 13.2503
-10 -25 -16 -50.7273 3.3626
-10 -25 -15 -14.7340 -6.5374
-10 -25 -14 -4.4524 -24.0130
-10 -25 -13 9.0943 5.2738
-10 -25 -12 0.3924 -19.3133
-10 -25 -11 -7.2833 1.3640
-10 -24 -23 2.8628 1.6134
-10 -24 -22 12.2246 -8.4829
-10 -24 -21 8.4916 -6.2264
-10 -24 -20 -7.9522 3.9574
-10 -24 -19 -19.5380 2.5710
-10 -24 -18 -4.0596 -6.8923
-10 -24 -17 9.8255 10.6963
-10 -24 -16 -1.7647 -23.8355
-10 -24 -15 -4.1160 -17.1612
-10 -24 -14 5.4767 -10.9722
-10 -24 -13 1.4427 -2.2634
-10 -24 -12 26.0924 -3.6354
-10 -24 -11 -3.5227 -2.6816
-10 -23 -22 -7.8211 14.7652
-10 -23 -21 -9.6522 -3.1572
-10 -23 -20 17.7486 -25.4878
-10 -23 -19 11.4045 -12.6033
-10 -23 -18 -14.3986 26.5218
-10 -23 -17 -0.2262 -4.4452
-10 -23 -16 -29.6704 1.0871
-10 -23 -15 7.9694 -3.7630
-10 -23 -14 -21.3891 21.8670
-10 -23 -13 6.4436 23.6825
-10 -23 -12 -27.0592 18.1474
-10 -23 -11 -22.4295 0.1037
-10 -22 -21 -0.1969 9.5657
-10 -22 -20 -16.3699 -5.7292
-10 -22 -19 -3.3822 -18.5897
-10 -22 -18 9.5707 11.5067
-10 -22 -17 -12.2866 -1.1698
-10 -22 -16 -2.8266 32.2671
-10 -22 -15 -2.2961 -4.6501
-10 -22 -14 6.7999 -6.0531
-10 -22 -13 4.3079 -22.1508
-10 -22 -12 -15.8566 19.5749
-10 -22 -11 -9.0701 -10.2447
-10 -21 -20 -0.9439 -0.3544
-10 -21 -19 0.1979 9.6069
-10 -21 -18 17.2170 -28.3508
-10 -21 -17 18.1620 -0.8822
-10 -21 -16 -4.9586 -4.4223
-10 -21 -15 2.7682 25.4198
-10 -21 -14 13.3403 -0.5027
-10 -21 -13 -16.2700 -20.0828
-10 -21 -12 7.1475 -5.5749
-10 -21 -11 -8.2207 12.4598
-10 -20 -19 19.6547 -15.4280
-10 -20 -18 25.3677 1.6123
-10 -20 -17 -1.2474 14.1187
-10 -20 -16 -1.4053 4.3664
-10 -20 -15 -5.9869 3.7702
-10 -20 -14 24.9829 2.4862
-10 -20 -13 -4.8695 14.2729
-10 -20 -12 -23.7349 1.9009
-10 -20 -11 6.3341 -13.2073
-10 -19 -18 2.0670 -13.2656
-10 -19 -17 -2.9019 9.6328
-10 -19 -16 4.5091 -1.0755
-10 -19 -15 12.9420 -7.0648
-10 -19 -14 0.5994 13.9851
-10 -19 -13 -5.1014 28.4225
-10 -19 -12 -12.3386 -2.2220
-10 -19 -11 14.5520 -6.5672
-10 -18 -17 -4.5842 -10.3513
-10 -18 -16 -24.9241 19.7336
-10 -18 -15 7.8481 4.6288
-10 -18 -14 -17.0558 4.4873
-10 -18 -13 -5.9039 -18.0457
-10 -18 -12 23.4831 -21.1766
-10 -18 -11 10.2975 4.2097
-10 -17 -16 17.7136 -8.1013
-10 -17 -15 9.6593 -3.7658
-10 -17 -14 8.8189 -14.0165
-10 -17 -13 3.1165 -15.3818
-10 -17 -12 -10.2694 7.9371
-10 -17 -11 8.4201 12.6285
-10 -16 -15 3.5851 -14.5257
-10 -16 -14 12.5223 33.8303
-10 -16 -13 -20.1711 16.7255
-10 -16 -12 -38.8764 5.8388
-10 -16 -11 7.0366 -17.8392
-10 -15 -14 -9.9156 5.8641
-10 -15 -13 16.7434 5.9825
-10 -15 -12 -29.3404 -8.7185
-10 -15 -11 -4.9425 -1.0772
-10 -14 -13 -19.0249 12.9728
-10 -14 -12 15.9214 23.2244
-10 -14 -11 23.5364 -23.1930
-10 -13 -12 -11.4831 20.1212
-10 -13 -11 -21.1545 -6.1468
-10 -12 -11 -17.1183 -10.6510
-9 -36 -12 7.7834 -3.7605
-9 -36 -11 -13.8402 3.8534
-9 -36 -10 11.6461 -11.4631
-9 -35 -15 -2.7272 -4.4871
-9 -35 -14 3.8739 3.2055
-9 -35 -13 -12.1832 -1.5805
-9 -35 -12 -5.3596 -15.2616
-9 -35 -11 -9.7586 -0.4877
-9 -35 -10 3.9144 -12.4671
-9 -34 -17 6.8849 -1.3889
-9 -34 -16 -15.8920 6.6013
-9 -34 -15 -6.2622 -1.5055
-9 -34 -14 5.4273 13.3557
-9 -34 -13 -4.6304 9.8457
-9 -34 -12 13.2213 -2.4099
-9 -34 -11 11.9271 4.7994
-9 -34 -10 -10.8708 -19.9412
-9 -33 -19 -7.2176 6.3100
-9 -33 -18 -8.9928 8.6904
-9 -33 -17 -2.5603 -9.6799
-9 -33 -16 -1.7934 4.4261
-9 -33 -15 -9.0556 1.7011
-9 -33 -14 11.0205 -1.5412
-9 -33 -13 -0.8030 6.1527
-9 -33 -12 -16.8488 9.5039
-9 -33 -11 7.2004 0.8243
-9 -33 -10 9.0301 3.1944
-9 -32 -20 1.6877 -1.1324
-9 -32 -19 5.8015 -0.1324
-9 -32 -18 -9.3226 6.9238
-9 -32 -17 -2.1960 23.6128
-9 -32 -16 -7.9799 21.9160
-9 -32 -15 -0.1207 5.8303
-9 -32 -14 0.9648 19.7967
-9 -32 -13 11.4921 5.6895
-9 -32 -12 -2.1143 4.9034
-9 -32 -11 8.3189 -30.5775
-9 -32 -10 17.9916 1.7642
-9 -31 -22 12.5418 7.2270
-9 -31 -21 -3.6275 3.1833
-9 -31 -20 -3.7026 1.8977
-9 -31 -19 13.5263 -3.7057
-9 -31 -18 -16.8119 -3.9207
-9 -31 -17 -10.8490 -0.7162
-9 -31 -16 27.2588 -13.1703
-9 -31 -15 -0.8522 -0.9651
-9 -31 -14 4.2447 -2.8928
-9 -31 -13 -12.6147 25.3441
-9 -31 -12 19.2492 -6.2279
-9 -31 -11 -4.3643 -4.3778
-9 -31 -10 3.2607 -7.3223
-9 -30 -23 4.4176 11.2550
-9 -30 -22 -3.6536 14.6366
-9 -30 -21 -1.5660 -1.1971
-9 -30 -20 14.9912 -13.6269
-9 -30 -19 -7.8405 9.9213
-9 -30 -18 5.9336 24.6385
-9 -30 -17 6.7957 -19.6939
-9 -30 -16 9.2745 17.3295
-9 -30 -15 -23.8244 1.4501
-9 -30 -14 -17.2699 6.7732
-9 -30 -13 -30.8234 8.4205
-9 -30 -12 -5.2085 -22.7514
-9 -30 -11 10.1049 -15.8427
-9 -30 -10 6.6185 -1.7030
-9 -29 -24 8.1025 -2.3516
-9 -29 -23 8.2118 -10.6942
-9 -29 -22 0.8085 -3.7034
-9 -29 -21 -0.6288 -5.8005
-9 -29 -20 -5.7528 17.0433
-9 -29 -19 -7.0172 0.8197
-9 -29 -18 -8.3709 -16.5085
-9 -29 -17 6.4415 25.1064
-9 -29 -16 21.9091 14.1970
-9 -29 -15 28.6037 6.6675
-9 -29 -14 -6.2197 4.2775
-9 -29 -13 11.2112 -23.5799
-9 -29 -12 5.1351 7.3494
-9 -29 -11 48.7078 17.5523
-9 -29 -10 -12.5554 0.2673
-9 -28 -25 -6.2740 -5.1074
-9 -28 -24 9.4383 8.8536
-9 -28 -23 -4.3723 23.7097
-9 -28 -22 0.7906 -9.9004
-9 -28 -21 -33.5447 -6.7582
-9 -28 -20 -8.9050 5.7857
-9 -28 -19 -17.7295 -13.1760
-9 -28 -18 -10.7693 -6.8976
-9 -28 -17 -18.5485 -9.8667
-9 -28 -16 -16.2679 22.2782
-9 -28 -15 19.4018 -16.7161
-9 -28 -14 19.3993 -19.5778
-9 -28 -13 29.2670 4.0698
-9 -28 -12 25.2840 -13.9253
-9 -28 -11 9.9058 -14.4434
-9 -28 -10 25.0336 -11.3831
-9 -27 -26 8.1533 1.5147
-9 -27 -25 -9.5401 14.0802
-9 -27 -24 -23.2136 -8.9713
-9 -27 -23 12.8484 12.9152
-9 -27 -22 1.8473 17.9002
-9 -27 -21 2.9422 39.3480
-9 -27 -20 9.0774 5.6618
-9 -27 -19 -17.1395 38.9428
-9 -27 -18 -29.2924 -6.0496
-9 -27 -17 -3.2513 -7.2174
-9 -27 -16 16.7132 2.5909
-9 -27 -15 -18.5032 5.7541
-9 -27 -14 -1.9172 0.3725
-9 -27 -13 -26.0346 -19.5005
-9 -27 -12 21.6813 -2.5715
-9 -27 -11 16.5277 -3.8831
-9 -27 -10 -8.8574 -19.7401
-9 -26 -25 -3.8695 3.4021
-9 -26 -24 -2.0628 5.8165
-9 -26 -23 -28.3440 -21.6382
-9 -26 -22 -30.9399 11.7236
-9 -26 -21 2.8352 17.3711
-9 -26 -20 -9.4279 -19.9870
-9 -26 -19 15.3361 48.3635
-9 -26 -18 6.0417 -15.7750
-9 -26 -17 37.1867 46.8903
-9 -26 -16 -2.2494 -15.8921
-9 -26 -15 15.5472 -0.9586
-9 -26 -14 -5.5665 -17.8363
-9 -26 -13 -14.7757 21.1578
-9 -26 -12 -15.8386 1.6128
-9 -26 -11 34.5986 18.6314
-9 -26 -10 28.0902 -22.2940
-9 -25 -24 -8.5886 -5.4446
-9 -25 -23 8.6993 -2.2242
-9 -25 -22 -6.9799 -4.8533
-9 -25 -21 -16.1386 2.8268
-9 -25 -20 13.3563 5.4392
-9 -25 -19 0.6251 25.4613
-9 -25 -18 -3.4866 4.0392
-9 -25 -17 -16.9081 22.6127
-9 -25 -16 9.4451 -8.4586
-9 -25 -15 -22.1773 6.6200
-9 -25 -14 -18.2841 -1.0588
-9 -25 -13 5.1608 -3.5055
-9 -25 -12 9.9261 13.8715
-9 -25 -11 4.6424 -0.7698
-9 -25 -10 13.0343 -0.1286
-9 -24 -23 -15.3394 0.9514
-9 -24 -22 2.2357 6.9233
-9 -24 -21 13.2205 -0.5593
-9 -24 -20 15.5338 0.2089
-9 -24 -19 -10.7244 -18.3688
-9 -24 -18 13.8505 0.6295
-9 -24 -17 5.5425 -2.8096
-9 -24 -16 -15.3976 -4.0590
-9 -24 -15 -17.5728 -17.0749
-9 -24 -14 1.3696 2.5063
-9 -24 -13 -0.0404 -6.8652
-9 -24 -12 28.8601 -6.5313
-9 -24 -11 1.8541 -12.0430
-9 -24 -10 26.7714 35.0823
-9 -23 -22 23.4935 7.2565
-9 -23 -21 -10.4435 -5.1359
-9 -23 -20 30.9619 12.9522
-9 -23 -19 29.6988 -31.8147
-9 -23 -18 12.3565 11.3204
-9 -23 -17 0.8693 5.4212
-9 -23 -16 7.3150 -8.8476
-9 -23 -15 12.4944 -14.3934
-9 -23 -14 -5.9372 -5.6534
-9 -23 -13 -0.1653 -0.6535
-9 -23 -12 -15.7359 -0.4375
-9 -23 -11 10.8261 -5.3319
-9 -23 -10 2.2494 4.7045
-9 -22 -21 -3.7134 -7.7571
-9 -22 -20 -7.0364 2.2731
-9 -22 -19 16.0858 25.0259
-9 -22 -18 0.5027 16.9029
-9 -22 -17 6.8593 -10.3394
-9 -22 -16 -4.9738 -1.9186
-9 -22 -15 25.5655 -14.2262
-9 -22 -14 -5.2571 8.8565
-9 -22 -13 -10.8861 24.7831
-9 -22 -12 -1.3283 9.3994
-9 -22 -11 8.5043 -7.5097
-9 -22 -10 14.0633 7.9696
-9 -21 -20 -6.6417 -14.4970
-9 -21 -19 -8.9888 1.0490
-9 -21 -18 4.7581 -1.2819
-9 -21 -17 -2.1407 12.8284
-9 -21 -16 -7.9955 -0.4608
-9 -21 -15 -16.1217 -9.3255
-9 -21 -14 15.0866 5.2803
-9 -21 -13 -2.6907 -12.6790
-9 -21 -12 6.4183 11.0376
-9 -21 -11 8.1225 -12.2786
-9 -21 -10 5.8387 8.7714
-9 -20 -19 -5.7525 26.5122
-9 -20 -18 3.0503 -0.0299
-9 -20 -17 -37.5755 -22.7550
-9 -20 -16 3.1875 -9.2701
-9 -20 -15 -32.7619 -1.6381
-9 -20 -14 -33.9907 2.2810
-9 -20 -13 10.0582 5.1258
-9 -20 -12 13.6561 6.5509
-9 -20 -11 -2.1809 -3.2198
-9 -20 -10 10.2054 11.5655
-9 -19 -18 5.5186 18.4682
-9 -19 -17 -12.3078 -17.6480
-9 -19 -16 -20.7187 -7.3356
-9 -19 -15 -0.8107 -8.9213
-9 -19 -14 9.6437 1.0276
-9 -19 -13 -3.4719 26.7399
-9 -19 -12 23.2593 -30.0960
-9 -19 -11 3.7478 30.5090
-9 -19 -10 21.0519 -21.6476
-9 -18 -17 -9.4044 -12.1441
-9 -18 -16 -6.4384 -18.9116
-9 -18 -15 9.8052 -2.2072
-9 -18 -14 -1.4897 -13.0245
-9 -18 -13 6.7352 -8.7772
-9 -18 -12 -31.6449 8.5577
-9 -18 -11 3.5885 8.0870
-9 -18 -10 3.0795 -7.0904
-9 -17 -16 -1.5018 8.7795
-9 -17 -15 7.4888 -2.3278
-9 -17 -14 -10.1489 11.4445
-9 -17 -13 23.4840 -28.1875
-9 -17 -12 -7.5189 7.7816
-9 -17 -11 18.8454 5.4546
-9 -17 -10 -21.0826 18.7311
-9 -16 -15 39.5753 15.2291
-9 -16 -14 19.6157 -4.1563
-9 -16 -13 2.0987 -7.1744
-9 -16 -12 -5.6348 26.8391
-9 -16 -11 10.7837 2.9664
-9 -16 -10 8.0482 22.4769
-9 -15 -14 -18.5897 -1.8447
-9 -15 -13 -10.7791 2.9514
-9 -15 -12 -45.2033 11.8063
-9 -15 -11 -35.5711 -0.7509
-9 -15 -10 -6.9893 -6.7619
-9 -14 -13 5.3905 -36.3420
-9 -14 -12 18.3951 -37.3327
-9 -14 -11 -4.3051 9.1633
-9 -14 -10 -33.5272 28.9659
-9 -13 -12 -14.2000 -20.4705
-9 -13 -11 -13.2603 56.2165
-9 -13 -10 0.9155 -20.0034
-9 -12 -11 -16.6296 -41.6529
-9 -12 -10 -2.1488 -11.9158
-9 -11 -10 -9.2213 -25.7024
-8 -37 -9 -9.1261 0.4382
-8 -36 -13 -10.5262 1.8672
-8 -36 -12 -5.3954 5.0759
-8 -36 -11 20.8128 -2.8073
-8 -36 -10 16.6168 -16.1951
-8 -36 -9 -9.0568 -11.0106
-8 -35 -15 12.2121 2.0902
-8 -35 -14 13.8720 0.7222
-8 -35 -13 5.1130 16.8252
-8 -35 -12 -9.0011 5.6123
-8 -35 -11 -1.5793 0.5160
-8 -35 -10 21.7278 -2.5386
-8 -35 -9 -6.1430 -1.2323
-8 -34 -17 14.1823 0.4854
-8 -34 -16 3.1516 2.6849
-8 -34 -15 0.8322 -9.0567
-8 -34 -14 1.4877 8.1128
-8 -34 -13 -23.2093 8.3029
-8 -34 -12 -10.3436 0.9825
-8 -34 -11 -8.5616 2.0701
-8 -34 -10 5.8884 9.1533
-8 -34 -9 23.2024 -1.0588
-8 -33 -19 5.3449 0.3792
-8 -33 -18 3.0533 -6.0013
-8 -33 -17 -0.2270 14.9727
-8 -33 -16 -10.1322 0.6715
-8 -33 -15 3.6253 -5.5663
-8 -33 -14 -4.4037 4.4011
-8 -33 -13 7.4018 6.4872
-8 -33 -12 -20.9378 -12.4358
-8 -33 -11 -11.7143 -7.8728
-8 -33 -10 7.5514 15.7785
-8 -33 -9 10.2754 -1.5964
-8 -32 -21 5.2034 1.7263
-8 -32 -20 -1.1634 5.6088
-8 -32 -19 -4.1427 -2.3693
-8 -32 -18 -6.1049 -16.3200
-8 -32 -17 -8.6871 -6.6517
-8 -32 -16 -7.3276 -3.4356
-8 -32 -15 -14.6532 -13.1385
-8 -32 -14 -11.8029 9.4393
-8 -32 -13 6.7717 -11.4506
-8 -32 -12 -15.3067 -21.8564
-8 -32 -11 -22.8826 -8.0117
-8 -32 -10 -8.1572 0.4352
-8 -32 -9 -12.5386 12.7465
-8 -31 -22 -1.8519 -24.9667
-8 -31 -21 -0.4939 -9.3989
-8 -31 -20 4.6613 17.1384
-8 -31 -19 -2.0303 -9.4339
-8 -31 -18 -16.0591 0.4145
-8 -31 -17 -26.7405 -11.8246
-8 -31 -16 10.3822 14.1198
-8 -31 -15 -1.5320 -25.5757
-8 -31 -14 4.8691 6.9031
-8 -31 -13 -24.2055 -2.9870
-8 -31 -12 4.0056 17.9243
-8 -31 -11 -24.0490 -3.1074
-8 -31 -10 -6.9489 -29.6780
-8 -31 -9 21.5645 16.9596
-8 -30 -23 -4.6101 -7.0045
-8 -30 -22 -4.3116 10.8942
-8 -30 -21 -1.3648 -7.5531
-8 -30 -20 7.3645 -15.3397
-8 -30 -19 3.0713 1.8428
-8 -30 -18 -3.0170 -3.2775
-8 -30 -17 5.1387 -17.3008
-8 -30 -16 -5.6124 -12.8958
-8 -30 -15 -4.6102 23.7505
-8 -30 -14 12.5296 12.3532
-8 -30 -13 -14.6673 1.8582
-8 -30 -12 -19.4007 38.6108
-8 -30 -11 -7.9464 15.4131
-8 -30 -10 2.5466 -22.8528
-8 -30 -9 -7.9668 -18.9383
-8 -29 -25 1.8113 9.8741
-8 -29 -24 -3.0303 -5.9900
-8 -29 -23 6.8131 3.9267
-8 -29 -22 20.2710 -10.9746
-8 -29 -21 19.3955 -12.8279
-8 -29 -20 14.5766 1.0245
-8 -29 -19 -9.3883 9.1099
-8 -29 -18 2.3939 -8.3998
-8 -29 -17 -14.1945 15.7683
-8 -29 -16 -4.2138 -12.6465
-8 -29 -15 9.9881 -6.1169
-8 -29 -14 -5.7438 -16.3780
-8 -29 -13 -10.1015 -21.2339
-8 -29 -12 -2.4036 31.0002
-8 -29 -11 0.9287 25.5786
-8 -29 -10 -31.1816 21.2760
-8 -29 -9 41.6118 6.1220
-8 -28 -26 4.1392 -12.7001
-8 -28 -25 6.0173 6.3062
-8 -28 -24 -9.3047 9.2674
-8 -28 -23 12.6629 6.4648
-8 -28 -22 6.7694 -2.3966
-8 -28 -21 22.4150 0.2119
-8 -28 -20 20.9861 -1.5474
-8 -28 -19 -17.2818 2.2965
-8 -28 -18 -5.5933 22.6000
-8 -28 -17 -9.4758 -19.1832
-8 -28 -16 -51.1535 -21.7856
-8 -28 -15 1.9046 -15.4430
-8 -28 -14 -27.9740 -5.6845
-8 -28 -13 12.6228 -10.4076
-8 -28 -12 -8.6881 1.4416
-8 -28 -11 -13.9237 -4.1230
-8 -28 -10 -4.8143 -35.0487
-8 -28 -9 24.6628 2.4304
-8 -27 -26 -4.4149 5.0953
-8 -27 -25 -4.4256 -5.8327
-8 -27 -24 36.4560 -10.4197
-8 -27 -23 -1.4054 -15.4315
-8 -27 -22 17.2767 0.8991
-8 -27 -21 -2.8982 -14.3532
-8 -27 -20 6.1850 -24.5600
-8 -27 -19 -19.3156 15.2429
-8 -27 -18 19.0951 -2.1918
-8 -27 -17 2.8867 11.0103
-8 -27 -16 -1.4374 -2.9248
-8 -27 -15 0.4520 4.1386
-8 -27 -14 23.2261 0.6139
-8 -27 -13 -8.6244 1.0501
-8 -27 -12 -13.5518 9.0224
-8 -27 -11 16.1355 36.6414
-8 -27 -10 -8.2357 4.1749
-8 -27 -9 0.4341 14.1336
-8 -26 -25 -21.2109 26.8015
-8 -26 -24 8.8986 -12.2834
-8 -26 -23 18.0506 -6.0814
-8 -26 -22 9.4211 -33.1330
-8 -26 -21 -6.1940 22.9874
-8 -26 -20 3.5260 2.4829
-8 -26 -19 23.0917 5.4331
-8 -26 -18 7.0193 2.4751
-8 -26 -17 -14.1869 23.2747
-8 -26 -16 8.2296 -20.8211
-8 -26 -15 1.9789 3.6154
-8 -26 -14 -3.6065 20.1205
-8 -26 -13 14.9373 -6.1764
-8 -26 -12 -10.7018 2.2200
-8 -26 -11 2.4524 3.5627
-8 -26 -10 -1.7388 18.6592
-8 -26 -9 -22.0237 -32.4061
-8 -25 -24 -10.1944 17.1026
-8 -25 -23 7.6419 17.6903
-8 -25 -22 9.3334 -24.1618
-8 -25 -21 13.6983 17.7977
-8 -25 -20 -8.1418 -0.7231
-8 -25 -19 22.0587 16.0762
-8 -25 -18 -29.1246 -5.1794
-8 -25 -17 -2.1216 1.5043
-8 -25 -16 -10.4733 -18.6649
-8 -25 -15 -32.1875 -3.4650
-8 -25 -14 21.0419 36.6965
-8 -25 -13 -0.3017 -15.3546
-8 -25 -12 -31.7764 -9.9865
-8 -25 -11 -9.9114 -9.1040
-8 -25 -10 13.5200 -9.0812
-8 -25 -9 2.7820 0.0751
-8 -24 -23 -23.1938 -14.4178
-8 -24 -22 -31.3716 -7.1371
-8 -24 -21 -2.8598 -15.2989
-8 -24 -20 15.6064 18.7918
-8 -24 -19 -20.1670 30.4962
-8 -24 -18 4.8024 5.5738
-8 -24 -17 -7.6702 0.3428
-8 -24 -16 -22.2741 14.2123
-8 -24 -15 -27.6913 0.1230
-8 -24 -14 8.1151 3.7667
-8 -24 -13 8.8551 0.0613
-8 -24 -12 6.1685 -4.6599
-8 -24 -11 -9.4419 13.0858
-8 -24 -10 23.7626 -5.2241
-8 -24 -9 -20.9334 17.5120
-8 -23 -22 14.3149 15.0265
-8 -23 -21 12.7950 19.1615
-8 -23 -20 -10.5349 -0.5253
-8 -23 -19 -11.7680 -0.6849
-8 -23 -18 -56.4041 -9.8509
-8 -23 -17 -19.6351 -2.5079
-8 -23 -16 15.2677 -16.0386
-8 -23 -15 -0.5377 -17.1796
-8 -23 -14 2.1781 -20.3977
-8 -23 -13 18.9614 -3.9979
-8 -23 -12 9.0862 -10.2175
-8 -23 -11 -7.1898 -3.6918
-8 -23 -10 16.1837 4.7699
-8 -23 -9 -10.8658 9.6913
-8 -22 -21 13.5693 -12.0878
-8 -22 -20 11.0700 -9.9597
-8 -22 -19 17.4873 6.3405
-8 -22 -18 1.6056 6.8137
-8 -22 -17 2.2018 14.0554
-8 -22 -16 14.0013 -3.4033
-8 -22 -15 -0.2289 -13.5142
-8 -22 -14 14.1716 16.1601
-8 -22 -13 -8.0525 26.9115
-8 -22 -12 -12.9836 6.9434
-8 -22 -11 4.3862 20.3197
-8 -22 -10 18.5793 -2.1103
-8 -22 -9 -11.3992 0.0828
-8 -21 -20 9.3455 17.8916
-8 -21 -19 7.2717 27.5605
-8 -21 -18 -28.1751 5.6531
-8 -21 -17 -9.6764 -4.0174
-8 -21 -16 -3.5183 8.6800
-8 -21 -15 6.2190 -3.2096
-8 -21 -14 -2.4408 28.4988
-8 -21 -13 4.1699 23.1265
-8 -21 -12 -4.6248 -0.6176
-8 -21 -11 -12.2008 -1.6612
-8 -21 -10 4.9390 -1.0031
-8 -21 -9 7.4343 5.3112
-8 -20 -19 5.8772 -14.1742
-8 -20 -18 -2.2355 6.5400
-8 -20 -17 7.7791 8.0652
-8 -20 -16 3.4062 3.8931
-8 -20 -15 5.2196 -11.6417
-8 -20 -14 -5.2227 7.3678
-8 -20 -13 -25.5450 10.1067
-8 -20 -12 -6.7753 11.8517
-8 -20 -11 2.8220 -2.8431
-8 -20 -10 -2.7641 -23.5662
-8 -20 -9 14.7091 7.7306
-8 -19 -18 -11.7270 21.2633
-8 -19 -17 -7.3913 -30.3987
-8 -19 -16 -9.9453 -6.0894
-8 -19 -15 -0.0807 -3.7198
-8 -19 -14 -5.9014 0.2724
-8 -19 -13 -4.2784 4.4549
-8 -19 -12 7.8865 -11.2096
-8 -19 -11 2.6668 -16.6809
-8 -19 -10 16.0582 11.8612
-8 -19 -9 0.4413 -16.4481
-8 -18 -17 11.1218 7.3076
-8 -18 -16 2.4190 12.2897
-8 -18 -15 5.0938 -0.4265
-8 -18 -14 5.4593 -11.0444
-8 -18 -13 3.7750 1.3010
-8 -18 -12 1.6226 -24.9333
-8 -18 -11 -6.4947 20.7877
-8 -18 -10 -15.8417 8.5364
-8 -18 -9 12.2173 -7.7203
-8 -17 -16 6.8447 1.9027
-8 -17 -15 -19.0470 12.0095
-8 -17 -14 -4.4996 -4.0784
-8 -17 -13 -6.9488 -14.8330
-8 -17 -12 -7.1624 -16.9759
-8 -17 -11 -22.8189 10.5446
-8 -17 -10 0.4802 6.1711
-8 -17 -9 23.9521 -16.2273
-8 -16 -15 -17.4833 -10.1881
-8 -16 -14 -45.2477 24.4539
-8 -16 -13 13.6616 20.8285
-8 -16 -12 15.4470 -25.4488
-8 -16 -11 0.6298 21.4727
-8 -16 -10 -37.4036 2.7698
-8 -16 -9 17.3211 -30.4933
-8 -15 -14 1.3253 18.9718
-8 -15 -13 18.2676 -6.4968
-8 -15 -12 11.0585 8.5472
-8 -15 -11 27.1623 16.3553
-8 -15 -10 7.6672 7.5205
-8 -15 -9 4.2946 4.4852
-8 -14 -13 11.5611 -11.7967
-8 -14 -12 -16.8386 -12.9958
-8 -14 -11 22.7190 -22.0591
-8 -14 -10 55.7430 12.5593
-8 -14 -9 7.9444 46.1798
-8 -13 -12 30.5984 19.3470
-8 -13 -11 -14.8264 36.3834
-8 -13 -10 -16.4737 51.6552
-8 -13 -9 -44.1558 -46.8166
-8 -12 -11 24.2137 36.4564
-8 -12 -10 16.4951 -32.8145
-8 -12 -9 -36.5857 51.4605
-8 -11 -10 0.9910 2.4341
-8 -11 -9 22.1295 -21.6989
-8 -10 -9 10.1120 -42.5800
-7 -37 -10 0.6392 -9.2696
-7 -37 -9 5.6348 3.3971
-7 -37 -8 -23.2700 0.0612
-7 -36 -13 -2.7737 7.2590
-7 -36 -12 -1.9224 2.1817
-7 -36 -11 1.0220 -1.5154
-7 -36 -10 -0.0423 3.9261
-7 -36 -9 -18.9279 -19.7388
-7 -36 -8 12.9558 5.1395
-7 -35 -16 9.5966 4.5002
-7 -35 -15 1.3547 0.3557
-7 -35 -14 2.4532 7.4794
-7 -35 -13 -1.9249 -9.2857
-7 -35 -12 -5.9260 -9.1711
-7 -35 -11 -8.2117 2.7171
-7 -35 -10 -11.4036 6.6158
-7 -35 -9 -3.4255 17.1844
-7 -35 -8 5.5115 -20.4889
-7 -34 -18 4.8161 -2.4221
-7 -34 -17 4.3705 -3.2887
-7 -34 -16 10.6069 -10.1450
-7 -34 -15 1.5998 -6.3937
-7 -34 -14 4.8457 10.3501
-7 -34 -13 18.8616 9.4487
-7 -34 -12 -12.6144 -3.0080
-7 -34 -11 -20.7154 1.4838
-7 -34 -10 -4.4059 -15.1881
-7 -34 -9 -6.2982 6.1528
-7 -34 -8 -1.0507 2.8104
-7 -33 -19 -4.8450 13.3692
-7 -33 -18 -15.2285 12.6401
-7 -33 -17 -5.9317 -6.5398
-7 -33 -16 -0.5158 3.3332
-7 -33 -15 7.0066 8.0789
-7 -33 -14 14.1930 -18.0312
-7 -33 -13 22.3738 -1.3170
-7 -33 -12 -25.5519 -0.2708
-7 -33 -11 -9.3217 -27.7373
-7 -33 -10 9.8610 8.2108
-7 -33 -9 5.7331 -0.8747
-7 -33 -8 23.9314 4.0200
-7 -32 -21 5.6869 0.8259
-7 -32 -20 -5.4267 -7.5628
-7 -32 -19 4.6789 -13.6786
-7 -32 -18 11.2004 6.1658
-7 -32 -17 -10.0713 -2.5820
-7 -32 -16 -0.7429 8.0024
-7 -32 -15 7.1461 -9.0155
-7 -32 -14 0.2097 -3.4932
-7 -32 -13 -0.3903 -7.7269
-7 -32 -12 4.1917 -0.7736
-7 -32 -11 -6.1018 -16.2860
-7 -32 -10 -6.3963 -0.6233
-7 -32 -9 -31.5798 -17.4953
-7 -32 -8 -4.5310 16.1139
-7 -31 -22 -1.1012 9.1542
-7 -31 -21 0.4203 -1.1351
-7 -31 -20 1.1054 7.0018
-7 -31 -19 -9.0376 -3.8074
-7 -31 -18 -0.9905 2.0964
-7 -31 -17 7.7979 14.5110
-7 -31 -16 8.7872 8.1808
-7 -31 -15 11.8878 -7.7092
-7 -31 -14 -3.8684 -14.7357
-7 -31 -13 -12.7192 -18.4559
-7 -31 -12 -13.3322 15.0197
-7 -31 -11 -18.9037 13.8954
-7 -31 -10 3.9132 -9.5929
-7 -31 -9 -5.5655 13.1857
-7 -31 -8 6.3581 1.4776
-7 -30 -24 -3.0652 11.1070
-7 -30 -23 -5.9264 -11.2027
-7 -30 -22 -4.4347 6.8495
-7 -30 -21 12.6882 8.1312
-7 -30 -20 -3.3585 -14.5475
-7 -30 -19 -18.4254 7.5028
-7 -30 -18 31.4550 12.9791
-7 -30 -17 11.0836 2.6661
-7 -30 -16 5.9924 -31.8218
-7 -30 -15 0.3242 -16.3097
-7 -30 -14 -17.5217 2.3780
-7 -30 -13 13.3060 -7.5173
-7 -30 -12 6.4675 -6.3765
-7 -30 -11 -3.6176 -2.5190
-7 -30 -10 8.0748 -17.4438
-7 -30 -9 -13.3038 9.0398
-7 -30 -8 17.1462 -8.7406
-7 -29 -25 -0.4373 -24.5927
-7 -29 -24 7.1476 -4.8592
-7 -29 -23 1.5570 16.0008
-7 -29 -22 0.3687 14.3340
-7 -29 -21 15.3952 2.5301
-7 -29 -20 -6.8360 2.1170
-7 -29 -19 8.6458 -12.8986
-7 -29 -18 1.8773 5.7967
-7 -29 -17 17.0616 -2.7619
-7 -29 -16 22.0098 -1.0447
-7 -29 -15 31.8616 4.3906
-7 -29 -14 -6.0060 27.6825
-7 -29 -13 27.2521 -25.8596
-7 -29 -12 7.9891 -6.4290
-7 -29 -11 4.0056 21.7996
-7 -29 -10 -14.4935 40.5899
-7 -29 -9 -13.1335 22.8736
-7 -29 -8 39.2568 1.8672
-7 -28 -26 -11.2537 11.3671
-7 -28 -25 4.5282 16.3569
-7 -28 -24 21.0017 -12.7648
-7 -28 -23 4.1642 2.7237
-7 -28 -22 11.4730 -8.4840
-7 -28 -21 -25.3692 10.9528
-7 -28 -20 -7.8810 14.9353
-7 -28 -19 -7.0326 9.8558
-7 -28 -18 -0.7850 -20.8924
-7 -28 -17 2.6373 24.8242
-7 -28 -16 27.9472 13.4052
-7 -28 -15 -3.0278 -15.8485
-7 -28 -14 -12.6402 30.2736
-7 -28 -13 9.4756 -9.8119
-7 -28 -12 31.4683 -5.4462
-7 -28 -11 37.9530 -3.9266
-7 -28 -10 -14.2102 -3.9309
-7 -28 -9 19.7751 -19.9228
-7 -28 -8 6.4991 7.0475
-7 -27 -26 -0.5553 -1.4747
-7 -27 -25 -8.0506 -6.1910
-7 -27 -24 8.4986 -1.2511
-7 -27 -23 -33.0177 9.3982
-7 -27 -22 -4.8706 -13.4054
-7 -27 -21 11.5087 -32.7071
-7 -27 -20 5.7177 24.1656
-7 -27 -19 -18.4597 -23.1098
-7 -27 -18 -0.2691 -11.9855
-7 -27 -17 -6.2677 3.9983
-7 -27 -16 -6.7786 -17.3378
-7 -27 -15 -18.9433 19.1679
-7 -27 -14 -26.1352 2.6382
-7 -27 -13 23.6471 5.6415
-7 -27 -12 0.0200 -21.8732
-7 -27 -11 6.2236 18.9989
-7 -27 -10 12.1417 0.7847
-7 -27 -9 20.1840 -6.1353
-7 -27 -8 6.1165 16.9485
-7 -26 -25 -29.5717 -5.8584
-7 -26 -24 -9.8278 -40.5137
-7 -26 -23 -19.7542 13.1402
-7 -26 -22 -22.2788 -19.7954
-7 -26 -21 8.3684 23.4673
-7 -26 -20 6.9271 -6.5745
-7 -26 -19 -8.0324 -2.4313
-7 -26 -18 9.8791 0.4511
-7 -26 -17 10.8220 -1.3390
-7 -26 -16 -0.2426 -18.7993
-7 -26 -15 13.4911 22.9232
-7 -26 -14 1.9808 -1.9662
-7 -26 -13 -2.6269 21.0210
-7 -26 -12 -47.3766 -18.4544
-7 -26 -11 0.3388 0.5799
-7 -26 -10 -10.6836 16.7239
-7 -26 -9 -3.8975 -2.0762
-7 -26 -8 -35.2193 7.7692
-7 -25 -24 -11.4352 -2.5051
-7 -25 -23 -8.5399 -15.3789
-7 -25 -22 10.0370 4.7828
-7 -25 -21 6.4497 14.1752
-7 -25 -20 -29.4401 -31.3967
-7 -25 -19 12.1349 -21.9564
-7 -25 -18 55.1968 -27.7573
-7 -25 -17 -25.0497 -12.6648
-7 -25 -16 -44.4406 11.2099
-7 -25 -15 7.3651 -0.4992
-7 -25 -14 -1.2697 -1.5125
-7 -25 -13 -12.5336 9.4196
-7 -25 -12 -0.7233 -12.3891
-7 -25 -11 3.9925 -31.3610
-7 -25 -10 -6.5520 -15.5676
-7 -25 -9 12.0586 32.7530
-7 -25 -8 3.4650 -0.3507
-7 -24 -23 0.4479 16.7493
-7 -24 -22 2.9586 -1.9836
-7 -24 -21 24.3251 -20.2511
-7 -24 -20 3.5352 -9.8251
-7 -24 -19 2.2739 9.5786
-7 -24 -18 -22.8879 5.2913
-7 -24 -17 11.2342 22.8913
-7 -24 -16 15.5861 -14.1791
-7 -24 -15 9.3487 -12.7183
-7 -24 -14 5.9035 24.8459
-7 -24 -13 -15.9154 -3.3661
-7 -24 -12 0.2211 -17.3788
-7 -24 -11 -16.8921 -0.1756
-7 -24 -10 12.5556 -16.5746
-7 -24 -9 0.5359 7.2790
-7 -24 -8 -0.8112 -7.6381
-7 -23 -22 1.3269 -6.2744
-7 -23 -21 -6.4785 13.7821
-7 -23 -20 3.0154 14.7360
-7 -23 -19 34.5109 -4.4461
-7 -23 -18 8.2482 26.9294
-7 -23 -17 -5.6472 9.9239
-7 -23 -16 3.4164 -12.4747
-7 -23 -15 24.4133 -4.2340
-7 -23 -14 8.3117 2.8653
-7 -23 -13 -0.3255 -5.1906
-7 -23 -12 -7.8424 -4.2188
-7 -23 -11 -20.9739 5.6493
-7 -23 -10 0.6265 -18.5211
-7 -23 -9 3.7390 -6.1712
-7 -23 -8 2.5776 -7.4452
-7 -22 -21 -6.9895 3.1573
-7 -22 -20 -15.8535 -15.5023
-7 -22 -19 -4.4625 -16.9820
-7 -22 -18 -6.4704 -16.5588
-7 -22 -17 31.9352 -5.8859
-7 -22 -16 3.5357 6.8327
-7 -22 -15 5.2589 15.8862
-7 -22 -14 5.8272 19.5323
-7 -22 -13 -2.2256 6.0468
-7 -22 -12 -4.2808 -3.5051
-7 -22 -11 -16.0188 -18.2964
-7 -22 -10 -17.0994 7.4835
-7 -22 -9 10.2632 -10.4860
-7 -22 -8 2.8948 -2.0403
-7 -21 -20 -0.1665 21.9603
-7 -21 -19 -20.0653 13.5547
-7 -21 -18 -5.7536 -13.5734
-7 -21 -17 -16.0196 -14.1448
-7 -21 -16 -9.9050 -4.1618
-7 -21 -15 -3.9003 6.2269
-7 -21 -14 6.0472 -11.9721
-7 -21 -13 -3.5753 -13.5263
-7 -21 -12 -1.6927 -7.5595
-7 -21 -11 -15.2912 -4.9595
-7 -21 -10 -10.1017 -8.5610
-7 -21 -9 12.6288 1.6962
-7 -21 -8 10.7567 12.9615
-7 -20 -19 23.7967 9.1515
-7 -20 -18 -25.2741 -9.9336
-7 -20 -17 20.9560 -24.6055
-7 -20 -16 -11.2829 5.0062
-7 -20 -15 9.9610 7.2091
-7 -20 -14 5.4670 -20.2939
-7 -20 -13 8.1975 3.9383
-7 -20 -12 -5.7570 -5.2304
-7 -20 -11 -19.6620 1.9929
-7 -20 -10 10.5771 -25.6725
-7 -20 -9 -25.4248 4.0793
-7 -20 -8 8.4857 0.3385
-7 -19 -18 6.6437 1.3935
-7 -19 -17 10.9191 9.6715
-7 -19 -16 -2.8881 -25.9204
-7 -19 -15 7.1479 10.6840
-7 -19 -14 8.5643 19.1457
-7 -19 -13 7.3567 0.2570
-7 -19 -12 0.8100 3.4589
-7 -19 -11 -3.5422 28.8818
-7 -19 -10 6.9770 3.1776
-7 -19 -9 32.8408 22.6646
-7 -19 -8 -11.8172 6.9542
-7 -18 -17 11.4403 8.3549
-7 -18 -16 -15.8060 21.1349
-7 -18 -15 -3.8053 17.7043
-7 -18 -14 -0.4096 5.7150
-7 -18 -13 -0.0043 -5.2479
-7 -18 -12 6.4805 -15.4895
-7 -18 -11 -39.3991 6.5603
-7 -18 -10 26.5335 -1.3120
-7 -18 -9 24.6786 -1.2874
-7 -18 -8 7.3068 27.8707
-7 -17 -16 8.3221 -15.7453
-7 -17 -15 2.9584 -2.8936
-7 -17 -14 20.3944 -19.5606
-7 -17 -13 4.4027 18.3322
-7 -17 -12 -7.9853 -10.7846
-7 -17 -11 -2.3875 -18.7213
-7 -17 -10 -8.9783 7.6182
-7 -17 -9 1.4834 -4.1030
-7 -17 -8 -33.4446 3.5257
-7 -16 -15 -25.1951 -3.1381
-7 -16 -14 4.3265 -26.8311
-7 -16 -13 9.3645 16.0345
-7 -16 -12 -0.4957 5.1464
-7 -16 -11 19.3959 10.3855
-7 -16 -10 7.9647 -9.7195
-7 -16 -9 19.4126 -8.2485
-7 -16 -8 3.6012 6.4732
-7 -15 -14 14.7539 -12.2472
-7 -15 -13 -30.3409 6.6325
-7 -15 -12 5.0165 7.9576
-7 -15 -11 21.4738 18.8928
-7 -15 -10 -8.4878 1.2833
-7 -15 -9 0.9608 2.8866
-7 -15 -8 -9.9163 -34.4241
-7 -14 -13 3.3317 0.6186
-7 -14 -12 4.6124 23.0184
-7 -14 -11 18.6018 -19.0857
-7 -14 -10 -5.1818 1.2538
-7 -14 -9 9.6968 5.5209
-7 -14 -8 -25.7557 -21.5569
-7 -13 -12 -1.4949 4.4467
-7 -13 -11 12.9259 -10.5067
-7 -13 -10 -18.2203 4.4296
-7 -13 -9 3.5333 4.1932
-7 -13 -8 -34.0068 -5.4362
-7 -12 -11 -30.7488 -12.1106
-7 -12 -10 -17.2265 4.6702
-7 -12 -9 -7.0838 -18.0480
-7 -12 -8 53.6715 14.5121
-7 -11 -10 9.0399 49.5364
-7 -11 -9 18.8302 -20.1773
-7 -11 -8 19.0315 -14.7632
-7 -10 -9 4.6297 25.1307
-7 -10 -8 26.5798 37.5283
-7 -9 -8 17.5887 21.0052
-6 -38 -7 6.7047 -6.9494
-6 -37 -11 -1.6141 12.7941
-6 -37 -10 1.0072 6.0122
-6 -37 -9 -0.7837 0.0045
-6 -37 -8 -12.4322 -2.5274
-6 -37 -7 -4.5859 3.3378
-6 -36 -14 6.8314 -4.8300
-6 -36 -13 15.4439 6.8273
-6 -36 -12 -1.3172 1.8718
-6 -36 -11 19.1259 5.2864
-6 -36 -10 -9.1440 11.6769
-6 -36 -9 16.2109 14.2010
-6 -36 -8 -16.6835 -4.5272
-6 -36 -7 -0.3650 6.5195
-6 -35 -16 2.9128 14.0209
-6 -35 -15 7.7996 -0.9863
-6 -35 -14 13.8132 12.5004
-6 -35 -13 -14.1803 5.2570
-6 -35 -12 9.3327 10.5511
-6 -35 -11 -0.4315 24.1882
-6 -35 -10 -24.3618 7.1167
-6 -35 -9 15.1848 5.2549
-6 -35 -8 -9.7843 -16.4583
-6 -35 -7 -5.8314 -16.8167
-6 -34 -18 -6.4058 -5.3446
-6 -34 -17 -3.3288 1.2203
-6 -34 -16 3.3754 -14.5025
-6 -34 -15 5.2472 -6.1364
-6 -34 -14 11.2139 18.5393
-6 -34 -13 -7.3351 -2.4589
-6 -34 -12 27.5855 -24.9075
-6 -34 -11 -1.4021 11.0245
-6 -34 -10 -9.9170 19.0912
-6 -34 -9 -16.1523 -20.1306
-6 -34 -8 2.4823 -26.9426
-6 -34 -7 13.9551 3.9680
-6 -33 -20 7.0114 -2.0489
-6 -33 -19 -1.0810 -0.2045
-6 -33 -18 3.7444 -8.7084
-6 -33 -17 -1.7946 2.5561
-6 -33 -16 -18.5646 7.0709
-6 -33 -15 4.4069 1.6260
-6 -33 -14 -10.8428 -2.9792
-6 -33 -13 6.2110 5.8087
-6 -33 -12 -21.6880 7.2179
-6 -33 -11 -9.4209 -1.3836
-6 -33 -10 10.8033 1.3978
-6 -33 -9 -7.1593 6.5915
-6 -33 -8 1.7509 6.1349
-6 -33 -7 9.3429 -27.8158
-6 -32 -21 6.6675 4.4848
-6 -32 -20 -17.4835 -5.0349
-6 -32 -19 -8.9393 -18.7267
-6 -32 -18 -4.6461 -8.2329
-6 -32 -17 21.4646 -11.9989
-6 -32 -16 7.8361 2.7157
-6 -32 -15 5.1094 20.8005
-6 -32 -14 -1.2408 -6.2773
-6 -32 -13 8.6297 5.5779
-6 -32 -12 0.3225 6.7958
-6 -32 -11 4.9591 -10.7296
-6 -32 -10 10.1952 0.2621
-6 -32 -9 -31.2022 8.3095
-6 -32 -8 -7.7153 -3.5419
-6 -32 -7 8.6367 3.3023
-6 -31 -23 9.5670 6.4901
-6 -31 -22 -12.2701 15.3131
-6 -31 -21 -1.2803 -10.4727
-6 -31 -20 -15.1931 -10.2100
-6 -31 -19 -6.9202 3.8016
-6 -31 -18 -1.4696 12.9784
-6 -31 -17 10.7570 8.7518
-6 -31 -16 24.4469 -15.1548
-6 -31 -15 1.4685 -11.0569
-6 -31 -14 9.3657 17.7919
-6 -31 -13 7.9302 -15.2377
-6 -31 -12 13.0885 10.6546
-6 -31 -11 18.2038 3.7014
-6 -31 -10 -9.0916 14.1660
-6 -31 -9 -35.5194 -5.3908
-6 -31 -8 -14.8549 -12.6533
-6 -31 -7 -3.3880 1.7064
-6 -30 -24 -2.0974 8.2063
-6 -30 -23 11.6077 11.0520
-6 -30 -22 2.4991 9.3784
-6 -30 -21 -4.6269 -2.1807
-6 -30 -20 11.3787 14.3039
-6 -30 -19 -0.4674 -5.2369
-6 -30 -18 -7.8217 15.2411
-6 -30 -17 1.2995 8.4341
-6 -30 -16 0.9773 17.0349
-6 -30 -15 -3.7975 9.1651
-6 -30 -14 1.7727 -16.5224
-6 -30 -13 -3.4994 -7.3713
-6 -30 -12 15.2078 21.2523
-6 -30 -11 5.5445 -2.3478
-6 -30 -10 -11.0363 1.6766
-6 -30 -9 15.5015 21.9292
-6 -30 -8 -10.0039 -7.3471
-6 -30 -7 -21.1626 -6.2550
-6 -29 -25 2.5351 14.8495
-6 -29 -24 -7.4812 -4.3554
-6 -29 -23 -0.2317 -2.4683
-6 -29 -22 -1.5700 -16.9396
-6 -29 -21 -22.0356 9.4735
-6 -29 -20 -23.2948 22.9222
-6 -29 -19 -4.0592 -11.7308
-6 -29 -18 3.0210 -11.8572
-6 -29 -17 -18.5868 13.2605
-6 -29 -16 15.3966 10.2280
-6 -29 -15 15.9508 -9.3927
-6 -29 -14 3.2348 1.1475
-6 -29 -13 18.4480 -2.0776
-6 -29 -12 5.7840 10.8621
-6 -29 -11 12.4764 21.9638
-6 -29 -10 9.0803 4.7894
-6 -29 -9 -24.8789 -4.9792
-6 -29 -8 -12.2146 43.1601
-6 -29 -7 21.9631 0.4006
-6 -28 -26 4.1644 2.7527
-6 -28 -25 3.3964 -6.3003
-6 -28 -24 -12.4179 -9.1036
-6 -28 -23 -13.0500 -11.4772
-6 -28 -22 22.3324 9.8661
-6 -28 -21 -14.1606 -19.0457
-6 -28 -20 14.9983 -0.4054
-6 -28 -19 38.7799 -5.5304
-6 -28 -18 -2.9372 0.2024
-6 -28 -17 10.6592 8.8853
-6 -28 -16 13.7036 1.7478
-6 -28 -15 -8.5436 0.9194
-6 -28 -14 -24.2896 2.7037
-6 -28 -13 -8.7713 -10.2222
-6 -28 -12 -8.4564 -15.3346
-6 -28 -11 -8.9414 14.5370
-6 -28 -10 -13.1486 -13.9924
-6 -28 -9 -4.4301 -30.1869
-6 -28 -8 3.9525 -4.0965
-6 -28 -7 -3.1133 21.3051
-6 -27 -26 -2.4701 -2.5848
-6 -27 -25 -15.4190 9.1152
-6 -27 -24 19.2313 -5.5217
-6 -27 -23 -3.4480 -4.0350
-6 -27 -22 12.4078 -15.6971
-6 -27 -21 -3.6608 29.7561
-6 -27 -20 19.4164 -18.0966
-6 -27 -19 0.3791 20.7424
-6 -27 -18 -6.4503 -11.7555
-6 -27 -17 3.3025 11.8111
-6 -27 -16 -52.9653 13.0089
-6 -27 -15 8.1107 38.6737
-6 -27 -14 3.0488 10.6886
-6 -27 -13 5.6328 -1.3775
-6 -27 -12 -2.7615 0.4272
-6 -27 -11 -19.2298 -1.8067
-6 -27 -10 -10.0664 -7.4171
-6 -27 -9 -16.8147 -1.5479
-6 -27 -8 -16.5874 -8.6507
-6 -27 -7 37.6886 10.6213
-6 -26 -25 20.6309 4.4742
-6 -26 -24 7.5594 3.9736
-6 -26 -23 -8.1430 5.9795
-6 -26 -22 4.6647 5.1072
-6 -26 -21 -6.4085 -26.6799
-6 -26 -20 0.5278 7.2108
-6 -26 -19 22.4747 -10.0199
-6 -26 -18 25.6410 -17.3783
-6 -26 -17 8.1314 -24.9823
-6 -26 -16 0.2324 14.7158
-6 -26 -15 14.4359 7.1125
-6 -26 -14 -30.6986 14.6997
-6 -26 -13 10.9381 20.9759
-6 -26 -12 30.2412 25.1456
-6 -26 -11 -14.3704 3.4446
-6 -26 -10 -30.1947 -8.1162
-6 -26 -9 -9.3627 15.3767
-6 -26 -8 2.6281 2.2858
-6 -26 -7 9.1263 -0.8562
-6 -25 -24 2.7121 10.6065
-6 -25 -23 -19.5825 -3.1962
-6 -25 -22 13.2739 -22.7034
-6 -25 -21 -10.2277 -2.3742
-6 -25 -20 -6.9339 5.1357
-6 -25 -19 -5.9621 8.8458
-6 -25 -18 -21.5959 -29.9028
-6 -25 -17 5.9780 14.0512
-6 -25 -16 17.6201 -44.0594
-6 -25 -15 8.0380 1.5513
-6 -25 -14 1.6485 -0.8176
-6 -25 -13 19.1169 1.5725
-6 -25 -12 -7.7321 37.3248
-6 -25 -11 -12.7920 -11.1913
-6 -25 -10 -12.2543 -27.6494
-6 -25 -9 9.6683 -4.1373
-6 -25 -8 -9.4220 1.4725
-6 -25 -7 -0.1114 -2.9719
-6 -24 -23 5.6728 -38.9228
-6 -24 -22 -10.8081 12.4416
-6 -24 -21 -32.3630 -18.9123
-6 -24 -20 11.2064 7.5624
-6 -24 -19 -20.3047 -5.5212
-6 -24 -18 4.2838 1.5679
-6 -24 -17 0.5378 11.9798
-6 -24 -16 -4.3575 1.5494
-6 -24 -15 -10.1409 9.8447
-6 -24 -14 9.6497 7.7161
-6 -24 -13 12.6272 3.9642
-6 -24 -12 1.7533 -5.5415
-6 -24 -11 -5.0377 -26.1695
-6 -24 -10 1.1925 0.2525
-6 -24 -9 5.8015 2.7592
-6 -24 -8 -18.2329 -9.5328
-6 -24 -7 -4.4844 -0.1883
-6 -23 -22 10.4781 14.6878
-6 -23 -21 16.0664 18.4438
-6 -23 -20 14.3435 -9.2406
-6 -23 -19 0.6977 24.4301
-6 -23 -18 2.9001 3.0500
-6 -23 -17 25.4952 0.9470
-6 -23 -16 0.4422 1.9741
-6 -23 -15 2.8678 -3.8443
-6 -23 -14 2.8004 21.0847
-6 -23 -13 -2.3925 -9.0020
-6 -23 -12 17.8922 -7.2203
-6 -23 -11 -15.3254 -8.5937
-6 -23 -10 -12.5612 6.4794
-6 -23 -9 -1.1934 -16.8644
-6 -23 -8 1.0451 -2.7078
-6 -23 -7 -0.3432 -0.5576
-6 -22 -21 25.8095 -15.8171
-6 -22 -20 -11.0208 -11.0447
-6 -22 -19 21.1278 -15.8298
-6 -22 -18 13.6696 -18.8655
-6 -22 -17 -2.7968 12.0183
-6 -22 -16 -12.2419 -9.8963
-6 -22 -15 35.9353 -16.2185
-6 -22 -14 11.3336 -11.9824
-6 -22 -13 -9.9015 13.4165
-6 -22 -12 -20.8686 11.0223
-6 -22 -11 -15.0143 13.6122
-6 -22 -10 -8.6030 8.7194
-6 -22 -9 3.3185 -3.4351
-6 -22 -8 -1.1178 -4.7455
-6 -22 -7 -17.3348 -12.3017
-6 -21 -20 9.8187 -1.2057
-6 -21 -19 -14.6638 -20.6665
-6 -21 -18 24.4477 12.2782
-6 -21 -17 37.2762 20.7583
-6 -21 -16 16.0233 5.1430
-6 -21 -15 20.0413 10.4661
-6 -21 -14 -10.6465 -20.6109
-6 -21 -13 -0.9371 7.9907
-6 -21 -12 -11.5424 6.4283
-6 -21 -11 5.8915 17.3995
-6 -21 -10 -4.2157 -7.3468
-6 -21 -9 -36.7156 -5.0982
-6 -21 -8 -0.4072 5.5017
-6 -21 -7 10.4763 33.0386
-6 -20 -19 -1.9162 12.6126
-6 -20 -18 -18.7030 -14.7216
-6 -20 -17 -1.2125 11.2449
-6 -20 -16 17.1771 -20.9732
-6 -20 -15 4.8379 10.1634
-6 -20 -14 7.5838 -11.6447
-6 -20 -13 10.7019 -6.1351
-6 -20 -12 -9.2189 -16.8065
-6 -20 -11 -9.0448 -9.7162
-6 -20 -10 -14.9462 -2.8704
-6 -20 -9 10.3233 -2.4619
-6 -20 -8 5.3529 44.8487
-6 -20 -7 -21.6200 1.9516
-6 -19 -18 6.7551 9.8932
-6 -19 -17 8.1616 11.8598
-6 -19 -16 29.7064 30.8814
-6 -19 -15 11.1778 -5.3400
-6 -19 -14 29.2628 -9.5686
-6 -19 -13 12.3906 -8.7610
-6 -19 -12 4.9452 -0.6301
-6 -19 -11 10.7963 2.8758
-6 -19 -10 -7.2535 7.9972
-6 -19 -9 -3.0155 -28.7508
-6 -19 -8 -12.9824 -0.8381
-6 -19 -7 1.8283 -14.1741
-6 -18 -17 9.6865 -11.8526
-6 -18 -16 -12.5947 17.5927
-6 -18 -15 6.7437 26.8958
-6 -18 -14 -0.0443 3.2495
-6 -18 -13 8.2259 0.3885
-6 -18 -12 18.3407 -12.7013
-6 -18 -11 6.5491 15.9412
-6 -18 -10 -11.3458 -10.4155
-6 -18 -9 0.4992 -7.9238
-6 -18 -8 7.8384 3.9840
-6 -18 -7 19.6919 -19.2285
-6 -17 -16 -18.0855 5.7168
-6 -17 -15 0.9951 8.2877
-6 -17 -14 -13.0909 -9.1943
-6 -17 -13 12.4684 2.5756
-6 -17 -12 -15.8172 -16.2804
-6 -17 -11 -15.6003 22.1190
-6 -17 -10 -4.7072 2.3693
-6 -17 -9 9.1306 22.6289
-6 -17 -8 -6.5429 3.1983
-6 -17 -7 -32.3283 -22.9876
-6 -16 -15 1.3211 19.5591
-6 -16 -14 9.1357 -19.4328
-6 -16 -13 -34.3332 -10.6149
-6 -16 -12 8.4691 11.5933
-6 -16 -11 -2.3437 -15.0009
-6 -16 -10 13.3160 5.1170
-6 -16 -9 23.7728 -24.2289
-6 -16 -8 9.4380 -22.0832
-6 -16 -7 -13.7339 -8.1481
-6 -15 -14 2.1918 -5.1911
-6 -15 -13 -4.8001 4.4197
-6 -15 -12 19.8301 1.3345
-6 -15 -11 -9.0539 -16.2627
-6 -15 -10 -27.2571 -2.4304
-6 -15 -9 -7.4706 9.4248
-6 -15 -8 -4.9413 34.8169
-6 -15 -7 -11.8515 -9.7843
-6 -14 -13 -32.9115 -7.7861
-6 -14 -12 -0.8092 40.1996
-6 -14 -11 -17.5487 -1.4846
-6 -14 -10 -3.0345 20.3398
-6 -14 -9 2.1599 1.4612
-6 -14 -8 -37.0315 -36.3159
-6 -14 -7 1.2922 13.9648
-6 -13 -12 -26.3837 8.2710
-6 -13 -11 16.1926 -8.0372
-6 -13 -10 1.7669 33.4406
-6 -13 -9 4.2587 17.6834
-6 -13 -8 22.9353 -37.1408
-6 -13 -7 15.8197 20.5029
-6 -12 -11 2.6942 -18.0914
-6 -12 -10 -18.8662 -13.2750
-6 -12 -9 -2.7587 32.1800
-6 -12 -8 -35.7251 7.1414
-6 -12 -7 1.0112 -14.6503
-6 -11 -10 -30.1137 -5.0003
-6 -11 -9 2.1764 12.2198
-6 -11 -8 -8.2982 7.3673
-6 -11 -7 15.1914 -24.3679
-6 -10 -9 4.7263 -4.7911
-6 -10 -8 -22.3156 -25.1940
-6 -10 -7 27.5916 -3.6993
-6 -9 -8 9.5746 -25.0277
-6 -9 -7 37.8999 -29.8134
-6 -8 -7 76.8783 0.0791
-5 -38 -7 4.3309 11.0268
-5 -38 -6 -0.2573 19.4578
-5 -37 -11 -33.4894 9.1404
-5 -37 -10 -19.3148 2.2696
-5 -37 -9 18.8740 3.6164
-5 -37 -8 -11.4938 -8.9481
-5 -37 -7 -9.6193 13.0576
-5 -37 -6 -5.8344 16.2681
-5 -36 -14 7.2120 -8.7686
-5 -36 -13 1.7764 -10.3933
-5 -36 -12 8.6500 6.8009
-5 -36 -11 -12.4988 -8.3310
-5 -36 -10 -5.0264 -14.7654
-5 -36 -9 8.0918 1.7681
-5 -36 -8 10.3935 -4.9294
-5 -36 -7 16.4914 2.6156
-5 -36 -6 5.7362 13.9689
-5 -35 -16 -3.1903 -2.1807
-5 -35 -15 -8.6327 -7.4389
-5 -35 -14 13.6264 4.0224
-5 -35 -13 14.2338 20.1108
-5 -35 -12 -15.6753 13.6099
-5 -35 -11 -10.3574 9.6138
-5 -35 -10 -4.0413 -0.8908
-5 -35 -9 -23.6553 33.2152
-5 -35 -8 10.7873 -2.8884
-5 -35 -7 15.0442 -15.0315
-5 -35 -6 33.1471 -18.1438
-5 -34 -18 -6.7701 10.7860
-5 -34 -17 7.3849 -8.2487
-5 -34 -16 -21.5998 -8.3078
-5 -34 -15 -9.3055 -5.5477
-5 -34 -14 20.4239 -5.0698
-5 -34 -13 15.1217 -5.9998
-5 -34 -12 -10.5664 0.6389
-5 -34 -11 -2.5039 -3.5566
-5 -34 -10 4.6598 7.3729
-5 -34 -9 8.0110 0.7906
-5 -34 -8 14.4778 4.9509
-5 -34 -7 -9.4297 17.1348
-5 -34 -6 7.8409 30.7568
-5 -33 -20 1.8133 -4.2565
-5 -33 -19 7.8626 9.9690
-5 -33 -18 -14.0265 -5.8573
-5 -33 -17 -2.8880 1.5593
-5 -33 -16 10.3095 12.3396
-5 -33 -15 10.3335 18.9398
-5 -33 -14 -5.6553 16.7851
-5 -33 -13 -18.7789 2.6571
-5 -33 -12 8.5950 -7.4409
-5 -33 -11 23.6189 -1.5497
-5 -33 -10 7.8739 -7.8730
-5 -33 -9 9.5292 -22.0425
-5 -33 -8 15.8723 4.8992
-5 -33 -7 23.5421 -4.4639
-5 -33 -6 5.5021 6.5083
-5 -32 -21 9.0644 -3.9658
-5 -32 -20 -12.5235 4.5999
-5 -32 -19 3.2248 0.3472
-5 -32 -18 5.0154 -10.1845
-5 -32 -17 12.6828 -18.4832
-5 -32 -16 10.5335 -3.3269
-5 -32 -15 -12.3625 -4.3820
-5 -32 -14 -15.4914 11.6489
-5 -32 -13 2.9771 -1.7183
-5 -32 -12 5.4326 -4.6602
-5 -32 -11 -20.7097 15.0440
-5 -32 -10 23.0572 3.4180
-5 -32 -9 8.1684 -0.6192
-5 -32 -8 -13.8415 3.7175
-5 -32 -7 11.1564 18.9156
-5 -32 -6 13.9788 2.2166
-5 -31 -23 -6.5546 -2.0732
-5 -31 -22 0.7742 -1.3723
-5 -31 -21 -3.2035 8.8918
-5 -31 -20 -8.6391 -6.1709
-5 -31 -19 14.3630 -7.9344
-5 -31 -18 -19.2616 -2.5981
-5 -31 -17 -13.6356 15.0180
-5 -31 -16 -2.2279 22.3485
-5 -31 -15 10.2450 9.9686
-5 -31 -14 -17.0908 -12.0997
-5 -31 -13 -18.6747 -23.1582
-5 -31 -12 21.7898 -19.5978
-5 -31 -11 -1.9291 12.3152
-5 -31 -10 6.9685 8.6365
-5 -31 -9 9.6125 -4.5137
-5 -31 -8 -7.5477 -0.7166
-5 -31 -7 -35.5948 25.4922
-5 -31 -6 35.2748 0.0051
-5 -30 -24 6.0866 -20.0730
-5 -30 -23 2.0586 18.1092
-5 -30 -22 -7.2120 -17.4170
-5 -30 -21 19.2962 -3.8192
-5 -30 -20 0.0085 -13.9411
-5 -30 -19 9.0831 0.4152
-5 -30 -18 15.0295 -18.4670
-5 -30 -17 0.2301 -16.9898
-5 -30 -16 -16.3418 18.5687
-5 -30 -15 -6.0664 -5.4359
-5 -30 -14 -30.3641 19.4987
-5 -30 -13 -7.5768 -4.4003
-5 -30 -12 14.2623 -0.4272
-5 -30 -11 8.2801 -1.9794
-5 -30 -10 7.5490 3.6207
-5 -30 -9 -12.4848 -21.1534
-5 -30 -8 -7.7310 -20.8803
-5 -30 -7 -9.3833 6.0159
-5 -30 -6 27.4836 20.3513
-5 -29 -25 -21.8297 6.9270
-5 -29 -24 -8.3402 -0.9117
-5 -29 -23 -20.6662 -23.1718
-5 -29 -22 -12.8684 -0.4759
-5 -29 -21 4.5348 -24.0914
-5 -29 -20 -12.6271 18.1202
-5 -29 -19 -10.9633 7.8830
-5 -29 -18 -6.1332 27.4984
-5 -29 -17 -27.0789 -13.0970
-5 -29 -16 -3.5429 -9.0867
-5 -29 -15 2.3580 13.4276
-5 -29 -14 35.3494 0.5205
-5 -29 -13 3.8602 -13.9647
-5 -29 -12 14.2357 -5.5805
-5 -29 -11 4.0102 -14.3633
-5 -29 -10 2.6177 -12.3225
-5 -29 -9 9.6731 2.8830
-5 -29 -8 -2.0430 9.4658
-5 -29 -7 -34.2425 -18.3619
-5 -29 -6 -24.7026 16.8605
-5 -28 -26 -7.9717 -9.7229
-5 -28 -25 -9.1646 -10.7856
-5 -28 -24 -8.1273 12.9969
-5 -28 -23 4.1786 -16.8089
-5 -28 -22 -2.4213 5.4154
-5 -28 -21 5.3960 10.9725
-5 -28 -20 5.6335 -21.5980
-5 -28 -19 -3.2052 5.6267
-5 -28 -18 23.1800 -5.6384
-5 -28 -17 15.2619 15.4529
-5 -28 -16 -2.6146 0.8380
-5 -28 -15 -9.5139 25.6257
-5 -28 -14 -20.0898 26.5983
-5 -28 -13 -12.8263 -19.5509
-5 -28 -12 -26.3100 22.0897
-5 -28 -11 6.1388 -42.1735
-5 -28 -10 -23.3620 -7.8764
-5 -28 -9 15.4225 26.7855
-5 -28 -8 4.3575 -1.1174
-5 -28 -7 -6.2322 1.9901
-5 -28 -6 1.5926 8.1918
-5 -27 -26 -5.8278 -6.6238
-5 -27 -25 -12.3398 33.9393
-5 -27 -24 3.7854 -3.8202
-5 -27 -23 4.6833 8.4405
-5 -27 -22 -3.7646 5.9409
-5 -27 -21 -3.7343 -20.1852
-5 -27 -20 5.1949 -16.0271
-5 -27 -19 -2.0063 -7.3822
-5 -27 -18 -9.7844 -2.7747
-5 -27 -17 11.0539 -1.7559
-5 -27 -16 14.7636 -26.5113
-5 -27 -15 -4.8594 8.7105
-5 -27 -14 -23.9066 -3.8288
-5 -27 -13 -1.7862 9.7213
-5 -27 -12 -2.8855 12.4040
-5 -27 -11 18.0584 -4.4825
-5 -27 -10 -21.4070 -12.2379
-5 -27 -9 16.4910 -14.2249
-5 -27 -8 -22.6819 -6.4183
-5 -27 -7 -0.8272 2.4637
-5 -27 -6 2.4479 -2.1241
-5 -26 -25 -14.4642 8.9817
-5 -26 -24 0.5206 3.4621
-5 -26 -23 -13.9049 46.1955
-5 -26 -22 35.4536 -7.5359
-5 -26 -21 -6.3855 0.0734
-5 -26 -20 -7.7255 -12.0443
-5 -26 -19 12.7012 13.9640
-5 -26 -18 3.3575 -7.5559
-5 -26 -17 -0.6209 -5.9578
-5 -26 -16 15.6606 -20.9542
-5 -26 -15 9.0043 -16.5812
-5 -26 -14 -1.6550 9.1589
-5 -26 -13 11.6583 13.5088
-5 -26 -12 -12.1183 -6.1446
-5 -26 -11 23.7999 -5.3402
-5 -26 -10 22.0954 -18.1187
-5 -26 -9 -18.8989 3.7300
-5 -26 -8 23.8702 11.6612
-5 -26 -7 10.2598 -16.4649
-5 -26 -6 7.9602 15.5947
-5 -25 -24 3.4691 -3.1954
-5 -25 -23 1.1779 -15.3526
-5 -25 -22 -2.1653 26.8943
-5 -25 -21 -6.8590 8.7133
-5 -25 -20 4.5343 38.2045
-5 -25 -19 -1.6295 -47.2672
-5 -25 -18 22.5932 4.2047
-5 -25 -17 12.7091 7.0933
-5 -25 -16 -9.2640 0.4033
-5 -25 -15 11.4995 -7.5467
-5 -25 -14 -3.7916 8.5544
-5 -25 -13 8.1624 2.0327
-5 -25 -12 13.4558 6.8192
-5 -25 -11 -8.1229 -4.8843
-5 -25 -10 24.4238 1.0257
-5 -25 -9 3.4794 -0.6365
-5 -25 -8 -2.3162 -2.1092
-5 -25 -7 20.7670 6.9214
-5 -25 -6 8.7632 14.0674
-5 -24 -23 -23.3641 -25.9063
-5 -24 -22 -9.5234 -3.9474
-5 -24 -21 -14.2076 -21.6250
-5 -24 -20 9.4430 -5.2715
-5 -24 -19 -16.1829 8.9538
-5 -24 -18 12.8713 -28.4009
-5 -24 -17 -6.9626 -2.1335
-5 -24 -16 -6.4898 -5.8167
-5 -24 -15 -39.9900 -10.5474
-5 -24 -14 -24.7524 5.2472
-5 -24 -13 20.3765 14.5330
-5 -24 -12 1.8080 14.2834
-5 -24 -11 -8.0476 -15.0475
-5 -24 -10 29.4127 13.0963
-5 -24 -9 14.4945 -21.7823
-5 -24 -8 -20.0567 6.0104
-5 -24 -7 1.0374 19.5986
-5 -24 -6 -4.4381 -1.9067
-5 -23 -22 -6.7623 11.3116
-5 -23 -21 -15.1982 26.7123
-5 -23 -20 4.6483 4.1511
-5 -23 -19 -0.9084 17.9137
-5 -23 -18 19.0516 6.9476
-5 -23 -17 -25.9827 11.3537
-5 -23 -16 -7.1387 3.7466
-5 -23 -15 22.1912 -30.8660
-5 -23 -14 3.4503 -3.0751
-5 -23 -13 -21.3570 -15.3314
-5 -23 -12 -6.6513 10.2646
-5 -23 -11 19.4714 6.9588
-5 -23 -10 2.1673 6.2205
-5 -23 -9 25.2662 -4.3124
-5 -23 -8 27.0207 1.7544
-5 -23 -7 1.0907 -5.6495
-5 -23 -6 -3.6440 4.2077
-5 -22 -21 -30.4127 0.9573
-5 -22 -20 -11.1895 -7.4501
-5 -22 -19 12.0397 -17.2488
-5 -22 -18 7.6059 -7.3090
-5 -22 -17 14.1480 21.5859
-5 -22 -16 -1.0027 -3.3430
-5 -22 -15 -15.8856 12.4317
-5 -22 -14 18.2066 -1.5959
-5 -22 -13 -19.8418 21.5377
-5 -22 -12 6.4966 21.3664
-5 -22 -11 5.2836 -3.4011
-5 -22 -10 -14.7015 11.4614
-5 -22 -9 -10.9682 15.1694
-5 -22 -8 -11.8164 -16.4496
-5 -22 -7 -6.4174 -0.5024
-5 -22 -6 -1.9511 -0.1795
-5 -21 -20 20.6967 -7.1159
-5 -21 -19 -14.8254 -7.8894
-5 -21 -18 -2.6681 0.8029
-5 -21 -17 14.7157 32.8945
-5 -21 -16 -19.7668 -4.3634
-5 -21 -15 -27.2986 -1.7904
-5 -21 -14 -11.3608 3.7777
-5 -21 -13 1.1541 6.2355
-5 -21 -12 11.9412 -13.6607
-5 -21 -11 -2.8668 7.4284
-5 -21 -10 3.5494 16.4772
-5 -21 -9 8.0580 -5.3246
-5 -21 -8 6.2188 1.5017
-5 -21 -7 38.8147 -4.5025
-5 -21 -6 0.8608 1.6792
-5 -20 -19 -13.7930 -12.7223
-5 -20 -18 -9.1612 15.1960
-5 -20 -17 -31.8713 -10.9226
-5 -20 -16 16.4901 -2.9664
-5 -20 -15 -7.5176 -7.6646
-5 -20 -14 -9.0950 -33.4933
-5 -20 -13 -17.0660 -7.8815
-5 -20 -12 -14.6426 4.0482
-5 -20 -11 16.3642 8.3560
-5 -20 -10 2.7087 3.3912
-5 -20 -9 15.8324 15.8362
-5 -20 -8 16.9100 -17.8782
-5 -20 -7 8.6831 8.3505
-5 -20 -6 20.2130 -0.1533
-5 -19 -18 -3.3048 -1.2926
-5 -19 -17 -9.9291 19.9586
-5 -19 -16 -5.0978 4.0041
-5 -19 -15 0.7780 15.6573
-5 -19 -14 3.1473 -7.6753
-5 -19 -13 14.8590 -20.7724
-5 -19 -12 -13.6299 -7.1493
-5 -19 -11 -5.9473 -9.9061
-5 -19 -10 5.0593 8.5988
-5 -19 -9 -24.2880 9.0081
-5 -19 -8 -6.0675 22.5349
-5 -19 -7 -38.1715 3.7630
-5 -19 -6 30.1118 6.8187
-5 -18 -17 11.0608 8.5150
-5 -18 -16 -3.8982 -1.9973
-5 -18 -15 -19.7748 -4.0043
-5 -18 -14 1.8795 20.7509
-5 -18 -13 -3.1348 -21.6775
-5 -18 -12 -8.0231 14.2638
-5 -18 -11 14.3692 7.0996
-5 -18 -10 -12.6187 26.2792
-5 -18 -9 -1.9781 0.0002
-5 -18 -8 -6.5793 0.1796
-5 -18 -7 -34.1214 2.5695
-5 -18 -6 -4.4930 29.6728
-5 -17 -16 -5.7103 18.6716
-5 -17 -15 6.5924 16.1975
-5 -17 -14 -14.2973 -0.4726
-5 -17 -13 36.9169 -15.9820
-5 -17 -12 -22.0584 6.1368
-5 -17 -11 -23.2548 2.5726
-5 -17 -10 5.8558 -2.9081
-5 -17 -9 -37.5771 -12.3130
-5 -17 -8 12.0150 0.1137
-5 -17 -7 0.7724 6.5087
-5 -17 -6 13.6681 14.6575
-5 -16 -15 -3.0393 -7.6541
-5 -16 -14 23.9238 -37.3550
-5 -16 -13 -2.4682 -10.6279
-5 -16 -12 13.7090 -34.4929
-5 -16 -11 -5.2818 -32.2522
-5 -16 -10 12.3234 0.2556
-5 -16 -9 -0.1756 1.7692
-5 -16 -8 -3.6050 6.7211
-5 -16 -7 21.6020 -4.4324
-5 -16 -6 -32.6727 0.2928
-5 -15 -14 17.3220 22.0489
-5 -15 -13 3.2126 -0.7377
-5 -15 -12 20.3102 -4.1095
-5 -15 -11 2.4555 0.1217
-5 -15 -10 22.7156 -3.5565
-5 -15 -9 2.4027 -2.8034
-5 -15 -8 7.9765 -7.9997
-5 -15 -7 4.5370 -17.9888
-5 -15 -6 -3.8970 3.7293
-5 -14 -13 8.1006 -47.0197
-5 -14 -12 -3.7576 -42.2636
-5 -14 -11 11.2389 22.4712
-5 -14 -10 -6.5470 0.6075
-5 -14 -9 11.1614 15.6745
-5 -14 -8 -15.9783 -1.0594
-5 -14 -7 10.7104 48.9167
-5 -14 -6 4.7241 40.2603
-5 -13 -12 -4.0473 -10.0762
-5 -13 -11 -6.9559 14.5044
-5 -13 -10 -10.7164 7.0596
-5 -13 -9 23.2558 -10.2827
-5 -13 -8 2.2635 -7.3448
-5 -13 -7 -29.9214 -43.1900
-5 -13 -6 10.0847 -40.1007
-5 -12 -11 5.3176 8.4797
-5 -12 -10 13.6260 -38.8804
-5 -12 -9 -15.6296 10.3265
-5 -12 -8 -9.4953 7.5967
-5 -12 -7 -1.7326 36.9674
-5 -12 -6 12.4630 5.7332
-5 -11 -10 2.0900 12.2086
-5 -11 -9 -1.3404 -5.2949
-5 -11 -8 1.7506 -26.1194
-5 -11 -7 23.2368 -51.8819
-5 -11 -6 4.8430 -38.9988
-5 -10 -9 35.4777 17.9093
-5 -10 -8 -17.1391 32.4513
-5 -10 -7 -3.4516 -0.4962
-5 -10 -6 -8.2675 -17.1439
-5 -9 -8 3.5678 7.8758
-5 -9 -7 -11.8748 -14.1312
-5 -9 -6 -35.3267 62.7331
-5 -8 -7 4.6086 14.8203
-5 -8 -6 -53.8161 -14.9635
-5 -7 -6 -23.7535 -18.9164
-4 -38 -8 -2.9241 2.0586
-4 -38 -7 -0.1853 -6.8242
-4 -38 -6 -2.1117 -9.0574
-4 -38 -5 -10.7284 -3.6530
-4 -37 -12 7.1418 2.8528
-4 -37 -11 0.1328 -9.9289
-4 -37 -10 -7.4414 -9.1039
-4 -37 -9 -3.4098 11.6196
-4 -37 -8 9.5278 2.6017
-4 -37 -7 10.7144 1.2222
-4 -37 -6 -6.3040 0.1806
-4 -37 -5 -6.7775 -12.8168
-4 -36 -14 -3.6201 -24.4163
-4 -36 -13 -2.2620 0.0027
-4 -36 -12 15.1956 -5.4030
-4 -36 -11 15.0352 2.8058
-4 -36 -10 -18.7432 -11.1295
-4 -36 -9 16.2446 -10.3926
-4 -36 -8 -0.9467 -1.7325
-4 -36 -7 2.2084 6.5757
-4 -36 -6 4.9706 -11.7214
-4 -36 -5 -21.9877 -14.9647
-4 -35 -17 5.0173 -2.0670
-4 -35 -16 -10.4455 -13.1577
-4 -35 -15 2.3700 -6.8628
-4 -35 -14 15.3883 -3.8640
-4 -35 -13 3.9845 -6.7155
-4 -35 -12 16.8135 -2.4364
-4 -35 -11 -19.3461 6.4523
-4 -35 -10 14.9123 -11.7179
-4 -35 -9 6.3841 10.0216
-4 -35 -8 -11.3991 -6.7834
-4 -35 -7 7.4377 -7.5425
-4 -35 -6 2.6747 -0.0027
-4 -35 -5 -22.4326 -8.2692
-4 -34 -18 4.3760 -10.4006
-4 -34 -17 3.4618 6.8339
-4 -34 -16 3.2600 -6.2914
-4 -34 -15 10.9259 16.9463
-4 -34 -14 -3.3338 -11.0183
-4 -34 -13 -19.3138 -15.7892
-4 -34 -12 2.4384 -11.0236
-4 -34 -11 7.2280 5.1055
-4 -34 -10 12.4934 20.7463
-4 -34 -9 -18.6508 -20.5076
-4 -34 -8 20.5975 -13.1989
-4 -34 -7 -29.0617 -2.5756
-4 -34 -6 8.1495 6.5535
-4 -34 -5 -11.0997 19.8116
-4 -33 -20 -2.9405 13.2019
-4 -33 -19 5.3074 -15.6388
-4 -33 -18 -3.3166 2.6702
-4 -33 -17 -2.4472 15.3133
-4 -33 -16 16.6445 -8.0471
-4 -33 -15 -2.0152 -14.6263
-4 -33 -14 22.9676 17.6300
-4 -33 -13 1.9439 -4.0125
-4 -33 -12 -13.8536 9.4171
-4 -33 -11 -14.6517 4.8916
-4 -33 -10 28.4880 2.5743
-4 -33 -9 11.7745 0.4988
-4 -33 -8 10.1906 -2.2442
-4 -33 -7 -12.6292 -10.6695
-4 -33 -6 4.8308 -27.4092
-4 -33 -5 -11.0903 -23.7224
-4 -32 -22 6.5110 -7.4641
-4 -32 -21 14.4293 -4.7564
-4 -32 -20 15.4365 6.6410
-4 -32 -19 3.7218 8.4489
-4 -32 -18 -3.0798 -1.7632
-4 -32 -17 4.2954 13.5122
-4 -32 -16 -4.5962 -1.0643
-4 -32 -15 -19.7526 2.2618
-4 -32 -14 6.7385 -11.5397
-4 -32 -13 -1.2147 -22.4042
-4 -32 -12 -12.0164 13.2091
-4 -32 -11 1.5436 7.8146
-4 -32 -10 21.5849 -18.6323
-4 -32 -9 -4.4116 17.0242
-4 -32 -8 17.9255 6.9377
-4 -32 -7 -13.6593 2.9505
-4 -32 -6 -39.7317 0.1556
-4 -32 -5 -5.0188 -0.0464
-4 -31 -23 -5.2201 -8.9329
-4 -31 -22 -5.9653 7.3664
-4 -31 -21 -22.1043 19.9603
-4 -31 -20 -12.0362 -2.7539
-4 -31 -19 -3.4924 -2.2382
-4 -31 -18 9.1894 1.7925
-4 -31 -17 1.9020 3.6345
-4 -31 -16 -1.0036 -12.8078
-4 -31 -15 0.1004 0.8687
-4 -31 -14 -13.9068 15.5733
-4 -31 -13 -1.9332 -19.9818
-4 -31 -12 12.1721 -11.2986
-4 -31 -11 0.3643 0.3110
-4 -31 -10 31.9446 -13.8408
-4 -31 -9 -2.5196 1.0358
-4 -31 -8 7.3724 -14.8855
-4 -31 -7 5.9016 -19.0078
-4 -31 -6 -12.2380 9.3468
-4 -31 -5 12.2687 4.5265
-4 -30 -24 11.9194 -8.8151
-4 -30 -23 -4.2277 -6.3343
-4 -30 -22 -8.6253 -8.8430
-4 -30 -21 -1.7247 -5.7340
-4 -30 -20 -10.2301 17.1980
-4 -30 -19 4.2112 9.7255
-4 -30 -18 -19.6497 14.2607
-4 -30 -17 -24.3568 0.0559
-4 -30 -16 -9.3291 -10.6848
-4 -30 -15 -5.9651 -19.2644
-4 -30 -14 -3.8703 -11.8858
-4 -30 -13 24.5720 6.4341
-4 -30 -12 21.4745 -3.9816
-4 -30 -11 -6.4074 30.4122
-4 -30 -10 -6.4617 -6.9271
-4 -30 -9 -5.5569 -7.1125
-4 -30 -8 -31.1764 16.5447
-4 -30 -7 8.2599 5.9373
-4 -30 -6 0.2332 -14.0109
-4 -30 -5 11.8441 21.0995
-4 -29 -25 -20.0163 -4.0577
-4 -29 -24 4.2285 10.7299
-4 -29 -23 5.8668 -0.8146
-4 -29 -22 -3.9586 -12.5497
-4 -29 -21 5.3701 17.0479
-4 -29 -20 1.4442 -13.4912
-4 -29 -19 9.5909 10.5061
-4 -29 -18 16.3103 1.1047
-4 -29 -17 7.4931 -9.1212
-4 -29 -16 -6.9703 11.7697
-4 -29 -15 14.9864 -19.0530
-4 -29 -14 -10.4398 14.5836
-4 -29 -13 9.5384 -10.5754
-4 -29 -12 6.3567 -15.1344
-4 -29 -11 1.8453 8.3266
-4 -29 -10 17.6837 18.7738
-4 -29 -9 -41.2558 -21.1686
-4 -29 -8 21.7794 -16.8314
-4 -29 -7 -13.7273 2.9683
-4 -29 -6 1.4683 -1.2393
-4 -29 -5 5.4820 23.8000
-4 -28 -27 -1.2477 -11.8915
-4 -28 -26 8.3591 -12.4274
-4 -28 -25 2.4433 -2.0775
-4 -28 -24 25.7522 12.4480
-4 -28 -23 -10.5123 12.0335
-4 -28 -22 -11.4582 23.6946
-4 -28 -21 17.0284 11.7290
-4 -28 -20 10.7168 2.7203
-4 -28 -19 -11.0605 -0.7993
-4 -28 -18 1.6384 -15.0919
-4 -28 -17 2.0134 13.4045
-4 -28 -16 18.5662 -23.2470
-4 -28 -15 -0.8303 -10.4414
-4 -28 -14 -5.5765 5.4377
-4 -28 -13 9.2116 13.0946
-4 -28 -12 -27.9996 10.4418
-4 -28 -11 -27.6314 0.9998
-4 -28 -10 0.1479 -0.1046
-4 -28 -9 -5.4426 -9.1722
-4 -28 -8 1.6979 9.3480
-4 -28 -7 -0.5032 -0.0566
-4 -28 -6 -3.6830 -6.0702
-4 -28 -5 9.8765 -13.6445
-4 -27 -26 -3.5203 -0.9143
-4 -27 -25 17.2468 -14.6259
-4 -27 -24 -1.7124 11.6721
-4 -27 -23 -17.9182 24.1940
-4 -27 -22 -2.0212 -17.7835
-4 -27 -21 2.1935 -14.3736
-4 -27 -20 -2.1333 6.0719
-4 -27 -19 -4.6715 29.0981
-4 -27 -18 0.9312 -5.0521
-4 -27 -17 -29.3156 28.3816
-4 -27 -16 13.7094 -0.8373
-4 -27 -15 -24.0976 -3.5442
-4 -27 -14 -11.7249 -22.3844
-4 -27 -13 -8.1766 -19.2410
-4 -27 -12 -15.6724 15.9603
-4 -27 -11 10.0928 -29.4895
-4 -27 -10 -22.4179 12.6857
-4 -27 -9 5.5720 14.8098
-4 -27 -8 -7.9252 -7.7862
-4 -27 -7 9.9247 -18.8122
-4 -27 -6 22.7701 12.7933
-4 -27 -5 -11.8025 4.1501
-4 -26 -25 -1.2518 5.2931
-4 -26 -24 35.9275 -3.5985
-4 -26 -23 -19.1984 -6.4424
-4 -26 -22 -7.3270 20.5020
-4 -26 -21 -14.2844 1.9417
-4 -26 -20 -2.9022 -19.0370
-4 -26 -19 -9.1178 0.5383
-4 -26 -18 1.4616 19.6453
-4 -26 -17 -15.4769 -9.9316
-4 -26 -16 2.1067 -0.1565
-4 -26 -15 10.4025 23.5601
-4 -26 -14 19.3848 11.9335
-4 -26 -13 21.1709 -7.9041
-4 -26 -12 -16.4134 9.6034
-4 -26 -11 -6.7459 -11.4021
-4 -26 -10 -13.0617 -27.9526
-4 -26 -9 0.1044 8.8836
-4 -26 -8 1.9652 19.6411
-4 -26 -7 13.8969 -18.7794
-4 -26 -6 10.3725 3.1412
-4 -26 -5 2.3899 24.6566
-4 -25 -24 -7.5669 16.1639
-4 -25 -23 -11.3940 -3.3393
-4 -25 -22 6.9052 20.3562
-4 -25 -21 -7.1532 6.9177
-4 -25 -20 14.4366 17.6430
-4 -25 -19 -3.0527 -35.5269
-4 -25 -18 7.9299 -11.4768
-4 -25 -17 10.9849 11.2108
-4 -25 -16 -24.6492 -20.2269
-4 -25 -15 3.3419 -12.9505
-4 -25 -14 -1.4330 -14.6180
-4 -25 -13 0.7502 -24.7278
-4 -25 -12 14.4627 -9.4686
-4 -25 -11 30.1824 -1.3043
-4 -25 -10 -4.7330 13.0864
-4 -25 -9 10.0696 17.4209
-4 -25 -8 -12.4496 24.5095
-4 -25 -7 -1.9675 25.0948
-4 -25 -6 13.4717 -27.8872
-4 -25 -5 -15.0520 5.9455
-4 -24 -23 10.0493 -1.8650
-4 -24 -22 12.0938 20.2104
-4 -24 -21 -18.1304 -2.6410
-4 -24 -20 -33.4282 -25.5941
-4 -24 -19 -14.1799 12.9868
-4 -24 -18 8.8459 7.2233
-4 -24 -17 -16.2466 9.4509
-4 -24 -16 -3.2689 1.8996
-4 -24 -15 10.4327 0.5918
-4 -24 -14 -4.6356 4.2761
-4 -24 -13 2.1359 -13.5857
-4 -24 -12 -7.1963 13.9130
-4 -24 -11 17.0071 -7.6464
-4 -24 -10 -6.7829 -8.6954
-4 -24 -9 14.4881 11.3018
-4 -24 -8 -20.3833 -1.3012
-4 -24 -7 3.7981 -0.1531
-4 -24 -6 1.4810 -7.1309
-4 -24 -5 15.9396 2.3597
-4 -23 -22 12.5445 2.4489
-4 -23 -21 -4.0780 6.7639
-4 -23 -20 -16.8521 18.5495
-4 -23 -19 16.7081 5.6566
-4 -23 -18 -4.2205 4.2026
-4 -23 -17 6.9348 -55.1538
-4 -23 -16 16.0251 -8.1250
-4 -23 -15 -37.7007 4.9333
-4 -23 -14 -3.7455 2.5698
-4 -23 -13 10.4713 2.6804
-4 -23 -12 -8.2192 -7.9834
-4 -23 -11 33.4616 -6.0078
-4 -23 -10 -2.5553 19.0308
-4 -23 -9 -21.3735 -3.9081
-4 -23 -8 0.5115 -1.6115
-4 -23 -7 -26.3202 -22.7583
-4 -23 -6 0.6309 1.4530
-4 -23 -5 15.8590 2.9601
-4 -22 -21 -9.8158 -13.0860
-4 -22 -20 -5.7177 -25.4247
-4 -22 -19 -9.9325 -14.3533
-4 -22 -18 12.7639 -7.0713
-4 -22 -17 19.8181 -1.5534
-4 -22 -16 6.7277 -10.6353
-4 -22 -15 -16.3080 -2.9721
-4 -22 -14 -11.2553 25.8864
-4 -22 -13 -7.4466 10.4022
-4 -22 -12 -32.7511 8.0788
-4 -22 -11 -13.3907 -12.9105
-4 -22 -10 -0.4928 -7.1913
-4 -22 -9 4.4496 -0.4595
-4 -22 -8 9.9651 -16.2978
-4 -22 -7 -2.2741 -15.4180
-4 -22 -6 -6.4267 -6.8546
-4 -22 -5 -13.6201 -7.2701
-4 -21 -20 3.3883 25.3569
-4 -21 -19 -10.2639 54.3588
-4 -21 -18 18.2184 8.5871
-4 -21 -17 -28.1579 4.3259
-4 -21 -16 -17.7044 21.8493
-4 -21 -15 -21.3503 -32.1731
-4 -21 -14 8.9922 -2.1029
-4 -21 -13 -23.1784 9.5954
-4 -21 -12 12.2420 -3.6322
-4 -21 -11 -11.2259 0.1916
-4 -21 -10 14.6112 12.5612
-4 -21 -9 13.9181 -11.8377
-4 -21 -8 -22.1231 26.6872
-4 -21 -7 1.3175 3.0247
-4 -21 -6 -18.7443 -1.2277
-4 -21 -5 -25.8077 -13.2077
-4 -20 -19 -26.9065 3.4811
-4 -20 -18 -15.2755 -16.4827
-4 -20 -17 -7.8094 -8.3209
-4 -20 -16 10.2586 9.7603
-4 -20 -15 -6.2162 6.0016
-4 -20 -14 15.9080 -11.6222
-4 -20 -13 -5.4756 -3.2805
-4 -20 -12 -5.2154 7.9685
-4 -20 -11 28.5605 -17.5058
-4 -20 -10 -5.4668 1.2966
-4 -20 -9 -5.9527 -4.5343
-4 -20 -8 3.3314 8.2876
-4 -20 -7 -19.8514 7.0422
-4 -20 -6 9.4705 7.9441
-4 -20 -5 -5.2821 16.0845
-4 -19 -18 3.6896 -2.7216
-4 -19 -17 10.3641 9.2359
-4 -19 -16 -19.4176 -4.8585
-4 -19 -15 -12.7407 -10.0521
-4 -19 -14 18.6926 -8.6771
-4 -19 -13 0.6554 11.6042
-4 -19 -12 27.7012 -26.2386
-4 -19 -11 13.6650 -12.0750
-4 -19 -10 5.7967 -10.8079
-4 -19 -9 28.4647 -2.5104
-4 -19 -8 -17.7131 -0.7954
-4 -19 -7 -5.6634 3.9934
-4 -19 -6 10.8811 10.2436
-4 -19 -5 9.5598 0.6281
-4 -18 -17 16.3751 -20.8475
-4 -18 -16 -5.4616 -22.4321
-4 -18 -15 25.8325 -10.1648
-4 -18 -14 5.6428 -23.0447
-4 -18 -13 9.2840 -7.1559
-4 -18 -12 17.2107 -4.2610
-4 -18 -11 10.8181 -9.5815
-4 -18 -10 16.0166 7.2904
-4 -18 -9 -12.1542 -6.3834
-4 -18 -8 -14.1689 -9.9258
-4 -18 -7 -6.6642 -25.9185
-4 -18 -6 -3.4112 14.1248
-4 -18 -5 20.8505 22.5930
-4 -17 -16 -1.3905 -13.7840
-4 -17 -15 -13.3739 -12.9843
-4 -17 -14 0.5179 21.2612
-4 -17 -13 -11.5270 6.3717
-4 -17 -12 -13.6317 7.1993
-4 -17 -11 6.3303 11.0355
-4 -17 -10 -20.3049 -7.3064
-4 -17 -9 21.1466 -8.3498
-4 -17 -8 12.0073 -25.0108
-4 -17 -7 -23.3745 -28.0483
-4 -17 -6 -28.6515 7.1116
-4 -17 -5 -9.1806 6.6526
-4 -16 -15 6.2004 21.7580
-4 -16 -14 -26.8136 -1.7070
-4 -16 -13 11.5012 -2.4473
-4 -16 -12 -8.4440 -11.6717
-4 -16 -11 -7.6319 -8.3279
-4 -16 -10 6.9825 29.9481
-4 -16 -9 -3.9319 22.2680
-4 -16 -8 12.6625 7.7954
-4 -16 -7 -0.2609 13.7801
-4 -16 -6 -11.3939 0.8649
-4 -16 -5 -6.7680 0.6695
-4 -15 -14 -2.3247 24.5745
-4 -15 -13 -17.1552 -51.2697
-4 -15 -12 -20.1676 32.0314
-4 -15 -11 -22.7448 7.4572
-4 -15 -10 -10.3121 -0.9130
-4 -15 -9 31.9942 12.6000
-4 -15 -8 10.1109 -14.3409
-4 -15 -7 -26.4662 -3.7944
-4 -15 -6 -13.9564 -5.6702
-4 -15 -5 27.6193 -16.7773
-4 -14 -13 -18.7339 -9.8162
-4 -14 -12 15.3380 1.0067
-4 -14 -11 -10.3350 -16.2392
-4 -14 -10 -13.1511 19.7859
-4 -14 -9 -0.9728 -23.0217
-4 -14 -8 19.3533 12.4810
-4 -14 -7 31.8467 -2.0562
-4 -14 -6 13.5053 -13.1118
-4 -14 -5 19.2868 -48.9416
-4 -13 -12 -5.4379 -21.9377
-4 -13 -11 10.0473 -57.2055
-4 -13 -10 34.6888 -26.6754
-4 -13 -9 18.6361 21.3118
-4 -13 -8 14.6539 1.3266
-4 -13 -7 0.7624 28.3536
-4 -13 -6 7.0893 23.2971
-4 -13 -5 -16.9436 14.9564
-4 -12 -11 14.3788 -14.6513
-4 -12 -10 -17.7407 -13.5404
-4 -12 -9 -26.2261 31.1351
-4 -12 -8 36.1182 21.4529
-4 -12 -7 2.1373 -11.6654
-4 -12 -6 10.8896 0.7480
-4 -12 -5 3.8972 -50.4255
-4 -11 -10 -7.3440 -7.6851
-4 -11 -9 5.8761 17.3416
-4 -11 -8 -3.7885 -16.6362
-4 -11 -7 -2.1618 8.4718
-4 -11 -6 30.6797 10.8002
-4 -11 -5 -17.2984 -9.5881
-4 -10 -9 21.7365 23.6397
-4 -10 -8 63.9592 -35.0435
-4 -10 -7 -7.1336 -32.5722
-4 -10 -6 22.8813 -14.4277
-4 -10 -5 0.6933 17.2370
-4 -9 -8 16.0403 -67.2766
-4 -9 -7 0.2712 -31.4816
-4 -9 -6 -22.5034 -81.9178
-4 -9 -5 37.0419 -4.7424
-4 -8 -7 -24.3113 38.2825
-4 -8 -6 -58.4677 -4.6091
-4 -8 -5 5.8813 46.6305
-4 -7 -6 -38.1545 -43.9537
-4 -7 -5 -19.0955 19.1161
-4 -6 -5 47.8969 72.8973
-3 -38 -8 0.2043 -4.8138
-3 -38 -7 11.6561 -10.0318
-3 -38 -6 -17.8040 2.3450
-3 -38 -5 2.4174 -14.3611
-3 -38 -4 14.7669 -2.0637
-3 -37 -12 -3.4500 -7.4103
-3 -37 -11 6.9784 -12.1380
-3 -37 -10 2.6494 2.6137
-3 -37 -9 0.0897 -8.4717
-3 -37 -8 7.1329 -4.7240
-3 -37 -7 6.9902 -6.1769
-3 -37 -6 12.0452 0.8604
-3 -37 -5 14.6372 -0.4805
-3 -37 -4 -3.1010 -3.2142
-3 -36 -15 -14.5711 -8.3955
-3 -36 -14 -5.9810 -0.6740
-3 -36 -13 11.4886 2.9460
-3 -36 -12 11.7103 5.7158
-3 -36 -11 2.6104 9.2838
-3 -36 -10 17.8452 -1.6002
-3 -36 -9 6.4723 0.2421
-3 -36 -8 1.1232 -0.5711
-3 -36 -7 -12.2182 20.7184
-3 -36 -6 9.9702 10.5155
-3 -36 -5 -14.0388 17.7435
-3 -36 -4 23.5587 3.9636
-3 -35 -17 -2.8838 -11.3440
-3 -35 -16 -16.9609 8.2535
-3 -35 -15 4.4703 3.9914
-3 -35 -14 7.9678 8.6447
-3 -35 -13 12.4259 8.4584
-3 -35 -12 -2.4157 12.6729
-3 -35 -11 0.2675 17.8102
-3 -35 -10 14.9065 -4.1021
-3 -35 -9 7.9414 -4.5702
-3 -35 -8 -16.1639 12.7285
-3 -35 -7 -5.0218 13.4905
-3 -35 -6 4.9760 7.1153
-3 -35 -5 -2.3981 -18.2214
-3 -35 -4 8.5656 -8.9705
-3 -34 -19 13.2948 -3.3590
-3 -34 -18 2.9631 -7.7308
-3 -34 -17 0.1807 -1.9954
-3 -34 -16 3.3379 3.3738
-3 -34 -15 8.7285 -2.6639
-3 -34 -14 24.7296 -5.4961
-3 -34 -13 9.4954 3.5537
-3 -34 -12 -0.0843 -2.5926
-3 -34 -11 -16.5385 -19.4648
-3 -34 -10 -13.4952 -10.6690
-3 -34 -9 -9.7049 4.7364
-3 -34 -8 -0.6107 -20.9294
-3 -34 -7 -11.6309 3.0470
-3 -34 -6 -0.9829 15.8128
-3 -34 -5 -21.7005 0.1251
-3 -34 -4 -19.8733 13.5270
-3 -33 -20 1.1863 4.6989
-3 -33 -19 -12.9934 -0.3995
-3 -33 -18 3.0806 14.5899
-3 -33 -17 9.6978 -8.8207
-3 -33 -16 1.5438 13.8066
-3 -33 -15 10.1488 15.4022
-3 -33 -14 11.2503 -7.9010
-3 -33 -13 -24.4452 1.1778
-3 -33 -12 -2.0862 0.6196
-3 -33 -11 -2.4833 -2.5962
-3 -33 -10 -9.9635 14.1197
-3 -33 -9 -3.5560 -2.1610
-3 -33 -8 19.8177 -9.9409
-3 -33 -7 -6.9174 6.0901
-3 -33 -6 15.9000 -24.5471
-3 -33 -5 -1.8454 -2.7763
-3 -33 -4 4.4091 17.3260
-3 -32 -22 -2.9257 -11.3039
-3 -32 -21 -5.7858 -4.5466
-3 -32 -20 -15.0458 -0.7223
-3 -32 -19 -8.7968 1.3503
-3 -32 -18 -1.8426 8.1440
-3 -32 -17 -1.2579 5.8496
-3 -32 -16 6.6307 -4.9450
-3 -32 -15 10.4432 9.4779
-3 -32 -14 0.7197 -4.9787
-3 -32 -13 -4.1622 -13.4308
-3 -32 -12 5.4460 -16.5367
-3 -32 -11 -29.0344 6.5891
-3 -32 -10 -5.1764 10.3068
-3 -32 -9 -11.3889 24.8104
-3 -32 -8 17.8358 18.2813
-3 -32 -7 2.4294 3.3872
-3 -32 -6 -7.8400 -7.2558
-3 -32 -5 -7.1820 -11.3845
-3 -32 -4 3.3865 -8.5117
-3 -31 -23 -9.5755 -25.2780
-3 -31 -22 -7.5059 8.3144
-3 -31 -21 -16.5478 0.3104
-3 -31 -20 1.6841 6.6526
-3 -31 -19 -3.7393 3.4773
-3 -31 -18 -12.0097 6.6091
-3 -31 -17 19.9358 5.7608
-3 -31 -16 -0.0059 -15.8616
-3 -31 -15 -14.7296 -9.6744
-3 -31 -14 19.4365 -16.4314
-3 -31 -13 -10.9290 20.2558
-3 -31 -12 20.6615 4.6133
-3 -31 -11 -7.5003 3.4316
-3 -31 -10 17.1965 -16.1357
-3 -31 -9 35.4293 -11.0883
-3 -31 -8 10.2169 16.8890
-3 -31 -7 17.5067 12.8374
-3 -31 -6 -10.2063 -13.6399
-3 -31 -5 3.1961 -9.6651
-3 -31 -4 -14.1549 4.9231
-3 -30 -24 -51.5574 21.9455
-3 -30 -23 -15.0888 -3.8929
-3 -30 -22 -5.0042 4.7627
-3 -30 -21 -6.1979 -10.3654
-3 -30 -20 13.9045 -0.2483
-3 -30 -19 -3.8347 -7.2089
-3 -30 -18 -11.3878 1.2624
-3 -30 -17 -2.8106 12.0035
-3 -30 -16 0.8052 0.5946
-3 -30 -15 -11.5940 19.9755
-3 -30 -14 -9.3102 17.3064
-3 -30 -13 -17.7430 -29.9570
-3 -30 -12 11.9863 -18.0193
-3 -30 -11 -17.5930 15.9362
-3 -30 -10 4.0054 34.5132
-3 -30 -9 13.7200 -29.8911
-3 -30 -8 -29.0537 29.8045
-3 -30 -7 3.6912 6.7120
-3 -30 -6 11.4953 0.6310
-3 -30 -5 1.0904 15.8555
-3 -30 -4 14.0661 -21.6762
-3 -29 -26 8.3589 -3.7063
-3 -29 -25 54.0561 39.8894
-3 -29 -24 -0.9791 -9.2886
-3 -29 -23 -14.5592 -15.9818
-3 -29 -22 14.9370 6.7560
-3 -29 -21 -30.2635 -11.6104
-3 -29 -20 -6.3894 -4.5863
-3 -29 -19 -13.5495 -8.5530
-3 -29 -18 1.2317 -14.6824
-3 -29 -17 14.1489 -3.5157
-3 -29 -16 10.4032 -24.1427
-3 -29 -15 12.5448 -16.9819
-3 -29 -14 15.5041 10.0758
-3 -29 -13 11.7028 -1.2263
-3 -29 -12 -21.0798 37.1287
-3 -29 -11 8.8120 -5.6504
-3 -29 -10 -27.8345 -7.0195
-3 -29 -9 6.4016 -3.7956
-3 -29 -8 10.0796 -0.5297
-3 -29 -7 -22.3480 9.2929
-3 -29 -6 17.6918 -6.4999
-3 -29 -5 -0.0507 2.1909
-3 -29 -4 -4.4717 -0.1031
-3 -28 -27 -9.5228 -6.6731
-3 -28 -26 4.0083 8.6524
-3 -28 -25 6.5510 1.0458
-3 -28 -24 24.4626 -1.2574
-3 -28 -23 9.0550 -20.2809
-3 -28 -22 10.3347 17.2449
-3 -28 -21 -16.7074 -5.3548
-3 -28 -20 17.6757 6.0986
-3 -28 -19 -3.0965 -10.2993
-3 -28 -18 -4.6898 -16.6655
-3 -28 -17 5.4412 3.0486
-3 -28 -16 4.7253 -19.7992
-3 -28 -15 25.2546 0.8109
-3 -28 -14 0.0817 9.4722
-3 -28 -13 -2.1769 1.4532
-3 -28 -12 13.5470 12.1155
-3 -28 -11 3.7240 -3.6546
-3 -28 -10 6.8826 -13.8178
-3 -28 -9 -27.6969 -13.7502
-3 -28 -8 -8.5019 -24.4311
-3 -28 -7 -6.8671 1.6735
-3 -28 -6 -16.3923 12.4686
-3 -28 -5 7.3992 -12.6557
-3 -28 -4 -15.3062 8.9963
-3 -27 -26 -1.9581 6.6881
-3 -27 -25 44.4436 -49.6704
-3 -27 -24 8.2591 -12.9846
-3 -27 -23 -17.9888 -23.5351
-3 -27 -22 3.5894 22.5797
-3 -27 -21 -8.9294 3.4228
-3 -27 -20 -5.4381 -12.7056
-3 -27 -19 7.9082 -6.8334
-3 -27 -18 -9.9220 -24.2792
-3 -27 -17 21.2417 18.3108
-3 -27 -16 1.2560 27.6439
-3 -27 -15 15.7369 10.5525
-3 -27 -14 14.1256 -10.1768
-3 -27 -13 -3.9810 6.4734
-3 -27 -12 -0.1304 2.4377
-3 -27 -11 6.0875 9.2431
-3 -27 -10 13.2411 -11.0817
-3 -27 -9 12.9068 19.9325
-3 -27 -8 -29.3732 -24.2866
-3 -27 -7 7.2216 2.6328
-3 -27 -6 11.4680 -0.3231
-3 -27 -5 10.1738 -14.6750
-3 -27 -4 -6.7404 16.8661
-3 -26 -25 -9.1238 8.5171
-3 -26 -24 -8.0870 12.0561
-3 -26 -23 10.3628 18.0955
-3 -26 -22 -11.6988 -8.6577
-3 -26 -21 -1.6950 8.4572
-3 -26 -20 -9.0891 -7.2083
-3 -26 -19 5.3519 30.0722
-3 -26 -18 -63.0062 -0.5627
-3 -26 -17 -31.6094 -13.1750
-3 -26 -16 37.9177 -25.9330
-3 -26 -15 -1.6124 10.7898
-3 -26 -14 22.3589 -6.2865
-3 -26 -13 8.3300 -2.2403
-3 -26 -12 15.8797 33.2631
-3 -26 -11 9.3039 -10.7250
-3 -26 -10 29.6835 2.9292
-3 -26 -9 -21.6617 11.9103
-3 -26 -8 -11.8017 15.7362
-3 -26 -7 11.3980 0.2415
-3 -26 -6 -9.0691 22.3776
-3 -26 -5 -35.5296 0.2867
-3 -26 -4 -7.7215 -0.3209
-3 -25 -24 3.8640 8.1011
-3 -25 -23 -14.8023 5.0777
-3 -25 -22 18.0284 19.3005
-3 -25 -21 26.0233 -13.3866
-3 -25 -20 15.1659 1.7022
-3 -25 -19 -4.9049 -2.5252
-3 -25 -18 13.3051 8.3813
-3 -25 -17 -29.5670 37.0617
-3 -25 -16 20.7611 -13.8828
-3 -25 -15 7.8287 -6.4286
-3 -25 -14 -13.3189 -16.7060
-3 -25 -13 -2.4714 -6.5500
-3 -25 -12 -17.6396 -14.4086
-3 -25 -11 0.0226 -24.9568
-3 -25 -10 10.4895 16.3957
-3 -25 -9 10.4011 15.0972
-3 -25 -8 -18.4936 10.9341
-3 -25 -7 3.2152 -0.3163
-3 -25 -6 -25.9106 -5.1781
-3 -25 -5 4.8987 -12.2412
-3 -25 -4 -30.6511 -3.3643
-3 -24 -23 -4.0116 -3.3865
-3 -24 -22 71.2848 5.2161
-3 -24 -21 0.3359 -12.6690
-3 -24 -20 -1.4134 -5.0657
-3 -24 -19 -12.0954 -3.9003
-3 -24 -18 -5.9357 11.7404
-3 -24 -17 21.5614 31.1526
-3 -24 -16 -10.3506 6.3737
-3 -24 -15 -0.1402 -24.2203
-3 -24 -14 20.2140 18.1856
-3 -24 -13 0.7104 -6.5059
-3 -24 -12 8.9781 -0.4799
-3 -24 -11 10.0434 2.3363
-3 -24 -10 -10.2932 4.7816
-3 -24 -9 40.6423 10.5719
-3 -24 -8 -11.8184 7.2329
-3 -24 -7 -29.3080 22.6951
-3 -24 -6 0.1566 -2.9112
-3 -24 -5 18.8805 -0.1103
-3 -24 -4 35.9018 23.3516
-3 -23 -22 -0.0773 19.0627
-3 -23 -21 -20.3110 38.9479
-3 -23 -20 -10.1738 -16.0046
-3 -23 -19 -9.3092 -5.7087
-3 -23 -18 -3.9776 17.8045
-3 -23 -17 -13.0290 -2.3305
-3 -23 -16 -13.8543 -20.2667
-3 -23 -15 -8.7749 17.4907
-3 -23 -14 15.7378 1.2628
-3 -23 -13 -13.9500 13.0864
-3 -23 -12 -4.2408 2.8569
-3 -23 -11 19.0938 1.2757
-3 -23 -10 -4.6935 23.6919
-3 -23 -9 25.6618 15.3021
-3 -23 -8 10.8422 16.3196
-3 -23 -7 3.1857 1.3990
-3 -23 -6 -17.8101 -20.4197
-3 -23 -5 2.6081 11.1131
-3 -23 -4 -0.0149 -3.7075
-3 -22 -21 1.6849 -10.1765
-3 -22 -20 -5.9414 -47.3091
-3 -22 -19 11.9161 -11.2683
-3 -22 -18 -23.0883 -6.4709
-3 -22 -17 0.1282 3.2811
-3 -22 -16 -25.6739 14.3450
-3 -22 -15 25.6996 -7.6450
-3 -22 -14 16.7181 18.1735
-3 -22 -13 4.0839 -6.6552
-3 -22 -12 -12.6982 11.3211
-3 -22 -11 10.2053 -7.2516
-3 -22 -10 -1.2157 11.0517
-3 -22 -9 6.1374 9.4407
-3 -22 -8 9.5840 -21.8957
-3 -22 -7 -1.9328 -0.4053
-3 -22 -6 1.8540 -30.7335
-3 -22 -5 -10.8464 1.7192
-3 -22 -4 12.9170 -11.7420
-3 -21 -20 -5.5083 -19.8136
-3 -21 -19 -3.1953 34.4645
-3 -21 -18 0.5323 16.7850
-3 -21 -17 2.9449 13.1738
-3 -21 -16 -4.9292 -26.5772
-3 -21 -15 -12.7576 -1.4863
-3 -21 -14 -5.6597 -1.1201
-3 -21 -13 1.5527 13.5041
-3 -21 -12 26.2224 16.3494
-3 -21 -11 -9.2746 -15.8851
-3 -21 -10 10.9252 -9.5714
-3 -21 -9 34.8713 -26.7969
-3 -21 -8 -17.5703 -29.1714
-3 -21 -7 2.9078 -5.5545
-3 -21 -6 17.8380 5.3106
-3 -21 -5 -9.2143 12.3642
-3 -21 -4 -13.9014 -37.5070
-3 -20 -19 3.5707 9.1410
-3 -20 -18 11.5234 10.1065
-3 -20 -17 4.7486 -17.6471
-3 -20 -16 -0.8837 -29.1870
-3 -20 -15 -15.5629 -23.2647
-3 -20 -14 16.9790 4.9555
-3 -20 -13 9.2235 -2.8280
-3 -20 -12 4.4509 4.7388
-3 -20 -11 -3.0397 -4.9522
-3 -20 -10 13.9282 -15.7414
-3 -20 -9 7.9634 -35.2185
-3 -20 -8 -4.3301 19.4032
-3 -20 -7 -3.3962 7.0258
-3 -20 -6 -11.1834 -11.2857
-3 -20 -5 -8.0878 -11.3867
-3 -20 -4 4.0025 -16.0495
-3 -19 -18 -7.3345 -2.7051
-3 -19 -17 16.4854 15.7513
-3 -19 -16 -31.5728 -8.8363
-3 -19 -15 9.8495 -10.2125
-3 -19 -14 -16.1452 15.8281
-3 -19 -13 -4.7053 10.4449
-3 -19 -12 12.2682 -0.9643
-3 -19 -11 -1.7523 7.9814
-3 -19 -10 -3.0392 -3.2743
-3 -19 -9 -8.9135 -17.9168
-3 -19 -8 -8.4227 -7.5982
-3 -19 -7 1.7279 -1.0065
-3 -19 -6 13.0358 -2.9359
-3 -19 -5 17.0831 -23.6399
-3 -19 -4 -12.5007 13.0088
-3 -18 -17 5.3404 -10.6816
-3 -18 -16 14.7317 16.8538
-3 -18 -15 -27.1347 4.5924
-3 -18 -14 14.4742 10.7405
-3 -18 -13 21.0196 1.6415
-3 -18 -12 18.8837 23.1166
-3 -18 -11 1.6960 -4.8643
-3 -18 -10 2.5106 -5.6860
-3 -18 -9 -1.1519 6.2129
-3 -18 -8 -10.9486 11.0890
-3 -18 -7 -8.4750 -19.8881
-3 -18 -6 2.6161 -15.5182
-3 -18 -5 14.2980 9.2815
-3 -18 -4 -1.4668 -5.6979
-3 -17 -16 0.4517 8.6202
-3 -17 -15 -34.6158 43.1165
-3 -17 -14 -1.4703 -5.6965
-3 -17 -13 -4.3562 15.4282
-3 -17 -12 -9.9288 2.9321
-3 -17 -11 10.5410 8.5960
-3 -17 -10 -27.5367 13.0979
-3 -17 -9 6.6430 -4.9271
-3 -17 -8 4.1793 29.1588
-3 -17 -7 -5.8036 -4.1779
-3 -17 -6 2.2528 -9.9593
-3 -17 -5 -38.3103 -6.0061
-3 -17 -4 17.4008 3.5494
-3 -16 -15 24.1382 8.2005
-3 -16 -14 6.3676 25.8191
-3 -16 -13 -28.5316 39.9048
-3 -16 -12 -12.6408 -15.1215
-3 -16 -11 0.8242 -9.5855
-3 -16 -10 1.5618 -7.0637
-3 -16 -9 -8.5022 8.3234
-3 -16 -8 5.5055 4.1537
-3 -16 -7 8.8509 0.2033
-3 -16 -6 0.4053 -2.3511
-3 -16 -5 24.9599 1.6639
-3 -16 -4 9.1776 -16.4670
-3 -15 -14 14.7563 1.4779
-3 -15 -13 -7.4688 -7.7625
-3 -15 -12 -22.1825 -10.7752
-3 -15 -11 -8.4657 -21.4338
-3 -15 -10 5.9488 20.5062
-3 -15 -9 3.2392 35.8913
-3 -15 -8 -33.5691 40.0280
-3 -15 -7 -10.5664 20.0268
-3 -15 -6 -27.6926 35.8192
-3 -15 -5 13.0032 3.2341
-3 -15 -4 22.1012 -17.6419
-3 -14 -13 -9.1586 8.6805
-3 -14 -12 -17.6397 -0.7921
-3 -14 -11 -13.0215 -0.1027
-3 -14 -10 -8.6305 25.8982
-3 -14 -9 -7.1290 -29.2203
-3 -14 -8 1.7637 -8.1883
-3 -14 -7 -0.0884 -3.2919
-3 -14 -6 35.3215 -13.8346
-3 -14 -5 13.9063 -20.7289
-3 -14 -4 -22.8118 15.9933
-3 -13 -12 -42.9552 17.6903
-3 -13 -11 17.4056 -27.1500
-3 -13 -10 11.5098 6.0100
-3 -13 -9 -8.4562 -21.8994
-3 -13 -8 -3.1378 16.9518
-3 -13 -7 13.3878 32.6704
-3 -13 -6 11.3012 -16.9390
-3 -13 -5 -12.4185 -9.0490
-3 -13 -4 -27.3734 -2.1886
-3 -12 -11 2.5740 1.7022
-3 -12 -10 31.3531 3.0609
-3 -12 -9 30.9078 11.0734
-3 -12 -8 -33.0022 -16.9367
-3 -12 -7 -36.3591 -2.3635
-3 -12 -6 -22.3468 -15.6899
-3 -12 -5 -34.3395 11.1981
-3 -12 -4 16.6913 -33.2220
-3 -11 -10 -27.0599 -37.3259
-3 -11 -9 -15.8096 30.2625
-3 -11 -8 3.4081 15.9298
-3 -11 -7 -23.0029 5.6201
-3 -11 -6 -10.3805 3.2808
-3 -11 -5 -19.3798 -3.2305
-3 -11 -4 -20.0584 -25.2183
-3 -10 -9 6.7645 -7.6826
-3 -10 -8 -8.8432 -31.1876
-3 -10 -7 -38.1146 -1.6047
-3 -10 -6 -22.7656 -19.5706
-3 -10 -5 14.9574 30.1952
-3 -10 -4 -15.1178 13.6099
-3 -9 -8 23.0519 -20.3936
-3 -9 -7 -31.1767 -27.5500
-3 -9 -6 -7.8496 2.6236
-3 -9 -5 15.4906 16.5964
-3 -9 -4 -4.5644 -30.3083
-3 -8 -7 -34.8155 4.3144
-3 -8 -6 5.4995 23.7892
-3 -8 -5 -58.7209 -26.0521
-3 -8 -4 -41.3937 -1.2475
-3 -7 -6 -11.4718 7.0029
-3 -7 -5 70.3584 -54.3412
-3 -7 -4 -45.7186 -7.0205
-3 -6 -5 -55.7409 -43.5199
-3 -6 -4 75.6958 -6.3086
-3 -5 -4 39.7322 23.8637
-2 -38 -9 14.8121 -0.1501
-2 -38 -8 -3.5072 10.5276
-2 -38 -7 -12.4088 -21.8334
-2 -38 -6 -2.5069 -13.4994
-2 -38 -5 9.5444 -1.8807
-2 -38 -4 -5.7303 -9.8373
-2 -38 -3 -9.1973 -3.1286
-2 -37 -12 -12.0545 24.7859
-2 -37 -11 5.0128 13.5781
-2 -37 -10 0.9880 -6.2302
-2 -37 -9 -14.3465 -4.1925
-2 -37 -8 2.4371 3.1160
-2 -37 -7 -11.9076 -2.4326
-2 -37 -6 -11.1054 3.0586
-2 -37 -5 2.7515 -3.6376
-2 -37 -4 0.8511 10.4104
-2 -37 -3 -4.8108 8.1991
-2 -36 -15 -5.5024 17.0228
-2 -36 -14 14.0207 18.6857
-2 -36 -13 0.2186 17.9409
-2 -36 -12 -8.8550 -19.4333
-2 -36 -11 10.8710 -0.2164
-2 -36 -10 1.7486 12.1221
-2 -36 -9 3.4406 -11.7744
-2 -36 -8 -14.7676 2.1261
-2 -36 -7 -5.2221 7.9451
-2 -36 -6 -10.7472 7.5811
-2 -36 -5 6.2540 -18.9017
-2 -36 -4 8.6925 3.8597
-2 -36 -3 -0.3240 -17.7511
-2 -35 -17 11.5672 -4.5147
-2 -35 -16 10.4210 4.0083
-2 -35 -15 6.2216 -7.7539
-2 -35 -14 -8.2960 15.5487
-2 -35 -13 5.5561 25.8507
-2 -35 -12 1.8323 -2.7696
-2 -35 -11 3.5425 1.0005
-2 -35 -10 17.4056 5.3944
-2 -35 -9 2.4476 7.6579
-2 -35 -8 -12.0854 -11.0003
-2 -35 -7 -3.5857 -7.1133
-2 -35 -6 -1.3658 -1.1779
-2 -35 -5 -29.5966 1.0686
-2 -35 -4 16.3289 -0.3471
-2 -35 -3 -3.9932 -9.0467
-2 -34 -19 -0.5063 10.2443
-2 -34 -18 -10.1794 -1.4978
-2 -34 -17 -1.3108 1.1799
-2 -34 -16 -4.1619 2.8852
-2 -34 -15 -4.7115 4.1483
-2 -34 -14 -4.3678 17.5058
-2 -34 -13 -1.8590 -18.6548
-2 -34 -12 -18.3300 -34.0263
-2 -34 -11 4.3424 -0.4716
-2 -34 -10 -7.8770 18.0579
-2 -34 -9 -1.5262 -0.6649
-2 -34 -8 -7.9903 0.8150
-2 -34 -7 -0.4539 7.8488
-2 -34 -6 -2.8570 -2.8832
-2 -34 -5 -13.5112 18.2982
-2 -34 -4 9.9126 -9.8872
-2 -34 -3 38.6548 20.2389
-2 -33 -20 5.7436 3.6725
-2 -33 -19 -0.0388 -2.1458
-2 -33 -18 5.4905 7.6609
-2 -33 -17 -1.5800 7.7473
-2 -33 -16 -8.0721 17.1392
-2 -33 -15 1.9006 15.4668
-2 -33 -14 0.9065 8.8094
-2 -33 -13 -8.4676 17.8433
-2 -33 -12 5.0464 -9.1541
-2 -33 -11 -2.7788 1.0687
-2 -33 -10 -22.1163 -0.1463
-2 -33 -9 7.1044 -1.3287
-2 -33 -8 3.2005 7.9912
-2 -33 -7 -9.6314 -16.3481
-2 -33 -6 -11.2232 -0.6475
-2 -33 -5 -13.0550 -14.5941
-2 -33 -4 -6.2376 11.5448
-2 -33 -3 22.5512 -3.9456
-2 -32 -22 7.6222 9.6150
-2 -32 -21 10.5737 5.4576
-2 -32 -20 -2.7313 6.4070
-2 -32 -19 -3.1370 -1.2645
-2 -32 -18 -11.3910 10.0317
-2 -32 -17 -3.0664 -8.1487
-2 -32 -16 2.0933 8.9385
-2 -32 -15 6.0334 -19.1783
-2 -32 -14 -0.8819 3.4035
-2 -32 -13 -2.6634 -13.2467
-2 -32 -12 14.1440 10.0076
-2 -32 -11 -12.1443 -20.7609
-2 -32 -10 -8.6782 0.0656
-2 -32 -9 -33.9044 -8.8381
-2 -32 -8 6.5657 -8.9283
-2 -32 -7 -23.8353 3.7127
-2 -32 -6 3.8496 24.1518
-2 -32 -5 -5.8970 -25.6097
-2 -32 -4 -22.6607 0.6929
-2 -32 -3 7.9958 -15.7446
-2 -31 -23 8.1242 5.6172
-2 -31 -22 6.0409 -4.0514
-2 -31 -21 6.2082 1.4843
-2 -31 -20 -8.8793 6.8383
-2 -31 -19 -9.3607 -4.7293
-2 -31 -18 3.3846 -6.7589
-2 -31 -17 -5.1725 1.3467
-2 -31 -16 -6.4783 8.4754
-2 -31 -15 -7.6752 -11.8572
-2 -31 -14 -11.7631 -3.5491
-2 -31 -13 8.6292 -4.6292
-2 -31 -12 -0.5430 -5.7885
-2 -31 -11 -11.8842 5.8550
-2 -31 -10 12.4912 4.2445
-2 -31 -9 11.0774 12.6638
-2 -31 -8 -12.1100 3.6339
-2 -31 -7 3.6408 6.0837
-2 -31 -6 10.2458 0.1562
-2 -31 -5 10.8136 -32.5890
-2 -31 -4 44.7714 10.5981
-2 -31 -3 19.3040 5.1478
-2 -30 -25 -16.4029 0.4859
-2 -30 -24 9.1509 -3.6729
-2 -30 -23 1.4356 4.6700
-2 -30 -22 11.3861 5.6589
-2 -30 -21 -1.6975 -2.9043
-2 -30 -20 -6.0209 13.0718
-2 -30 -19 16.0218 -3.2399
-2 -30 -18 15.9253 -1.2459
-2 -30 -17 4.3241 -27.9277
-2 -30 -16 -2.7284 -15.9995
-2 -30 -15 -8.9294 -2.6495
-2 -30 -14 -7.0053 -8.9794
-2 -30 -13 -23.1528 -24.7529
-2 -30 -12 7.5883 22.3041
-2 -30 -11 11.1167 10.5947
-2 -30 -10 -11.7225 -13.0007
-2 -30 -9 -3.1542 6.0246
-2 -30 -8 -13.7328 -9.7603
-2 -30 -7 0.7597 7.6822
-2 -30 -6 18.2248 0.7456
-2 -30 -5 0.0956 12.1363
-2 -30 -4 -11.7646 -29.8546
-2 -30 -3 -17.2002 -14.7796
-2 -29 -26 -25.9108 -3.6053
-2 -29 -25 -26.1103 10.5633
-2 -29 -24 -9.9134 -4.8738
-2 -29 -23 15.9366 -22.7852
-2 -29 -22 -10.5033 9.0727
-2 -29 -21 12.7283 17.1749
-2 -29 -20 5.2376 7.2950
-2 -29 -19 15.3120 0.6638
-2 -29 -18 20.4481 2.1905
-2 -29 -17 4.4631 -3.0362
-2 -29 -16 -5.5322 16.0027
-2 -29 -15 14.9099 -8.8295
-2 -29 -14 18.6552 2.0200
-2 -29 -13 -4.0192 -8.7363
-2 -29 -12 -1.4143 5.2888
-2 -29 -11 19.8935 -1.9635
-2 -29 -10 12.9035 -5.6307
-2 -29 -9 -9.2009 -3.6355
-2 -29 -8 -7.4785 7.6877
-2 -29 -7 1.7343 7.1596
-2 -29 -6 -16.6831 -2.6793
-2 -29 -5 38.9573 3.0837
-2 -29 -4 -5.7361 -15.7572
-2 -29 -3 -3.6996 -6.6200
-2 -28 -27 -18.3295 -12.9503
-2 -28 -26 -6.2757 1.1107
-2 -28 -25 -17.4941 -10.4320
-2 -28 -24 1.2798 -6.4795
-2 -28 -23 24.1692 18.5256
-2 -28 -22 -28.0386 34.2483
-2 -28 -21 4.6590 20.5493
-2 -28 -20 0.9487 18.6970
-2 -28 -19 8.3134 -7.5997
-2 -28 -18 11.6248 13.5375
-2 -28 -17 -11.2864 -13.6646
-2 -28 -16 -7.2303 4.7195
-2 -28 -15 -21.2157 10.4428
-2 -28 -14 -42.8341 -5.7600
-2 -28 -13 2.9779 -6.7308
-2 -28 -12 2.1904 15.4385
-2 -28 -11 3.6659 -28.1233
-2 -28 -10 -23.8000 22.9872
-2 -28 -9 2.1548 -12.6749
-2 -28 -8 -1.3585 7.0613
-2 -28 -7 6.5697 -5.6529
-2 -28 -6 -0.8217 0.5462
-2 -28 -5 0.0479 -4.9368
-2 -28 -4 -12.5943 2.6623
-2 -28 -3 -7.7018 29.5192
-2 -27 -26 -3.2726 -7.4300
-2 -27 -25 -17.7237 -2.1740
-2 -27 -24 18.7834 -5.3464
-2 -27 -23 -9.5938 17.2874
-2 -27 -22 10.5714 15.5038
-2 -27 -21 4.4724 9.0261
-2 -27 -20 14.1670 2.4689
-2 -27 -19 -5.4250 4.2136
-2 -27 -18 -3.9962 -9.3949
-2 -27 -17 11.3146 8.1224
-2 -27 -16 -11.7551 37.4433
-2 -27 -15 9.5433 -15.2546
-2 -27 -14 12.1063 5.5274
-2 -27 -13 -13.7700 16.4164
-2 -27 -12 -20.5469 1.5707
-2 -27 -11 -24.8435 1.0325
-2 -27 -10 -34.5484 2.4677
-2 -27 -9 2.6522 -13.8169
-2 -27 -8 -2.6760 -9.6243
-2 -27 -7 26.4453 -1.6150
-2 -27 -6 -4.9647 -10.9249
-2 -27 -5 -21.1590 -22.1739
-2 -27 -4 -8.9816 8.5720
-2 -27 -3 0.3914 1.3540
-2 -26 -25 -29.5179 -30.8747
-2 -26 -24 24.6451 2.3491
-2 -26 -23 7.1778 -4.0145
-2 -26 -22 -3.2063 3.1792
-2 -26 -21 9.3208 -15.9257
-2 -26 -20 -7.6394 -3.9283
-2 -26 -19 5.4096 0.8670
-2 -26 -18 3.3414 5.9008
-2 -26 -17 -13.9393 5.2738
-2 -26 -16 19.8154 -3.4768
-2 -26 -15 -12.6115 14.2436
-2 -26 -14 -2.3673 -22.0622
-2 -26 -13 24.8543 -6.7841
-2 -26 -12 14.3459 -15.8003
-2 -26 -11 5.1602 -15.5025
-2 -26 -10 -3.3957 20.3026
-2 -26 -9 7.4405 27.0461
-2 -26 -8 3.5048 -0.9266
-2 -26 -7 4.4532 -8.8282
-2 -26 -6 -10.5497 17.7574
-2 -26 -5 6.2392 5.3560
-2 -26 -4 -4.0300 -3.0447
-2 -26 -3 -3.5889 -2.1961
-2 -25 -24 0.2621 -15.3535
-2 -25 -23 -2.4605 -32.9760
-2 -25 -22 -2.3859 10.2263
-2 -25 -21 18.9021 -16.1024
-2 -25 -20 11.4245 -2.3528
-2 -25 -19 6.9230 14.2363
-2 -25 -18 -5.8719 -4.0841
-2 -25 -17 -5.6717 3.1349
-2 -25 -16 6.9032 -4.6716
-2 -25 -15 -35.7944 15.5846
-2 -25 -14 -8.1407 15.9166
-2 -25 -13 21.2670 -8.1329
-2 -25 -12 9.7849 9.7318
-2 -25 -11 11.4053 -15.2645
-2 -25 -10 12.0893 -10.7279
-2 -25 -9 0.9058 -13.7436
-2 -25 -8 10.4408 -11.1327
-2 -25 -7 1.6337 -3.0546
-2 -25 -6 -14.1704 24.0332
-2 -25 -5 -38.7474 20.0680
-2 -25 -4 -9.5323 -14.8671
-2 -25 -3 -22.9383 3.4878
-2 -24 -23 11.1771 -12.6717
-2 -24 -22 2.2023 28.8246
-2 -24 -21 7.2674 -10.1120
-2 -24 -20 -8.0493 1.6743
-2 -24 -19 18.3853 -35.9603
-2 -24 -18 27.3680 -14.1041
-2 -24 -17 -21.2111 -7.0750
-2 -24 -16 5.6723 -28.1253
-2 -24 -15 14.9700 -28.4152
-2 -24 -14 11.0890 -16.4882
-2 -24 -13 -31.5723 -8.5894
-2 -24 -12 11.0411 -28.4277
-2 -24 -11 -4.0964 7.9036
-2 -24 -10 -5.0744 5.9286
-2 -24 -9 4.9553 -5.5578
-2 -24 -8 -8.6873 7.5659
-2 -24 -7 5.0201 6.6856
-2 -24 -6 7.9765 7.5357
-2 -24 -5 -20.9397 -5.1345
-2 -24 -4 0.4069 -15.5940
-2 -24 -3 24.9063 16.5855
-2 -23 -22 4.6788 9.0239
-2 -23 -21 -52.4193 -0.7925
-2 -23 -20 4.5854 -0.7370
-2 -23 -19 -3.9167 22.3196
-2 -23 -18 -5.3609 1.5589
-2 -23 -17 -5.9201 9.4500
-2 -23 -16 9.5248 -8.3150
-2 -23 -15 37.8996 2.4757
-2 -23 -14 4.7403 -18.6646
-2 -23 -13 -13.4738 -8.7733
-2 -23 -12 -24.4895 9.5092
-2 -23 -11 -22.3427 -15.8069
-2 -23 -10 5.9140 -14.7321
-2 -23 -9 4.0473 -10.5164
-2 -23 -8 -6.7487 15.4112
-2 -23 -7 -3.2863 10.4866
-2 -23 -6 1.1146 0.8188
-2 -23 -5 39.9917 -13.0005
-2 -23 -4 35.7373 2.2229
-2 -23 -3 -13.6826 1.5140
-2 -22 -21 5.7557 9.3596
-2 -22 -20 -10.5956 -10.2491
-2 -22 -19 26.8860 -1.5318
-2 -22 -18 1.8036 -15.8544
-2 -22 -17 5.1884 -1.8555
-2 -22 -16 21.6583 -6.5319
-2 -22 -15 10.6761 10.2689
-2 -22 -14 9.1244 10.5573
-2 -22 -13 12.7189 11.8984
-2 -22 -12 19.1392 13.9960
-2 -22 -11 -14.1376 -2.5519
-2 -22 -10 -2.0466 7.1157
-2 -22 -9 -1.0849 -1.2637
-2 -22 -8 -22.2429 5.4118
-2 -22 -7 -13.0720 -2.6323
-2 -22 -6 -6.3446 13.2506
-2 -22 -5 -2.1504 -12.1675
-2 -22 -4 11.3244 35.2080
-2 -22 -3 31.0080 -8.5809
-2 -21 -20 12.0613 -0.0245
-2 -21 -19 24.8398 14.4671
-2 -21 -18 -17.7395 6.7160
-2 -21 -17 21.0873 23.2666
-2 -21 -16 10.3921 18.0612
-2 -21 -15 11.4108 -5.6888
-2 -21 -14 21.8102 -16.1032
-2 -21 -13 -4.6452 8.1880
-2 -21 -12 -0.8437 -1.9867
-2 -21 -11 -10.1355 3.6920
-2 -21 -10 -26.9928 14.4801
-2 -21 -9 19.0048 0.3411
-2 -21 -8 10.7910 7.2673
-2 -21 -7 -6.7674 23.5314
-2 -21 -6 5.0397 3.6960
-2 -21 -5 -26.7494 6.0207
-2 -21 -4 -7.8843 11.6308
-2 -21 -3 15.3584 15.7599
-2 -20 -19 36.2508 11.9440
-2 -20 -18 -25.7528 17.4900
-2 -20 -17 -13.5555 -7.8566
-2 -20 -16 13.0823 -12.7498
-2 -20 -15 1.6121 10.5494
-2 -20 -14 -12.9797 -18.1263
-2 -20 -13 -12.2881 12.1345
-2 -20 -12 23.2609 20.7574
-2 -20 -11 5.8757 -7.1856
-2 -20 -10 -4.3774 -23.4652
-2 -20 -9 11.8395 -1.1204
-2 -20 -8 -2.1512 -8.0192
-2 -20 -7 -10.6003 -7.9878
-2 -20 -6 13.4774 -6.1451
-2 -20 -5 10.9816 28.2651
-2 -20 -4 3.0293 -6.7823
-2 -20 -3 4.2075 13.2886
-2 -19 -18 14.8362 6.8266
-2 -19 -17 8.0911 20.7189
-2 -19 -16 1.4066 11.3271
-2 -19 -15 1.1973 -6.7482
-2 -19 -14 2.8465 18.4391
-2 -19 -13 -25.8985 10.0597
-2 -19 -12 -0.5973 0.1255
-2 -19 -11 9.5953 -9.4770
-2 -19 -10 -23.1722 15.0889
-2 -19 -9 4.3212 14.7916
-2 -19 -8 23.8367 -12.2459
-2 -19 -7 28.2388 18.1309
-2 -19 -6 34.4437 -16.4522
-2 -19 -5 23.7521 26.2522
-2 -19 -4 -5.6503 -0.3018
-2 -19 -3 -22.0236 -44.7258
-2 -18 -17 16.4881 25.6581
-2 -18 -16 0.4640 -10.7638
-2 -18 -15 -2.1465 18.3581
-2 -18 -14 9.2664 -17.7675
-2 -18 -13 -5.9918 0.7071
-2 -18 -12 3.9415 21.0619
-2 -18 -11 -0.3098 -32.4831
-2 -18 -10 22.1588 33.3580
-2 -18 -9 0.8769 1.3430
-2 -18 -8 13.5643 13.1961
-2 -18 -7 -24.2944 -4.4070
-2 -18 -6 -14.3858 10.9621
-2 -18 -5 -7.9097 -3.3903
-2 -18 -4 -4.3984 6.6853
-2 -18 -3 -19.5070 -21.7933
-2 -17 -16 -2.4448 -0.2934
-2 -17 -15 6.4505 10.9173
-2 -17 -14 3.7417 10.2300
-2 -17 -13 -0.7610 10.1071
-2 -17 -12 -0.0844 -9.4150
-2 -17 -11 -44.0734 16.8210
-2 -17 -10 0.8228 -4.3310
-2 -17 -9 -26.6975 0.5232
-2 -17 -8 6.5674 12.4443
-2 -17 -7 -9.1933 13.5912
-2 -17 -6 25.0067 1.3892
-2 -17 -5 37.6829 42.8604
-2 -17 -4 -32.3952 35.9281
-2 -17 -3 25.4929 -38.5772
-2 -16 -15 -2.4451 -9.6140
-2 -16 -14 -3.7263 40.8752
-2 -16 -13 4.8905 -16.9231
-2 -16 -12 -8.4804 -11.9997
-2 -16 -11 10.2455 36.3338
-2 -16 -10 -2.2092 1.9228
-2 -16 -9 19.0487 20.8303
-2 -16 -8 -27.1268 23.2158
-2 -16 -7 -22.1976 2.8118
-2 -16 -6 7.0254 11.0777
-2 -16 -5 26.9561 -6.1057
-2 -16 -4 -56.1756 -37.6900
-2 -16 -3 18.1038 -12.9080
-2 -15 -14 9.4194 15.6592
-2 -15 -13 -10.4157 13.8243
-2 -15 -12 10.4285 -49.4913
-2 -15 -11 -2.7069 12.1964
-2 -15 -10 19.1271 12.9852
-2 -15 -9 12.7085 -4.7422
-2 -15 -8 11.9503 -4.0136
-2 -15 -7 2.0369 -20.5612
-2 -15 -6 -35.4604 -2.7461
-2 -15 -5 30.4513 0.4224
-2 -15 -4 2.6781 20.0953
-2 -15 -3 5.4213 10.3361
-2 -14 -13 12.5645 -0.0630
-2 -14 -12 10.4336 -1.7441
-2 -14 -11 60.2624 38.7808
-2 -14 -10 9.9570 -16.8498
-2 -14 -9 35.4448 -25.9691
-2 -14 -8 -25.8721 -11.1154
-2 -14 -7 -6.6264 -15.4111
-2 -14 -6 34.2664 -16.1147
-2 -14 -5 11.6926 6.7596
-2 -14 -4 13.8049 -44.8306
-2 -14 -3 -9.6221 6.8877
-2 -13 -12 4.2179 3.5213
-2 -13 -11 5.5395 0.2829
-2 -13 -10 -16.6499 -21.9533
-2 -13 -9 32.8174 5.4096
-2 -13 -8 28.5894 25.8058
-2 -13 -7 46.2075 19.4343
-2 -13 -6 34.2821 17.3477
-2 -13 -5 28.4471 -30.2483
-2 -13 -4 -13.2268 11.9364
-2 -13 -3 -4.4242 25.4228
-2 -12 -11 -19.1882 -39.9369
-2 -12 -10 6.8318 38.7722
-2 -12 -9 -16.4456 39.8352
-2 -12 -8 -8.8056 29.8448
-2 -12 -7 -17.6389 -28.7167
-2 -12 -6 -13.5320 49.6453
-2 -12 -5 -27.7389 0.1523
-2 -12 -4 -8.6327 -8.2303
-2 -12 -3 -11.1911 40.2981
-2 -11 -10 3.0743 17.2147
-2 -11 -9 25.8101 1.5252
-2 -11 -8 -14.2272 -28.5147
-2 -11 -7 54.5197 7.7251
-2 -11 -6 -44.3028 9.5963
-2 -11 -5 -16.7283 -21.2863
-2 -11 -4 20.6640 19.8229
-2 -11 -3 11.3417 -6.8806
-2 -10 -9 -11.7343 2.4200
-2 -10 -8 0.4076 12.8191
-2 -10 -7 2.5412 -10.8557
-2 -10 -6 -17.3905 -0.2588
-2 -10 -5 -24.1118 -2.3588
-2 -10 -4 8.0066 1.3160
-2 -10 -3 40.2318 -46.3697
-2 -9 -8 -28.6217 -55.4932
-2 -9 -7 -18.1806 -27.0751
-2 -9 -6 22.5297 -26.7720
-2 -9 -5 19.8393 9.9178
-2 -9 -4 -2.3118 59.7411
-2 -9 -3 -57.3328 -25.0357
-2 -8 -7 0.1302 20.0836
-2 -8 -6 82.9300 -58.5383
-2 -8 -5 47.8077 34.5741
-2 -8 -4 77.4737 28.0788
-2 -8 -3 -3.9287 -20.5635
-2 -7 -6 -51.8190 43.2950
-2 -7 -5 37.8478 57.3550
-2 -7 -4 -8.6122 -1.7964
-2 -7 -3 -48.1650 116.7589
-2 -6 -5 -30.2040 37.6868
-2 -6 -4 52.8796 -22.7121
-2 -6 -3 -98.1456 89.0730
-2 -5 -4 9.8516 -70.0434
-2 -5 -3 136.1100 -24.1046
-2 -4 -3 -102.9149 2.5792
-1 -39 -3 0.7617 4.6137
-1 -38 -9 3.4336 -6.3354
-1 -38 -8 -7.1306 -1.8830
-1 -38 -7 -2.3881 -5.1664
-1 -38 -6 1.0360 4.2954
-1 -38 -5 2.7126 -3.5140
-1 -38 -4 -10.9658 -0.0265
-1 -38 -3 1.7980 -3.4034
-1 -38 -2 -3.7580 1.6048
-1 -37 -12 10.1346 5.3645
-1 -37 -11 26.3245 -2.8778
-1 -37 -10 -11.7199 -1.9000
-1 -37 -9 4.1126 2.5701
-1 -37 -8 2.6470 -1.6487
-1 -37 -7 2.7096 -16.8270
-1 -37 -6 -3.1604 0.8166
-1 -37 -5 6.2483 -15.3381
-1 -37 -4 0.6940 -0.5612
-1 -37 -3 -8.6881 -4.0046
-1 -37 -2 5.5844 -5.7427
-1 -36 -15 9.8405 1.4505
-1 -36 -14 -1.3361 -3.0991
-1 -36 -13 -4.5369 12.1095
-1 -36 -12 -5.2963 -1.9698
-1 -36 -11 -6.9775 10.6863
-1 -36 -10 -4.8967 -18.1312
-1 -36 -9 39.8532 3.1301
-1 -36 -8 16.9364 -12.4133
-1 -36 -7 -7.8755 -1.6538
-1 -36 -6 11.4880 15.8916
-1 -36 -5 8.0545 -11.9891
-1 -36 -4 0.8319 -1.9754
-1 -36 -3 0.5664 10.1935
-1 -36 -2 -10.1024 -17.0312
-1 -35 -17 17.1830 -1.8160
-1 -35 -16 -14.2315 4.2135
-1 -35 -15 -0.3299 1.4342
-1 -35 -14 -0.7059 12.0458
-1 -35 -13 12.8510 -5.6232
-1 -35 -12 -3.1222 8.6354
-1 -35 -11 -7.2571 -2.9372
-1 -35 -10 -21.4456 9.9357
-1 -35 -9 8.9667 0.9274
-1 -35 -8 4.0148 23.0720
-1 -35 -7 -5.0952 10.6730
-1 -35 -6 -2.2670 -1.3369
-1 -35 -5 -6.1552 4.6706
-1 -35 -4 6.4500 -1.8921
-1 -35 -3 -1.8231 8.1661
-1 -35 -2 -0.8607 1.6258
-1 -34 -19 -5.7814 9.8367
-1 -34 -18 1.5320 3.0506
-1 -34 -17 -1.7152 -6.4187
-1 -34 -16 -0.6227 1.0351
-1 -34 -15 3.2055 -1.6050
-1 -34 -14 12.3720 -14.1170
-1 -34 -13 -16.2646 0.9538
-1 -34 -12 -13.9176 -16.8403
-1 -34 -11 23.1440 -0.9946
-1 -34 -10 -7.2531 -26.0324
-1 -34 -9 -25.4901 26.7401
-1 -34 -8 -14.0376 13.2792
-1 -34 -7 4.0581 -12.8711
-1 -34 -6 12.5102 32.5370
-1 -34 -5 -18.1502 -8.5167
-1 -34 -4 -5.5796 -28.6893
-1 -34 -3 4.5569 7.8217
-1 -34 -2 -41.8769 33.2118
-1 -33 -21 -3.4330 8.5263
-1 -33 -20 -1.3963 3.0436
-1 -33 -19 10.2107 17.3060
-1 -33 -18 7.5344 1.2765
-1 -33 -17 -9.3411 4.0714
-1 -33 -16 -6.8801 -2.1616
-1 -33 -15 1.6712 -12.0268
-1 -33 -14 -3.0046 -5.2375
-1 -33 -13 -3.6001 -7.7976
-1 -33 -12 37.7142 -0.9860
-1 -33 -11 -22.7247 -24.3689
-1 -33 -10 1.6201 -1.6792
-1 -33 -9 14.0821 -16.9162
-1 -33 -8 6.3194 -2.7937
-1 -33 -7 -24.1948 -15.8638
-1 -33 -6 27.2540 -4.5506
-1 -33 -5 5.2434 17.1361
-1 -33 -4 1.5066 9.7773
-1 -33 -3 10.8237 -17.2616
-1 -33 -2 45.4568 -12.6864
-1 -32 -22 7.3072 2.6229
-1 -32 -21 -1.8275 8.8128
-1 -32 -20 -2.9804 0.2371
-1 -32 -19 3.3489 -13.1115
-1 -32 -18 -1.0474 4.5436
-1 -32 -17 -1.1353 19.6582
-1 -32 -16 6.6799 -3.9039
-1 -32 -15 -15.8163 -27.8660
-1 -32 -14 -11.2855 1.7115
-1 -32 -13 0.5755 -20.7158
-1 -32 -12 5.1687 -33.4129
-1 -32 -11 15.3893 -2.1107
-1 -32 -10 7.1609 30.4782
-1 -32 -9 7.0712 -31.4526
-1 -32 -8 -8.2143 14.1841
-1 -32 -7 26.9870 10.7132
-1 -32 -6 -3.1612 12.7258
-1 -32 -5 8.2577 -9.5968
-1 -32 -4 -21.6533 71.7880
-1 -32 -3 62.6935 10.5025
-1 -32 -2 -1.0932 -15.4671
-1 -31 -23 -3.8847 19.4981
-1 -31 -22 -25.9825 -23.2616
-1 -31 -21 3.3209 -0.3517
-1 -31 -20 0.6785 2.9110
-1 -31 -19 2.5290 2.2944
-1 -31 -18 -6.0149 -13.9120
-1 -31 -17 -2.3108 -11.9464
-1 -31 -16 7.3506 -4.0913
-1 -31 -15 -7.9022 11.7208
-1 -31 -14 28.2267 33.5017
-1 -31 -13 8.3501 -8.9740
-1 -31 -12 -47.1351 39.6332
-1 -31 -11 -23.2917 21.8876
-1 -31 -10 -2.5144 -21.2536
-1 -31 -9 -16.9501 -29.7416
-1 -31 -8 -0.1286 3.6411
-1 -31 -7 0.7016 -5.4717
-1 -31 -6 -15.3060 -3.9222
-1 -31 -5 15.1227 -0.4566
-1 -31 -4 -6.4486 3.2787
-1 -31 -3 43.7906 -0.6020
-1 -31 -2 -9.1581 -18.7586
-1 -30 -25 0.8591 14.3647
-1 -30 -24 17.6783 12.3484
-1 -30 -23 -10.1208 12.7662
-1 -30 -22 -7.8517 -6.5185
-1 -30 -21 -0.8689 4.3144
-1 -30 -20 5.1682 -18.0457
-1 -30 -19 1.9587 7.5705
-1 -30 -18 4.0116 3.3570
-1 -30 -17 1.8479 -24.1777
-1 -30 -16 -14.0733 4.4961
-1 -30 -15 -10.2667 30.5142
-1 -30 -14 -24.4667 12.6157
-1 -30 -13 6.7268 -21.2870
-1 -30 -12 -12.4180 7.2195
-1 -30 -11 7.8700 21.7020
-1 -30 -10 2.0820 -11.1252
-1 -30 -9 6.8410 12.7404
-1 -30 -8 8.4438 -12.2203
-1 -30 -7 10.5468 -0.9380
-1 -30 -6 -5.3892 -3.5259
-1 -30 -5 8.8655 -2.9352
-1 -30 -4 8.7406 24.2900
-1 -30 -3 17.1784 -15.7529
-1 -30 -2 -40.0352 29.5318
-1 -29 -26 -11.4695 28.6937
-1 -29 -25 27.5737 -73.1288
-1 -29 -24 5.8456 -10.9487
-1 -29 -23 9.0727 4.8288
-1 -29 -22 -6.4339 -7.8073
-1 -29 -21 23.2247 28.1632
-1 -29 -20 8.5628 12.2331
-1 -29 -19 12.9667 -7.2074
-1 -29 -18 7.7759 1.9812
-1 -29 -17 19.1344 -4.1205
-1 -29 -16 33.9115 24.3017
-1 -29 -15 -7.0501 -38.0594
-1 -29 -14 -30.3642 40.9971
-1 -29 -13 7.3420 5.2587
-1 -29 -12 24.4382 -26.2837
-1 -29 -11 18.0218 -3.5871
-1 -29 -10 29.8831 21.0213
-1 -29 -9 10.9559 -1.3259
-1 -29 -8 17.3005 8.7281
-1 -29 -7 -1.7964 -13.9218
-1 -29 -6 18.1817 -6.0128
-1 -29 -5 -9.8936 -5.5105
-1 -29 -4 -6.8970 3.8391
-1 -29 -3 -11.2119 2.8643
-1 -29 -2 48.2528 -13.6241
-1 -28 -27 -4.8246 9.6845
-1 -28 -26 -29.7685 -55.7519
-1 -28 -25 -12.6894 -18.4433
-1 -28 -24 26.4865 -29.7203
-1 -28 -23 0.5726 9.2297
-1 -28 -22 12.8630 -7.7161
-1 -28 -21 10.0614 2.7603
-1 -28 -20 1.5855 -2.1080
-1 -28 -19 -21.0598 -11.1271
-1 -28 -18 10.7241 -3.0761
-1 -28 -17 -8.6690 -29.2003
-1 -28 -16 1.1441 -14.1881
-1 -28 -15 9.2183 -41.8608
-1 -28 -14 -26.1436 24.2418
-1 -28 -13 18.3522 2.8831
-1 -28 -12 -6.7932 -13.4157
-1 -28 -11 7.9544 4.8836
-1 -28 -10 -3.7065 12.7817
-1 -28 -9 28.7991 2.7033
-1 -28 -8 -5.2040 -6.8255
-1 -28 -7 26.4348 -2.2183
-1 -28 -6 22.8073 0.7655
-1 -28 -5 13.7593 -5.3780
-1 -28 -4 -3.7383 -2.3458
-1 -28 -3 13.4142 2.6015
-1 -28 -2 9.0363 15.9060
-1 -27 -26 -10.8195 10.6844
-1 -27 -25 3.5853 -10.4159
-1 -27 -24 24.7034 -9.5357
-1 -27 -23 25.8264 -8.6537
-1 -27 -22 -7.8930 -5.2040
-1 -27 -21 -9.4074 5.2398
-1 -27 -20 -23.1702 -2.1031
-1 -27 -19 1.9532 -6.6268
-1 -27 -18 19.8376 18.5335
-1 -27 -17 -29.4371 -5.3807
-1 -27 -16 -21.6306 34.0993
-1 -27 -15 1.1875 16.8392
-1 -27 -14 1.5133 32.0077
-1 -27 -13 16.8873 12.4915
-1 -27 -12 8.6063 -3.5983
-1 -27 -11 -13.4993 7.2765
-1 -27 -10 -9.8737 2.0319
-1 -27 -9 11.8733 -16.4325
-1 -27 -8 -22.2855 -14.6982
-1 -27 -7 -16.6675 -3.3295
-1 -27 -6 -24.7453 8.9830
-1 -27 -5 5.7061 7.8717
-1 -27 -4 -7.7280 5.6519
-1 -27 -3 -16.5821 1.2221
-1 -27 -2 -13.9850 -7.2022
-1 -26 -25 -14.7419 -42.9963
-1 -26 -24 -18.0550 14.0102
-1 -26 -23 12.0115 1.7406
-1 -26 -22 -12.9896 11.9124
-1 -26 -21 14.2487 -14.2197
-1 -26 -20 9.7868 -0.9295
-1 -26 -19 0.9933 2.7547
-1 -26 -18 6.7862 21.4878
-1 -26 -17 1.2446 -17.9581
-1 -26 -16 -39.5626 -29.4522
-1 -26 -15 -18.4462 -32.0624
-1 -26 -14 1.5493 -3.1407
-1 -26 -13 -18.0202 -2.5554
-1 -26 -12 -32.4731 -0.9320
-1 -26 -11 21.0536 -20.6589
-1 -26 -10 -29.6993 -6.5046
-1 -26 -9 4.6501 -5.9139
-1 -26 -8 16.3178 2.6248
-1 -26 -7 11.6694 -8.5469
-1 -26 -6 8.8724 -9.9894
-1 -26 -5 2.2444 -7.1921
-1 -26 -4 15.7899 -14.9953
-1 -26 -3 -4.1748 9.6705
-1 -26 -2 20.7716 -4.4510
-1 -25 -24 17.4004 -10.6322
-1 -25 -23 -6.9993 6.7611
-1 -25 -22 -44.3051 -12.1039
-1 -25 -21 7.1971 4.0157
-1 -25 -20 -3.3613 14.7350
-1 -25 -19 -18.5550 7.0109
-1 -25 -18 -17.9248 20.0037
-1 -25 -17 -18.5704 -18.6334
-1 -25 -16 16.7081 22.6637
-1 -25 -15 -5.5134 -22.2701
-1 -25 -14 3.6419 15.0820
-1 -25 -13 -26.0288 -19.2927
-1 -25 -12 -7.4008 46.1793
-1 -25 -11 -3.9495 -24.8716
-1 -25 -10 -1.0670 -6.5982
-1 -25 -9 -10.9359 -25.2624
-1 -25 -8 -2.7422 5.2249
-1 -25 -7 -16.2010 7.3835
-1 -25 -6 17.7189 -14.5552
-1 -25 -5 19.3943 6.5988
-1 -25 -4 -6.1482 -15.8217
-1 -25 -3 -5.1643 -12.2582
-1 -25 -2 -28.3578 4.1438
-1 -24 -23 -21.0626 -2.2958
-1 -24 -22 22.3222 13.0165
-1 -24 -21 14.2842 -9.2137
-1 -24 -20 11.4602 -14.4945
-1 -24 -19 -10.7103 -3.3562
-1 -24 -18 15.7673 -4.3727
-1 -24 -17 -15.3921 21.8616
-1 -24 -16 -22.5871 41.8076
-1 -24 -15 9.2114 36.7076
-1 -24 -14 -4.6648 -17.7046
-1 -24 -13 2.4224 24.2659
-1 -24 -12 -11.5342 16.8813
-1 -24 -11 27.1311 7.6974
-1 -24 -10 -17.3139 11.8113
-1 -24 -9 15.1922 -20.0057
-1 -24 -8 19.8658 -3.8072
-1 -24 -7 21.8714 31.9608
-1 -24 -6 15.7501 -22.9204
-1 -24 -5 -22.0732 1.9303
-1 -24 -4 25.7190 12.3524
-1 -24 -3 -4.6030 10.1818
-1 -24 -2 10.4587 8.0202
-1 -23 -22 3.2106 -1.0541
-1 -23 -21 17.6336 19.9322
-1 -23 -20 -3.8482 7.3641
-1 -23 -19 26.0151 16.0886
-1 -23 -18 2.5463 22.4726
-1 -23 -17 -17.1189 6.9226
-1 -23 -16 -4.0202 -4.1695
-1 -23 -15 -4.4487 8.5181
-1 -23 -14 7.8982 41.0116
-1 -23 -13 1.5126 2.5979
-1 -23 -12 -11.0835 2.1869
-1 -23 -11 10.6307 4.4705
-1 -23 -10 -14.7271 -0.7328
-1 -23 -9 -38.2932 4.5749
-1 -23 -8 10.5268 1.3707
-1 -23 -7 18.1813 -0.8176
-1 -23 -6 -33.5339 -8.1685
-1 -23 -5 2.4489 -14.4019
-1 -23 -4 15.8920 7.2225
-1 -23 -3 -10.4370 13.3787
-1 -23 -2 25.8757 6.8275
-1 -22 -21 5.8646 7.8958
-1 -22 -20 -21.8554 3.1743
-1 -22 -19 -11.7973 14.6785
-1 -22 -18 11.3470 -7.9659
-1 -22 -17 -30.5805 -18.4451
-1 -22 -16 11.2316 11.5508
-1 -22 -15 -9.7406 -20.0514
-1 -22 -14 -11.0598 6.6029
-1 -22 -13 -1.4734 9.8605
-1 -22 -12 -14.8890 -12.4820
-1 -22 -11 -36.9031 -41.1748
-1 -22 -10 -9.2606 7.4739
-1 -22 -9 -9.3857 -8.4362
-1 -22 -8 4.8902 7.4815
-1 -22 -7 19.6189 -5.4741
-1 -22 -6 2.1553 4.9763
-1 -22 -5 -26.9376 15.6111
-1 -22 -4 33.8660 -0.3805
-1 -22 -3 15.1375 -2.7969
-1 -22 -2 28.9380 -31.9765
-1 -21 -20 -13.3008 22.3851
-1 -21 -19 12.4846 14.1147
-1 -21 -18 -3.1900 15.8203
-1 -21 -17 25.9030 27.7614
-1 -21 -16 25.5543 9.1117
-1 -21 -15 -23.0398 -18.8465
-1 -21 -14 -8.8546 -11.2050
-1 -21 -13 12.3678 -3.9377
-1 -21 -12 27.2849 9.9808
-1 -21 -11 -20.7504 -7.6252
-1 -21 -10 0.1342 -1.3933
-1 -21 -9 0.6695 10.3082
-1 -21 -8 1.9230 -4.0714
-1 -21 -7 -22.6600 1.7847
-1 -21 -6 13.4263 -6.6894
-1 -21 -5 12.9013 -2.9156
-1 -21 -4 14.4945 -25.8461
-1 -21 -3 27.7395 46.3106
-1 -21 -2 -43.3457 3.5054
-1 -20 -19 -16.6178 23.9581
-1 -20 -18 22.6849 -6.0969
-1 -20 -17 -13.8130 -4.3215
-1 -20 -16 7.8903 -39.0963
-1 -20 -15 -8.0918 17.2237
-1 -20 -14 -16.0261 -27.2918
-1 -20 -13 3.6991 -2.9325
-1 -20 -12 4.6430 -8.2930
-1 -20 -11 -16.2736 9.3726
-1 -20 -10 -24.3434 -8.4279
-1 -20 -9 -19.6308 -28.6030
-1 -20 -8 -4.1271 -0.9535
-1 -20 -7 15.8294 -27.3075
-1 -20 -6 -0.8943 -12.8090
-1 -20 -5 -54.8906 18.1641
-1 -20 -4 11.2097 23.9705
-1 -20 -3 -15.0705 3.4974
-1 -20 -2 -6.8763 10.1270
-1 -19 -18 11.9513 8.5439
-1 -19 -17 16.9628 -1.2135
-1 -19 -16 1.4344 -27.0918
-1 -19 -15 6.4414 -4.2912
-1 -19 -14 -4.5079 -10.6495
-1 -19 -13 -19.0581 -14.6130
-1 -19 -12 -23.0134 -12.0583
-1 -19 -11 1.0604 3.0143
-1 -19 -10 -5.6334 -2.9904
-1 -19 -9 -20.0145 -17.6263
-1 -19 -8 1.9469 9.5204
-1 -19 -7 14.1285 -41.2328
-1 -19 -6 -1.2965 -6.6072
-1 -19 -5 -2.4678 6.0246
-1 -19 -4 5.2488 12.4128
-1 -19 -3 4.9886 31.3259
-1 -19 -2 -8.7305 27.4648
-1 -18 -17 -11.1103 -10.3166
-1 -18 -16 -8.9642 -8.9730
-1 -18 -15 11.2546 12.3311
-1 -18 -14 -3.0995 21.8122
-1 -18 -13 -0.5987 -5.2774
-1 -18 -12 -13.6658 -47.8862
-1 -18 -11 -29.5342 6.1081
-1 -18 -10 -19.6414 28.8100
-1 -18 -9 -27.1927 49.9377
-1 -18 -8 -38.5885 -25.0449
-1 -18 -7 -3.4460 17.0973
-1 -18 -6 32.0391 -29.9314
-1 -18 -5 0.9243 -20.2352
-1 -18 -4 -40.0916 -0.8066
-1 -18 -3 -6.7365 -5.1467
-1 -18 -2 -0.5596 -18.7364
-1 -17 -16 -3.1277 -4.4277
-1 -17 -15 18.1765 14.4821
-1 -17 -14 32.4100 -22.8970
-1 -17 -13 9.7638 -2.2454
-1 -17 -12 28.6539 -0.5793
-1 -17 -11 -5.4638 -16.9825
-1 -17 -10 -1.6222 0.3378
-1 -17 -9 3.6791 -28.5032
-1 -17 -8 -9.9920 -27.0353
-1 -17 -7 11.9876 -5.1672
-1 -17 -6 5.6275 8.6910
-1 -17 -5 -17.1684 23.3295
-1 -17 -4 -3.4506 0.1693
-1 -17 -3 4.4552 22.9025
-1 -17 -2 -30.4886 -46.0881
-1 -16 -15 3.8274 -7.5681
-1 -16 -14 16.3024 -15.5270
-1 -16 -13 -8.8086 3.1015
-1 -16 -12 -8.0735 28.9457
-1 -16 -11 2.4884 -14.9388
-1 -16 -10 -18.4372 -22.3573
-1 -16 -9 33.0279 21.4638
-1 -16 -8 -28.3722 -4.6097
-1 -16 -7 -17.8298 -4.8450
-1 -16 -6 -13.6066 14.1101
-1 -16 -5 -30.1792 -12.1349
-1 -16 -4 -21.5807 -26.8731
-1 -16 -3 -19.6306 -32.3924
-1 -16 -2 8.7368 22.4459
-1 -15 -14 21.5205 -42.4538
-1 -15 -13 -10.9156 -1.9124
-1 -15 -12 -39.2075 -3.8876
-1 -15 -11 4.6588 -16.7216
-1 -15 -10 -15.3030 8.6051
-1 -15 -9 6.9210 -32.3731
-1 -15 -8 1.8202 -14.6130
-1 -15 -7 0.4502 -27.6191
-1 -15 -6 -2.0559 1.6559
-1 -15 -5 22.7368 39.4928
-1 -15 -4 9.0997 -55.7652
-1 -15 -3 12.2579 6.9692
-1 -15 -2 -18.0038 2.6289
-1 -14 -13 2.3465 -13.5112
-1 -14 -12 26.6707 -16.9051
-1 -14 -11 25.1386 -6.3230
-1 -14 -10 12.3074 5.1239
-1 -14 -9 -41.1976 -7.0890
-1 -14 -8 -42.9893 -12.1086
-1 -14 -7 -3.1775 -10.4055
-1 -14 -6 29.8643 12.5979
-1 -14 -5 -0.3261 -27.0419
-1 -14 -4 -20.2894 -0.0461
-1 -14 -3 24.6644 57.8868
-1 -14 -2 -34.3815 16.7059
-1 -13 -12 -18.4745 3.9942
-1 -13 -11 13.0983 -18.0891
-1 -13 -10 6.3233 17.3049
-1 -13 -9 -57.6409 -53.5629
-1 -13 -8 20.5397 -16.4710
-1 -13 -7 37.5853 0.3783
-1 -13 -6 20.4496 -7.4534
-1 -13 -5 -36.0771 -8.1291
-1 -13 -4 -17.5854 13.1226
-1 -13 -3 18.5938 6.0392
-1 -13 -2 -15.2667 4.2721
-1 -12 -11 1.8975 3.8097
-1 -12 -10 7.7304 0.2628
-1 -12 -9 -16.1738 24.8635
-1 -12 -8 0.2997 -44.9853
-1 -12 -7 7.6897 -37.6733
-1 -12 -6 -0.3697 13.5006
-1 -12 -5 43.8426 28.9061
-1 -12 -4 -20.3699 -1.9331
-1 -12 -3 27.8297 -73.2351
-1 -12 -2 14.8977 9.3046
-1 -11 -10 4.8021 -41.6095
-1 -11 -9 -6.6397 -22.5612
-1 -11 -8 9.8555 -11.3471
-1 -11 -7 -40.0786 -1.1323
-1 -11 -6 30.7914 -7.5839
-1 -11 -5 0.1498 49.0804
-1 -11 -4 -15.3548 -5.9046
-1 -11 -3 -15.4112 61.5382
-1 -11 -2 42.6478 6.5046
-1 -10 -9 -26.5791 -16.0448
-1 -10 -8 6.5103 14.9045
-1 -10 -7 49.3624 27.5395
-1 -10 -6 -34.6009 17.5127
-1 -10 -5 3.0148 -19.1036
-1 -10 -4 -7.0988 21.1118
-1 -10 -3 38.3657 -17.3779
-1 -10 -2 -30.5449 -2.0102
-1 -9 -8 -11.7872 28.9979
-1 -9 -7 26.3368 -8.4536
-1 -9 -6 -20.1762 -3.6729
-1 -9 -5 47.9443 3.1959
-1 -9 -4 32.4799 -28.6348
-1 -9 -3 16.5160 59.9543
-1 -9 -2 8.8618 5.3673
-1 -8 -7 -15.1559 4.2477
-1 -8 -6 12.1869 25.0954
-1 -8 -5 42.2550 -31.1132
-1 -8 -4 -5.5904 36.1204
-1 -8 -3 93.2086 -53.3773
-1 -8 -2 -7.0653 -73.0962
-1 -7 -6 17.9968 51.3343
-1 -7 -5 -49.6111 58.4250
-1 -7 -4 79.0726 18.4034
-1 -7 -3 -95.6542 130.0328
-1 -7 -2 -23.1176 27.6431
-1 -6 -5 -4.5960 -17.5617
-1 -6 -4 -5.7561 -72.9210
-1 -6 -3 -64.1950 -88.7180
-1 -6 -2 92.5700 -44.2539
-1 -5 -4 -31.3633 -8.1569
-1 -5 -3 152.1569 9.3728
-1 -5 -2 151.1863 17.3555
-1 -4 -3 67.7595 -12.3875
-1 -4 -2 8.7035 60.3852
-1 -3 -2 -35.9642 239.8020
0 2 2 112.8264 -8.8883
0 3 1 -3.3741 -15.7218
0 3 2 2.8946 171.4541
0 3 3 -0.3852 296.5058
0 4 0 -101.6228 6.6086
0 4 1 -31.9208 -4.5726
0 4 2 428.6310 7.8965
0 4 3 -6.9912 1.8090
0 4 4 5.3061 -14.9156
0 5 1 2.2864 -111.1168
0 5 2 0.4757 335.4587
0 5 3 0.2265 51.7877
0 5 4 -1.5059 50.9833
0 5 5 1.3163 222.2217
0 6 1 -16.7405 2.2594
0 6 2 37.5927 -3.6872
0 6 3 57.2819 3.3064
0 6 4 -6.6287 -0.2420
0 6 5 3.8883 1.7505
0 6 6 46.2190 9.7958
0 7 1 -3.0555 30.5760
0 7 2 7.7072 -58.9799
0 7 3 -0.7814 -80.2708
0 7 4 -8.6177 -81.4286
0 7 5 -5.0944 -13.9314
0 7 6 8.8827 -87.1541
0 7 7 0.2964 -44.7690
0 8 0 110.5236 5.9276
0 8 1 38.1412 1.8723
0 8 2 -1.8777 2.0973
0 8 3 3.4163 0.2413
0 8 4 5.9654 5.3868
0 8 5 10.5599 0.9785
0 8 6 -68.9217 -4.9671
0 8 7 -11.3694 -3.5728
0 8 8 48.7738 10.5135
0 9 1 0.0234 -23.4565
0 9 2 -9.0628 -79.3821
0 9 3 -11.0178 38.2097
0 9 4 10.4044 60.3858
0 9 5 2.6638 -11.6204
0 9 6 -21.1218 -64.1087
0 9 7 -5.0053 -24.8993
0 9 8 14.0859 13.2703
0 9 9 6.1462 4.9314
0 10 1 50.4227 -2.9759
0 10 2 -5.5239 2.4430
0 10 3 59.9471 9.1846
0 10 4 -38.8633 -4.0510
0 10 5 39.8022 0.1553
0 10 6 -18.9616 12.9145
0 10 7 -46.8258 -6.6449
0 10 8 24.7719 -7.3171
0 10 9 -27.8700 1.4501
0 10 10 -41.7222 0.3186
0 11 1 -6.1015 14.7122
0 11 2 12.0615 34.0644
0 11 3 4.2688 -7.4773
0 11 4 -16.0957 -40.8921
0 11 5 -10.7220 -15.0222
0 11 6 16.0694 0.1490
0 11 7 9.0412 7.9799
0 11 8 -7.5157 12.9497
0 11 9 -1.7153 -20.8950
0 11 10 9.3396 -5.4914
0 11 11 4.9278 -17.0336
0 12 0 -56.2315 1.6579
0 12 1 43.9977 3.2353
0 12 2 9.3657 -3.1347
0 12 3 -50.7776 -6.4495
0 12 4 -15.6346 5.7881
0 12 5 -33.2464 -1.6119
0 12 6 -15.7727 -12.9142
0 12 7 -10.3217 1.7719
0 12 8 -0.8855 -0.3971
0 12 9 9.7203 -2.0599
0 12 10 23.9489 -5.9320
0 12 11 -22.0705 0.2212
0 12 12 57.1417 -0.2040
0 13 1 0.7707 -8.4237
0 13 2 -8.5681 12.4074
0 13 3 -11.2494 -28.5339
0 13 4 12.6828 -11.2436
0 13 5 12.7465 1.9592
0 13 6 -13.0604 5.7315
0 13 7 -0.3194 -14.1738
0 13 8 12.5995 33.9160
0 13 9 8.3985 -6.0200
0 13 10 1.8837 -41.0162
0 13 11 3.9061 -8.8384
0 13 12 -0.0848 -36.3172
0 14 1 -0.4742 -4.0043
0 14 2 -15.8298 2.2388
0 14 3 41.8337 -0.4599
0 14 4 4.1455 -6.7039
0 14 5 -11.8239 -5.6560
0 14 6 -21.2132 0.4760
0 14 7 39.3820 -1.7701
0 14 8 11.1128 -10.8888
0 14 9 4.1110 0.2144
0 14 10 21.7148 -1.5694
0 14 11 4.4794 5.0489
0 14 12 -0.4260 -3.4923
0 14 13 24.4833 -3.3921
0 14 14 9.0306 0.8374
0 15 1 -4.4527 -31.4582
0 15 2 5.1218 10.1672
0 15 3 6.6371 36.3766
0 15 4 -1.9422 11.3651
0 15 5 2.6722 20.1121
0 15 6 9.4043 13.9385
0 15 7 13.2553 -5.2076
0 15 8 5.6856 -0.7396
0 15 9 8.5795 -6.2123
0 15 10 0.9694 9.8363
0 15 11 0.7025 -4.2392
0 15 12 4.3452 0.9264
0 15 13 5.2566 -22.3428
0 15 14 -3.3774 -20.5366
0 15 15 -9.8551 7.8018
0 16 0 1.9224 -4.2518
0 16 1 33.8711 0.5453
0 16 2 2.3611 -3.3311
0 16 3 -24.3536 -9.1759
0 16 4 -0.1024 2.1391
0 16 5 -0.6019 -5.9004
0 16 6 -3.4026 -3.1670
0 16 7 12.4654 -3.0768
0 16 8 25.8410 -4.4467
0 16 9 8.0308 3.2858
0 16 10 14.2998 -3.6654
0 16 11 13.3216 -4.0937
0 16 12 -23.9967 -1.4941
0 16 13 -29.8007 8.8376
0 16 14 2.0240 0.6815
0 16 15 -8.5922 -7.7855
0 16 16 11.0223 3.4081
0 17 1 -2.9614 -17.0211
0 17 2 0.1903 55.2877
0 17 3 -2.1559 8.6041
0 17 4 9.8648 -16.5894
0 17 5 4.4028 -36.1949
0 17 6 13.5229 13.7023
0 17 7 14.1769 38.1027
0 17 8 2.1968 1.0142
0 17 9 3.8203 -21.2146
0 17 10 13.7810 -37.6381
0 17 11 15.3008 7.0579
0 17 12 -1.4186 33.4284
0 17 13 -7.1620 -9.4605
0 17 14 0.2201 8.7120
0 17 15 4.0936 6.0484
0 17 16 2.2639 -12.0559
0 17 17 -4.4834 -18.2833
0 18 1 21.7154 -4.3878
0 18 2 0.2938 3.7266
0 18 3 1.0864 -4.4447
0 18 4 -26.0061 0.7048
0 18 5 -16.0032 -9.8604
0 18 6 42.6216 -0.5410
0 18 7 -14.5006 -5.2421
0 18 8 22.3119 3.9134
0 18 9 6.2424 -5.0585
0 18 10 -0.3327 -8.9152
0 18 11 -1.4564 7.5798
0 18 12 -23.4241 2.8537
0 18 13 -0.3351 -8.0378
0 18 14 -38.1962 -1.9074
0 18 15 -24.5390 5.1263
0 18 16 16.7132 -0.0664
0 18 17 16.4287 -4.3843
0 18 18 -15.9886 4.7574
0 19 1 -2.3674 23.7225
0 19 2 -0.1531 3.4349
0 19 3 -6.6341 2.3584
0 19 4 12.3377 2.2970
0 19 5 10.3286 -8.5801
0 19 6 5.4877 1.3345
0 19 7 -0.7150 -18.1988
0 19 8 19.6702 19.6907
0 19 9 18.9025 37.0551
0 19 10 -3.1868 -55.4880
0 19 11 -2.1996 1.9780
0 19 12 9.2278 -4.8372
0 19 13 10.7066 -14.5335
0 19 14 2.1817 -6.0861
0 19 15 -3.7873 -21.5129
0 19 16 0.6180 26.0034
0 19 17 3.0451 6.5276
0 19 18 5.8262 21.2696
0 19 19 2.8728 -54.6676
0 20 0 25.3277 -1.5678
0 20 1 5.8853 0.8954
0 20 2 -1.9254 0.5769
0 20 3 -0.2190 -13.3339
0 20 4 9.7775 4.7499
0 20 5 0.8980 -5.6907
0 20 6 -0.0676 11.7537
0 20 7 40.6415 -1.8793
0 20 8 1.8443 -6.8255
0 20 9 2.2933 -1.6164
0 20 10 -3.2224 8.3989
0 20 11 -7.4958 0.4664
0 20 12 -9.2545 -9.5720
0 20 13 -6.7066 8.3933
0 20 14 -11.8986 1.2263
0 20 15 -10.8457 -3.3203
0 20 16 14.6065 -0.7180
0 20 17 26.5201 1.9575
0 20 18 -29.1646 1.1746
0 20 19 -30.6586 2.8591
0 20 20 -1.4006 5.8348
0 21 1 -6.9002 10.9695
0 21 2 1.5810 -8.4798
0 21 3 -4.0251 -0.5574
0 21 4 7.3839 10.4221
0 21 5 -13.8241 4.6247
0 21 6 15.8177 18.1266
0 21 7 11.0879 -19.3542
0 21 8 -3.2544 10.5615
0 21 9 -6.3323 -19.4209
0 21 10 10.5407 0.3989
0 21 11 13.1907 3.0131
0 21 12 -3.3923 -26.2056
0 21 13 -1.3827 -10.0489
0 21 14 5.3273 8.2025
0 21 15 9.3938 -8.4583
0 21 16 6.7617 7.7923
0 21 17 3.5382 43.6156
0 21 18 5.7088 14.6448
0 21 19 3.6805 17.4439
0 21 20 4.7127 20.6860
0 21 21 5.6892 -22.4475
0 22 1 -0.0793 -5.7527
0 22 2 -5.3009 5.0819
0 22 3 23.5336 1.0322
0 22 4 2.2488 7.3854
0 22 5 13.1056 -5.5564
0 22 6 8.9687 2.1556
0 22 7 -2.3968 -8.9351
0 22 8 -31.6009 10.8734
0 22 9 -8.5538 3.5314
0 22 10 23.2206 -9.0830
0 22 11 13.8100 1.8399
0 22 12 18.9431 2.0929
0 22 13 -29.0768 3.8421
0 22 14 -14.6233 -8.3662
0 22 15 0.3359 8.9470
0 22 16 5.9666 0.1638
0 22 17 -6.8645 4.0074
0 22 18 -18.1642 1.7274
0 22 19 -18.4579 3.7303
0 22 20 39.9840 2.2802
0 22 21 4.6869 4.1370
0 22 22 -14.2899 4.8428
0 23 1 -4.2410 -8.1674
0 23 2 0.0788 8.8530
0 23 3 -16.5222 -24.4848
0 23 4 7.4375 4.5816
0 23 5 -1.1379 3.0005
0 23 6 3.8351 11.4689
0 23 7 -10.1252 -20.1884
0 23 8 5.7281 0.0888
0 23 9 5.3076 10.2675
0 23 10 -6.9852 -15.9714
0 23 11 -0.0690 11.4821
0 23 12 2.9036 -15.1894
0 23 13 9.0336 9.6607
0 23 14 0.5246 0.8612
0 23 15 3.1023 18.8902
0 23 16 5.8119 12.2522
0 23 17 10.3655 15.5526
0 23 18 7.7651 -18.3058
0 23 19 4.0022 7.1632
0 23 20 6.1963 10.6085
0 23 21 3.8775 -16.2779
0 23 22 1.4468 1.9349
0 23 23 1.9032 -3.1661
0 24 0 22.3893 -3.2792
0 24 1 -28.6448 0.9397
0 24 2 11.4655 0.7656
0 24 3 10.4508 -7.2511
0 24 4 -15.1808 0.8906
0 24 5 -8.1006 -3.5881
0 24 6 -7.8933 8.3232
0 24 7 1.0086 5.5666
0 24 8 -20.3874 -4.0856
0 24 9 -0.1084 -6.9673
0 24 10 6.4523 2.5049
0 24 11 3.5527 10.1601
0 24 12 23.2941 -8.5287
0 24 13 10.3515 6.4465
0 24 14 32.4131 -3.3549
0 24 15 -8.7947 7.6375
0 24 16 -6.6543 -4.7465
0 24 17 16.2098 11.8195
0 24 18 28.5930 4.1687
0 24 19 -4.8252 3.2583
0 24 20 17.9010 1.1873
0 24 21 26.0687 3.9325
0 24 22 -8.4891 5.2941
0 24 23 3.3737 -1.0519
0 24 24 -41.2410 1.9086
0 25 1 -3.3595 -10.4257
0 25 2 -1.9239 -3.5812
0 25 3 -5.7139 17.4778
0 25 4 -0.5234 0.0544
0 25 5 -13.0524 6.5639
0 25 6 -2.0004 -12.2717
0 25 7 -5.5670 -17.2855
0 25 8 -8.2095 12.2170
0 25 9 -3.7538 11.9676
0 25 10 -4.4679 8.3746
0 25 11 0.9790 -2.9946
0 25 12 -7.6602 -10.5721
0 25 13 4.0193 -19.8875
0 25 14 -1.9058 -13.4122
0 25 15 11.4431 -17.7778
0 25 16 3.8026 -28.0777
0 25 17 1.6572 -5.4534
0 25 18 2.4201 3.1872
0 25 19 8.7371 8.9411
0 25 20 4.7814 14.6371
0 25 21 0.2265 7.8784
0 25 22 0.4621 2.8887
0 25 23 1.5574 -1.3057
0 25 24 0.5101 2.9651
0 25 25 0.1801 -13.2187
0 26 1 -4.7958 1.2867
0 26 2 0.3528 0.7077
0 26 3 -5.6258 -1.8016
0 26 4 -13.6853 3.2032
0 26 5 13.7072 4.7906
0 26 6 2.6316 -0.9192
0 26 7 12.5231 -9.7471
0 26 8 2.5944 -0.7751
0 26 9 14.2448 5.9717
0 26 10 -2.8322 -4.6020
0 26 11 10.6217 -0.4658
0 26 12 2.5941 -8.1649
0 26 13 -7.2546 6.2441
0 26 14 0.2082 -5.4312
0 26 15 18.5493 11.7289
0 26 16 -19.4851 -1.6595
0 26 17 -27.1981 4.6739
0 26 18 -10.7616 -3.1717
0 26 19 17.5106 8.7607
0 26 20 7.4922 9.2970
0 26 21 4.4702 -1.8523
0 26 22 4.9582 -0.3582
0 26 23 3.0776 -0.2392
0 26 24 3.2285 5.5877
0 26 25 37.2899 -5.1910
0 26 26 2.1947 3.0861
0 27 1 -0.9752 3.8937
0 27 2 -2.2269 -0.0674
0 27 3 -6.1106 8.7089
0 27 4 -2.4918 1.7062
0 27 5 -6.9183 25.8252
0 27 6 -6.5356 -1.3165
0 27 7 -2.1885 -5.4006
0 27 8 -7.0942 14.4902
0 27 9 -8.3733 -10.3116
0 27 10 -9.3960 9.7412
0 27 11 5.9235 -18.0627
0 27 12 -7.0538 -10.4717
0 27 13 4.3772 6.5680
0 27 14 0.4366 -6.8762
0 27 15 3.8325 -13.0865
0 27 16 -4.0934 -16.6525
0 27 17 10.3699 18.3430
0 27 18 6.5382 -12.4529
0 27 19 -2.9324 -6.3990
0 27 20 -0.4709 -7.7179
0 27 21 4.4289 -4.2859
0 27 22 3.2382 17.0044
0 27 23 -2.2945 13.1056
0 27 24 -1.9845 -23.4952
0 27 25 -0.8020 13.3989
0 27 26 1.2678 -19.4058
0 27 27 0.2793 -322.1847
0 28 0 24.0083 -2.1019
0 28 1 6.5705 -2.2034
0 28 2 -7.2429 -1.5400
0 28 3 -6.7718 5.6949
0 28 4 -1.9492 -1.8745
0 28 5 10.6904 -5.1507
0 28 6 25.8267 -2.9333
0 28 7 -5.6410 7.1490
0 28 8 6.4884 -3.5102
0 28 9 26.9224 -5.7676
0 28 10 24.3861 -7.8259
0 28 11 6.5467 4.2590
0 28 12 1.6555 -1.2581
0 28 13 -15.4220 6.5634
0 28 14 15.2258 -7.3107
0 28 15 -17.2181 1.9209
0 28 16 -30.6958 -1.9589
0 28 17 -8.8031 10.8556
0 28 18 1.2622 5.3135
0 28 19 8.1734 -2.5789
0 28 20 -5.2576 -3.2779
0 28 21 -19.1869 1.0507
0 28 22 -4.7804 10.6074
0 28 23 22.0076 -7.6733
0 28 24 -1.8937 1.1359
0 28 25 -3.1411 -4.5925
0 28 26 -326.8928 3.5715
0 29 1 1.3597 17.1911
0 29 2 0.1291 48.6562
0 29 3 3.7505 -27.2114
0 29 4 -7.4346 4.2151
0 29 5 -1.5310 41.4223
0 29 6 -7.2928 -17.0853
0 29 7 -8.0961 -8.6156
0 29 8 -10.9663 -6.1317
0 29 9 3.1808 14.0806
0 29 10 -8.4135 -31.0755
0 29 11 -5.6549 -4.4256
0 29 12 -3.1833 -15.8819
0 29 13 7.5764 16.9321
0 29 14 -7.9546 -17.9674
0 29 15 5.0681 0.3291
0 29 16 5.0119 16.5307
0 29 17 -0.4473 -27.1348
0 29 18 -4.7963 -15.1314
0 29 19 4.3731 1.0037
0 29 20 5.8369 -6.0320
0 29 21 -4.2867 1.0181
0 29 22 -2.3196 10.0847
0 29 23 -1.7259 17.4682
0 29 24 2.0653 2.9093
0 29 25 -0.9742 -0.2073
0 30 1 -7.1745 6.0151
0 30 2 13.7690 -1.4131
0 30 3 -3.1987 -8.1786
0 30 4 -4.3933 -0.2397
0 30 5 -7.4194 7.9125
0 30 6 2.0766 -3.8404
0 30 7 -1.4176 -6.3565
0 30 8 13.7448 -5.7299
0 30 9 34.7233 -1.0010
0 30 10 7.1661 0.1298
0 30 11 -50.7617 1.6955
0 30 12 0.3952 -7.9706
0 30 13 -9.7427 -3.8103
0 30 14 -14.1480 3.2920
0 30 15 -2.8644 8.2198
0 30 16 -0.9775 -0.6834
0 30 17 -4.5146 -2.4391
0 30 18 -3.3436 -1.7280
0 30 19 6.3984 2.6239
0 30 20 8.3286 7.3953
0 30 21 -2.3174 -6.5820
0 30 22 4.2165 -1.3828
0 30 23 -2.2445 -6.4382
0 30 24 25.3924 6.5988
0 31 1 4.1669 -7.0415
0 31 2 -4.3181 -13.9293
0 31 3 2.3383 42.4862
0 31 4 -6.2066 -1.7806
0 31 5 1.8730 12.1113
0 31 6 -12.0784 -13.7933
0 31 7 1.3024 15.3531
0 31 8 -3.8006 10.2811
0 31 9 -7.8344 13.9335
0 31 10 -2.6039 -24.7593
0 31 11 8.0715 3.5946
0 31 12 -3.2945 -9.1387
0 31 13 -3.6027 4.3229
0 31 14 4.7721 1.2760
0 31 15 5.0832 -19.2283
0 31 16 -5.4942 -11.1120
0 31 17 1.2394 1.4210
0 31 18 6.6213 9.0346
0 31 19 -3.1551 0.0562
0 31 20 -3.9260 6.8667
0 31 21 -2.0385 -1.4674
0 31 22 5.1779 6.4398
0 31 23 -3.2470 10.0071
0 32 0 -40.0643 7.0417
0 32 1 -13.5239 -3.4563
0 32 2 -13.6499 -0.9462
0 32 3 -29.3975 7.7175
0 32 4 -2.2534 0.1405
0 32 5 0.1744 -4.5348
0 32 6 12.4275 -2.8180
0 32 7 3.6257 1.6845
0 32 8 6.1839 -2.4970
0 32 9 -4.1621 -0.6284
0 32 10 29.5523 -3.6422
0 32 11 -0.6454 -3.3577
0 32 12 -5.2258 5.4304
0 32 13 -26.9754 4.7108
0 32 14 89.5352 -2.5836
0 32 15 14.4167 -3.6289
0 32 16 -3.4202 3.5702
0 32 17 -1.7449 3.9592
0 32 18 -0.4262 1.9441
0 32 19 2.5548 -5.2106
0 32 20 -7.6939 -1.3938
0 32 21 -16.4730 -3.4373
0 32 22 33.4532 3.8779
0 33 1 0.8453 21.2976
0 33 2 -0.8129 3.1413
0 33 3 10.2241 6.6395
0 33 4 -8.3768 8.6004
0 33 5 -1.5942 35.4189
0 33 6 -5.9127 5.3518
0 33 7 0.6065 7.5547
0 33 8 -4.2740 -1.7375
0 33 9 2.3750 -2.6113
0 33 10 1.0273 -4.2296
0 33 11 -7.4484 -21.2381
0 33 12 3.5645 27.1109
0 33 13 6.4219 -12.9650
0 33 14 1.0741 -0.3576
0 33 15 -4.2684 -13.4188
0 33 16 5.1690 -2.9371
0 33 17 1.6063 -14.3070
0 33 18 -1.8492 -2.6519
0 33 19 -2.9380 -2.7171
0 33 20 3.7109 9.6306
0 34 1 -12.2567 2.9968
0 34 2 -5.0831 -0.6433
0 34 3 26.3057 -4.4367
0 34 4 -8.8720 0.2395
0 34 5 -0.2431 0.6091
0 34 6 -1.5709 -4.5166
0 34 7 -0.7825 -0.2883
0 34 8 22.7444 -1.6112
0 34 9 19.6743 -2.4361
0 34 10 -20.0726 1.8250
0 34 11 13.5924 2.8683
0 34 12 -21.7894 -0.7030
0 34 13 -13.6860 -2.8441
0 34 14 1.3456 7.7909
0 34 15 9.9100 1.5233
0 34 16 -17.3867 -0.1562
0 34 17 10.1784 -1.5373
0 34 18 -4.8448 2.4468
0 34 19 3.3315 -0.7129
0 35 1 5.1763 0.8717
0 35 2 -0.7510 3.1480
0 35 3 -1.9483 34.3317
0 35 4 -6.1431 11.4469
0 35 5 4.9281 21.1853
0 35 6 -4.7607 18.9275
0 35 7 -1.7290 -5.9276
0 35 8 -0.2140 -22.3932
0 35 9 -3.8778 -8.0279
0 35 10 3.1378 46.9720
0 35 11 3.3872 -13.0916
0 35 12 6.4943 -19.2074
0 35 13 -7.3976 12.7001
0 35 14 2.8866 -4.9983
0 35 15 2.9894 6.9336
0 35 16 4.7530 7.7548
0 35 17 -3.7137 -3.1820
0 36 0 28.1860 7.6395
0 36 1 -3.1472 -0.9290
0 36 2 14.6853 -0.0663
0 36 3 -17.7988 -1.4646
0 36 4 -11.6626 0.1369
0 36 5 -20.9636 0.6828
0 36 6 2.4063 1.1522
0 36 7 6.2618 -3.0239
0 36 8 12.4764 -2.2322
0 36 9 -0.5402 2.3276
0 36 10 -7.1976 0.2310
0 36 11 -36.8103 -0.3658
0 36 12 25.7948 6.7201
0 36 13 -0.4453 0.4281
0 36 14 -11.1933 -0.7236
0 36 15 17.6734 1.6010
0 37 1 -1.6275 -2.9682
0 37 2 -2.8902 -2.3670
0 37 3 3.9547 -17.6311
0 37 4 -3.7382 -10.2376
0 37 5 -2.7294 -19.2062
0 37 6 -5.3407 -2.1931
0 37 7 0.6537 14.5243
0 37 8 0.4158 5.8292
0 37 9 1.7632 -2.4718
0 37 10 3.7885 0.3754
0 37 11 -6.0426 14.8083
0 37 12 1.2694 12.3530
0 38 1 -7.7533 -3.4408
0 38 2 0.3263 -2.4152
0 38 3 0.9669 1.1855
0 38 4 2.7255 0.7651
0 38 5 -19.8449 -7.1155
0 38 6 -6.6926 -4.3910
0 38 7 1.9584 3.4196
0 38 8 2.6478 0.1619
0 38 9 2.9561 -0.4756
1 2 1 -347.5026 -0.3262
1 2 2 30.6065 27.5198
1 3 1 -363.1339 -344.9364
1 3 2 -35.9642 -239.8020
1 3 3 -99.4197 93.8172
1 4 1 -1.4175 108.6108
1 4 2 8.7035 -60.3852
1 4 3 67.7595 12.3875
1 4 4 55.3693 53.5862
1 5 1 -2.9636 13.4036
1 5 2 151.1863 -17.3555
1 5 3 152.1569 -9.3728
1 5 4 -31.3633 8.1569
1 5 5 -38.8283 42.6268
1 6 1 -78.1582 -1.9024
1 6 2 92.5700 44.2539
1 6 3 -64.1950 88.7180
1 6 4 -5.7561 72.9210
1 6 5 -4.5960 17.5617
1 6 6 10.1412 14.5880
1 7 1 -63.3985 -58.6369
1 7 2 -23.1176 -27.6431
1 7 3 -95.6542 -130.0328
1 7 4 79.0726 -18.4034
1 7 5 -49.6111 -58.4250
1 7 6 17.9968 -51.3343
1 7 7 -21.7767 23.4482
1 8 1 -1.2036 1.0952
1 8 2 -7.0653 73.0962
1 8 3 93.2086 53.3773
1 8 4 -5.5904 -36.1204
1 8 5 42.2550 31.1132
1 8 6 12.1869 -25.0954
1 8 7 -15.1559 -4.2477
1 8 8 -33.5465 -33.0994
1 9 1 51.9501 -57.8325
1 9 2 8.8618 -5.3673
1 9 3 16.5160 -59.9543
1 9 4 32.4799 28.6348
1 9 5 47.9443 -3.1959
1 9 6 -20.1762 3.6729
1 9 7 26.3368 8.4536
1 9 8 -11.7872 -28.9979
1 9 9 -15.3218 13.9042
1 10 1 -33.0545 -5.6998
1 10 2 -30.5449 2.0102
1 10 3 38.3657 17.3779
1 10 4 -7.0988 -21.1118
1 10 5 3.0148 19.1036
1 10 6 -34.6009 -17.5127
1 10 7 49.3624 -27.5395
1 10 8 6.5103 -14.9045
1 10 9 -26.5791 16.0448
1 10 10 -4.7149 -2.2543
1 11 1 2.9289 9.8879
1 11 2 42.6478 -6.5046
1 11 3 -15.4112 -61.5382
1 11 4 -15.3548 5.9046
1 11 5 0.1498 -49.0804
1 11 6 30.7914 7.5839
1 11 7 -40.0786 1.1323
1 11 8 9.8555 11.3471
1 11 9 -6.6397 22.5612
1 11 10 4.8021 41.6095
1 11 11 -10.4701 9.2427
1 12 1 1.6584 -8.5177
1 12 2 14.8977 -9.3046
1 12 3 27.8297 73.2351
1 12 4 -20.3699 1.9331
1 12 5 43.8426 -28.9061
1 12 6 -0.3697 -13.5006
1 12 7 7.6897 37.6733
1 12 8 0.2997 44.9853
1 12 9 -16.1738 -24.8635
1 12 10 7.7304 -0.2628
1 12 11 1.8975 -3.8097
1 12 12 -0.2294 -1.5808
1 13 1 17.7372 -24.8440
1 13 2 -15.2667 -4.2721
1 13 3 18.5938 -6.0392
1 13 4 -17.5854 -13.1226
1 13 5 -36.0771 8.1291
1 13 6 20.4496 7.4534
1 13 7 37.5853 -0.3783
1 13 8 20.5397 16.4710
1 13 9 -57.6409 53.5629
1 13 10 6.3233 -17.3049
1 13 11 13.0983 18.0891
1 13 12 -18.4745 -3.9942
1 13 13 13.7924 -12.3469
1 14 1 -34.9463 -4.2936
1 14 2 -34.3815 -16.7059
1 14 3 24.6644 -57.8868
1 14 4 -20.2894 0.0461
1 14 5 -0.3261 27.0419
1 14 6 29.8643 -12.5979
1 14 7 -3.1775 10.4055
1 14 8 -42.9893 12.1086
1 14 9 -41.1976 7.0890
1 14 10 12.3074 -5.1239
1 14 11 25.1386 6.3230
1 14 12 26.6707 16.9051
1 14 13 2.3465 13.5112
1 14 14 7.9965 8.8130
1 15 1 -12.3933 -10.4312
1 15 2 -18.0038 -2.6289
1 15 3 12.2579 -6.9692
1 15 4 9.0997 55.7652
1 15 5 22.7368 -39.4928
1 15 6 -2.0559 -1.6559
1 15 7 0.4502 27.6191
1 15 8 1.8202 14.6130
1 15 9 6.9210 32.3731
1 15 10 -15.3030 -8.6051
1 15 11 4.6588 16.7216
1 15 12 -39.2075 3.8876
1 15 13 -10.9156 1.9124
1 15 14 21.5205 42.4538
1 15 15 20.7884 -18.0776
1 16 1 0.2644 4.9945
1 16 2 8.7368 -22.4459
1 16 3 -19.6306 32.3924
1 16 4 -21.5807 26.8731
1 16 5 -30.1792 12.1349
1 16 6 -13.6066 -14.1101
1 16 7 -17.8298 4.8450
1 16 8 -28.3722 4.6097
1 16 9 33.0279 -21.4638
1 16 10 -18.4372 22.3573
1 16 11 2.4884 14.9388
1 16 12 -8.0735 -28.9457
1 16 13 -8.8086 -3.1015
1 16 14 16.3024 15.5270
1 16 15 3.8274 7.5681
1 16 16 19.2124 19.3354
1 17 1 -0.6957 0.5840
1 17 2 -30.4886 46.0881
1 17 3 4.4552 -22.9025
1 17 4 -3.4506 -0.1693
1 17 5 -17.1684 -23.3295
1 17 6 5.6275 -8.6910
1 17 7 11.9876 5.1672
1 17 8 -9.9920 27.0353
1 17 9 3.6791 28.5032
1 17 10 -1.6222 -0.3378
1 17 11 -5.4638 16.9825
1 17 12 28.6539 0.5793
1 17 13 9.7638 2.2454
1 17 14 32.4100 22.8970
1 17 15 18.1765 -14.4821
1 17 16 -3.1277 4.4277
1 17 17 -5.0546 8.4441
1 18 1 30.0390 0.3649
1 18 2 -0.5596 18.7364
1 18 3 -6.7365 5.1467
1 18 4 -40.0916 0.8066
1 18 5 0.9243 20.2352
1 18 6 32.0391 29.9314
1 18 7 -3.4460 -17.0973
1 18 8 -38.5885 25.0449
1 18 9 -27.1927 -49.9377
1 18 10 -19.6414 -28.8100
1 18 11 -29.5342 -6.1081
1 18 12 -13.6658 47.8862
1 18 13 -0.5987 5.2774
1 18 14 -3.0995 -21.8122
1 18 15 11.2546 -12.3311
1 18 16 -8.9642 8.9730
1 18 17 -11.1103 10.3166
1 18 18 14.5391 16.8281
1 19 1 -7.7978 -13.1546
1 19 2 -8.7305 -27.4648
1 19 3 4.9886 -31.3259
1 19 4 5.2488 -12.4128
1 19 5 -2.4678 -6.0246
1 19 6 -1.2965 6.6072
1 19 7 14.1285 41.2328
1 19 8 1.9469 -9.5204
1 19 9 -20.0145 17.6263
1 19 10 -5.6334 2.9904
1 19 11 1.0604 -3.0143
1 19 12 -23.0134 12.0583
1 19 13 -19.0581 14.6130
1 19 14 -4.5079 10.6495
1 19 15 6.4414 4.2912
1 19 16 1.4344 27.0918
1 19 17 16.9628 1.2135
1 19 18 11.9513 -8.5439
1 19 19 -7.5101 11.7914
1 20 1 0.0057 -3.4544
1 20 2 -6.8763 -10.1270
1 20 3 -15.0705 -3.4974
1 20 4 11.2097 -23.9705
1 20 5 -54.8906 -18.1641
1 20 6 -0.8943 12.8090
1 20 7 15.8294 27.3075
1 20 8 -4.1271 0.9535
1 20 9 -19.6308 28.6030
1 20 10 -24.3434 8.4279
1 20 11 -16.2736 -9.3726
1 20 12 4.6430 8.2930
1 20 13 3.6991 2.9325
1 20 14 -16.0261 27.2918
1 20 15 -8.0918 -17.2237
1 20 16 7.8903 39.0963
1 20 17 -13.8130 4.3215
1 20 18 22.6849 6.0969
1 20 19 -16.6178 -23.9581
1 20 20 10.1154 10.9667
1 21 1 -3.7206 6.8761
1 21 2 -43.3457 -3.5054
1 21 3 27.7395 -46.3106
1 21 4 14.4945 25.8461
1 21 5 12.9013 2.9156
1 21 6 13.4263 6.6894
1 21 7 -22.6600 -1.7847
1 21 8 1.9230 4.0714
1 21 9 0.6695 -10.3082
1 21 10 0.1342 1.3933
1 21 11 -20.7504 7.6252
1 21 12 27.2849 -9.9808
1 21 13 12.3678 3.9377
1 21 14 -8.8546 11.2050
1 21 15 -23.0398 18.8465
1 21 16 25.5543 -9.1117
1 21 17 25.9030 -27.7614
1 21 18 -3.1900 -15.8203
1 21 19 12.4846 -14.1147
1 21 20 -13.3008 -22.3851
1 21 21 -12.7873 17.1244
1 22 1 14.4072 2.3784
1 22 2 28.9380 31.9765
1 22 3 15.1375 2.7969
1 22 4 33.8660 0.3805
1 22 5 -26.9376 -15.6111
1 22 6 2.1553 -4.9763
1 22 7 19.6189 5.4741
1 22 8 4.8902 -7.4815
1 22 9 -9.3857 8.4362
1 22 10 -9.2606 -7.4739
1 22 11 -36.9031 41.1748
1 22 12 -14.8890 12.4820
1 22 13 -1.4734 -9.8605
1 22 14 -11.0598 -6.6029
1 22 15 -9.7406 20.0514
1 22 16 11.2316 -11.5508
1 22 17 -30.5805 18.4451
1 22 18 11.3470 7.9659
1 22 19 -11.7973 -14.6785
1 22 20 -21.8554 -3.1743
1 22 21 5.8646 -7.8958
1 22 22 -7.2424 -6.2779
1 23 1 0.7526 -2.6203
1 23 2 25.8757 -6.8275
1 23 3 -10.4370 -13.3787
1 23 4 15.8920 -7.2225
1 23 5 2.4489 14.4019
1 23 6 -33.5339 8.1685
1 23 7 18.1813 0.8176
1 23 8 10.5268 -1.3707
1 23 9 -38.2932 -4.5749
1 23 10 -14.7271 0.7328
1 23 11 10.6307 -4.4705
1 23 12 -11.0835 -2.1869
1 23 13 1.5126 -2.5979
1 23 14 7.8982 -41.0116
1 23 15 -4.4487 -8.5181
1 23 16 -4.0202 4.1695
1 23 17 -17.1189 -6.9226
1 23 18 2.5463 -22.4726
1 23 19 26.0151 -16.0886
1 23 20 -3.8482 -7.3641
1 23 21 17.6336 -19.9322
1 23 22 3.2106 1.0541
1 23 23 0.3295 2.1624
1 24 1 -2.5700 -4.1187
1 24 2 10.4587 -8.0202
1 24 3 -4.6030 -10.1818
1 24 4 25.7190 -12.3524
1 24 5 -22.0732 -1.9303
1 24 6 15.7501 22.9204
1 24 7 21.8714 -31.9608
1 24 8 19.8658 3.8072
1 24 9 15.1922 20.0057
1 24 10 -17.3139 -11.8113
1 24 11 27.1311 -7.6974
1 24 12 -11.5342 -16.8813
1 24 13 2.4224 -24.2659
1 24 14 -4.6648 17.7046
1 24 15 9.2114 -36.7076
1 24 16 -22.5871 -41.8076
1 24 17 -15.3921 -21.8616
1 24 18 15.7673 4.3727
1 24 19 -10.7103 3.3562
1 24 20 11.4602 14.4945
1 24 21 14.2842 9.2137
1 24 22 22.3222 -13.0165
1 24 23 -21.0626 2.2958
1 24 24 -18.1614 -18.5994
1 25 1 6.4410 -4.8288
1 25 2 -28.3578 -4.1438
1 25 3 -5.1643 12.2582
1 25 4 -6.1482 15.8217
1 25 5 19.3943 -6.5988
1 25 6 17.7189 14.5552
1 25 7 -16.2010 -7.3835
1 25 8 -2.7422 -5.2249
1 25 9 -10.9359 25.2624
1 25 10 -1.0670 6.5982
1 25 11 -3.9495 24.8716
1 25 12 -7.4008 -46.1793
1 25 13 -26.0288 19.2927
1 25 14 3.6419 -15.0820
1 25 15 -5.5134 22.2701
1 25 16 16.7081 -22.6637
1 25 17 -18.5704 18.6334
1 25 18 -17.9248 -20.0037
1 25 19 -18.5550 -7.0109
1 25 20 -3.3613 -14.7350
1 25 21 7.1971 -4.0157
1 25 22 -44.3051 12.1039
1 25 23 -6.9993 -6.7611
1 25 24 17.4004 10.6322
1 25 25 -2.1512 2.9081
1 26 1 -14.4401 0.9190
1 26 2 20.7716 4.4510
1 26 3 -4.1748 -9.6705
1 26 4 15.7899 14.9953
1 26 5 2.2444 7.1921
1 26 6 8.8724 9.9894
1 26 7 11.6694 8.5469
1 26 8 16.3178 -2.6248
1 26 9 4.6501 5.9139
1 26 10 -29.6993 6.5046
1 26 11 21.0536 20.6589
1 26 12 -32.4731 0.9320
1 26 13 -18.0202 2.5554
1 26 14 1.5493 3.1407
1 26 15 -18.4462 32.0624
1 26 16 -39.5626 29.4522
1 26 17 1.2446 17.9581
1 26 18 6.7862 -21.4878
1 26 19 0.9933 -2.7547
1 26 20 9.7868 0.9295
1 26 21 14.2487 14.2197
1 26 22 -12.9896 -11.9124
1 26 23 12.0115 -1.7406
1 26 24 -18.0550 -14.0102
1 26 25 -14.7419 42.9963
1 26 26 23.1649 22.1983
1 27 1 2.4993 -0.8548
1 27 2 -13.9850 7.2022
1 27 3 -16.5821 -1.2221
1 27 4 -7.7280 -5.6519
1 27 5 5.7061 -7.8717
1 27 6 -24.7453 -8.9830
1 27 7 -16.6675 3.3295
1 27 8 -22.2855 14.6982
1 27 9 11.8733 16.4325
1 27 10 -9.8737 -2.0319
1 27 11 -13.4993 -7.2765
1 27 12 8.6063 3.5983
1 27 13 16.8873 -12.4915
1 27 14 1.5133 -32.0077
1 27 15 1.1875 -16.8392
1 27 16 -21.6306 -34.0993
1 27 17 -29.4371 5.3807
1 27 18 19.8376 -18.5335
1 27 19 1.9532 6.6268
1 27 20 -23.1702 2.1031
1 27 21 -9.4074 -5.2398
1 27 22 -7.8930 5.2040
1 27 23 25.8264 8.6537
1 27 24 24.7034 9.5357
1 27 25 3.5853 10.4159
1 27 26 -10.8195 -10.6844
1 27 27 1.4548 1.3398
1 28 1 -1.9559 -8.4068
1 28 2 9.0363 -15.9060
1 28 3 13.4142 -2.6015
1 28 4 -3.7383 2.3458
1 28 5 13.7593 5.3780
1 28 6 22.8073 -0.7655
1 28 7 26.4348 2.2183
1 28 8 -5.2040 6.8255
1 28 9 28.7991 -2.7033
1 28 10 -3.7065 -12.7817
1 28 11 7.9544 -4.8836
1 28 12 -6.7932 13.4157
1 28 13 18.3522 -2.8831
1 28 14 -26.1436 -24.2418
1 28 15 9.2183 41.8608
1 28 16 1.1441 14.1881
1 28 17 -8.6690 29.2003
1 28 18 10.7241 3.0761
1 28 19 -21.0598 11.1271
1 28 20 1.5855 2.1080
1 28 21 10.0614 -2.7603
1 28 22 12.8630 7.7161
1 28 23 0.5726 -9.2297
1 28 24 26.4865 29.7203
1 28 25 -12.6894 18.4433
1 28 26 -29.7685 55.7519
1 28 27 -4.8246 -9.6845
1 29 1 -4.9283 8.5020
1 29 2 48.2528 13.6241
1 29 3 -11.2119 -2.8643
1 29 4 -6.8970 -3.8391
1 29 5 -9.8936 5.5105
1 29 6 18.1817 6.0128
1 29 7 -1.7964 13.9218
1 29 8 17.3005 -8.7281
1 29 9 10.9559 1.3259
1 29 10 29.8831 -21.0213
1 29 11 18.0218 3.5871
1 29 12 24.4382 26.2837
1 29 13 7.3420 -5.2587
1 29 14 -30.3642 -40.9971
1 29 15 -7.0501 38.0594
1 29 16 33.9115 -24.3017
1 29 17 19.1344 4.1205
1 29 18 7.7759 -1.9812
1 29 19 12.9667 7.2074
1 29 20 8.5628 -12.2331
1 29 21 23.2247 -28.1632
1 29 22 -6.4339 7.8073
1 29 23 9.0727 -4.8288
1 29 24 5.8456 10.9487
1 29 25 27.5737 73.1288
1 29 26 -11.4695 -28.6937
1 30 1 -28.7849 0.9834
1 30 2 -40.0352 -29.5318
1 30 3 17.1784 15.7529
1 30 4 8.7406 -24.2900
1 30 5 8.8655 2.9352
1 30 6 -5.3892 3.5259
1 30 7 10.5468 0.9380
1 30 8 8.4438 12.2203
1 30 9 6.8410 -12.7404
1 30 10 2.0820 11.1252
1 30 11 7.8700 -21.7020
1 30 12 -12.4180 -7.2195
1 30 13 6.7268 21.2870
1 30 14 -24.4667 -12.6157
1 30 15 -10.2667 -30.5142
1 30 16 -14.0733 -4.4961
1 30 17 1.8479 24.1777
1 30 18 4.0116 -3.3570
1 30 19 1.9587 -7.5705
1 30 20 5.1682 18.0457
1 30 21 -0.8689 -4.3144
1 30 22 -7.8517 6.5185
1 30 23 -10.1208 -12.7662
1 30 24 17.6783 -12.3484
1 30 25 0.8591 -14.3647
1 31 1 -4.4334 -7.3920
1 31 2 -9.1581 18.7586
1 31 3 43.7906 0.6020
1 31 4 -6.4486 -3.2787
1 31 5 15.1227 0.4566
1 31 6 -15.3060 3.9222
1 31 7 0.7016 5.4717
1 31 8 -0.1286 -3.6411
1 31 9 -16.9501 29.7416
1 31 10 -2.5144 21.2536
1 31 11 -23.2917 -21.8876
1 31 12 -47.1351 -39.6332
1 31 13 8.3501 8.9740
1 31 14 28.2267 -33.5017
1 31 15 -7.9022 -11.7208
1 31 16 7.3506 4.0913
1 31 17 -2.3108 11.9464
1 31 18 -6.0149 13.9120
1 31 19 2.5290 -2.2944
1 31 20 0.6785 -2.9110
1 31 21 3.3209 0.3517
1 31 22 -25.9825 23.2616
1 31 23 -3.8847 -19.4981
1 32 1 0.0172 -14.8139
1 32 2 -1.0932 15.4671
1 32 3 62.6935 -10.5025
1 32 4 -21.6533 -71.7880
1 32 5 8.2577 9.5968
1 32 6 -3.1612 -12.7258
1 32 7 26.9870 -10.7132
1 32 8 -8.2143 -14.1841
1 32 9 7.0712 31.4526
1 32 10 7.1609 -30.4782
1 32 11 15.3893 2.1107
1 32 12 5.1687 33.4129
1 32 13 0.5755 20.7158
1 32 14 -11.2855 -1.7115
1 32 15 -15.8163 27.8660
1 32 16 6.6799 3.9039
1 32 17 -1.1353 -19.6582
1 32 18 -1.0474 -4.5436
1 32 19 3.3489 13.1115
1 32 20 -2.9804 -0.2371
1 32 21 -1.8275 -8.8128
1 32 22 7.3072 -2.6229
1 33 1 -7.1328 10.7755
1 33 2 45.4568 12.6864
1 33 3 10.8237 17.2616
1 33 4 1.5066 -9.7773
1 33 5 5.2434 -17.1361
1 33 6 27.2540 4.5506
1 33 7 -24.1948 15.8638
1 33 8 6.3194 2.7937
1 33 9 14.0821 16.9162
1 33 10 1.6201 1.6792
1 33 11 -22.7247 24.3689
1 33 12 37.7142 0.9860
1 33 13 -3.6001 7.7976
1 33 14 -3.0046 5.2375
1 33 15 1.6712 12.0268
1 33 16 -6.8801 2.1616
1 33 17 -9.3411 -4.0714
1 33 18 7.5344 -1.2765
1 33 19 10.2107 -17.3060
1 33 20 -1.3963 -3.0436
1 33 21 -3.4330 -8.5263
1 34 1 -28.7018 -0.9847
1 34 2 -41.8769 -33.2118
1 34 3 4.5569 -7.8217
1 34 4 -5.5796 28.6893
1 34 5 -18.1502 8.5167
1 34 6 12.5102 -32.5370
1 34 7 4.0581 12.8711
1 34 8 -14.0376 -13.2792
1 34 9 -25.4901 -26.7401
1 34 10 -7.2531 26.0324
1 34 11 23.1440 0.9946
1 34 12 -13.9176 16.8403
1 34 13 -16.2646 -0.9538
1 34 14 12.3720 14.1170
1 34 15 3.2055 1.6050
1 34 16 -0.6227 -1.0351
1 34 17 -1.7152 6.4187
1 34 18 1.5320 -3.0506
1 34 19 -5.7814 -9.8367
1 35 1 0.3520 2.0878
1 35 2 -0.8607 -1.6258
1 35 3 -1.8231 -8.1661
1 35 4 6.4500 1.8921
1 35 5 -6.1552 -4.6706
1 35 6 -2.2670 1.3369
1 35 7 -5.0952 -10.6730
1 35 8 4.0148 -23.0720
1 35 9 8.9667 -0.9274
1 35 10 -21.4456 -9.9357
1 35 11 -7.2571 2.9372
1 35 12 -3.1222 -8.6354
1 35 13 12.8510 5.6232
1 35 14 -0.7059 -12.0458
1 35 15 -0.3299 -1.4342
1 35 16 -14.2315 -4.2135
1 35 17 17.1830 1.8160
1 36 1 1.1033 -4.7526
1 36 2 -10.1024 17.0312
1 36 3 0.5664 -10.1935
1 36 4 0.8319 1.9754
1 36 5 8.0545 11.9891
1 36 6 11.4880 -15.8916
1 36 7 -7.8755 1.6538
1 36 8 16.9364 12.4133
1 36 9 39.8532 -3.1301
1 36 10 -4.8967 18.1312
1 36 11 -6.9775 -10.6863
1 36 12 -5.2963 1.9698
1 36 13 -4.5369 -12.1095
1 36 14 -1.3361 3.0991
1 36 15 9.8405 -1.4505
1 37 1 10.1873 -10.4593
1 37 2 5.5844 5.7427
1 37 3 -8.6881 4.0046
1 37 4 0.6940 0.5612
1 37 5 6.2483 15.3381
1 37 6 -3.1604 -0.8166
1 37 7 2.7096 16.8270
1 37 8 2.6470 1.6487
1 37 9 4.1126 -2.5701
1 37 10 -11.7199 1.9000
1 37 11 26.3245 2.8778
1 37 12 10.1346 -5.3645
1 38 1 -10.6074 -1.8593
1 38 2 -3.7580 -1.6048
1 38 3 1.7980 3.4034
1 38 4 -10.9658 0.0265
1 38 5 2.7126 3.5140
1 38 6 1.0360 -4.2954
1 38 7 -2.3881 5.1664
1 38 8 -7.1306 1.8830
1 38 9 3.4336 6.3354
1 39 3 0.7617 -4.6137
2 2 2 3.8175 -52.8847
2 3 2 -122.0711 120.3315
2 3 3 77.7007 3.0922
2 4 2 98.8252 12.4362
2 4 3 -102.9149 -2.5792
2 4 4 5.4584 -13.8726
2 5 2 -67.6569 -65.5642
2 5 3 136.1100 24.1046
2 5 4 9.8516 70.0434
2 5 5 -141.5963 10.7126
2 6 2 -1.9343 -78.7539
2 6 3 -98.1456 -89.0730
2 6 4 52.8796 22.7121
2 6 5 -30.2040 -37.6868
2 6 6 -1.4759 22.0693
2 7 2 40.2216 -43.5240
2 7 3 -48.1650 -116.7589
2 7 4 -8.6122 1.7964
2 7 5 37.8478 -57.3550
2 7 6 -51.8190 -43.2950
2 7 7 47.5359 7.7302
2 8 2 -127.4450 8.1684
2 8 3 -3.9287 20.5635
2 8 4 77.4737 -28.0788
2 8 5 47.8077 -34.5741
2 8 6 82.9300 58.5383
2 8 7 0.1302 -20.0836
2 8 8 -11.1485 52.4548
2 9 2 -11.3674 -11.3306
2 9 3 -57.3328 25.0357
2 9 4 -2.3118 -59.7411
2 9 5 19.8393 -9.9178
2 9 6 22.5297 26.7720
2 9 7 -18.1806 27.0751
2 9 8 -28.6217 55.4932
2 9 9 -24.4400 4.9672
2 10 2 -2.5047 -47.9680
2 10 3 40.2318 46.3697
2 10 4 8.0066 -1.3160
2 10 5 -24.1118 2.3588
2 10 6 -17.3905 0.2588
2 10 7 2.5412 10.8557
2 10 8 0.4076 -12.8191
2 10 9 -11.7343 -2.4200
2 10 10 -4.8875 -21.0659
2 11 2 -2.1788 -9.3883
2 11 3 11.3417 6.8806
2 11 4 20.6640 -19.8229
2 11 5 -16.7283 21.2863
2 11 6 -44.3028 -9.5963
2 11 7 54.5197 -7.7251
2 11 8 -14.2272 28.5147
2 11 9 25.8101 -1.5252
2 11 10 3.0743 -17.2147
2 11 11 -37.0093 -0.7993
2 12 2 42.2228 7.0741
2 12 3 -11.1911 -40.2981
2 12 4 -8.6327 8.2303
2 12 5 -27.7389 -0.1523
2 12 6 -13.5320 -49.6453
2 12 7 -17.6389 28.7167
2 12 8 -8.8056 -29.8448
2 12 9 -16.4456 -39.8352
2 12 10 6.8318 -38.7722
2 12 11 -19.1882 39.9369
2 12 12 -3.9857 -45.7653
2 13 2 -13.0501 -17.8417
2 13 3 -4.4242 -25.4228
2 13 4 -13.2268 -11.9364
2 13 5 28.4471 30.2483
2 13 6 34.2821 -17.3477
2 13 7 46.2075 -19.4343
2 13 8 28.5894 -25.8058
2 13 9 32.8174 -5.4096
2 13 10 -16.6499 21.9533
2 13 11 5.5395 -0.2829
2 13 12 4.2179 -3.5213
2 13 13 11.9601 -8.3025
2 14 2 1.4402 -15.8797
2 14 3 -9.6221 -6.8877
2 14 4 13.8049 44.8306
2 14 5 11.6926 -6.7596
2 14 6 34.2664 16.1147
2 14 7 -6.6264 15.4111
2 14 8 -25.8721 11.1154
2 14 9 35.4448 25.9691
2 14 10 9.9570 16.8498
2 14 11 60.2624 -38.7808
2 14 12 10.4336 1.7441
2 14 13 12.5645 0.0630
2 14 14 -1.6724 22.9582
2 15 2 10.2386 -8.4151
2 15 3 5.4213 -10.3361
2 15 4 2.6781 -20.0953
2 15 5 30.4513 -0.4224
2 15 6 -35.4604 2.7461
2 15 7 2.0369 20.5612
2 15 8 11.9503 4.0136
2 15 9 12.7085 4.7422
2 15 10 19.1271 -12.9852
2 15 11 -2.7069 -12.1964
2 15 12 10.4285 49.4913
2 15 13 -10.4157 -13.8243
2 15 14 9.4194 -15.6592
2 15 15 14.9548 -9.4327
2 16 2 -4.6299 -0.3595
2 16 3 18.1038 12.9080
2 16 4 -56.1756 37.6900
2 16 5 26.9561 6.1057
2 16 6 7.0254 -11.0777
2 16 7 -22.1976 -2.8118
2 16 8 -27.1268 -23.2158
2 16 9 19.0487 -20.8303
2 16 10 -2.2092 -1.9228
2 16 11 10.2455 -36.3338
2 16 12 -8.4804 11.9997
2 16 13 4.8905 16.9231
2 16 14 -3.7263 -40.8752
2 16 15 -2.4451 9.6140
2 16 16 -1.4306 -2.4709
2 17 2 10.5817 5.5442
2 17 3 25.4929 38.5772
2 17 4 -32.3952 -35.9281
2 17 5 37.6829 -42.8604
2 17 6 25.0067 -1.3892
2 17 7 -9.1933 -13.5912
2 17 8 6.5674 -12.4443
2 17 9 -26.6975 -0.5232
2 17 10 0.8228 4.3310
2 17 11 -44.0734 -16.8210
2 17 12 -0.0844 9.4150
2 17 13 -0.7610 -10.1071
2 17 14 3.7417 -10.2300
2 17 15 6.4505 -10.9173
2 17 16 -2.4448 0.2934
2 17 17 10.9687 -3.0820
2 18 2 1.5323 1.7270
2 18 3 -19.5070 21.7933
2 18 4 -4.3984 -6.6853
2 18 5 -7.9097 3.3903
2 18 6 -14.3858 -10.9621
2 18 7 -24.2944 4.4070
2 18 8 13.5643 -13.1961
2 18 9 0.8769 -1.3430
2 18 10 22.1588 -33.3580
2 18 11 -0.3098 32.4831
2 18 12 3.9415 -21.0619
2 18 13 -5.9918 -0.7071
2 18 14 9.2664 17.7675
2 18 15 -2.1465 -18.3581
2 18 16 0.4640 10.7638
2 18 17 16.4881 -25.6581
2 18 18 -0.3386 24.2298
2 19 2 9.1025 3.6871
2 19 3 -22.0236 44.7258
2 19 4 -5.6503 0.3018
2 19 5 23.7521 -26.2522
2 19 6 34.4437 16.4522
2 19 7 28.2388 -18.1309
2 19 8 23.8367 12.2459
2 19 9 4.3212 -14.7916
2 19 10 -23.1722 -15.0889
2 19 11 9.5953 9.4770
2 19 12 -0.5973 -0.1255
2 19 13 -25.8985 -10.0597
2 19 14 2.8465 -18.4391
2 19 15 1.1973 6.7482
2 19 16 1.4066 -11.3271
2 19 17 8.0911 -20.7189
2 19 18 14.8362 -6.8266
2 19 19 -45.9764 5.2908
2 20 2 -2.1218 0.0178
2 20 3 4.2075 -13.2886
2 20 4 3.0293 6.7823
2 20 5 10.9816 -28.2651
2 20 6 13.4774 6.1451
2 20 7 -10.6003 7.9878
2 20 8 -2.1512 8.0192
2 20 9 11.8395 1.1204
2 20 10 -4.3774 23.4652
2 20 11 5.8757 7.1856
2 20 12 23.2609 -20.7574
2 20 13 -12.2881 -12.1345
2 20 14 -12.9797 18.1263
2 20 15 1.6121 -10.5494
2 20 16 13.0823 12.7498
2 20 17 -13.5555 7.8566
2 20 18 -25.7528 -17.4900
2 20 19 36.2508 -11.9440
2 20 20 -0.6171 -37.0218
2 21 2 11.2268 3.7233
2 21 3 15.3584 -15.7599
2 21 4 -7.8843 -11.6308
2 21 5 -26.7494 -6.0207
2 21 6 5.0397 -3.6960
2 21 7 -6.7674 -23.5314
2 21 8 10.7910 -7.2673
2 21 9 19.0048 -0.3411
2 21 10 -26.9928 -14.4801
2 21 11 -10.1355 -3.6920
2 21 12 -0.8437 1.9867
2 21 13 -4.6452 -8.1880
2 21 14 21.8102 16.1032
2 21 15 11.4108 5.6888
2 21 16 10.3921 -18.0612
2 21 17 21.0873 -23.2666
2 21 18 -17.7395 -6.7160
2 21 19 24.8398 -14.4671
2 21 20 12.0613 0.0245
2 21 21 -25.1121 6.6342
2 22 2 4.4755 -8.8979
2 22 3 31.0080 8.5809
2 22 4 11.3244 -35.2080
2 22 5 -2.1504 12.1675
2 22 6 -6.3446 -13.2506
2 22 7 -13.0720 2.6323
2 22 8 -22.2429 -5.4118
2 22 9 -1.0849 1.2637
2 22 10 -2.0466 -7.1157
2 22 11 -14.1376 2.5519
2 22 12 19.1392 -13.9960
2 22 13 12.7189 -11.8984
2 22 14 9.1244 -10.5573
2 22 15 10.6761 -10.2689
2 22 16 21.6583 6.5319
2 22 17 5.1884 1.8555
2 22 18 1.8036 15.8544
2 22 19 26.8860 1.5318
2 22 20 -10.5956 10.2491
2 22 21 5.7557 -9.3596
2 22 22 -1.4900 35.0441
2 23 2 8.0509 -1.2106
2 23 3 -13.6826 -1.5140
2 23 4 35.7373 -2.2229
2 23 5 39.9917 13.0005
2 23 6 1.1146 -0.8188
2 23 7 -3.2863 -10.4866
2 23 8 -6.7487 -15.4112
2 23 9 4.0473 10.5164
2 23 10 5.9140 14.7321
2 23 11 -22.3427 15.8069
2 23 12 -24.4895 -9.5092
2 23 13 -13.4738 8.7733
2 23 14 4.7403 18.6646
2 23 15 37.8996 -2.4757
2 23 16 9.5248 8.3150
2 23 17 -5.9201 -9.4500
2 23 18 -5.3609 -1.5589
2 23 19 -3.9167 -22.3196
2 23 20 4.5854 0.7370
2 23 21 -52.4193 0.7925
2 23 22 4.6788 -9.0239
2 23 23 -15.0630 3.3316
2 24 2 -13.8010 3.3034
2 24 3 24.9063 -16.5855
2 24 4 0.4069 15.5940
2 24 5 -20.9397 5.1345
2 24 6 7.9765 -7.5357
2 24 7 5.0201 -6.6856
2 24 8 -8.6873 -7.5659
2 24 9 4.9553 5.5578
2 24 10 -5.0744 -5.9286
2 24 11 -4.0964 -7.9036
2 24 12 11.0411 28.4277
2 24 13 -31.5723 8.5894
2 24 14 11.0890 16.4882
2 24 15 14.9700 28.4152
2 24 16 5.6723 28.1253
2 24 17 -21.2111 7.0750
2 24 18 27.3680 14.1041
2 24 19 18.3853 35.9603
2 24 20 -8.0493 -1.6743
2 24 21 7.2674 10.1120
2 24 22 2.2023 -28.8246
2 24 23 11.1771 12.6717
2 24 24 -1.6235 -7.5228
2 25 2 -13.7437 -15.0893
2 25 3 -22.9383 -3.4878
2 25 4 -9.5323 14.8671
2 25 5 -38.7474 -20.0680
2 25 6 -14.1704 -24.0332
2 25 7 1.6337 3.0546
2 25 8 10.4408 11.1327
2 25 9 0.9058 13.7436
2 25 10 12.0893 10.7279
2 25 11 11.4053 15.2645
2 25 12 9.7849 -9.7318
2 25 13 21.2670 8.1329
2 25 14 -8.1407 -15.9166
2 25 15 -35.7944 -15.5846
2 25 16 6.9032 4.6716
2 25 17 -5.6717 -3.1349
2 25 18 -5.8719 4.0841
2 25 19 6.9230 -14.2363
2 25 20 11.4245 2.3528
2 25 21 18.9021 16.1024
2 25 22 -2.3859 -10.2263
2 25 23 -2.4605 32.9760
2 25 24 0.2621 15.3535
2 25 25 27.5998 -0.3925
2 26 2 4.9773 8.9739
2 26 3 -3.5889 2.1961
2 26 4 -4.0300 3.0447
2 26 5 6.2392 -5.3560
2 26 6 -10.5497 -17.7574
2 26 7 4.4532 8.8282
2 26 8 3.5048 0.9266
2 26 9 7.4405 -27.0461
2 26 10 -3.3957 -20.3026
2 26 11 5.1602 15.5025
2 26 12 14.3459 15.8003
2 26 13 24.8543 6.7841
2 26 14 -2.3673 22.0622
2 26 15 -12.6115 -14.2436
2 26 16 19.8154 3.4768
2 26 17 -13.9393 -5.2738
2 26 18 3.3414 -5.9008
2 26 19 5.4096 -0.8670
2 26 20 -7.6394 3.9283
2 26 21 9.3208 15.9257
2 26 22 -3.2063 -3.1792
2 26 23 7.1778 4.0145
2 26 24 24.6451 -2.3491
2 26 25 -29.5179 30.8747
2 26 26 -2.0788 -7.8895
2 27 2 -0.1074 -2.3393
2 27 3 0.3914 -1.3540
2 27 4 -8.9816 -8.5720
2 27 5 -21.1590 22.1739
2 27 6 -4.9647 10.9249
2 27 7 26.4453 1.6150
2 27 8 -2.6760 9.6243
2 27 9 2.6522 13.8169
2 27 10 -34.5484 -2.4677
2 27 11 -24.8435 -1.0325
2 27 12 -20.5469 -1.5707
2 27 13 -13.7700 -16.4164
2 27 14 12.1063 -5.5274
2 27 15 9.5433 15.2546
2 27 16 -11.7551 -37.4433
2 27 17 11.3146 -8.1224
2 27 18 -3.9962 9.3949
2 27 19 -5.4250 -4.2136
2 27 20 14.1670 -2.4689
2 27 21 4.4724 -9.0261
2 27 22 10.5714 -15.5038
2 27 23 -9.5938 -17.2874
2 27 24 18.7834 5.3464
2 27 25 -17.7237 2.1740
2 27 26 -3.2726 7.4300
2 27 27 -12.2066 -4.5680
2 28 2 16.2061 1.3711
2 28 3 -7.7018 -29.5192
2 28 4 -12.5943 -2.6623
2 28 5 0.0479 4.9368
2 28 6 -0.8217 -0.5462
2 28 7 6.5697 5.6529
2 28 8 -1.3585 -7.0613
2 28 9 2.1548 12.6749
2 28 10 -23.8000 -22.9872
2 28 11 3.6659 28.1233
2 28 12 2.1904 -15.4385
2 28 13 2.9779 6.7308
2 28 14 -42.8341 5.7600
2 28 15 -21.2157 -10.4428
2 28 16 -7.2303 -4.7195
2 28 17 -11.2864 13.6646
2 28 18 11.6248 -13.5375
2 28 19 8.3134 7.5997
2 28 20 0.9487 -18.6970
2 28 21 4.6590 -20.5493
2 28 22 -28.0386 -34.2483
2 28 23 24.1692 -18.5256
2 28 24 1.2798 6.4795
2 28 25 -17.4941 10.4320
2 28 26 -6.2757 -1.1107
2 28 27 -18.3295 12.9503
2 29 2 -9.1097 -4.2034
2 29 3 -3.6996 6.6200
2 29 4 -5.7361 15.7572
2 29 5 38.9573 -3.0837
2 29 6 -16.6831 2.6793
2 29 7 1.7343 -7.1596
2 29 8 -7.4785 -7.6877
2 29 9 -9.2009 3.6355
2 29 10 12.9035 5.6307
2 29 11 19.8935 1.9635
2 29 12 -1.4143 -5.2888
2 29 13 -4.0192 8.7363
2 29 14 18.6552 -2.0200
2 29 15 14.9099 8.8295
2 29 16 -5.5322 -16.0027
2 29 17 4.4631 3.0362
2 29 18 20.4481 -2.1905
2 29 19 15.3120 -0.6638
2 29 20 5.2376 -7.2950
2 29 21 12.7283 -17.1749
2 29 22 -10.5033 -9.0727
2 29 23 15.9366 22.7852
2 29 24 -9.9134 4.8738
2 29 25 -26.1103 -10.5633
2 29 26 -25.9108 3.6053
2 30 2 3.0815 1.6331
2 30 3 -17.2002 14.7796
2 30 4 -11.7646 29.8546
2 30 5 0.0956 -12.1363
2 30 6 18.2248 -0.7456
2 30 7 0.7597 -7.6822
2 30 8 -13.7328 9.7603
2 30 9 -3.1542 -6.0246
2 30 10 -11.7225 13.0007
2 30 11 11.1167 -10.5947
2 30 12 7.5883 -22.3041
2 30 13 -23.1528 24.7529
2 30 14 -7.0053 8.9794
2 30 15 -8.9294 2.6495
2 30 16 -2.7284 15.9995
2 30 17 4.3241 27.9277
2 30 18 15.9253 1.2459
2 30 19 16.0218 3.2399
2 30 20 -6.0209 -13.0718
2 30 21 -1.6975 2.9043
2 30 22 11.3861 -5.6589
2 30 23 1.4356 -4.6700
2 30 24 9.1509 3.6729
2 30 25 -16.4029 -0.4859
2 31 2 -6.8390 1.6915
2 31 3 19.3040 -5.1478
2 31 4 44.7714 -10.5981
2 31 5 10.8136 32.5890
2 31 6 10.2458 -0.1562
2 31 7 3.6408 -6.0837
2 31 8 -12.1100 -3.6339
2 31 9 11.0774 -12.6638
2 31 10 12.4912 -4.2445
2 31 11 -11.8842 -5.8550
2 31 12 -0.5430 5.7885
2 31 13 8.6292 4.6292
2 31 14 -11.7631 3.5491
2 31 15 -7.6752 11.8572
2 31 16 -6.4783 -8.4754
2 31 17 -5.1725 -1.3467
2 31 18 3.3846 6.7589
2 31 19 -9.3607 4.7293
2 31 20 -8.8793 -6.8383
2 31 21 6.2082 -1.4843
2 31 22 6.0409 4.0514
2 31 23 8.1242 -5.6172
2 32 2 -44.9553 -0.5929
2 32 3 7.9958 15.7446
2 32 4 -22.6607 -0.6929
2 32 5 -5.8970 25.6097
2 32 6 3.8496 -24.1518
2 32 7 -23.8353 -3.7127
2 32 8 6.5657 8.9283
2 32 9 -33.9044 8.8381
2 32 10 -8.6782 -0.0656
2 32 11 -12.1443 20.7609
2 32 12 14.1440 -10.0076
2 32 13 -2.6634 13.2467
2 32 14 -0.8819 -3.4035
2 32 15 6.0334 19.1783
2 32 16 2.0933 -8.9385
2 32 17 -3.0664 8.1487
2 32 18 -11.3910 -10.0317
2 32 19 -3.1370 1.2645
2 32 20 -2.7313 -6.4070
2 32 21 10.5737 -5.4576
2 32 22 7.6222 -9.6150
2 33 2 -0.3801 3.4569
2 33 3 22.5512 3.9456
2 33 4 -6.2376 -11.5448
2 33 5 -13.0550 14.5941
2 33 6 -11.2232 0.6475
2 33 7 -9.6314 16.3481
2 33 8 3.2005 -7.9912
2 33 9 7.1044 1.3287
2 33 10 -22.1163 0.1463
2 33 11 -2.7788 -1.0687
2 33 12 5.0464 9.1541
2 33 13 -8.4676 -17.8433
2 33 14 0.9065 -8.8094
2 33 15 1.9006 -15.4668
2 33 16 -8.0721 -17.1392
2 33 17 -1.5800 -7.7473
2 33 18 5.4905 -7.6609
2 33 19 -0.0388 2.1458
2 33 20 5.7436 -3.6725
2 34 2 0.5289 -13.7805
2 34 3 38.6548 -20.2389
2 34 4 9.9126 9.8872
2 34 5 -13.5112 -18.2982
2 34 6 -2.8570 2.8832
2 34 7 -0.4539 -7.8488
2 34 8 -7.9903 -0.8150
2 34 9 -1.5262 0.6649
2 34 10 -7.8770 -18.0579
2 34 11 4.3424 0.4716
2 34 12 -18.3300 34.0263
2 34 13 -1.8590 18.6548
2 34 14 -4.3678 -17.5058
2 34 15 -4.7115 -4.1483
2 34 16 -4.1619 -2.8852
2 34 17 -1.3108 -1.1799
2 34 18 -10.1794 1.4978
2 34 19 -0.5063 -10.2443
2 35 2 -1.0394 -3.8438
2 35 3 -3.9932 9.0467
2 35 4 16.3289 0.3471
2 35 5 -29.5966 -1.0686
2 35 6 -1.3658 1.1779
2 35 7 -3.5857 7.1133
2 35 8 -12.0854 11.0003
2 35 9 2.4476 -7.6579
2 35 10 17.4056 -5.3944
2 35 11 3.5425 -1.0005
2 35 12 1.8323 2.7696
2 35 13 5.5561 -25.8507
2 35 14 -8.2960 -15.5487
2 35 15 6.2216 7.7539
2 35 16 10.4210 -4.0083
2 35 17 11.5672 4.5147
2 36 2 12.7706 -3.2633
2 36 3 -0.3240 17.7511
2 36 4 8.6925 -3.8597
2 36 5 6.2540 18.9017
2 36 6 -10.7472 -7.5811
2 36 7 -5.2221 -7.9451
2 36 8 -14.7676 -2.1261
2 36 9 3.4406 11.7744
2 36 10 1.7486 -12.1221
2 36 11 10.8710 0.2164
2 36 12 -8.8550 19.4333
2 36 13 0.2186 -17.9409
2 36 14 14.0207 -18.6857
2 36 15 -5.5024 -17.0228
2 37 2 7.6727 10.6725
2 37 3 -4.8108 -8.1991
2 37 4 0.8511 -10.4104
2 37 5 2.7515 3.6376
2 37 6 -11.1054 -3.0586
2 37 7 -11.9076 2.4326
2 37 8 2.4371 -3.1160
2 37 9 -14.3465 4.1925
2 37 10 0.9880 6.2302
2 37 11 5.0128 -13.5781
2 37 12 -12.0545 -24.7859
2 38 2 -2.4406 2.9493
2 38 3 -9.1973 3.1286
2 38 4 -5.7303 9.8373
2 38 5 9.5444 1.8807
2 38 6 -2.5069 13.4994
2 38 7 -12.4088 21.8334
2 38 8 -3.5072 -10.5276
2 38 9 14.8121 0.1501
2 39 2 0.1571 -4.7872
3 3 3 515.6255 525.1127
3 4 3 -2.6909 -89.3583
3 4 4 152.8399 -147.8872
3 5 3 52.5724 -51.9469
3 5 4 39.7322 -23.8637
3 5 5 0.4552 -0.2764
3 6 3 9.8196 -1.6665
3 6 4 75.6958 6.3086
3 6 5 -55.7409 43.5199
3 6 6 7.2115 6.7911
3 7 3 14.2926 21.5543
3 7 4 -45.7186 7.0205
3 7 5 70.3584 54.3412
3 7 6 -11.4718 -7.0029
3 7 7 -88.7617 -73.8359
3 8 3 -3.6240 -67.4880
3 8 4 -41.3937 1.2475
3 8 5 -58.7209 26.0521
3 8 6 5.4995 -23.7892
3 8 7 -34.8155 -4.3144
3 8 8 -26.8947 34.2911
3 9 3 -18.3809 25.5873
3 9 4 -4.5644 30.3083
3 9 5 15.4906 -16.5964
3 9 6 -7.8496 -2.6236
3 9 7 -31.1767 27.5500
3 9 8 23.0519 20.3936
3 9 9 13.4030 21.9501
3 10 3 18.8846 -16.9737
3 10 4 -15.1178 -13.6099
3 10 5 14.9574 -30.1952
3 10 6 -22.7656 19.5706
3 10 7 -38.1146 1.6047
3 10 8 -8.8432 31.1876
3 10 9 6.7645 7.6826
3 10 10 -48.1421 50.0569
3 11 3 -5.1894 5.5987
3 11 4 -20.0584 25.2183
3 11 5 -19.3798 3.2305
3 11 6 -10.3805 -3.2808
3 11 7 -23.0029 -5.6201
3 11 8 3.4081 -15.9298
3 11 9 -15.8096 -30.2625
3 11 10 -27.0599 37.3259
3 11 11 -10.9190 -5.5959
3 12 3 -6.3529 37.3477
3 12 4 16.6913 33.2220
3 12 5 -34.3395 -11.1981
3 12 6 -22.3468 15.6899
3 12 7 -36.3591 2.3635
3 12 8 -33.0022 16.9367
3 12 9 30.9078 -11.0734
3 12 10 31.3531 -3.0609
3 12 11 2.5740 -1.7022
3 12 12 25.6830 -36.6710
3 13 3 -28.8329 30.0465
3 13 4 -27.3734 2.1886
3 13 5 -12.4185 9.0490
3 13 6 11.3012 16.9390
3 13 7 13.3878 -32.6704
3 13 8 -3.1378 -16.9518
3 13 9 -8.4562 21.8994
3 13 10 11.5098 -6.0100
3 13 11 17.4056 27.1500
3 13 12 -42.9552 -17.6903
3 13 13 -20.7421 -14.8358
3 14 3 -9.3113 -9.1009
3 14 4 -22.8118 -15.9933
3 14 5 13.9063 20.7289
3 14 6 35.3215 13.8346
3 14 7 -0.0884 3.2919
3 14 8 1.7637 8.1883
3 14 9 -7.1290 29.2203
3 14 10 -8.6305 -25.8982
3 14 11 -13.0215 0.1027
3 14 12 -17.6397 0.7921
3 14 13 -9.1586 -8.6805
3 14 14 -14.6537 -5.6465
3 15 3 9.9956 4.0918
3 15 4 22.1012 17.6419
3 15 5 13.0032 -3.2341
3 15 6 -27.6926 -35.8192
3 15 7 -10.5664 -20.0268
3 15 8 -33.5691 -40.0280
3 15 9 3.2392 -35.8913
3 15 10 5.9488 -20.5062
3 15 11 -8.4657 21.4338
3 15 12 -22.1825 10.7752
3 15 13 -7.4688 7.7625
3 15 14 14.7563 -1.4779
3 15 15 -12.1984 -3.9193
3 16 3 4.8443 -12.1909
3 16 4 9.1776 16.4670
3 16 5 24.9599 -1.6639
3 16 6 0.4053 2.3511
3 16 7 8.8509 -0.2033
3 16 8 5.5055 -4.1537
3 16 9 -8.5022 -8.3234
3 16 10 1.5618 7.0637
3 16 11 0.8242 9.5855
3 16 12 -12.6408 15.1215
3 16 13 -28.5316 -39.9048
3 16 14 6.3676 -25.8191
3 16 15 24.1382 -8.2005
3 16 16 -4.8638 -10.8994
3 17 3 -17.3820 17.8294
3 17 4 17.4008 -3.5494
3 17 5 -38.3103 6.0061
3 17 6 2.2528 9.9593
3 17 7 -5.8036 4.1779
3 17 8 4.1793 -29.1588
3 17 9 6.6430 4.9271
3 17 10 -27.5367 -13.0979
3 17 11 10.5410 -8.5960
3 17 12 -9.9288 -2.9321
3 17 13 -4.3562 -15.4282
3 17 14 -1.4703 5.6965
3 17 15 -34.6158 -43.1165
3 17 16 0.4517 -8.6202
3 17 17 -8.2374 -0.3460
3 18 3 6.2319 2.4950
3 18 4 -1.4668 5.6979
3 18 5 14.2980 -9.2815
3 18 6 2.6161 15.5182
3 18 7 -8.4750 19.8881
3 18 8 -10.9486 -11.0890
3 18 9 -1.1519 -6.2129
3 18 10 2.5106 5.6860
3 18 11 1.6960 4.8643
3 18 12 18.8837 -23.1166
3 18 13 21.0196 -1.6415
3 18 14 14.4742 -10.7405
3 18 15 -27.1347 -4.5924
3 18 16 14.7317 -16.8538
3 18 17 5.3404 10.6816
3 18 18 -0.4258 -0.6337
3 19 3 5.1137 4.7523
3 19 4 -12.5007 -13.0088
3 19 5 17.0831 23.6399
3 19 6 13.0358 2.9359
3 19 7 1.7279 1.0065
3 19 8 -8.4227 7.5982
3 19 9 -8.9135 17.9168
3 19 10 -3.0392 3.2743
3 19 11 -1.7523 -7.9814
3 19 12 12.2682 0.9643
3 19 13 -4.7053 -10.4449
3 19 14 -16.1452 -15.8281
3 19 15 9.8495 10.2125
3 19 16 -31.5728 8.8363
3 19 17 16.4854 -15.7513
3 19 18 -7.3345 2.7051
3 19 19 -13.6132 -6.1017
3 20 3 12.4094 13.1037
3 20 4 4.0025 16.0495
3 20 5 -8.0878 11.3867
3 20 6 -11.1834 11.2857
3 20 7 -3.3962 -7.0258
3 20 8 -4.3301 -19.4032
3 20 9 7.9634 35.2185
3 20 10 13.9282 15.7414
3 20 11 -3.0397 4.9522
3 20 12 4.4509 -4.7388
3 20 13 9.2235 2.8280
3 20 14 16.9790 -4.9555
3 20 15 -15.5629 23.2647
3 20 16 -0.8837 29.1870
3 20 17 4.7486 17.6471
3 20 18 11.5234 -10.1065
3 20 19 3.5707 -9.1410
3 20 20 17.9752 -6.6983
3 21 3 5.5892 1.9531
3 21 4 -13.9014 37.5070
3 21 5 -9.2143 -12.3642
3 21 6 17.8380 -5.3106
3 21 7 2.9078 5.5545
3 21 8 -17.5703 29.1714
3 21 9 34.8713 26.7969
3 21 10 10.9252 9.5714
3 21 11 -9.2746 15.8851
3 21 12 26.2224 -16.3494
3 21 13 1.5527 -13.5041
3 21 14 -5.6597 1.1201
3 21 15 -12.7576 1.4863
3 21 16 -4.9292 26.5772
3 21 17 2.9449 -13.1738
3 21 18 0.5323 -16.7850
3 21 19 -3.1953 -34.4645
3 21 20 -5.5083 19.8136
3 21 21 21.7037 29.1432
3 22 3 -10.7909 0.4153
3 22 4 12.9170 11.7420
3 22 5 -10.8464 -1.7192
3 22 6 1.8540 30.7335
3 22 7 -1.9328 0.4053
3 22 8 9.5840 21.8957
3 22 9 6.1374 -9.4407
3 22 10 -1.2157 -11.0517
3 22 11 10.2053 7.2516
3 22 12 -12.6982 -11.3211
3 22 13 4.0839 6.6552
3 22 14 16.7181 -18.1735
3 22 15 25.6996 7.6450
3 22 16 -25.6739 -14.3450
3 22 17 0.1282 -3.2811
3 22 18 -23.0883 6.4709
3 22 19 11.9161 11.2683
3 22 20 -5.9414 47.3091
3 22 21 1.6849 10.1765
3 22 22 12.9606 -2.7554
3 23 3 -8.3850 -7.7629
3 23 4 -0.0149 3.7075
3 23 5 2.6081 -11.1131
3 23 6 -17.8101 20.4197
3 23 7 3.1857 -1.3990
3 23 8 10.8422 -16.3196
3 23 9 25.6618 -15.3021
3 23 10 -4.6935 -23.6919
3 23 11 19.0938 -1.2757
3 23 12 -4.2408 -2.8569
3 23 13 -13.9500 -13.0864
3 23 14 15.7378 -1.2628
3 23 15 -8.7749 -17.4907
3 23 16 -13.8543 20.2667
3 23 17 -13.0290 2.3305
3 23 18 -3.9776 -17.8045
3 23 19 -9.3092 5.7087
3 23 20 -10.1738 16.0046
3 23 21 -20.3110 -38.9479
3 23 22 -0.0773 -19.0627
3 23 23 8.0811 12.6822
3 24 3 6.9331 7.6671
3 24 4 35.9018 -23.3516
3 24 5 18.8805 0.1103
3 24 6 0.1566 2.9112
3 24 7 -29.3080 -22.6951
3 24 8 -11.8184 -7.2329
3 24 9 40.6423 -10.5719
3 24 10 -10.2932 -4.7816
3 24 11 10.0434 -2.3363
3 24 12 8.9781 0.4799
3 24 13 0.7104 6.5059
3 24 14 20.2140 -18.1856
3 24 15 -0.1402 24.2203
3 24 16 -10.3506 -6.3737
3 24 17 21.5614 -31.1526
3 24 18 -5.9357 -11.7404
3 24 19 -12.0954 3.9003
3 24 20 -1.4134 5.0657
3 24 21 0.3359 12.6690
3 24 22 71.2848 -5.2161
3 24 23 -4.0116 3.3865
3 24 24 21.5356 -17.2294
3 25 3 -21.3571 28.6537
3 25 4 -30.6511 3.3643
3 25 5 4.8987 12.2412
3 25 6 -25.9106 5.1781
3 25 7 3.2152 0.3163
3 25 8 -18.4936 -10.9341
3 25 9 10.4011 -15.0972
3 25 10 10.4895 -16.3957
3 25 11 0.0226 24.9568
3 25 12 -17.6396 14.4086
3 25 13 -2.4714 6.5500
3 25 14 -13.3189 16.7060
3 25 15 7.8287 6.4286
3 25 16 20.7611 13.8828
3 25 17 -29.5670 -37.0617
3 25 18 13.3051 -8.3813
3 25 19 -4.9049 2.5252
3 25 20 15.1659 -1.7022
3 25 21 26.0233 13.3866
3 25 22 18.0284 -19.3005
3 25 23 -14.8023 -5.0777
3 25 24 3.8640 -8.1011
3 25 25 -23.6029 -21.1926
3 26 3 17.0139 -1.2753
3 26 4 -7.7215 0.3209
3 26 5 -35.5296 -0.2867
3 26 6 -9.0691 -22.3776
3 26 7 11.3980 -0.2415
3 26 8 -11.8017 -15.7362
3 26 9 -21.6617 -11.9103
3 26 10 29.6835 -2.9292
3 26 11 9.3039 10.7250
3 26 12 15.8797 -33.2631
3 26 13 8.3300 2.2403
3 26 14 22.3589 6.2865
3 26 15 -1.6124 -10.7898
3 26 16 37.9177 25.9330
3 26 17 -31.6094 13.1750
3 26 18 -63.0062 0.5627
3 26 19 5.3519 -30.0722
3 26 20 -9.0891 7.2083
3 26 21 -1.6950 -8.4572
3 26 22 -11.6988 8.6577
3 26 23 10.3628 -18.0955
3 26 24 -8.0870 -12.0561
3 26 25 -9.1238 -8.5171
3 26 26 -44.7489 42.8184
3 27 3 0.0233 -5.7591
3 27 4 -6.7404 -16.8661
3 27 5 10.1738 14.6750
3 27 6 11.4680 0.3231
3 27 7 7.2216 -2.6328
3 27 8 -29.3732 24.2866
3 27 9 12.9068 -19.9325
3 27 10 13.2411 11.0817
3 27 11 6.0875 -9.2431
3 27 12 -0.1304 -2.4377
3 27 13 -3.9810 -6.4734
3 27 14 14.1256 10.1768
3 27 15 15.7369 -10.5525
3 27 16 1.2560 -27.6439
3 27 17 21.2417 -18.3108
3 27 18 -9.9220 24.2792
3 27 19 7.9082 6.8334
3 27 20 -5.4381 12.7056
3 27 21 -8.9294 -3.4228
3 27 22 3.5894 -22.5797
3 27 23 -17.9888 23.5351
3 27 24 8.2591 12.9846
3 27 25 44.4436 49.6704
3 27 26 -1.9581 -6.6881
3 27 27 5.8452 9.8739
3 28 3 -1.0194 -20.2001
3 28 4 -15.3062 -8.9963
3 28 5 7.3992 12.6557
3 28 6 -16.3923 -12.4686
3 28 7 -6.8671 -1.6735
3 28 8 -8.5019 24.4311
3 28 9 -27.6969 13.7502
3 28 10 6.8826 13.8178
3 28 11 3.7240 3.6546
3 28 12 13.5470 -12.1155
3 28 13 -2.1769 -1.4532
3 28 14 0.0817 -9.4722
3 28 15 25.2546 -0.8109
3 28 16 4.7253 19.7992
3 28 17 5.4412 -3.0486
3 28 18 -4.6898 16.6655
3 28 19 -3.0965 10.2993
3 28 20 17.6757 -6.0986
3 28 21 -16.7074 5.3548
3 28 22 10.3347 -17.2449
3 28 23 9.0550 20.2809
3 28 24 24.4626 1.2574
3 28 25 6.5510 -1.0458
3 28 26 4.0083 -8.6524
3 28 27 -9.5228 6.6731
3 29 3 3.3018 0.7031
3 29 4 -4.4717 0.1031
3 29 5 -0.0507 -2.1909
3 29 6 17.6918 6.4999
3 29 7 -22.3480 -9.2929
3 29 8 10.0796 0.5297
3 29 9 6.4016 3.7956
3 29 10 -27.8345 7.0195
3 29 11 8.8120 5.6504
3 29 12 -21.0798 -37.1287
3 29 13 11.7028 1.2263
3 29 14 15.5041 -10.0758
3 29 15 12.5448 16.9819
3 29 16 10.4032 24.1427
3 29 17 14.1489 3.5157
3 29 18 1.2317 14.6824
3 29 19 -13.5495 8.5530
3 29 20 -6.3894 4.5863
3 29 21 -30.2635 11.6104
3 29 22 14.9370 -6.7560
3 29 23 -14.5592 15.9818
3 29 24 -0.9791 9.2886
3 29 25 54.0561 -39.8894
3 29 26 8.3589 3.7063
3 30 3 -15.3862 1.4641
3 30 4 14.0661 21.6762
3 30 5 1.0904 -15.8555
3 30 6 11.4953 -0.6310
3 30 7 3.6912 -6.7120
3 30 8 -29.0537 -29.8045
3 30 9 13.7200 29.8911
3 30 10 4.0054 -34.5132
3 30 11 -17.5930 -15.9362
3 30 12 11.9863 18.0193
3 30 13 -17.7430 29.9570
3 30 14 -9.3102 -17.3064
3 30 15 -11.5940 -19.9755
3 30 16 0.8052 -0.5946
3 30 17 -2.8106 -12.0035
3 30 18 -11.3878 -1.2624
3 30 19 -3.8347 7.2089
3 30 20 13.9045 0.2483
3 30 21 -6.1979 10.3654
3 30 22 -5.0042 -4.7627
3 30 23 -15.0888 3.8929
3 30 24 -51.5574 -21.9455
3 31 3 2.4997 -4.2190
3 31 4 -14.1549 -4.9231
3 31 5 3.1961 9.6651
3 31 6 -10.2063 13.6399
3 31 7 17.5067 -12.8374
3 31 8 10.2169 -16.8890
3 31 9 35.4293 11.0883
3 31 10 17.1965 16.1357
3 31 11 -7.5003 -3.4316
3 31 12 20.6615 -4.6133
3 31 13 -10.9290 -20.2558
3 31 14 19.4365 16.4314
3 31 15 -14.7296 9.6744
3 31 16 -0.0059 15.8616
3 31 17 19.9358 -5.7608
3 31 18 -12.0097 -6.6091
3 31 19 -3.7393 -3.4773
3 31 20 1.6841 -6.6526
3 31 21 -16.5478 -0.3104
3 31 22 -7.5059 -8.3144
3 31 23 -9.5755 25.2780
3 32 3 -5.0942 -8.8231
3 32 4 3.3865 8.5117
3 32 5 -7.1820 11.3845
3 32 6 -7.8400 7.2558
3 32 7 2.4294 -3.3872
3 32 8 17.8358 -18.2813
3 32 9 -11.3889 -24.8104
3 32 10 -5.1764 -10.3068
3 32 11 -29.0344 -6.5891
3 32 12 5.4460 16.5367
3 32 13 -4.1622 13.4308
3 32 14 0.7197 4.9787
3 32 15 10.4432 -9.4779
3 32 16 6.6307 4.9450
3 32 17 -1.2579 -5.8496
3 32 18 -1.8426 -8.1440
3 32 19 -8.7968 -1.3503
3 32 20 -15.0458 0.7223
3 32 21 -5.7858 4.5466
3 32 22 -2.9257 11.3039
3 33 3 -3.2263 2.9369
3 33 4 4.4091 -17.3260
3 33 5 -1.8454 2.7763
3 33 6 15.9000 24.5471
3 33 7 -6.9174 -6.0901
3 33 8 19.8177 9.9409
3 33 9 -3.5560 2.1610
3 33 10 -9.9635 -14.1197
3 33 11 -2.4833 2.5962
3 33 12 -2.0862 -0.6196
3 33 13 -24.4452 -1.1778
3 33 14 11.2503 7.9010
3 33 15 10.1488 -15.4022
3 33 16 1.5438 -13.8066
3 33 17 9.6978 8.8207
3 33 18 3.0806 -14.5899
3 33 19 -12.9934 0.3995
3 33 20 1.1863 -4.6989
3 34 3 -4.1169 -0.1368
3 34 4 -19.8733 -13.5270
3 34 5 -21.7005 -0.1251
3 34 6 -0.9829 -15.8128
3 34 7 -11.6309 -3.0470
3 34 8 -0.6107 20.9294
3 34 9 -9.7049 -4.7364
3 34 10 -13.4952 10.6690
3 34 11 -16.5385 19.4648
3 34 12 -0.0843 2.5926
3 34 13 9.4954 -3.5537
3 34 14 24.7296 5.4961
3 34 15 8.7285 2.6639
3 34 16 3.3379 -3.3738
3 34 17 0.1807 1.9954
3 34 18 2.9631 7.7308
3 34 19 13.2948 3.3590
3 35 3 -5.4080 -8.1160
3 35 4 8.5656 8.9705
3 35 5 -2.3981 18.2214
3 35 6 4.9760 -7.1153
3 35 7 -5.0218 -13.4905
3 35 8 -16.1639 -12.7285
3 35 9 7.9414 4.5702
3 35 10 14.9065 4.1021
3 35 11 0.2675 -17.8102
3 35 12 -2.4157 -12.6729
3 35 13 12.4259 -8.4584
3 35 14 7.9678 -8.6447
3 35 15 4.4703 -3.9914
3 35 16 -16.9609 -8.2535
3 35 17 -2.8838 11.3440
3 36 3 -3.4477 -8.2480
3 36 4 23.5587 -3.9636
3 36 5 -14.0388 -17.7435
3 36 6 9.9702 -10.5155
3 36 7 -12.2182 -20.7184
3 36 8 1.1232 0.5711
3 36 9 6.4723 -0.2421
3 36 10 17.8452 1.6002
3 36 11 2.6104 -9.2838
3 36 12 11.7103 -5.7158
3 36 13 11.4886 -2.9460
3 36 14 -5.9810 0.6740
3 36 15 -14.5711 8.3955
3 37 3 -4.4039 -3.0174
3 37 4 -3.1010 3.2142
3 37 5 14.6372 0.4805
3 37 6 12.0452 -0.8604
3 37 7 6.9902 6.1769
3 37 8 7.1329 4.7240
3 37 9 0.0897 8.4717
3 37 10 2.6494 -2.6137
3 37 11 6.9784 12.1380
3 37 12 -3.4500 7.4103
3 38 3 -5.1986 -1.8614
3 38 4 14.7669 2.0637
3 38 5 2.4174 14.3611
3 38 6 -17.8040 -2.3450
3 38 7 11.6561 10.0318
3 38 8 0.2043 4.8138
4 4 4 -365.3549 -4.6810
4 5 4 -20.4587 -10.4337
4 5 5 -3.8958 23.5353
4 6 4 0.3452 -43.5864
4 6 5 47.8969 -72.8973
4 6 6 37.2959 0.9946
4 7 4 -9.8010 4.1172
4 7 5 -19.0955 -19.1161
4 7 6 -38.1545 43.9537
4 7 7 -4.4001 -76.7543
4 8 4 -49.2072 7.8305
4 8 5 5.8813 -46.6305
4 8 6 -58.4677 4.6091
4 8 7 -24.3113 -38.2825
4 8 8 67.5521 0.3104
4 9 4 -32.0526 -33.0729
4 9 5 37.0419 4.7424
4 9 6 -22.5034 81.9178
4 9 7 0.2712 31.4816
4 9 8 16.0403 67.2766
4 9 9 -1.0127 -34.4071
4 10 4 -7.1615 -47.5310
4 10 5 0.6933 -17.2370
4 10 6 22.8813 14.4277
4 10 7 -7.1336 32.5722
4 10 8 63.9592 35.0435
4 10 9 21.7365 -23.6397
4 10 10 0.1118 -4.1500
4 11 4 -37.0490 8.9523
4 11 5 -17.2984 9.5881
4 11 6 30.6797 -10.8002
4 11 7 -2.1618 -8.4718
4 11 8 -3.7885 16.6362
4 11 9 5.8761 -17.3416
4 11 10 -7.3440 7.6851
4 11 11 -2.8522 -51.6192
4 12 4 -4.8374 0.7027
4 12 5 3.8972 50.4255
4 12 6 10.8896 -0.7480
4 12 7 2.1373 11.6654
4 12 8 36.1182 -21.4529
4 12 9 -26.2261 -31.1351
4 12 10 -17.7407 13.5404
4 12 11 14.3788 14.6513
4 12 12 -1.2733 1.2105
4 13 4 21.7187 16.3128
4 13 5 -16.9436 -14.9564
4 13 6 7.0893 -23.2971
4 13 7 0.7624 -28.3536
4 13 8 14.6539 -1.3266
4 13 9 18.6361 -21.3118
4 13 10 34.6888 26.6754
4 13 11 10.0473 57.2055
4 13 12 -5.4379 21.9377
4 13 13 -5.3425 22.0101
4 14 4 2.2186 41.5929
4 14 5 19.2868 48.9416
4 14 6 13.5053 13.1118
4 14 7 31.8467 2.0562
4 14 8 19.3533 -12.4810
4 14 9 -0.9728 23.0217
4 14 10 -13.1511 -19.7859
4 14 11 -10.3350 16.2392
4 14 12 15.3380 -1.0067
4 14 13 -18.7339 9.8162
4 14 14 3.8842 4.3920
4 15 4 6.9802 -14.6375
4 15 5 27.6193 16.7773
4 15 6 -13.9564 5.6702
4 15 7 -26.4662 3.7944
4 15 8 10.1109 14.3409
4 15 9 31.9942 -12.6000
4 15 10 -10.3121 0.9130
4 15 11 -22.7448 -7.4572
4 15 12 -20.1676 -32.0314
4 15 13 -17.1552 51.2697
4 15 14 -2.3247 -24.5745
4 15 15 -8.2274 8.6128
4 16 4 20.5593 -2.4141
4 16 5 -6.7680 -0.6695
4 16 6 -11.3939 -0.8649
4 16 7 -0.2609 -13.7801
4 16 8 12.6625 -7.7954
4 16 9 -3.9319 -22.2680
4 16 10 6.9825 -29.9481
4 16 11 -7.6319 8.3279
4 16 12 -8.4440 11.6717
4 16 13 11.5012 2.4473
4 16 14 -26.8136 1.7070
4 16 15 6.2004 -21.7580
4 16 16 -13.8636 2.5608
4 17 4 -16.2184 -23.4157
4 17 5 -9.1806 -6.6526
4 17 6 -28.6515 -7.1116
4 17 7 -23.3745 28.0483
4 17 8 12.0073 25.0108
4 17 9 21.1466 8.3498
4 17 10 -20.3049 7.3064
4 17 11 6.3303 -11.0355
4 17 12 -13.6317 -7.1993
4 17 13 -11.5270 -6.3717
4 17 14 0.5179 -21.2612
4 17 15 -13.3739 12.9843
4 17 16 -1.3905 13.7840
4 17 17 -3.0317 4.3900
4 18 4 5.9608 9.9058
4 18 5 20.8505 -22.5930
4 18 6 -3.4112 -14.1248
4 18 7 -6.6642 25.9185
4 18 8 -14.1689 9.9258
4 18 9 -12.1542 6.3834
4 18 10 16.0166 -7.2904
4 18 11 10.8181 9.5815
4 18 12 17.2107 4.2610
4 18 13 9.2840 7.1559
4 18 14 5.6428 23.0447
4 18 15 25.8325 10.1648
4 18 16 -5.4616 22.4321
4 18 17 16.3751 20.8475
4 18 18 -11.6265 3.4542
4 19 4 13.5377 0.6168
4 19 5 9.5598 -0.6281
4 19 6 10.8811 -10.2436
4 19 7 -5.6634 -3.9934
4 19 8 -17.7131 0.7954
4 19 9 28.4647 2.5104
4 19 10 5.7967 10.8079
4 19 11 13.6650 12.0750
4 19 12 27.7012 26.2386
4 19 13 0.6554 -11.6042
4 19 14 18.6926 8.6771
4 19 15 -12.7407 10.0521
4 19 16 -19.4176 4.8585
4 19 17 10.3641 -9.2359
4 19 18 3.6896 2.7216
4 19 19 2.8444 -1.5061
4 20 4 -28.8378 4.7561
4 20 5 -5.2821 -16.0845
4 20 6 9.4705 -7.9441
4 20 7 -19.8514 -7.0422
4 20 8 3.3314 -8.2876
4 20 9 -5.9527 4.5343
4 20 10 -5.4668 -1.2966
4 20 11 28.5605 17.5058
4 20 12 -5.2154 -7.9685
4 20 13 -5.4756 3.2805
4 20 14 15.9080 11.6222
4 20 15 -6.2162 -6.0016
4 20 16 10.2586 -9.7603
4 20 17 -7.8094 8.3209
4 20 18 -15.2755 16.4827
4 20 19 -26.9065 -3.4811
4 20 20 -4.5045 3.4734
4 21 4 4.0733 -6.8538
4 21 5 -25.8077 13.2077
4 21 6 -18.7443 1.2277
4 21 7 1.3175 -3.0247
4 21 8 -22.1231 -26.6872
4 21 9 13.9181 11.8377
4 21 10 14.6112 -12.5612
4 21 11 -11.2259 -0.1916
4 21 12 12.2420 3.6322
4 21 13 -23.1784 -9.5954
4 21 14 8.9922 2.1029
4 21 15 -21.3503 32.1731
4 21 16 -17.7044 -21.8493
4 21 17 -28.1579 -4.3259
4 21 18 18.2184 -8.5871
4 21 19 -10.2639 -54.3588
4 21 20 3.3883 -25.3569
4 21 21 4.5111 -25.5452
4 22 4 4.0922 -21.4743
4 22 5 -13.6201 7.2701
4 22 6 -6.4267 6.8546
4 22 7 -2.2741 15.4180
4 22 8 9.9651 16.2978
4 22 9 4.4496 0.4595
4 22 10 -0.4928 7.1913
4 22 11 -13.3907 12.9105
4 22 12 -32.7511 -8.0788
4 22 13 -7.4466 -10.4022
4 22 14 -11.2553 -25.8864
4 22 15 -16.3080 2.9721
4 22 16 6.7277 10.6353
4 22 17 19.8181 1.5534
4 22 18 12.7639 7.0713
4 22 19 -9.9325 14.3533
4 22 20 -5.7177 25.4247
4 22 21 -9.8158 13.0860
4 22 22 -4.8465 3.2377
4 23 4 4.0209 6.5372
4 23 5 15.8590 -2.9601
4 23 6 0.6309 -1.4530
4 23 7 -26.3202 22.7583
4 23 8 0.5115 1.6115
4 23 9 -21.3735 3.9081
4 23 10 -2.5553 -19.0308
4 23 11 33.4616 6.0078
4 23 12 -8.2192 7.9834
4 23 13 10.4713 -2.6804
4 23 14 -3.7455 -2.5698
4 23 15 -37.7007 -4.9333
4 23 16 16.0251 8.1250
4 23 17 6.9348 55.1538
4 23 18 -4.2205 -4.2026
4 23 19 16.7081 -5.6566
4 23 20 -16.8521 -18.5495
4 23 21 -4.0780 -6.7639
4 23 22 12.5445 -2.4489
4 23 23 2.5557 -18.5849
4 24 4 -29.2313 3.1553
4 24 5 15.9396 -2.3597
4 24 6 1.4810 7.1309
4 24 7 3.7981 0.1531
4 24 8 -20.3833 1.3012
4 24 9 14.4881 -11.3018
4 24 10 -6.7829 8.6954
4 24 11 17.0071 7.6464
4 24 12 -7.1963 -13.9130
4 24 13 2.1359 13.5857
4 24 14 -4.6356 -4.2761
4 24 15 10.4327 -0.5918
4 24 16 -3.2689 -1.8996
4 24 17 -16.2466 -9.4509
4 24 18 8.8459 -7.2233
4 24 19 -14.1799 -12.9868
4 24 20 -33.4282 25.5941
4 24 21 -18.1304 2.6410
4 24 22 12.0938 -20.2104
4 24 23 10.0493 1.8650
4 24 24 -7.0036 0.7841
4 25 4 13.7346 9.1554
4 25 5 -15.0520 -5.9455
4 25 6 13.4717 27.8872
4 25 7 -1.9675 -25.0948
4 25 8 -12.4496 -24.5095
4 25 9 10.0696 -17.4209
4 25 10 -4.7330 -13.0864
4 25 11 30.1824 1.3043
4 25 12 14.4627 9.4686
4 25 13 0.7502 24.7278
4 25 14 -1.4330 14.6180
4 25 15 3.3419 12.9505
4 25 16 -24.6492 20.2269
4 25 17 10.9849 -11.2108
4 25 18 7.9299 11.4768
4 25 19 -3.0527 35.5269
4 25 20 14.4366 -17.6430
4 25 21 -7.1532 -6.9177
4 25 22 6.9052 -20.3562
4 25 23 -11.3940 3.3393
4 25 24 -7.5669 -16.1639
4 25 25 1.7172 -6.2396
4 26 4 6.3732 20.2677
4 26 5 2.3899 -24.6566
4 26 6 10.3725 -3.1412
4 26 7 13.8969 18.7794
4 26 8 1.9652 -19.6411
4 26 9 0.1044 -8.8836
4 26 10 -13.0617 27.9526
4 26 11 -6.7459 11.4021
4 26 12 -16.4134 -9.6034
4 26 13 21.1709 7.9041
4 26 14 19.3848 -11.9335
4 26 15 10.4025 -23.5601
4 26 16 2.1067 0.1565
4 26 17 -15.4769 9.9316
4 26 18 1.4616 -19.6453
4 26 19 -9.1178 -0.5383
4 26 20 -2.9022 19.0370
4 26 21 -14.2844 -1.9417
4 26 22 -7.3270 -20.5020
4 26 23 -19.1984 6.4424
4 26 24 35.9275 3.5985
4 26 25 -1.2518 -5.2931
4 26 26 6.8409 -0.7988
4 27 4 9.2544 -7.3659
4 27 5 -11.8025 -4.1501
4 27 6 22.7701 -12.7933
4 27 7 9.9247 18.8122
4 27 8 -7.9252 7.7862
4 27 9 5.5720 -14.8098
4 27 10 -22.4179 -12.6857
4 27 11 10.0928 29.4895
4 27 12 -15.6724 -15.9603
4 27 13 -8.1766 19.2410
4 27 14 -11.7249 22.3844
4 27 15 -24.0976 3.5442
4 27 16 13.7094 0.8373
4 27 17 -29.3156 -28.3816
4 27 18 0.9312 5.0521
4 27 19 -4.6715 -29.0981
4 27 20 -2.1333 -6.0719
4 27 21 2.1935 14.3736
4 27 22 -2.0212 17.7835
4 27 23 -17.9182 -24.1940
4 27 24 -1.7124 -11.6721
4 27 25 17.2468 14.6259
4 27 26 -3.5203 0.9143
4 27 27 1.7354 -3.8379
4 28 4 17.0255 -2.5744
4 28 5 9.8765 13.6445
4 28 6 -3.6830 6.0702
4 28 7 -0.5032 0.0566
4 28 8 1.6979 -9.3480
4 28 9 -5.4426 9.1722
4 28 10 0.1479 0.1046
4 28 11 -27.6314 -0.9998
4 28 12 -27.9996 -10.4418
4 28 13 9.2116 -13.0946
4 28 14 -5.5765 -5.4377
4 28 15 -0.8303 10.4414
4 28 16 18.5662 23.2470
4 28 17 2.0134 -13.4045
4 28 18 1.6384 15.0919
4 28 19 -11.0605 0.7993
4 28 20 10.7168 -2.7203
4 28 21 17.0284 -11.7290
4 28 22 -11.4582 -23.6946
4 28 23 -10.5123 -12.0335
4 28 24 25.7522 -12.4480
4 28 25 2.4433 2.0775
4 28 26 8.3591 12.4274
4 28 27 -1.2477 11.8915
4 29 4 -6.6855 -1.3383
4 29 5 5.4820 -23.8000
4 29 6 1.4683 1.2393
4 29 7 -13.7273 -2.9683
4 29 8 21.7794 16.8314
4 29 9 -41.2558 21.1686
4 29 10 17.6837 -18.7738
4 29 11 1.8453 -8.3266
4 29 12 6.3567 15.1344
4 29 13 9.5384 10.5754
4 29 14 -10.4398 -14.5836
4 29 15 14.9864 19.0530
4 29 16 -6.9703 -11.7697
4 29 17 7.4931 9.1212
4 29 18 16.3103 -1.1047
4 29 19 9.5909 -10.5061
4 29 20 1.4442 13.4912
4 29 21 5.3701 -17.0479
4 29 22 -3.9586 12.5497
4 29 23 5.8668 0.8146
4 29 24 4.2285 -10.7299
4 29 25 -20.0163 4.0577
4 30 4 11.1099 5.8358
4 30 5 11.8441 -21.0995
4 30 6 0.2332 14.0109
4 30 7 8.2599 -5.9373
4 30 8 -31.1764 -16.5447
4 30 9 -5.5569 7.1125
4 30 10 -6.4617 6.9271
4 30 11 -6.4074 -30.4122
4 30 12 21.4745 3.9816
4 30 13 24.5720 -6.4341
4 30 14 -3.8703 11.8858
4 30 15 -5.9651 19.2644
4 30 16 -9.3291 10.6848
4 30 17 -24.3568 -0.0559
4 30 18 -19.6497 -14.2607
4 30 19 4.2112 -9.7255
4 30 20 -10.2301 -17.1980
4 30 21 -1.7247 5.7340
4 30 22 -8.6253 8.8430
4 30 23 -4.2277 6.3343
4 30 24 11.9194 8.8151
4 31 4 -0.3197 -1.0696
4 31 5 12.2687 -4.5265
4 31 6 -12.2380 -9.3468
4 31 7 5.9016 19.0078
4 31 8 7.3724 14.8855
4 31 9 -2.5196 -1.0358
4 31 10 31.9446 13.8408
4 31 11 0.3643 -0.3110
4 31 12 12.1721 11.2986
4 31 13 -1.9332 19.9818
4 31 14 -13.9068 -15.5733
4 31 15 0.1004 -0.8687
4 31 16 -1.0036 12.8078
4 31 17 1.9020 -3.6345
4 31 18 9.1894 -1.7925
4 31 19 -3.4924 2.2382
4 31 20 -12.0362 2.7539
4 31 21 -22.1043 -19.9603
4 31 22 -5.9653 -7.3664
4 31 23 -5.2201 8.9329
4 32 4 7.2946 -2.7176
4 32 5 -5.0188 0.0464
4 32 6 -39.7317 -0.1556
4 32 7 -13.6593 -2.9505
4 32 8 17.9255 -6.9377
4 32 9 -4.4116 -17.0242
4 32 10 21.5849 18.6323
4 32 11 1.5436 -7.8146
4 32 12 -12.0164 -13.2091
4 32 13 -1.2147 22.4042
4 32 14 6.7385 11.5397
4 32 15 -19.7526 -2.2618
4 32 16 -4.5962 1.0643
4 32 17 4.2954 -13.5122
4 32 18 -3.0798 1.7632
4 32 19 3.7218 -8.4489
4 32 20 15.4365 -6.6410
4 32 21 14.4293 4.7564
4 32 22 6.5110 7.4641
4 33 4 -9.4594 -3.1699
4 33 5 -11.0903 23.7224
4 33 6 4.8308 27.4092
4 33 7 -12.6292 10.6695
4 33 8 10.1906 2.2442
4 33 9 11.7745 -0.4988
4 33 10 28.4880 -2.5743
4 33 11 -14.6517 -4.8916
4 33 12 -13.8536 -9.4171
4 33 13 1.9439 4.0125
4 33 14 22.9676 -17.6300
4 33 15 -2.0152 14.6263
4 33 16 16.6445 8.0471
4 33 17 -2.4472 -15.3133
4 33 18 -3.3166 -2.6702
4 33 19 5.3074 15.6388
4 33 20 -2.9405 -13.2019
4 34 4 3.0511 -27.7655
4 34 5 -11.0997 -19.8116
4 34 6 8.1495 -6.5535
4 34 7 -29.0617 2.5756
4 34 8 20.5975 13.1989
4 34 9 -18.6508 20.5076
4 34 10 12.4934 -20.7463
4 34 11 7.2280 -5.1055
4 34 12 2.4384 11.0236
4 34 13 -19.3138 15.7892
4 34 14 -3.3338 11.0183
4 34 15 10.9259 -16.9463
4 34 16 3.2600 6.2914
4 34 17 3.4618 -6.8339
4 34 18 4.3760 10.4006
4 35 4 -1.6701 -2.0855
4 35 5 -22.4326 8.2692
4 35 6 2.6747 0.0027
4 35 7 7.4377 7.5425
4 35 8 -11.3991 6.7834
4 35 9 6.3841 -10.0216
4 35 10 14.9123 11.7179
4 35 11 -19.3461 -6.4523
4 35 12 16.8135 2.4364
4 35 13 3.9845 6.7155
4 35 14 15.3883 3.8640
4 35 15 2.3700 6.8628
4 35 16 -10.4455 13.1577
4 35 17 5.0173 2.0670
4 36 4 -2.1770 -2.5070
4 36 5 -21.9877 14.9647
4 36 6 4.9706 11.7214
4 36 7 2.2084 -6.5757
4 36 8 -0.9467 1.7325
4 36 9 16.2446 10.3926
4 36 10 -18.7432 11.1295
4 36 11 15.0352 -2.8058
4 36 12 15.1956 5.4030
4 36 13 -2.2620 -0.0027
4 36 14 -3.6201 24.4163
4 37 4 -13.5302 -14.0179
4 37 5 -6.7775 12.8168
4 37 6 -6.3040 -0.1806
4 37 7 10.7144 -1.2222
4 37 8 9.5278 -2.6017
4 37 9 -3.4098 -11.6196
4 37 10 -7.4414 9.1039
4 37 11 0.1328 9.9289
4 37 12 7.1418 -2.8528
4 38 4 -6.8434 11.2971
4 38 5 -10.7284 3.6530
4 38 6 -2.1117 9.0574
4 38 7 -0.1853 6.8242
4 38 8 -2.9241 -2.0586
5 5 5 -108.9470 109.3288
5 6 5 -56.7926 2.6209
5 6 6 -11.5016 7.9132
5 7 5 -37.3222 -33.9495
5 7 6 -23.7535 18.9164
5 7 7 -23.6201 15.0370
5 8 5 -11.2422 -62.6884
5 8 6 -53.8161 14.9635
5 8 7 4.6086 -14.8203
5 8 8 5.6537 23.1460
5 9 5 10.5960 -12.6899
5 9 6 -35.3267 -62.7331
5 9 7 -11.8748 14.1312
5 9 8 3.5678 -7.8758
5 9 9 -9.3733 -2.1564
5 10 5 12.2072 -13.2118
5 10 6 -8.2675 17.1439
5 10 7 -3.4516 0.4962
5 10 8 -17.1391 -32.4513
5 10 9 35.4777 -17.9093
5 10 10 8.0440 11.5234
5 11 5 12.7555 19.1016
5 11 6 4.8430 38.9988
5 11 7 23.2368 51.8819
5 11 8 1.7506 26.1194
5 11 9 -1.3404 5.2949
5 11 10 2.0900 -12.2086
5 11 11 7.3933 -17.4844
5 12 5 -12.4762 10.0602
5 12 6 12.4630 -5.7332
5 12 7 -1.7326 -36.9674
5 12 8 -9.4953 -7.5967
5 12 9 -15.6296 -10.3265
5 12 10 13.6260 38.8804
5 12 11 5.3176 -8.4797
5 12 12 18.5297 14.2676
5 13 5 -5.4419 1.0384
5 13 6 10.0847 40.1007
5 13 7 -29.9214 43.1900
5 13 8 2.2635 7.3448
5 13 9 23.2558 10.2827
5 13 10 -10.7164 -7.0596
5 13 11 -6.9559 -14.5044
5 13 12 -4.0473 10.0762
5 13 13 -2.1156 5.2397
5 14 5 19.0754 -9.0172
5 14 6 4.7241 -40.2603
5 14 7 10.7104 -48.9167
5 14 8 -15.9783 1.0594
5 14 9 11.1614 -15.6745
5 14 10 -6.5470 -0.6075
5 14 11 11.2389 -22.4712
5 14 12 -3.7576 42.2636
5 14 13 8.1006 47.0197
5 14 14 3.7167 -1.2135
5 15 5 8.9290 -2.3949
5 15 6 -3.8970 -3.7293
5 15 7 4.5370 17.9888
5 15 8 7.9765 7.9997
5 15 9 2.4027 2.8034
5 15 10 22.7156 3.5565
5 15 11 2.4555 -0.1217
5 15 12 20.3102 4.1095
5 15 13 3.2126 0.7377
5 15 14 17.3220 -22.0489
5 15 15 -3.1087 9.7464
5 16 5 1.8733 -14.8106
5 16 6 -32.6727 -0.2928
5 16 7 21.6020 4.4324
5 16 8 -3.6050 -6.7211
5 16 9 -0.1756 -1.7692
5 16 10 12.3234 -0.2556
5 16 11 -5.2818 32.2522
5 16 12 13.7090 34.4929
5 16 13 -2.4682 10.6279
5 16 14 23.9238 37.3550
5 16 15 -3.0393 7.6541
5 16 16 16.4058 13.1622
5 17 5 22.2792 -15.9045
5 17 6 13.6681 -14.6575
5 17 7 0.7724 -6.5087
5 17 8 12.0150 -0.1137
5 17 9 -37.5771 12.3130
5 17 10 5.8558 2.9081
5 17 11 -23.2548 -2.5726
5 17 12 -22.0584 -6.1368
5 17 13 36.9169 15.9820
5 17 14 -14.2973 0.4726
5 17 15 6.5924 -16.1975
5 17 16 -5.7103 -18.6716
5 17 17 15.0647 -9.7442
5 18 5 -7.0538 5.2608
5 18 6 -4.4930 -29.6728
5 18 7 -34.1214 -2.5695
5 18 8 -6.5793 -0.1796
5 18 9 -1.9781 -0.0002
5 18 10 -12.6187 -26.2792
5 18 11 14.3692 -7.0996
5 18 12 -8.0231 -14.2638
5 18 13 -3.1348 21.6775
5 18 14 1.8795 -20.7509
5 18 15 -19.7748 4.0043
5 18 16 -3.8982 1.9973
5 18 17 11.0608 -8.5150
5 18 18 6.5801 6.8649
5 19 5 5.2828 0.5434
5 19 6 30.1118 -6.8187
5 19 7 -38.1715 -3.7630
5 19 8 -6.0675 -22.5349
5 19 9 -24.2880 -9.0081
5 19 10 5.0593 -8.5988
5 19 11 -5.9473 9.9061
5 19 12 -13.6299 7.1493
5 19 13 14.8590 20.7724
5 19 14 3.1473 7.6753
5 19 15 0.7780 -15.6573
5 19 16 -5.0978 -4.0041
5 19 17 -9.9291 -19.9586
5 19 18 -3.3048 1.2926
5 19 19 2.6747 3.3989
5 20 5 8.8448 9.0610
5 20 6 20.2130 0.1533
5 20 7 8.6831 -8.3505
5 20 8 16.9100 17.8782
5 20 9 15.8324 -15.8362
5 20 10 2.7087 -3.3912
5 20 11 16.3642 -8.3560
5 20 12 -14.6426 -4.0482
5 20 13 -17.0660 7.8815
5 20 14 -9.0950 33.4933
5 20 15 -7.5176 7.6646
5 20 16 16.4901 2.9664
5 20 17 -31.8713 10.9226
5 20 18 -9.1612 -15.1960
5 20 19 -13.7930 12.7223
5 20 20 -13.3103 -9.3768
5 21 5 -2.5676 11.4708
5 21 6 0.8608 -1.6792
5 21 7 38.8147 4.5025
5 21 8 6.2188 -1.5017
5 21 9 8.0580 5.3246
5 21 10 3.5494 -16.4772
5 21 11 -2.8668 -7.4284
5 21 12 11.9412 13.6607
5 21 13 1.1541 -6.2355
5 21 14 -11.3608 -3.7777
5 21 15 -27.2986 1.7904
5 21 16 -19.7668 4.3634
5 21 17 14.7157 -32.8945
5 21 18 -2.6681 -0.8029
5 21 19 -14.8254 7.8894
5 21 20 20.6967 7.1159
5 21 21 -1.6017 5.8230
5 22 5 -13.9449 1.4361
5 22 6 -1.9511 0.1795
5 22 7 -6.4174 0.5024
5 22 8 -11.8164 16.4496
5 22 9 -10.9682 -15.1694
5 22 10 -14.7015 -11.4614
5 22 11 5.2836 3.4011
5 22 12 6.4966 -21.3664
5 22 13 -19.8418 -21.5377
5 22 14 18.2066 1.5959
5 22 15 -15.8856 -12.4317
5 22 16 -1.0027 3.3430
5 22 17 14.1480 -21.5859
5 22 18 7.6059 7.3090
5 22 19 12.0397 17.2488
5 22 20 -11.1895 7.4501
5 22 21 -30.4127 -0.9573
5 22 22 -21.0752 -16.6745
5 23 5 -10.4324 -7.1180
5 23 6 -3.6440 -4.2077
5 23 7 1.0907 5.6495
5 23 8 27.0207 -1.7544
5 23 9 25.2662 4.3124
5 23 10 2.1673 -6.2205
5 23 11 19.4714 -6.9588
5 23 12 -6.6513 -10.2646
5 23 13 -21.3570 15.3314
5 23 14 3.4503 3.0751
5 23 15 22.1912 30.8660
5 23 16 -7.1387 -3.7466
5 23 17 -25.9827 -11.3537
5 23 18 19.0516 -6.9476
5 23 19 -0.9084 -17.9137
5 23 20 4.6483 -4.1511
5 23 21 -15.1982 -26.7123
5 23 22 -6.7623 -11.3116
5 23 23 10.7795 -10.3682
5 24 5 5.0452 19.1737
5 24 6 -4.4381 1.9067
5 24 7 1.0374 -19.5986
5 24 8 -20.0567 -6.0104
5 24 9 14.4945 21.7823
5 24 10 29.4127 -13.0963
5 24 11 -8.0476 15.0475
5 24 12 1.8080 -14.2834
5 24 13 20.3765 -14.5330
5 24 14 -24.7524 -5.2472
5 24 15 -39.9900 10.5474
5 24 16 -6.4898 5.8167
5 24 17 -6.9626 2.1335
5 24 18 12.8713 28.4009
5 24 19 -16.1829 -8.9538
5 24 20 9.4430 5.2715
5 24 21 -14.2076 21.6250
5 24 22 -9.5234 3.9474
5 24 23 -23.3641 25.9063
5 24 24 -25.3898 -23.6272
5 25 5 19.2108 -13.1610
5 25 6 8.7632 -14.0674
5 25 7 20.7670 -6.9214
5 25 8 -2.3162 2.1092
5 25 9 3.4794 0.6365
5 25 10 24.4238 -1.0257
5 25 11 -8.1229 4.8843
5 25 12 13.4558 -6.8192
5 25 13 8.1624 -2.0327
5 25 14 -3.7916 -8.5544
5 25 15 11.4995 7.5467
5 25 16 -9.2640 -0.4033
5 25 17 12.7091 -7.0933
5 25 18 22.5932 -4.2047
5 25 19 -1.6295 47.2672
5 25 20 4.5343 -38.2045
5 25 21 -6.8590 -8.7133
5 25 22 -2.1653 -26.8943
5 25 23 1.1779 15.3526
5 25 24 3.4691 3.1954
5 25 25 12.8881 -16.4850
5 26 5 14.0652 -0.1960
5 26 6 7.9602 -15.5947
5 26 7 10.2598 16.4649
5 26 8 23.8702 -11.6612
5 26 9 -18.8989 -3.7300
5 26 10 22.0954 18.1187
5 26 11 23.7999 5.3402
5 26 12 -12.1183 6.1446
5 26 13 11.6583 -13.5088
5 26 14 -1.6550 -9.1589
5 26 15 9.0043 16.5812
5 26 16 15.6606 20.9542
5 26 17 -0.6209 5.9578
5 26 18 3.3575 7.5559
5 26 19 12.7012 -13.9640
5 26 20 -7.7255 12.0443
5 26 21 -6.3855 -0.0734
5 26 22 35.4536 7.5359
5 26 23 -13.9049 -46.1955
5 26 24 0.5206 -3.4621
5 26 25 -14.4642 -8.9817
5 26 26 28.1126 23.1130
5 27 5 0.0335 -6.9616
5 27 6 2.4479 2.1241
5 27 7 -0.8272 -2.4637
5 27 8 -22.6819 6.4183
5 27 9 16.4910 14.2249
5 27 10 -21.4070 12.2379
5 27 11 18.0584 4.4825
5 27 12 -2.8855 -12.4040
5 27 13 -1.7862 -9.7213
5 27 14 -23.9066 3.8288
5 27 15 -4.8594 -8.7105
5 27 16 14.7636 26.5113
5 27 17 11.0539 1.7559
5 27 18 -9.7844 2.7747
5 27 19 -2.0063 7.3822
5 27 20 5.1949 16.0271
5 27 21 -3.7343 20.1852
5 27 22 -3.7646 -5.9409
5 27 23 4.6833 -8.4405
5 27 24 3.7854 3.8202
5 27 25 -12.3398 -33.9393
5 27 26 -5.8278 6.6238
5 27 27 0.7224 -3.9239
5 28 5 -0.6961 18.4156
5 28 6 1.5926 -8.1918
5 28 7 -6.2322 -1.9901
5 28 8 4.3575 1.1174
5 28 9 15.4225 -26.7855
5 28 10 -23.3620 7.8764
5 28 11 6.1388 42.1735
5 28 12 -26.3100 -22.0897
5 28 13 -12.8263 19.5509
5 28 14 -20.0898 -26.5983
5 28 15 -9.5139 -25.6257
5 28 16 -2.6146 -0.8380
5 28 17 15.2619 -15.4529
5 28 18 23.1800 5.6384
5 28 19 -3.2052 -5.6267
5 28 20 5.6335 21.5980
5 28 21 5.3960 -10.9725
5 28 22 -2.4213 -5.4154
5 28 23 4.1786 16.8089
5 28 24 -8.1273 -12.9969
5 28 25 -9.1646 10.7856
5 28 26 -7.9717 9.7229
5 29 5 6.4519 3.6446
5 29 6 -24.7026 -16.8605
5 29 7 -34.2425 18.3619
5 29 8 -2.0430 -9.4658
5 29 9 9.6731 -2.8830
5 29 10 2.6177 12.3225
5 29 11 4.0102 14.3633
5 29 12 14.2357 5.5805
5 29 13 3.8602 13.9647
5 29 14 35.3494 -0.5205
5 29 15 2.3580 -13.4276
5 29 16 -3.5429 9.0867
5 29 17 -27.0789 13.0970
5 29 18 -6.1332 -27.4984
5 29 19 -10.9633 -7.8830
5 29 20 -12.6271 -18.1202
5 29 21 4.5348 24.0914
5 29 22 -12.8684 0.4759
5 29 23 -20.6662 23.1718
5 29 24 -8.3402 0.9117
5 29 25 -21.8297 -6.9270
5 30 5 6.1098 3.3138
5 30 6 27.4836 -20.3513
5 30 7 -9.3833 -6.0159
5 30 8 -7.7310 20.8803
5 30 9 -12.4848 21.1534
5 30 10 7.5490 -3.6207
5 30 11 8.2801 1.9794
5 30 12 14.2623 0.4272
5 30 13 -7.5768 4.4003
5 30 14 -30.3641 -19.4987
5 30 15 -6.0664 5.4359
5 30 16 -16.3418 -18.5687
5 30 17 0.2301 16.9898
5 30 18 15.0295 18.4670
5 30 19 9.0831 -0.4152
5 30 20 0.0085 13.9411
5 30 21 19.2962 3.8192
5 30 22 -7.2120 17.4170
5 30 23 2.0586 -18.1092
5 30 24 6.0866 20.0730
5 31 5 2.6254 -11.6107
5 31 6 35.2748 -0.0051
5 31 7 -35.5948 -25.4922
5 31 8 -7.5477 0.7166
5 31 9 9.6125 4.5137
5 31 10 6.9685 -8.6365
5 31 11 -1.9291 -12.3152
5 31 12 21.7898 19.5978
5 31 13 -18.6747 23.1582
5 31 14 -17.0908 12.0997
5 31 15 10.2450 -9.9686
5 31 16 -2.2279 -22.3485
5 31 17 -13.6356 -15.0180
5 31 18 -19.2616 2.5981
5 31 19 14.3630 7.9344
5 31 20 -8.6391 6.1709
5 31 21 -3.2035 -8.8918
5 31 22 0.7742 1.3723
5 31 23 -6.5546 2.0732
5 32 5 -0.5865 -2.1133
5 32 6 13.9788 -2.2166
5 32 7 11.1564 -18.9156
5 32 8 -13.8415 -3.7175
5 32 9 8.1684 0.6192
5 32 10 23.0572 -3.4180
5 32 11 -20.7097 -15.0440
5 32 12 5.4326 4.6602
5 32 13 2.9771 1.7183
5 32 14 -15.4914 -11.6489
5 32 15 -12.3625 4.3820
5 32 16 10.5335 3.3269
5 32 17 12.6828 18.4832
5 32 18 5.0154 10.1845
5 32 19 3.2248 -0.3472
5 32 20 -12.5235 -4.5999
5 32 21 9.0644 3.9658
5 33 5 7.1035 -3.1587
5 33 6 5.5021 -6.5083
5 33 7 23.5421 4.4639
5 33 8 15.8723 -4.8992
5 33 9 9.5292 22.0425
5 33 10 7.8739 7.8730
5 33 11 23.6189 1.5497
5 33 12 8.5950 7.4409
5 33 13 -18.7789 -2.6571
5 33 14 -5.6553 -16.7851
5 33 15 10.3335 -18.9398
5 33 16 10.3095 -12.3396
5 33 17 -2.8880 -1.5593
5 33 18 -14.0265 5.8573
5 33 19 7.8626 -9.9690
5 33 20 1.8133 4.2565
5 34 5 -0.4088 -0.3944
5 34 6 7.8409 -30.7568
5 34 7 -9.4297 -17.1348
5 34 8 14.4778 -4.9509
5 34 9 8.0110 -0.7906
5 34 10 4.6598 -7.3729
5 34 11 -2.5039 3.5566
5 34 12 -10.5664 -0.6389
5 34 13 15.1217 5.9998
5 34 14 20.4239 5.0698
5 34 15 -9.3055 5.5477
5 34 16 -21.5998 8.3078
5 34 17 7.3849 8.2487
5 34 18 -6.7701 -10.7860
5 35 5 -17.0331 -22.0566
5 35 6 33.1471 18.1438
5 35 7 15.0442 15.0315
5 35 8 10.7873 2.8884
5 35 9 -23.6553 -33.2152
5 35 10 -4.0413 0.8908
5 35 11 -10.3574 -9.6138
5 35 12 -15.6753 -13.6099
5 35 13 14.2338 -20.1108
5 35 14 13.6264 -4.0224
5 35 15 -8.6327 7.4389
5 35 16 -3.1903 2.1807
5 36 5 0.5315 10.7420
5 36 6 5.7362 -13.9689
5 36 7 16.4914 -2.6156
5 36 8 10.3935 4.9294
5 36 9 8.0918 -1.7681
5 36 10 -5.0264 14.7654
5 36 11 -12.4988 8.3310
5 36 12 8.6500 -6.8009
5 36 13 1.7764 10.3933
5 36 14 7.2120 8.7686
5 37 5 2.5167 -9.6855
5 37 6 -5.8344 -16.2681
5 37 7 -9.6193 -13.0576
5 37 8 -11.4938 8.9481
5 37 9 18.8740 -3.6164
5 37 10 -19.3148 -2.2696
5 37 11 -33.4894 -9.1404
5 38 5 18.9903 -5.5923
5 38 6 -0.2573 -19.4578
5 38 7 4.3309 -11.0268
6 6 6 6.8258 70.6125
6 7 6 34.8605 -47.5677
6 7 7 -2.5816 11.2644
6 8 6 -0.5438 1.8663
6 8 7 76.8783 -0.0791
6 8 8 -5.9308 52.4419
6 9 6 5.0386 14.0817
6 9 7 37.8999 29.8134
6 9 8 9.5746 25.0277
6 9 9 -16.5237 6.5947
6 10 6 -4.8221 35.6259
6 10 7 27.5916 3.6993
6 10 8 -22.3156 25.1940
6 10 9 4.7263 4.7911
6 10 10 -6.9601 -35.7179
6 11 6 22.1560 -43.0119
6 11 7 15.1914 24.3679
6 11 8 -8.2982 -7.3673
6 11 9 2.1764 -12.2198
6 11 10 -30.1137 5.0003
6 11 11 7.2750 -7.0356
6 12 6 30.2112 -6.4226
6 12 7 1.0112 14.6503
6 12 8 -35.7251 -7.1414
6 12 9 -2.7587 -32.1800
6 12 10 -18.8662 13.2750
6 12 11 2.6942 18.0914
6 12 12 -3.0533 21.4578
6 13 6 8.2119 8.0042
6 13 7 15.8197 -20.5029
6 13 8 22.9353 37.1408
6 13 9 4.2587 -17.6834
6 13 10 1.7669 -33.4406
6 13 11 16.1926 8.0372
6 13 12 -26.3837 -8.2710
6 13 13 -2.7536 -12.7158
6 14 6 1.8674 -38.6895
6 14 7 1.2922 -13.9648
6 14 8 -37.0315 36.3159
6 14 9 2.1599 -1.4612
6 14 10 -3.0345 -20.3398
6 14 11 -17.5487 1.4846
6 14 12 -0.8092 -40.1996
6 14 13 -32.9115 7.7861
6 14 14 3.1522 10.5276
6 15 6 -20.9740 18.8969
6 15 7 -11.8515 9.7843
6 15 8 -4.9413 -34.8169
6 15 9 -7.4706 -9.4248
6 15 10 -27.2571 2.4304
6 15 11 -9.0539 16.2627
6 15 12 19.8301 -1.3345
6 15 13 -4.8001 -4.4197
6 15 14 2.1918 5.1911
6 15 15 14.7505 -10.9367
6 16 6 3.5809 -4.4472
6 16 7 -13.7339 8.1481
6 16 8 9.4380 22.0832
6 16 9 23.7728 24.2289
6 16 10 13.3160 -5.1170
6 16 11 -2.3437 15.0009
6 16 12 8.4691 -11.5933
6 16 13 -34.3332 10.6149
6 16 14 9.1357 19.4328
6 16 15 1.3211 -19.5591
6 16 16 4.3603 9.1928
6 17 6 14.5893 16.0237
6 17 7 -32.3283 22.9876
6 17 8 -6.5429 -3.1983
6 17 9 9.1306 -22.6289
6 17 10 -4.7072 -2.3693
6 17 11 -15.6003 -22.1190
6 17 12 -15.8172 16.2804
6 17 13 12.4684 -2.5756
6 17 14 -13.0909 9.1943
6 17 15 0.9951 -8.2877
6 17 16 -18.0855 -5.7168
6 17 17 -4.0387 -3.5017
6 18 6 4.9551 13.4404
6 18 7 19.6919 19.2285
6 18 8 7.8384 -3.9840
6 18 9 0.4992 7.9238
6 18 10 -11.3458 10.4155
6 18 11 6.5491 -15.9412
6 18 12 18.3407 12.7013
6 18 13 8.2259 -0.3885
6 18 14 -0.0443 -3.2495
6 18 15 6.7437 -26.8958
6 18 16 -12.5947 -17.5927
6 18 17 9.6865 11.8526
6 18 18 4.5808 -1.5068
6 19 6 11.7880 -0.1558
6 19 7 1.8283 14.1741
6 19 8 -12.9824 0.8381
6 19 9 -3.0155 28.7508
6 19 10 -7.2535 -7.9972
6 19 11 10.7963 -2.8758
6 19 12 4.9452 0.6301
6 19 13 12.3906 8.7610
6 19 14 29.2628 9.5686
6 19 15 11.1778 5.3400
6 19 16 29.7064 -30.8814
6 19 17 8.1616 -11.8598
6 19 18 6.7551 -9.8932
6 19 19 3.3883 5.1501
6 20 6 5.6947 2.7729
6 20 7 -21.6200 -1.9516
6 20 8 5.3529 -44.8487
6 20 9 10.3233 2.4619
6 20 10 -14.9462 2.8704
6 20 11 -9.0448 9.7162
6 20 12 -9.2189 16.8065
6 20 13 10.7019 6.1351
6 20 14 7.5838 11.6447
6 20 15 4.8379 -10.1634
6 20 16 17.1771 20.9732
6 20 17 -1.2125 -11.2449
6 20 18 -18.7030 14.7216
6 20 19 -1.9162 -12.6126
6 20 20 3.0602 8.8336
6 21 6 22.8681 20.7220
6 21 7 10.4763 -33.0386
6 21 8 -0.4072 -5.5017
6 21 9 -36.7156 5.0982
6 21 10 -4.2157 7.3468
6 21 11 5.8915 -17.3995
6 21 12 -11.5424 -6.4283
6 21 13 -0.9371 -7.9907
6 21 14 -10.6465 20.6109
6 21 15 20.0413 -10.4661
6 21 16 16.0233 -5.1430
6 21 17 37.2762 -20.7583
6 21 18 24.4477 -12.2782
6 21 19 -14.6638 20.6665
6 21 20 9.8187 1.2057
6 21 21 -8.5069 8.9843
6 22 6 -0.4757 -3.6111
6 22 7 -17.3348 12.3017
6 22 8 -1.1178 4.7455
6 22 9 3.3185 3.4351
6 22 10 -8.6030 -8.7194
6 22 11 -15.0143 -13.6122
6 22 12 -20.8686 -11.0223
6 22 13 -9.9015 -13.4165
6 22 14 11.3336 11.9824
6 22 15 35.9353 16.2185
6 22 16 -12.2419 9.8963
6 22 17 -2.7968 -12.0183
6 22 18 13.6696 18.8655
6 22 19 21.1278 15.8298
6 22 20 -11.0208 11.0447
6 22 21 25.8095 15.8171
6 22 22 -0.3903 -18.9376
6 23 6 1.7659 2.7256
6 23 7 -0.3432 0.5576
6 23 8 1.0451 2.7078
6 23 9 -1.1934 16.8644
6 23 10 -12.5612 -6.4794
6 23 11 -15.3254 8.5937
6 23 12 17.8922 7.2203
6 23 13 -2.3925 9.0020
6 23 14 2.8004 -21.0847
6 23 15 2.8678 3.8443
6 23 16 0.4422 -1.9741
6 23 17 25.4952 -0.9470
6 23 18 2.9001 -3.0500
6 23 19 0.6977 -24.4301
6 23 20 14.3435 9.2406
6 23 21 16.0664 -18.4438
6 23 22 10.4781 -14.6878
6 23 23 -17.8951 6.2818
6 24 6 21.9517 4.6200
6 24 7 -4.4844 0.1883
6 24 8 -18.2329 9.5328
6 24 9 5.8015 -2.7592
6 24 10 1.1925 -0.2525
6 24 11 -5.0377 26.1695
6 24 12 1.7533 5.5415
6 24 13 12.6272 -3.9642
6 24 14 9.6497 -7.7161
6 24 15 -10.1409 -9.8447
6 24 16 -4.3575 -1.5494
6 24 17 0.5378 -11.9798
6 24 18 4.2838 -1.5679
6 24 19 -20.3047 5.5212
6 24 20 11.2064 -7.5624
6 24 21 -32.3630 18.9123
6 24 22 -10.8081 -12.4416
6 24 23 5.6728 38.9228
6 24 24 -2.1862 2.8201
6 25 6 -3.8940 -8.3260
6 25 7 -0.1114 2.9719
6 25 8 -9.4220 -1.4725
6 25 9 9.6683 4.1373
6 25 10 -12.2543 27.6494
6 25 11 -12.7920 11.1913
6 25 12 -7.7321 -37.3248
6 25 13 19.1169 -1.5725
6 25 14 1.6485 0.8176
6 25 15 8.0380 -1.5513
6 25 16 17.6201 44.0594
6 25 17 5.9780 -14.0512
6 25 18 -21.5959 29.9028
6 25 19 -5.9621 -8.8458
6 25 20 -6.9339 -5.1357
6 25 21 -10.2277 2.3742
6 25 22 13.2739 22.7034
6 25 23 -19.5825 3.1962
6 25 24 2.7121 -10.6065
6 25 25 5.8059 0.9746
6 26 6 2.8324 -4.6307
6 26 7 9.1263 0.8562
6 26 8 2.6281 -2.2858
6 26 9 -9.3627 -15.3767
6 26 10 -30.1947 8.1162
6 26 11 -14.3704 -3.4446
6 26 12 30.2412 -25.1456
6 26 13 10.9381 -20.9759
6 26 14 -30.6986 -14.6997
6 26 15 14.4359 -7.1125
6 26 16 0.2324 -14.7158
6 26 17 8.1314 24.9823
6 26 18 25.6410 17.3783
6 26 19 22.4747 10.0199
6 26 20 0.5278 -7.2108
6 26 21 -6.4085 26.6799
6 26 22 4.6647 -5.1072
6 26 23 -8.1430 -5.9795
6 26 24 7.5594 -3.9736
6 26 25 20.6309 -4.4742
6 26 26 -3.6159 9.2020
6 27 6 5.4828 -2.5123
6 27 7 37.6886 -10.6213
6 27 8 -16.5874 8.6507
6 27 9 -16.8147 1.5479
6 27 10 -10.0664 7.4171
6 27 11 -19.2298 1.8067
6 27 12 -2.7615 -0.4272
6 27 13 5.6328 1.3775
6 27 14 3.0488 -10.6886
6 27 15 8.1107 -38.6737
6 27 16 -52.9653 -13.0089
6 27 17 3.3025 -11.8111
6 27 18 -6.4503 11.7555
6 27 19 0.3791 -20.7424
6 27 20 19.4164 18.0966
6 27 21 -3.6608 -29.7561
6 27 22 12.4078 15.6971
6 27 23 -3.4480 4.0350
6 27 24 19.2313 5.5217
6 27 25 -15.4190 -9.1152
6 27 26 -2.4701 2.5848
6 27 27 -8.3746 -6.5895
6 28 6 8.7042 1.6695
6 28 7 -3.1133 -21.3051
6 28 8 3.9525 4.0965
6 28 9 -4.4301 30.1869
6 28 10 -13.1486 13.9924
6 28 11 -8.9414 -14.5370
6 28 12 -8.4564 15.3346
6 28 13 -8.7713 10.2222
6 28 14 -24.2896 -2.7037
6 28 15 -8.5436 -0.9194
6 28 16 13.7036 -1.7478
6 28 17 10.6592 -8.8853
6 28 18 -2.9372 -0.2024
6 28 19 38.7799 5.5304
6 28 20 14.9983 0.4054
6 28 21 -14.1606 19.0457
6 28 22 22.3324 -9.8661
6 28 23 -13.0500 11.4772
6 28 24 -12.4179 9.1036
6 28 25 3.3964 6.3003
6 28 26 4.1644 -2.7527
6 29 6 -16.4833 -15.6082
6 29 7 21.9631 -0.4006
6 29 8 -12.2146 -43.1601
6 29 9 -24.8789 4.9792
6 29 10 9.0803 -4.7894
6 29 11 12.4764 -21.9638
6 29 12 5.7840 -10.8621
6 29 13 18.4480 2.0776
6 29 14 3.2348 -1.1475
6 29 15 15.9508 9.3927
6 29 16 15.3966 -10.2280
6 29 17 -18.5868 -13.2605
6 29 18 3.0210 11.8572
6 29 19 -4.0592 11.7308
6 29 20 -23.2948 -22.9222
6 29 21 -22.0356 -9.4735
6 29 22 -1.5700 16.9396
6 29 23 -0.2317 2.4683
6 29 24 -7.4812 4.3554
6 29 25 2.5351 -14.8495
6 30 6 9.4779 1.1210
6 30 7 -21.1626 6.2550
6 30 8 -10.0039 7.3471
6 30 9 15.5015 -21.9292
6 30 10 -11.0363 -1.6766
6 30 11 5.5445 2.3478
6 30 12 15.2078 -21.2523
6 30 13 -3.4994 7.3713
6 30 14 1.7727 16.5224
6 30 15 -3.7975 -9.1651
6 30 16 0.9773 -17.0349
6 30 17 1.2995 -8.4341
6 30 18 -7.8217 -15.2411
6 30 19 -0.4674 5.2369
6 30 20 11.3787 -14.3039
6 30 21 -4.6269 2.1807
6 30 22 2.4991 -9.3784
6 30 23 11.6077 -11.0520
6 30 24 -2.0974 -8.2063
6 31 6 -12.6816 18.5156
6 31 7 -3.3880 -1.7064
6 31 8 -14.8549 12.6533
6 31 9 -35.5194 5.3908
6 31 10 -9.0916 -14.1660
6 31 11 18.2038 -3.7014
6 31 12 13.0885 -10.6546
6 31 13 7.9302 15.2377
6 31 14 9.3657 -17.7919
6 31 15 1.4685 11.0569
6 31 16 24.4469 15.1548
6 31 17 10.7570 -8.7518
6 31 18 -1.4696 -12.9784
6 31 19 -6.9202 -3.8016
6 31 20 -15.1931 10.2100
6 31 21 -1.2803 10.4727
6 31 22 -12.2701 -15.3131
6 31 23 9.5670 -6.4901
6 32 6 -40.2222 -2.0351
6 32 7 8.6367 -3.3023
6 32 8 -7.7153 3.5419
6 32 9 -31.2022 -8.3095
6 32 10 10.1952 -0.2621
6 32 11 4.9591 10.7296
6 32 12 0.3225 -6.7958
6 32 13 8.6297 -5.5779
6 32 14 -1.2408 6.2773
6 32 15 5.1094 -20.8005
6 32 16 7.8361 -2.7157
6 32 17 21.4646 11.9989
6 32 18 -4.6461 8.2329
6 32 19 -8.9393 18.7267
6 32 20 -17.4835 5.0349
6 32 21 6.6675 -4.4848
6 33 6 8.9892 8.2488
6 33 7 9.3429 27.8158
6 33 8 1.7509 -6.1349
6 33 9 -7.1593 -6.5915
6 33 10 10.8033 -1.3978
6 33 11 -9.4209 1.3836
6 33 12 -21.6880 -7.2179
6 33 13 6.2110 -5.8087
6 33 14 -10.8428 2.9792
6 33 15 4.4069 -1.6260
6 33 16 -18.5646 -7.0709
6 33 17 -1.7946 -2.5561
6 33 18 3.7444 8.7084
6 33 19 -1.0810 0.2045
6 33 20 7.0114 2.0489
6 34 6 3.7069 8.8933
6 34 7 13.9551 -3.9680
6 34 8 2.4823 26.9426
6 34 9 -16.1523 20.1306
6 34 10 -9.9170 -19.0912
6 34 11 -1.4021 -11.0245
6 34 12 27.5855 24.9075
6 34 13 -7.3351 2.4589
6 34 14 11.2139 -18.5393
6 34 15 5.2472 6.1364
6 34 16 3.3754 14.5025
6 34 17 -3.3288 -1.2203
6 34 18 -6.4058 5.3446
6 35 6 0.1528 -0.2700
6 35 7 -5.8314 16.8167
6 35 8 -9.7843 16.4583
6 35 9 15.1848 -5.2549
6 35 10 -24.3618 -7.1167
6 35 11 -0.4315 -24.1882
6 35 12 9.3327 -10.5511
6 35 13 -14.1803 -5.2570
6 35 14 13.8132 -12.5004
6 35 15 7.7996 0.9863
6 35 16 2.9128 -14.0209
6 36 6 29.6662 -2.2923
6 36 7 -0.3650 -6.5195
6 36 8 -16.6835 4.5272
6 36 9 16.2109 -14.2010
6 36 10 -9.1440 -11.6769
6 36 11 19.1259 -5.2864
6 36 12 -1.3172 -1.8718
6 36 13 15.4439 -6.8273
6 36 14 6.8314 4.8300
6 37 6 14.1196 5.1881
6 37 7 -4.5859 -3.3378
6 37 8 -12.4322 2.5274
6 37 9 -0.7837 -0.0045
6 37 10 1.0072 -6.0122
6 37 11 -1.6141 -12.7941
6 38 6 -7.1309 18.5827
6 38 7 6.7047 6.9494
7 7 7 -59.8533 -64.5916
7 8 7 -11.3936 -16.5461
7 8 8 -21.8723 22.8398
7 9 7 31.7367 -36.9725
7 9 8 17.5887 -21.0052
7 9 9 -22.4142 -22.7951
7 10 7 10.9055 -2.0920
7 10 8 26.5798 -37.5283
7 10 9 4.6297 -25.1307
7 10 10 3.8138 -8.8660
7 11 7 8.7412 5.2654
7 11 8 19.0315 14.7632
7 11 9 18.8302 20.1773
7 11 10 9.0399 -49.5364
7 11 11 11.3311 10.2957
7 12 7 -5.4678 26.3401
7 12 8 53.6715 -14.5121
7 12 9 -7.0838 18.0480
7 12 10 -17.2265 -4.6702
7 12 11 -30.7488 12.1106
7 12 12 0.7453 -15.3453
7 13 7 0.0515 -8.5292
7 13 8 -34.0068 5.4362
7 13 9 3.5333 -4.1932
7 13 10 -18.2203 -4.4296
7 13 11 12.9259 10.5067
7 13 12 -1.4949 -4.4467
7 13 13 6.3894 7.9361
7 14 7 -10.6501 -2.3253
7 14 8 -25.7557 21.5569
7 14 9 9.6968 -5.5209
7 14 10 -5.1818 -1.2538
7 14 11 18.6018 19.0857
7 14 12 4.6124 -23.0184
7 14 13 3.3317 -0.6186
7 14 14 2.4229 -21.7384
7 15 7 7.6085 0.9280
7 15 8 -9.9163 34.4241
7 15 9 0.9608 -2.8866
7 15 10 -8.4878 -1.2833
7 15 11 21.4738 -18.8928
7 15 12 5.0165 -7.9576
7 15 13 -30.3409 -6.6325
7 15 14 14.7539 12.2472
7 15 15 4.1883 3.9774
7 16 7 0.7177 23.7154
7 16 8 3.6012 -6.4732
7 16 9 19.4126 8.2485
7 16 10 7.9647 9.7195
7 16 11 19.3959 -10.3855
7 16 12 -0.4957 -5.1464
7 16 13 9.3645 -16.0345
7 16 14 4.3265 26.8311
7 16 15 -25.1951 3.1381
7 16 16 0.8125 -11.7613
7 17 7 10.6774 -7.5901
7 17 8 -33.4446 -3.5257
7 17 9 1.4834 4.1030
7 17 10 -8.9783 -7.6182
7 17 11 -2.3875 18.7213
7 17 12 -7.9853 10.7846
7 17 13 4.4027 -18.3322
7 17 14 20.3944 19.5606
7 17 15 2.9584 2.8936
7 17 16 8.3221 15.7453
7 17 17 38.5718 37.7314
7 18 7 7.5330 2.6592
7 18 8 7.3068 -27.8707
7 18 9 24.6786 1.2874
7 18 10 26.5335 1.3120
7 18 11 -39.3991 -6.5603
7 18 12 6.4805 15.4895
7 18 13 -0.0043 5.2479
7 18 14 -0.4096 -5.7150
7 18 15 -3.8053 -17.7043
7 18 16 -15.8060 -21.1349
7 18 17 11.4403 -8.3549
7 18 18 7.8250 -6.1224
7 19 7 2.5248 1.6595
7 19 8 -11.8172 -6.9542
7 19 9 32.8408 -22.6646
7 19 10 6.9770 -3.1776
7 19 11 -3.5422 -28.8818
7 19 12 0.8100 -3.4589
7 19 13 7.3567 -0.2570
7 19 14 8.5643 -19.1457
7 19 15 7.1479 -10.6840
7 19 16 -2.8881 25.9204
7 19 17 10.9191 -9.6715
7 19 18 6.6437 -1.3935
7 19 19 -7.0484 -6.2675
7 20 7 0.2512 -15.7520
7 20 8 8.4857 -0.3385
7 20 9 -25.4248 -4.0793
7 20 10 10.5771 25.6725
7 20 11 -19.6620 -1.9929
7 20 12 -5.7570 5.2304
7 20 13 8.1975 -3.9383
7 20 14 5.4670 20.2939
7 20 15 9.9610 -7.2091
7 20 16 -11.2829 -5.0062
7 20 17 20.9560 24.6055
7 20 18 -25.2741 9.9336
7 20 19 23.7967 -9.1515
7 20 20 10.4429 -0.2380
7 21 7 -0.5662 2.1057
7 21 8 10.7567 -12.9615
7 21 9 12.6288 -1.6962
7 21 10 -10.1017 8.5610
7 21 11 -15.2912 4.9595
7 21 12 -1.6927 7.5595
7 21 13 -3.5753 13.5263
7 21 14 6.0472 11.9721
7 21 15 -3.9003 -6.2269
7 21 16 -9.9050 4.1618
7 21 17 -16.0196 14.1448
7 21 18 -5.7536 13.5734
7 21 19 -20.0653 -13.5547
7 21 20 -0.1665 -21.9603
7 21 21 -10.5894 -8.0962
7 22 7 -3.8707 -0.4159
7 22 8 2.8948 2.0403
7 22 9 10.2632 10.4860
7 22 10 -17.0994 -7.4835
7 22 11 -16.0188 18.2964
7 22 12 -4.2808 3.5051
7 22 13 -2.2256 -6.0468
7 22 14 5.8272 -19.5323
7 22 15 5.2589 -15.8862
7 22 16 3.5357 -6.8327
7 22 17 31.9352 5.8859
7 22 18 -6.4704 16.5588
7 22 19 -4.4625 16.9820
7 22 20 -15.8535 15.5023
7 22 21 -6.9895 -3.1573
7 22 22 8.7658 0.4306
7 23 7 -0.4848 7.7890
7 23 8 2.5776 7.4452
7 23 9 3.7390 6.1712
7 23 10 0.6265 18.5211
7 23 11 -20.9739 -5.6493
7 23 12 -7.8424 4.2188
7 23 13 -0.3255 5.1906
7 23 14 8.3117 -2.8653
7 23 15 24.4133 4.2340
7 23 16 3.4164 12.4747
7 23 17 -5.6472 -9.9239
7 23 18 8.2482 -26.9294
7 23 19 34.5109 4.4461
7 23 20 3.0154 -14.7360
7 23 21 -6.4785 -13.7821
7 23 22 1.3269 6.2744
7 23 23 28.2971 29.9210
7 24 7 2.7436 5.4976
7 24 8 -0.8112 7.6381
7 24 9 0.5359 -7.2790
7 24 10 12.5556 16.5746
7 24 11 -16.8921 0.1756
7 24 12 0.2211 17.3788
7 24 13 -15.9154 3.3661
7 24 14 5.9035 -24.8459
7 24 15 9.3487 12.7183
7 24 16 15.5861 14.1791
7 24 17 11.2342 -22.8913
7 24 18 -22.8879 -5.2913
7 24 19 2.2739 -9.5786
7 24 20 3.5352 9.8251
7 24 21 24.3251 20.2511
7 24 22 2.9586 1.9836
7 24 23 0.4479 -16.7493
7 24 24 15.8204 -11.7628
7 25 7 -17.5159 20.4217
7 25 8 3.4650 0.3507
7 25 9 12.0586 -32.7530
7 25 10 -6.5520 15.5676
7 25 11 3.9925 31.3610
7 25 12 -0.7233 12.3891
7 25 13 -12.5336 -9.4196
7 25 14 -1.2697 1.5125
7 25 15 7.3651 0.4992
7 25 16 -44.4406 -11.2099
7 25 17 -25.0497 12.6648
7 25 18 55.1968 27.7573
7 25 19 12.1349 21.9564
7 25 20 -29.4401 31.3967
7 25 21 6.4497 -14.1752
7 25 22 10.0370 -4.7828
7 25 23 -8.5399 15.3789
7 25 24 -11.4352 2.5051
7 25 25 -7.7417 -7.7301
7 26 7 15.3925 -0.3783
7 26 8 -35.2193 -7.7692
7 26 9 -3.8975 2.0762
7 26 10 -10.6836 -16.7239
7 26 11 0.3388 -0.5799
7 26 12 -47.3766 18.4544
7 26 13 -2.6269 -21.0210
7 26 14 1.9808 1.9662
7 26 15 13.4911 -22.9232
7 26 16 -0.2426 18.7993
7 26 17 10.8220 1.3390
7 26 18 9.8791 -0.4511
7 26 19 -8.0324 2.4313
7 26 20 6.9271 6.5745
7 26 21 8.3684 -23.4673
7 26 22 -22.2788 19.7954
7 26 23 -19.7542 -13.1402
7 26 24 -9.8278 40.5137
7 26 25 -29.5717 5.8584
7 26 26 0.7921 -2.0366
7 27 7 -5.4338 -3.5452
7 27 8 6.1165 -16.9485
7 27 9 20.1840 6.1353
7 27 10 12.1417 -0.7847
7 27 11 6.2236 -18.9989
7 27 12 0.0200 21.8732
7 27 13 23.6471 -5.6415
7 27 14 -26.1352 -2.6382
7 27 15 -18.9433 -19.1679
7 27 16 -6.7786 17.3378
7 27 17 -6.2677 -3.9983
7 27 18 -0.2691 11.9855
7 27 19 -18.4597 23.1098
7 27 20 5.7177 -24.1656
7 27 21 11.5087 32.7071
7 27 22 -4.8706 13.4054
7 27 23 -33.0177 -9.3982
7 27 24 8.4986 1.2511
7 27 25 -8.0506 6.1910
7 27 26 -0.5553 1.4747
7 27 27 -9.6063 -9.2451
7 28 7 4.8839 -7.5144
7 28 8 6.4991 -7.0475
7 28 9 19.7751 19.9228
7 28 10 -14.2102 3.9309
7 28 11 37.9530 3.9266
7 28 12 31.4683 5.4462
7 28 13 9.4756 9.8119
7 28 14 -12.6402 -30.2736
7 28 15 -3.0278 15.8485
7 28 16 27.9472 -13.4052
7 28 17 2.6373 -24.8242
7 28 18 -0.7850 20.8924
7 28 19 -7.0326 -9.8558
7 28 20 -7.8810 -14.9353
7 28 21 -25.3692 -10.9528
7 28 22 11.4730 8.4840
7 28 23 4.1642 -2.7237
7 28 24 21.0017 12.7648
7 28 25 4.5282 -16.3569
7 28 26 -11.2537 -11.3671
7 29 7 3.5923 4.9924
7 29 8 39.2568 -1.8672
7 29 9 -13.1335 -22.8736
7 29 10 -14.4935 -40.5899
7 29 11 4.0056 -21.7996
7 29 12 7.9891 6.4290
7 29 13 27.2521 25.8596
7 29 14 -6.0060 -27.6825
7 29 15 31.8616 -4.3906
7 29 16 22.0098 1.0447
7 29 17 17.0616 2.7619
7 29 18 1.8773 -5.7967
7 29 19 8.6458 12.8986
7 29 20 -6.8360 -2.1170
7 29 21 15.3952 -2.5301
7 29 22 0.3687 -14.3340
7 29 23 1.5570 -16.0008
7 29 24 7.1476 4.8592
7 29 25 -0.4373 24.5927
7 30 7 -18.1162 2.8126
7 30 8 17.1462 8.7406
7 30 9 -13.3038 -9.0398
7 30 10 8.0748 17.4438
7 30 11 -3.6176 2.5190
7 30 12 6.4675 6.3765
7 30 13 13.3060 7.5173
7 30 14 -17.5217 -2.3780
7 30 15 0.3242 16.3097
7 30 16 5.9924 31.8218
7 30 17 11.0836 -2.6661
7 30 18 31.4550 -12.9791
7 30 19 -18.4254 -7.5028
7 30 20 -3.3585 14.5475
7 30 21 12.6882 -8.1312
7 30 22 -4.4347 -6.8495
7 30 23 -5.9264 11.2027
7 30 24 -3.0652 -11.1070
7 31 7 8.1832 -1.1518
7 31 8 6.3581 -1.4776
7 31 9 -5.5655 -13.1857
7 31 10 3.9132 9.5929
7 31 11 -18.9037 -13.8954
7 31 12 -13.3322 -15.0197
7 31 13 -12.7192 18.4559
7 31 14 -3.8684 14.7357
7 31 15 11.8878 7.7092
7 31 16 8.7872 -8.1808
7 31 17 7.7979 -14.5110
7 31 18 -0.9905 -2.0964
7 31 19 -9.0376 3.8074
7 31 20 1.1054 -7.0018
7 31 21 0.4203 1.1351
7 31 22 -1.1012 -9.1542
7 32 7 5.5524 14.7963
7 32 8 -4.5310 -16.1139
7 32 9 -31.5798 17.4953
7 32 10 -6.3963 0.6233
7 32 11 -6.1018 16.2860
7 32 12 4.1917 0.7736
7 32 13 -0.3903 7.7269
7 32 14 0.2097 3.4932
7 32 15 7.1461 9.0155
7 32 16 -0.7429 -8.0024
7 32 17 -10.0713 2.5820
7 32 18 11.2004 -6.1658
7 32 19 4.6789 13.6786
7 32 20 -5.4267 7.5628
7 32 21 5.6869 -0.8259
7 33 7 6.5425 -2.2397
7 33 8 23.9314 -4.0200
7 33 9 5.7331 0.8747
7 33 10 9.8610 -8.2108
7 33 11 -9.3217 27.7373
7 33 12 -25.5519 0.2708
7 33 13 22.3738 1.3170
7 33 14 14.1930 18.0312
7 33 15 7.0066 -8.0789
7 33 16 -0.5158 -3.3332
7 33 17 -5.9317 6.5398
7 33 18 -15.2285 -12.6401
7 33 19 -4.8450 -13.3692
7 34 7 12.4277 -0.1969
7 34 8 -1.0507 -2.8104
7 34 9 -6.2982 -6.1528
7 34 10 -4.4059 15.1881
7 34 11 -20.7154 -1.4838
7 34 12 -12.6144 3.0080
7 34 13 18.8616 -9.4487
7 34 14 4.8457 -10.3501
7 34 15 1.5998 6.3937
7 34 16 10.6069 10.1450
7 34 17 4.3705 3.2887
7 34 18 4.8161 2.4221
7 35 7 17.1252 13.8535
7 35 8 5.5115 20.4889
7 35 9 -3.4255 -17.1844
7 35 10 -11.4036 -6.6158
7 35 11 -8.2117 -2.7171
7 35 12 -5.9260 9.1711
7 35 13 -1.9249 9.2857
7 35 14 2.4532 -7.4794
7 35 15 1.3547 -0.3557
7 35 16 9.5966 -4.5002
7 36 7 4.2914 12.6831
7 36 8 12.9558 -5.1395
7 36 9 -18.9279 19.7388
7 36 10 -0.0423 -3.9261
7 36 11 1.0220 1.5154
7 36 12 -1.9224 -2.1817
7 36 13 -2.7737 -7.2590
7 37 7 9.2833 -14.5692
7 37 8 -23.2700 -0.0612
7 37 9 5.6348 -3.3971
7 37 10 0.6392 9.2696
8 8 8 21.8125 -5.3785
8 9 8 -46.2409 -35.9350
8 9 9 -2.5843 -3.1459
8 10 8 -2.4986 -47.7447
8 10 9 10.1120 42.5800
8 10 10 -35.0204 -2.4664
8 11 8 5.3665 -11.4067
8 11 9 22.1295 21.6989
8 11 10 0.9910 -2.4341
8 11 11 -1.8728 25.7994
8 12 8 33.6152 -5.3319
8 12 9 -36.5857 -51.4605
8 12 10 16.4951 32.8145
8 12 11 24.2137 -36.4564
8 12 12 -16.6830 -0.6859
8 13 8 -9.8351 -13.5855
8 13 9 -44.1558 46.8166
8 13 10 -16.4737 -51.6552
8 13 11 -14.8264 -36.3834
8 13 12 30.5984 -19.3470
8 13 13 -3.8369 3.1462
8 14 8 2.8306 -30.6568
8 14 9 7.9444 -46.1798
8 14 10 55.7430 -12.5593
8 14 11 22.7190 22.0591
8 14 12 -16.8386 12.9958
8 14 13 11.5611 11.7967
8 14 14 -1.4693 8.5192
8 15 8 -28.9048 28.5228
8 15 9 4.2946 -4.4852
8 15 10 7.6672 -7.5205
8 15 11 27.1623 -16.3553
8 15 12 11.0585 -8.5472
8 15 13 18.2676 6.4968
8 15 14 1.3253 -18.9718
8 15 15 -5.3296 1.0172
8 16 8 -12.0761 -0.1313
8 16 9 17.3211 30.4933
8 16 10 -37.4036 -2.7698
8 16 11 0.6298 -21.4727
8 16 12 15.4470 25.4488
8 16 13 13.6616 -20.8285
8 16 14 -45.2477 -24.4539
8 16 15 -17.4833 10.1881
8 16 16 -11.1850 5.3982
8 17 8 16.5041 16.8667
8 17 9 23.9521 16.2273
8 17 10 0.4802 -6.1711
8 17 11 -22.8189 -10.5446
8 17 12 -7.1624 16.9759
8 17 13 -6.9488 14.8330
8 17 14 -4.4996 4.0784
8 17 15 -19.0470 -12.0095
8 17 16 6.8447 -1.9027
8 17 17 -1.1070 -2.1279
8 18 8 4.5284 4.4604
8 18 9 12.2173 7.7203
8 18 10 -15.8417 -8.5364
8 18 11 -6.4947 -20.7877
8 18 12 1.6226 24.9333
8 18 13 3.7750 -1.3010
8 18 14 5.4593 11.0444
8 18 15 5.0938 0.4265
8 18 16 2.4190 -12.2897
8 18 17 11.1218 -7.3076
8 18 18 8.1388 4.9612
8 19 8 15.3984 -20.9762
8 19 9 0.4413 16.4481
8 19 10 16.0582 -11.8612
8 19 11 2.6668 16.6809
8 19 12 7.8865 11.2096
8 19 13 -4.2784 -4.4549
8 19 14 -5.9014 -0.2724
8 19 15 -0.0807 3.7198
8 19 16 -9.9453 6.0894
8 19 17 -7.3913 30.3987
8 19 18 -11.7270 -21.2633
8 19 19 1.7711 -12.3901
8 20 8 -8.9257 1.2793
8 20 9 14.7091 -7.7306
8 20 10 -2.7641 23.5662
8 20 11 2.8220 2.8431
8 20 12 -6.7753 -11.8517
8 20 13 -25.5450 -10.1067
8 20 14 -5.2227 -7.3678
8 20 15 5.2196 11.6417
8 20 16 3.4062 -3.8931
8 20 17 7.7791 -8.0652
8 20 18 -2.2355 -6.5400
8 20 19 5.8772 14.1742
8 20 20 6.6403 6.5778
8 21 8 22.2309 24.5080
8 21 9 7.4343 -5.3112
8 21 10 4.9390 1.0031
8 21 11 -12.2008 1.6612
8 21 12 -4.6248 0.6176
8 21 13 4.1699 -23.1265
8 21 14 -2.4408 -28.4988
8 21 15 6.2190 3.2096
8 21 16 -3.5183 -8.6800
8 21 17 -9.6764 4.0174
8 21 18 -28.1751 -5.6531
8 21 19 7.2717 -27.5605
8 21 20 9.3455 -17.8916
8 21 21 1.2827 16.2604
8 22 8 -7.0245 -25.9882
8 22 9 -11.3992 -0.0828
8 22 10 18.5793 2.1103
8 22 11 4.3862 -20.3197
8 22 12 -12.9836 -6.9434
8 22 13 -8.0525 -26.9115
8 22 14 14.1716 -16.1601
8 22 15 -0.2289 13.5142
8 22 16 14.0013 3.4033
8 22 17 2.2018 -14.0554
8 22 18 1.6056 -6.8137
8 22 19 17.4873 -6.3405
8 22 20 11.0700 9.9597
8 22 21 13.5693 12.0878
8 22 22 31.2309 4.1193
8 23 8 -0.2410 -7.0857
8 23 9 -10.8658 -9.6913
8 23 10 16.1837 -4.7699
8 23 11 -7.1898 3.6918
8 23 12 9.0862 10.2175
8 23 13 18.9614 3.9979
8 23 14 2.1781 20.3977
8 23 15 -0.5377 17.1796
8 23 16 15.2677 16.0386
8 23 17 -19.6351 2.5079
8 23 18 -56.4041 9.8509
8 23 19 -11.7680 0.6849
8 23 20 -10.5349 0.5253
8 23 21 12.7950 -19.1615
8 23 22 14.3149 -15.0265
8 23 23 -0.8801 31.8901
8 24 8 -0.1247 4.1647
8 24 9 -20.9334 -17.5120
8 24 10 23.7626 5.2241
8 24 11 -9.4419 -13.0858
8 24 12 6.1685 4.6599
8 24 13 8.8551 -0.0613
8 24 14 8.1151 -3.7667
8 24 15 -27.6913 -0.1230
8 24 16 -22.2741 -14.2123
8 24 17 -7.6702 -0.3428
8 24 18 4.8024 -5.5738
8 24 19 -20.1670 -30.4962
8 24 20 15.6064 -18.7918
8 24 21 -2.8598 15.2989
8 24 22 -31.3716 7.1371
8 24 23 -23.1938 14.4178
8 24 24 -29.1926 -0.2853
8 25 8 7.1596 0.7745
8 25 9 2.7820 -0.0751
8 25 10 13.5200 9.0812
8 25 11 -9.9114 9.1040
8 25 12 -31.7764 9.9865
8 25 13 -0.3017 15.3546
8 25 14 21.0419 -36.6965
8 25 15 -32.1875 3.4650
8 25 16 -10.4733 18.6649
8 25 17 -2.1216 -1.5043
8 25 18 -29.1246 5.1794
8 25 19 22.0587 -16.0762
8 25 20 -8.1418 0.7231
8 25 21 13.6983 -17.7977
8 25 22 9.3334 24.1618
8 25 23 7.6419 -17.6903
8 25 24 -10.1944 -17.1026
8 25 25 -1.1030 -1.7968
8 26 8 -4.0422 6.7258
8 26 9 -22.0237 32.4061
8 26 10 -1.7388 -18.6592
8 26 11 2.4524 -3.5627
8 26 12 -10.7018 -2.2200
8 26 13 14.9373 6.1764
8 26 14 -3.6065 -20.1205
8 26 15 1.9789 -3.6154
8 26 16 8.2296 20.8211
8 26 17 -14.1869 -23.2747
8 26 18 7.0193 -2.4751
8 26 19 23.0917 -5.4331
8 26 20 3.5260 -2.4829
8 26 21 -6.1940 -22.9874
8 26 22 9.4211 33.1330
8 26 23 18.0506 6.0814
8 26 24 8.8986 12.2834
8 26 25 -21.2109 -26.8015
8 26 26 -6.9275 -4.0725
8 27 8 -0.4268 3.7810
8 27 9 0.4341 -14.1336
8 27 10 -8.2357 -4.1749
8 27 11 16.1355 -36.6414
8 27 12 -13.5518 -9.0224
8 27 13 -8.6244 -1.0501
8 27 14 23.2261 -0.6139
8 27 15 0.4520 -4.1386
8 27 16 -1.4374 2.9248
8 27 17 2.8867 -11.0103
8 27 18 19.0951 2.1918
8 27 19 -19.3156 -15.2429
8 27 20 6.1850 24.5600
8 27 21 -2.8982 14.3532
8 27 22 17.2767 -0.8991
8 27 23 -1.4054 15.4315
8 27 24 36.4560 10.4197
8 27 25 -4.4256 5.8327
8 27 26 -4.4149 -5.0953
8 27 27 1.9764 -9.6198
8 28 8 2.6714 4.6629
8 28 9 24.6628 -2.4304
8 28 10 -4.8143 35.0487
8 28 11 -13.9237 4.1230
8 28 12 -8.6881 -1.4416
8 28 13 12.6228 10.4076
8 28 14 -27.9740 5.6845
8 28 15 1.9046 15.4430
8 28 16 -51.1535 21.7856
8 28 17 -9.4758 19.1832
8 28 18 -5.5933 -22.6000
8 28 19 -17.2818 -2.2965
8 28 20 20.9861 1.5474
8 28 21 22.4150 -0.2119
8 28 22 6.7694 2.3966
8 28 23 12.6629 -6.4648
8 28 24 -9.3047 -9.2674
8 28 25 6.0173 -6.3062
8 28 26 4.1392 12.7001
8 29 8 14.0370 9.1455
8 29 9 41.6118 -6.1220
8 29 10 -31.1816 -21.2760
8 29 11 0.9287 -25.5786
8 29 12 -2.4036 -31.0002
8 29 13 -10.1015 21.2339
8 29 14 -5.7438 16.3780
8 29 15 9.9881 6.1169
8 29 16 -4.2138 12.6465
8 29 17 -14.1945 -15.7683
8 29 18 2.3939 8.3998
8 29 19 -9.3883 -9.1099
8 29 20 14.5766 -1.0245
8 29 21 19.3955 12.8279
8 29 22 20.2710 10.9746
8 29 23 6.8131 -3.9267
8 29 24 -3.0303 5.9900
8 29 25 1.8113 -9.8741
8 30 8 4.9783 -8.9538
8 30 9 -7.9668 18.9383
8 30 10 2.5466 22.8528
8 30 11 -7.9464 -15.4131
8 30 12 -19.4007 -38.6108
8 30 13 -14.6673 -1.8582
8 30 14 12.5296 -12.3532
8 30 15 -4.6102 -23.7505
8 30 16 -5.6124 12.8958
8 30 17 5.1387 17.3008
8 30 18 -3.0170 3.2775
8 30 19 3.0713 -1.8428
8 30 20 7.3645 15.3397
8 30 21 -1.3648 7.5531
8 30 22 -4.3116 -10.8942
8 30 23 -4.6101 7.0045
8 31 8 3.8639 5.4447
8 31 9 21.5645 -16.9596
8 31 10 -6.9489 29.6780
8 31 11 -24.0490 3.1074
8 31 12 4.0056 -17.9243
8 31 13 -24.2055 2.9870
8 31 14 4.8691 -6.9031
8 31 15 -1.5320 25.5757
8 31 16 10.3822 -14.1198
8 31 17 -26.7405 11.8246
8 31 18 -16.0591 -0.4145
8 31 19 -2.0303 9.4339
8 31 20 4.6613 -17.1384
8 31 21 -0.4939 9.3989
8 31 22 -1.8519 24.9667
8 32 8 -7.4274 -0.7624
8 32 9 -12.5386 -12.7465
8 32 10 -8.1572 -0.4352
8 32 11 -22.8826 8.0117
8 32 12 -15.3067 21.8564
8 32 13 6.7717 11.4506
8 32 14 -11.8029 -9.4393
8 32 15 -14.6532 13.1385
8 32 16 -7.3276 3.4356
8 32 17 -8.6871 6.6517
8 32 18 -6.1049 16.3200
8 32 19 -4.1427 2.3693
8 32 20 -1.1634 -5.6088
8 32 21 5.2034 -1.7263
8 33 8 2.4581 -2.0952
8 33 9 10.2754 1.5964
8 33 10 7.5514 -15.7785
8 33 11 -11.7143 7.8728
8 33 12 -20.9378 12.4358
8 33 13 7.4018 -6.4872
8 33 14 -4.4037 -4.4011
8 33 15 3.6253 5.5663
8 33 16 -10.1322 -0.6715
8 33 17 -0.2270 -14.9727
8 33 18 3.0533 6.0013
8 33 19 5.3449 -0.3792
8 34 8 5.0804 2.0382
8 34 9 23.2024 1.0588
8 34 10 5.8884 -9.1533
8 34 11 -8.5616 -2.0701
8 34 12 -10.3436 -0.9825
8 34 13 -23.2093 -8.3029
8 34 14 1.4877 -8.1128
8 34 15 0.8322 9.0567
8 34 16 3.1516 -2.6849
8 34 17 14.1823 -0.4854
8 35 8 14.5170 -11.8839
8 35 9 -6.1430 1.2323
8 35 10 21.7278 2.5386
8 35 11 -1.5793 -0.5160
8 35 12 -9.0011 -5.6123
8 35 13 5.1130 -16.8252
8 35 14 13.8720 -0.7222
8 35 15 12.2121 -2.0902
8 36 8 -13.2240 -1.3281
8 36 9 -9.0568 11.0106
8 36 10 16.6168 16.1951
8 36 11 20.8128 2.8073
8 36 12 -5.3954 -5.0759
8 36 13 -10.5262 -1.8672
8 37 8 10.6758 1.2266
8 37 9 -9.1261 -0.4382
9 9 9 23.4950 -33.4487
9 10 9 32.2399 1.0574
9 10 10 -15.3468 -15.9085
9 11 9 26.8335 23.1479
9 11 10 -9.2213 25.7024
9 11 11 -19.2808 19.9663
9 12 9 1.7506 14.5788
9 12 10 -2.1488 11.9158
9 12 11 -16.6296 41.6529
9 12 12 -5.6414 -12.7872
9 13 9 -14.4999 14.7104
9 13 10 0.9155 20.0034
9 13 11 -13.2603 -56.2165
9 13 12 -14.2000 20.4705
9 13 13 2.4961 4.7769
9 14 9 -24.7558 -2.4958
9 14 10 -33.5272 -28.9659
9 14 11 -4.3051 -9.1633
9 14 12 18.3951 37.3327
9 14 13 5.3905 36.3420
9 14 14 -2.6679 -4.9977
9 15 9 -9.3007 -17.0656
9 15 10 -6.9893 6.7619
9 15 11 -35.5711 0.7509
9 15 12 -45.2033 -11.8063
9 15 13 -10.7791 -2.9514
9 15 14 -18.5897 1.8447
9 15 15 6.2866 12.5939
9 16 9 -1.0710 0.9728
9 16 10 8.0482 -22.4769
9 16 11 10.7837 -2.9664
9 16 12 -5.6348 -26.8391
9 16 13 2.0987 7.1744
9 16 14 19.6157 4.1563
9 16 15 39.5753 -15.2291
9 16 16 -11.6509 -12.9905
9 17 9 -8.1769 18.6536
9 17 10 -21.0826 -18.7311
9 17 11 18.8454 -5.4546
9 17 12 -7.5189 -7.7816
9 17 13 23.4840 28.1875
9 17 14 -10.1489 -11.4445
9 17 15 7.4888 2.3278
9 17 16 -1.5018 -8.7795
9 17 17 6.7403 5.2779
9 18 9 12.9805 -3.4321
9 18 10 3.0795 7.0904
9 18 11 3.5885 -8.0870
9 18 12 -31.6449 -8.5577
9 18 13 6.7352 8.7772
9 18 14 -1.4897 13.0245
9 18 15 9.8052 2.2072
9 18 16 -6.4384 18.9116
9 18 17 -9.4044 12.1441
9 18 18 -2.1682 -3.0687
9 19 9 7.7006 5.9962
9 19 10 21.0519 21.6476
9 19 11 3.7478 -30.5090
9 19 12 23.2593 30.0960
9 19 13 -3.4719 -26.7399
9 19 14 9.6437 -1.0276
9 19 15 -0.8107 8.9213
9 19 16 -20.7187 7.3356
9 19 17 -12.3078 17.6480
9 19 18 5.5186 -18.4682
9 19 19 -2.3827 13.6123
9 20 9 -7.7967 8.2223
9 20 10 10.2054 -11.5655
9 20 11 -2.1809 3.2198
9 20 12 13.6561 -6.5509
9 20 13 10.0582 -5.1258
9 20 14 -33.9907 -2.2810
9 20 15 -32.7619 1.6381
9 20 16 3.1875 9.2701
9 20 17 -37.5755 22.7550
9 20 18 3.0503 0.0299
9 20 19 -5.7525 -26.5122
9 20 20 -0.0603 4.7562
9 21 9 -4.0296 -2.1771
9 21 10 5.8387 -8.7714
9 21 11 8.1225 12.2786
9 21 12 6.4183 -11.0376
9 21 13 -2.6907 12.6790
9 21 14 15.0866 -5.2803
9 21 15 -16.1217 9.3255
9 21 16 -7.9955 0.4608
9 21 17 -2.1407 -12.8284
9 21 18 4.7581 1.2819
9 21 19 -8.9888 -1.0490
9 21 20 -6.6417 14.4970
9 21 21 -0.8020 13.6498
9 22 9 33.5163 -4.9040
9 22 10 14.0633 -7.9696
9 22 11 8.5043 7.5097
9 22 12 -1.3283 -9.3994
9 22 13 -10.8861 -24.7831
9 22 14 -5.2571 -8.8565
9 22 15 25.5655 14.2262
9 22 16 -4.9738 1.9186
9 22 17 6.8593 10.3394
9 22 18 0.5027 -16.9029
9 22 19 16.0858 -25.0259
9 22 20 -7.0364 -2.2731
9 22 21 -3.7134 7.7571
9 22 22 -1.5747 6.5684
9 23 9 -14.6563 -2.2704
9 23 10 2.2494 -4.7045
9 23 11 10.8261 5.3319
9 23 12 -15.7359 0.4375
9 23 13 -0.1653 0.6535
9 23 14 -5.9372 5.6534
9 23 15 12.4944 14.3934
9 23 16 7.3150 8.8476
9 23 17 0.8693 -5.4212
9 23 18 12.3565 -11.3204
9 23 19 29.6988 31.8147
9 23 20 30.9619 -12.9522
9 23 21 -10.4435 5.1359
9 23 22 23.4935 -7.2565
9 23 23 3.8920 0.8855
9 24 9 -2.9052 -17.1576
9 24 10 26.7714 -35.0823
9 24 11 1.8541 12.0430
9 24 12 28.8601 6.5313
9 24 13 -0.0404 6.8652
9 24 14 1.3696 -2.5063
9 24 15 -17.5728 17.0749
9 24 16 -15.3976 4.0590
9 24 17 5.5425 2.8096
9 24 18 13.8505 -0.6295
9 24 19 -10.7244 18.3688
9 24 20 15.5338 -0.2089
9 24 21 13.2205 0.5593
9 24 22 2.2357 -6.9233
9 24 23 -15.3394 -0.9514
9 24 24 -19.7948 -12.2996
9 25 9 -1.2304 -2.7751
9 25 10 13.0343 0.1286
9 25 11 4.6424 0.7698
9 25 12 9.9261 -13.8715
9 25 13 5.1608 3.5055
9 25 14 -18.2841 1.0588
9 25 15 -22.1773 -6.6200
9 25 16 9.4451 8.4586
9 25 17 -16.9081 -22.6127
9 25 18 -3.4866 -4.0392
9 25 19 0.6251 -25.4613
9 25 20 13.3563 -5.4392
9 25 21 -16.1386 -2.8268
9 25 22 -6.9799 4.8533
9 25 23 8.6993 2.2242
9 25 24 -8.5886 5.4446
9 25 25 18.2230 -20.8449
9 26 9 -11.4961 -3.9184
9 26 10 28.0902 22.2940
9 26 11 34.5986 -18.6314
9 26 12 -15.8386 -1.6128
9 26 13 -14.7757 -21.1578
9 26 14 -5.5665 17.8363
9 26 15 15.5472 0.9586
9 26 16 -2.2494 15.8921
9 26 17 37.1867 -46.8903
9 26 18 6.0417 15.7750
9 26 19 15.3361 -48.3635
9 26 20 -9.4279 19.9870
9 26 21 2.8352 -17.3711
9 26 22 -30.9399 -11.7236
9 26 23 -28.3440 21.6382
9 26 24 -2.0628 -5.8165
9 26 25 -3.8695 -3.4021
9 26 26 -8.3849 -6.1548
9 27 9 -5.1416 5.1161
9 27 10 -8.8574 19.7401
9 27 11 16.5277 3.8831
9 27 12 21.6813 2.5715
9 27 13 -26.0346 19.5005
9 27 14 -1.9172 -0.3725
9 27 15 -18.5032 -5.7541
9 27 16 16.7132 -2.5909
9 27 17 -3.2513 7.2174
9 27 18 -29.2924 6.0496
9 27 19 -17.1395 -38.9428
9 27 20 9.0774 -5.6618
9 27 21 2.9422 -39.3480
9 27 22 1.8473 -17.9002
9 27 23 12.8484 -12.9152
9 27 24 -23.2136 8.9713
9 27 25 -9.5401 -14.0802
9 27 26 8.1533 -1.5147
9 28 9 5.4705 16.0366
9 28 10 25.0336 11.3831
9 28 11 9.9058 14.4434
9 28 12 25.2840 13.9253
9 28 13 29.2670 -4.0698
9 28 14 19.3993 19.5778
9 28 15 19.4018 16.7161
9 28 16 -16.2679 -22.2782
9 28 17 -18.5485 9.8667
9 28 18 -10.7693 6.8976
9 28 19 -17.7295 13.1760
9 28 20 -8.9050 -5.7857
9 28 21 -33.5447 6.7582
9 28 22 0.7906 9.9004
9 28 23 -4.3723 -23.7097
9 28 24 9.4383 -8.8536
9 28 25 -6.2740 5.1074
9 29 9 -2.8268 6.5688
9 29 10 -12.5554 -0.2673
9 29 11 48.7078 -17.5523
9 29 12 5.1351 -7.3494
9 29 13 11.2112 23.5799
9 29 14 -6.2197 -4.2775
9 29 15 28.6037 -6.6675
9 29 16 21.9091 -14.1970
9 29 17 6.4415 -25.1064
9 29 18 -8.3709 16.5085
9 29 19 -7.0172 -0.8197
9 29 20 -5.7528 -17.0433
9 29 21 -0.6288 5.8005
9 29 22 0.8085 3.7034
9 29 23 8.2118 10.6942
9 29 24 8.1025 2.3516
9 30 9 9.4950 1.3068
9 30 10 6.6185 1.7030
9 30 11 10.1049 15.8427
9 30 12 -5.2085 22.7514
9 30 13 -30.8234 -8.4205
9 30 14 -17.2699 -6.7732
9 30 15 -23.8244 -1.4501
9 30 16 9.2745 -17.3295
9 30 17 6.7957 19.6939
9 30 18 5.9336 -24.6385
9 30 19 -7.8405 -9.9213
9 30 20 14.9912 13.6269
9 30 21 -1.5660 1.1971
9 30 22 -3.6536 -14.6366
9 30 23 4.4176 -11.2550
9 31 9 9.2530 6.9813
9 31 10 3.2607 7.3223
9 31 11 -4.3643 4.3778
9 31 12 19.2492 6.2279
9 31 13 -12.6147 -25.3441
9 31 14 4.2447 2.8928
9 31 15 -0.8522 0.9651
9 31 16 27.2588 13.1703
9 31 17 -10.8490 0.7162
9 31 18 -16.8119 3.9207
9 31 19 13.5263 3.7057
9 31 20 -3.7026 -1.8977
9 31 21 -3.6275 -3.1833
9 31 22 12.5418 -7.2270
9 32 9 4.7217 4.4294
9 32 10 17.9916 -1.7642
9 32 11 8.3189 30.5775
9 32 12 -2.1143 -4.9034
9 32 13 11.4921 -5.6895
9 32 14 0.9648 -19.7967
9 32 15 -0.1207 -5.8303
9 32 16 -7.9799 -21.9160
9 32 17 -2.1960 -23.6128
9 32 18 -9.3226 -6.9238
9 32 19 5.8015 0.1324
9 32 20 1.6877 1.1324
9 33 9 3.8775 0.3113
9 33 10 9.0301 -3.1944
9 33 11 7.2004 -0.8243
9 33 12 -16.8488 -9.5039
9 33 13 -0.8030 -6.1527
9 33 14 11.0205 1.5412
9 33 15 -9.0556 -1.7011
9 33 16 -1.7934 -4.4261
9 33 17 -2.5603 9.6799
9 33 18 -8.9928 -8.6904
9 33 19 -7.2176 -6.3100
9 34 9 15.6440 -0.7498
9 34 10 -10.8708 19.9412
9 34 11 11.9271 -4.7994
9 34 12 13.2213 2.4099
9 34 13 -4.6304 -9.8457
9 34 14 5.4273 -13.3557
9 34 15 -6.2622 1.5055
9 34 16 -15.8920 -6.6013
9 34 17 6.8849 1.3889
9 35 9 6.5924 3.0946
9 35 10 3.9144 12.4671
9 35 11 -9.7586 0.4877
9 35 12 -5.3596 15.2616
9 35 13 -12.1832 1.5805
9 35 14 3.8739 -3.2055
9 35 15 -2.7272 4.4871
9 36 9 3.4721 -27.0792
9 36 10 11.6461 11.4631
9 36 11 -13.8402 -3.8534
9 36 12 7.7834 3.7605
9 37 9 8.5234 -9.0357
10 10 10 -7.5368 -21.9251
10 11 10 -30.3669 33.6753
10 11 11 32.4356 -1.1146
10 12 10 23.3691 -2.8155
10 12 11 -17.1183 10.6510
10 12 12 2.0927 -27.3502
10 13 10 2.2867 -4.0081
10 13 11 -21.1545 6.1468
10 13 12 -11.4831 -20.1212
10 13 13 30.9028 -3.9805
10 14 10 6.7708 2.7329
10 14 11 23.5364 23.1930
10 14 12 15.9214 -23.2244
10 14 13 -19.0249 -12.9728
10 14 14 6.0372 8.9383
10 15 10 -12.2185 13.7603
10 15 11 -4.9425 1.0772
10 15 12 -29.3404 8.7185
10 15 13 16.7434 -5.9825
10 15 14 -9.9156 -5.8641
10 15 15 12.0220 -0.4466
10 16 10 -13.7076 4.3879
10 16 11 7.0366 17.8392
10 16 12 -38.8764 -5.8388
10 16 13 -20.1711 -16.7255
10 16 14 12.5223 -33.8303
10 16 15 3.5851 14.5257
10 16 16 9.7054 -0.0005
10 17 10 10.4143 12.4242
10 17 11 8.4201 -12.6285
10 17 12 -10.2694 -7.9371
10 17 13 3.1165 15.3818
10 17 14 8.8189 14.0165
10 17 15 9.6593 3.7658
10 17 16 17.7136 8.1013
10 17 17 -16.7152 -0.4774
10 18 10 7.5502 20.2191
10 18 11 10.2975 -4.2097
10 18 12 23.4831 21.1766
10 18 13 -5.9039 18.0457
10 18 14 -17.0558 -4.4873
10 18 15 7.8481 -4.6288
10 18 16 -24.9241 -19.7336
10 18 17 -4.5842 10.3513
10 18 18 5.7844 -14.0162
10 19 10 -5.7382 -5.6407
10 19 11 14.5520 6.5672
10 19 12 -12.3386 2.2220
10 19 13 -5.1014 -28.4225
10 19 14 0.5994 -13.9851
10 19 15 12.9420 7.0648
10 19 16 4.5091 1.0755
10 19 17 -2.9019 -9.6328
10 19 18 2.0670 13.2656
10 19 19 -4.1758 1.0851
10 20 10 1.5387 -0.5826
10 20 11 6.3341 13.2073
10 20 12 -23.7349 -1.9009
10 20 13 -4.8695 -14.2729
10 20 14 24.9829 -2.4862
10 20 15 -5.9869 -3.7702
10 20 16 -1.4053 -4.3664
10 20 17 -1.2474 -14.1187
10 20 18 25.3677 -1.6123
10 20 19 19.6547 15.4280
10 20 20 6.0530 -12.2967
10 21 10 0.7973 5.3037
10 21 11 -8.2207 -12.4598
10 21 12 7.1475 5.5749
10 21 13 -16.2700 20.0828
10 21 14 13.3403 0.5027
10 21 15 2.7682 -25.4198
10 21 16 -4.9586 4.4223
10 21 17 18.1620 0.8822
10 21 18 17.2170 28.3508
10 21 19 0.1979 -9.6069
10 21 20 -0.9439 0.3544
10 21 21 12.8244 4.8435
10 22 10 -8.5991 6.7638
10 22 11 -9.0701 10.2447
10 22 12 -15.8566 -19.5749
10 22 13 4.3079 22.1508
10 22 14 6.7999 6.0531
10 22 15 -2.2961 4.6501
10 22 16 -2.8266 -32.2671
10 22 17 -12.2866 1.1698
10 22 18 9.5707 -11.5067
10 22 19 -3.3822 18.5897
10 22 20 -16.3699 5.7292
10 22 21 -0.1969 -9.5657
10 22 22 5.8260 -10.0454
10 23 10 -10.7011 -1.7310
10 23 11 -22.4295 -0.1037
10 23 12 -27.0592 -18.1474
10 23 13 6.4436 -23.6825
10 23 14 -21.3891 -21.8670
10 23 15 7.9694 3.7630
10 23 16 -29.6704 -1.0871
10 23 17 -0.2262 4.4452
10 23 18 -14.3986 -26.5218
10 23 19 11.4045 12.6033
10 23 20 17.7486 25.4878
10 23 21 -9.6522 3.1572
10 23 22 -7.8211 -14.7652
10 23 23 3.1706 5.3838
10 24 10 7.0659 1.0680
10 24 11 -3.5227 2.6816
10 24 12 26.0924 3.6354
10 24 13 1.4427 2.2634
10 24 14 5.4767 10.9722
10 24 15 -4.1160 17.1612
10 24 16 -1.7647 23.8355
10 24 17 9.8255 -10.6963
10 24 18 -4.0596 6.8923
10 24 19 -19.5380 -2.5710
10 24 20 -7.9522 -3.9574
10 24 21 8.4916 6.2264
10 24 22 12.2246 8.4829
10 24 23 2.8628 -1.6134
10 24 24 2.0694 19.8043
10 25 10 4.4389 -1.1789
10 25 11 -7.2833 -1.3640
10 25 12 0.3924 19.3133
10 25 13 9.0943 -5.2738
10 25 14 -4.4524 24.0130
10 25 15 -14.7340 6.5374
10 25 16 -50.7273 -3.3626
10 25 17 -9.1669 -13.2503
10 25 18 15.7717 27.5404
10 25 19 -6.6483 2.6122
10 25 20 -9.2016 1.6369
10 25 21 6.6557 -1.5383
10 25 22 8.0963 15.8117
10 25 23 14.0216 -0.6171
10 25 24 5.0909 1.4475
10 25 25 31.5830 3.6116
10 26 10 -8.0767 -8.4034
10 26 11 27.1429 -10.0033
10 26 12 14.6110 20.5518
10 26 13 -16.5276 -3.8252
10 26 14 12.1864 -6.3888
10 26 15 5.1995 4.8824
10 26 16 36.7915 9.6954
10 26 17 -15.7416 -24.5497
10 26 18 17.7582 -1.2489
10 26 19 -4.1361 19.4590
10 26 20 10.5666 5.2098
10 26 21 13.7902 26.7607
10 26 22 -11.5527 13.9014
10 26 23 20.4621 -1.0157
10 26 24 7.5417 28.3292
10 26 25 -5.7040 22.9216
10 26 26 -1.3540 16.5370
10 27 10 -19.0405 20.6978
10 27 11 -27.4155 -8.7554
10 27 12 -13.1175 32.8894
10 27 13 -0.2663 13.2508
10 27 14 -5.8715 -6.0128
10 27 15 10.5499 -12.0038
10 27 16 8.4631 -2.3853
10 27 17 11.6045 10.5086
10 27 18 19.5438 10.8361
10 27 19 -7.8713 -7.6778
10 27 20 37.1783 -15.2366
10 27 21 -2.0187 9.7785
10 27 22 -19.1226 9.9732
10 27 23 6.8952 -25.3406
10 27 24 15.3593 -6.7389
10 27 25 9.9483 8.6972
10 27 26 15.3350 -3.4717
10 28 10 -9.1228 3.7200
10 28 11 -2.7223 -4.5868
10 28 12 -0.4391 -1.1056
10 28 13 -10.9076 -7.1112
10 28 14 10.1953 -0.0050
10 28 15 -6.9580 -0.2400
10 28 16 10.0420 40.0219
10 28 17 21.3539 -1.0618
10 28 18 -0.8851 -11.0941
10 28 19 18.3238 -4.3277
10 28 20 -1.8256 -12.5965
10 28 21 -12.2690 -4.0402
10 28 22 -31.7814 7.3552
10 28 23 0.8929 2.2339
10 28 24 -7.5565 8.0865
10 28 25 8.8049 10.6865
10 29 10 -0.1512 -6.4781
10 29 11 -16.0309 8.4219
10 29 12 -14.0754 -27.1241
10 29 13 1.0635 -6.7482
10 29 14 -19.0399 0.3005
10 29 15 -5.8134 -9.4511
10 29 16 -8.4378 17.8980
10 29 17 7.1241 -0.5266
10 29 18 14.4144 -1.4328
10 29 19 15.3914 23.1574
10 29 20 -18.7059 12.4031
10 29 21 19.8441 -7.3070
10 29 22 -0.7328 -2.2777
10 29 23 0.2203 11.1524
10 29 24 5.9025 3.7878
10 30 10 -0.8553 5.9803
10 30 11 15.1264 27.1594
10 30 12 -3.2685 -4.4990
10 30 13 16.4391 -5.5586
10 30 14 -14.1683 5.9824
10 30 15 -28.3874 -0.3963
10 30 16 4.3618 -2.3272
10 30 17 -15.7943 0.3146
10 30 18 -23.6300 -4.0562
10 30 19 -13.4671 -10.6335
10 30 20 -5.7129 18.2102
10 30 21 5.8702 8.5852
10 30 22 2.6389 15.4003
10 30 23 0.0282 8.0098
10 31 10 -5.7882 11.5024
10 31 11 4.0309 -8.6669
10 31 12 -43.5637 -2.2991
10 31 13 8.1910 15.9776
10 31 14 -12.9908 6.1778
10 31 15 7.9711 -10.6751
10 31 16 6.4352 -22.3847
10 31 17 -7.6906 21.4559
10 31 18 0.7469 12.4203
10 31 19 21.7558 2.4492
10 31 20 2.4388 1.6342
10 31 21 0.8531 2.0244
10 32 10 17.0018 -0.2088
10 32 11 5.6280 -9.1521
10 32 12 14.3552 -38.4688
10 32 13 1.2622 -18.9919
10 32 14 12.0793 -5.2542
10 32 15 -1.1151 -5.5877
10 32 16 8.5629 24.2146
10 32 17 -3.3994 -2.9713
10 32 18 6.5780 -6.1169
10 32 19 3.9582 -3.4160
10 32 20 -4.6391 -11.9258
10 33 10 -2.1608 -5.1769
10 33 11 12.7628 -1.8679
10 33 12 11.3904 -1.3555
10 33 13 -3.7753 13.4680
10 33 14 -3.7180 -4.9522
10 33 15 17.9168 -10.4853
10 33 16 -13.2635 14.5991
10 33 17 -13.8010 10.1732
10 33 18 10.6594 -2.0729
10 34 10 1.9696 -1.4388
10 34 11 15.2617 13.2975
10 34 12 1.4587 3.3028
10 34 13 -3.0216 9.6391
10 34 14 10.2973 8.3881
10 34 15 -4.7372 0.7553
10 34 16 5.9692 3.7645
10 35 10 13.4791 -12.4629
10 35 11 -17.8245 14.2061
10 35 12 2.8855 29.6885
10 35 13 6.1592 7.1620
10 35 14 -27.8711 15.4718
10 36 10 5.6393 -2.3290
10 36 11 0.6219 -13.2793
11 11 11 2.7167 8.6224
11 12 11 5.1513 -4.4686
11 12 12 -8.2533 13.1386
11 13 11 6.5960 -3.6889
11 13 12 6.5764 18.0693
11 13 13 5.4630 7.8128
11 14 11 9.4330 2.2960
11 14 12 -5.6391 34.0945
11 14 13 -39.1068 1.5612
11 14 14 6.0749 -3.6838
11 15 11 0.6634 -4.3307
11 15 12 36.1268 5.9964
11 15 13 -20.6033 -9.9119
11 15 14 22.2325 22.1382
11 15 15 8.9867 7.7197
11 16 11 1.0972 9.8880
11 16 12 -13.0652 8.5033
11 16 13 -11.4435 -11.6652
11 16 14 14.1677 19.7997
11 16 15 0.6530 -4.8623
11 16 16 -0.2441 1.9622
11 17 11 -5.3282 20.2146
11 17 12 -2.9360 5.2796
11 17 13 -9.9462 -2.4732
11 17 14 -1.7278 -10.8380
11 17 15 0.3521 1.9891
11 17 16 -7.3155 -23.1648
11 17 17 -4.4799 -9.5417
11 18 11 2.6322 -1.5334
11 18 12 -12.8340 11.0928
11 18 13 25.8906 -20.7834
11 18 14 -9.4493 9.4547
11 18 15 -18.8904 24.6723
11 18 16 0.0247 -6.9459
11 18 17 -2.4779 -2.3398
11 18 18 2.8917 -3.1787
11 19 11 -11.5153 -15.5003
11 19 12 -4.4433 9.0122
11 19 13 25.9766 -4.4597
11 19 14 -12.3826 -1.8017
11 19 15 -4.7003 -16.0703
11 19 16 8.8324 -17.2305
11 19 17 -40.4691 14.7428
11 19 18 19.6172 -0.1571
11 19 19 15.3802 13.5442
11 20 11 -9.0855 -25.5127
11 20 12 0.3012 17.9372
11 20 13 13.0050 1.2047
11 20 14 3.6243 2.7642
11 20 15 -19.8032 -9.0650
11 20 16 -5.5301 -11.5751
11 20 17 -3.8086 -7.9635
11 20 18 19.3331 -0.6193
11 20 19 -8.6392 9.8171
11 20 20 -19.8217 20.1615
11 21 11 -7.9503 0.1611
11 21 12 -25.0000 13.1924
11 21 13 -13.0742 6.9614
11 21 14 9.3228 -4.9531
11 21 15 8.4327 -2.6451
11 21 16 -16.8573 -22.1520
11 21 17 -14.3787 5.3744
11 21 18 -21.0305 -24.7597
11 21 19 -10.6998 -1.4076
11 21 20 -36.4293 -5.7553
11 21 21 -4.3261 -7.6117
11 22 11 16.7725 -6.1676
11 22 12 -5.4718 10.4643
11 22 13 15.5162 18.1311
11 22 14 7.5180 -3.0345
11 22 15 6.8087 5.8943
11 22 16 12.2019 -17.7857
11 22 17 11.4038 -27.6013
11 22 18 -7.8037 -1.5768
11 22 19 23.9087 -15.7540
11 22 20 -11.6997 -10.8978
11 22 21 16.6653 -20.1412
11 22 22 -5.6994 4.6587
11 23 11 -6.3043 0.9341
11 23 12 13.0585 22.0751
11 23 13 -1.9786 -11.4012
11 23 14 25.8594 22.8197
11 23 15 -2.0080 6.8598
11 23 16 -8.4292 15.6473
11 23 17 -18.4869 -6.0725
11 23 18 -6.2929 18.6925
11 23 19 -21.5236 8.2198
11 23 20 -34.9814 19.4003
11 23 21 2.4626 -18.6673
11 23 22 14.1722 10.1717
11 23 23 19.8857 18.6663
11 24 11 -3.2921 -6.4771
11 24 12 -0.7015 2.1926
11 24 13 7.0780 8.5420
11 24 14 18.8327 -26.8023
11 24 15 18.9358 -12.1807
11 24 16 -2.5603 -3.4554
11 24 17 -5.2764 -23.4554
11 24 18 40.2621 21.2437
11 24 19 5.6858 6.0965
11 24 20 7.9951 15.6491
11 24 21 -17.2703 30.9082
11 24 22 -2.6459 -3.5439
11 24 23 -3.6421 -28.7164
11 24 24 -21.5766 20.5354
11 25 11 -9.6296 0.2705
11 25 12 -3.3186 -16.0522
11 25 13 2.0016 -17.0484
11 25 14 6.3711 0.5902
11 25 15 -12.8561 -14.0214
11 25 16 -3.9654 -0.2600
11 25 17 1.5464 14.4511
11 25 18 -1.1464 -29.2297
11 25 19 -8.3215 5.7835
11 25 20 -20.7846 -8.6990
11 25 21 -3.9495 -24.4322
11 25 22 1.9266 -25.1697
11 25 23 -29.9255 -25.3661
11 25 24 -1.4410 -3.8168
11 25 25 -10.6710 -13.0862
11 26 11 4.9287 -5.3420
11 26 12 -6.9676 0.0311
11 26 13 53.5198 5.6094
11 26 14 -14.5640 -0.7038
11 26 15 -8.5689 -30.6799
11 26 16 -9.7998 22.2967
11 26 17 32.9882 -5.5105
11 26 18 4.2533 -15.4644
11 26 19 23.6619 14.7297
11 26 20 -6.1689 -9.5323
11 26 21 -26.6215 -46.1872
11 26 22 -0.0913 -5.3010
11 26 23 18.2212 -3.8831
11 26 24 1.8906 -8.1540
11 26 25 -5.0418 -7.8549
11 26 26 1.5629 -0.2046
11 27 11 -15.5043 -6.7090
11 27 12 2.3247 3.5791
11 27 13 16.1268 27.4611
11 27 14 -12.4634 -8.6041
11 27 15 -19.7737 -15.1626
11 27 16 2.6622 9.4162
11 27 17 0.0174 7.0418
11 27 18 3.0017 13.3385
11 27 19 -4.8573 -10.3750
11 27 20 19.6257 -6.1930
11 27 21 -22.2040 -14.2022
11 27 22 -1.5847 -21.3827
11 27 23 8.9434 -27.9561
11 27 24 9.2966 1.8051
11 27 25 3.3686 -11.3770
11 27 26 -13.6137 -22.7589
11 28 11 6.2621 2.3004
11 28 12 -6.0129 -13.6305
11 28 13 -17.1036 4.3372
11 28 14 19.6358 -2.7731
11 28 15 -58.9347 -20.0247
11 28 16 -7.6934 43.7543
11 28 17 2.0070 1.7941
11 28 18 -14.9805 13.6609
11 28 19 -32.5426 -24.2368
11 28 20 21.4882 -6.1026
11 28 21 -1.7336 14.1108
11 28 22 -40.0129 -3.1947
11 28 23 -3.9718 2.0370
11 28 24 -0.7756 6.8088
11 28 25 7.5830 15.0211
11 29 11 -0.8826 -1.0059
11 29 12 -7.6547 -15.1941
11 29 13 -3.7616 16.8096
11 29 14 13.6853 0.0243
11 29 15 27.2850 5.2165
11 29 16 -21.5177 -13.2442
11 29 17 0.6195 -19.6492
11 29 18 6.4233 11.6889
11 29 19 2.4071 20.9475
11 29 20 2.1089 3.8734
11 29 21 4.5361 0.4203
11 29 22 -9.6383 -10.9838
11 29 23 1.1392 -9.6067
11 30 11 22.4268 -0.1292
11 30 12 5.4073 5.0089
11 30 13 -8.3491 5.2822
11 30 14 14.2122 -9.5390
11 30 15 46.4130 -20.1480
11 30 16 -23.5704 15.7144
11 30 17 0.4038 -4.1286
11 30 18 -2.0827 -16.1299
11 30 19 -4.6935 -1.3541
11 30 20 -27.2647 -27.1480
11 30 21 -4.0393 -7.9005
11 30 22 7.3470 1.6692
11 31 11 20.4629 21.3657
11 31 12 -7.0254 0.1894
11 31 13 -17.1874 3.5876
11 31 14 23.6217 15.1105
11 31 15 -10.9206 -28.9546
11 31 16 -6.3970 -0.5008
11 31 17 14.6758 4.6526
11 31 18 -3.2755 -4.5315
11 31 19 4.6428 8.4421
11 31 20 19.8162 14.2501
11 31 21 -5.8677 -7.5885
11 32 11 2.6792 4.2397
11 32 12 7.9939 -16.9103
11 32 13 26.4574 -12.0279
11 32 14 0.4549 10.0212
11 32 15 -1.3969 13.3665
11 32 16 5.7340 -5.0273
11 32 17 0.6934 -5.4655
11 32 18 0.7466 -2.6369
11 32 19 1.3636 -2.2324
11 33 11 -7.7261 6.6338
11 33 12 -5.2732 8.2912
11 33 13 -3.1520 22.6368
11 33 14 -4.0357 5.5584
11 33 15 -16.2330 10.9664
11 33 16 2.3653 -1.1791
11 33 17 7.3620 -11.3118
11 34 11 -6.8210 0.2455
11 34 12 -2.2176 3.5362
11 34 13 -0.3227 -12.3141
11 34 14 -14.3279 11.5570
11 34 15 -3.2223 7.4826
11 35 11 9.3151 3.7144
11 35 12 16.2685 -5.6068
11 35 13 -2.4297 5.8689
12 12 12 24.9688 2.7829
12 13 12 10.2344 8.2466
12 13 13 6.3146 -17.9924
12 14 12 3.9034 6.5406
12 14 13 -6.2921 -20.6257
12 14 14 -5.1584 3.5764
12 15 12 -4.1319 13.7545
12 15 13 -22.1155 -3.1746
12 15 14 0.5066 -18.9035
12 15 15 3.0319 -29.6059
12 16 12 -19.5987 4.6436
12 16 13 23.1328 16.1097
12 16 14 -19.6818 -4.2002
12 16 15 -1.4544 1.5004
12 16 16 14.7518 2.8882
12 17 12 -6.6104 -4.7138
12 17 13 -16.5501 1.2454
12 17 14 1.9464 23.5781
12 17 15 8.0970 -25.3670
12 17 16 -9.5930 7.9358
12 17 17 -0.4954 7.3581
12 18 12 5.8186 -17.2653
12 18 13 -0.1001 -19.5388
12 18 14 6.4381 -15.4145
12 18 15 -12.2584 -8.9600
12 18 16 -6.7644 -9.5443
12 18 17 8.3637 30.9747
12 18 18 0.9470 -3.4545
12 19 12 7.2386 -14.4038
12 19 13 -23.2503 22.8958
12 19 14 25.7012 14.0237
12 19 15 14.8375 -14.3476
12 19 16 -0.7317 16.3633
12 19 17 16.8852 0.4463
12 19 18 -7.8439 -12.7763
12 19 19 -0.6548 4.3849
12 20 12 19.2590 -4.8112
12 20 13 6.4406 22.7634
12 20 14 10.5149 45.1217
12 20 15 19.4245 24.3878
12 20 16 20.2206 -7.5540
12 20 17 -22.5328 -23.6018
12 20 18 40.0845 12.0718
12 20 19 -41.7910 -13.2898
12 20 20 17.5686 1.5109
12 21 12 1.0714 4.0607
12 21 13 11.9475 -5.7898
12 21 14 -40.1578 21.5222
12 21 15 11.2507 11.3065
12 21 16 -24.9322 13.8424
12 21 17 -8.2295 14.7122
12 21 18 14.1085 -8.2437
12 21 19 -30.9625 10.1768
12 21 20 -5.5475 -8.5948
12 21 21 -3.3182 3.7669
12 22 12 -6.0036 -22.5218
12 22 13 10.3761 -18.4848
12 22 14 -30.5402 30.2144
12 22 15 4.0805 -18.4475
12 22 16 7.5400 -10.9264
12 22 17 0.8398 -17.3166
12 22 18 3.0048 8.1040
12 22 19 13.1125 33.2712
12 22 20 -25.8394 14.1931
12 22 21 -6.9875 9.2681
12 22 22 -8.3446 3.7156
12 23 12 4.2383 -13.7591
12 23 13 4.4378 -5.2612
12 23 14 12.6400 -2.4586
12 23 15 -7.1265 9.9324
12 23 16 7.5725 3.5619
12 23 17 -21.9918 6.2343
12 23 18 13.5099 17.1577
12 23 19 -19.5042 -55.7177
12 23 20 -22.4286 -18.5254
12 23 21 13.5280 -5.1814
12 23 22 1.2466 13.3190
12 23 23 -6.2497 4.0834
12 24 12 20.7473 -2.2260
12 24 13 14.8374 -1.5030
12 24 14 -3.5167 5.4642
12 24 15 -20.4507 6.4892
12 24 16 -0.6662 27.2024
12 24 17 12.6793 22.6563
12 24 18 -3.7358 -4.7172
12 24 19 8.4382 0.0470
12 24 20 11.0761 -0.4240
12 24 21 19.2873 -16.3359
12 24 22 3.6666 -3.0374
12 24 23 -13.6206 20.0603
12 24 24 -4.7826 3.2931
12 25 12 30.3081 21.6821
12 25 13 3.9265 -19.5479
12 25 14 46.9104 14.6342
12 25 15 15.7824 10.2325
12 25 16 -18.0392 33.6410
12 25 17 -2.6961 7.6997
12 25 18 -9.7555 19.5473
12 25 19 -1.5047 7.8734
12 25 20 11.3882 31.7279
12 25 21 12.4946 -18.2466
12 25 22 -10.9964 34.8835
12 25 23 19.1240 -25.0932
12 25 24 15.4406 6.7213
12 25 25 -4.3891 0.7026
12 26 12 -7.8823 9.7785
12 26 13 -13.1103 -13.2175
12 26 14 15.1408 -40.4102
12 26 15 0.1026 20.1557
12 26 16 -3.1822 2.9747
12 26 17 14.2807 -7.0443
12 26 18 6.4876 6.4625
12 26 19 12.1528 8.9348
12 26 20 -0.0458 23.1185
12 26 21 -36.7137 8.3565
12 26 22 23.7843 27.6094
12 26 23 14.5681 19.9474
12 26 24 3.0109 6.0002
12 26 25 11.1477 14.6508
12 26 26 17.4860 -1.2287
12 27 12 -5.1617 6.7236
12 27 13 13.1317 -6.6226
12 27 14 -46.0289 6.6821
12 27 15 -22.9991 -1.5086
12 27 16 -12.3032 22.7623
12 27 17 -11.3316 -20.4693
12 27 18 -34.5621 -17.5057
12 27 19 18.7191 4.5474
12 27 20 10.0462 12.6821
12 27 21 -2.5899 -21.2358
12 27 22 14.6670 -1.5908
12 27 23 0.0705 1.5089
12 27 24 -20.2506 -0.1268
12 27 25 9.9733 4.8925
12 28 12 -34.4882 1.1777
12 28 13 -11.4040 -0.9839
12 28 14 35.7266 -0.9151
12 28 15 -11.0536 7.3566
12 28 16 19.5867 14.2854
12 28 17 -4.2645 1.2049
12 28 18 0.2524 -3.2964
12 28 19 14.0881 -17.8393
12 28 20 25.2537 12.6301
12 28 21 -33.2636 2.2708
12 28 22 0.1760 3.0656
12 28 23 -8.7368 1.1264
12 28 24 -18.8470 -4.1699
12 29 12 10.0617 1.4981
12 29 13 15.4619 -27.8787
12 29 14 41.9488 46.8269
12 29 15 8.8385 -0.3431
12 29 16 -5.3965 -42.2298
12 29 17 13.9223 9.8705
12 29 18 6.2252 14.6354
12 29 19 31.2053 4.7536
12 29 20 5.7532 -9.9553
12 29 21 -19.2897 11.1695
12 29 22 17.2928 3.7177
12 29 23 13.8829 -11.2940
12 30 12 -2.8593 -15.2473
12 30 13 -8.6068 -9.4397
12 30 14 17.2693 -14.9043
12 30 15 -3.7703 -19.2544
12 30 16 -10.3475 18.6957
12 30 17 0.5909 -5.0811
12 30 18 -30.8275 -15.2922
12 30 19 1.2728 13.8811
12 30 20 5.0810 13.3690
12 30 21 -6.4441 1.3257
12 30 22 3.1996 0.7320
12 31 12 -4.7863 7.4824
12 31 13 -19.2450 -5.5264
12 31 14 19.5352 -0.6962
12 31 15 5.2257 14.4022
12 31 16 -19.2838 -1.4407
12 31 17 -1.5086 -0.5886
12 31 18 -2.5578 -1.1200
12 31 19 4.9398 1.1047
12 31 20 -3.1520 11.5900
12 32 12 -1.7374 -1.9763
12 32 13 -3.4788 -20.7405
12 32 14 3.1844 -11.7061
12 32 15 13.2771 9.6899
12 32 16 1.7290 2.9045
12 32 17 16.4681 -15.1326
12 32 18 3.3230 9.4150
12 32 19 2.0393 -8.4629
12 33 12 4.7022 6.1261
12 33 13 10.9879 1.4762
12 33 14 11.3534 27.5263
12 33 15 -12.4637 26.0653
12 33 16 -7.8652 -1.5458
12 33 17 14.1025 9.2478
12 34 12 0.6862 1.4333
12 34 13 -3.1406 16.3003
12 34 14 -3.9805 9.5156
12 34 15 -10.4094 2.5994
12 35 12 11.3343 -12.6921
13 13 13 33.1420 -27.0487
13 14 13 8.7255 5.0758
13 14 14 -3.5035 -6.6473
13 15 13 4.2117 3.8512
13 15 14 -6.5157 8.6606
13 15 15 0.6978 0.7647
13 16 13 4.0559 16.2568
13 16 14 -0.8347 -12.0663
13 16 15 9.3546 -17.7638
13 16 16 -10.4351 -8.0092
13 17 13 -5.0591 7.0006
13 17 14 -6.8689 17.1296
13 17 15 -22.1710 -7.7742
13 17 16 -11.5634 11.5242
13 17 17 12.7835 -15.1556
13 18 13 -19.1388 3.5526
13 18 14 -4.9667 -6.8060
13 18 15 15.3971 -18.8765
13 18 16 -3.4432 -19.3186
13 18 17 22.6069 -1.5412
13 18 18 8.0632 9.2737
13 19 13 10.1318 3.9686
13 19 14 19.2878 -3.9426
13 19 15 9.5308 35.4835
13 19 16 24.7513 -0.4287
13 19 17 1.0381 -3.3140
13 19 18 32.7292 33.3644
13 19 19 7.5521 -14.9578
13 20 13 -4.0909 -0.1881
13 20 14 2.8281 15.6899
13 20 15 3.4629 2.3397
13 20 16 -15.2161 -8.0976
13 20 17 -0.7843 -28.4613
13 20 18 12.1199 19.4176
13 20 19 10.2164 -21.7969
13 20 20 6.7081 7.3254
13 21 13 -4.0739 -5.0618
13 21 14 -5.6748 0.1882
13 21 15 -2.7325 -9.4396
13 21 16 17.0119 7.7419
13 21 17 -20.6530 -31.1811
13 21 18 -21.7885 -18.3948
13 21 19 5.4487 4.6311
13 21 20 14.8373 -14.4599
13 21 21 2.5313 4.1518
13 22 13 -21.0779 -2.1503
13 22 14 19.9044 -14.4951
13 22 15 17.9719 -24.7333
13 22 16 -0.7641 1.5312
13 22 17 -16.8616 9.8551
13 22 18 15.2932 4.8229
13 22 19 23.0339 -19.9605
13 22 20 -8.8924 -1.8059
13 22 21 -5.4670 -0.5874
13 22 22 9.5207 14.1016
13 23 13 -6.2258 -7.5077
13 23 14 33.1213 -22.8494
13 23 15 20.0144 26.1577
13 23 16 -5.6372 1.9651
13 23 17 12.9578 -2.2971
13 23 18 2.9176 32.6081
13 23 19 -15.2956 -5.5477
13 23 20 12.1438 9.1041
13 23 21 -5.3711 -37.6528
13 23 22 -6.8229 -39.2183
13 23 23 7.0828 2.4819
13 24 13 1.2293 -9.6610
13 24 14 -12.6544 35.6295
13 24 15 -16.1312 10.8672
13 24 16 -18.9369 61.1220
13 24 17 36.6018 -22.5748
13 24 18 -7.8128 -1.0987
13 24 19 -24.0936 -13.7166
13 24 20 -7.9276 -2.9459
13 24 21 5.0059 -11.8765
13 24 22 -19.1824 24.5731
13 24 23 -1.7555 0.8656
13 24 24 -13.0479 -4.5178
13 25 13 -23.2306 17.9122
13 25 14 -8.5431 -22.0740
13 25 15 -2.7530 -4.0346
13 25 16 19.9607 8.1523
13 25 17 -8.0308 18.4142
13 25 18 26.5843 18.9105
13 25 19 -40.3680 -4.1992
13 25 20 -8.0484 -37.3165
13 25 21 1.0309 5.9011
13 25 22 -4.0612 3.4465
13 25 23 5.6491 -20.4505
13 25 24 -29.4915 -10.7845
13 25 25 -7.4833 14.6405
13 26 13 14.3339 -4.6244
13 26 14 -29.1828 -29.4369
13 26 15 -13.7493 14.6300
13 26 16 12.0369 -12.8111
13 26 17 2.9998 -39.9128
13 26 18 14.0306 -15.1996
13 26 19 -5.6863 9.8980
13 26 20 9.9423 21.5973
13 26 21 23.2273 2.4135
13 26 22 -31.4735 -10.1366
13 26 23 -7.4687 -17.2117
13 26 24 -3.3840 27.9046
13 26 25 -12.7905 -4.9629
13 26 26 -11.2716 -7.0219
13 27 13 7.9258 13.4776
13 27 14 -8.5407 0.8578
13 27 15 -19.3344 -39.7063
13 27 16 42.1982 0.2463
13 27 17 -7.6876 4.7415
13 27 18 -25.7574 -1.2629
13 27 19 19.9788 28.3727
13 27 20 -13.3526 4.6737
13 27 21 9.8674 3.2075
13 27 22 0.0592 10.3173
13 27 23 18.0593 -9.9921
13 27 24 -1.9277 -3.5271
13 27 25 19.0037 -14.6054
13 28 13 6.9593 11.8549
13 28 14 -1.1838 4.8685
13 28 15 10.6228 6.8579
13 28 16 -10.6165 -13.6233
13 28 17 3.3637 19.0657
13 28 18 -9.7252 -10.4031
13 28 19 -8.1625 -11.8143
13 28 20 -24.8147 36.0460
13 28 21 -14.2002 -4.2183
13 28 22 26.5757 12.8798
13 28 23 15.1090 -1.0343
13 28 24 8.3111 4.7146
13 29 13 -3.8787 0.9792
13 29 14 56.0698 3.3380
13 29 15 -18.3112 15.0811
13 29 16 -13.4968 8.7559
13 29 17 8.6767 -15.3340
13 29 18 -25.1102 -11.0104
13 29 19 -2.0893 2.0543
13 29 20 19.1754 0.4922
13 29 21 -3.3761 -16.7229
13 29 22 7.5996 9.4940
13 30 13 18.4919 -1.3567
13 30 14 0.0132 -13.2769
13 30 15 -6.9872 -19.7465
13 30 16 5.0591 -22.6611
13 30 17 16.3180 -11.9870
13 30 18 -9.8717 1.7027
13 30 19 -7.9606 7.8663
13 30 20 -32.7940 4.1057
13 30 21 9.0727 -23.3380
13 31 13 3.6838 4.9620
13 31 14 12.4012 38.2790
13 31 15 -5.4401 -8.6340
13 31 16 -23.8752 8.1921
13 31 17 11.8561 0.8011
13 31 18 4.6132 2.5605
13 31 19 1.7890 -3.2942
13 31 20 6.7828 0.0984
13 32 13 0.3365 -5.4768
13 32 14 1.2264 -6.6076
13 32 15 15.9091 -7.8379
13 32 16 -0.3427 2.9212
13 32 17 -11.9177 7.3574
13 32 18 -2.5168 -4.2567
13 33 13 1.3766 -6.6867
13 33 14 -3.5210 16.9359
13 33 15 -5.8285 7.2489
13 33 16 -0.5273 4.7745
13 34 13 -26.1521 1.0879
13 34 14 -6.6793 5.8223
14 14 14 6.9916 9.3003
14 15 14 10.3338 1.8889
14 15 15 -10.8771 4.0232
14 16 14 2.9861 0.1365
14 16 15 -19.8033 -0.1017
14 16 16 -2.2550 11.0046
14 17 14 6.2662 10.7346
14 17 15 23.9146 -1.6573
14 17 16 5.7234 2.6064
14 17 17 2.8596 3.9473
14 18 14 -2.1349 13.9506
14 18 15 0.2203 3.2802
14 18 16 -2.8692 20.1799
14 18 17 17.4020 1.7585
14 18 18 -5.5964 -5.9018
14 19 14 8.1944 -5.4246
14 19 15 3.5219 14.8360
14 19 16 5.2063 24.6331
14 19 17 -4.5818 8.5586
14 19 18 -17.7159 11.5502
14 19 19 -34.2059 -1.5678
14 20 14 5.2947 -9.1489
14 20 15 21.7174 23.7389
14 20 16 17.3493 -0.6332
14 20 17 4.4038 -2.6014
14 20 18 -9.4078 17.4309
14 20 19 -21.5145 -27.4704
14 20 20 -1.2840 1.7449
14 21 14 -3.1605 -1.4607
14 21 15 14.6885 5.2729
14 21 16 -26.4018 -30.9520
14 21 17 16.6878 -14.2353
14 21 18 -1.2982 22.9811
14 21 19 -1.1417 -7.4996
14 21 20 -0.0592 24.6708
14 21 21 54.5842 -2.5645
14 22 14 -2.8091 1.3538
14 22 15 -19.9159 5.4159
14 22 16 0.3956 -9.9473
14 22 17 11.5009 24.7534
14 22 18 -0.8317 15.2280
14 22 19 17.1292 3.4822
14 22 20 6.5164 27.7583
14 22 21 -12.8750 -5.0131
14 22 22 5.1645 -10.7667
14 23 14 11.6152 -12.1628
14 23 15 -6.8270 -10.2278
14 23 16 17.2220 22.3972
14 23 17 5.5349 -4.2765
14 23 18 11.9461 43.2808
14 23 19 -19.6874 -37.0115
14 23 20 16.7291 10.5732
14 23 21 -15.0616 0.2379
14 23 22 4.2750 -9.0971
14 23 23 -4.2532 0.9797
14 24 14 22.2514 -2.9043
14 24 15 -41.1220 -20.0813
14 24 16 4.8911 -24.5296
14 24 17 26.6176 -13.8295
14 24 18 26.4183 -15.8047
14 24 19 10.5201 -31.2167
14 24 20 -4.8766 14.7924
14 24 21 -4.6784 14.2022
14 24 22 -0.8205 5.4661
14 24 23 16.8829 -8.3145
14 24 24 6.1819 -0.3023
14 25 14 11.1861 3.3771
14 25 15 8.6855 -14.0314
14 25 16 0.4278 -22.3909
14 25 17 17.5837 -6.3895
14 25 18 19.0771 -5.3320
14 25 19 25.3137 0.0283
14 25 20 -14.0969 17.7642
14 25 21 35.2691 13.8794
14 25 22 4.8270 -20.4334
14 25 23 8.9303 11.3692
14 25 24 18.5315 0.8311
14 25 25 23.6266 2.5309
14 26 14 -2.1827 11.0802
14 26 15 -10.8590 -9.8668
14 26 16 1.8905 6.1920
14 26 17 -5.4018 -20.1220
14 26 18 40.2885 -22.7610
14 26 19 -1.2403 -0.0495
14 26 20 -1.3921 -25.2973
14 26 21 28.7259 14.1303
14 26 22 -12.6722 -1.2036
14 26 23 9.9726 11.3740
14 26 24 -3.7087 12.3685
14 26 25 9.2207 7.8526
14 27 14 4.5925 -1.0146
14 27 15 4.2741 -16.4108
14 27 16 -6.8591 13.7822
14 27 17 33.0225 7.9650
14 27 18 14.0109 6.9547
14 27 19 -5.2312 0.7712
14 27 20 -17.8138 -14.6867
14 27 21 -15.4192 8.2373
14 27 22 -18.8960 20.4196
14 27 23 -3.4042 -7.9284
14 27 24 -7.8748 1.0092
14 28 14 -9.0073 1.8183
14 28 15 22.1610 -3.5098
14 28 16 -1.5967 -22.0121
14 28 17 -9.2524 17.2903
14 28 18 -0.6232 -5.4625
14 28 19 1.1330 -9.5311
14 28 20 -28.2583 -4.0657
14 28 21 13.1902 4.6156
14 28 22 -9.8324 -9.1199
14 28 23 15.6667 -7.5541
14 29 14 18.1144 10.5141
14 29 15 -13.9298 9.3861
14 29 16 36.7370 0.5130
14 29 17 -34.5146 -14.4969
14 29 18 12.9011 35.3210
14 29 19 -0.1200 -7.2281
14 29 20 20.5870 3.2936
14 29 21 5.5983 -10.5572
14 29 22 6.3113 -9.8099
14 30 14 -3.0250 31.5478
14 30 15 -3.9269 -17.8285
14 30 16 -0.3638 1.0406
14 30 17 8.6525 -15.2331
14 30 18 8.9204 -13.3571
14 30 19 -0.0043 1.2855
14 30 20 6.1770 6.5353
14 31 14 9.0320 -7.8456
14 31 15 -8.7263 -11.0489
14 31 16 20.0996 25.5905
14 31 17 17.2647 5.1863
14 31 18 -13.5933 -9.0702
14 31 19 13.9492 13.1663
14 32 14 -27.7509 -1.8258
14 32 15 3.1564 -6.3015
14 32 16 -13.9387 1.3836
14 32 17 19.8782 -1.4793
14 33 14 -5.2303 -2.6750
14 33 15 5.5593 -3.4050
15 15 15 15.6428 6.2666
15 16 15 4.9283 -29.9973
15 16 16 -7.4816 13.5785
15 17 15 2.1641 -6.6963
15 17 16 -6.7142 -7.1512
15 17 17 32.6896 33.5170
15 18 15 -34.3701 7.0871
15 18 16 3.3744 14.1216
15 18 17 23.6412 8.4138
15 18 18 -1.8531 2.5857
15 19 15 -11.2814 -12.5446
15 19 16 -13.7378 5.4542
15 19 17 50.4510 63.0889
15 19 18 34.1893 27.5721
15 19 19 -15.2255 -12.3831
15 20 15 0.0406 -1.1053
15 20 16 -29.9812 -9.9093
15 20 17 28.2305 -57.9922
15 20 18 12.1006 6.5490
15 20 19 38.4275 -5.4503
15 20 20 23.9611 -28.6168
15 21 15 -0.2645 -15.3739
15 21 16 -0.5093 -10.2198
15 21 17 -32.8600 5.7702
15 21 18 39.9927 -6.6402
15 21 19 16.9581 14.8628
15 21 20 11.6558 -5.0005
15 21 21 6.3006 1.5946
15 22 15 -12.0688 0.9953
15 22 16 14.7890 -5.2092
15 22 17 -28.6022 15.0860
15 22 18 -0.9806 22.0412
15 22 19 34.2017 33.8192
15 22 20 -37.8906 29.3017
15 22 21 -8.1071 9.7357
15 22 22 1.8820 -6.7137
15 23 15 13.7181 11.9734
15 23 16 -28.2106 6.3220
15 23 17 -36.0263 -35.1699
15 23 18 -10.7049 -21.7324
15 23 19 15.7058 4.3303
15 23 20 -18.4810 18.7527
15 23 21 -12.7520 5.6261
15 23 22 13.1168 11.9397
15 23 23 -6.4146 -9.5320
15 24 15 4.0096 -4.0639
15 24 16 -1.8600 -5.4623
15 24 17 -17.3508 -22.1112
15 24 18 -33.1461 -13.9895
15 24 19 -8.6571 -37.3865
15 24 20 13.9085 -0.2181
15 24 21 -6.0161 -0.2880
15 24 22 -18.1355 -2.5379
15 24 23 -15.2484 -8.6162
15 24 24 -7.9303 7.9333
15 25 15 -5.7488 5.3003
15 25 16 25.9189 19.7744
15 25 17 5.0008 6.1715
15 25 18 5.6444 37.5953
15 25 19 12.5855 23.7473
15 25 20 -1.9134 -4.0636
15 25 21 4.3767 18.9602
15 25 22 -36.0987 13.5789
15 25 23 7.8203 11.1923
15 25 24 -23.0518 -2.3010
15 25 25 15.3629 11.8405
15 26 15 -25.6607 -1.8637
15 26 16 -3.5035 27.0071
15 26 17 -46.5165 -13.1083
15 26 18 0.3920 -8.7550
15 26 19 -6.1084 -1.5025
15 26 20 14.8180 -10.9869
15 26 21 -29.7325 6.3716
15 26 22 2.1972 -2.5721
15 26 23 0.2135 -0.6798
15 26 24 -6.6298 5.4570
15 26 25 -1.5163 0.3905
15 27 15 -26.8091 -22.9581
15 27 16 5.4188 -13.6985
15 27 17 -39.9731 -0.6699
15 27 18 -33.5643 7.7172
15 27 19 -10.3453 27.9071
15 27 20 -8.1310 -12.2803
15 27 21 8.6960 24.5219
15 27 22 1.7162 -6.0137
15 27 23 1.2456 25.3162
15 27 24 -4.4519 -9.0743
15 28 15 5.2499 -2.7976
15 28 16 -9.6956 4.8074
15 28 17 23.3774 24.4128
15 28 18 -13.9803 8.8425
15 28 19 8.3180 21.8027
15 28 20 -12.0706 -6.8083
15 28 21 4.6808 -5.3050
15 28 22 15.8584 5.7940
15 29 15 -9.1254 10.1807
15 29 16 2.1292 35.9470
15 29 17 9.4843 -1.7968
15 29 18 -2.2655 13.2120
15 29 19 3.6502 -1.6721
15 29 20 -7.3153 -7.0350
15 29 21 10.8601 -2.5436
15 30 15 -164.4831 -0.2923
15 30 16 -5.8078 -3.3176
15 30 17 11.7744 -1.3694
15 30 18 -0.9510 7.4687
15 30 19 10.3316 -4.8053
15 30 20 7.6540 -22.6056
15 31 15 -5.0747 -0.0244
15 31 16 -13.7145 -7.3255
15 31 17 -4.2930 13.6419
15 31 18 1.6471 8.9130
15 32 15 -0.5020 -25.8960
15 32 16 12.4240 -4.1872
16 16 16 2.0840 -5.3717
16 17 16 -7.6401 -6.7206
16 17 17 2.0154 4.6120
16 18 16 -5.3358 -15.0346
16 18 17 -26.5246 -9.6982
16 18 18 7.0468 -3.8396
16 19 16 -5.8136 13.4398
16 19 17 6.7237 12.8207
16 19 18 -37.4057 -35.2753
16 19 19 0.5134 1.5772
16 20 16 10.4119 -6.3155
16 20 17 -27.7821 -7.3412
16 20 18 52.0928 2.2130
16 20 19 -16.3269 -21.2596
16 20 20 -5.5603 -2.0223
16 21 16 5.1789 5.5934
16 21 17 -13.9349 -33.4512
16 21 18 -24.2162 -13.3638
16 21 19 -20.0253 35.2839
16 21 20 15.9727 8.0777
16 21 21 -1.5313 -2.0936
16 22 16 -5.5676 -4.0486
16 22 17 22.8799 3.4484
16 22 18 1.8751 -4.5526
16 22 19 10.5426 14.1048
16 22 20 -31.7173 -34.1190
16 22 21 -9.1050 32.0717
16 22 22 -25.2469 -2.6211
16 23 16 2.5983 0.1798
16 23 17 -13.6577 -5.8832
16 23 18 -18.6103 -2.3575
16 23 19 28.5035 16.6578
16 23 20 -29.8903 -12.9686
16 23 21 5.8706 9.6583
16 23 22 24.4863 1.2828
16 23 23 -1.0467 -7.0397
16 24 16 5.6464 -1.2268
16 24 17 3.2468 -15.5167
16 24 18 18.6050 -19.7744
16 24 19 -16.6464 6.9675
16 24 20 36.6521 -11.0622
16 24 21 12.7659 -24.0595
16 24 22 -9.6525 8.7268
16 24 23 5.9581 -8.0690
16 24 24 -8.5303 2.7698
16 25 16 13.1780 8.4187
16 25 17 10.9138 -19.1846
16 25 18 27.5080 14.5058
16 25 19 19.7564 -19.6512
16 25 20 -3.2574 -8.8352
16 25 21 -13.3249 23.4390
16 25 22 22.9367 4.5378
16 25 23 -0.1541 -13.1803
16 25 24 6.7751 23.3953
16 25 25 1.3166 -34.6343
16 26 16 1.6040 29.9749
16 26 17 -29.7475 18.4917
16 26 18 -4.3177 -45.0207
16 26 19 -27.0393 3.3809
16 26 20 31.1909 -2.8144
16 26 21 19.7399 -4.0357
16 26 22 -5.9615 -6.1017
16 26 23 4.4206 0.7747
16 26 24 -14.0316 -9.6150
16 27 16 17.7162 -14.9226
16 27 17 2.6058 8.9097
16 27 18 -15.1858 -14.0630
16 27 19 -8.6261 3.8492
16 27 20 -16.4476 -14.0240
16 27 21 -6.5188 -8.5742
16 27 22 -2.7015 -10.1581
16 27 23 3.1087 1.2438
16 28 16 -18.8473 4.6141
16 28 17 -6.8530 -12.4210
16 28 18 -15.4484 7.3859
16 28 19 15.7217 -11.8054
16 28 20 0.9545 3.0779
16 28 21 -1.5005 10.7808
16 28 22 22.4770 -12.2614
16 29 16 11.0001 8.5517
16 29 17 1.7179 21.4247
16 29 18 11.4336 -4.0813
16 29 19 -10.0505 23.6923
16 29 20 0.7903 -3.8442
16 30 16 -2.5971 -23.4886
16 30 17 1.8429 -12.6782
16 30 18 15.3831 3.3796
16 30 19 3.1075 5.7485
16 31 16 3.1609 -2.1826
16 31 17 20.4704 8.6732
17 17 17 -10.4842 0.0800
17 18 17 27.8807 1.0407
17 18 18 -11.6804 -15.9080
17 19 17 -9.1968 -6.7528
17 19 18 -9.5646 5.1397
17 19 19 1.7151 -6.4761
17 20 17 3.6560 11.6831
17 20 18 14.5266 4.3227
17 20 19 14.6761 -6.5735
17 20 20 -2.3698 -6.0556
17 21 17 -3.4686 -5.7547
17 21 18 8.2852 -10.0315
17 21 19 -1.6055 10.4694
17 21 20 -5.6613 -22.4547
17 21 21 -26.6115 24.4214
17 22 17 -9.5421 -0.8937
17 22 18 27.0247 15.5841
17 22 19 -22.7839 -18.4572
17 22 20 8.8199 8.9875
17 22 21 -2.9102 -5.8868
17 22 22 0.9504 -1.9832
17 23 17 10.8827 7.5429
17 23 18 6.8480 -37.1736
17 23 19 17.4066 -4.5616
17 23 20 6.7600 -9.8447
17 23 21 11.6527 -13.2832
17 23 22 7.0672 -8.6071
17 23 23 -8.5980 10.0145
17 24 17 1.1702 38.8077
17 24 18 -9.2551 -5.8957
17 24 19 -3.0543 20.7201
17 24 20 -10.5477 4.4855
17 24 21 25.0211 -9.9208
17 24 22 -9.3769 -12.8735
17 24 23 -10.1947 -12.9699
17 24 24 3.2793 1.6792
17 25 17 -14.9350 19.2222
17 25 18 7.4780 -5.4532
17 25 19 -12.6775 -15.7351
17 25 20 -14.1944 -8.3884
17 25 21 -17.3097 -11.4720
17 25 22 -14.0038 -8.6737
17 25 23 -22.3991 19.6381
17 25 24 -4.0961 4.5882
17 26 17 7.6074 -0.4819
17 26 18 -14.1409 10.1428
17 26 19 17.8458 -6.8031
17 26 20 -4.2482 -0.2980
17 26 21 -6.8613 -14.5978
17 26 22 -1.9139 -0.9114
17 26 23 9.5879 5.0414
17 27 17 -4.8090 -2.7159
17 27 18 10.6711 14.6382
17 27 19 -23.2254 -23.6446
17 27 20 8.3790 11.6581
17 27 21 -19.5625 5.5192
17 27 22 8.0957 -3.5586
17 28 17 0.5407 20.9791
17 28 18 26.7907 1.1223
17 28 19 -26.4462 1.7451
17 28 20 5.9970 -14.7370
17 28 21 6.3930 10.6872
17 29 17 17.7019 -12.7709
17 29 18 25.2648 -8.8034
17 29 19 -4.8091 7.1827
17 29 20 0.7186 5.2879
17 30 17 -15.3983 0.2656
17 30 18 4.6944 -14.9942
18 18 18 -8.9704 -6.7808
18 19 18 -3.5379 4.4819
18 19 19 -9.6851 -3.5472
18 20 18 -12.4058 -3.0431
18 20 19 11.2549 -7.9194
18 20 20 1.0055 5.4843
18 21 18 -6.0123 -12.6639
18 21 19 -8.8744 8.7847
18 21 20 -26.4390 16.8974
18 21 21 14.2677 -3.4753
18 22 18 0.2611 52.7044
18 22 19 -6.7399 11.4364
18 22 20 0.2518 21.8361
18 22 21 1.0995 18.8832
18 22 22 1.5167 16.7777
18 23 18 -1.3971 -0.0757
18 23 19 1.5570 -14.3649
18 23 20 -13.4429 15.3581
18 23 21 7.0353 12.0828
18 23 22 8.6307 14.7837
18 23 23 -4.9982 -1.0838
18 24 18 -5.5245 -2.8887
18 24 19 -13.1997 3.9978
18 24 20 7.9779 -8.2024
18 24 21 15.1891 -2.3828
18 24 22 20.5593 1.8019
18 24 23 4.3784 -2.1158
18 24 24 2.4099 -6.7285
18 25 18 10.8472 10.8290
18 25 19 -4.3506 22.4704
18 25 20 4.2871 -10.2674
18 25 21 -14.9819 0.8544
18 25 22 6.5703 27.1047
18 25 23 2.2562 -7.2711
18 25 24 -2.5010 -6.8760
18 26 18 3.5421 2.0385
18 26 19 -3.1367 -4.6872
18 26 20 -1.3389 -8.0531
18 26 21 -6.2403 -17.7324
18 26 22 13.7997 -14.8133
18 26 23 -4.5775 7.3821
18 27 18 2.6285 -4.9923
18 27 19 16.7373 -3.4897
18 27 20 24.6493 24.2306
18 27 21 -4.2581 -6.8087
18 28 18 16.2372 5.6953
18 28 19 2.0181 11.6546
18 28 20 5.2776 -1.4939
18 29 18 1.8082 3.7694
18 29 19 5.9951 -7.6547
19 19 19 4.2916 10.9476
19 20 19 2.2303 5.4226
19 20 20 -3.8914 1.7056
19 21 19 3.9838 -8.5289
19 21 20 2.3851 -4.2282
19 21 21 4.6474 0.5486
19 22 19 14.5763 -3.8304
19 22 20 9.4666 -7.3283
19 22 21 10.6803 -6.8454
19 22 22 8.0664 -7.2545
19 23 19 -2.7869 -8.2294
19 23 20 -10.9011 -13.7134
19 23 21 8.1010 20.1395
19 23 22 -5.9048 6.0316
19 23 23 -7.3151 -12.3347
19 24 19 -1.1339 -6.1371
19 24 20 -23.1389 -7.3863
19 24 21 -3.6684 3.0416
19 24 22 4.1513 -2.0234
19 24 23 2.5139 -1.7984
19 24 24 13.5564 -6.1875
19 25 19 -0.8165 2.1493
19 25 20 0.8479 -9.4499
19 25 21 -9.2504 13.7557
19 25 22 15.6769 14.7627
19 25 23 1.6661 -5.3091
19 26 19 -4.9505 -1.3858
19 26 20 -2.3180 -5.3422
19 26 21 6.4457 -0.9510
19 26 22 11.2276 2.2196
19 27 19 5.0242 7.2264
19 27 20 3.8196 -4.6160
19 27 21 -6.5932 -2.6884
19 28 19 -5.2501 -16.3303
20 20 20 3.4830 -1.2740
20 21 20 2.8039 -3.2940
20 21 21 1.9022 0.7984
20 22 20 -1.0415 -33.7908
20 22 21 14.7928 -5.5092
20 22 22 6.7802 -1.7322
20 23 20 5.4943 -7.8337
20 23 21 -19.5342 9.4998
20 23 22 -12.6339 -1.6768
20 23 23 5.4290 -2.6960
20 24 20 -23.6259 -1.7787
20 24 21 6.0739 -0.6771
20 24 22 -6.4599 1.4282
20 24 23 0.7113 5.2997
20 25 20 6.6003 8.8824
20 25 21 19.2527 10.0129
20 25 22 -6.0700 15.3871
20 26 20 0.2461 6.6235
20 26 21 -0.7027 -9.4207
20 27 20 -2.2490 -7.5504
21 21 21 12.5609 -16.5080
21 22 21 -12.0186 -3.6470
21 22 22 2.5840 -1.7530
21 23 21 4.5105 4.3072
21 23 22 8.6449 -0.4151
21 23 23 -11.8943 6.3919
21 24 21 -1.8317 -13.1265
21 24 22 3.6821 -8.5174
21 25 21 -9.9379 8.1661
22 22 22 -1.7229 -12.5843
22 23 22 -12.8262 10.3513
0 0 0 0.0 0.0
;
_olex2_submission_special_instructions 'No special instructions were received'
_oxdiff_exptl_absorpt_empirical_details
;
Empirical correction (ABSPACK) includes:
- Absorption correction using spherical harmonics
- Frame scaling
- Detector area scaling
;
_oxdiff_exptl_absorpt_empirical_full_max 1.224
_oxdiff_exptl_absorpt_empirical_full_min 0.854
loop_
_space_group_symop_operation_xyz
'x, y, z'
'-x+1/2, -y, z+1/2'
'-x, y+1/2, -z+1/2'
'x+1/2, -y+1/2, -z'
'z, x, y'
'z+1/2, -x+1/2, -y'
'-z+1/2, -x, y+1/2'
'-z, x+1/2, -y+1/2'
'y, z, x'
'-y, z+1/2, -x+1/2'
'y+1/2, -z+1/2, -x'
'-y+1/2, -z, x+1/2'
'y+1/4, x+3/4, -z+3/4'
'-y+1/4, -x+1/4, -z+1/4'
'y+3/4, -x+3/4, z+1/4'
'-y+3/4, x+1/4, z+3/4'
'x+1/4, z+3/4, -y+3/4'
'-x+3/4, z+1/4, y+3/4'
'-x+1/4, -z+1/4, -y+1/4'
'x+3/4, -z+3/4, y+1/4'
'z+1/4, y+3/4, -x+3/4'
'z+3/4, -y+3/4, x+1/4'
'-z+3/4, y+1/4, x+3/4'
'-z+1/4, -y+1/4, -x+1/4'
loop_
_atom_site_label
_atom_site_type_symbol
_atom_site_fract_x
_atom_site_fract_y
_atom_site_fract_z
_atom_site_U_iso_or_equiv
_atom_site_adp_type
_atom_site_occupancy
_atom_site_site_symmetry_order
_atom_site_calc_flag
_atom_site_refinement_flags_posn
_atom_site_refinement_flags_adp
_atom_site_refinement_flags_occupancy
Zr1 Zr 0.32139(3) 0.79355(3) 0.76481(3) 0.0351(2) Uani 1 1 d . . .
Zr2 Zr 0.22352(3) 0.78039(3) 0.80490(3) 0.0353(2) Uani 1 1 d . . .
O7 O 0.26188(19) 0.8283(2) 0.77062(19) 0.0295(15) Uani 1 1 d . . .
O6 O 0.2818(2) 0.75661(19) 0.79345(17) 0.0280(15) Uani 1 1 d . . .
O9 O 0.21525(18) 0.71525(18) 0.78475(18) 0.021(2) Uani 1 3 d S T P
O12 O 0.5711(2) 0.58093(18) 0.9303(2) 0.0329(16) Uani 1 1 d . . .
O5 O 0.2933(2) 0.7933(2) 0.7067(2) 0.046(3) Uani 1 3 d S T P
O13 O 0.5065(2) 0.6017(2) 0.9341(2) 0.0451(19) Uani 1 1 d . . .
O10 O 0.7268(3) 0.7579(3) 1.1398(2) 0.056(2) Uani 1 1 d . . .
O11 O 0.7613(2) 0.8125(2) 1.1585(2) 0.0453(19) Uani 1 1 d . . .
O8 O 0.1873(3) 0.8373(2) 0.8172(3) 0.053(2) Uani 1 1 d . . .
H8A H 0.1660 0.8380 0.8017 0.079 Uiso 1 1 d GR . .
H8B H 0.2012 0.8586 0.8098 0.079 Uiso 1 1 d GR . .
O1 O 0.3761(3) 0.7733(3) 0.7939(3) 0.065(3) Uani 1 1 d . . .
O4 O 0.3420(3) 0.8590(2) 0.7593(3) 0.060(2) Uani 1 1 d . . .
C25 C 0.7371(3) 0.8075(3) 1.0918(3) 0.038(3) Uani 1 1 d . . .
C24 C 0.7416(5) 0.8482(5) 1.0855(5) 0.073(4) Uani 1 1 d . . .
H24 H 0.7525 0.8648 1.1058 0.087 Uiso 1 1 calc R . .
O3 O 0.3752(3) 0.8020(3) 0.7186(4) 0.086(3) Uani 1 1 d . . .
C17 C 0.5524(3) 0.6497(3) 0.9194(4) 0.040(3) Uani 1 1 d . . .
C29 C 0.5432(4) 0.6086(3) 0.9295(3) 0.0386(18) Uani 1 1 d . . .
C21 C 0.6750(4) 0.8401(4) 0.9592(4) 0.051(3) Uani 1 1 d . . .
H21 H 0.6636 0.8172 0.9715 0.062 Uiso 1 1 calc R . .
C27 C 0.7204(4) 0.7978(4) 1.0203(4) 0.061(4) Uani 1 1 d . . .
H27 H 0.7140 0.7804 0.9989 0.073 Uiso 1 1 calc R . .
C00M C 0.7219(4) 0.8389(4) 1.0140(4) 0.052(3) Uani 1 1 d . . .
C22 C 0.7057(4) 0.8582(4) 0.9749(4) 0.067(4) Uani 1 1 d . . .
C28 C 0.7412(4) 0.7911(3) 1.1317(3) 0.0386(18) Uani 1 1 d . . .
C2 C 0.4442(5) 0.7626(5) 0.8070(6) 0.084(5) Uani 1 1 d . . .
O2 O 0.4072(3) 0.7196(4) 0.7544(4) 0.094(4) Uani 1 1 d . U .
C26 C 0.7283(3) 0.7819(3) 1.0592(3) 0.033(2) Uani 1 1 d . . .
H26 H 0.7278 0.7538 1.0632 0.039 Uiso 1 1 calc R . .
C15 C 0.5312(4) 0.7184(4) 0.9129(4) 0.056(3) Uani 1 1 d . . .
H15 H 0.5113 0.7381 0.9172 0.068 Uiso 1 1 calc R . .
C23 C 0.7292(4) 0.8654(4) 1.0468(4) 0.058(3) Uani 1 1 d . . .
H23 H 0.7261 0.8935 1.0437 0.070 Uiso 1 1 calc R . .
C18 C 0.5945(4) 0.6599(4) 0.9103(4) 0.057(3) Uani 1 1 d . . .
H18 H 0.6152 0.6405 0.9112 0.069 Uiso 1 1 calc R . .
C16 C 0.5229(4) 0.6807(4) 0.9208(4) 0.055(3) Uani 1 1 d . . .
H16 H 0.4963 0.6738 0.9277 0.065 Uiso 1 1 calc R . .
C12 C 0.6131(4) 0.7909(4) 0.9106(4) 0.056(3) Uani 1 1 d . . .
H12 H 0.6278 0.7764 0.9301 0.068 Uiso 1 1 calc R . .
C5 C 0.5165(5) 0.7855(4) 0.8435(4) 0.061(4) Uani 1 1 d . . .
C9 C 0.5674(5) 0.8390(5) 0.8459(5) 0.078(5) Uani 1 1 d . . .
H9 H 0.5532 0.8520 0.8250 0.094 Uiso 1 1 calc R . .
C8 C 0.5560(4) 0.8011(4) 0.8614(5) 0.061(4) Uani 1 1 d . . .
C20 C 0.6578(5) 0.8572(4) 0.9199(4) 0.061(4) Uani 1 1 d . . .
C14 C 0.5704(4) 0.7306(4) 0.8977(4) 0.053(3) Uani 1 1 d . . .
C11 C 0.6223(5) 0.8369(5) 0.8985(6) 0.093(6) Uani 1 1 d . . .
C19 C 0.6024(5) 0.7008(4) 0.9003(5) 0.071(4) Uani 1 1 d . . .
H19 H 0.6291 0.7088 0.8951 0.085 Uiso 1 1 calc R . .
C4 C 0.4813(4) 0.8054(4) 0.8494(4) 0.057(3) Uani 1 1 d . . .
H4 H 0.4825 0.8272 0.8676 0.068 Uiso 1 1 calc R . .
C13 C 0.5787(5) 0.7738(5) 0.8874(5) 0.077(5) Uani 1 1 d . . .
C3 C 0.4430(5) 0.7979(5) 0.8320(4) 0.066(4) Uani 1 1 d . . .
H3 H 0.4199 0.8139 0.8363 0.079 Uiso 1 1 calc R . .
C7 C 0.4788(4) 0.7374(4) 0.8027(4) 0.059(4) Uani 1 1 d . . .
H7 H 0.4771 0.7126 0.7889 0.071 Uiso 1 1 calc R . .
C6 C 0.5176(4) 0.7512(4) 0.8207(4) 0.064(4) Uani 1 1 d . . .
H6 H 0.5417 0.7369 0.8165 0.077 Uiso 1 1 calc R . .
C10 C 0.6015(5) 0.8556(4) 0.8642(5) 0.067(4) Uani 1 1 d . . .
C1 C 0.4045(7) 0.7491(7) 0.7887(7) 0.114(7) Uani 1 1 d . U .
loop_
_atom_site_aniso_label
_atom_site_aniso_U_11
_atom_site_aniso_U_22
_atom_site_aniso_U_33
_atom_site_aniso_U_23
_atom_site_aniso_U_13
_atom_site_aniso_U_12
Zr1 0.0333(5) 0.0353(5) 0.0367(5) -0.0029(4) -0.0026(4) 0.0004(4)
Zr2 0.0346(5) 0.0383(5) 0.0331(5) -0.0026(4) 0.0010(4) 0.0029(4)
O7 0.026(3) 0.037(4) 0.025(3) -0.003(3) -0.001(3) 0.012(3)
O6 0.039(4) 0.029(3) 0.017(3) 0.003(3) 0.001(3) 0.005(3)
O9 0.021(2) 0.021(2) 0.021(2) -0.007(3) -0.007(3) 0.007(3)
O12 0.039(4) 0.019(3) 0.040(4) 0.009(3) -0.001(3) 0.000(3)
O5 0.046(3) 0.046(3) 0.046(3) -0.006(4) -0.006(4) 0.006(4)
O13 0.036(4) 0.052(5) 0.047(5) 0.009(4) 0.003(4) -0.007(4)
O10 0.061(5) 0.068(6) 0.039(4) 0.017(4) -0.004(4) -0.018(5)
O11 0.058(5) 0.042(4) 0.036(4) 0.006(4) -0.012(4) 0.003(4)
O8 0.053(5) 0.043(4) 0.062(5) -0.011(4) 0.001(4) 0.019(4)
O1 0.050(5) 0.066(6) 0.080(7) 0.000(5) -0.022(5) 0.012(5)
O4 0.062(6) 0.040(5) 0.077(6) 0.003(5) -0.002(5) -0.007(4)
C25 0.033(6) 0.039(6) 0.041(6) 0.003(5) -0.001(5) 0.004(5)
C24 0.077(11) 0.076(11) 0.065(9) 0.012(9) -0.006(9) 0.007(9)
O3 0.066(6) 0.096(8) 0.098(8) 0.006(7) 0.027(6) -0.012(6)
C17 0.034(6) 0.038(6) 0.048(7) -0.007(5) -0.006(5) -0.005(5)
C29 0.048(5) 0.037(4) 0.030(4) 0.014(4) 0.004(4) 0.004(4)
C21 0.057(8) 0.048(7) 0.049(7) 0.009(6) -0.006(7) -0.002(6)
C27 0.065(9) 0.059(8) 0.059(8) 0.010(7) -0.010(7) -0.002(7)
C00M 0.053(8) 0.049(7) 0.053(8) 0.003(6) -0.007(7) 0.001(6)
C22 0.068(9) 0.073(10) 0.061(9) 0.000(8) -0.028(8) -0.018(8)
C28 0.048(5) 0.037(4) 0.030(4) 0.014(4) 0.004(4) 0.004(4)
C2 0.053(9) 0.086(12) 0.113(14) 0.005(11) -0.012(9) -0.003(9)
O2 0.083(7) 0.092(7) 0.108(8) -0.016(7) -0.006(6) 0.003(6)
C26 0.033(6) 0.036(6) 0.029(5) 0.000(5) -0.004(5) 0.001(5)
C15 0.061(8) 0.046(7) 0.062(8) 0.006(7) -0.007(7) -0.010(7)
C23 0.062(9) 0.056(8) 0.057(8) -0.001(7) 0.004(7) -0.009(7)
C18 0.061(9) 0.042(7) 0.069(9) 0.002(7) -0.005(7) -0.001(7)
C16 0.056(8) 0.050(7) 0.057(8) 0.004(7) 0.004(7) -0.007(7)
C12 0.050(8) 0.060(8) 0.060(8) 0.010(7) -0.007(7) -0.004(7)
C5 0.073(10) 0.048(8) 0.063(9) -0.006(7) -0.012(8) 0.001(8)
C9 0.081(11) 0.070(10) 0.083(11) 0.003(9) -0.032(10) -0.010(9)
C8 0.050(8) 0.051(8) 0.084(10) 0.004(8) -0.019(8) -0.015(7)
C20 0.074(10) 0.056(8) 0.052(8) 0.008(7) -0.016(7) -0.003(7)
C14 0.055(8) 0.046(7) 0.058(8) 0.010(7) -0.001(7) 0.000(7)
C11 0.076(11) 0.077(11) 0.128(16) 0.028(11) -0.018(12) -0.015(10)
C19 0.065(9) 0.062(9) 0.086(11) 0.005(9) 0.003(9) -0.005(8)
C4 0.055(8) 0.051(8) 0.065(9) -0.011(7) -0.002(7) 0.001(7)
C13 0.085(12) 0.063(10) 0.082(11) -0.004(9) 0.005(10) -0.005(9)
C3 0.068(9) 0.067(9) 0.062(9) -0.011(8) -0.007(8) -0.002(8)
C7 0.053(8) 0.064(8) 0.060(8) 0.009(7) -0.006(7) -0.012(7)
C6 0.055(8) 0.076(10) 0.061(8) 0.006(8) -0.008(7) 0.008(8)
C10 0.071(10) 0.057(8) 0.074(10) 0.008(8) -0.005(8) -0.009(8)
C1 0.111(11) 0.116(12) 0.115(12) -0.004(10) -0.008(10) 0.011(10)
loop_
_atom_type_symbol
_atom_type_description
_atom_type_scat_dispersion_real
_atom_type_scat_dispersion_imag
_atom_type_scat_source
C C 0.0181 0.0091 'International Tables Vol C Tables 4.2.6.8 and 6.1.1.4'
H H 0.0000 0.0000 'International Tables Vol C Tables 4.2.6.8 and 6.1.1.4'
O O 0.0492 0.0322 'International Tables Vol C Tables 4.2.6.8 and 6.1.1.4'
Zr Zr -0.1862 2.2449 'International Tables Vol C Tables 4.2.6.8 and 6.1.1.4'
loop_
_geom_angle_atom_site_label_1
_geom_angle_atom_site_label_2
_geom_angle_atom_site_label_3
_geom_angle
_geom_angle_site_symmetry_1
_geom_angle_site_symmetry_3
Zr1 Zr1 Zr1 60.0 11_466 8_656
Zr2 Zr1 Zr1 89.44(2) 11_466 8_656
Zr2 Zr1 Zr1 60.07(2) . 8_656
Zr2 Zr1 Zr1 59.42(2) 11_466 11_466
Zr2 Zr1 Zr1 89.82(2) . 11_466
Zr2 Zr1 Zr2 59.66(3) . 11_466
O7 Zr1 Zr1 96.73(16) . 11_466
O7 Zr1 Zr1 96.30(15) 11_466 8_656
O7 Zr1 Zr1 38.95(15) 11_466 11_466
O7 Zr1 Zr1 39.41(16) . 8_656
O7 Zr1 Zr2 96.98(17) 11_466 .
O7 Zr1 Zr2 97.09(18) . 11_466
O7 Zr1 Zr2 40.22(17) 11_466 11_466
O7 Zr1 Zr2 40.57(17) . .
O7 Zr1 O7 125.4(3) . 11_466
O7 Zr1 O12 74.5(2) . 20_465
O7 Zr1 O12 133.9(2) 11_466 20_465
O7 Zr1 O3 130.0(3) . .
O7 Zr1 O3 77.7(3) 11_466 .
O6 Zr1 Zr1 83.13(17) . 11_466
O6 Zr1 Zr1 83.78(18) . 8_656
O6 Zr1 Zr2 32.43(18) . .
O6 Zr1 Zr2 31.66(18) . 11_466
O6 Zr1 O7 73.0(3) . .
O6 Zr1 O7 71.9(3) . 11_466
O6 Zr1 O12 77.6(2) . 20_465
O6 Zr1 O5 97.9(4) . .
O6 Zr1 O1 98.4(3) . .
O6 Zr1 O4 143.6(3) . .
O6 Zr1 O3 149.4(3) . .
O12 Zr1 Zr1 113.91(18) 20_465 8_656
O12 Zr1 Zr1 160.40(17) 20_465 11_466
O12 Zr1 Zr2 103.59(17) 20_465 11_466
O12 Zr1 Zr2 72.05(17) 20_465 .
O12 Zr1 O3 124.1(3) 20_465 .
O5 Zr1 Zr1 33.42(15) . 8_656
O5 Zr1 Zr1 33.42(15) . 11_466
O5 Zr1 Zr2 85.9(3) . 11_466
O5 Zr1 Zr2 86.5(3) . .
O5 Zr1 O7 72.7(2) . .
O5 Zr1 O7 72.3(2) . 11_466
O5 Zr1 O12 146.81(19) . 20_465
O5 Zr1 O1 139.9(3) . .
O5 Zr1 O4 93.5(4) . .
O5 Zr1 O3 75.2(4) . .
O1 Zr1 Zr1 113.9(3) . 11_466
O1 Zr1 Zr1 173.3(3) . 8_656
O1 Zr1 Zr2 124.4(3) . .
O1 Zr1 Zr2 89.3(3) . 11_466
O1 Zr1 O7 147.3(3) . .
O1 Zr1 O7 78.5(3) . 11_466
O1 Zr1 O12 72.7(3) . 20_465
O1 Zr1 O4 94.6(3) . .
O1 Zr1 O3 72.1(4) . .
O4 Zr1 Zr1 121.9(2) . 11_466
O4 Zr1 Zr1 87.2(2) . 8_656
O4 Zr1 Zr2 115.0(2) . .
O4 Zr1 Zr2 174.7(2) . 11_466
O4 Zr1 O7 77.7(3) . .
O4 Zr1 O7 144.4(3) . 11_466
O4 Zr1 O12 74.1(3) . 20_465
O4 Zr1 O3 67.0(4) . .
O3 Zr1 Zr1 102.8(3) . 8_656
O3 Zr1 Zr1 75.0(3) . 11_466
O3 Zr1 Zr2 117.8(3) . 11_466
O3 Zr1 Zr2 161.7(3) . .
Zr1 Zr2 Zr1 60.51(3) . 8_656
Zr2 Zr2 Zr1 90.17(2) 11_466 8_656
Zr2 Zr2 Zr1 59.84(3) 8_656 8_656
Zr2 Zr2 Zr1 90.56(2) 8_656 .
Zr2 Zr2 Zr1 60.50(3) 11_466 .
Zr2 Zr2 Zr2 60.0 11_466 8_656
O7 Zr2 Zr1 39.78(15) . .
O7 Zr2 Zr1 39.90(16) . 8_656
O7 Zr2 Zr2 97.16(15) . 11_466
O7 Zr2 Zr2 96.85(16) . 8_656
O6 Zr2 Zr1 30.25(17) 8_656 8_656
O6 Zr2 Zr1 83.03(16) . 8_656
O6 Zr2 Zr1 83.04(16) 8_656 .
O6 Zr2 Zr1 30.92(17) . .
O6 Zr2 Zr2 33.60(18) . 11_466
O6 Zr2 Zr2 33.68(18) 8_656 8_656
O6 Zr2 Zr2 84.37(17) 8_656 11_466
O6 Zr2 Zr2 84.32(17) . 8_656
O6 Zr2 O7 70.2(2) 8_656 .
O6 Zr2 O7 70.7(2) . .
O6 Zr2 O6 94.4(3) 8_656 .
O6 Zr2 O9 72.8(2) . .
O6 Zr2 O9 72.9(2) 8_656 .
O6 Zr2 O13 142.0(3) 8_656 20_465
O6 Zr2 O13 82.8(3) . 20_465
O6 Zr2 O10 144.7(3) 8_656 4_467
O6 Zr2 O10 83.8(3) . 4_467
O6 Zr2 O11 82.0(3) 8_656 5_455
O6 Zr2 O11 141.7(3) . 5_455
O6 Zr2 O8 145.2(3) . .
O6 Zr2 O8 90.9(3) 8_656 .
O9 Zr2 Zr1 96.1(2) . 8_656
O9 Zr2 Zr1 96.7(2) . .
O9 Zr2 Zr2 39.25(14) . 8_656
O9 Zr2 Zr2 39.25(14) . 11_466
O9 Zr2 O7 124.7(3) . .
O13 Zr2 Zr1 112.5(2) 20_465 8_656
O13 Zr2 Zr1 75.4(2) 20_465 .
O13 Zr2 Zr2 165.9(2) 20_465 8_656
O13 Zr2 Zr2 110.3(2) 20_465 11_466
O13 Zr2 O7 73.3(3) 20_465 .
O13 Zr2 O9 139.7(2) 20_465 .
O13 Zr2 O11 122.4(3) 20_465 5_455
O13 Zr2 O8 72.3(3) 20_465 .
O10 Zr2 Zr1 164.9(2) 4_467 8_656
O10 Zr2 Zr1 109.5(2) 4_467 .
O10 Zr2 Zr2 74.8(2) 4_467 11_466
O10 Zr2 Zr2 111.6(2) 4_467 8_656
O10 Zr2 O7 139.6(3) 4_467 .
O10 Zr2 O9 73.0(3) 4_467 .
O10 Zr2 O13 72.9(3) 4_467 20_465
O10 Zr2 O11 78.2(3) 4_467 5_455
O10 Zr2 O8 110.5(3) 4_467 .
O11 Zr2 Zr1 162.2(2) 5_455 .
O11 Zr2 Zr1 108.26(19) 5_455 8_656
O11 Zr2 Zr2 71.7(2) 5_455 8_656
O11 Zr2 Zr2 108.4(2) 5_455 11_466
O11 Zr2 O7 140.0(3) 5_455 .
O11 Zr2 O9 69.7(3) 5_455 .
O11 Zr2 O8 73.1(3) 5_455 .
O8 Zr2 Zr1 116.7(2) . .
O8 Zr2 Zr1 84.6(2) . 8_656
O8 Zr2 Zr2 116.5(2) . 8_656
O8 Zr2 Zr2 174.7(2) . 11_466
O8 Zr2 O7 79.0(3) . .
O8 Zr2 O9 140.9(3) . .
Zr1 O7 Zr1 101.6(2) . 8_656
Zr1 O7 Zr2 99.9(3) 8_656 .
Zr1 O7 Zr2 99.6(2) . .
Zr1 O6 Zr2 118.1(3) . 11_466
Zr1 O6 Zr2 116.7(3) . .
Zr2 O6 Zr2 112.7(3) 11_466 .
Zr2 O9 Zr2 101.5(3) 11_466 .
Zr2 O9 Zr2 101.5(3) 8_656 11_466
Zr2 O9 Zr2 101.5(3) 8_656 .
C29 O12 Zr1 131.6(6) . 17_546
Zr1 O5 Zr1 113.2(3) 8_656 .
Zr1 O5 Zr1 113.2(3) 11_466 8_656
Zr1 O5 Zr1 113.1(3) 11_466 .
C29 O13 Zr2 131.9(7) . 17_546
C28 O10 Zr2 135.1(8) . 4_567
C28 O11 Zr2 136.3(7) . 9_556
Zr2 O8 H8A 110.1 . .
Zr2 O8 H8B 110.0 . .
H8A O8 H8B 103.6 . .
C1 O1 Zr1 140.5(13) . .
C24 C25 C28 120.1(12) . .
C24 C25 C26 119.9(11) . .
C26 C25 C28 120.1(10) . .
C25 C24 H24 120.5 . .
C25 C24 C23 119.0(14) . .
C23 C24 H24 120.5 . .
C29 C17 C18 118.0(11) . .
C16 C17 C29 122.1(11) . .
C16 C17 C18 119.8(11) . .
O12 C29 C17 121.3(10) . .
O13 C29 O12 124.2(10) . .
O13 C29 C17 114.2(10) . .
C22 C21 H21 121.1 . .
C22 C21 C20 117.8(13) . .
C20 C21 H21 121.1 . .
C00M C27 H27 120.0 . .
C00M C27 C26 119.9(13) . .
C26 C27 H27 120.0 . .
C27 C00M C22 121.6(13) . .
C27 C00M C23 120.2(13) . .
C23 C00M C22 116.5(12) . .
C21 C22 C00M 114.9(12) . .
C21 C22 C22 122.2(9) . 22_465
C22 C22 C00M 122.8(7) 22_465 .
O10 C28 O11 122.1(10) . .
O10 C28 C25 120.3(11) . .
O11 C28 C25 117.6(10) . .
C3 C2 C1 116.5(16) . .
C7 C2 C3 123.9(15) . .
C7 C2 C1 119.1(17) . .
C25 C26 C27 121.0(11) . .
C25 C26 H26 119.5 . .
C27 C26 H26 119.5 . .
C16 C15 H15 119.2 . .
C16 C15 C14 121.6(14) . .
C14 C15 H15 119.2 . .
C24 C23 H23 120.7 . .
C00M C23 C24 118.5(13) . .
C00M C23 H23 120.7 . .
C17 C18 H18 121.9 . .
C19 C18 C17 116.2(12) . .
C19 C18 H18 121.9 . .
C17 C16 H16 118.6 . .
C15 C16 C17 122.7(13) . .
C15 C16 H16 118.6 . .
C11 C12 H12 123.9 . .
C13 C12 H12 123.9 . .
C13 C12 C11 112.2(13) . .
C4 C5 C8 121.2(12) . .
C4 C5 C6 120.4(14) . .
C6 C5 C8 118.4(14) . .
C8 C9 H9 122.9 . .
C10 C9 H9 122.9 . .
C10 C9 C8 114.1(14) . .
C9 C8 C5 112.9(13) . .
C9 C8 C13 129.2(14) . .
C13 C8 C5 117.5(12) . .
C21 C20 C11 121.4(12) . .
C20 C20 C21 118.6(8) 22_465 .
C20 C20 C11 119.2(8) 22_465 .
C15 C14 C19 116.4(12) . .
C15 C14 C13 120.6(13) . .
C19 C14 C13 122.0(13) . .
C20 C11 C12 116.4(13) . .
C10 C11 C12 120.4(14) . .
C10 C11 C20 122.5(14) . .
C18 C19 C14 122.0(14) . .
C18 C19 H19 119.0 . .
C14 C19 H19 119.0 . .
C5 C4 H4 115.6 . .
C5 C4 C3 128.9(13) . .
C3 C4 H4 115.6 . .
C12 C13 C14 112.8(14) . .
C8 C13 C12 117.6(13) . .
C8 C13 C14 129.3(15) . .
C2 C3 H3 124.6 . .
C4 C3 C2 110.7(14) . .
C4 C3 H3 124.6 . .
C2 C7 H7 120.8 . .
C2 C7 C6 118.3(14) . .
C6 C7 H7 120.8 . .
C5 C6 C7 117.1(14) . .
C5 C6 H6 121.4 . .
C7 C6 H6 121.4 . .
C9 C10 C11 123.4(14) . .
C9 C10 C10 118.0(9) . 22_465
C10 C10 C11 118.3(9) 22_465 .
O1 C1 C2 114.3(18) . .
O1 C1 O2 124.6(18) . .
O2 C1 C2 116.2(18) . .
loop_
_geom_bond_atom_site_label_1
_geom_bond_atom_site_label_2
_geom_bond_distance
_geom_bond_site_symmetry_2
Zr1 Zr1 3.5303(16) 11_466
Zr1 Zr1 3.5304(16) 8_656
Zr1 Zr2 3.4918(13) .
Zr1 Zr2 3.5148(13) 11_466
Zr1 O7 2.266(6) .
Zr1 O7 2.288(6) 11_466
Zr1 O6 2.007(6) .
Zr1 O12 2.330(6) 20_465
Zr1 O5 2.115(4) .
Zr1 O1 2.135(8) .
Zr1 O4 2.256(8) .
Zr1 O3 2.340(10) .
Zr2 Zr1 3.5150(13) 8_656
Zr2 Zr2 3.4852(16) 8_656
Zr2 Zr2 3.4852(16) 11_466
Zr2 O7 2.304(7) .
Zr2 O6 2.095(6) .
Zr2 O6 2.091(6) 8_656
Zr2 O9 2.250(5) .
Zr2 O13 2.207(7) 20_465
Zr2 O10 2.205(8) 4_467
Zr2 O11 2.236(7) 5_455
Zr2 O8 2.247(7) .
O7 Zr1 2.288(6) 8_656
O6 Zr2 2.091(6) 11_466
O9 Zr2 2.250(5) 8_656
O9 Zr2 2.250(5) 11_466
O12 Zr1 2.330(6) 17_546
O12 C29 1.288(12) .
O5 Zr1 2.115(4) 8_656
O5 Zr1 2.115(4) 11_466
O13 Zr2 2.207(7) 17_546
O13 C29 1.232(13) .
O10 Zr2 2.205(8) 4_567
O10 C28 1.216(13) .
O11 Zr2 2.236(7) 9_556
O11 C28 1.302(13) .
O8 H8A 0.8651 .
O8 H8B 0.8661 .
O1 C1 1.23(2) .
C25 C24 1.359(18) .
C25 C28 1.418(14) .
C25 C26 1.388(14) .
C24 H24 0.9300 .
C24 C23 1.448(19) .
C17 C29 1.421(15) .
C17 C18 1.450(17) .
C17 C16 1.402(17) .
C21 H21 0.9300 .
C21 C22 1.276(17) .
C21 C20 1.511(16) .
C27 H27 0.9300 .
C27 C00M 1.362(18) .
C27 C26 1.400(16) .
C00M C22 1.526(18) .
C00M C23 1.401(18) .
C22 C22 1.41(3) 22_465
C2 C3 1.42(2) .
C2 C7 1.41(2) .
C2 C1 1.50(2) .
O2 C1 1.48(2) .
C26 H26 0.9300 .
C15 H15 0.9300 .
C15 C16 1.291(17) .
C15 C14 1.435(18) .
C23 H23 0.9300 .
C18 H18 0.9300 .
C18 C19 1.402(18) .
C16 H16 0.9300 .
C12 H12 0.9300 .
C12 C11 1.59(2) .
C12 C13 1.47(2) .
C5 C8 1.510(19) .
C5 C4 1.339(19) .
C5 C6 1.350(19) .
C9 H9 0.9300 .
C9 C8 1.39(2) .
C9 C10 1.380(19) .
C8 C13 1.44(2) .
C20 C20 1.30(3) 22_465
C20 C11 1.51(2) .
C14 C19 1.434(19) .
C14 C13 1.480(19) .
C11 C10 1.45(2) .
C19 H19 0.9300 .
C4 H4 0.9300 .
C4 C3 1.402(18) .
C3 H3 0.9300 .
C7 H7 0.9300 .
C7 C6 1.472(18) .
C6 H6 0.9300 .
C10 C10 1.40(3) 22_465
loop_
_refln_index_h
_refln_index_k
_refln_index_l
_refln_F_squared_meas
_refln_F_squared_sigma
_refln_scale_group_code
1 2 1 171.534 35.6718 1
2 1 -1 176.319 35.7236 1
2 0 -2 221552 990.784 1
2 2 0 221150 1316.01 1
2 1 -2 398.837 60.0985 1
2 2 1 300.024 46.5364 1
2 2 -1 365.919 60.4679 1
2 2 -2 1769.66 129.336 1
0 3 0 -36.6142 21.2259 1
0 3 1 7.48952 22.4197 1
1 3 0 38.9791 31.6278 1
3 1 0 -14.922 38.8735 1
3 0 -1 8.71065 21.4517 1
1 3 1 111603 947.769 1
-1 3 1 117737 748.648 1
3 -1 -2 2809.16 100.201 1
3 2 -1 2491.6 163.901 1
2 3 1 2775.37 162.646 1
-1 3 2 2880.43 109.038 1
0 3 2 126.042 31.6577 1
2 3 0 88.5512 30.9136 1
3 2 0 124.768 42.1781 1
3 0 -2 99.1661 30.6531 1
3 1 -2 2834.8 150.317 1
2 3 -1 2717.83 166.667 1
3 2 1 2269.32 163.384 1
1 3 2 2825.66 153.787 1
2 3 2 19.7175 38.2122 1
3 2 -2 89.8707 44.5043 1
2 3 -2 24.4419 31.2572 1
3 0 -3 596.092 66.6879 1
3 3 0 455.275 82.2646 1
3 1 -3 7853.92 258.773 1
3 -1 -3 7552.42 177.306 1
3 3 1 7525.89 302.229 1
3 3 -1 7104.72 298.51 1
3 3 -2 260.248 65.5846 1
3 2 -3 317.423 69.6223 1
2 3 -3 74.1152 53.7641 1
3 3 -3 59.3566 56.4198 1
0 4 0 60495.7 757.518 1
1 4 0 -33.2743 43.3969 1
0 4 1 54.0998 36.2501 1
1 4 -1 392.824 75.7501 1
-1 4 1 342.222 55.3233 1
1 4 1 298.473 72.0424 1
4 1 -1 370.514 63.6429 1
-1 4 2 760.11 72.7059 1
4 2 -1 621.984 95.4453 1
1 4 -2 628.707 92.2303 1
2 4 1 634.282 89.2257 1
2 4 0 5068.83 251.018 1
4 2 0 5458.05 251.657 1
4 0 -2 5190.31 198.8 1
0 4 2 5359.61 206.416 1
1 4 2 909.029 97.2339 1
2 4 -1 794.514 101.229 1
4 1 -2 841.646 103.264 1
-2 4 2 23244.7 334.433 1
2 4 -2 23713.9 564.5 1
2 4 2 23755.8 532.699 1
4 2 -2 23363.6 531.983 1
-2 4 3 574.615 49.1484 1
3 2 -4 628.22 99.446 1
3 4 2 447.967 94.0027 1
2 4 -3 346.495 93.2949 1
4 3 -2 603.915 102.763 1
4 3 -1 522.5 90.7458 1
3 1 -4 572.254 85.3011 1
4 -1 -3 558.657 59.8307 1
-1 4 3 589.996 63.1868 1
3 4 1 510.148 95.7278 1
4 0 -3 1361.29 107.776 1
3 4 0 1321.96 140.53 1
4 3 0 1293.8 137.38 1
0 4 3 1254.6 100.797 1
3 0 -4 1249.49 103.772 1
3 4 -1 599.906 113.122 1
4 1 -3 604.345 84.6156 1
3 -1 -4 749.841 63.9774 1
4 3 1 629.261 105.199 1
4 2 -3 593.418 102.299 1
3 -2 -4 679.558 47.1859 1
3 4 -2 647.79 106.789 1
3 3 -4 5580.66 275.513 1
3 4 -3 5702.88 301.243 1
4 3 -3 5011.57 270.478 1
4 0 -4 1761.15 130.495 1
4 4 0 2017.1 188.317 1
4 4 1 543.624 109.538 1
4 -1 -4 609.701 63.7628 1
4 1 -4 556.915 88.7434 1
4 4 -1 530.857 97.6183 1
4 -2 -4 944.745 61.8661 1
4 4 -2 979.401 139.71 1
4 2 -4 1124.5 125.065 1
4 4 2 954.466 126.323 1
3 4 -4 113.72 80.5681 1
4 3 -4 -1.15371 60.4463 1
4 4 -3 51.5678 55.2401 1
4 4 -4 52939.7 965.341 1
0 5 0 60.7868 46.0747 1
1 5 0 124.947 54.5874 1
0 5 -1 124.629 63.9877 1
0 5 1 144.966 49.4163 1
-1 5 0 174.832 51.665 1
5 1 -1 2378.72 165.183 1
-1 5 1 2099.75 140.835 1
1 5 1 2211.02 168.105 1
1 5 -1 2433.92 176.655 1
-1 5 2 379.905 61.721 1
1 5 -2 203.472 73.3555 1
5 2 -1 345.766 76.8398 1
2 5 1 380.157 80.1161 1
5 2 0 -30.7143 58.4927 1
5 0 -2 -6.91554 32.2508 1
2 5 0 -43.0294 48.5894 1
0 5 2 -38.0998 36.5025 1
-2 5 1 377.981 62.7891 1
1 5 2 370.639 76.8115 1
2 5 -1 304.192 72.5205 1
5 1 -2 351.146 72.4057 1
5 2 -2 1756.67 162.754 1
2 5 2 2043.47 175.808 1
2 5 -2 1999.97 181.333 1
-2 5 2 2179.37 125.914 1
3 5 2 3224.39 234.07 1
5 3 -2 3213.29 226.53 1
-2 5 3 3274.07 141.558 1
2 5 -3 3363.15 243.576 1
-1 5 3 2182.37 130.346 1
5 -1 -3 2079.77 128.179 1
3 5 1 2283.94 199.085 1
5 3 -1 2236.65 191.017 1
5 0 -3 -11.7537 41.46 1
3 5 0 43.5024 60.0623 1
5 3 0 81.896 64.0597 1
0 5 3 2.60628 36.1975 1
3 5 -1 1853.49 178.756 1
5 3 1 1785.94 192.43 1
1 5 3 1937.93 162.091 1
5 1 -3 1769.9 157.814 1
2 5 3 3436.95 226.684 1
3 5 -2 3163.85 234.134 1
-3 5 2 3395.51 146.228 1
5 2 -3 3245.2 220.55 1
-3 5 3 5752.22 159.956 1
3 5 -3 5995.88 330.681 1
3 5 3 5580.49 311.898 1
5 3 -3 6327.44 313.193 1
4 3 -5 850.035 136.985 1
3 5 -4 614.681 115.57 1
5 4 -3 710.438 121.774 1
4 5 2 996.23 146.018 1
4 2 -5 971.86 129.03 1
5 4 -2 867.495 136.16 1
2 5 -4 901.614 138.891 1
5 -2 -4 829.999 65.3612 1
4 1 -5 1332.32 129.425 1
4 5 1 1329.3 166.105 1
5 -1 -4 1362.3 97.6072 1
5 4 -1 1423.23 163.784 1
4 0 -5 1364.11 124.899 1
4 5 0 1447.98 170.84 1
5 4 0 1375.74 164.731 1
5 0 -4 1432.74 124.685 1
5 4 1 1280.73 160.757 1
5 1 -4 1422.06 131.908 1
4 5 -1 1173.27 141.818 1
4 -1 -5 1082.7 99.2623 1
4 -2 -5 993.274 70.5039 1
5 2 -4 1110.39 135.28 1
4 5 -2 920.536 155.012 1
3 4 -5 956.256 152.271 1
5 3 -4 926.989 137.205 1
-4 5 3 937.326 55.464 1
4 5 -3 1016.64 153.387 1
5 4 -4 7593.83 379.333 1
4 5 -4 7430.64 392.129 1
4 4 -5 7072.64 373.871 1
5 5 0 1207.57 167.876 1
5 0 -5 1270.71 126.721 1
5 -1 -5 2443.76 145.049 1
5 5 1 2453.23 226.215 1
5 5 -1 1907.02 219.816 1
5 1 -5 2147.78 174.489 1
5 5 2 13081.6 521.476 1
5 -2 -5 12336.5 261.111 1
5 5 -2 13475.2 525.284 1
5 2 -5 13093.1 447.174 1
5 3 -5 140.356 73.9626 1
5 5 -3 379.831 116.563 1
3 5 -5 287.823 102.047 1
4 5 -5 2201.06 227.057 1
5 4 -5 2017.11 213.473 1
5 5 -4 2419.84 234.639 1
5 5 -5 5964.26 368.512 1
0 6 0 -30.6213 57.4985 1
0 6 1 17.4574 45.4029 1
0 6 -1 136.719 77.4754 1
-1 6 0 103.361 69.918 1
1 6 0 68.3914 51.4179 1
1 6 -1 132.21 64.6689 1
-1 6 1 34.7407 43.9499 1
6 1 -1 67.8964 60.5957 1
1 6 1 51.1942 54.7975 1
-1 6 2 1807.69 141.019 1
6 2 -1 1786.86 177.985 1
2 6 1 1811.81 174.163 1
1 6 -2 1765.69 184.264 1
2 6 0 688.065 118.966 1
0 6 2 608.807 99.2675 1
6 0 -2 498.899 84.9968 1
6 1 -2 1702.16 158.731 1
2 6 -1 1916.98 191.229 1
-2 6 1 1578.75 144.765 1
1 6 2 1928.12 170.988 1
6 2 -2 3019.32 216.99 1
2 6 2 2830.75 219.846 1
-2 6 2 2811.12 165.798 1
2 6 -2 2873.16 229.532 1
2 6 -3 11839 484.781 1
3 6 2 11434.7 456.039 1
6 3 -2 12021.5 457.918 1
-2 6 3 11333.7 312.742 1
6 3 -1 1396.39 160.747 1
-1 6 3 1423.09 121.514 1
3 6 1 1425.37 162.303 1
1 6 -3 1330.13 165.788 1
6 0 -3 2821.98 179.994 1
6 3 0 2759.3 232.788 1
3 6 0 2842.95 238.47 1
0 6 3 2786.58 185.127 1
1 6 3 1727.15 167.35 1
3 6 -1 1897.77 199.04 1
6 1 -3 1597.55 147.192 1
6 2 -3 11156.3 416.649 1
-3 6 2 11752.6 321.001 1
2 6 3 10910.5 429.376 1
3 6 -2 11543.7 474.485 1
-3 6 3 8198.36 240.092 1
6 3 -3 7599.76 385.397 1
3 6 3 8058.58 394.064 1
3 6 -3 8650.4 425.802 1
3 6 -4 2395.89 238.522 1
4 3 -6 2551.03 224.808 1
6 4 -3 2989.24 248.702 1
-3 6 4 2513.3 114.885 1
4 6 3 2372.06 228.16 1
4 6 2 4569.79 310.564 1
2 6 -4 4828.2 320.448 1
4 2 -6 4619.66 273.979 1
-2 6 4 4445.56 185.911 1
6 4 -2 4636.48 309.228 1
6 4 -1 134.919 86.3382 1
6 -1 -4 85.5472 38.1122 1
4 6 1 68.4549 60.2596 1
-1 6 4 118.491 41.7869 1
4 1 -6 94.411 47.9871 1
6 0 -4 1806.34 143.239 1
4 0 -6 1763.09 143.443 1
4 6 0 1868.82 189.988 1
0 6 4 1760.21 147.335 1
6 4 0 1954.9 210.188 1
6 1 -4 81.0023 50.1253 1
4 -1 -6 77.1484 44.3239 1
6 4 1 50.7458 92.8768 1
4 6 -1 120.127 71.0594 1
4 -2 -6 5021.91 180.148 1
6 2 -4 4948.36 285.401 1
4 6 -2 5119.57 337.508 1
4 6 -3 2440.4 240.983 1
-4 6 3 2298.25 114.979 1
6 3 -4 2583.88 225.48 1
4 -3 -6 2160.43 89.6458 1
4 4 -6 11710.3 492.919 1
4 6 -4 12783 531.151 1
6 4 -4 12474.2 500.914 1
5 4 -6 2152.5 224.65 1
4 6 -5 2330.7 240.774 1
6 5 -4 2663.92 260.943 1
6 5 -3 5186.81 352.856 1
3 6 -5 4970.46 340.246 1
5 3 -6 4957.36 312.999 1
6 -2 -5 3486.09 158.63 1
6 5 -2 3582.25 289.447 1
5 2 -6 3431.61 246.183 1
5 6 2 3957.24 302.35 1
6 -1 -5 2545.1 158.357 1
6 5 -1 2816.76 256.766 1
5 6 1 2427.18 241.876 1
5 1 -6 2501.85 200.103 1
5 0 -6 866.213 110.749 1
6 0 -5 865.231 117.196 1
6 5 0 839.043 140.104 1
5 6 0 941.85 146.555 1
5 -1 -6 2924.86 169.632 1
5 6 -1 2704.04 247.705 1
6 5 1 2934.84 273.243 1
6 1 -5 2840.48 207.516 1
6 5 2 3263.07 274.205 1
5 -2 -6 3477.62 152.496 1
6 2 -5 3508.2 250.177 1
5 6 -2 3978.38 304.456 1
-5 6 3 4241.4 149.235 1
5 6 -3 3869.32 310.097 1
6 3 -5 4244.96 280.787 1
5 6 -4 2270.42 241.409 1
4 5 -6 1912.55 230.567 1
6 4 -5 2188.64 226.5 1
6 5 -5 2114.16 227.621 1
5 6 -5 2248.84 231.158 1
5 5 -6 2058.8 216.781 1
6 0 -6 324.761 79.8826 1
6 6 0 300.518 115.737 1
6 6 1 941.924 165.261 1
6 -1 -6 868.387 105.81 1
6 6 -1 705.183 162.822 1
6 1 -6 768.327 113.957 1
6 -2 -6 40.8532 24.9258 1
6 2 -6 -71.8541 70.0189 1
6 6 2 29.197 74.8838 1
6 6 -2 -50.5424 88.8641 1
6 6 -3 11214.5 531.193 1
3 6 -6 11118.3 528.989 1
6 3 -6 10952.5 466.402 1
6 6 -4 361.73 122.761 1
6 4 -6 292.428 105.214 1
4 6 -6 165.206 81.0065 1
5 6 -6 3794.62 313.128 1
6 6 -5 3368.04 301.53 1
6 5 -6 3242.41 293.114 1
6 6 -6 715.154 138.896 1
0 7 0 30.2878 66.8811 1
0 7 1 2677.52 200.153 1
-1 7 0 2745.14 204.652 1
1 7 0 2603.67 216.145 1
0 7 -1 2677.64 222.799 1
1 7 1 8585.24 381.034 1
-1 7 1 8049.17 341.867 1
-1 7 -1 8332.7 378.251 1
1 7 -1 8364.65 393.208 1
7 2 -1 246.747 89.0755 1
2 7 1 241.191 91.1179 1
1 7 -2 198.257 97.0686 1
-1 7 2 157.18 54.6776 1
0 7 -2 1768.32 187.32 1
0 7 2 1582.31 164.32 1
2 7 0 1767.18 191.282 1
7 1 -2 154.006 60.6437 1
2 7 -1 148.124 60.7789 1
1 7 2 220.921 80.1589 1
-2 7 1 140.742 53.8528 1
7 2 -2 11592.6 455.073 1
2 7 -2 11532.9 483.63 1
-2 7 2 11017 366.323 1
2 7 2 11060.6 458.93 1
2 7 -3 18621 633.178 1
3 7 2 17776.8 603.145 1
-2 7 3 17806.6 438.584 1
7 3 -2 17214.9 588.974 1
-1 7 3 30018.2 611.806 1
7 3 -1 31995.4 803.192 1
3 7 1 31715.8 796.518 1
1 7 -3 31793.5 798.157 1
7 0 -3 587.064 93.6513 1
0 7 3 582.578 94.0149 1
7 3 0 605.392 117.451 1
3 7 0 611.952 130.556 1
-3 7 1 32165.9 637.095 1
7 1 -3 32202.6 713.78 1
3 7 -1 34184.4 849.336 1
1 7 3 33325.1 736.459 1
3 7 -2 18782.6 643.255 1
-3 7 2 18037.1 446.802 1
7 2 -3 17707.5 560.032 1
2 7 3 18177.6 586.945 1
3 7 3 70.2912 68.6591 1
3 7 -3 27.3019 84.0386 1
7 3 -3 158.19 81.8388 1
-3 7 3 24.7544 34.093 1
7 4 -3 2666.2 254.002 1
4 3 -7 3052.99 242.39 1
3 7 -4 2590.32 249.538 1
4 7 3 2650.07 257.006 1
-3 7 4 2809.2 151.712 1
4 7 2 2605.63 247.273 1
7 4 -2 2497.84 242.596 1
-2 7 4 2289.63 155.954 1
2 7 -4 2385.67 246.45 1
4 7 1 233.624 80.2387 1
-1 7 4 365.268 74.989 1
7 -1 -4 280.319 65.165 1
7 4 -1 285.093 91.0386 1
7 4 0 12393.9 518.937 1
7 0 -4 11057.3 388.77 1
4 7 0 11119 501.546 1
0 7 4 11404 405.807 1
7 1 -4 497.319 99.8731 1
1 7 4 438.467 92.9358 1
4 7 -1 219.009 118.595 1
-4 7 2 2099.27 149.882 1
2 7 4 2089.95 185.613 1
4 7 -2 2422.35 247.804 1
7 2 -4 2264.42 202.473 1
7 3 -4 3198.06 262.337 1
-4 7 3 3041.81 157.869 1
4 7 -3 3111.08 270.69 1
4 7 -4 11940.1 547.373 1
-4 7 4 10183.1 244.71 1
4 4 -7 11385.9 501.695 1
7 4 -4 10998.2 504.848 1
7 5 -4 12072.3 555.685 1
4 7 -5 12208.1 572.245 1
5 4 -7 12703.9 542.312 1
7 5 -3 3677.38 307.04 1
5 7 3 3276.2 298.227 1
5 3 -7 3684.52 280.616 1
3 7 -5 3586.7 310.705 1
2 7 -5 486.705 139.903 1
5 7 2 586.549 129.065 1
7 5 -2 464.864 127.518 1
5 2 -7 479.435 104.185 1
7 -1 -5 3988.96 218.304 1
7 5 -1 4190.3 321.685 1
5 1 -7 4401.21 266.961 1
5 7 1 4556.3 342.318 1
5 7 0 185.669 114.873 1
7 0 -5 8.32675 47.4793 1
7 5 0 123.887 104.426 1
5 0 -7 28.0871 41.3635 1
5 7 -1 5093.44 365.463 1
5 -1 -7 4897.2 237.549 1
7 1 -5 4791.96 280.129 1
7 5 1 5218.61 369.994 1
7 2 -5 627.803 114.872 1
5 7 -2 485.102 133.279 1
5 -2 -7 507.788 73.7168 1
7 3 -5 3684.06 275.944 1
5 -3 -7 3201.22 127.047 1
-5 7 3 3442.93 159.39 1
5 7 -3 3714.62 315.658 1
7 4 -5 13086.1 546.654 1
5 7 -4 11992.7 555.034 1
4 5 -7 12298.3 544.93 1
5 7 -5 17576.1 695.368 1
5 5 -7 16345.6 642.564 1
7 5 -5 16756.4 647.706 1
6 5 -7 2850.86 282.289 1
7 6 -5 3506.44 308.969 1
5 7 -6 3447.79 313.852 1
7 6 -4 6991.4 435.592 1
4 7 -6 6791.37 436.37 1
6 4 -7 6806.79 405.435 1
6 7 3 1570.89 222.308 1
6 3 -7 1444.63 183.957 1
3 7 -6 1561.39 217.233 1
7 6 -3 1759.03 229.865 1
6 2 -7 8036.52 390.962 1
6 7 2 7736.17 472.885 1
7 6 -2 7554.5 447.795 1
7 -2 -6 7005.48 252.187 1
7 6 -1 1218.17 189.437 1
6 7 1 1248.31 197.96 1
6 1 -7 1020.09 147.752 1
7 -1 -6 1096.55 115.998 1
6 7 0 797.627 156.887 1
7 0 -6 743.988 102.994 1
7 6 0 698.606 151.318 1
6 0 -7 701.446 103.661 1
7 1 -6 982.452 132.891 1
6 -1 -7 811.326 105.88 1
6 7 -1 1094.91 193.595 1
7 6 1 837.999 178.021 1
6 -2 -7 7171 257.475 1
7 2 -6 8467.86 404.419 1
6 7 -2 9055.53 482.603 1
7 6 2 8601.65 490.405 1
6 7 -3 1900.52 242.133 1
7 3 -6 1608.98 195.837 1
6 -3 -7 1601.24 87.4986 1
7 4 -6 5266.96 369.403 1
4 6 -7 5423.11 391.679 1
6 7 -4 5576.28 406.169 1
6 7 -5 3537.37 320.764 1
7 5 -6 3007.58 285.676 1
5 6 -7 3590.07 316.759 1
6 7 -6 4258.24 364.668 1
7 6 -6 3921.15 344.399 1
6 6 -7 4206.08 359.02 1
7 7 0 3203.17 314.178 1
7 0 -7 2967.92 215.632 1
7 7 -1 213.567 116.956 1
7 1 -7 344.849 87.6594 1
7 -1 -7 308.045 79.3 1
7 7 1 417.264 129.922 1
7 -2 -7 2251.85 146.765 1
7 7 2 2531.26 272.632 1
7 2 -7 2678.24 230.341 1
7 7 -2 2353.47 267.401 1
7 7 -3 8828 513.102 1
3 7 -7 9113.37 515.804 1
7 3 -7 8461.89 435.668 1
4 7 -7 1017.7 198.883 1
7 4 -7 877.318 166.138 1
7 7 -4 999.249 194.11 1
7 5 -7 4036.67 333.291 1
5 7 -7 4553.09 369.796 1
7 7 -5 4299.68 372.568 1
7 7 -6 5674.5 433.115 1
7 6 -7 5952.21 426.791 1
6 7 -7 6170.6 441.531 1
7 7 -7 4028.79 358.662 1
0 8 0 7180.75 365.441 1
1 8 0 7454.55 385.488 1
0 8 1 7309.65 363.327 1
0 8 -1 7631.83 385.23 1
-1 8 0 7318.37 364.485 1
1 8 -1 2594.71 238.955 1
-1 8 1 2437.37 206.456 1
-1 8 -1 2530.97 222.162 1
1 8 1 2530.96 222.775 1
1 8 -2 5526.3 361.83 1
2 8 1 5668.2 341.32 1
-1 8 2 5249.2 289.852 1
0 8 -2 3242.07 264.055 1
0 8 2 2931.9 236.024 1
2 8 0 3279.03 263.93 1
-2 8 0 3013.55 231.22 1
-2 8 1 4808.3 275.154 1
1 8 2 4372.56 304.443 1
2 8 -1 4825.47 332.084 1
-2 8 2 14069.6 450.043 1
8 2 -2 14319.5 541.208 1
2 8 2 14099.5 546.413 1
2 8 -2 15313.7 593.36 1
8 3 -2 470.633 113.285 1
3 8 2 508.888 110.199 1
-2 8 3 343.066 76.1358 1
2 8 -3 584.348 136.395 1
-1 8 3 18556.2 529.551 1
3 8 1 19934 667.937 1
8 3 -1 18841.5 642.932 1
1 8 -3 18760.5 663.289 1
0 8 3 1124.71 141.452 1
3 8 0 1048.82 161.687 1
-3 8 1 16941.6 513.361 1
3 8 -1 17877.7 646.413 1
8 1 -3 17004.7 551.774 1
1 8 3 17183.2 568.848 1
3 8 -2 716.554 142.5 1
8 2 -3 710.785 132.7 1
2 8 3 698.929 126.503 1
-3 8 2 768.13 111.278 1
3 8 3 3164.01 281.088 1
-3 8 3 3493.19 205.544 1
8 3 -3 3339.81 276.783 1
3 8 -3 3694.39 312.06 1
8 4 -3 15756.4 615.372 1
-3 8 4 14193.8 390.338 1
4 8 3 15033.3 613.289 1
3 8 -4 15622.4 628.866 1
4 8 2 2751.35 272.658 1
2 8 -4 2647.06 278.368 1
8 4 -2 2902.67 267.023 1
-2 8 4 2433.54 178.311 1
1 8 -4 1413.85 197.62 1
4 8 1 1477.13 201.926 1
-1 8 4 1267.12 139.535 1
8 4 -1 1501.78 205.077 1
8 4 0 7708.77 434.412 1
8 0 -4 7036.31 333.21 1
4 8 0 7482.52 440.789 1
0 8 4 7268.74 353.483 1
8 1 -4 1236.11 156.671 1
1 8 4 1362.57 168.82 1
4 8 -1 1423.41 197.567 1
-4 8 2 2420.08 178.254 1
2 8 4 2478.9 231.996 1
4 8 -2 2702.24 275.517 1
8 2 -4 2546.99 231.661 1
3 8 4 14008.2 583.613 1
8 3 -4 14556.5 563.226 1
-4 8 3 13565.8 384.825 1
4 8 -3 15711.1 646.298 1
4 8 -4 2942.06 308.365 1
4 8 4 2502.68 260.333 1
8 4 -4 2541.67 260.861 1
-4 8 4 2406.6 141.848 1
8 5 -4 6799.45 438.647 1
5 4 -8 7207.74 427.357 1
4 8 -5 7337.41 464.693 1
8 5 -3 4635.48 353.222 1
5 8 3 4620.4 372.054 1
5 3 -8 4677.23 342.29 1
3 8 -5 4638.04 367.257 1
5 8 2 749.315 141.529 1
5 2 -8 1144.88 157.934 1
8 5 -2 908.765 164.028 1
2 8 -5 839.732 160.3 1
8 5 -1 1824.47 234.126 1
8 -1 -5 1827.45 161.995 1
5 8 1 2182.69 253.601 1
5 1 -8 1958.78 193.351 1
5 8 0 302.209 130.325 1
5 0 -8 236.292 74.6 1
8 5 0 269.278 102.246 1
8 0 -5 171.093 64.5101 1
5 -1 -8 1669.22 152.459 1
8 1 -5 1954.34 190.988 1
5 8 -1 1794.57 245.312 1
-5 8 2 707.456 98.1043 1
5 8 -2 869.768 171.077 1
5 -2 -8 927.059 98.7262 1
8 2 -5 787.025 132.926 1
5 -3 -8 4736.08 192.407 1
-5 8 3 5189.1 220.949 1
8 3 -5 5596.56 361.521 1
5 8 -3 5318.97 393.806 1
5 8 -4 8413.14 498.871 1
4 5 -8 7831.64 468.846 1
8 4 -5 8598.93 461.349 1
-5 8 4 7366.76 220.933 1
5 5 -8 16417 660.378 1
5 8 -5 16027 699.626 1
8 5 -5 15847.7 660.763 1
8 6 -5 3859.32 366.919 1
6 5 -8 3743.52 335.348 1
5 8 -6 4026.27 367.297 1
8 6 -4 4539.06 369.591 1
4 8 -6 3930.27 354.991 1
6 4 -8 3949.32 320.177 1
8 6 -3 7685.43 471.171 1
3 8 -6 8342.69 485.456 1
6 8 3 7152.73 470.413 1
6 3 -8 7026.89 405.786 1
2 8 -6 -79.6476 73.0478 1
6 2 -8 91.6163 67.7534 1
6 8 2 276.476 133.89 1
8 6 -2 228.202 114.431 1
8 6 -1 1095.75 191.165 1
8 -1 -6 963.904 117.733 1
6 8 1 1032.9 177.055 1
6 1 -8 996.238 145.654 1
6 0 -8 1314.01 147.564 1
8 0 -6 1296.67 145.544 1
8 6 0 1292.69 204.949 1
6 8 0 1263.15 193.331 1
8 1 -6 1041.06 141.04 1
6 -1 -8 1025.58 125.126 1
8 6 1 1311.44 214.516 1
6 8 -1 1285.26 219.772 1
6 8 -2 208.263 102.439 1
6 -2 -8 213.127 54.7212 1
8 2 -6 271.383 98.5997 1
-6 8 3 6426.68 244.549 1
6 8 -3 7658.51 478.641 1
8 3 -6 7378.65 408.8 1
6 8 -4 3417.17 327.781 1
8 4 -6 3084.82 284.061 1
4 6 -8 3465.82 323.754 1
8 5 -6 4434.24 360.801 1
5 6 -8 4115.61 358.282 1
6 8 -5 3635.23 361.435 1
6 6 -8 1536.09 215.276 1
8 6 -6 1652.97 242.211 1
6 8 -6 1793.27 254.849 1
6 8 -7 6755.83 488.684 1
8 7 -6 7221.46 487.143 1
7 6 -8 7380.42 488.048 1
5 8 -7 2516.44 294.052 1
8 7 -5 2353.29 284.869 1
7 5 -8 2894.01 308.264 1
8 7 -4 278.214 129.324 1
4 8 -7 182.129 84.716 1
7 4 -8 166.643 73.8519 1
7 3 -8 3846.97 297.955 1
8 7 -3 4086.95 356.813 1
3 8 -7 4302.27 379.285 1
8 7 -2 5403.07 413.586 1
7 2 -8 5182.18 341.091 1
8 -2 -7 4974.97 229.489 1
7 8 2 5024.07 407.015 1
7 1 -8 5870.98 337.616 1
8 -1 -7 5662.93 281.541 1
7 8 1 5977.38 444.621 1
8 7 -1 6335.49 450.026 1
7 0 -8 277.958 76.1915 1
8 7 0 288.991 118.143 1
7 8 0 129.891 84.9289 1
8 0 -7 239.013 76.1902 1
8 1 -7 5151.18 317.969 1
8 7 1 5758.57 414.616 1
7 8 -1 5439.91 412.719 1
7 -1 -8 4933.25 266.191 1
8 2 -7 5981.03 364.92 1
8 7 2 6292.03 458.319 1
7 8 -2 6454.55 445.936 1
7 -2 -8 5600.79 245.975 1
7 -3 -8 3198.93 142.027 1
8 3 -7 3837.27 304.533 1
7 8 -3 3580.15 343.847 1
4 7 -8 100.149 105.536 1
8 4 -7 67.6173 65.2602 1
-7 8 4 106.323 26.1389 1
7 8 -4 126.57 90.5765 1
5 7 -8 2421.13 292.554 1
8 5 -7 2147.15 270.875 1
7 8 -5 2371.56 293.297 1
7 8 -6 7820.45 523.271 1
6 7 -8 8061.5 514.761 1
8 6 -7 7523.2 490.981 1
8 7 -7 6172.47 467.771 1
7 7 -8 6365.51 469.676 1
7 8 -7 6488.47 488.524 1
8 0 -8 4884.2 300.573 1
8 8 0 5458.62 434.59 1
8 1 -8 1611.53 185.075 1
8 8 1 1594.93 242.58 1
8 8 -1 1635.31 244.79 1
8 -1 -8 1376.53 146.797 1
8 8 2 1661.61 260.321 1
8 -2 -8 1413.89 123.636 1
8 2 -8 1732.72 190.392 1
8 8 -2 1599.52 238.901 1
3 8 -8 1576.46 252.107 1
8 8 -3 1756.84 254.104 1
8 3 -8 1342.7 192.189 1
8 8 -4 742.623 178.696 1
8 4 -8 585.398 148.541 1
4 8 -8 937.407 194.651 1
5 8 -8 4459.64 395.727 1
8 8 -5 4743.19 413.771 1
8 5 -8 4314.27 370.576 1
8 6 -8 13931.5 674.33 1
6 8 -8 13338.1 697.598 1
8 8 -6 13720.5 712.241 1
8 8 -7 938.059 171.456 1
8 7 -8 1132.87 219.55 1
7 8 -8 1336.13 235.294 1
8 8 -8 247.913 145.248 1
0 9 0 -65.1727 77.2928 1
-1 9 0 2992.21 266.107 1
1 9 0 3517.04 280.062 1
0 9 1 3553.12 269.896 1
0 9 -1 3474.86 287.493 1
1 9 -1 1932.96 231.628 1
-1 9 1 1843.22 198.831 1
1 9 1 1904.28 214.453 1
-1 9 -1 1675.22 210.366 1
2 9 1 2925.37 264.64 1
1 9 -2 3103.09 283.698 1
-1 9 2 3076.87 242.891 1
-2 9 -1 2861.38 251.795 1
-2 9 0 4948.19 307.017 1
2 9 0 4820.04 347.567 1
0 9 -2 5212.92 360.447 1
0 9 2 4818.54 321.75 1
-1 9 -2 3355.62 278.593 1
1 9 2 3538.08 275.645 1
-2 9 1 3375.8 251.99 1
2 9 -1 3262.96 297.799 1
-2 9 2 6.23869 58.1809 1
2 9 -2 67.2508 88.349 1
9 2 -2 75.3897 71.1013 1
2 9 2 123.12 92.9464 1
2 9 -3 2800.22 275.453 1
3 9 2 2518.77 258.657 1
-2 9 3 2329.71 197.386 1
9 3 -2 2297.57 244.329 1
3 9 1 9839.23 504.971 1
-1 9 3 9407.31 409.73 1
1 9 -3 9232.73 536.67 1
-3 9 0 4569.38 296.963 1
0 9 3 4216.91 285.727 1
3 9 0 4182.37 350.308 1
0 9 -3 4853.99 355.778 1
3 9 -1 11222.1 532.409 1
1 9 3 10230 471.912 1
-3 9 1 10231.9 423.09 1
-3 9 2 2027.88 187.79 1
3 9 -2 2512.58 258.681 1
9 2 -3 2471.86 246.616 1
2 9 3 1992.07 228.806 1
3 9 -3 2169.91 246.337 1
9 3 -3 2299.77 255.38 1
-3 9 3 2115.23 178.27 1
3 9 3 1940.39 228.662 1
9 4 -3 15526.5 638.574 1
3 9 -4 15897.8 683.597 1
-3 9 4 14741.8 443.455 1
4 9 3 15947.2 660.187 1
4 9 2 26345.4 847.494 1
-2 9 4 25653.8 618.088 1
9 4 -2 26726.4 852.369 1
2 9 -4 27179.1 870.192 1
-1 9 4 1980.49 197.602 1
1 9 -4 2392.78 265.474 1
9 4 -1 2110.27 246.594 1
4 9 1 1953.03 246.377 1
0 9 4 10973.7 464.145 1
4 9 0 12552.4 589.074 1
1 9 4 2295.65 223.341 1
-4 9 1 2157.98 195.883 1
9 1 -4 2067.62 203.642 1
4 9 -1 2146.4 265.991 1
4 9 -2 24068.2 825.241 1
9 2 -4 24420.2 735.166 1
-4 9 2 23101.2 600.469 1
2 9 4 23916.6 750.626 1
3 9 4 15756.3 637.751 1
-4 9 3 15032.8 445.233 1
4 9 -3 15892.1 685.47 1
9 3 -4 15377.8 618.353 1
-4 9 4 1155.66 118.528 1
9 4 -4 965.309 173.016 1
4 9 4 1075.38 189.718 1
4 9 -4 1184.72 208.952 1
5 9 4 490.034 145.878 1
9 5 -4 332.473 119.571 1
4 9 -5 478.097 120.709 1
5 4 -9 353.94 125.537 1
-3 9 5 3488.91 209.177 1
9 5 -3 3813.02 343.769 1
3 9 -5 4046.64 348.447 1
5 9 3 3667.33 341.76 1
5 3 -9 3853.68 309.552 1
5 9 2 5744.83 410.004 1
9 5 -2 5264.97 396.3 1
-2 9 5 5507.44 285.247 1
5 2 -9 5477.33 355.644 1
2 9 -5 6053.96 417.157 1
9 5 -1 985.204 177.881 1
5 1 -9 1097.63 142.467 1
1 9 -5 808.641 173.584 1
-1 9 5 1012.65 138.109 1
5 9 1 1070.62 179.188 1
0 9 5 1141.1 168.978 1
9 0 -5 1159.2 143.382 1
5 9 0 1376.69 214.752 1
5 0 -9 1110.26 135.991 1
9 5 0 1196.56 201.161 1
9 1 -5 1639.65 185.676 1
5 -1 -9 1117.61 137.849 1
5 9 -1 1173.32 216.697 1
1 9 5 1347.62 174.767 1
5 9 -2 6483.62 446.726 1
5 -2 -9 5686.67 265.022 1
-5 9 2 5968.64 297.756 1
9 2 -5 5871.83 365.836 1
5 9 -3 4128.7 356.804 1
5 -3 -9 3446.16 183.872 1
9 3 -5 3559.32 299.373 1
-5 9 3 3558.95 207.726 1
5 9 -4 337.49 141.808 1
-5 9 4 373.257 66.212 1
5 -4 -9 259.755 41.967 1
9 4 -5 182.666 101.929 1
9 5 -5 2149.54 255.55 1
5 9 -5 2065.83 267.552 1
5 5 -9 1992.12 242.436 1
5 9 -6 5955.8 452.383 1
6 5 -9 5787.67 421.428 1
9 6 -5 5498.17 444.225 1
9 6 -4 3149.3 357.435 1
4 9 -6 2672.76 302.525 1
6 4 -9 3316.19 300.236 1
6 3 -9 828.2 159.068 1
9 6 -3 871.336 167.355 1
3 9 -6 980.575 192.37 1
6 9 3 977.671 193.838 1
6 2 -9 6078.32 378.278 1
6 9 2 6531.96 460.523 1
2 9 -6 6598.39 456.963 1
9 6 -2 6591.15 465.446 1
9 -1 -6 301.745 80.8655 1
9 6 -1 386.459 146.9 1
6 9 1 257.679 126.001 1
6 1 -9 408.837 98.9881 1
6 0 -9 16219.1 530.226 1
9 6 0 17000.6 743.727 1
6 9 0 17078.5 720.198 1
9 0 -6 16094.8 536.039 1
6 9 -1 20.1905 104.119 1
9 1 -6 270.335 97.5032 1
6 -1 -9 206.461 55.683 1
9 2 -6 5151.63 338.236 1
-6 9 2 5442.4 278.149 1
6 -2 -9 5056.59 250.276 1
6 9 -2 5477.35 436.373 1
6 -3 -9 797.755 85.4246 1
-6 9 3 885.486 103.975 1
9 3 -6 913.45 168.523 1
6 9 -3 756.543 175.189 1
4 6 -9 3641.76 392.317 1
9 4 -6 3490 315.321 1
-6 9 4 2900.65 150.827 1
6 9 -4 3711.62 357.322 1
9 5 -6 6262.49 450.104 1
6 9 -5 6498.35 469.245 1
5 6 -9 6332.07 472.966 1
6 6 -9 3552 344.159 1
9 6 -6 3384.75 334.599 1
6 9 -6 3453.22 364.722 1
9 7 -6 3766.28 377.785 1
6 9 -7 3191.42 359.719 1
7 6 -9 3674.48 355.133 1
5 9 -7 3935.73 383.919 1
7 5 -9 3556.71 329.97 1
9 7 -5 3914.68 379.046 1
4 9 -7 7046.66 500.192 1
9 7 -4 7852.03 510.229 1
7 4 -9 7057.78 442.618 1
7 9 3 -44.521 100.063 1
9 7 -3 96.1193 89.6324 1
7 3 -9 -8.03028 56.3117 1
3 9 -7 269.708 144.456 1
9 7 -2 1908.11 264.082 1
7 2 -9 1812.62 201.693 1
7 9 2 1818.92 270.7 1
2 9 -7 1994.06 276.027 1
9 7 -1 2483.56 308.138 1
9 -1 -7 2115.99 184.63 1
7 1 -9 1953.03 208.928 1
7 9 1 2165.67 273.351 1
7 0 -9 207.509 73.9873 1
9 7 0 242.833 115.987 1
7 9 0 239.91 123.334 1
9 0 -7 137.524 73.554 1
7 9 -1 2034.96 263.683 1
7 -1 -9 1963.05 172.065 1
9 7 1 2232.06 287.863 1
9 1 -7 1807.38 200.039 1
7 -2 -9 1839.77 152.172 1
7 9 -2 1822.44 271.368 1
9 2 -7 1947.25 211.575 1
-7 9 3 20.1501 30.6675 1
7 -3 -9 68.1688 23.2982 1
4 7 -9 6544.23 472.956 1
9 4 -7 6731.66 444.661 1
7 9 -4 7191.5 514.95 1
9 5 -7 3778.06 347.699 1
5 7 -9 3899.25 367.093 1
7 9 -5 4375.87 403.522 1
9 6 -7 3169.02 328.773 1
7 9 -6 3383.37 361.26 1
6 7 -9 3449.2 355.24 1
7 9 -7 6752.02 503.007 1
7 7 -9 6324.55 479.856 1
9 7 -7 6855.96 510.201 1
8 7 -9 1397.26 228.435 1
9 8 -7 1635.53 266.06 1
7 9 -8 1546.25 248.018 1
8 6 -9 3669.65 361.391 1
6 9 -8 3895.16 394.606 1
9 8 -6 3768.86 375.202 1
5 9 -8 4507.99 421.586 1
8 5 -9 4233.82 364.637 1
9 8 -5 4355.96 397.155 1
9 8 -4 2237.24 290.459 1
8 4 -9 2356.27 270.79 1
4 9 -8 2234.46 307.206 1
9 8 -3 877.247 211.974 1
3 9 -8 891.218 180.88 1
8 3 -9 880.795 164.426 1
8 9 2 3621.05 367.502 1
8 2 -9 3644.24 307.619 1
9 -2 -8 3089.95 196.82 1
9 8 -2 3690.39 372.16 1
8 9 1 1317.2 234.411 1
8 1 -9 1210.19 160.421 1
9 -1 -8 1163.18 135.593 1
9 8 -1 1366.75 230.772 1
8 0 -9 2077.48 199.526 1
8 9 0 2141.71 289.976 1
9 8 0 2190.79 289.96 1
9 0 -8 2201.74 203.175 1
8 9 -1 895.36 193.893 1
8 -1 -9 778.852 124.006 1
9 1 -8 918.42 154.965 1
9 8 1 777.281 177.091 1
8 9 -2 4131.07 380.164 1
9 2 -8 3931.99 310.499 1
8 -2 -9 3363.32 203.267 1
8 9 -3 1236.41 220.12 1
8 -3 -9 913.902 82.1407 1
3 8 -9 1103.61 189.449 1
9 3 -8 1133.01 175.757 1
9 4 -8 1795.67 241.222 1
4 8 -9 1981.96 263.846 1
8 9 -4 1671.11 271.009 1
-8 9 4 1404.62 89.7616 1
5 8 -9 4647.28 415.276 1
9 5 -8 4336.83 378.59 1
8 9 -5 4905.01 443.66 1
6 8 -9 3658.57 392.561 1
8 9 -6 3929.44 398.079 1
9 6 -8 3939.13 377.75 1
8 9 -7 1802.23 280.684 1
9 7 -8 1918.36 277.001 1
7 8 -9 1707.31 254.903 1
8 9 -8 11333.8 690.895 1
8 8 -9 11241.7 665.03 1
9 8 -8 11211.6 679.996 1
9 9 0 289.433 152.071 1
9 0 -9 228.091 84.0327 1
9 -1 -9 363.01 88.6324 1
9 1 -9 287.591 79.4463 1
9 9 1 409.186 170.768 1
9 9 -1 292.085 127.225 1
9 -2 -9 714.855 94.0899 1
9 2 -9 760.218 153.813 1
9 9 2 779.984 204.079 1
9 9 -2 970.384 205.306 1
9 9 -3 612.809 143.26 1
3 9 -9 865.323 191.021 1
9 3 -9 859.289 176.175 1
4 9 -9 922.045 229.142 1
9 9 -4 919.831 218.94 1
9 4 -9 911.737 172.768 1
5 9 -9 4337.83 420.681 1
9 5 -9 4495.17 392.55 1
9 9 -5 4781.33 448.683 1
9 9 -6 795.425 203.748 1
6 9 -9 784.977 170.249 1
9 6 -9 731.362 200.736 1
9 9 -7 2856 345.526 1
7 9 -9 2717.02 345.734 1
9 7 -9 2518.23 302.783 1
8 9 -9 2900.1 359.744 1
9 9 -8 3000.71 375.968 1
9 8 -9 2244.25 313.993 1
9 9 -9 24065.9 1049.37 1
0 10 0 -44.2198 72.4821 1
0 10 -1 3398.26 292.516 1
-1 10 0 3281.76 280.461 1
0 10 1 3151.65 269.879 1
1 10 0 3278.85 292.77 1
-1 10 -1 616.157 161.617 1
1 10 -1 487.984 120.053 1
1 10 1 442.687 118.969 1
-1 10 1 459.736 118.344 1
-2 10 -1 2652.58 252.211 1
1 10 -2 2656.43 276.944 1
-1 10 2 2580.47 242.692 1
2 10 1 2638.97 287.718 1
0 10 -2 13080.4 581.382 1
-2 10 0 12539.3 525.945 1
2 10 0 12315.2 577.648 1
0 10 2 11695.4 523.984 1
1 10 2 2505.93 252.077 1
-1 10 -2 2693.03 266.153 1
-2 10 1 2550.78 237.286 1
2 10 -1 2573.91 274.128 1
-2 10 -2 76.8093 87.2685 1
2 10 2 4.03276 76.4036 1
-2 10 2 -0.67965 54.6754 1
2 10 -2 -37.3598 71.9012 1
10 3 -2 6312.08 413.008 1
3 10 2 7030.35 444.672 1
2 10 -3 7475.02 475.278 1
-2 10 3 6975.83 362.834 1
3 10 1 4993.99 375.239 1
-1 10 3 4782.1 309.663 1
-3 10 -1 4714.74 340.424 1
1 10 -3 4842.09 371.905 1
0 10 3 232.028 70.7503 1
3 10 0 467.065 145.166 1
-3 10 0 229.043 86.2934 1
0 10 -3 238.51 122.668 1
3 10 -1 5295.93 397.845 1
-1 10 -3 4869.58 369.433 1
-3 10 1 4687.45 314.499 1
1 10 3 4712.95 344.417 1
2 10 3 7388.64 436.451 1
3 10 -2 7610.04 478.776 1
10 2 -3 6690.81 414.481 1
-3 10 2 7162.93 366.221 1
10 3 -3 27187.5 857.656 1
3 10 3 28216.1 881.143 1
-3 10 3 25948.2 675.063 1
3 10 -3 26686.8 905.007 1
10 4 -3 3057.45 288.696 1
4 10 3 3144.84 314.378 1
-3 10 4 3110.2 220.519 1
3 10 -4 3570.49 339.054 1
10 4 -2 8121.61 488.836 1
-2 10 4 7770.75 368.145 1
2 10 -4 8139.82 508.068 1
4 10 2 8222.61 497.613 1
4 10 1 5245.52 393.603 1
-1 10 4 5220.12 323.265 1
1 10 -4 5371.43 428.21 1
0 10 -4 1681.2 229.846 1
4 10 0 1639.96 223.926 1
0 10 4 1448.31 178.386 1
-4 10 0 1497.5 180.478 1
10 1 -4 5465 353.405 1
4 10 -1 6318.98 444.493 1
1 10 4 6042.21 381.523 1
-4 10 1 5834.18 350.358 1
2 10 4 9196.48 491.747 1
4 10 -2 10038.4 558.567 1
10 2 -4 8837.33 475.982 1
-4 10 2 8934.61 399.148 1
3 10 4 3403.41 320.757 1
-4 10 3 3582.09 237.874 1
4 10 -3 3836.45 359.936 1
10 3 -4 3271.4 316.902 1
10 4 -4 2635.11 267.154 1
4 10 4 2469.95 279.784 1
4 10 -4 2671.51 304.461 1
-4 10 4 2385.62 186.4 1
5 4 -10 5307.08 385.799 1
10 5 -4 5313.4 417.165 1
-4 10 5 4699.57 239.24 1
5 10 4 5374.82 423.327 1
4 10 -5 5191.22 432.989 1
5 10 3 4692.92 394.608 1
-3 10 5 4169.87 249.932 1
5 3 -10 4357.85 347.036 1
3 10 -5 4940.8 416.227 1
10 5 -3 4546.21 395.64 1
5 2 -10 1449.12 183.97 1
-2 10 5 1488.07 161.982 1
2 10 -5 1953.76 256.666 1
5 10 2 1684.42 247.531 1
5 10 1 9582.74 546.477 1
1 10 -5 10011.1 567.421 1
-1 10 5 8857.02 416.579 1
10 5 -1 9402.88 558.252 1
5 10 0 47.8799 89.7438 1
0 10 5 -7.91294 46.8336 1
10 1 -5 8987.18 455.625 1
1 10 5 8995.75 465.901 1
5 10 -1 9789.09 573.492 1
-5 10 1 8640.88 410.102 1
-5 10 2 1689.74 172.172 1
10 2 -5 1681.14 212.086 1
2 10 5 1409.16 193.345 1
5 10 -2 1425.24 234.193 1
-5 10 3 3977.65 241.375 1
5 10 -3 4177.97 382.625 1
10 3 -5 4015.51 337.168 1
-5 10 4 4234.87 229.811 1
5 -4 -10 4438.02 196.118 1
10 4 -5 4982.88 379.66 1
5 10 -4 5315.46 437.923 1
5 -5 -10 829.009 64.5956 1
5 5 -10 1260.78 211.386 1
-5 10 5 918.07 93.1004 1
5 10 -5 1107.91 223.049 1
10 5 -5 1151.24 186.215 1
6 5 -10 5528.75 416.664 1
10 6 -5 5520.53 443.4 1
5 10 -6 5309.51 454.804 1
6 4 -10 954.973 174.24 1
4 10 -6 1216 234.379 1
10 6 -4 1013.03 207.338 1
3 10 -6 4149.22 394.478 1
6 10 3 4048.82 378.844 1
6 3 -10 4033.43 341.606 1
10 6 -3 4332.95 384.472 1
6 10 2 2332.27 290.965 1
2 10 -6 2058.1 298.502 1
6 2 -10 2374.35 250.623 1
10 6 -2 2437.72 290.656 1
1 10 -6 2305.19 303.867 1
6 1 -10 2187.84 223.551 1
6 10 1 2365.39 302.044 1
10 6 -1 2288.24 282.443 1
10 6 0 8452.4 546.401 1
10 0 -6 8322.83 403.933 1
6 10 0 8982.18 553.945 1
6 0 -10 8561.29 409.715 1
6 -1 -10 1639.31 172.064 1
6 10 -1 2017.29 267.132 1
10 1 -6 1777.87 214.078 1
6 10 -2 2655.85 313.257 1
6 -2 -10 2280.54 180.557 1
10 2 -6 2322.01 250.778 1
-6 10 2 2466.21 208.173 1
10 3 -6 3691.81 319.899 1
-6 10 3 3618.77 226.429 1
6 -3 -10 3390.86 188.956 1
6 10 -3 4426.04 397.123 1
6 10 -4 1112.61 241.79 1
10 4 -6 979.59 174.074 1
6 -4 -10 809.447 71.2036 1
-6 10 4 803.847 95.9376 1
5 6 -10 5291.48 432.474 1
10 5 -6 5117.55 397.294 1
6 10 -5 5266.27 441.044 1
6 6 -10 6890.14 491.687 1
6 10 -6 7099.09 520.083 1
10 6 -6 6292.99 474.015 1
6 10 -7 900.732 185.88 1
7 6 -10 910.395 215.226 1
10 7 -6 1065.25 203.524 1
10 7 -5 2893.91 317.322 1
5 10 -7 3066.45 346.029 1
7 5 -10 2700.62 298.358 1
10 7 -4 1409.77 233.331 1
7 4 -10 1358.4 208.12 1
4 10 -7 1473.94 234.145 1
3 10 -7 7948.64 559.205 1
7 10 3 7986.24 561.323 1
10 7 -3 8243.05 548.716 1
7 3 -10 7732.56 466.617 1
7 2 -10 57.4705 52.9785 1
2 10 -7 197.04 130.832 1
7 10 2 0.72162 101.653 1
10 7 -2 110.123 79.4621 1
10 7 -1 6837.37 501.961 1
7 1 -10 6808.32 393.893 1
7 10 1 7099.83 515.219 1
7 10 0 486.573 146.115 1
10 7 0 695.578 173.15 1
10 0 -7 696.568 119.406 1
7 0 -10 562.813 112.667 1
7 10 -1 7132.63 518.334 1
7 -1 -10 6636.89 337.003 1
10 1 -7 6874.22 402.078 1
10 2 -7 128.411 102.226 1
7 10 -2 48.5846 91.221 1
-7 10 2 52.0878 57.8576 1
7 -2 -10 68.648 43.9481 1
-7 10 3 7270.51 312.542 1
10 3 -7 7592.6 469.032 1
7 -3 -10 6790.8 256.067 1
7 10 -3 7866.2 545.85 1
4 7 -10 1655.39 245.701 1
-7 10 4 1212.43 105.329 1
10 4 -7 1282.67 213.641 1
10 5 -7 2405.89 303.362 1
5 7 -10 2919.87 337.913 1
7 10 -5 3036.9 350.656 1
6 7 -10 1361.69 236.483 1
7 10 -6 1432.31 266.229 1
10 6 -7 1334.13 230.841 1
7 7 -10 648.929 178.886 1
7 10 -7 797.642 186.451 1
10 7 -7 653.05 175.716 1
10 8 -7 3689.18 384.476 1
7 10 -8 3913.45 422.873 1
8 7 -10 3402.05 375.877 1
6 10 -8 4006.28 416.602 1
8 6 -10 3875.02 380.396 1
10 8 -6 4114.45 412.18 1
8 5 -10 653.066 175.875 1
5 10 -8 476.465 148.732 1
10 8 -5 567.5 160.883 1
4 10 -8 2695.76 339.418 1
8 4 -10 2798.6 300.632 1
10 8 -4 3083.75 360.612 1
8 3 -10 905.523 162.116 1
10 8 -3 826.614 183.02 1
3 10 -8 1126.12 231.757 1
8 10 3 921.095 212.874 1
2 10 -8 147.015 123.187 1
10 8 -2 27.5452 77.7863 1
8 2 -10 206.674 101.068 1
8 10 2 152.353 100.203 1
8 10 1 -2.10077 90.5192 1
10 8 -1 98.3347 113.126 1
8 1 -10 -30.1253 62.356 1
10 -1 -8 138.342 68.5758 1
10 8 0 1070.85 208.273 1
8 0 -10 1176.82 164.473 1
10 0 -8 1108.57 159.374 1
8 10 0 1180.46 226.868 1
10 1 -8 87.8201 57.2727 1
10 8 1 205.076 127.024 1
8 -1 -10 146.774 63.5621 1
8 10 -1 34.0591 92.0587 1
8 -2 -10 127.871 43.5183 1
10 2 -8 29.6184 60.4708 1
8 10 -2 197.582 114.013 1
8 -3 -10 892.884 91.371 1
8 10 -3 1015.01 219.58 1
10 3 -8 1281.78 197.129 1
-8 10 3 969.946 114.198 1
8 10 -4 2995.91 353.435 1
4 8 -10 2962.56 355.523 1
10 4 -8 2648.08 297.979 1
8 10 -5 522.177 184.423 1
5 8 -10 785.845 195.575 1
10 5 -8 615.201 133.956 1
8 10 -6 3816.34 408.841 1
10 6 -8 3776.15 378.705 1
6 8 -10 3714.04 389.198 1
8 10 -7 3180.26 377.571 1
10 7 -8 2926.54 338.901 1
7 8 -10 3078.72 363.94 1
10 8 -8 7718.71 578.721 1
8 10 -8 7506.04 584.903 1
8 8 -10 8135.88 575.238 1
10 9 -8 797.421 205.049 1
8 10 -9 637.842 171.078 1
9 8 -10 996.51 231.103 1
9 7 -10 8162.1 575.033 1
7 10 -9 8655.05 628.883 1
10 9 -7 8107.16 602.34 1
9 6 -10 1590.77 251.59 1
6 10 -9 1673.77 292.854 1
10 9 -6 1576.34 268.986 1
5 10 -9 656.473 168.824 1
10 9 -5 628.252 166.884 1
9 5 -10 377.727 111.036 1
9 4 -10 -14.7328 64.4328 1
10 9 -4 300.551 146.4 1
4 10 -9 178.92 84.407 1
10 9 -3 1580.04 277.019 1
9 3 -10 1394.99 207.602 1
3 10 -9 1550.56 253.329 1
2 10 -9 397.74 154.629 1
9 10 2 75.1324 85.3609 1
9 2 -10 263.596 100.883 1
10 9 -2 114.064 94.7152 1
10 -1 -9 2014.58 198.429 1
9 1 -10 2254.37 254.001 1
9 10 1 2279.78 327.966 1
10 9 -1 2733.12 347.935 1
9 10 0 197.498 144.532 1
9 0 -10 122.109 71.0321 1
10 0 -9 178.373 79.1434 1
10 9 0 442.375 184.263 1
10 9 1 2265.56 323.645 1
10 1 -9 1970.61 223.834 1
9 10 -1 2184.93 306.965 1
9 -1 -10 1728.31 177.263 1
9 10 -2 313.411 156.495 1
9 -2 -10 251.339 68.8033 1
10 2 -9 374.374 120.398 1
9 10 -3 883.124 205.836 1
3 9 -10 1016.87 219.354 1
-9 10 3 760.963 99.5908 1
10 3 -9 912.036 177.827 1
10 4 -9 91.4862 87.4819 1
9 10 -4 286.805 155.087 1
4 9 -10 210.259 79.3762 1
5 9 -10 817.151 216.815 1
9 10 -5 475.268 146.74 1
10 5 -9 790.183 182.939 1
9 10 -6 1969.94 290.586 1
10 6 -9 1762.13 264.67 1
6 9 -10 1929.86 301.895 1
10 7 -9 8495.66 590.887 1
7 9 -10 8727.67 621.688 1
9 10 -7 8773.09 630.333 1
9 10 -8 643.165 179.289 1
8 9 -10 960.88 227.355 1
10 8 -9 814.313 202.87 1
9 10 -9 125.845 121 1
9 9 -10 210.383 100.544 1
10 9 -9 233.284 150.108 1
10 0 -10 383.722 110.954 1
10 10 0 239.644 138.367 1
10 10 1 1140.33 230.428 1
10 -1 -10 805.641 125.316 1
10 1 -10 767.312 133.101 1
10 10 -1 906.329 240.853 1
10 -2 -10 217.46 50.7843 1
10 10 -2 314.942 147.76 1
10 2 -10 28.5872 73.1037 1
10 10 -3 467.003 186.634 1
3 10 -10 332.258 110.266 1
10 3 -10 458.714 134.531 1
10 10 -4 267.803 115.103 1
10 4 -10 222.913 107.2 1
4 10 -10 392.926 165.614 1
5 10 -10 1225.35 233.619 1
10 5 -10 1159.23 220.451 1
10 10 -5 1136.67 211.919 1
10 10 -6 5571.1 505.484 1
6 10 -10 5082.01 491.719 1
10 6 -10 4855.2 441.837 1
10 10 -7 8032.63 618.132 1
7 10 -10 8443.37 642.001 1
10 7 -10 8069.97 599.163 1
8 10 -10 398.131 154.112 1
10 8 -10 674.72 176.419 1
10 10 -8 649.886 174.91 1
10 10 -9 3160.38 399.077 1
10 9 -10 3170.22 399.825 1
9 10 -10 3178.25 395.334 1
10 10 -10 221.363 140.938 1
0 11 0 -12.7321 68.4566 1
0 11 1 4070.73 324.148 1
1 11 0 3775.84 318.995 1
-1 11 0 4071.18 322.58 1
0 11 -1 4039.75 332.891 1
-1 11 -1 774.454 160.294 1
1 11 1 665.146 142.872 1
-1 11 1 548.069 130.979 1
1 11 -1 702.122 153.496 1
-1 11 2 1517.37 190.466 1
1 11 -2 1746.96 242.453 1
2 11 1 1536.36 207.841 1
-2 11 -1 1329.73 186.903 1
2 11 0 430.951 129.823 1
-2 11 0 438.319 119.653 1
0 11 2 385.212 100.673 1
0 11 -2 466.299 133.147 1
-1 11 -2 1886.61 244.116 1
1 11 2 1382.01 209.748 1
-2 11 1 1703.71 201.166 1
2 11 -1 1216.43 200.523 1
2 11 -2 20870.1 804.091 1
2 11 2 19422 748.952 1
-2 11 -2 20510.7 745.658 1
-2 11 2 19288.6 660.228 1
-2 11 3 3083.31 261.705 1
3 11 2 3669.3 340.054 1
2 11 -3 3687.73 347.085 1
-1 11 3 6215.54 378.684 1
-3 11 -1 6408.45 408.876 1
1 11 -3 6729.21 457.889 1
3 11 1 6666.52 451.455 1
3 11 0 178.22 94.6435 1
0 11 -3 387.567 137.316 1
-3 11 0 258.929 91.2348 1
0 11 3 256.894 109.593 1
3 11 -1 6868.86 472.628 1
-3 11 1 6935.4 401.23 1
-1 11 -3 6928.4 455.237 1
1 11 3 6946.53 426.033 1
-2 11 -3 3263.14 311.644 1
-3 11 2 3039.64 258.059 1
3 11 -2 3173.52 332.671 1
2 11 3 2870.1 288.077 1
-3 11 3 4439.05 301.833 1
3 11 -3 5141.64 423.259 1
11 3 -3 4654.17 374.832 1
3 11 3 4764.42 382.257 1
11 4 -3 1768.6 226.455 1
3 11 -4 2071.94 288.049 1
-3 11 4 1939.6 193.888 1
4 11 3 1875.95 260.625 1
4 11 2 4709.65 391.207 1
11 4 -2 4763.11 391.704 1
2 11 -4 5119.96 421.13 1
-2 11 4 4240.96 293.918 1
-1 11 4 2401.92 232.219 1
4 11 1 2263.03 275.202 1
1 11 -4 2852.43 321.748 1
-4 11 0 9970.59 488.182 1
0 11 -4 9958.89 567.88 1
0 11 4 9208.89 475.129 1
4 11 0 9838.81 572.793 1
1 11 4 2122.91 242.957 1
-4 11 1 2133.25 218.034 1
4 11 -1 2406.87 289.02 1
-1 11 -4 2440.06 282.605 1
-4 11 2 4943.82 317.34 1
2 11 4 4906.88 378.383 1
4 11 -2 5037.51 419.766 1
11 2 -4 4738.26 359.296 1
3 11 4 1688.58 227.64 1
4 11 -3 2269.65 290.032 1
-4 11 3 1572.88 176.097 1
11 3 -4 1829.96 243.078 1
4 11 4 8280.87 523.239 1
-4 11 4 7795.92 362.088 1
4 11 -4 8950.32 574.474 1
11 4 -4 8545.99 532.286 1
-4 11 5 7108.02 325.353 1
5 4 -11 7637.44 491.987 1
5 11 4 7578.28 518.702 1
11 5 -4 8352.49 543.344 1
4 11 -5 7907.52 548.505 1
11 5 -3 118.757 88.7517 1
5 11 3 459.31 152.464 1
-3 11 5 285.183 79.2853 1
3 11 -5 229.296 119.094 1
-2 11 5 3075.11 249.584 1
5 11 2 3573.84 358.087 1
2 11 -5 3177.54 338.759 1
11 5 -2 3141.64 340.035 1
5 11 1 6933.84 495.82 1
-1 11 5 6577.59 380.332 1
1 11 -5 6788.19 490.904 1
5 11 0 5723.71 454.893 1
-5 11 0 5324.21 351.903 1
0 11 -5 5294.87 421.329 1
0 11 5 4877.24 349.176 1
1 11 5 6470.03 418.482 1
-5 11 1 6799.46 385.32 1
5 11 -1 6959.28 497.143 1
-5 11 2 2397.23 222.079 1
5 11 -2 2830.93 319.58 1
2 11 5 2611.1 270.581 1
11 2 -5 2649.75 274.068 1
5 11 -3 170.443 135.382 1
3 11 5 559.832 149.591 1
-5 11 3 387.849 88.4756 1
11 3 -5 335.219 95.3206 1
5 11 -4 8192.39 552.514 1
-5 11 4 6944.53 322.598 1
11 4 -5 8052.96 500.735 1
5 -5 -11 28.8158 22.0356 1
11 5 -5 55.545 98.9007 1
5 5 -11 -70.5864 69.1055 1
5 11 -5 -33.755 125.958 1
6 5 -11 1346.72 226.935 1
11 6 -5 1204.92 227.496 1
5 11 -6 1141.02 245.59 1
6 4 -11 2657.58 292.78 1
4 11 -6 2533.19 328.866 1
6 11 4 2572.21 319.726 1
11 6 -4 2631.54 308.482 1
6 11 3 1938.13 279.232 1
3 11 -6 1872.18 266.152 1
6 3 -11 1751.98 238.078 1
11 6 -3 2024.88 282.728 1
2 11 -6 10478.4 637.716 1
6 11 2 10543.8 632.764 1
11 6 -2 10733 631.339 1
6 2 -11 10574.4 534.049 1
1 11 -6 331.491 111.236 1
6 1 -11 317.746 92.6254 1
11 6 -1 235.582 116.741 1
6 11 1 296.56 129.311 1
6 11 0 11564.1 649.414 1
6 0 -11 11791.1 505.876 1
0 11 -6 11124.1 630.554 1
6 -1 -11 509.93 103.743 1
-6 11 1 412.402 100.8 1
11 1 -6 403.667 111.931 1
6 11 -1 364.848 144.78 1
-6 11 2 9497.33 425.777 1
6 -2 -11 9432.05 395.229 1
11 2 -6 9065.75 497.028 1
6 11 -2 10494.2 630.4 1
-6 11 3 1583.68 164.27 1
6 11 -3 1797.46 274.959 1
11 3 -6 1698.27 226.002 1
6 -3 -11 1473.41 142.545 1
11 4 -6 2843.13 304.078 1
6 -4 -11 2050.67 131.42 1
-6 11 4 2462.44 182.233 1
6 11 -4 2723.44 329.5 1
6 11 -5 1328.04 239.766 1
-6 11 5 1055.44 97.2617 1
11 5 -6 1156.18 201.879 1
5 6 -11 1167.47 217.135 1
6 6 -11 3538.8 373.693 1
6 11 -6 3414.61 367.922 1
11 6 -6 3356.2 352.632 1
7 6 -11 816.199 188.716 1
11 7 -6 1128.09 230.346 1
6 11 -7 985.811 218.83 1
11 7 -5 3472.57 370.972 1
5 11 -7 3619.88 384.258 1
7 5 -11 3266.31 335.336 1
4 11 -7 1585.17 265.577 1
7 4 -11 1201.47 207.858 1
11 7 -4 1007.66 218.38 1
7 11 3 916.651 193.509 1
11 7 -3 972.098 208.801 1
7 3 -11 863.259 172.014 1
3 11 -7 1027.71 231.265 1
7 2 -11 1573.99 211.802 1
7 11 2 1624.74 256.614 1
2 11 -7 1796.88 268.503 1
11 7 -2 1890.62 291.3 1
1 11 -7 1514.26 250.398 1
11 7 -1 1775.96 270.195 1
7 11 1 1284.31 231.709 1
7 1 -11 1587.48 199.478 1
11 0 -7 66.58 48.8457 1
7 0 -11 214.077 64.5176 1
7 11 0 279.331 123.031 1
7 -1 -11 1944.53 194.062 1
7 11 -1 2069.52 298.923 1
11 1 -7 1833.12 218.395 1
7 11 -2 2170.72 302.433 1
11 2 -7 2079.25 236.313 1
7 -2 -11 1868.05 166.953 1
-7 11 2 2138.37 201.413 1
-7 11 3 896.539 119.971 1
7 11 -3 1007.12 217.584 1
11 3 -7 790.493 165.065 1
7 -3 -11 737.716 95.6072 1
4 7 -11 1301.43 240.691 1
-7 11 4 946.67 113.786 1
7 11 -4 1169.52 223.127 1
11 4 -7 1187.27 199.117 1
11 5 -7 3520.77 351.844 1
7 11 -5 3887.46 408.399 1
5 7 -11 3457.03 377.956 1
11 6 -7 1238.87 223.807 1
6 7 -11 1055.74 205.318 1
7 11 -6 899.376 202.399 1
7 7 -11 1176.27 228.97 1
7 11 -7 1217.37 252.025 1
11 7 -7 905.651 207.885 1
7 11 -8 3648.02 406.129 1
11 8 -7 4301.72 428.797 1
8 7 -11 3893.68 405.945 1
6 11 -8 3851.04 425.327 1
8 6 -11 3717.08 394.387 1
11 8 -6 3610.04 400.151 1
8 5 -11 2721.5 314.647 1
5 11 -8 2875.07 356.563 1
11 8 -5 2834.86 353.575 1
11 8 -4 917.264 207.075 1
4 11 -8 1067.31 213.95 1
8 4 -11 964.628 179.029 1
8 3 -11 466.228 117.036 1
11 8 -3 595.747 160.462 1
3 11 -8 728.843 171.052 1
8 11 3 796.414 202.274 1
11 8 -2 6401.16 525.797 1
8 2 -11 6261.23 415.664 1
2 11 -8 6263.22 515.643 1
8 11 2 6463.62 527.465 1
1 11 -8 337.101 139.609 1
8 11 1 238.836 178.15 1
8 1 -11 227.971 87.7652 1
11 8 -1 163.391 120.353 1
8 0 -11 4663.44 317.351 1
11 8 0 4309.26 430.1 1
8 11 0 4689.36 456.047 1
11 0 -8 4239.36 307.532 1
8 11 -1 -65.0875 100.023 1
8 -1 -11 54.1891 46.9499 1
-8 11 2 5832.64 329.05 1
8 -2 -11 5270.15 289.14 1
11 2 -8 6159.56 412.606 1
8 11 -2 5793.17 490.055 1
8 -3 -11 518.622 72.7829 1
-8 11 3 559.361 91.1033 1
11 3 -8 730.99 151.312 1
8 11 -3 672.235 174.995 1
4 8 -11 1457.07 263.286 1
8 11 -4 1251.75 238.814 1
11 4 -8 1271.98 216.615 1
5 8 -11 3623.67 402.756 1
8 11 -5 3748.16 419.097 1
11 5 -8 3021.83 327.234 1
8 11 -6 3850.64 424.603 1
6 8 -11 3697.43 396.064 1
11 6 -8 3449.08 355.604 1
7 8 -11 4144.69 425.373 1
11 7 -8 4128.18 424.967 1
8 11 -7 3897.39 429.838 1
11 8 -8 273.714 136.62 1
8 8 -11 149.898 144.367 1
8 11 -8 -68.0729 99.3348 1
9 8 -11 157.036 127.653 1
8 11 -9 84.9228 96.6207 1
7 11 -9 7222.42 592.342 1
11 9 -7 6745.97 567.083 1
9 7 -11 7300.06 561.194 1
6 11 -9 2119.79 304.578 1
9 6 -11 2611.85 324.628 1
11 9 -6 2435.9 344.966 1
9 5 -11 152.089 113.362 1
5 11 -9 193.719 124.665 1
11 9 -5 114.779 115.661 1
11 9 -4 741.654 211.457 1
4 11 -9 673.56 214.137 1
9 4 -11 695.69 172.167 1
11 9 -3 1557.83 276.432 1
3 11 -9 1178.36 227.482 1
9 3 -11 1329.48 206.343 1
9 2 -11 1004.95 172.092 1
9 11 2 1011.29 229.83 1
2 11 -9 836.548 185.052 1
11 9 -2 1113.58 245.469 1
9 11 1 304.36 106.708 1
9 1 -11 700.703 128.816 1
11 9 -1 433.937 177.577 1
11 -1 -9 566.799 117.416 1
9 0 -11 16.514 47.4995 1
9 11 0 183.425 150.619 1
11 0 -9 42.0172 67.8443 1
11 9 0 140.228 163.271 1
9 -1 -11 565.434 110.068 1
9 11 -1 494.957 165.214 1
11 1 -9 634.789 136.634 1
9 -2 -11 548.197 89.6763 1
11 2 -9 682.578 151.071 1
9 11 -2 559.076 175.26 1
11 3 -9 1300.93 208.836 1
3 9 -11 1413.2 271.368 1
9 11 -3 1526.33 284.068 1
-9 11 3 1251.01 135.313 1
11 4 -9 666.761 166.045 1
4 9 -11 593.401 171.127 1
9 11 -4 327.878 140.858 1
9 11 -5 206.206 156.623 1
11 5 -9 -29.1637 124.686 1
5 9 -11 77.1604 90.9526 1
6 9 -11 2021.26 297.25 1
11 6 -9 2172.24 297.361 1
9 11 -6 1879.36 306.985 1
7 9 -11 7293.93 583.751 1
11 7 -9 7185.51 558.49 1
9 11 -7 7679.83 624.633 1
9 11 -8 390.596 153.438 1
8 9 -11 388.894 142.133 1
11 8 -9 342.236 162.665 1
11 9 -9 279.806 136.448 1
9 9 -11 198.031 141.714 1
9 11 -9 329.808 141.563 1
11 10 -9 826.282 208.141 1
10 9 -11 1038.74 222.633 1
9 11 -10 1070.53 218.788 1
11 10 -8 1908.04 313.444 1
10 8 -11 1934.56 296.462 1
8 11 -10 2009.78 334.219 1
7 11 -10 2801.53 379.497 1
11 10 -7 2805.46 375.597 1
10 7 -11 3772.46 413.128 1
11 10 -6 537.595 178.097 1
10 6 -11 650.541 189.621 1
6 11 -10 427.166 179.918 1
10 5 -11 852.627 187.956 1
11 10 -5 743.479 184.507 1
5 11 -10 741.95 197.279 1
10 4 -11 1677.07 244.592 1
4 11 -10 1766.77 309.847 1
11 10 -4 1591.48 297.467 1
11 10 -3 1082.05 250.622 1
10 3 -11 876.523 184.391 1
3 11 -10 916.942 231.932 1
10 2 -11 61.9536 93.0669 1
2 11 -10 -37.7304 143.074 1
11 10 -2 78.7196 142.682 1
10 11 2 227.428 151.884 1
11 10 -1 186.242 131.418 1
11 -1 -10 224.447 73.787 1
10 11 1 38.5201 139.602 1
10 1 -11 239.014 91.3541 1
10 11 0 3058.7 387.679 1
11 10 0 3412.02 403.373 1
10 0 -11 2933.1 264.52 1
11 0 -10 3338.8 279.702 1
11 10 1 304.031 155.601 1
11 1 -10 101.645 47.4939 1
10 -1 -11 252.116 68.7132 1
11 2 -10 125.538 65.7752 1
10 11 -2 89.7929 118.134 1
11 3 -10 963.574 202.34 1
10 11 -3 993.395 221.241 1
3 10 -11 876.626 196.84 1
11 4 -10 1258.94 220.576 1
4 10 -11 1525.03 280.148 1
10 11 -4 1339.13 261.201 1
11 5 -10 721.108 178.935 1
10 11 -5 815.324 224.629 1
5 10 -11 610.168 151.686 1
11 6 -10 494.081 160.432 1
10 11 -6 359.57 164.911 1
6 10 -11 457.626 148.609 1
11 7 -10 3291.83 393.337 1
7 10 -11 3222.02 413.033 1
10 11 -7 2687.87 380.514 1
8 10 -11 1782.49 305.689 1
10 11 -8 2292.49 339.995 1
11 8 -10 1903.68 317.259 1
11 9 -10 1083.92 260.462 1
10 11 -9 1206.94 278.18 1
9 10 -11 1332.59 274.24 1
10 11 -10 2541.7 383.233 1
10 10 -11 2641.04 397.563 1
11 10 -10 2371.89 355.956 1
11 11 0 2650.88 375.265 1
11 0 -11 2303.13 238.874 1
11 11 -1 961.103 223.76 1
11 1 -11 790.313 150.241 1
11 11 1 1003.08 233.359 1
11 -1 -11 930.505 142.471 1
11 2 -11 1759.69 240.813 1
11 11 -2 2008.66 319.211 1
2 11 -11 1971.66 325.754 1
3 11 -11 2799.96 378.048 1
11 3 -11 2606.32 304.285 1
11 11 -3 2343.67 363.596 1
11 11 -4 651.758 220.828 1
4 11 -11 863.056 217.376 1
11 4 -11 690.59 169.533 1
5 11 -11 1853.49 311.216 1
11 11 -5 1890.15 325.332 1
11 5 -11 1622.95 254.126 1
11 11 -6 1971.54 321.266 1
6 11 -11 2043.29 304.432 1
11 6 -11 1996.99 291.66 1
11 11 -7 842.195 200.282 1
11 7 -11 1074.04 245.089 1
7 11 -11 889.79 220.096 1
11 11 -8 570.239 219.927 1
11 8 -11 483.963 161.865 1
8 11 -11 710.534 225.453 1
11 11 -9 304.108 146.314 1
9 11 -11 249.661 91.7094 1
11 9 -11 493.268 206.885 1
10 11 -11 478.719 163.024 1
11 10 -11 531.425 198.88 1
11 11 -10 206.909 158.121 1
11 11 -11 677.945 212.048 1
0 12 0 2876.63 295.545 1
-1 12 0 3521.64 316.577 1
0 12 1 3470.8 320.276 1
1 12 0 3710.83 341.361 1
0 12 -1 3501.6 338.9 1
1 12 -1 784.062 188.677 1
-1 12 1 563.065 132.129 1
1 12 1 697.476 150.09 1
-1 12 -1 535.047 150.541 1
1 12 -2 381.534 146.431 1
2 12 1 692.146 205.385 1
-2 12 -1 480.727 130.429 1
-1 12 2 515.552 139.84 1
2 12 0 2475.05 293.326 1
-2 12 0 2586.53 271.034 1
0 12 -2 2406.62 284.832 1
0 12 2 2495.24 264.612 1
2 12 -1 889.71 174.184 1
-2 12 1 682.661 139.041 1
1 12 2 668.876 149.459 1
2 12 2 4482.19 371.137 1
-2 12 2 3997.91 326.747 1
2 12 -2 4580 403.262 1
-2 12 -2 4474.35 380.298 1
-3 12 -2 857.757 178.855 1
3 12 2 666.101 169.114 1
2 12 -3 773.915 171.537 1
-2 12 3 755.152 137.117 1
-3 12 -1 9386.23 519.468 1
3 12 1 9044.75 562.992 1
1 12 -3 8661.05 548.024 1
-1 12 3 9175.14 485.558 1
0 12 3 367.658 108.441 1
-3 12 0 450.398 117.327 1
3 12 0 435.856 135.83 1
0 12 -3 557.184 170.183 1
3 12 -1 8863 557.777 1
1 12 3 8980.03 511.004 1
-3 12 1 8270.25 465.568 1
-1 12 -3 8714.9 536.036 1
3 12 -2 1088.46 205.925 1
-3 12 2 917.326 158.183 1
2 12 3 975.492 182.66 1
-2 12 -3 1102.12 197.716 1
-3 12 3 5001.49 334.111 1
3 12 3 4806.84 401.176 1
3 12 -3 5256.62 436.606 1
4 12 3 3731.02 370.12 1
3 12 -4 3812.83 379.103 1
-3 12 4 3300.39 262.007 1
-2 12 4 1814.22 210.64 1
2 12 -4 1862.28 270.757 1
4 12 2 1953.06 273.258 1
-1 12 4 2904.71 270.595 1
4 12 1 2819.58 320.778 1
1 12 -4 3051.77 341.044 1
-4 12 -1 3036.19 287.584 1
4 12 0 9304.03 580.475 1
-4 12 0 8890.7 490.602 1
0 12 -4 8865.19 580.435 1
0 12 4 8242.9 482.811 1
-4 12 1 2508.98 249.543 1
4 12 -1 3142.76 344.918 1
-1 12 -4 2762.2 310.479 1
1 12 4 2633.21 279.931 1
-2 12 -4 1779.97 253.81 1
2 12 4 1637.68 224.618 1
4 12 -2 1701.73 243.785 1
-4 12 2 1826.16 205.32 1
3 12 4 3399.76 344.816 1
-4 12 3 3026.09 253.999 1
4 12 -3 3821.59 383.032 1
12 3 -4 3439.97 340.91 1
-4 12 4 55.7945 67.3007 1
12 4 -4 -82.6432 78.4743 1
4 12 -4 155.744 109.047 1
4 12 4 -39.2223 71.7841 1
-4 12 5 1155.49 141.851 1
5 12 4 1175.43 224.221 1
12 5 -4 1703.9 254.561 1
5 4 -12 1581.21 240.662 1
4 12 -5 1329.32 248.501 1
3 12 -5 7158.02 538.692 1
5 12 3 7639.09 534.775 1
12 5 -3 6826.42 496.204 1
-3 12 5 6500.79 365.532 1
5 12 2 1573.65 242.971 1
-2 12 5 1783.56 204.951 1
2 12 -5 1550.15 240.61 1
-1 12 5 16460.6 636.543 1
1 12 -5 18707.1 835.402 1
5 12 1 17615.3 810.037 1
-5 12 -1 16147.8 679.671 1
0 12 5 225.086 93.5605 1
-5 12 0 403.359 115.96 1
5 12 0 340.367 126.94 1
0 12 -5 552.228 173.34 1
-1 12 -5 17311.1 789.772 1
1 12 5 16633.5 698.559 1
5 12 -1 18029.4 826.21 1
-5 12 1 16539.9 634.554 1
-5 12 2 1513.1 193.103 1
5 12 -2 1437.33 256.932 1
2 12 5 1268.22 199.09 1
3 12 5 6397.63 463.618 1
12 3 -5 6584.97 464.448 1
-5 12 3 6395.3 360.102 1
5 12 -3 7441.91 546.379 1
12 4 -5 1529.28 244.801 1
-5 12 4 1273.17 155.387 1
4 12 5 1435.09 228.985 1
5 12 -4 1475.56 261.676 1
12 5 -5 352.958 138.197 1
5 5 -12 77.2945 74.0278 1
5 12 -5 202.741 100.358 1
-5 12 5 188.853 56.4801 1
6 5 -12 1393.97 233.702 1
5 12 -6 1661.03 284.231 1
12 6 -5 1696.8 263.098 1
6 12 4 840.971 189.906 1
6 4 -12 736.549 173.435 1
12 6 -4 955.77 216.126 1
4 12 -6 513.277 135.69 1
6 12 3 1810.23 271.76 1
3 12 -6 2277.2 324.625 1
12 6 -3 2211.4 305.142 1
6 3 -12 1987.87 256.371 1
2 12 -6 1105.4 215.051 1
6 12 2 1237.82 233.622 1
6 2 -12 1218.45 188.08 1
12 6 -2 1007.04 203.76 1
6 1 -12 1228.04 180.566 1
6 12 1 1312.02 226.659 1
1 12 -6 1286.06 236.474 1
6 12 0 5588.09 474.005 1
0 12 -6 5789.52 470.917 1
6 0 -12 5596.16 356.893 1
-6 12 0 5245.54 377.414 1
6 -1 -12 1103.73 153.776 1
-6 12 1 975.797 157.865 1
6 12 -1 1455 261.411 1
6 12 -2 1207.7 222.515 1
12 2 -6 1182.1 194.338 1
-6 12 2 1426 183.59 1
6 -2 -12 1198.25 153.933 1
6 -3 -12 2036.81 175.965 1
-6 12 3 2047.93 193.56 1
6 12 -3 2340.89 326.736 1
12 3 -6 2269.99 270.987 1
6 -4 -12 853.843 97.7959 1
6 12 -4 930.296 219.483 1
-6 12 4 692.38 102.828 1
12 4 -6 952.195 189.565 1
5 6 -12 1339.02 236.651 1
6 12 -5 1281.2 243.538 1
12 5 -6 1308.39 233.005 1
6 6 -12 2762.99 342.551 1
6 12 -6 2756.67 364.94 1
12 6 -6 2424.65 303.43 1
7 6 -12 3136.07 351.656 1
6 12 -7 3312.34 395.587 1
12 7 -6 3160.3 375.393 1
12 7 -5 3508.65 393.98 1
7 5 -12 3212.02 345.281 1
5 12 -7 3125.61 398.421 1
12 7 -4 1989.36 297.811 1
7 4 -12 1995.16 269.926 1
4 12 -7 1698.79 300.172 1
7 12 3 3552.31 409.608 1
7 3 -12 3297.38 328.508 1
12 7 -3 3165.41 361.145 1
3 12 -7 3405 391.279 1
7 2 -12 607.945 143.494 1
7 12 2 680.164 186.716 1
2 12 -7 635.188 162.932 1
12 7 -2 316.856 101.165 1
1 12 -7 10499.3 665.628 1
7 1 -12 10444 522.893 1
12 7 -1 10894.6 672.189 1
7 12 1 11212.4 690.843 1
0 12 -7 469.415 170.778 1
7 12 0 292.399 141.547 1
7 0 -12 329.309 100.234 1
-7 12 1 10807.4 500.737 1
7 -1 -12 9726.11 453.338 1
7 12 -1 10393.8 686.368 1
12 1 -7 10169.1 519.605 1
7 -2 -12 474.853 100.042 1
7 12 -2 562.278 187.366 1
12 2 -7 475.604 130.048 1
-7 12 2 367.271 88.1572 1
12 3 -7 2867.76 318.178 1
-7 12 3 2950.49 225.906 1
7 -3 -12 2416.06 182.257 1
7 12 -3 3299.76 384.356 1
-7 12 4 1559.1 144.036 1
12 4 -7 1993.57 273.487 1
7 12 -4 2045.37 321.788 1
5 7 -12 3645.08 410.534 1
7 12 -5 3917.26 447.182 1
12 5 -7 3755.75 384.634 1
7 12 -6 3163.25 387.562 1
6 7 -12 3685.84 408.794 1
12 6 -7 3078.27 351.353 1
7 12 -7 2010.06 333.418 1
7 7 -12 1630.15 261.202 1
12 7 -7 1721.43 295.433 1
12 8 -7 4134.92 445.566 1
7 12 -8 3949.47 445.271 1
8 7 -12 3934.65 393.11 1
8 6 -12 972.883 211.023 1
12 8 -6 891.968 212.424 1
6 12 -8 694.815 190.734 1
5 12 -8 2301.24 334.846 1
8 5 -12 2045.48 283.334 1
12 8 -5 1947.54 303.149 1
12 8 -4 3929.08 410.583 1
4 12 -8 4037.68 440.692 1
8 4 -12 3768.34 366.872 1
8 12 3 933.609 205.151 1
12 8 -3 836.051 199.364 1
3 12 -8 874.364 230.336 1
8 3 -12 755.053 170.459 1
2 12 -8 3745.96 415.002 1
12 8 -2 3783.61 410.268 1
8 2 -12 3537.98 329.755 1
8 12 2 3589.1 418.312 1
12 8 -1 1979.68 319.873 1
1 12 -8 1757.73 301.762 1
8 12 1 1761.49 274.153 1
8 1 -12 1806.56 216.569 1
8 12 0 1333.21 246.067 1
8 0 -12 1627.03 197.352 1
-8 12 1 1484.92 189.242 1
8 -1 -12 1608.5 187.43 1
12 1 -8 1388.43 194.254 1
8 12 -1 1712.51 270.53 1
12 2 -8 3584.27 341.394 1
-8 12 2 3891.27 284.668 1
8 -2 -12 3354.63 237.165 1
8 12 -2 3870.35 410.949 1
-8 12 3 583.586 102.336 1
8 12 -3 865.843 237.979 1
12 3 -8 708.955 176.38 1
8 12 -4 3946.97 429.04 1
4 8 -12 3707.94 399.409 1
12 4 -8 3621.5 359.452 1
12 5 -8 1875.42 267.013 1
5 8 -12 1899.48 298.547 1
8 12 -5 2148.23 311.24 1
6 8 -12 706.038 201.471 1
8 12 -6 824.398 218.846 1
12 6 -8 655.242 184.522 1
7 8 -12 3836.01 423.586 1
8 12 -7 3951.54 450.819 1
12 7 -8 3983.43 423.569 1
8 8 -12 5773.34 527.44 1
12 8 -8 5995.25 539.594 1
8 12 -8 5608.4 565.205 1
12 9 -8 1287.39 249.035 1
8 12 -9 1560.08 309.169 1
9 8 -12 1717.3 311.042 1
9 7 -12 1447.55 268.03 1
7 12 -9 1311.98 278.939 1
12 9 -7 1304.47 270.4 1
12 9 -6 4049.75 442.788 1
9 6 -12 3954.18 422.85 1
6 12 -9 4017.15 452.072 1
5 12 -9 3023.8 390.371 1
12 9 -5 3231.53 395.333 1
9 5 -12 3041.25 351.166 1
12 9 -4 793.523 217.361 1
9 4 -12 916.096 184.122 1
4 12 -9 923.454 222.865 1
9 3 -12 2475.66 289.681 1
12 9 -3 2483.32 342.159 1
3 12 -9 2268.28 321.858 1
9 2 -12 1579.19 226.27 1
12 9 -2 1938.08 329.441 1
9 12 2 2203.79 334.523 1
2 12 -9 1793.55 292.962 1
1 12 -9 4643.87 468.508 1
9 12 1 4576.96 458.189 1
12 9 -1 4110.01 453.206 1
9 1 -12 4251.22 337.466 1
12 0 -9 735.051 146.859 1
9 0 -12 767.321 143.856 1
9 12 0 872.407 210.398 1
12 1 -9 4535.82 355.596 1
9 -1 -12 3836.23 286.097 1
9 12 -1 4623.38 479.851 1
9 12 -2 1838.6 293.875 1
-9 12 2 1865.34 194.681 1
12 2 -9 2045.32 256.802 1
9 12 -3 2608.48 366.735 1
12 3 -9 2277.46 278.231 1
9 12 -4 658.131 182.286 1
12 4 -9 640.707 165.913 1
4 9 -12 748.184 174.625 1
5 9 -12 3250.2 392.158 1
9 12 -5 2714.45 384.247 1
12 5 -9 2690.87 322.305 1
9 12 -6 3699.16 434.152 1
12 6 -9 4040.21 420.633 1
6 9 -12 4369.07 445.248 1
7 9 -12 1114.02 244.102 1
12 7 -9 1577.22 281.878 1
9 12 -7 1363.86 297.367 1
8 9 -12 1599.37 289.148 1
12 8 -9 1387.48 268.336 1
9 12 -8 1393.83 276.571 1
9 12 -9 215.902 176.012 1
12 9 -9 108.564 94.6511 1
9 9 -12 -23.8826 91.8929 1
9 12 -10 411.657 181.083 1
12 10 -9 471.33 187.848 1
10 9 -12 546.172 216.69 1
8 12 -10 81.1533 142.08 1
10 8 -12 84.5862 112.457 1
12 10 -8 23.1911 87.0173 1
10 7 -12 3414.23 413.088 1
7 12 -10 3755.33 448.354 1
12 10 -7 3809.33 445.868 1
10 6 -12 2258.14 319.041 1
12 10 -6 1894.89 298.083 1
6 12 -10 2423.75 395.725 1
10 5 -12 5987.21 487.861 1
5 12 -10 6015.06 557.25 1
12 10 -5 6104.64 565.566 1
4 12 -10 691.766 194.868 1
12 10 -4 904.319 221.549 1
10 4 -12 765.792 171.638 1
10 3 -12 1105.75 187.682 1
12 10 -3 1297.92 263.682 1
3 12 -10 1550.38 295.224 1
12 10 -2 2884.19 399.574 1
2 12 -10 3058.55 390.425 1
10 12 2 2639.63 371.494 1
10 2 -12 2680.13 303.847 1
10 12 1 2610.68 375.198 1
10 1 -12 2502.85 265.788 1
12 10 -1 3197.46 420.801 1
1 12 -10 2312.94 320.217 1
12 0 -10 2384.04 246.943 1
12 10 0 2652.22 376.67 1
10 0 -12 2453.31 252.722 1
10 12 0 2993.13 398.884 1
10 -1 -12 1946.62 202.981 1
10 12 -1 1899.7 311.308 1
12 1 -10 1956.65 244.231 1
10 12 -2 2427.28 376.703 1
12 2 -10 2527.37 277.81 1
-10 12 2 2170.87 211.634 1
10 12 -3 1758.13 318.488 1
3 10 -12 1621.03 298.984 1
12 3 -10 1660.12 247.879 1
12 4 -10 1087.09 208.971 1
10 12 -4 1321.98 280.358 1
4 10 -12 1055.94 251.221 1
5 10 -12 5362.86 521.834 1
10 12 -5 5981.98 546.698 1
12 5 -10 5226.36 462.289 1
12 6 -10 2447.77 334.327 1
10 12 -6 2636.35 377.473 1
6 10 -12 2022.8 331.666 1
12 7 -10 3861.35 426.858 1
10 12 -7 3961.72 478.524 1
7 10 -12 4191.47 464.16 1
12 8 -10 54.9724 86.8627 1
8 10 -12 -45.6295 120.887 1
10 12 -8 50.681 129.37 1
10 12 -9 330.337 157.994 1
12 9 -10 515.496 200.24 1
9 10 -12 594.21 201.868 1
12 10 -10 -27.7133 119.409 1
10 12 -10 -141.816 108.142 1
10 10 -12 -16.1721 114.082 1
11 10 -12 1559.55 333.283 1
10 12 -11 1544.2 296.384 1
12 11 -10 1588.43 310.395 1
9 12 -11 860.675 230.67 1
12 11 -9 631.882 210.108 1
11 9 -12 1217.89 279.777 1
11 8 -12 265.346 143.305 1
12 11 -8 592.487 223.639 1
8 12 -11 454.813 191.386 1
7 12 -11 1175.46 250.975 1
11 7 -12 1186.7 241.178 1
12 11 -7 1159.3 262.39 1
6 12 -11 2338.36 363.663 1
11 6 -12 2562.76 338.593 1
12 11 -6 2562.13 389.491 1
5 12 -11 4520.81 484.304 1
12 11 -5 4432.78 492.628 1
11 5 -12 4396.39 439.761 1
4 12 -11 6012.87 563.891 1
11 4 -12 6238.7 499.999 1
12 11 -4 6683.53 607.839 1
11 3 -12 490.579 145.242 1
3 12 -11 562.327 193.662 1
12 11 -3 180.459 121.353 1
12 11 -2 2197.88 351.692 1
2 12 -11 2094.42 346.806 1
11 2 -12 2330.9 278.64 1
11 1 -12 1592.19 218.044 1
11 12 1 1677.62 280.82 1
12 11 -1 1468.08 311.993 1
11 12 0 1441.45 288.922 1
11 0 -12 1317.07 184.543 1
12 0 -11 1284.43 178.917 1
12 11 0 1731.2 316.619 1
11 12 -1 1638.92 328.277 1
12 1 -11 1645.44 226.35 1
11 12 -2 1871.25 321.267 1
2 11 -12 1714.03 324.824 1
12 2 -11 1945.27 261.241 1
11 12 -3 114.473 131.941 1
12 3 -11 318.573 115.056 1
3 11 -12 186.777 155.428 1
11 12 -4 6525.03 596.786 1
4 11 -12 6586.99 603.563 1
12 4 -11 6307.62 494.35 1
5 11 -12 4656.85 500.845 1
11 12 -5 4019.61 478.986 1
12 5 -11 4505.18 447.696 1
12 6 -11 1964.12 293.792 1
11 12 -6 2058.63 341.375 1
6 11 -12 2029.87 351.583 1
12 7 -11 1065.78 225.555 1
7 11 -12 968.672 260.937 1
11 12 -7 863.713 255.503 1
12 8 -11 488.591 193.602 1
11 12 -8 578.463 213.766 1
8 11 -12 380.663 151.323 1
9 11 -12 909.547 248.105 1
11 12 -9 801.244 249.724 1
12 9 -11 1149.54 264.126 1
12 10 -11 1437.84 296.945 1
11 12 -10 1692.46 310.743 1
10 11 -12 1896.36 335.648 1
12 11 -11 1638.64 306.62 1
11 11 -12 2310.81 377.46 1
11 12 -11 2121.21 378.364 1
12 12 0 5533.75 558.336 1
12 12 -1 2132.47 365.229 1
12 1 -12 2241.21 260.669 1
12 2 -12 80.8741 71.494 1
12 12 -2 112.062 108.33 1
2 12 -12 -38.2462 116.621 1
12 12 -3 8805.81 700.17 1
3 12 -12 8194.83 675.03 1
12 3 -12 8083.47 547.002 1
12 12 -4 746.888 219.056 1
4 12 -12 959.964 271.883 1
12 4 -12 769.06 183.182 1
12 12 -5 2157.37 367.218 1
5 12 -12 2100.26 366.077 1
12 5 -12 2223.1 325.185 1
6 12 -12 9.52771 117.458 1
12 12 -6 148.374 133.36 1
12 6 -12 182.445 113.439 1
12 12 -7 10562.9 787.145 1
7 12 -12 10664.6 794.253 1
12 7 -12 10346.1 720.633 1
12 8 -12 1802.93 312.703 1
8 12 -12 1481.89 310.857 1
12 12 -8 1502.49 272.288 1
12 9 -12 -3.6749 113.784 1
9 12 -12 3.02867 81.1171 1
12 12 -9 9.42373 86.2556 1
12 10 -12 5181.17 563.451 1
12 12 -10 5429.23 582.428 1
10 12 -12 5071.45 560.7 1
12 11 -12 48.2097 108.276 1
11 12 -12 -16.6979 132.633 1
12 12 -11 43.7758 93.6108 1
12 12 -12 1859.42 372.451 1
0 13 0 28.0484 82.0825 1
0 13 -1 422.631 131.951 1
-1 13 0 487.706 128.666 1
0 13 1 517.646 135.43 1
1 13 0 369.577 106.283 1
1 13 1 3576.49 353.979 1
1 13 -1 3590.96 353.332 1
-1 13 -1 3685.24 342.875 1
-1 13 1 3284.84 322.627 1
-1 13 2 2645.45 279.549 1
1 13 -2 2644.82 310.794 1
-2 13 -1 2377.21 279.375 1
2 13 1 2348 288.271 1
0 13 -2 2890.93 314.43 1
0 13 2 2615.25 277.314 1
2 13 0 2583.33 299.691 1
-2 13 0 2508.01 278.813 1
-2 13 1 2452.71 268.407 1
1 13 2 2490.67 286.77 1
2 13 -1 2425.4 303.922 1
-1 13 -2 2413.15 297.786 1
2 13 2 3436.66 349.232 1
2 13 -2 3160.91 357.824 1
-2 13 -2 3241.24 335.15 1
-2 13 2 3402.26 312.544 1
3 13 2 729.422 170.396 1
-2 13 3 574.996 134.474 1
-3 13 -2 584.419 147.754 1
2 13 -3 773.809 183.958 1
-3 13 -1 830.526 173.303 1
-1 13 3 779.43 150.773 1
1 13 -3 734.685 159.113 1
3 13 1 948.567 190.412 1
0 13 -3 303.805 131.92 1
0 13 3 276.441 106.08 1
-3 13 0 326.718 103.986 1
3 13 0 295.306 117.956 1
3 13 -1 854.362 170.575 1
-3 13 1 1059.57 180.138 1
-1 13 -3 1042.39 219.348 1
1 13 3 821.189 171.46 1
2 13 3 383.463 130.599 1
-2 13 -3 567.026 147.895 1
-3 13 2 498.128 125.434 1
3 13 -2 518.735 153.435 1
3 13 -3 425.087 138.005 1
3 13 3 386.953 133.977 1
-3 13 3 598.573 127.569 1
-3 13 -3 458.371 134.35 1
4 13 3 1033.18 220.179 1
-3 13 4 1161.01 179.172 1
-4 13 -3 1152.25 218.659 1
3 13 -4 1348.01 244.354 1
4 13 2 14229.3 742.475 1
-2 13 4 13454.6 586.744 1
2 13 -4 13235.4 728.253 1
-4 13 -2 13085.7 671.312 1
1 13 -4 414.33 154.736 1
-1 13 4 313.044 108.958 1
-4 13 -1 250.956 119.442 1
4 13 1 466.628 166.249 1
0 13 -4 7680.07 547.638 1
0 13 4 7264.96 471.642 1
-4 13 0 7263.97 454.46 1
4 13 0 7104.71 528.645 1
4 13 -1 303.902 112.324 1
-4 13 1 304.951 117.336 1
1 13 4 284.208 100.632 1
-1 13 -4 384.509 121.51 1
4 13 -2 13867 741.546 1
-2 13 -4 13434.2 700.341 1
-4 13 2 12235.8 569.507 1
2 13 4 12619.4 661.084 1
3 13 4 857.064 188.932 1
4 13 -3 1165.28 236.878 1
-4 13 3 989.136 154.952 1
-3 13 -4 1022.55 218.673 1
-4 13 4 1660.63 193.019 1
4 13 -4 1506.86 266.242 1
4 13 4 1569.93 267.374 1
5 13 4 5345.8 475.13 1
4 13 -5 5617.55 492.023 1
-4 13 5 4976.18 320.105 1
13 5 -4 5346.91 460.707 1
3 13 -5 1846.73 282.738 1
-3 13 5 1862.77 205.335 1
5 13 3 2252.73 308.256 1
-5 13 -2 484.867 141.878 1
-2 13 5 402.602 116.687 1
5 13 2 346.197 146.951 1
2 13 -5 625.497 154.213 1
-1 13 5 8350.78 479.787 1
5 13 1 8987.31 597.771 1
1 13 -5 8880.9 594.254 1
-5 13 -1 8550.64 514.829 1
-5 13 0 5447.55 401.514 1
0 13 -5 5498.02 488.968 1
5 13 0 6118.39 496.034 1
0 13 5 5425.3 402.357 1
-1 13 -5 9977.74 622.414 1
5 13 -1 9996.43 640.354 1
-5 13 1 9074.1 497.277 1
1 13 5 9609.87 554.74 1
5 13 -2 660.529 176.416 1
2 13 5 661.161 165.587 1
-2 13 -5 515.881 162.009 1
-5 13 2 697.924 137.076 1
-5 13 3 1903.21 211.054 1
3 13 5 1511.85 240.347 1
5 13 -3 1764.04 290.18 1
4 13 5 4914.94 424.354 1
13 4 -5 5026.35 430.403 1
5 13 -4 5255.13 483.426 1
-5 13 4 4832.07 314.043 1
13 5 -5 818.939 200.747 1
5 5 -13 760.961 164.071 1
5 13 -5 729.112 202 1
-5 13 5 592.588 102.62 1
13 6 -5 4780.03 451.324 1
6 5 -13 4691.74 434.642 1
5 13 -6 4598.84 459.859 1
4 13 -6 3781.76 418.62 1
6 13 4 3964.53 425.307 1
6 4 -13 3682.11 364.466 1
13 6 -4 3727.68 405.784 1
6 13 3 169.498 161.455 1
3 13 -6 45.1276 103.312 1
13 6 -3 138.092 118.5 1
6 3 -13 270.712 118.21 1
6 13 2 12986.1 740.487 1
6 2 -13 12605.3 623.835 1
2 13 -6 13040.4 736.571 1
6 13 1 456.246 167.268 1
1 13 -6 512.325 188.914 1
-6 13 -1 546.061 142.303 1
6 1 -13 505.179 135.845 1
-6 13 0 7124.11 451.283 1
6 0 -13 7076.52 424.414 1
6 13 0 7394.87 558.991 1
0 13 -6 6871.1 551.968 1
6 -1 -13 279.74 72.6742 1
-1 13 -6 329.686 149.295 1
6 13 -1 306.251 105.531 1
-6 13 1 199.673 76.8524 1
6 -2 -13 11410.3 485.759 1
6 13 -2 13316.6 754.786 1
-6 13 2 12407.8 541.481 1
6 -3 -13 147.776 70.8739 1
-6 13 3 82.2628 49.795 1
6 13 -3 274.517 108.1 1
13 3 -6 150.178 103.086 1
6 13 -4 4081.72 433.898 1
-6 13 4 3175.44 236.949 1
13 4 -6 3808.18 382.903 1
6 13 -5 4994.81 474.384 1
5 6 -13 5110.45 449.17 1
13 5 -6 4858.19 450.459 1
6 6 -13 150.394 106.572 1
13 6 -6 -5.70281 94.9253 1
6 13 -6 53.543 147.167 1
13 7 -6 11356.1 717.849 1
7 6 -13 11690.9 707.568 1
6 13 -7 11926.1 774.621 1
13 7 -5 5511.13 501.873 1
5 13 -7 4935.76 497.132 1
7 5 -13 5574.84 474.124 1
7 13 4 2036.93 345.687 1
7 4 -13 1919.14 256.935 1
13 7 -4 1406.83 256.124 1
4 13 -7 1598.4 288.815 1
7 13 3 5024.89 481.475 1
3 13 -7 5151.18 498.192 1
13 7 -3 4931.77 474.702 1
7 3 -13 4368.82 390.908 1
7 13 2 9116.51 649.538 1
2 13 -7 8931.04 651.188 1
13 7 -2 9204.87 643.166 1
7 2 -13 8470.23 522.956 1
7 1 -13 4967.01 369.482 1
1 13 -7 4734.39 478.686 1
7 13 1 5538.32 490.508 1
7 0 -13 1348.09 190.958 1
0 13 -7 1504.55 251.641 1
-7 13 0 1612.22 221.831 1
7 13 0 1682.37 304.225 1
-1 13 -7 5589.92 492 1
7 13 -1 4352.61 431.03 1
7 -1 -13 4342.07 312.126 1
-7 13 1 4778.17 359.99 1
-7 13 2 7401.35 417.155 1
7 13 -2 8883.62 638.065 1
13 2 -7 7809.24 502.408 1
7 -2 -13 7286.59 374.705 1
13 3 -7 6037.57 613.84 1
7 13 -3 5659.4 532.532 1
-7 13 3 4441.35 299.878 1
7 13 -4 1619.14 285.024 1
13 4 -7 1571 247.557 1
7 13 -5 5400.31 525.888 1
5 7 -13 5613.64 499.062 1
13 5 -7 5676.09 484.884 1
13 6 -7 12024.7 724.947 1
6 7 -13 12326.7 732.454 1
7 13 -6 12211.2 763.9 1
7 13 -7 10272.3 734.199 1
7 7 -13 9851.48 678.336 1
13 7 -7 10004.7 685.447 1
8 7 -13 476.313 182.313 1
13 8 -7 275.685 140.226 1
7 13 -8 195.587 118.394 1
8 6 -13 72.9055 105.85 1
13 8 -6 -101.179 84.6007 1
6 13 -8 229.216 120.231 1
8 5 -13 3945.64 395.505 1
13 8 -5 4064.97 451.36 1
5 13 -8 3954.72 436.641 1
4 13 -8 6441.19 553.657 1
8 4 -13 6291.31 490.305 1
13 8 -4 6705.1 556.353 1
13 8 -3 3777.25 433.631 1
8 3 -13 3477.6 348.607 1
8 13 3 3630.19 437.312 1
3 13 -8 3162.79 404.197 1
8 2 -13 3164.32 312.399 1
13 8 -2 3483.86 403.141 1
2 13 -8 3528.77 429.743 1
8 13 2 3624.96 425.754 1
1 13 -8 240.273 122.111 1
8 13 1 57.359 105.284 1
8 1 -13 250.735 98.3856 1
8 0 -13 15651.8 639.285 1
8 13 0 16267 885.003 1
0 13 -8 15555.8 837.891 1
-8 13 1 163.359 64.7697 1
8 -1 -13 230.199 76.7052 1
8 13 -1 108.86 100.664 1
13 2 -8 2544.03 290.02 1
-8 13 2 2987.85 259.371 1
8 13 -2 3141.33 401.423 1
13 3 -8 3279.87 343.347 1
8 13 -3 2869.25 376.93 1
13 4 -8 6105.27 485.36 1
4 8 -13 6257.47 554.794 1
8 13 -4 6160.73 556.948 1
13 5 -8 3571.21 383.236 1
8 13 -5 3656.04 445.22 1
5 8 -13 3503.02 426.862 1
8 13 -6 144.059 92.9031 1
13 6 -8 169.393 105.491 1
7 8 -13 327.787 129.133 1
13 7 -8 237.545 150.408 1
8 13 -7 262.918 116.79 1
8 13 -8 82.2597 107.541 1
8 8 -13 297.552 143.384 1
13 8 -8 138.655 114.042 1
8 13 -9 2694.16 390.726 1
13 9 -8 3062.1 408.95 1
9 8 -13 3246.85 413.648 1
9 7 -13 1036.79 249.865 1
7 13 -9 790.557 222.49 1
13 9 -7 851.703 240.196 1
13 9 -6 1729.06 317.878 1
9 6 -13 1661.42 285.452 1
6 13 -9 2109.76 345.299 1
5 13 -9 5461.57 541.037 1
13 9 -5 4790.62 502.332 1
9 5 -13 4845.64 448.584 1
4 13 -9 7892.03 639.468 1
13 9 -4 7784.69 633.718 1
9 4 -13 6947.3 517.154 1
3 13 -9 1051.7 244.32 1
13 9 -3 979.279 217.991 1
9 3 -13 1009.38 195.674 1
9 13 3 1118.06 226.071 1
9 2 -13 5913.38 441.236 1
2 13 -9 5266.55 518.92 1
9 13 2 5893.73 540.695 1
13 9 -2 5494.46 537.77 1
9 1 -13 6021.2 422.71 1
9 13 1 6515.59 583.538 1
1 13 -9 6601.07 574.629 1
0 13 -9 3145.36 398.826 1
9 0 -13 3259.03 286.691 1
9 13 0 3068.31 410.667 1
-9 13 1 6222.46 399.962 1
9 -1 -13 5879.97 375.305 1
13 1 -9 7012.62 455.608 1
9 13 -1 7533.43 622.753 1
13 2 -9 5166.14 416.825 1
-9 13 2 5021.49 341.415 1
9 13 -2 5734.32 540.431 1
13 3 -9 1003.94 192.867 1
9 13 -3 1075.8 262.946 1
9 13 -4 8390.37 654.747 1
4 9 -13 7399.68 608.208 1
13 4 -9 7154.78 538.861 1
5 9 -13 4614.98 482.959 1
13 5 -9 4939.65 459.526 1
9 13 -5 4613.97 498.775 1
13 6 -9 1720.82 275.048 1
6 9 -13 1691 300.236 1
9 13 -6 1631.26 320.774 1
13 7 -9 709.247 221.915 1
9 13 -7 921.897 190.124 1
7 9 -13 946.396 247.061 1
9 13 -8 2600.26 387.773 1
13 8 -9 3087.32 396.19 1
8 9 -13 3017.3 414.364 1
9 13 -9 668.986 200.048 1
13 9 -9 528.379 207.736 1
9 9 -13 328.174 151.922 1
13 10 -9 1195.62 286.922 1
10 9 -13 1197.41 276.067 1
9 13 -10 1179 273.898 1
13 10 -8 327.38 174.762 1
10 8 -13 533.518 186.567 1
8 13 -10 503.295 203.517 1
13 10 -7 3364.59 421.226 1
10 7 -13 3428.93 405.262 1
7 13 -10 3152.47 407.969 1
13 10 -6 2217.98 359.047 1
10 6 -13 2628.22 350.567 1
6 13 -10 2888.6 413.598 1
10 5 -13 2737.35 348.026 1
5 13 -10 2864.41 404.202 1
13 10 -5 2524.71 373.626 1
4 13 -10 1098.26 256.737 1
10 4 -13 1207.9 204.937 1
13 10 -4 952.527 247.722 1
3 13 -10 401.605 179.473 1
13 10 -3 644.537 193.747 1
10 3 -13 540.473 139.283 1
10 13 2 4382.57 501.178 1
10 2 -13 4538.67 390.289 1
2 13 -10 4335.2 487.869 1
13 10 -2 4112.15 461.463 1
13 10 -1 1793.48 320.656 1
10 13 1 1945.38 328.832 1
1 13 -10 1919.78 323.994 1
10 1 -13 1764.71 239.78 1
10 13 0 167.623 134.423 1
10 0 -13 95.9367 54.002 1
0 13 -10 171.709 137 1
10 13 -1 2014.61 345.693 1
13 1 -10 1919.13 250.543 1
-10 13 1 1548.48 207.081 1
10 13 -2 4419.81 501.919 1
13 2 -10 4211.73 377.721 1
13 3 -10 460.028 147.335 1
3 10 -13 643.695 195.765 1
10 13 -3 554.456 203.876 1
4 10 -13 1439.85 285.786 1
13 4 -10 1187.75 239.976 1
10 13 -4 852.403 226.821 1
10 13 -5 2698.64 388.674 1
5 10 -13 2895.6 392.146 1
13 5 -10 2587.76 340.779 1
10 13 -6 2629.18 374.413 1
6 10 -13 2213.63 369.639 1
13 6 -10 2614.65 353.538 1
10 13 -7 3312.13 435.321 1
7 10 -13 3255.78 420.499 1
13 7 -10 2977.55 390.978 1
10 13 -8 351.95 138.292 1
8 10 -13 266.58 136.451 1
13 8 -10 523.497 208.14 1
13 9 -10 1439.28 318.108 1
9 10 -13 1267.07 293.243 1
10 13 -9 1331.78 295.198 1
10 13 -10 372.354 200.327 1
10 10 -13 359.378 175.254 1
13 10 -10 273.654 173.171 1
11 10 -13 1930.3 326.027 1
10 13 -11 1761.62 348.464 1
13 11 -10 1959.64 353.061 1
13 11 -9 303.269 141.708 1
11 9 -13 405.567 163.608 1
9 13 -11 187.032 89.3811 1
11 8 -13 6957.17 607.704 1
13 11 -8 7146.1 658.639 1
8 13 -11 7022.54 649.606 1
7 13 -11 729.525 220.742 1
13 11 -7 721.946 208.226 1
11 7 -13 731.57 193.477 1
13 11 -6 5657.29 573.12 1
11 6 -13 5858.2 522.083 1
6 13 -11 5296.47 564.627 1
11 5 -13 1712.83 337.436 1
5 13 -11 1622.09 306.554 1
13 11 -5 1606.8 328.255 1
11 4 -13 6927.96 532.304 1
13 11 -4 7295.02 639.119 1
4 13 -11 7379.24 648.333 1
13 11 -3 2939.84 399.563 1
3 13 -11 2950.37 409.453 1
11 3 -13 3520.49 363.851 1
11 2 -13 1079.08 200.598 1
2 13 -11 875.239 191.909 1
13 11 -2 783.828 207.04 1
11 13 1 2324.03 384.164 1
1 13 -11 2672.12 389.021 1
11 1 -13 2261.84 261.86 1
13 11 -1 2160.12 356.199 1
11 13 0 5494.57 573.028 1
11 13 -1 2667.4 411.084 1
13 1 -11 2388.4 269.271 1
13 2 -11 723.518 168.179 1
11 13 -2 883.194 254.442 1
11 13 -3 3136.02 437.299 1
13 3 -11 2688.97 330.475 1
3 11 -13 3174.3 412.245 1
4 11 -13 7036.32 646.154 1
11 13 -4 6596.01 621.112 1
13 4 -11 6289.79 505.345 1
13 5 -11 1490.22 255.79 1
11 13 -5 1439.23 296.15 1
5 11 -13 1577.98 303.162 1
11 13 -6 5693.62 582.344 1
13 6 -11 5560.3 517.926 1
6 11 -13 5264.06 544.656 1
7 11 -13 894.224 215.661 1
11 13 -7 1096.02 262.787 1
13 7 -11 816.928 205.255 1
13 8 -11 6702.06 597.41 1
8 11 -13 6418.54 624.481 1
11 13 -8 6519.77 639.388 1
11 13 -9 349.436 159.217 1
9 11 -13 494.469 194.828 1
13 9 -11 418.976 159.973 1
10 11 -13 1463.84 318.625 1
11 13 -10 1751.44 333.507 1
13 10 -11 1662.47 335.336 1
13 11 -11 8208.97 723.026 1
11 13 -11 8457.77 755.6 1
11 11 -13 7988.57 739.915 1
11 13 -12 574.787 244.68 1
12 11 -13 545.064 203.245 1
13 12 -11 161.92 97.8733 1
12 10 -13 1996.16 356.572 1
13 12 -10 2295.17 402.689 1
10 13 -12 2336.08 403.963 1
13 12 -9 2381.58 403.873 1
9 13 -12 1833.98 349.793 1
12 9 -13 1827.94 326.284 1
8 13 -12 124.171 105.569 1
12 8 -13 54.4931 118.216 1
13 12 -8 114.283 86.327 1
12 7 -13 1432.06 270.462 1
13 12 -7 1313.93 306.582 1
7 13 -12 1670.49 329.99 1
13 12 -6 2477.79 385.002 1
6 13 -12 2554.63 391.932 1
12 6 -13 2793.3 376.799 1
12 5 -13 518.139 168.633 1
13 12 -5 438.088 164.298 1
5 13 -12 466.888 122.09 1
12 4 -13 2953.62 361.623 1
13 12 -4 3377.16 454.262 1
4 13 -12 2717.59 396.268 1
12 3 -13 5261.76 444.69 1
3 13 -12 5776.72 598.398 1
13 12 -3 5127.24 558.145 1
12 2 -13 811.916 162.99 1
2 13 -12 1311.24 292.773 1
13 12 -2 799.108 234.933 1
13 12 -1 318.255 119.793 1
1 13 -12 490.557 197.14 1
12 13 0 1261.02 285.277 1
12 13 -1 428.051 230.753 1
13 1 -12 238.109 88.2593 1
13 2 -12 1024.35 188.751 1
2 12 -13 915.789 245.865 1
12 13 -2 669.648 198.269 1
13 3 -12 5584.23 468.214 1
12 13 -3 5485.76 584.508 1
3 12 -13 5535 576.667 1
13 4 -12 2750.94 353.496 1
4 12 -13 3419.89 444.671 1
12 13 -4 2768.42 415.694 1
5 12 -13 792.356 238.448 1
12 13 -5 647.557 194.302 1
13 5 -12 556.289 153.634 1
13 6 -12 2462.29 354.616 1
6 12 -13 2636.62 392.455 1
12 13 -6 2156 384.333 1
7 12 -13 1543.18 308.971 1
12 13 -7 1628.06 355.267 1
13 7 -12 1522.48 280.111 1
8 12 -13 296.668 186.917 1
13 8 -12 50.8885 98.9241 1
12 13 -8 170.277 151.796 1
9 12 -13 2550.63 399.195 1
12 13 -9 2241.38 364.773 1
13 9 -12 2321.72 372.241 1
10 12 -13 2367.35 402.832 1
12 13 -10 1981.09 383.265 1
13 10 -12 2042.39 366.863 1
12 13 -11 786.003 252.551 1
11 12 -13 462.642 181.527 1
13 11 -12 510.167 209.252 1
12 13 -12 317.441 145.255 1
12 12 -13 436.115 214.947 1
13 12 -12 273.639 139.57 1
13 13 -1 737.113 245.729 1
1 13 -13 257.177 188.266 1
13 13 -2 9040.67 759.516 1
13 2 -13 8252.32 549.656 1
2 13 -13 9232.33 748.502 1
3 13 -13 192.289 134.646 1
13 3 -13 23.8235 96.0327 1
13 13 -3 94.9497 144.726 1
13 13 -4 3323.26 468.931 1
4 13 -13 3151.74 450.578 1
13 4 -13 3192.76 374.147 1
13 5 -13 1981.27 315.929 1
13 13 -5 2174.69 374.816 1
5 13 -13 2378.83 413.053 1
13 6 -13 19657.8 987.08 1
6 13 -13 19580.6 1113.07 1
13 13 -6 20171.6 1140.52 1
13 7 -13 251.15 142.718 1
7 13 -13 222.656 160.672 1
13 13 -7 195.695 153.303 1
8 13 -13 888.805 241.663 1
13 8 -13 1223.97 281.334 1
13 13 -8 1188.33 283.144 1
13 9 -13 4598.57 528.39 1
9 13 -13 4526.01 549.06 1
13 13 -9 4996.04 584.231 1
13 10 -13 1303.97 293.629 1
13 13 -10 1366.25 338.29 1
10 13 -13 1258.57 302.805 1
11 13 -13 1169.63 297.46 1
13 11 -13 1012.52 274.037 1
13 13 -11 1162.85 298.215 1
13 12 -13 514.108 209.933 1
12 13 -13 1020.9 289.215 1
13 13 -12 549.815 193.689 1
13 13 -13 8293.63 804.504 1
0 14 0 59.2906 64.9389 1
-1 14 0 1617.53 242.132 1
1 14 0 1224.48 223.074 1
0 14 1 1419.65 230.908 1
0 14 -1 1329.58 236.055 1
-1 14 -1 4311.74 397.137 1
-1 14 1 4250.26 376.48 1
1 14 -1 4769.26 421.147 1
1 14 1 4221.5 401.188 1
-1 14 2 272.329 112.345 1
-2 14 -1 398.232 121.227 1
2 14 1 197.337 99.9868 1
0 14 -2 1627.62 253.08 1
-2 14 0 1568.27 239.942 1
0 14 2 1362.8 217.548 1
2 14 0 1419.06 243.342 1
-1 14 -2 577.107 147.594 1
2 14 -1 391.239 144.114 1
1 14 2 588.759 152.01 1
-2 14 1 523.924 144.087 1
-2 14 -2 2032.43 283.183 1
2 14 -2 2001.42 298.449 1
2 14 2 2072.85 290.622 1
-2 14 2 2276.92 269.639 1
-3 14 -2 1390.56 236.851 1
2 14 -3 1445.08 263.665 1
3 14 2 1585.36 262.308 1
-2 14 3 1165.64 191.784 1
3 14 1 2230 307.162 1
-1 14 3 2061.49 254.85 1
1 14 -3 2175.36 305.699 1
-3 14 -1 2066.22 279.291 1
0 14 3 618.428 133.112 1
0 14 -3 484.197 160.201 1
-3 14 0 530.336 142.933 1
3 14 0 520.307 163.954 1
-3 14 1 2214.17 272.27 1
3 14 -1 2440.89 328.819 1
1 14 3 1891.01 257.85 1
-1 14 -3 2249.04 301.496 1
2 14 3 872.389 176.959 1
3 14 -2 1071.94 221.899 1
-3 14 2 956.173 166.261 1
-2 14 -3 1027.85 186.806 1
-3 14 -3 13422.4 710.165 1
3 14 3 12533.3 700.771 1
3 14 -3 12998.9 751.331 1
-3 14 3 12474.3 588.888 1
3 14 -4 2235.21 322.435 1
-4 14 -3 2005.83 274.609 1
-3 14 4 2021.67 236.026 1
4 14 3 2288.9 316.708 1
4 14 2 2606.51 325.658 1
2 14 -4 2613.29 333.039 1
-2 14 4 2667.87 278.401 1
-4 14 -2 2553.1 317.359 1
-4 14 -1 2851.7 314.681 1
-1 14 4 2739.67 292.558 1
4 14 1 2772.17 337.858 1
1 14 -4 3322.33 364.524 1
4 14 0 5860.91 508.311 1
0 14 4 5494.31 424.761 1
-4 14 0 5703.58 428.853 1
0 14 -4 5956.5 511.193 1
4 14 -1 2598.58 345.71 1
-1 14 -4 2715.94 329.439 1
1 14 4 2610.73 301.32 1
-4 14 1 2419.97 274.163 1
-2 14 -4 2887.92 353.484 1
-4 14 2 2471.6 267.19 1
2 14 4 2573.82 313.282 1
4 14 -2 2672.12 356.461 1
-4 14 3 2255.32 247.769 1
-3 14 -4 2682.28 328.3 1
4 14 -3 2369.87 335.28 1
3 14 4 2381.39 311.984 1
-4 14 -4 822.273 179.139 1
4 14 4 1006.27 226.92 1
4 14 -4 1053.25 218.253 1
-4 14 4 1137.01 166.756 1
4 14 -5 6697.15 569.542 1
-4 14 5 6169.76 380.824 1
5 14 4 6839.55 553.251 1
-5 14 -3 4412.71 414.695 1
3 14 -5 4862.6 480.854 1
-3 14 5 4576.28 342.216 1
5 14 3 4836.6 458.468 1
-2 14 5 181.159 83.0508 1
2 14 -5 282.972 137.037 1
-5 14 -2 67.6856 85.3211 1
5 14 2 203.05 150.903 1
5 14 1 10390.8 674.649 1
-5 14 -1 10591.5 598.526 1
1 14 -5 10380.6 681.293 1
-1 14 5 10251.2 553.098 1
0 14 -5 1119.48 240.363 1
5 14 0 1225.96 229.855 1
-5 14 0 932.551 177.269 1
0 14 5 1120.32 207.644 1
1 14 5 10373.7 597.263 1
5 14 -1 10741.4 695.989 1
-5 14 1 10801.9 568.237 1
-1 14 -5 10800.1 683.412 1
-5 14 2 80.117 67.2048 1
5 14 -2 -24.1347 135.067 1
-2 14 -5 110.939 90.0754 1
2 14 5 47.2597 79.8172 1
-3 14 -5 4486.87 437.75 1
5 14 -3 4583.74 457.841 1
-5 14 3 4594.11 348.468 1
3 14 5 4526.68 421.677 1
5 14 -4 8073.25 605.314 1
4 14 5 7467.58 562.793 1
-5 14 4 6647.84 385.509 1
14 5 -5 1566.74 272.355 1
5 5 -14 1403.49 257.31 1
-5 14 5 1104.01 159.529 1
5 14 -5 1115.21 260.474 1
14 6 -5 7951.57 598.915 1
6 5 -14 8954.55 610.252 1
5 14 -6 7420.33 609.221 1
4 14 -6 7616.18 608.141 1
14 6 -4 6907.55 576.891 1
6 4 -14 7007.42 529.737 1
6 14 4 7190.8 580.28 1
6 3 -14 15961.5 755.926 1
3 14 -6 16659.3 877.64 1
6 14 3 16966.4 882.156 1
6 14 2 9456.37 673.934 1
6 2 -14 9008.08 544.237 1
-6 14 -2 8015.39 536.698 1
2 14 -6 9122.37 655.398 1
-6 14 -1 10770.7 607.274 1
6 1 -14 10643.5 581.875 1
6 14 1 11654.1 725.82 1
1 14 -6 11161.5 714.543 1
6 14 0 2238.19 332.344 1
6 0 -14 2462.46 265.435 1
-6 14 0 2519.85 289.796 1
0 14 -6 2230.08 327.286 1
6 -1 -14 10943.6 534.254 1
-1 14 -6 10946.9 701.159 1
6 14 -1 10903.3 709.057 1
-6 14 1 10788.2 561.4 1
-6 14 2 8882.68 488.747 1
6 14 -2 8822.53 655.346 1
-2 14 -6 9961.22 664.214 1
6 -2 -14 8217.07 439.546 1
6 -3 -14 13261.7 508.916 1
-6 14 3 14014.3 586.388 1
-6 14 4 5734 339.175 1
6 14 -4 7471.69 611.252 1
14 4 -6 6951.28 524.802 1
6 14 -5 8385.38 653.869 1
14 5 -6 8533.89 599.472 1
5 6 -14 8752.71 625.039 1
14 6 -6 102.278 143.913 1
6 14 -6 137.041 166.248 1
6 6 -14 254.752 159.69 1
6 14 -7 4847.97 518.638 1
14 7 -6 4420 462.494 1
7 6 -14 4790.35 469.818 1
7 5 -14 2353.62 320.707 1
5 14 -7 1723.29 302.44 1
14 7 -5 1799.44 311.158 1
14 7 -4 729.756 185.718 1
7 4 -14 744.084 169.131 1
7 14 4 764.704 218.447 1
4 14 -7 716.518 210.8 1
7 3 -14 4550.02 414.541 1
7 14 3 5236.29 515.852 1
3 14 -7 4794.19 482.799 1
2 14 -7 675.234 182.374 1
7 14 2 666.84 185.344 1
7 2 -14 713.122 161.165 1
7 14 1 9802.08 686.444 1
-7 14 -1 9408.42 572.404 1
7 1 -14 9494.66 541.845 1
1 14 -7 10106.9 703.407 1
0 14 -7 283.835 126.678 1
7 14 0 137.887 99.1709 1
-7 14 0 82.5542 81.7978 1
7 0 -14 219.779 77.6799 1
-1 14 -7 10427.9 698.468 1
7 -1 -14 10399.8 504.197 1
-7 14 1 9814.82 534.013 1
7 14 -1 10639.4 719.549 1
-2 14 -7 733.178 188.408 1
-7 14 2 610.648 128.025 1
7 14 -2 958.743 250.895 1
7 -2 -14 766.153 124.119 1
-7 14 3 4361.33 319.578 1
7 14 -3 4852.75 511.927 1
14 4 -7 353.658 123.038 1
7 14 -4 575.312 191.022 1
14 5 -7 1483.19 266.481 1
5 7 -14 1450.64 256.222 1
7 14 -5 1449.2 281.031 1
14 6 -7 5101.74 496.535 1
6 7 -14 5467.25 515.862 1
7 14 -6 5316.28 525.054 1
14 7 -7 70.3684 128.913 1
7 7 -14 69.5198 91.3261 1
7 14 -7 7.51867 92.487 1
7 14 -8 3735.77 460.057 1
14 8 -7 4226.51 468.147 1
8 7 -14 4635.78 469.036 1
6 14 -8 6935.72 610.721 1
14 8 -6 7291.4 605.162 1
8 6 -14 6861.94 572.351 1
14 8 -5 5311.71 523.844 1
8 5 -14 5092.86 469.827 1
5 14 -8 4843.78 509.208 1
14 8 -4 3042.18 409.397 1
4 14 -8 2696.05 385.585 1
8 4 -14 2460.66 306.748 1
14 8 -3 3891.51 442.685 1
8 14 3 3619.09 430.925 1
3 14 -8 4163.01 457.908 1
8 3 -14 3740.87 380.566 1
2 14 -8 1305.71 256.697 1
8 14 2 1266.59 266.346 1
8 2 -14 1252.36 210.5 1
8 1 -14 11601.8 604.385 1
8 14 1 11819.7 786.922 1
1 14 -8 11995.6 784.594 1
-8 14 0 14092 667.09 1
0 14 -8 16305.1 882.857 1
8 0 -14 14456.5 633.193 1
8 14 0 15680 894.609 1
8 -1 -14 10310.9 502.528 1
-8 14 1 10161.5 537.014 1
8 14 -1 11513.9 761.63 1
-1 14 -8 11389 755.114 1
8 14 -2 1429.37 279.295 1
-8 14 2 1220.73 178.077 1
8 14 -3 3843.34 458.863 1
14 3 -8 3519.64 371.183 1
14 4 -8 2328.17 319.793 1
4 8 -14 2659.91 371.53 1
8 14 -4 2610.2 382.177 1
14 5 -8 5193.72 470.631 1
5 8 -14 5020.16 512.555 1
8 14 -5 5163.37 539.717 1
14 6 -8 6339.73 546.298 1
6 8 -14 6643.46 589.194 1
8 14 -6 7465.59 667.158 1
8 14 -7 4550.96 524.218 1
7 8 -14 4353.96 473.779 1
14 7 -8 4511.65 469.479 1
8 8 -14 92.7175 73.4022 1
8 14 -8 62.6014 105.247 1
14 8 -8 89.2272 112.095 1
8 14 -9 1772.85 345.94 1
9 8 -14 1512.18 295.024 1
14 9 -8 1615.69 299.133 1
7 14 -9 508.866 195.499 1
9 7 -14 887.671 217.053 1
14 9 -7 679.538 189.805 1
9 6 -14 949.232 222.327 1
14 9 -6 959.696 249.321 1
6 14 -9 887.443 214.38 1
9 5 -14 2957.39 364.081 1
14 9 -5 3613.89 446.873 1
5 14 -9 3262.76 440.004 1
4 14 -9 4956.37 525.96 1
14 9 -4 5081.98 531.998 1
9 4 -14 4864.2 440.849 1
14 9 -3 3820.95 457.388 1
9 3 -14 3786.81 379.336 1
9 14 3 3133.34 401.697 1
3 14 -9 4009.77 481.556 1
2 14 -9 302.134 184.937 1
9 2 -14 469.207 143.474 1
9 14 2 437.227 174.277 1
9 14 1 4004.35 474.484 1
9 1 -14 3220.86 324.494 1
1 14 -9 3512.66 450.556 1
-9 14 0 8.57765 46.5932 1
9 14 0 -143.569 135.776 1
9 0 -14 -27.0087 67.0549 1
9 14 -1 3304.04 413.874 1
-1 14 -9 3269.8 408.552 1
-9 14 1 3289.6 306.172 1
14 2 -9 211.856 93.6039 1
9 14 -2 330.919 184.443 1
9 14 -3 3493.77 433.828 1
14 3 -9 3292.49 345.689 1
9 14 -4 5157.04 528.552 1
14 4 -9 5155.97 476.006 1
4 9 -14 5234.26 518.024 1
5 9 -14 3166.14 431.463 1
14 5 -9 3167.58 383.309 1
9 14 -5 2983.56 419.524 1
6 9 -14 655.313 199.539 1
14 6 -9 640.619 195.547 1
9 14 -6 813.995 258.07 1
14 7 -9 845.265 193.302 1
9 14 -7 531.546 169.761 1
7 9 -14 685.504 196.934 1
9 14 -8 1997.32 356.408 1
14 8 -9 2063.87 338.947 1
8 9 -14 1975.25 337.288 1
9 9 -14 426.623 197.703 1
9 14 -9 458.925 192.253 1
14 9 -9 512.221 188.603 1
9 14 -10 5705.76 614.122 1
10 9 -14 5927.77 585.224 1
14 10 -9 5767.2 601.513 1
10 8 -14 1333.4 276.49 1
14 10 -8 709.982 228.026 1
8 14 -10 1148.52 290.856 1
10 7 -14 3055.65 401.29 1
7 14 -10 2977.41 433.147 1
14 10 -7 2709.63 407.009 1
14 10 -6 357.294 140.97 1
6 14 -10 114.412 111.291 1
10 6 -14 181.424 68.4023 1
5 14 -10 2408.69 380.293 1
10 5 -14 2181.76 312.658 1
14 10 -5 2223.1 360.04 1
4 14 -10 6256.94 607.222 1
10 4 -14 6371.49 516.28 1
14 10 -4 6589.66 602.381 1
3 14 -10 5081.73 542.336 1
10 3 -14 4978.41 441.705 1
14 10 -3 5075.22 542.642 1
10 14 2 1912.03 346.94 1
10 2 -14 1908.25 264.504 1
2 14 -10 1645.25 322.281 1
14 10 -2 1632.35 307.683 1
10 14 1 3787.79 473.946 1
10 1 -14 3417.92 327.552 1
1 14 -10 3162.55 429.977 1
0 14 -10 654.257 234.307 1
10 14 0 684.787 222.993 1
10 14 -1 4012.66 486.705 1
14 2 -10 1806.85 261.753 1
10 14 -2 2006.85 325.55 1
3 10 -14 5182.11 534.321 1
14 3 -10 5089.2 453.897 1
10 14 -3 5313.68 566.564 1
14 4 -10 6031.83 516.34 1
4 10 -14 5995.69 600.205 1
10 14 -4 6676.23 622.312 1
14 5 -10 2214.17 312.584 1
5 10 -14 2630.56 394.102 1
10 14 -5 2289.43 359.007 1
6 10 -14 314.331 149.959 1
14 6 -10 177.137 72.7105 1
10 14 -6 345.67 166.564 1
7 10 -14 2624.56 382.123 1
14 7 -10 2551.34 351.845 1
10 14 -7 2523.86 413.906 1
14 8 -10 842.04 215.267 1
10 14 -8 1262.15 309.573 1
8 10 -14 992.422 281.676 1
14 9 -10 5522.74 576.29 1
9 10 -14 5918.18 598.408 1
10 14 -9 5522.92 604.072 1
10 14 -10 3358.86 472.973 1
10 10 -14 3080.67 434.242 1
14 10 -10 3222.39 442.286 1
10 14 -11 649.043 233.274 1
14 11 -10 574.625 185.662 1
11 10 -14 596.011 217.366 1
14 11 -9 2417.23 390.954 1
11 9 -14 2167.77 355.623 1
9 14 -11 2057.19 367.813 1
8 14 -11 3223.46 464.007 1
11 8 -14 2902.63 409.737 1
14 11 -8 3354.25 472.842 1
11 7 -14 93.7612 84.9783 1
14 11 -7 265.608 179.516 1
7 14 -11 314.463 169.442 1
14 11 -6 2550.12 386.121 1
11 6 -14 2842.32 394.645 1
6 14 -11 2818.63 426.105 1
14 11 -5 4243.03 508.528 1
5 14 -11 4022.61 498.551 1
11 5 -14 3940.74 427.552 1
11 4 -14 861.981 207.206 1
14 11 -4 688.151 232.749 1
4 14 -11 760.652 215.875 1
3 14 -11 2251.17 375.891 1
11 3 -14 2136.22 294.41 1
14 11 -3 2078.12 369.368 1
11 2 -14 1388.9 225.596 1
14 11 -2 1330.27 324.302 1
2 14 -11 1463.29 316.703 1
11 14 1 895.562 223.116 1
1 14 -11 1034.5 280.53 1
0 14 -11 2924.83 420.71 1
11 14 0 2789.69 413.876 1
11 14 -1 615.596 229.521 1
11 14 -2 1209.03 307.516 1
14 2 -11 1135.61 208.922 1
11 14 -3 2265.25 386.134 1
14 3 -11 2079.92 299.77 1
3 11 -14 2133.5 369.72 1
14 4 -11 888.79 187.408 1
11 14 -4 1095.66 273.028 1
4 11 -14 1014.74 262.437 1
14 5 -11 3756.02 422.765 1
11 14 -5 3655.77 482.747 1
5 11 -14 3596.65 466.422 1
14 6 -11 2534.2 354.717 1
11 14 -6 2728.2 404.966 1
6 11 -14 2779.88 407.353 1
7 11 -14 443.28 192.207 1
11 14 -7 241.295 140.771 1
14 7 -11 174.134 84.8796 1
14 8 -11 2879.19 399.314 1
11 14 -8 3170.8 466 1
8 11 -14 2984.95 429.925 1
11 14 -9 2104.65 384.618 1
9 11 -14 2403.46 384.887 1
14 9 -11 1775.16 322.881 1
14 10 -11 411.34 169.678 1
11 14 -10 527.879 214.111 1
10 11 -14 535.854 181.465 1
14 11 -11 182.427 138.936 1
11 11 -14 82.0195 113.712 1
11 14 -11 135.315 108.817 1
14 12 -11 1663.25 348.756 1
12 11 -14 1692.31 339.729 1
11 14 -12 1346.5 316.857 1
10 14 -12 2678.04 440.346 1
14 12 -10 2714.7 430.876 1
12 10 -14 2091.48 366.067 1
14 12 -9 2992.09 445.396 1
12 9 -14 3185.66 445.415 1
9 14 -12 2858.31 461.071 1
14 12 -8 2929.87 444.339 1
12 8 -14 2817.27 416.151 1
8 14 -12 3263.99 479.264 1
14 12 -7 2959.5 456.714 1
12 7 -14 2915.34 403.57 1
7 14 -12 3333.73 486.918 1
14 12 -6 2552.24 418.977 1
12 6 -14 2281.05 346.237 1
6 14 -12 2494.21 402.087 1
14 12 -5 15491.1 996.219 1
5 14 -12 15164.8 989.456 1
12 5 -14 14629.8 830.584 1
4 14 -12 -23.5758 109.466 1
14 12 -4 10.3018 111.354 1
12 4 -14 55.4194 122.249 1
14 12 -3 383.771 187.261 1
12 3 -14 422.082 151.081 1
3 14 -12 350.111 165.673 1
14 12 -2 2898.76 426.595 1
2 14 -12 2700.72 419.025 1
12 2 -14 2610.44 302.663 1
1 14 -12 3610 476.426 1
0 14 -12 724.752 220.818 1
12 14 0 937.834 259.148 1
12 14 -1 2969.45 423.55 1
2 12 -14 2417.54 374.201 1
12 14 -2 2563.15 411.815 1
14 2 -12 2114.4 272.904 1
3 12 -14 385.009 157.393 1
12 14 -3 566.51 234.101 1
14 3 -12 347.003 134.42 1
12 14 -4 0.93601 117.82 1
4 12 -14 -252.888 141.436 1
14 4 -12 -60.2302 90.0471 1
5 12 -14 14859.9 968.522 1
12 14 -5 15277.2 996.949 1
14 5 -12 14426.6 831.492 1
12 14 -6 2533.6 416.499 1
6 12 -14 2679.06 424.145 1
14 6 -12 2333.25 353.305 1
7 12 -14 3295.17 465.343 1
12 14 -7 3063.78 460.429 1
14 7 -12 3152.41 420.873 1
12 14 -8 3087.12 460.48 1
8 12 -14 3587.16 497.176 1
14 8 -12 3486.53 465.937 1
12 14 -9 3056.89 461.368 1
9 12 -14 3156.35 449.614 1
14 9 -12 3182.28 442.034 1
14 10 -12 2595.47 423.355 1
10 12 -14 2573.7 418.114 1
12 14 -10 2692.77 441.301 1
12 14 -11 1188.32 313.507 1
11 12 -14 1491.59 329.081 1
14 11 -12 1305.38 311.037 1
14 12 -12 6892.22 701.163 1
12 14 -12 7017.15 729.347 1
12 12 -14 6846.94 701.224 1
14 13 -12 842.547 244.197 1
12 14 -13 667.823 227.109 1
13 12 -14 686.741 215.235 1
11 14 -13 1757.53 367.504 1
14 13 -11 1333.74 333.094 1
13 11 -14 1416.31 333.073 1
10 14 -13 778.533 223.878 1
14 13 -10 832.175 197.439 1
13 10 -14 692.264 227.049 1
9 14 -13 94.0973 138.861 1
14 13 -9 97.7681 123.26 1
13 9 -14 136.659 119.462 1
14 13 -8 2131.41 385.069 1
13 8 -14 2107.21 357.426 1
8 14 -13 1916.77 349.574 1
13 7 -14 2227.6 341.535 1
7 14 -13 2604.5 441.443 1
14 13 -7 2411.16 416.281 1
13 6 -14 435.257 182.765 1
14 13 -6 551.728 226.283 1
6 14 -13 710.989 249.637 1
5 14 -13 3288.44 481.737 1
14 13 -5 3123.08 458.983 1
13 5 -14 3197.15 402.273 1
13 4 -14 1205.16 230.397 1
14 13 -4 1644.37 363.351 1
4 14 -13 1566.18 336.938 1
14 13 -3 2921.46 448.258 1
13 3 -14 3050.09 356.157 1
3 14 -13 2648.26 421.632 1
2 14 -13 1803.47 387.855 1
14 13 -2 2030.23 384.875 1
1 14 -13 803.985 202.451 1
13 14 0 1030.86 272.237 1
0 14 -13 726.015 218.348 1
13 14 -1 1153.8 310.265 1
1 13 -14 822.384 246.619 1
2 13 -14 1811.2 378.905 1
13 14 -2 2019.89 374.074 1
14 3 -13 2803.05 341.678 1
3 13 -14 2907.84 426.762 1
13 14 -3 2741.96 437.859 1
13 14 -4 1400.55 335.009 1
4 13 -14 1129.59 255.239 1
14 4 -13 1243.74 230.765 1
14 5 -13 2870.19 375.879 1
5 13 -14 2897.86 453.824 1
13 14 -5 3031.63 462.556 1
13 14 -6 642.467 246.07 1
6 13 -14 492.785 219.45 1
14 6 -13 497.5 174.492 1
13 14 -7 2411.03 400.089 1
7 13 -14 2716.48 432.849 1
14 7 -13 2136.42 344.559 1
8 13 -14 2102.89 388.791 1
13 14 -8 1946.09 388.392 1
14 8 -13 1705.3 325.439 1
13 14 -9 -63.8279 129.636 1
14 9 -13 -19.4659 86.7801 1
9 13 -14 116.033 147.842 1
10 13 -14 1267.26 328.857 1
13 14 -10 1053.42 271.828 1
14 10 -13 1039.04 265.097 1
13 14 -11 1796.35 371.134 1
11 13 -14 1906.16 396.092 1
14 11 -13 1565.97 334.307 1
13 14 -12 739.208 239.715 1
12 13 -14 834.733 268.108 1
14 12 -13 801.41 232.401 1
13 13 -14 206.698 156.907 1
13 14 -13 381.555 201.061 1
14 13 -13 243.231 146.949 1
0 14 -14 -22.2998 91.0453 1
14 14 -1 309.445 175.527 1
1 14 -14 482.692 203.702 1
2 14 -14 -40.144 114.755 1
14 14 -2 -173.019 155.444 1
3 14 -14 18622.2 1130.58 1
14 14 -3 17349.7 1103.83 1
4 14 -14 502.46 192.741 1
14 14 -4 406.204 185.386 1
14 4 -14 553.971 163.463 1
14 5 -14 843.62 223.457 1
14 14 -5 902.501 289.05 1
5 14 -14 696.642 255.564 1
6 14 -14 317.441 162.657 1
14 14 -6 535.33 229.915 1
14 6 -14 358.827 187.169 1
14 14 -7 20081.6 1214.01 1
14 7 -14 19889.2 1082.56 1
7 14 -14 21341.6 1239.86 1
8 14 -14 4221.52 569.199 1
14 14 -8 4674.74 574.925 1
14 8 -14 3611.62 475.327 1
14 14 -9 172.503 119.457 1
9 14 -14 273.944 154.879 1
14 9 -14 366.582 183.692 1
14 14 -10 3574.04 531.83 1
14 10 -14 2598.09 436.293 1
10 14 -14 3648.38 525.218 1
14 14 -11 83.4447 91.9524 1
14 11 -14 212.946 136.369 1
11 14 -14 6.65612 116.832 1
14 14 -12 830.466 251.305 1
14 12 -14 659.249 255.165 1
12 14 -14 395.765 217.993 1
14 14 -13 -72.5566 124.789 1
14 13 -14 189.871 207.31 1
13 14 -14 -66.3213 112.331 1
14 14 -14 3345.85 535.343 1
0 15 0 8.8303 78.0411 1
0 15 -1 857.916 161.705 1
1 15 0 1189.63 241.225 1
0 15 1 1057.57 195.243 1
-1 15 0 830.514 180.395 1
-1 15 1 268.025 84.8205 1
1 15 -1 312.224 142.22 1
-1 15 -1 288.424 126.346 1
1 15 1 343.796 125.624 1
2 15 1 316.103 122.101 1
1 15 -2 626.867 171.079 1
-2 15 -1 425.759 143.53 1
-1 15 2 396.491 131.365 1
-2 15 0 3428.78 358.938 1
0 15 -2 3980.15 406.666 1
0 15 2 3474.97 363.112 1
2 15 0 3841.16 395.443 1
-1 15 -2 621.56 155.03 1
-2 15 1 623.692 169.457 1
2 15 -1 496.576 134.146 1
1 15 2 395.297 137.799 1
-2 15 -2 3840.43 399.964 1
2 15 2 3539.04 371.255 1
2 15 -2 3825.44 407.653 1
-2 15 2 3333.06 336.088 1
3 15 2 642.099 198.451 1
-3 15 -2 744.426 178.872 1
-2 15 3 724.448 155.635 1
2 15 -3 815.471 217.401 1
-1 15 3 4131.05 386.519 1
3 15 1 4585.7 450.97 1
1 15 -3 4725.01 463.659 1
-3 15 -1 4162.81 410.627 1
0 15 -3 6442.98 531.911 1
3 15 0 6178.12 523.314 1
-3 15 0 5904.9 459.975 1
0 15 3 5975.47 465.25 1
1 15 3 4620.56 422.756 1
3 15 -1 4389.66 454.454 1
-1 15 -3 4535.18 436.692 1
-3 15 1 4519.13 399.1 1
-2 15 -3 883.607 208.743 1
-3 15 2 815.937 177.4 1
2 15 3 932.727 211.562 1
3 15 -2 1025.54 229.222 1
3 15 3 2354.49 316.697 1
3 15 -3 2348.95 336.182 1
-3 15 3 2272.97 268.722 1
-3 15 -3 2480.18 324.618 1
-4 15 -3 3633.16 393.891 1
-3 15 4 3237.7 321.302 1
4 15 3 3276.8 380.516 1
3 15 -4 3196.04 398.825 1
-2 15 4 5773.23 433.819 1
2 15 -4 6206.79 531.432 1
4 15 2 6507.58 538.686 1
-4 15 -2 5792.81 478.405 1
-1 15 4 3286.67 329.178 1
4 15 1 3764.09 416.555 1
-4 15 -1 3523.08 369.921 1
1 15 -4 3686.77 405.047 1
4 15 0 1477.25 257.309 1
0 15 -4 1863.06 300.649 1
0 15 4 1649.7 253.018 1
-4 15 0 1685.52 263.194 1
-1 15 -4 3418.52 379.587 1
-4 15 1 2873.72 316.759 1
1 15 4 3129.84 348.456 1
4 15 -1 3816.62 426.916 1
4 15 -2 6240.74 545.618 1
2 15 4 6325.8 503.988 1
-4 15 2 6388.4 451.763 1
-2 15 -4 7368.21 562.983 1
4 15 -3 3599.14 404.395 1
-4 15 3 3375.31 316.796 1
-3 15 -4 3729.01 405.749 1
3 15 4 3621.47 397.711 1
4 15 4 17.8839 107.566 1
-4 15 4 40.5634 54.1057 1
-4 15 -4 0.42312 74.3465 1
4 15 -4 -22.5157 98.1109 1
-5 15 -4 2085.63 293.515 1
5 15 4 2349.13 346.884 1
-4 15 5 2066.95 229.409 1
4 15 -5 2044.67 332.595 1
-3 15 5 1227.94 184.778 1
-5 15 -3 1310.66 240.505 1
3 15 -5 1423.85 272.073 1
5 15 3 1207.88 242.569 1
-5 15 -2 19479.2 890.433 1
-2 15 5 19098 773.755 1
2 15 -5 19727.5 965.098 1
5 15 2 20581.8 970.623 1
-5 15 -1 3702.32 366.35 1
5 15 1 4204.45 452.632 1
-1 15 5 3666.42 352.584 1
1 15 -5 3984.59 439.389 1
5 15 0 4225.22 448.379 1
0 15 5 4160.66 377.979 1
0 15 -5 4626.81 474.19 1
-5 15 0 4505.4 399.35 1
1 15 5 3763.35 372.175 1
-1 15 -5 4047.31 438.698 1
5 15 -1 3472.15 421.825 1
-5 15 1 3465.69 341.628 1
5 15 -2 18524.5 945.358 1
2 15 5 18233.6 875.135 1
-5 15 2 17823.3 745.358 1
-2 15 -5 18928.8 943.448 1
-5 15 3 1484.57 208.785 1
5 15 -3 1600.76 278.954 1
-3 15 -5 1428.7 278.672 1
3 15 5 1739.2 277.372 1
5 15 -4 2285.01 353.145 1
-4 15 -5 1756.12 273.475 1
-5 15 4 1701.83 215.068 1
4 15 5 2095.69 300.061 1
5 5 -15 2884.33 370.365 1
5 15 -5 3110.73 406.375 1
6 5 -15 6080.48 513.005 1
5 15 -6 6606.95 593.852 1
6 4 -15 4051.36 414.619 1
4 15 -6 3984.18 466.885 1
6 15 4 3831.11 435.684 1
3 15 -6 544.765 169.735 1
6 3 -15 500.12 160.073 1
-6 15 -3 640.195 185.517 1
6 15 3 699.209 198.873 1
6 2 -15 148.593 108.697 1
6 15 2 102.144 111.222 1
-6 15 -2 50.8801 78.4927 1
2 15 -6 99.1927 99.5238 1
1 15 -6 335.624 163.662 1
-6 15 -1 391.347 146.885 1
6 1 -15 335.562 124.28 1
6 15 1 418.014 170.667 1
-6 15 0 16767.8 756.848 1
6 0 -15 16731.8 729.207 1
0 15 -6 17393 909.261 1
6 15 0 17243.8 914.011 1
-6 15 1 348.84 111.04 1
-1 15 -6 430.74 182.001 1
6 -1 -15 280.755 79.9925 1
6 15 -1 312.604 153.458 1
-6 15 2 118.085 48.095 1
6 15 -2 198.458 143.192 1
6 -2 -15 24.8924 45.6782 1
-2 15 -6 113.655 128.541 1
6 15 -3 686.755 202.98 1
-6 15 3 605.288 123.722 1
-3 15 -6 999.055 239.959 1
-4 15 -6 3579.03 421.459 1
6 15 -4 3543.7 445.706 1
6 15 -5 6563.44 596.398 1
5 6 -15 6433.89 546.977 1
15 6 -6 162.319 140.322 1
6 15 -6 299.208 195.347 1
6 6 -15 196.932 126.83 1
15 7 -6 367.292 186.181 1
6 15 -7 132.223 95.9248 1
7 6 -15 554.348 182.781 1
7 5 -15 3223.06 388.912 1
15 7 -5 2727.3 377.895 1
5 15 -7 3050.66 425.328 1
4 15 -7 10989.5 763.659 1
7 15 4 10577.9 740.595 1
7 4 -15 10083.8 655.825 1
7 3 -15 1178.24 218.352 1
7 15 3 1178.28 257.818 1
3 15 -7 1063.74 233.13 1
7 15 2 1275.08 279.434 1
7 2 -15 1266.61 217.846 1
-7 15 -2 1128.55 212.607 1
2 15 -7 1182.57 268.557 1
-7 15 -1 6674.61 500.158 1
7 15 1 7072.42 603.145 1
1 15 -7 7296.22 617.013 1
7 1 -15 6101.42 452.528 1
0 15 -7 19318.6 991.226 1
7 0 -15 19193.5 767.5 1
-7 15 0 18750.8 796.061 1
7 15 0 20093.7 1008.55 1
7 -1 -15 6969.42 440.7 1
-1 15 -7 7575.7 631.62 1
7 15 -1 7467.91 626.155 1
-7 15 1 6200.16 440.301 1
7 15 -2 1196.49 261.757 1
-7 15 2 1082.28 174.917 1
-2 15 -7 1130.3 246.137 1
-3 15 -7 1185.62 281.115 1
7 15 -3 724.752 211.614 1
7 15 -4 10831.8 772.279 1
15 5 -7 2656.43 364.817 1
7 15 -5 3108.28 419.007 1
5 7 -15 2813.43 370.149 1
7 15 -6 342.032 143.235 1
15 6 -7 633.379 162.415 1
6 7 -15 644.413 192.875 1
15 7 -7 3473.32 448.586 1
7 15 -7 3584.45 482.581 1
7 7 -15 3644.87 430.657 1
8 7 -15 8753.19 680.497 1
15 8 -7 9423.52 736.356 1
7 15 -8 8850.71 734.287 1
8 6 -15 3095.07 396.8 1
6 15 -8 3610.27 456.916 1
15 8 -6 3324.88 419.893 1
8 5 -15 477.198 139.793 1
5 15 -8 419.247 177.347 1
15 8 -5 311.399 134.571 1
4 15 -8 142.343 122.913 1
15 8 -4 233.441 168.322 1
8 4 -15 99.5821 114.034 1
8 15 3 794.52 204.527 1
8 3 -15 878.464 201.432 1
3 15 -8 882.99 239.076 1
2 15 -8 5397.42 556.61 1
8 15 2 5804.69 551.248 1
-8 15 -2 5574.72 471.54 1
8 2 -15 5424.71 449.216 1
8 1 -15 596.319 148.294 1
-8 15 -1 447.263 135.476 1
8 15 1 444.885 139.793 1
1 15 -8 369.379 153.075 1
8 15 0 633.889 199.406 1
8 0 -15 296.72 101.407 1
-8 15 0 513.805 154.152 1
0 15 -8 258.255 122.046 1
-8 15 1 281.883 106.391 1
8 15 -1 266.695 178.912 1
-1 15 -8 436.836 187.377 1
8 15 -2 5809.05 563.247 1
-2 15 -8 5323.58 534.043 1
8 15 -3 933.51 251.671 1
4 8 -15 27.7918 102.491 1
8 15 -4 62.5267 108.128 1
15 4 -8 -26.0792 64.7175 1
8 15 -5 642.738 215.427 1
5 8 -15 558.298 188.985 1
15 5 -8 655.609 165.703 1
6 8 -15 2881.1 398.932 1
8 15 -6 3504.53 458.697 1
15 6 -8 2954.02 384.259 1
15 7 -8 8976.55 693.571 1
7 8 -15 9051.26 698.988 1
8 15 -7 9518.71 767.229 1
15 8 -8 431.395 177.924 1
8 15 -8 229.105 125.477 1
8 8 -15 313.247 155.048 1
8 15 -9 1327.85 318.165 1
9 8 -15 1564.1 301.465 1
15 9 -8 1444.48 311.781 1
15 9 -7 992.926 232.454 1
9 7 -15 1007.49 234.866 1
7 15 -9 1325.68 284.637 1
6 15 -9 8019.11 697.697 1
15 9 -6 7656.65 670.172 1
9 6 -15 7162.48 599.371 1
9 5 -15 4274.19 447.554 1
15 9 -5 4615.51 516.121 1
5 15 -9 4364.04 518.675 1
15 9 -4 1478.85 290.401 1
9 4 -15 1669 254.499 1
4 15 -9 1912.45 350.29 1
3 15 -9 7039.71 641.638 1
9 3 -15 6433.35 506.379 1
9 15 3 7068.32 633.477 1
9 2 -15 2687.33 324.53 1
9 15 2 2523.46 385.657 1
2 15 -9 2577.21 386.505 1
-9 15 -1 1320.22 223.285 1
9 15 1 1602.16 328.215 1
1 15 -9 1178.32 260.772 1
9 1 -15 1405.78 221.169 1
-9 15 0 4522.77 390.045 1
9 15 0 5066.35 545.861 1
0 15 -9 4633.37 524.92 1
9 15 -1 1040.84 259.473 1
-9 15 1 999.954 189.784 1
-1 15 -9 1101.2 235.774 1
-2 15 -9 2393.32 367.279 1
9 15 -2 2498.13 385.393 1
9 15 -3 6935.33 626.776 1
15 4 -9 1741.48 276.389 1
9 15 -4 1595.98 330.583 1
4 9 -15 1873.07 323.815 1
15 5 -9 3980.3 431.761 1
9 15 -5 4505.9 529.597 1
5 9 -15 4646.69 511.198 1
6 9 -15 7965.17 673.535 1
15 6 -9 7643.06 619.084 1
9 15 -6 8071.21 716.248 1
9 15 -7 742.386 231.312 1
15 7 -9 667.825 189.35 1
7 9 -15 819.957 198.841 1
8 9 -15 1411.33 288.855 1
9 15 -8 1541.21 307.022 1
15 8 -9 1549.72 312.218 1
15 9 -9 1496.67 317.834 1
9 9 -15 1552.15 326.296 1
9 15 -9 1223.86 293.058 1
10 9 -15 3191.83 447.12 1
15 10 -9 3122.63 448.303 1
9 15 -10 3522.32 506.785 1
8 15 -10 705.459 234.411 1
10 8 -15 756.773 227.533 1
15 10 -8 874.396 211.969 1
7 15 -10 1150.16 286.482 1
10 7 -15 1208.62 252.862 1
15 10 -7 1304.56 315.103 1
15 10 -6 1336.56 279.423 1
10 6 -15 1406.5 272.614 1
6 15 -10 1558.75 325.576 1
10 5 -15 1039.44 208.236 1
5 15 -10 1179.83 289.346 1
15 10 -5 945.955 241.838 1
10 4 -15 5085.79 470.78 1
4 15 -10 5311.11 560.595 1
15 10 -4 5545.72 574.934 1
3 15 -10 1271.06 273.317 1
10 3 -15 1709.99 269.484 1
15 10 -3 1676.35 324.066 1
10 2 -15 1464.7 236.274 1
2 15 -10 1400.55 273.295 1
10 15 2 1041.99 268.267 1
-10 15 -1 760.399 175.863 1
1 15 -10 802.303 231.994 1
10 15 1 955.342 254.637 1
-10 15 0 1659.05 247.432 1
0 15 -10 1515.31 299.659 1
10 15 0 1659.75 320.923 1
10 15 -1 632.568 190.366 1
-1 15 -10 671.58 215.163 1
-2 15 -10 1467.24 298.253 1
10 15 -2 1360.01 294.839 1
15 3 -10 1716.76 281.627 1
3 10 -15 2011.89 348.061 1
10 15 -3 2107.64 367.249 1
4 10 -15 4721.24 545.087 1
10 15 -4 5235.83 564.058 1
15 4 -10 4875.32 460.127 1
15 5 -10 1234.51 242.091 1
5 10 -15 1232.8 275.504 1
10 15 -5 1413.3 311.175 1
15 6 -10 1286.82 247.91 1
6 10 -15 1464.04 299.243 1
10 15 -6 1519.36 354.161 1
15 7 -10 1292.41 279.101 1
7 10 -15 1245.22 270.966 1
10 15 -7 1348.08 299.776 1
10 15 -8 827.553 252.889 1
15 8 -10 923.585 244.247 1
8 10 -15 627.352 194.059 1
10 15 -9 3220.65 460.224 1
15 9 -10 3105.09 440.353 1
9 10 -15 3385.71 468.039 1
10 15 -10 591.872 202.749 1
10 10 -15 378.606 166.154 1
15 10 -10 475.897 212.104 1
15 11 -10 2197.26 400.109 1
10 15 -11 2731.46 433.702 1
11 10 -15 2454.12 418.057 1
11 9 -15 5291.62 578.785 1
9 15 -11 5458.38 632.178 1
15 11 -9 5747.28 621.676 1
11 8 -15 6538.39 624.703 1
8 15 -11 6018.93 653.352 1
15 11 -8 6251.63 652.394 1
15 11 -7 2071.69 374.939 1
11 7 -15 1901.89 330.271 1
7 15 -11 1558.99 327.44 1
11 6 -15 7389.6 627.275 1
15 11 -6 7757.51 705.669 1
6 15 -11 8137 720.775 1
15 11 -5 4375.89 537.846 1
11 5 -15 3959.79 435.539 1
5 15 -11 3907.02 512.283 1
11 4 -15 2410.26 342.088 1
4 15 -11 2791.98 420.771 1
15 11 -4 2344.59 389.734 1
15 11 -3 2044.01 349.35 1
3 15 -11 2106.79 358.785 1
11 3 -15 2307.06 308.531 1
2 15 -11 6743.45 647.024 1
11 2 -15 5907.24 478.879 1
1 15 -11 1791.23 339.135 1
11 15 1 1561.33 307.567 1
11 15 0 185.181 163.105 1
0 15 -11 12.2757 103.34 1
11 15 -1 1681.09 349.782 1
-1 15 -11 1668.1 336.385 1
11 15 -2 6927.75 657.521 1
3 11 -15 1906.87 360.821 1
11 15 -3 2026.91 369.252 1
15 3 -11 2166.21 300.25 1
4 11 -15 2126.62 376.266 1
11 15 -4 2121.42 382.369 1
15 4 -11 1795.83 312.004 1
15 5 -11 3763.53 440.178 1
5 11 -15 4547.3 546.279 1
11 15 -5 4343.68 545.814 1
15 6 -11 7622.8 633.731 1
6 11 -15 7375.91 694.674 1
11 15 -6 6942.38 677.469 1
7 11 -15 2225.36 403.644 1
15 7 -11 2450.83 378.157 1
11 15 -7 2072.22 394.168 1
11 15 -8 6019.9 653.866 1
15 8 -11 6255.13 614.985 1
8 11 -15 6438.17 646.035 1
9 11 -15 6293.86 650.161 1
11 15 -9 5836.94 644.438 1
15 9 -11 5527.86 591.909 1
15 10 -11 2620.86 406 1
10 11 -15 2614.17 438.454 1
11 15 -10 2231.47 412.25 1
15 11 -11 982.883 286.853 1
11 11 -15 952.519 274.307 1
11 15 -11 1060.07 282.245 1
15 12 -11 925.617 276.483 1
12 11 -15 1163.59 297.801 1
11 15 -12 1073.48 306.021 1
12 10 -15 480.802 201.999 1
10 15 -12 356.923 156.876 1
15 12 -10 505.41 203.684 1
9 15 -12 1610.52 371.351 1
12 9 -15 1313.02 303.865 1
15 12 -9 1205.1 312.047 1
8 15 -12 901.649 265.871 1
15 12 -8 741.863 249.322 1
12 8 -15 811.334 230.78 1
15 12 -7 197.24 91.4044 1
12 7 -15 176.48 143.654 1
7 15 -12 253.368 149.699 1
12 6 -15 4646.54 505.025 1
15 12 -6 4214.57 538.668 1
6 15 -12 4619.45 576.246 1
5 15 -12 2243.29 399.515 1
15 12 -5 2116.59 382.877 1
12 5 -15 2134.33 309.359 1
4 15 -12 1816.84 346.573 1
12 4 -15 1795.74 292.468 1
15 12 -4 1860.66 352.006 1
12 3 -15 574.932 155.512 1
3 15 -12 848.311 249.061 1
15 12 -3 579.393 226.296 1
2 15 -12 3101.67 457.578 1
1 15 -12 3218.31 453.338 1
12 15 0 616.819 197.888 1
0 15 -12 711.55 237.729 1
12 15 -1 3641.6 490.964 1
-1 15 -12 2937.71 445.371 1
12 15 -2 2556.66 427.111 1
2 12 -15 2447.15 398.955 1
3 12 -15 735.13 228.886 1
12 15 -3 608.332 254.736 1
15 3 -12 588.713 167.763 1
15 4 -12 1625.48 283.2 1
12 15 -4 1660.02 357.629 1
4 12 -15 2009.95 384.777 1
15 5 -12 2063.09 321.722 1
5 12 -15 2141.51 376.026 1
12 15 -5 2196.4 386.052 1
12 15 -6 3939.26 531.604 1
6 12 -15 4361.08 530.609 1
15 6 -12 4220.93 472.793 1
7 12 -15 282.54 169.359 1
12 15 -7 401.951 202.433 1
15 7 -12 107.271 114.395 1
8 12 -15 614.542 220.814 1
15 8 -12 570.971 172.142 1
12 15 -8 743.188 248.679 1
12 15 -9 896.195 229.96 1
15 9 -12 1200.6 289.381 1
9 12 -15 1382.19 335.025 1
15 10 -12 261.571 111.611 1
12 15 -10 266.029 113.132 1
10 12 -15 359.536 123.783 1
15 11 -12 1396.34 330.635 1
12 15 -11 1365.89 327.018 1
11 12 -15 1292.66 294.569 1
12 15 -12 1438.59 343.737 1
15 12 -12 1360.32 337.087 1
12 12 -15 1285.29 323.748 1
15 13 -12 214.222 165.799 1
12 15 -13 151.288 91.7204 1
13 12 -15 266.312 274.292 1
15 13 -11 5831.67 672.925 1
13 11 -15 5295.55 634.343 1
11 15 -13 5518.59 653.19 1
15 13 -10 947.332 268.061 1
10 15 -13 1224.69 301.957 1
13 10 -15 1103.95 283.497 1
13 9 -15 52.3869 121.371 1
9 15 -13 -27.6628 101.602 1
15 13 -9 279.283 191.457 1
8 15 -13 6098.5 671.629 1
15 13 -8 6322.2 668.97 1
13 8 -15 5751.71 595.99 1
7 15 -13 3351.83 494.551 1
15 13 -7 3272.17 498.932 1
13 7 -15 3516.12 447.092 1
6 15 -13 6601.89 698.441 1
15 13 -6 6910 713.391 1
13 6 -15 6484.92 598.147 1
15 13 -5 1562.42 324.623 1
13 5 -15 1996.91 333.207 1
5 15 -13 1801.79 373.076 1
13 4 -15 10143.5 700.196 1
4 15 -13 11244.8 877.696 1
15 13 -4 11065.2 873.923 1
15 13 -3 526.15 202.646 1
3 15 -13 599.094 192.248 1
2 15 -13 3811.45 492.899 1
1 15 -13 213.037 211.61 1
0 15 -13 656.165 225.651 1
13 15 0 438.077 215.994 1
13 15 -1 -43.4494 143.504 1
-1 15 -13 165.982 151.099 1
1 13 -15 239.956 198.71 1
13 15 -2 3945.79 535.015 1
2 13 -15 3276.1 483.353 1
3 13 -15 611.003 191.935 1
13 15 -3 433.813 207.558 1
4 13 -15 11428.8 891.449 1
13 15 -4 10911.8 877.978 1
15 4 -13 9627.28 686.974 1
15 5 -13 1572.23 299.727 1
5 13 -15 1976.03 380.648 1
13 15 -5 1684.72 356.256 1
6 13 -15 6207.52 649.701 1
13 15 -6 6010.41 649.752 1
15 6 -13 6351 603.615 1
7 13 -15 3445.31 491.668 1
13 15 -7 3544.84 530 1
15 7 -13 3147.13 432.814 1
13 15 -8 5470.78 642.658 1
15 8 -13 5867.92 603.363 1
8 13 -15 6589.77 685.015 1
9 13 -15 3.64658 122.817 1
15 9 -13 129.032 133.436 1
13 15 -9 101.781 120.076 1
10 13 -15 1110.33 298.349 1
13 15 -10 1099.17 316.392 1
15 10 -13 756.759 231.076 1
11 13 -15 5931.22 688.941 1
15 11 -13 5688.92 646.381 1
13 15 -11 5620.61 658.75 1
12 13 -15 437.911 199.989 1
13 15 -12 307.592 103.832 1
15 12 -13 368.055 218.561 1
15 13 -13 922.501 284.651 1
13 13 -15 1088.6 304.292 1
13 15 -13 799.887 238.246 1
14 13 -15 485.995 225.064 1
13 15 -14 270.573 167.6 1
15 14 -13 549.274 235.786 1
15 14 -12 93.738 141.901 1
12 15 -14 27.5453 115.835 1
14 12 -15 130.94 153.768 1
15 14 -11 1209.43 346.801 1
11 15 -14 1370.36 351.43 1
14 11 -15 1465.27 336.787 1
10 15 -14 734.347 264.397 1
15 14 -10 547.985 230.275 1
14 10 -15 693.621 238.06 1
15 14 -9 922.812 271.015 1
9 15 -14 707.274 249.516 1
14 9 -15 559.616 186.813 1
8 15 -14 870.51 258.227 1
14 8 -15 1101.99 270.737 1
15 14 -8 991.955 293.613 1
7 15 -14 740.293 241.054 1
14 7 -15 545.679 172.348 1
15 14 -7 849.512 266.063 1
15 14 -6 1906.48 378.345 1
6 15 -14 2087.92 418.769 1
14 6 -15 1543.66 288.613 1
15 14 -5 2437.95 437.439 1
14 5 -15 2478.34 358.494 1
5 15 -14 2864.04 445.092 1
4 15 -14 2378.33 421.821 1
15 14 -4 2747.54 446.501 1
15 14 -3 551.557 185.586 1
3 15 -14 542.626 190.907 1
2 15 -14 1566.94 347.377 1
1 15 -14 2453.55 432.987 1
0 15 -14 189.934 207.862 1
0 14 -15 190.448 163.22 1
1 14 -15 2588.18 434.434 1
-1 15 -14 2548 435.314 1
14 15 -1 2704.66 426.716 1
14 15 -2 1787.57 365.54 1
2 14 -15 1707.75 368.959 1
14 15 -3 217.693 99.2995 1
3 14 -15 217.134 116.438 1
4 14 -15 2335.92 411.008 1
14 15 -4 2906.5 471.282 1
5 14 -15 2341.29 438.444 1
14 15 -5 2706.5 464.588 1
15 5 -14 2524.49 373.835 1
15 6 -14 1732.5 309.056 1
6 14 -15 1950.73 358.396 1
14 15 -6 2024.15 412.883 1
14 15 -7 567.326 240.571 1
7 14 -15 589.094 205.991 1
15 7 -14 704.421 202.892 1
8 14 -15 1228.62 315.295 1
15 8 -14 794.314 222.005 1
14 15 -8 1064.04 312.879 1
9 14 -15 623.886 205.431 1
14 15 -9 720.779 248.884 1
15 9 -14 759.111 236.41 1
15 10 -14 500.358 176.588 1
10 14 -15 608.347 230.21 1
14 15 -10 747.433 302.218 1
14 15 -11 1563.67 378.922 1
15 11 -14 1264.79 319.082 1
11 14 -15 1495.17 359.137 1
14 15 -12 117.834 127.63 1
12 14 -15 105.131 173.409 1
15 12 -14 148.839 140.992 1
13 14 -15 856.255 281.226 1
15 13 -14 716.34 258.388 1
14 15 -13 875.355 280.818 1
15 14 -14 1299.42 343.1 1
14 14 -15 913.785 270.047 1
14 15 -14 1179.92 332.378 1
0 15 -15 1384.08 306.234 1
1 15 -15 164.547 106.767 1
-1 15 -15 106.043 93.9188 1
2 15 -15 6259.2 691.422 1
3 15 -15 1360.57 306.082 1
15 15 -3 1088.71 277.473 1
4 15 -15 6667.72 707.298 1
15 15 -4 6904.12 730.48 1
5 15 -15 975.095 287.601 1
15 15 -5 1033.34 317.309 1
15 15 -6 14464.8 1074.52 1
6 15 -15 13442.2 1025.67 1
15 15 -7 687.918 245.345 1
15 7 -15 592.254 198.106 1
7 15 -15 796.194 270.847 1
8 15 -15 2503.32 443.675 1
15 15 -8 2359.34 436.793 1
15 8 -15 2441.93 396.965 1
9 15 -15 4413.92 602.715 1
15 15 -9 4125.69 572.401 1
15 9 -15 4286.6 559.756 1
10 15 -15 257.384 122.987 1
15 10 -15 605.689 231.121 1
15 15 -10 264.895 213.58 1
11 15 -15 707.632 244.518 1
15 15 -11 323.045 180.317 1
15 11 -15 323.733 199.424 1
12 15 -15 59.3783 107.636 1
15 15 -12 -153.851 208.801 1
15 12 -15 201.769 160.84 1
15 15 -13 72.9176 166.521 1
13 15 -15 -89.8313 146.792 1
15 13 -15 43.0056 169.989 1
15 15 -14 1239.49 351.836 1
15 14 -15 982.55 302.307 1
14 15 -15 1546.11 403.715 1
15 15 -15 586.797 280.549 1
0 16 0 14648 788.469 1
0 16 -1 18.6042 75.9375 1
1 16 0 106.05 124.728 1
0 16 1 172.648 125.398 1
-1 16 0 137.59 119.535 1
1 16 1 995.401 219.236 1
-1 16 -1 1305.01 245.237 1
1 16 -1 1365.25 261.49 1
-1 16 1 1009.04 286.406 1
-1 16 2 842.955 184.907 1
1 16 -2 743.237 182.085 1
2 16 1 797.27 185.81 1
-2 16 -1 707.185 179.433 1
0 16 -2 33.7695 77.4993 1
-2 16 0 -30.9254 75.2458 1
2 16 0 105.692 122.398 1
0 16 2 4.35599 81.6846 1
-2 16 1 770.739 183.073 1
-1 16 -2 762.039 198.047 1
1 16 2 563.371 144.87 1
2 16 -1 964.71 212.625 1
-2 16 2 25.2302 64.6799 1
-2 16 -2 239.705 164.822 1
2 16 2 22.7779 69.275 1
2 16 -2 -142.732 142.449 1
2 16 -3 4906.75 492.096 1
-2 16 3 4383.52 396.492 1
-3 16 -2 4409.86 434.406 1
3 16 2 4748.56 465.726 1
-3 16 -1 2070.35 286.788 1
-1 16 3 2142.86 291.296 1
1 16 -3 2091.08 319.064 1
3 16 1 1863.92 294.49 1
3 16 0 2083.82 306.357 1
0 16 -3 2075.42 318.568 1
-3 16 0 1754.98 269.955 1
0 16 3 1718.32 263.899 1
-3 16 1 1388.05 241.176 1
-1 16 -3 1850.94 305.974 1
3 16 -1 1455.46 270.36 1
1 16 3 1911.16 292.463 1
2 16 3 4729.88 462.578 1
-2 16 -3 4947.42 474.934 1
3 16 -2 4846.28 481.458 1
-3 16 2 4685.59 419.039 1
-3 16 3 4592.5 394.361 1
3 16 -3 5212.4 510.412 1
-3 16 -3 4423.67 450.041 1
3 16 3 4758.03 471.879 1
-4 16 -3 886.682 230.958 1
4 16 3 1054.42 236.751 1
3 16 -4 618.18 216.202 1
-3 16 4 658.511 154.465 1
-4 16 -2 3363.85 376.313 1
2 16 -4 3384.2 420.331 1
4 16 2 3411.29 394.96 1
-2 16 4 3073.44 318.244 1
-1 16 4 7896.71 539.805 1
-4 16 -1 7637.75 555.812 1
1 16 -4 7582.4 608.28 1
4 16 1 7407.96 602.91 1
-4 16 0 242.674 120.369 1
0 16 -4 264.493 158.109 1
0 16 4 235.588 129.377 1
4 16 0 22.6557 128.765 1
4 16 -1 8061.16 631.087 1
-4 16 1 7480.74 523.426 1
1 16 4 7680.87 563.346 1
-1 16 -4 8348.52 628.124 1
-4 16 2 2807.3 318.599 1
-2 16 -4 3132.01 400.14 1
4 16 -2 3353.15 418.86 1
2 16 4 2827.43 355.178 1
3 16 4 507.771 166.646 1
4 16 -3 608.402 166.82 1
-3 16 -4 613.63 179.557 1
-4 16 3 773.662 173.857 1
4 16 4 437.403 175.01 1
-4 16 -4 522.533 167.989 1
4 16 -4 602.529 172.748 1
-4 16 4 497.714 122.332 1
5 16 4 3868.48 449.505 1
4 16 -5 3314.47 437.108 1
-5 16 -4 3721.05 425.259 1
5 16 3 1090.88 227.68 1
-5 16 -3 1201.83 241.393 1
3 16 -5 1144.47 272.675 1
-3 16 5 900.784 177.321 1
5 16 2 1799.08 304.668 1
-2 16 5 1638.57 247.509 1
-5 16 -2 1838.81 278.88 1
2 16 -5 1696.31 303.808 1
5 16 1 4684.14 488.342 1
-1 16 5 4931.72 421.988 1
-5 16 -1 4838.13 441.142 1
1 16 -5 4669.68 494.303 1
0 16 -5 6693.78 575.371 1
-5 16 0 5991.08 479.123 1
0 16 5 6070.78 493.487 1
5 16 0 6557.73 577.274 1
-5 16 1 4591.71 410.759 1
-1 16 -5 4554.68 484.263 1
5 16 -1 4661.91 492.203 1
1 16 5 4625.69 431.927 1
2 16 5 1537.02 265.441 1
5 16 -2 1329.67 274.624 1
-5 16 2 1740.31 249.076 1
-2 16 -5 1277.41 250.539 1
3 16 5 1035.91 236.721 1
-5 16 3 1046.83 196.27 1
-3 16 -5 935.199 229.08 1
5 16 -3 1054.07 256.701 1
-4 16 -5 3475.59 415.633 1
5 16 -4 3802.7 461.43 1
4 16 5 3368.21 391.649 1
-5 16 -5 242.936 145.946 1
5 16 -5 291.651 116.691 1
5 5 -16 258.099 140.594 1
6 5 -16 8250.32 619.403 1
5 16 -6 7467.72 659.307 1
-6 16 -5 7562.9 613.416 1
4 16 -6 1514.56 313.641 1
6 16 4 1303.04 263.778 1
-6 16 -4 1023.91 225.983 1
6 4 -16 1466.4 269.503 1
-6 16 -3 3940.93 417.581 1
6 16 3 3747.35 441.247 1
3 16 -6 3854.85 464.513 1
6 3 -16 3606.08 386.046 1
2 16 -6 891.299 237.575 1
-6 16 -2 765.471 177.703 1
6 2 -16 672.983 169.584 1
6 16 2 881.26 252.478 1
6 16 1 4850.68 499.188 1
-6 16 -1 4273.75 425.117 1
6 1 -16 4237.78 395.688 1
1 16 -6 4698.42 489.885 1
-6 16 0 5419.15 449.963 1
6 0 -16 5602.67 440.368 1
6 16 0 5763.08 556.088 1
0 16 -6 6205.32 568.755 1
-1 16 -6 4376.07 468.592 1
6 -1 -16 4647.62 379.819 1
6 16 -1 4747.26 502.675 1
-6 16 1 4570.58 399.555 1
-2 16 -6 1136.18 259.125 1
-6 16 2 961.544 187.797 1
6 16 -2 1372.92 297.26 1
6 16 -3 3271.57 421.866 1
-3 16 -6 3162.23 417.622 1
-4 16 -6 1325.08 262.868 1
6 16 -4 1412.4 306.585 1
6 16 -5 8441.55 697.306 1
5 6 -16 7964.1 638.642 1
-5 16 -6 7967.78 641.719 1
6 16 -6 3685.16 462.973 1
6 6 -16 3869.22 444.975 1
7 6 -16 4472.73 483.67 1
6 16 -7 4564.1 522.099 1
5 16 -7 428.625 156.498 1
7 5 -16 530.574 169.547 1
7 4 -16 1249.96 282.915 1
4 16 -7 1246.83 275.298 1
-7 16 -4 1195.51 216.178 1
7 16 4 1108.6 246.953 1
3 16 -7 3536.29 452.013 1
7 16 3 3318.06 444.919 1
7 3 -16 3372.55 379.781 1
-7 16 -3 3343.18 379.13 1
-7 16 -2 24.6241 61.5682 1
2 16 -7 51.1522 83.1949 1
7 16 2 106.085 115.356 1
7 2 -16 96.2704 101.598 1
7 16 1 4520.77 503.433 1
-7 16 -1 4460.63 426.189 1
7 1 -16 4242.75 391.188 1
1 16 -7 4549.34 511.855 1
-7 16 0 85.4937 58.6801 1
7 16 0 18.445 96.021 1
0 16 -7 67.9334 103.17 1
7 0 -16 172.948 103.272 1
-7 16 1 3916.82 370.529 1
-1 16 -7 4051 486.287 1
7 16 -1 4833.19 520.52 1
7 16 -2 57.7265 99.2283 1
-7 16 2 291.551 121.392 1
-2 16 -7 164.433 90.0014 1
-3 16 -7 3155.59 404.38 1
7 16 -3 3341.24 423.761 1
7 16 -4 1193.3 294.411 1
-4 16 -7 1102.22 260.582 1
5 7 -16 545.734 183.09 1
7 16 -5 488.543 221.116 1
6 7 -16 4077.95 473.635 1
7 16 -6 4416.14 533.258 1
7 7 -16 269.214 160.124 1
16 7 -7 404.208 179.036 1
7 16 -7 533.122 224.958 1
16 8 -7 1795.98 329.098 1
7 16 -8 1528.31 344.98 1
8 7 -16 1605.41 288.41 1
16 8 -6 1331.43 297.627 1
6 16 -8 1565.75 310.691 1
8 6 -16 1261.12 246.722 1
5 16 -8 3381.36 472.997 1
8 5 -16 3368.01 412.279 1
8 4 -16 8541.57 620.187 1
4 16 -8 8600.29 713.535 1
8 3 -16 2959.52 352.979 1
3 16 -8 3022.04 416.708 1
8 16 3 2903.88 429.227 1
-8 16 -3 2678.81 349.934 1
-8 16 -2 1292.55 244.662 1
8 2 -16 1310.28 235.582 1
8 16 2 1275.82 283.668 1
2 16 -8 1302.72 279.944 1
-8 16 -1 4675.34 437.424 1
1 16 -8 4410.28 509.902 1
8 16 1 4580.87 523.082 1
8 1 -16 4807.48 408.745 1
-8 16 0 1380.87 237.725 1
8 16 0 1399.24 287.324 1
0 16 -8 1714.92 316.91 1
8 16 -1 3835.33 480.773 1
-1 16 -8 4051.97 493.703 1
-8 16 1 4117.67 368.734 1
-2 16 -8 1443.75 292.235 1
8 16 -2 1107.72 261.876 1
8 16 -3 2869.96 418.17 1
-3 16 -8 2845.3 391.295 1
8 16 -4 9666.57 765.244 1
-4 16 -8 8558.22 698.715 1
4 8 -16 8347.81 683.785 1
5 8 -16 3375.43 448.086 1
8 16 -5 3164.83 452.803 1
6 8 -16 1593.28 318.261 1
16 6 -8 1254.79 252.955 1
8 16 -6 1725.73 355.351 1
7 8 -16 1553.89 317.646 1
8 16 -7 1569.01 344.503 1
16 7 -8 1795.44 330.181 1
8 16 -8 745.624 215.765 1
16 8 -8 809.3 232.117 1
8 8 -16 845.023 233.367 1
9 8 -16 7088.93 643.045 1
16 9 -8 6412.32 630.637 1
8 16 -9 6466.25 661.317 1
7 16 -9 109.068 120.512 1
16 9 -7 44.546 96.3137 1
9 7 -16 229.276 143.009 1
9 6 -16 2446.36 360.862 1
6 16 -9 2399.14 396.259 1
16 9 -6 2166.83 369.876 1
9 5 -16 2914.29 371.344 1
16 9 -5 2711.02 412.954 1
5 16 -9 2651.68 402.699 1
4 16 -9 468.449 175.595 1
9 4 -16 491.475 147.44 1
9 16 3 3151.06 437.257 1
9 3 -16 3153.34 370.456 1
3 16 -9 3420.92 468.99 1
2 16 -9 671.772 192.294 1
9 16 2 542.534 193.902 1
-9 16 -2 862.926 205.427 1
9 2 -16 564.879 146.453 1
-9 16 -1 1493.51 244.732 1
9 1 -16 1280.79 216.553 1
1 16 -9 1334.2 279.109 1
9 16 1 1563.46 332.864 1
9 16 0 1616.8 329.367 1
0 16 -9 1698.13 292.204 1
-9 16 0 1362.94 235.639 1
-1 16 -9 1697.93 325.269 1
9 16 -1 1594.84 305.824 1
-2 16 -9 702.627 205.948 1
9 16 -2 680.583 198.747 1
-3 16 -9 3091.56 414.12 1
9 16 -3 3531.82 468.88 1
4 9 -16 478.3 177.624 1
9 16 -4 359.432 163.581 1
9 16 -5 2890.25 427.129 1
16 5 -9 2438.69 345.618 1
5 9 -16 2982.49 422.914 1
16 6 -9 2394.66 352.235 1
9 16 -6 2621.15 429.595 1
6 9 -16 2646.97 413.696 1
7 9 -16 80.3571 116.039 1
9 16 -7 205.243 152.836 1
16 7 -9 240.891 127.508 1
8 9 -16 6585.15 638.46 1
16 8 -9 6004.78 607.638 1
9 16 -8 6966.75 693.611 1
9 16 -9 674.447 238.149 1
16 9 -9 549.028 178.393 1
9 9 -16 600.785 231.967 1
10 9 -16 868.758 254.571 1
9 16 -10 721.15 257.662 1
16 10 -9 781.203 229.135 1
8 16 -10 2157.07 390.621 1
10 8 -16 2269.31 366.516 1
16 10 -8 2520.01 424.445 1
10 7 -16 5608.59 558.864 1
7 16 -10 6422.66 665.623 1
16 10 -7 5565 591.035 1
6 16 -10 5683.15 617.339 1
16 10 -6 5856.81 608.459 1
10 6 -16 5713.83 544.815 1
16 10 -5 3977.25 513.04 1
5 16 -10 4076.71 537.588 1
10 5 -16 3837.5 433.662 1
10 4 -16 124.712 108.334 1
4 16 -10 75.5268 160.234 1
10 3 -16 1006.73 234.48 1
3 16 -10 1071.96 282.177 1
10 2 -16 3849.18 379.703 1
10 16 2 3689.13 509.918 1
2 16 -10 4096.5 516.511 1
-10 16 -2 3874.38 419.176 1
-10 16 -1 4538.08 427.751 1
1 16 -10 4811.36 548.079 1
10 16 1 4773.57 566.492 1
0 16 -10 1990.73 360.855 1
10 16 0 1968.9 374.23 1
10 16 -1 4606.72 547.511 1
-1 16 -10 4837.84 543.842 1
-2 16 -10 3547.67 460.424 1
10 16 -2 4147.25 513.886 1
-3 16 -10 1069.61 255.483 1
10 16 -3 1122.34 260.694 1
3 10 -16 920.619 271.994 1
10 16 -4 182.442 148.901 1
4 10 -16 285.842 185.214 1
10 16 -5 3905.55 510.547 1
16 5 -10 4606.73 478.742 1
5 10 -16 4144.09 523.701 1
6 10 -16 5574 605.4 1
10 16 -6 5764.34 622.786 1
16 6 -10 5665.19 564.905 1
7 10 -16 4968.58 562.193 1
16 7 -10 5286 572.072 1
10 16 -7 5919.31 628.302 1
10 16 -8 2220.52 400.487 1
16 8 -10 2344.62 380.556 1
8 10 -16 2514.1 423.944 1
16 9 -10 756.504 240.6 1
9 10 -16 513.13 180.851 1
10 16 -9 677.927 246.785 1
16 10 -10 1208.46 293.638 1
10 10 -16 1255.6 291.32 1
10 16 -10 1211.98 298.341 1
16 11 -10 4242.25 546.476 1
11 10 -16 3962.2 517.347 1
10 16 -11 4350.38 585.442 1
11 9 -16 411.269 164.213 1
9 16 -11 428.115 233.118 1
16 11 -9 527.07 219.26 1
16 11 -8 1130.64 272.113 1
11 8 -16 1436.69 306.54 1
8 16 -11 1324.1 314.232 1
16 11 -7 4545.6 561.135 1
11 7 -16 4587.79 524.034 1
7 16 -11 4712.29 585.374 1
16 11 -6 1263.52 294.246 1
6 16 -11 1382.87 316.261 1
11 6 -16 1928.54 334.227 1
5 16 -11 1751.3 354.538 1
16 11 -5 1540.26 332.131 1
11 5 -16 1978.85 317.093 1
4 16 -11 780.083 212.176 1
11 4 -16 632.363 199.585 1
11 3 -16 1805.08 285.273 1
3 16 -11 1726.55 334.109 1
2 16 -11 4059.27 523.706 1
1 16 -11 3429.84 477.97 1
11 16 1 3624.25 493.792 1
11 16 0 1031.07 263.371 1
0 16 -11 860.137 263.407 1
-1 16 -11 3391.88 467.42 1
11 16 -1 3688.44 519.747 1
2 11 -16 4191.88 531.048 1
11 16 -2 4715.19 579.02 1
-2 16 -11 4707.34 556.931 1
3 11 -16 1523.87 331.122 1
11 16 -3 1704.86 341.638 1
16 4 -11 875.105 214.34 1
11 16 -4 784.984 246.817 1
4 11 -16 965.395 258.501 1
16 5 -11 1872.25 295.792 1
11 16 -5 1462.54 328.486 1
5 11 -16 2138.08 395.329 1
6 11 -16 1455.13 318.122 1
16 6 -11 1636.45 308.356 1
11 16 -6 1897.21 377.874 1
16 7 -11 4319.66 512.793 1
7 11 -16 4674 550.851 1
11 16 -7 4354.31 570.203 1
8 11 -16 1487.94 307.633 1
11 16 -8 1489.19 346.8 1
16 8 -11 1528.41 334.608 1
9 11 -16 605.942 225.318 1
11 16 -9 622.855 207.928 1
16 9 -11 500.879 188.242 1
10 11 -16 3776.39 500.605 1
11 16 -10 3822.71 549.694 1
16 10 -11 4344.58 549.809 1
11 16 -11 19.4751 138.319 1
11 11 -16 206.97 133.094 1
16 11 -11 11.6486 162.691 1
12 11 -16 243.391 138.202 1
16 12 -11 272.181 214.015 1
11 16 -12 513.558 190.297 1
10 16 -12 5723 679.552 1
16 12 -10 5716.57 650.099 1
12 10 -16 5304.84 621.572 1
9 16 -12 5639.64 673.106 1
12 9 -16 4641.03 562.927 1
16 12 -9 4714.86 609.03 1
16 12 -8 2869.36 460.744 1
8 16 -12 2806.95 457.035 1
12 8 -16 3015.15 438.628 1
7 16 -12 9516.64 831.036 1
12 7 -16 9483.54 746.433 1
16 12 -7 9820.87 843.661 1
6 16 -12 280.045 160.658 1
16 12 -6 323.941 160.815 1
12 6 -16 583.806 219.878 1
16 12 -5 983.549 273.63 1
5 16 -12 1354.6 320.942 1
12 5 -16 1093.21 248.788 1
12 4 -16 4850.02 476.899 1
16 12 -4 5292.13 622.771 1
4 16 -12 5001.28 590.776 1
3 16 -12 8236.31 740.687 1
2 16 -12 -55.3598 146.896 1
1 16 -12 4346.96 561.169 1
12 16 0 -61.6281 160.362 1
0 16 -12 408.455 177.842 1
12 16 -1 3913.36 542.249 1
-1 16 -12 4343.12 544.654 1
12 16 -2 150.884 163.025 1
-2 16 -12 19.1544 128.73 1
2 12 -16 250.15 200.9 1
12 16 -3 8381.3 785.31 1
3 12 -16 8257.63 752.802 1
16 4 -12 4824.01 489.654 1
4 12 -16 4824.5 586.132 1
12 16 -4 4664.62 583.061 1
12 16 -5 1118.84 310.362 1
5 12 -16 982.936 244.047 1
16 5 -12 1014.88 226.686 1
6 12 -16 326.215 169.711 1
12 16 -6 585.542 227.265 1
16 6 -12 245.723 158.745 1
16 7 -12 8925.33 742.432 1
7 12 -16 9421.56 823.326 1
12 16 -7 8449.09 790.735 1
16 8 -12 2383.8 377.894 1
12 16 -8 2562.56 460.314 1
8 12 -16 2873.88 482.297 1
16 9 -12 5555.49 616.73 1
9 12 -16 5133.17 609.382 1
12 16 -9 5202.03 650.442 1
10 12 -16 5403.88 638.442 1
12 16 -10 5532.91 663.133 1
16 10 -12 5542.45 633.682 1
12 16 -11 266.397 217.877 1
16 11 -12 168.99 151.37 1
11 12 -16 504.434 220.782 1
12 16 -12 677.75 233.721 1
16 12 -12 579.53 218.246 1
12 12 -16 545.214 195.005 1
13 12 -16 888.166 251.902 1
16 13 -12 1008.41 300.17 1
12 16 -13 769.553 259.389 1
11 16 -13 267.93 177 1
13 11 -16 179.14 164.855 1
16 13 -11 -85.5729 124.519 1
16 13 -10 697.061 229.668 1
10 16 -13 532.402 226.272 1
13 10 -16 784.63 250.52 1
13 9 -16 1235.86 298.747 1
9 16 -13 1175.29 311.122 1
16 13 -9 1390.23 332.393 1
16 13 -8 540.536 213.704 1
13 8 -16 343.796 162.621 1
8 16 -13 351.714 151.222 1
16 13 -7 -225.904 226.405 1
7 16 -13 97.526 141.221 1
13 7 -16 61.4688 116.118 1
16 13 -6 782.451 259.488 1
13 6 -16 1096.11 250.509 1
6 16 -13 789.706 275.09 1
5 16 -13 6731.13 704.399 1
13 5 -16 6227.88 564.335 1
16 13 -5 7017.47 727.099 1
4 16 -13 1159.68 287.866 1
16 13 -4 1199.45 310.323 1
3 16 -13 847.02 253.387 1
2 16 -13 2366.08 434.135 1
1 16 -13 887.459 266.787 1
0 16 -13 1576.65 351.085 1
13 16 0 1558.28 351.072 1
-1 16 -13 937.046 293.788 1
13 16 -1 800.141 245.529 1
1 13 -16 674.011 258.503 1
2 13 -16 2169.46 421.916 1
-2 16 -13 2221.46 410.136 1
13 16 -2 1872.78 360.488 1
13 16 -3 1280.99 327.365 1
3 13 -16 1182.73 286.547 1
13 16 -4 1212.02 352.502 1
4 13 -16 1002.31 302.946 1
16 5 -13 6102.75 570.696 1
5 13 -16 6850.07 704.343 1
13 16 -5 6561.5 703.334 1
6 13 -16 862.091 271.674 1
16 6 -13 693.137 209.022 1
13 16 -6 804.212 291.43 1
13 16 -7 -124.214 172.951 1
7 13 -16 -50.966 131.149 1
16 7 -13 155.753 107.168 1
8 13 -16 684.815 254.298 1
13 16 -8 229.313 147.617 1
16 8 -13 840.588 243.556 1
9 13 -16 1434.85 365.212 1
13 16 -9 1273.25 311.289 1
16 9 -13 1290.89 296.726 1
10 13 -16 689.976 231.988 1
16 10 -13 744.325 259.922 1
13 16 -10 669.059 268.629 1
13 16 -11 135.039 119.539 1
16 11 -13 84.871 88.7786 1
11 13 -16 -99.4536 120.349 1
12 13 -16 935.021 291.919 1
16 12 -13 758.928 236.151 1
13 16 -12 596.904 232.166 1
13 13 -16 366.941 203.898 1
13 16 -13 367.856 204.757 1
16 13 -13 527.064 235.835 1
14 13 -16 462.799 216.811 1
16 14 -13 473.737 152.395 1
13 16 -14 606.685 260.796 1
14 12 -16 1222.82 326.841 1
12 16 -14 1425.24 368.387 1
16 14 -12 1570.04 381.676 1
11 16 -14 671.259 275.661 1
14 11 -16 775.995 289.797 1
-14 11 16 311.885 125.005 2
16 14 -11 562.195 217.436 1
14 10 -16 348.14 146.173 1
10 16 -14 422.951 224.666 1
16 14 -10 476.321 212.074 1
-14 10 16 400.009 109.477 2
16 14 -9 2067.82 407.198 1
9 16 -14 2308.59 461.869 1
14 9 -16 2346.58 413.734 1
8 16 -14 881.286 261.939 1
16 14 -8 881.697 273.591 1
14 8 -16 641.347 195.916 1
16 14 -7 1207.02 326.685 1
7 16 -14 804.492 247.087 1
14 7 -16 630.447 203.39 1
6 16 -14 3600.76 537.328 1
16 14 -6 3811.56 549.509 1
16 14 -5 16437.4 1129.14 1
5 16 -14 16267.8 1113.63 1
4 16 -14 55.9407 104.462 1
16 14 -4 145.029 116.494 1
3 16 -14 131.536 101.563 1
2 16 -14 1123.01 308.566 1
1 16 -14 4466.64 586.174 1
0 14 -16 284.503 175.654 1
0 16 -14 -175.151 194.178 1
1 14 -16 4315.21 579.201 1
-1 16 -14 4576.93 593.264 1
14 16 -1 4434.46 581.179 1
-2 16 -14 1203.72 331.327 1
2 14 -16 1323.05 324.346 1
14 16 -2 1188.88 314.305 1
3 14 -16 226.199 144.995 1
14 16 -3 489.119 201.671 1
4 14 -16 131.538 139.58 1
14 16 -4 -78.8332 216.451 1
5 14 -16 16931.9 1130.51 1
14 16 -5 17218.5 1175.08 1
16 6 -14 3625.47 468.263 1
6 14 -16 3797.91 539.049 1
14 16 -6 3932.42 552.455 1
7 14 -16 1143.71 339.093 1
14 16 -7 1358.27 355.295 1
16 7 -14 980.04 258.474 1
16 8 -14 660.334 231.947 1
14 16 -8 846.83 280.986 1
8 14 -16 1030.69 318.968 1
14 16 -9 2471.67 458.371 1
9 14 -16 2489.97 450.55 1
16 9 -14 2402.3 413.444 1
14 16 -10 718.261 276.565 1
10 14 -16 404.197 208.915 1
16 10 -14 615.145 188.654 1
16 11 -14 507.038 183.157 1
14 16 -11 272.621 159.121 1
11 14 -16 769.826 256.504 1
14 16 -12 1725.12 395.958 1
12 14 -16 1590.46 360.373 1
16 12 -14 1775.59 392.239 1
14 16 -13 465.147 183.296 1
16 13 -14 510.512 268.252 1
13 14 -16 583.546 254.724 1
14 16 -14 512.395 281.416 1
14 14 -16 241.416 153.559 1
16 14 -14 216.419 168.203 1
16 15 -14 163.787 150.596 1
15 14 -16 -85.5531 157.985 1
14 16 -15 273.806 182.939 1
13 16 -15 410.698 204.185 1
16 15 -13 400.28 246.401 1
15 13 -16 527.326 264.302 1
12 16 -15 1692.05 405.211 1
16 15 -12 1768.73 409.896 1
15 12 -16 2009.42 423.201 1
-15 12 16 2121.5 308.618 2
15 11 -16 29.7263 81.4943 1
-15 11 16 124.559 76.9979 2
16 15 -11 -25.067 104.414 1
10 16 -15 23.5563 139.615 1
-15 10 16 136.77 85.5498 2
16 15 -10 202.633 157.177 1
15 10 -16 242.859 188.693 1
9 16 -15 100.531 166.04 1
-15 9 16 -20.542 57.7919 2
16 15 -9 57.1027 110.114 1
15 9 -16 196.473 129.529 1
8 16 -15 799.752 287.715 1
16 15 -8 847.641 301.523 1
15 8 -16 542.684 154.852 1
7 16 -15 4655.64 611.449 1
16 15 -7 4015.36 583.38 1
6 16 -15 2029.59 424.404 1
16 15 -6 1870.83 402.057 1
5 16 -15 -154.568 194.763 1
16 15 -5 204.23 193.842 1
16 15 -4 3166.7 515.673 1
4 16 -15 3821.35 550.352 1
3 16 -15 2846.03 474.213 1
2 16 -15 957.779 329.303 1
1 16 -15 391.075 192.203 1
-1 15 -16 255.378 214.495 1
0 15 -16 4122.18 570.185 1
0 16 -15 3888.51 566.661 1
-1 16 -15 182.309 109.128 1
1 15 -16 329.968 198.741 1
2 15 -16 644.9 241.495 1
-2 16 -15 616.036 272.716 1
3 15 -16 2874.74 469.851 1
15 16 -3 2743.83 440.857 1
15 16 -4 3483.26 551.363 1
4 15 -16 3557.42 540.988 1
5 15 -16 215.092 179.282 1
15 16 -5 -91.6297 92.2184 1
6 15 -16 1435.67 338.972 1
15 16 -6 1974.6 417.637 1
7 15 -16 4760.86 632.997 1
15 16 -7 4579.51 629.956 1
8 15 -16 786.182 275.285 1
15 16 -8 752.877 246.712 1
16 8 -15 731.794 222.406 1
9 15 -16 267.546 195.885 1
-16 9 15 138.39 114.688 2
15 16 -9 221.089 142.913 1
16 9 -15 2.88644 97.9608 1
15 16 -10 6.10106 92.0912 1
16 10 -15 249.693 157.426 1
10 15 -16 -27.8456 92.2298 1
-16 10 15 109.309 101.459 2
-16 11 15 253.372 134.969 2
15 16 -11 423.5 223.624 1
11 15 -16 169.771 82.809 1
16 11 -15 274.455 117.592 1
12 15 -16 1779.85 413.229 1
16 12 -15 1596.96 363.748 1
15 16 -12 1896.63 458.599 1
15 16 -13 583.698 224.648 1
13 15 -16 561.602 228.715 1
16 13 -15 490.403 191.54 1
14 15 -16 98.7165 141.236 1
16 14 -15 212.758 215.612 1
15 16 -14 173.571 156.031 1
15 16 -15 302.586 157.898 1
16 15 -15 685.674 275.307 1
15 15 -16 474.16 211.482 1
0 16 -16 1776.1 438.053 1
-1 16 -16 11.51 136.141 1
1 16 -16 -77.652 117.655 1
-2 16 -16 725.024 272.346 1
2 16 -16 767.309 284.822 1
3 16 -16 6861.37 761.774 1
4 16 -16 2407.21 461.166 1
16 16 -4 2569.05 472.698 1
16 16 -5 664.82 263.548 1
5 16 -16 285.787 196.835 1
16 16 -6 289.833 184.877 1
6 16 -16 347.725 182.733 1
7 16 -16 3434.78 543.196 1
16 16 -7 3640.89 585.573 1
16 16 -8 1757.76 406.999 1
-16 8 16 1520.98 238.552 2
8 16 -16 2007.34 424.196 1
16 9 -16 85.4679 88.5959 1
9 16 -16 59.2624 129.703 1
-16 9 16 135.501 69.6545 2
16 16 -9 399.414 206.837 1
-16 10 16 524.149 154.764 2
16 16 -10 758.601 269.124 1
16 10 -16 587.588 225.144 1
10 16 -16 684.194 263.433 1
16 11 -16 108.126 76.7839 1
16 16 -11 233.93 176.262 1
-16 11 16 204.074 87.3168 2
11 16 -16 167.499 134.495 1
16 12 -16 427.65 264.566 1
12 16 -16 381.605 213.195 1
16 16 -12 237.357 170.852 1
-16 12 16 95.6142 111.157 2
16 13 -16 -68.218 155.89 1
-16 13 16 -122.62 109.933 2
13 16 -16 -96.7516 118.038 1
16 16 -13 -186.188 169.917 1
16 14 -16 1577.08 379.165 1
16 16 -14 1660.2 422.903 1
14 16 -16 1504.95 396.751 1
16 16 -15 1304.11 351.988 1
16 15 -16 1115.03 316.661 1
15 16 -16 1324.95 372.671 1
16 16 -16 2926.59 528.136 1
0 17 0 118.713 90.761 1
0 17 1 714.643 165.805 1
0 17 -1 692.83 194.796 1
-1 17 0 661.647 183.062 1
1 17 0 649.765 207.959 1
-1 17 1 219.721 116.162 1
1 17 1 186.48 78.0704 1
1 17 -1 314.786 137.6 1
-1 17 -1 366.397 174.126 1
2 17 1 1685.58 308.735 1
-2 17 -1 1617.79 277.916 1
-1 17 2 1544.74 264.577 1
1 17 -2 1861.71 304.888 1
2 17 0 2090.7 332.7 1
0 17 -2 2379.7 336.584 1
-2 17 0 2216.99 320.269 1
0 17 2 2312.08 322.393 1
-2 17 1 1395.56 254.911 1
2 17 -1 1565.55 288.833 1
1 17 2 1410.28 249.931 1
-1 17 -2 1788.52 297.745 1
-2 17 -2 7319.85 582.172 1
-2 17 2 7084.33 534.599 1
2 17 2 7073.26 585.364 1
2 17 -2 7823.4 617.299 1
-3 17 -2 182.212 111.96 1
-2 17 3 136.137 66.8713 1
2 17 -3 108.371 138.067 1
3 17 2 199.369 107.532 1
1 17 -3 337.935 83.6048 1
-3 17 -1 388.776 151.984 1
3 17 1 508.058 192.308 1
-1 17 3 639.985 182.507 1
0 17 3 2865.97 356.874 1
3 17 0 2465.61 361.692 1
0 17 -3 2715.74 373.909 1
-3 17 0 2760.15 346.169 1
3 17 -1 717.568 225.046 1
1 17 3 640.021 174.329 1
-3 17 1 561.644 161.625 1
-1 17 -3 532.787 165.233 1
-3 17 2 394.448 130.011 1
-2 17 -3 163.131 135.414 1
2 17 3 300.49 149.985 1
3 17 -2 467.032 186.961 1
-3 17 -3 2202.21 334.978 1
3 17 3 2280.47 334.097 1
3 17 -3 2335.2 370.945 1
-3 17 3 2041.55 280.987 1
4 17 3 3683.35 438.752 1
-3 17 4 2986.68 331.395 1
3 17 -4 3824.45 467.282 1
-4 17 -3 3138.57 396.024 1
-4 17 -2 3818.82 419.822 1
4 17 2 4261.96 473.481 1
2 17 -4 3962.66 468.036 1
-2 17 4 3650.7 374.173 1
-1 17 4 1757.19 269.27 1
-4 17 -1 1912.66 293.42 1
1 17 -4 1778.56 302.467 1
4 17 1 1780.88 302.87 1
-4 17 0 876.771 193.679 1
0 17 -4 999.504 262.677 1
4 17 0 626.321 188.634 1
0 17 4 691.764 187.876 1
-1 17 -4 1947.42 329.378 1
4 17 -1 1828.09 324.379 1
-4 17 1 1537.62 252.579 1
1 17 4 1837.67 280.873 1
4 17 -2 4173.05 479.868 1
-2 17 -4 3911.09 442.695 1
2 17 4 4118.19 441.698 1
-4 17 2 4026.11 390.282 1
3 17 4 2937.27 389.703 1
4 17 -3 3278.01 428.45 1
-3 17 -4 3282.39 399.96 1
-4 17 3 2980.32 319.919 1
-4 17 -4 1331.7 269.223 1
-4 17 4 1427.95 222.186 1
4 17 4 1339.42 269.93 1
4 17 -4 1536.17 292.203 1
-5 17 -4 3988.63 441.654 1
5 4 -17 3844.8 424.951 1
4 17 -5 4162.18 490.976 1
5 17 4 4294.4 490.983 1
5 17 3 2582.92 379.487 1
-5 17 -3 2950.09 372.495 1
3 17 -5 3003.25 408.05 1
-5 17 -2 2724.85 366.214 1
5 17 2 3009.94 417.737 1
2 17 -5 3009.17 420.327 1
-2 17 5 3127.14 340.223 1
5 17 1 361.211 145.644 1
-5 17 -1 410.766 148.047 1
-1 17 5 269.81 120.472 1
1 17 -5 172.485 87.8791 1
-5 17 0 1009.7 205.135 1
5 17 0 1229.71 267.951 1
0 17 5 1401.61 239.555 1
0 17 -5 1220.03 269.769 1
-1 17 -5 456.339 167.022 1
-5 17 1 354.419 131.72 1
1 17 5 436.286 150.415 1
5 17 -1 468.749 198.499 1
-2 17 -5 2425.58 361.283 1
2 17 5 2774.12 363.247 1
5 17 -2 2463.74 382.408 1
-5 17 2 2379.85 293.159 1
3 17 5 2334.33 376.038 1
5 17 -3 2721.31 399.116 1
-5 17 3 2350.11 283.185 1
-3 17 -5 2735.51 379.225 1
4 17 5 3752.24 439.999 1
5 17 -4 4211.53 496.627 1
-4 17 -5 4037.34 467.834 1
5 17 -5 31.0632 128.498 1
5 5 -17 149.05 78.182 1
-5 17 -5 168.014 138.513 1
5 17 -6 502.673 224.487 1
-6 17 -5 145.073 108.991 1
6 5 -17 271.212 129.501 1
6 4 -17 3905.53 432.163 1
6 17 4 3435.29 464.764 1
4 17 -6 3825.4 473.695 1
-6 17 -4 3763.34 443.974 1
3 17 -6 1077.18 217.815 1
6 17 3 1206.45 255.76 1
6 3 -17 947.452 197.238 1
-6 17 -3 1015.37 228.904 1
6 2 -17 2660.57 334.627 1
2 17 -6 2431.49 378.648 1
-6 17 -2 2411.45 334.615 1
6 17 2 2691.85 406.713 1
-6 17 -1 549.322 161.513 1
6 1 -17 676.322 167.903 1
1 17 -6 979.398 224.354 1
6 17 1 1013.99 244.238 1
6 17 0 8644.33 710.914 1
-6 17 0 8757.6 595.327 1
6 0 -17 9261.22 576.527 1
0 17 -6 8742.52 701.486 1
-1 17 -6 392.038 121.35 1
-6 17 1 646.684 151.463 1
6 17 -1 821.054 212.085 1
-6 17 2 2170.18 283.388 1
-2 17 -6 1978.58 334.823 1
6 17 -2 2462.91 380.446 1
6 17 -3 509.647 187.651 1
-3 17 -6 895.925 248.471 1
6 17 -4 3942.14 492.793 1
-4 17 -6 4087.57 472.06 1
5 6 -17 117.935 87.45 1
-5 17 -6 357.18 190.348 1
6 17 -5 146.006 137.262 1
6 17 -6 162.809 86.6776 1
-6 17 -6 -12.5941 89.8221 1
6 6 -17 178.839 91.9031 1
6 17 -7 6758.04 657.075 1
7 6 -17 6524.96 589.773 1
-7 17 -6 6513.46 599.936 1
5 17 -7 5342.8 574.355 1
-7 17 -5 4904.42 521.121 1
7 5 -17 5067.24 514.874 1
7 4 -17 1414.39 258.969 1
-7 17 -4 1321.35 259.325 1
4 17 -7 1458.79 296.524 1
7 17 3 1611.12 300.914 1
3 17 -7 1640.82 328.214 1
-7 17 -3 1773.69 302.086 1
7 3 -17 1780.5 289.669 1
7 17 2 1959.24 346.481 1
2 17 -7 2144.4 361.306 1
7 2 -17 2302.65 311.621 1
-7 17 -2 2248.62 323.886 1
-7 17 -1 1693.37 271.168 1
1 17 -7 2023.38 331.117 1
7 17 1 2018.38 346.095 1
7 1 -17 1862.44 268.986 1
0 17 -7 6827.26 634.317 1
7 17 0 6417.41 622.117 1
-7 17 0 6274.6 499.069 1
-1 17 -7 1774.15 315.793 1
-7 17 1 1504.85 221.217 1
7 17 -1 1492.21 318.87 1
7 17 -2 1955.3 337.842 1
-2 17 -7 2402.66 382.923 1
-3 17 -7 1801.06 309.025 1
7 17 -3 1898.05 357.829 1
7 17 -4 1674.89 330.023 1
4 7 -17 1568.75 306.18 1
-4 17 -7 1527.48 293.849 1
-5 17 -7 5032.77 539.742 1
7 17 -5 5428.54 589.208 1
5 7 -17 5018.27 525.705 1
6 7 -17 6286.26 601.424 1
-6 17 -7 6272.33 613.214 1
7 17 -6 6237.9 649.464 1
7 17 -7 622.894 180.651 1
7 7 -17 808.65 221.969 1
7 17 -8 1319.84 309.429 1
8 7 -17 1255.54 272.66 1
6 17 -8 152.936 149.098 1
8 6 -17 -7.57368 97.2094 1
-8 17 -5 2974.32 401.109 1
5 17 -8 3239.04 458.925 1
8 5 -17 2725.4 381.8 1
8 4 -17 1384.79 275.293 1
-8 17 -4 1704.63 301.617 1
4 17 -8 1525.35 318.505 1
8 3 -17 625.849 178.989 1
-8 17 -3 703.959 200.333 1
3 17 -8 555.721 195.335 1
8 17 3 601.009 178.019 1
8 17 2 5678.87 604.059 1
-8 17 -2 5110.31 491.28 1
8 2 -17 5423.88 473.349 1
2 17 -8 5764.81 588.727 1
8 17 1 245.836 173.257 1
1 17 -8 6.56087 135.326 1
8 1 -17 204.765 77.9825 1
-8 17 -1 261.74 103.284 1
-8 17 0 193.049 102.661 1
8 17 0 146.681 144.92 1
0 17 -8 382.215 156.816 1
-1 17 -8 -171.721 159.379 1
8 17 -1 272.334 102.084 1
-2 17 -8 5570.89 582.164 1
8 17 -2 5139.27 570.761 1
8 17 -3 863.18 264.94 1
-3 17 -8 1116.23 282.114 1
8 17 -4 1646.27 331.717 1
4 8 -17 1319.08 268.114 1
-4 17 -8 1342.16 307.114 1
5 8 -17 2833.33 432.439 1
8 17 -5 2991.87 434.973 1
-5 17 -8 2643.63 407.222 1
8 17 -6 66.2701 128.696 1
6 8 -17 -91.6859 166.69 1
8 17 -7 1040.87 290.846 1
7 8 -17 1077.98 296.795 1
8 17 -8 780.921 250.411 1
8 8 -17 527.554 188.757 1
17 8 -8 703.535 222.599 1
17 9 -8 4287.01 539.389 1
8 17 -9 4495.88 571.658 1
9 8 -17 4542.67 532.863 1
9 7 -17 2367.11 387.841 1
7 17 -9 2222.42 416.42 1
17 9 -7 2042.6 372.421 1
9 6 -17 1217.54 261.132 1
6 17 -9 1646.4 350.341 1
9 5 -17 3177.46 409.152 1
5 17 -9 3098.88 463.201 1
9 4 -17 2527.99 356.798 1
-9 17 -4 2117.33 335.22 1
4 17 -9 2579.8 419.196 1
9 3 -17 4520.36 445.679 1
-9 17 -3 4716.2 482.746 1
3 17 -9 4502.45 535.701 1
9 2 -17 8448.8 593.809 1
9 17 2 9015.57 763.063 1
2 17 -9 8694.4 747.685 1
-9 17 -2 8372.78 628.536 1
1 17 -9 1862.39 358.176 1
9 17 1 1538.25 329.668 1
-9 17 -1 1714.78 267.31 1
0 17 -9 343.296 198.437 1
9 17 0 53.5059 132.064 1
9 17 -1 1824.09 348.749 1
-1 17 -9 1976.96 364.52 1
9 17 -2 8853.68 755.114 1
-2 17 -9 9565.65 793.094 1
-3 17 -9 4281.69 524.168 1
9 17 -3 4830.91 579.454 1
9 17 -4 2276.24 408.643 1
4 9 -17 1943.91 332.68 1
-4 17 -9 2268.66 382.517 1
5 9 -17 3228.3 456.037 1
-5 17 -9 2890.9 433.946 1
9 17 -5 3338.59 484.568 1
9 17 -6 1037.84 270.203 1
6 9 -17 1141.41 282.902 1
17 7 -9 2330.85 369.535 1
7 9 -17 2423.56 406.07 1
9 17 -7 2413.51 433.533 1
9 17 -8 4587.82 579.582 1
17 8 -9 4270.15 514.642 1
8 9 -17 3833.2 484.933 1
9 17 -9 1070.3 271.044 1
17 9 -9 1138.21 292.276 1
9 9 -17 1076.09 294.094 1
17 10 -9 2610.19 435.977 1
10 9 -17 2696.78 415.845 1
9 17 -10 2360.31 439.708 1
10 8 -17 1872.68 348.68 1
17 10 -8 1751.39 357.541 1
8 17 -10 1425.08 338.861 1
10 7 -17 2665.3 414.56 1
17 10 -7 2851.16 451.667 1
7 17 -10 2542.97 431.517 1
10 6 -17 3057.34 417.875 1
6 17 -10 3124.83 481.342 1
10 5 -17 3708.01 443.539 1
5 17 -10 3734.15 511.722 1
10 4 -17 1210.78 249.614 1
4 17 -10 1273.92 297.073 1
-10 17 -3 -15.6855 90.2332 1
3 17 -10 251.869 201.266 1
10 3 -17 38.2609 70.1659 1
2 17 -10 1558.62 330.402 1
-10 17 -2 1591.38 272.351 1
10 17 2 1741.63 343.494 1
10 17 1 2816.96 425.356 1
1 17 -10 2127.17 384.811 1
0 17 -10 5279.41 598.623 1
10 17 0 5334.43 594.158 1
-1 17 -10 2638.3 422.4 1
10 17 -1 2704.14 421.645 1
10 17 -2 1728.3 345.046 1
-2 17 -10 1612.73 334.14 1
-3 17 -10 133.551 162.233 1
10 17 -3 298.876 142.081 1
3 10 -17 155.436 96.1185 1
4 10 -17 1162.94 289.014 1
-4 17 -10 1300.13 295.673 1
10 17 -4 1454.05 340.424 1
5 10 -17 3791.63 506.15 1
10 17 -5 4004.63 546.401 1
6 10 -17 3428.89 479.815 1
10 17 -6 3333.74 494.824 1
7 10 -17 3101.62 458.463 1
10 17 -7 3465.53 515.266 1
17 7 -10 2524.83 390.852 1
10 17 -8 1972.87 373.772 1
8 10 -17 1687.83 349.118 1
17 8 -10 1475.79 311.212 1
9 10 -17 2679.03 438.298 1
17 9 -10 2630.16 442.867 1
10 17 -9 2624.29 449.362 1
10 10 -17 -98.113 104.433 1
17 10 -10 -222.492 151.98 1
10 17 -10 165.436 157.042 1
17 11 -10 3677.16 525.957 1
11 10 -17 3108.43 457.79 1
10 17 -11 3359.21 523.841 1
9 17 -11 1347.01 370.043 1
17 11 -9 838.469 245.67 1
11 9 -17 894.077 241.883 1
11 8 -17 4545.02 541.229 1
8 17 -11 4642.04 595.888 1
17 11 -8 4915.23 607.545 1
11 7 -17 2969.31 429.39 1
7 17 -11 2905.27 484.081 1
17 11 -7 2791.59 451.071 1
11 6 -17 3341.13 440.19 1
17 11 -6 2849.42 476.263 1
6 17 -11 3470.04 512.997 1
11 5 -17 3904.41 464.977 1
5 17 -11 4522.3 568.641 1
11 4 -17 4025.23 449.464 1
4 17 -11 4082.78 544.484 1
3 17 -11 2394.53 415.971 1
-11 17 -3 2034.32 335.735 1
2 17 -11 996.969 279.53 1
1 17 -11 1058.46 310.145 1
11 17 1 1060.48 307.33 1
11 17 0 11195.5 877.583 1
0 17 -11 11064.4 881.875 1
-1 17 -11 1034.2 304.828 1
11 17 -1 860.889 289.313 1
-2 17 -11 1297.1 313.888 1
2 11 -17 937.55 276.883 1
11 17 -2 981.228 300.322 1
-3 17 -11 2040.23 396.767 1
11 17 -3 2444.15 412.926 1
3 11 -17 2114.09 385.451 1
11 17 -4 3848.61 547.879 1
-4 17 -11 4150.31 542.628 1
4 11 -17 3717.83 522.269 1
11 17 -5 4194.44 551.959 1
5 11 -17 4103.64 533.59 1
6 11 -17 3003.73 483.01 1
17 6 -11 2692.65 397.57 1
11 17 -6 3583.19 525.856 1
11 17 -7 3322.16 500.877 1
7 11 -17 3268.96 475.369 1
17 7 -11 2816.59 411.778 1
17 8 -11 3976.05 507.041 1
8 11 -17 4062.53 536.155 1
11 17 -8 4562.44 585.796 1
17 9 -11 1087.13 282.775 1
11 17 -9 1195.57 319.654 1
9 11 -17 1008.86 276.847 1
11 17 -10 3532.61 531.622 1
10 11 -17 3707.18 524.61 1
17 10 -11 3536.06 516.528 1
11 17 -11 3525.64 549.675 1
11 11 -17 3750.34 539.748 1
17 11 -11 3643.89 527.91 1
11 17 -12 1183.16 324.161 1
17 12 -11 1169.6 301.104 1
-12 11 17 986.426 204.249 2
12 11 -17 1127.32 290.425 1
10 17 -12 525.522 242.767 1
17 12 -10 1005.92 288.408 1
-12 10 17 595.059 149.593 2
12 10 -17 979.887 287.207 1
17 12 -9 1005.18 297.068 1
9 17 -12 844.163 272.333 1
12 9 -17 983.998 264.736 1
8 17 -12 2854.02 481.889 1
12 8 -17 2934.94 440.167 1
17 12 -8 3037.27 503.123 1
7 17 -12 2324.31 444.302 1
12 7 -17 2438.52 386.996 1
17 12 -7 2176.01 408.576 1
17 12 -6 1591.52 347.505 1
6 17 -12 1911.81 375.511 1
12 6 -17 1428.68 297.355 1
12 5 -17 207.956 104.69 1
5 17 -12 114.646 160.01 1
4 17 -12 6325.68 682.699 1
3 17 -12 1702.64 342.961 1
2 17 -12 904.921 252.375 1
1 17 -12 2666.46 452.393 1
0 17 -12 262.481 104.71 1
12 17 0 -48.3546 133.881 1
12 17 -1 2928.54 462.691 1
-1 17 -12 2503.68 444.118 1
-2 17 -12 1055.26 295.969 1
2 12 -17 1392.58 325.628 1
12 17 -2 1025.68 296.841 1
-3 17 -12 2124.67 397.336 1
3 12 -17 1713.43 362.773 1
12 17 -3 2266.69 434.272 1
4 12 -17 5284.9 625.945 1
-4 17 -12 5846.93 657.931 1
12 17 -4 5626.64 656.724 1
5 12 -17 83.5562 131.555 1
12 17 -5 222.082 175.84 1
6 12 -17 1345.1 272.078 1
17 6 -12 1367.21 299.482 1
12 17 -6 1418.43 378.211 1
12 17 -7 2170.95 400.307 1
7 12 -17 2129.67 405.257 1
17 7 -12 2282.68 376.38 1
8 12 -17 2412.24 420.366 1
17 8 -12 3028.3 445.503 1
12 17 -8 2952.63 479.397 1
12 17 -9 1009.88 236.073 1
17 9 -12 1223.01 317.101 1
9 12 -17 1225.7 305.528 1
17 10 -12 763.718 244.008 1
12 17 -10 932.564 303.494 1
10 12 -17 601.694 253.205 1
17 11 -12 1239.24 335.37 1
11 12 -17 1228.78 304.328 1
12 17 -11 1000.45 308.6 1
-12 -12 17 2.07674 76.2137 2
12 17 -12 226.043 234.134 1
17 12 -12 102.014 124.659 1
12 12 -17 51.9841 133.623 1
17 13 -12 498.715 236.696 1
13 12 -17 694.577 254.734 1
-12 -13 17 329.824 116.585 2
-13 12 17 454.675 156.719 2
12 17 -13 334.526 111.589 1
11 17 -13 291.086 221.796 1
13 11 -17 576.219 207.181 1
17 13 -11 576.015 208.965 1
-11 -13 17 399.571 160.411 2
-13 11 17 678.948 182.037 2
-10 -13 17 1114.41 217.743 2
13 10 -17 1199.34 316.018 1
-13 10 17 1124.93 235.53 2
10 17 -13 1537.52 400.899 1
17 13 -10 767.764 265.967 1
-13 9 17 1880.8 269.328 2
13 9 -17 2196.45 411.071 1
17 13 -9 2319.63 448.049 1
9 17 -13 2285.36 453.606 1
13 8 -17 2682.22 416.779 1
8 17 -13 2825.16 478.909 1
17 13 -8 2785.32 482.944 1
17 13 -7 1190.97 310.38 1
13 7 -17 652.285 170.537 1
7 17 -13 945.29 308.172 1
6 17 -13 7204.56 761.779 1
17 13 -6 6924.55 743.907 1
5 17 -13 1539.09 339.322 1
4 17 -13 4380.52 589 1
3 17 -13 1724.2 392.776 1
2 17 -13 5666.51 661.137 1
1 17 -13 433.435 214.034 1
0 17 -13 2726.55 462.314 1
13 17 -1 70.0863 118.336 1
1 13 -17 323.696 152.784 1
-1 17 -13 498.648 214.636 1
-2 17 -13 5521.29 638.996 1
13 17 -2 5997.74 683.459 1
2 13 -17 5468.53 644.609 1
13 17 -3 1458.86 348.342 1
-3 17 -13 1435.95 335.578 1
3 13 -17 1536.38 355.7 1
13 17 -4 4842.84 634.94 1
4 13 -17 4453.83 579.689 1
13 17 -5 2267.34 420.712 1
5 13 -17 2120.26 417.813 1
6 13 -17 7147.06 749.426 1
13 17 -6 6941.12 750.527 1
17 6 -13 7522.05 661.442 1
13 17 -7 766.413 217.85 1
7 13 -17 1040.39 307.756 1
17 7 -13 960.546 257.551 1
13 17 -8 2567.65 458.386 1
17 8 -13 3629.05 513.497 1
8 13 -17 2880.09 489.957 1
17 9 -13 2352.78 419.437 1
13 17 -9 2003.94 423.538 1
9 13 -17 2212.8 439.077 1
17 10 -13 1295.86 313.198 1
10 13 -17 1433.98 365.247 1
13 17 -10 1068.99 303.341 1
17 11 -13 602.254 214.833 1
13 17 -11 295.973 182.287 1
11 13 -17 766.683 281.396 1
12 13 -17 437.029 214.014 1
-13 -12 17 494.021 136.275 2
13 17 -12 510.819 194.829 1
17 12 -13 515.723 208.46 1
13 13 -17 429.089 221.574 1
17 13 -13 429.475 201.648 1
13 17 -13 566.267 245.451 1
17 14 -13 656.696 307.655 1
14 13 -17 503.077 263.704 1
-14 13 17 507.699 157.403 2
13 17 -14 317.125 164.072 1
17 14 -12 -103.965 107.241 1
-14 12 17 314.302 134.813 2
14 12 -17 56.0103 83.4244 1
12 17 -14 153.759 156.941 1
17 14 -11 988.782 301.574 1
14 11 -17 974.902 293.229 1
11 17 -14 1249.68 344.482 1
-14 11 17 1354.81 251.784 2
17 14 -10 647.853 239.07 1
14 10 -17 819.54 276.284 1
-14 10 17 496.093 133.864 2
10 17 -14 657.436 274.014 1
17 14 -9 232.069 152.626 1
-14 9 17 422.332 133.657 2
14 9 -17 385.455 181.038 1
9 17 -14 464.508 223.363 1
14 8 -17 1321.66 325.481 1
-14 8 17 1165.56 209.632 2
8 17 -14 1113.68 300.601 1
17 14 -8 1075.89 286.532 1
7 17 -14 684.289 238.08 1
17 14 -7 659.492 288.165 1
17 14 -6 4404.19 621.776 1
6 17 -14 4732.72 641.92 1
5 17 -14 250.669 166.201 1
4 17 -14 1170 291.545 1
3 17 -14 3422.24 542.833 1
2 17 -14 1167.69 326.432 1
1 17 -14 1693.8 352.247 1
0 17 -14 -125.305 177.793 1
0 14 -17 144.969 162.623 1
1 14 -17 1756.82 358.195 1
-1 17 -14 2303.52 425.882 1
14 17 -2 1239.9 312.259 1
-2 17 -14 1436.5 358.019 1
2 14 -17 1391.86 347.505 1
14 17 -3 3227.83 522.867 1
-3 17 -14 3913.38 562.126 1
3 14 -17 3231.05 514.201 1
4 14 -17 1115.92 315.23 1
14 17 -4 1550.12 376.518 1
14 17 -5 512.805 185.457 1
5 14 -17 411.539 190.706 1
14 17 -6 4618.64 631.8 1
6 14 -17 4861.19 628.1 1
14 17 -7 518.537 253.759 1
7 14 -17 677.263 238.605 1
14 17 -8 1364.78 351.525 1
8 14 -17 1373.43 345.205 1
17 8 -14 990.987 264.753 1
9 14 -17 452.069 213.171 1
14 17 -9 696.169 294.25 1
17 9 -14 331.489 126.085 1
17 10 -14 735.267 263.012 1
14 17 -10 791.822 241.118 1
-17 10 14 573.043 147.246 2
10 14 -17 775.566 268.219 1
17 11 -14 1068.32 305.575 1
14 17 -11 1016.33 328.689 1
11 14 -17 899.187 245.565 1
12 14 -17 120.989 169.565 1
17 12 -14 118.31 94.9465 1
14 17 -12 47.7051 80.4436 1
13 14 -17 185.838 136.049 1
14 17 -13 213.51 156.966 1
17 13 -14 559.075 220.232 1
14 14 -17 68.1407 111.017 1
14 17 -14 316.493 249.983 1
17 14 -14 -9.69056 159.078 1
17 15 -14 621.982 214.879 1
-15 14 17 999.764 230.08 2
14 17 -15 1356.81 416.428 1
15 14 -17 797.549 289.119 1
17 15 -13 122.93 135.919 1
13 17 -15 392.731 243.28 1
-15 13 17 -152.12 117.029 2
15 13 -17 47.1266 143.21 1
-15 12 17 676.662 205.527 2
17 15 -12 410.561 219.915 1
15 12 -17 204.528 137.242 1
12 17 -15 520.576 228.269 1
11 17 -15 174.137 210.464 1
17 15 -11 66.5601 154.617 1
-15 11 17 62.5924 116.309 2
15 11 -17 104.631 143.907 1
-15 10 17 338.498 123.42 2
10 17 -15 689.965 273.072 1
15 10 -17 530.43 238.455 1
17 15 -10 272.296 204.34 1
-15 9 17 110.136 105.19 2
15 9 -17 164.749 104.457 1
17 15 -9 354.369 179.007 1
9 17 -15 177.501 90.5665 1
8 17 -15 1615.53 364.383 1
-15 8 17 1457.21 254.011 2
17 15 -8 1538.94 370.602 1
17 15 -7 1699.39 366.139 1
-15 7 17 1769.83 263.705 2
7 17 -15 2047.06 409.742 1
6 17 -15 1626.32 394.888 1
17 15 -6 1309.84 325.28 1
5 17 -15 1043.43 285.039 1
4 17 -15 5132.88 658.152 1
3 17 -15 344.176 201.406 1
2 17 -15 2260.38 425.952 1
-1 15 -17 1142.06 327.324 1
1 17 -15 1297.31 327.833 1
0 15 -17 940.048 327.07 1
0 17 -15 669.238 276.766 1
1 15 -17 1227.62 320.385 1
-1 17 -15 1238.64 330.356 1
-2 17 -15 2234.89 445.843 1
2 15 -17 1918.48 389.792 1
15 17 -3 269.082 174.944 1
3 15 -17 519.81 253.285 1
-3 17 -15 374.699 188.327 1
4 15 -17 4992.22 654.748 1
15 17 -4 4437.26 617.354 1
5 15 -17 1439.69 355.893 1
15 17 -5 751.412 281.975 1
15 17 -6 1489.31 362.454 1
6 15 -17 1958.16 408.613 1
7 15 -17 1988.74 415.205 1
15 17 -7 2047.07 434.239 1
8 15 -17 1651.64 387.962 1
15 17 -8 1601.54 381.276 1
-17 8 15 1292.28 219.769 2
17 9 -15 12.7272 135.402 1
-17 9 15 142.078 87.4898 2
9 15 -17 54.3692 134.188 1
15 17 -9 217.582 215.149 1
10 15 -17 559.207 195.587 1
15 17 -10 553.075 255.944 1
17 10 -15 707.241 260.405 1
-17 10 15 537.752 179.43 2
11 15 -17 105.892 140.066 1
-17 11 15 60.1613 94.2615 2
17 11 -15 -259.553 167.546 1
15 17 -11 3.7113 127.024 1
17 12 -15 65.5677 107.245 1
-17 12 15 260.323 131.458 2
15 17 -12 540.294 227.196 1
12 15 -17 494.333 231.774 1
17 13 -15 -108.464 125.245 1
15 17 -13 62.4141 147.573 1
13 15 -17 -78.7209 118.721 1
15 17 -14 1314.44 395.009 1
14 15 -17 1183.9 333.973 1
17 14 -15 902.588 273.485 1
15 15 -17 3096.46 546.349 1
15 17 -15 3277.5 556.592 1
17 15 -15 3112.66 538.174 1
-16 15 17 400.412 169.459 2
16 15 -17 317.368 224.137 1
17 16 -15 756.712 320.987 1
15 17 -16 658.046 244.733 1
16 14 -17 1244.42 353.522 1
-16 14 17 1224.21 252.988 2
17 16 -14 741.993 267.721 1
14 17 -16 655.316 271.584 1
17 16 -13 399.961 243.716 1
16 13 -17 786.983 290.655 1
-16 13 17 905.896 228.602 2
13 17 -16 1091.81 369.373 1
12 17 -16 -47.6142 110.2 1
16 12 -17 95.5916 92.861 1
17 16 -12 232.945 200.672 1
-16 12 17 248.311 112.672 2
11 17 -16 284.63 180.509 1
16 11 -17 266.672 131.691 1
-16 11 17 264.997 109.51 2
17 16 -11 363.802 181.585 1
17 16 -10 324.15 188.357 1
-16 10 17 225.788 132.487 2
10 17 -16 448.318 280.166 1
17 16 -9 89.9228 120.911 1
-16 9 17 361.141 160.387 2
9 17 -16 151.792 135.154 1
-16 8 17 203.669 85.6969 2
17 16 -8 133.216 140.069 1
7 17 -16 37.4498 117.617 1
-16 7 17 -1.31948 61.3039 2
17 16 -7 -65.0692 173.179 1
17 16 -6 1181.72 342.37 1
6 17 -16 1383.81 363.134 1
-16 6 17 1385.77 228.102 2
-16 5 17 1933.84 263.284 2
5 17 -16 2450.28 483.128 1
4 17 -16 653.834 243.31 1
3 17 -16 486.178 198.322 1
-2 16 -17 1427.03 332.527 1
2 17 -16 1811.11 389.437 1
-1 16 -17 1231.92 338.081 1
1 17 -16 1051.23 313.62 1
0 16 -17 -214.051 184.795 1
0 17 -16 466.575 244.808 1
-1 17 -16 986.273 300.888 1
1 16 -17 948.49 354.147 1
-2 17 -16 1898.31 389.997 1
2 16 -17 1571.17 369.598 1
3 16 -17 529.701 196.355 1
-3 17 -16 939.264 294.107 1
4 16 -17 597.773 216.997 1
16 17 -4 671.676 230.76 1
-4 17 -16 356.775 197.458 1
5 16 -17 1974.52 431.734 1
16 17 -5 2330.73 467.799 1
16 17 -6 1619.55 403.929 1
6 16 -17 1331.09 345.496 1
-17 7 16 192.126 87.3142 2
7 16 -17 101.459 171.687 1
16 17 -7 186.742 212.007 1
8 16 -17 497.804 262.167 1
16 17 -8 255.516 207.09 1
-17 8 16 299.439 136.099 2
16 17 -9 266.036 182.074 1
-17 9 16 307.074 146.522 2
9 16 -17 70.9427 139.248 1
10 16 -17 95.2278 113.82 1
16 17 -10 326.689 197.243 1
-17 10 16 364.149 143.37 2
-17 11 16 391.241 141.254 2
16 17 -11 422.285 204.331 1
11 16 -17 239.906 147.401 1
17 11 -16 503.888 201.823 1
12 16 -17 17.1165 99.2477 1
-17 12 16 206.772 124.312 2
17 12 -16 285.703 197.763 1
16 17 -12 81.3673 106.193 1
13 16 -17 481.007 210.539 1
-17 13 16 723.907 264.79 2
16 17 -13 529.442 301.55 1
17 13 -16 380.726 167.622 1
-17 14 16 1047.95 227.482 2
17 14 -16 762.336 226.576 1
16 17 -14 1466.95 386.83 1
14 16 -17 1011.92 304.453 1
15 16 -17 483.685 239.113 1
16 17 -15 333.542 223.344 1
-17 15 16 432.87 152.018 2
17 15 -16 408.84 220.453 1
16 17 -16 -199.515 195.022 1
17 16 -16 281.766 251.146 1
-16 16 17 179.747 160.022 2
16 16 -17 -9.62536 115.927 1
0 17 -17 1487.6 401.69 1
1 17 -17 1396.06 343.796 1
-1 17 -17 1538.27 370.833 1
2 17 -17 434.252 225.843 1
-2 17 -17 77.1994 114.515 1
3 17 -17 2285.76 449.307 1
-3 17 -17 2710.36 517.544 1
-17 4 17 99.8651 58.9497 2
4 17 -17 190.72 146.037 1
-4 17 -17 302.823 203.976 1
5 17 -17 2023.87 459.68 1
-17 5 17 1394.87 215.322 2
17 17 -6 243.958 218.655 1
6 17 -17 287.866 181.674 1
-17 6 17 180.029 95.7934 2
7 17 -17 -49.583 152.855 1
17 17 -7 0.93552 131.069 1
-17 8 17 27.1604 67.765 2
8 17 -17 212.075 201.98 1
17 17 -8 83.8403 110.408 1
9 17 -17 243.77 156.234 1
17 17 -9 491.862 220.935 1
-17 9 17 305.414 131.709 2
-17 10 17 274.087 157.632 2
17 17 -10 367.213 246.646 1
10 17 -17 -39.2579 207.597 1
11 17 -17 -31.5884 162.81 1
17 17 -11 -113.914 91.7837 1
-17 11 17 11.8678 74.4819 2
12 17 -17 528.997 241.109 1
17 17 -12 104.293 109.951 1
-17 12 17 369.434 204.036 2
-17 13 17 1710.06 286.861 2
13 17 -17 1654.81 439.327 1
17 17 -13 1394.13 392.917 1
17 13 -17 1543.61 389.889 1
17 17 -14 -85.9481 101.985 1
14 17 -17 69.5432 106.469 1
17 14 -17 60.8269 164.084 1
-17 14 17 150.945 142.609 2
15 17 -17 237.303 189.591 1
-17 15 17 10.7605 106.661 2
17 17 -15 -79.7541 90.4014 1
17 15 -17 -147.141 145.666 1
-17 16 17 404.774 170.386 2
-17 17 17 9435.27 678.256 2
0 18 0 17.9118 79.1051 1
0 18 -1 4266.01 470.04 1
1 18 0 4317.94 465.71 1
0 18 1 3717.64 424.013 1
-1 18 0 3595.29 420.564 1
1 18 1 79.8011 94.7792 1
-1 18 -1 160.017 148.375 1
-1 18 1 69.9295 90.0188 1
1 18 -1 105.63 84.7659 1
2 18 1 660.266 199.116 1
1 18 -2 576.145 183.357 1
-2 18 -1 514.015 133.102 1
-1 18 2 491.393 151.158 1
2 18 0 455.693 157.637 1
0 18 2 712.668 191.222 1
-2 18 0 579.724 180.397 1
0 18 -2 463.958 154.385 1
-2 18 1 443.725 154.973 1
1 18 2 389.106 127.482 1
2 18 -1 540.494 196.455 1
-1 18 -2 662.34 199.51 1
-2 18 -2 1627.45 281.948 1
2 18 -2 2341.04 367.164 1
2 18 2 1710.18 297.664 1
-2 18 2 1622.75 266.965 1
3 18 2 959.889 208.938 1
-3 18 -2 871.669 210.472 1
-2 18 3 917.044 192.655 1
2 18 -3 912.31 211.362 1
-1 18 3 4604.12 472.21 1
-3 18 -1 5373.76 510.308 1
1 18 -3 5408.73 552.251 1
3 18 1 4563.44 497.163 1
0 18 3 803.642 191.428 1
0 18 -3 923.786 227.852 1
-3 18 0 1098.16 235.434 1
3 18 0 657.972 183.64 1
3 18 -1 4658.26 505.807 1
-3 18 1 4695.81 456.032 1
-1 18 -3 5014.6 517.716 1
1 18 3 4620.52 470.036 1
2 18 3 933.362 228.2 1
-3 18 2 894.762 200.465 1
-2 18 -3 1077.63 249.997 1
3 18 -2 954.036 243.975 1
-3 18 -3 1025.36 228.774 1
3 18 3 670.295 193.664 1
3 18 -3 775.271 231.242 1
-3 18 3 984 235.467 1
4 18 3 2116.62 344.691 1
-4 18 -3 2071.38 309.966 1
3 18 -4 1895.21 349.963 1
-3 18 4 1837.18 278.471 1
-4 18 -2 254.265 140.941 1
4 18 2 185.982 132.892 1
-2 18 4 332.87 138.018 1
2 18 -4 164.163 142.658 1
-1 18 4 1258.88 236.369 1
1 18 -4 1307.37 289.302 1
-4 18 -1 1264.59 246.018 1
4 18 1 1136.78 271.079 1
-4 18 0 461.367 169.239 1
0 18 4 664.44 187.636 1
4 18 0 549.726 192.646 1
0 18 -4 456.585 162.784 1
-4 18 1 1510.94 262.222 1
4 18 -1 1306.5 287.791 1
-1 18 -4 1223.79 272.335 1
1 18 4 1228.19 262.767 1
-4 18 2 230.03 119.357 1
-2 18 -4 137.061 116.91 1
2 18 4 134.737 89.0221 1
4 18 -2 97.4171 163.266 1
3 18 4 1971.98 329.012 1
4 18 -3 2129.9 373.119 1
-3 18 -4 2206.54 368.681 1
-4 18 3 1952.93 270.849 1
4 18 -4 3940.38 495.381 1
-4 18 -4 3969.56 459.919 1
4 18 4 3597.89 445.541 1
4 18 -5 772.7 246.45 1
-5 18 -4 753.074 214.542 1
5 18 4 646.828 209.286 1
5 4 -18 696.888 195.083 1
-5 18 -3 10718 733.61 1
5 18 3 10968.8 796.891 1
3 18 -5 10985.8 821.326 1
5 3 -18 11546.9 759.981 1
-2 18 5 1571.96 253.74 1
2 18 -5 1787.65 316.018 1
5 18 2 1517.39 301.222 1
-5 18 -2 1420.31 269.31 1
1 18 -5 5785.87 583.273 1
-1 18 5 5898.49 502.992 1
-5 18 -1 5907.05 527.807 1
5 18 1 5476.5 558.296 1
-5 18 0 2004.94 309.295 1
0 18 5 1999.53 315.151 1
0 18 -5 2147.69 362.82 1
5 18 0 1754.38 327.418 1
-5 18 1 5623.77 487.806 1
1 18 5 5526.18 513.544 1
5 18 -1 5595.41 569.461 1
-1 18 -5 5693.8 568.846 1
-2 18 -5 1633.75 321.054 1
5 18 -2 1596.76 318.653 1
-5 18 2 1567.49 241.434 1
2 18 5 1312.9 267.785 1
5 18 -3 11045.8 826.223 1
-3 18 -5 10981.5 792.55 1
3 18 5 11172.8 756.728 1
-4 18 -5 790.934 215.06 1
5 18 -4 1197.79 278 1
5 18 -5 1643.05 341.185 1
5 5 -18 1330.82 271.241 1
-5 18 -5 1379.25 248.904 1
5 18 -6 2058.58 383.103 1
-6 18 -5 1923.33 325.352 1
6 5 -18 1862.47 318.658 1
6 18 4 1387.91 292.782 1
4 18 -6 1169 280.578 1
6 4 -18 1207.76 234.454 1
-6 18 -4 1068.27 247.439 1
6 18 3 3038.03 441.641 1
3 18 -6 2990.79 443.538 1
-6 18 -3 2613.68 388.678 1
6 3 -18 3023.9 393.703 1
-6 18 -2 1346.54 251.743 1
2 18 -6 1280.97 289.286 1
6 18 2 1320.79 300.429 1
6 2 -18 1332.53 255.834 1
1 18 -6 3332.7 447.155 1
6 18 1 3434.86 475.104 1
6 1 -18 3850.61 406.721 1
-6 18 -1 3013.38 377.013 1
-6 18 0 344.641 143.747 1
6 0 -18 455.376 135.859 1
6 18 0 425.059 163.893 1
0 18 -6 674.228 241.153 1
6 18 -1 3028.26 434.278 1
-6 18 1 2878.36 360.336 1
-1 18 -6 3422.74 448.294 1
-2 18 -6 1105.98 252.845 1
6 18 -2 1763.85 326.842 1
6 18 -3 2853.92 408.341 1
-3 18 -6 2964.25 425.113 1
6 18 -4 1093.97 268.05 1
-4 18 -6 1160.25 287.858 1
6 18 -5 2135.19 382.264 1
5 6 -18 1506.11 295.138 1
-5 18 -6 1500.85 299.944 1
6 18 -6 2067.08 380.963 1
-6 18 -6 2148.92 351.05 1
6 6 -18 1979.85 357.785 1
7 6 -18 1419 295.356 1
6 18 -7 1564.99 335.512 1
-7 18 -6 1470.47 286.086 1
7 5 -18 676.971 191.725 1
5 18 -7 742.834 233.785 1
-7 18 -5 513.978 167.626 1
7 4 -18 482.275 176.046 1
-7 18 -4 599.615 202.907 1
4 18 -7 499.662 222.108 1
-7 18 -3 4588.71 473.188 1
3 18 -7 4906.37 562.244 1
7 18 3 5017.1 566.524 1
7 3 -18 4519.84 472.816 1
2 18 -7 372.76 205.622 1
7 2 -18 326.622 128.708 1
7 18 2 330.524 196.997 1
-7 18 -2 68.1361 63.2074 1
7 1 -18 3944.38 413.31 1
7 18 1 4190.51 526.264 1
-7 18 -1 4234.37 448.146 1
1 18 -7 3821.71 493.506 1
0 18 -7 -10.5922 124.405 1
7 18 0 9.6177 173.201 1
-7 18 0 -24.7742 80.073 1
7 18 -1 3659.07 482.499 1
-1 18 -7 3798.18 478.907 1
-2 18 -7 290.8 170.555 1
7 18 -2 226.812 166.015 1
-3 18 -7 4810.61 547.776 1
7 18 -3 4646.91 539.5 1
7 18 -4 765.086 222.586 1
4 7 -18 407.242 165.632 1
-4 18 -7 433.221 174.428 1
7 18 -5 577.039 244.596 1
5 7 -18 568.264 183.538 1
-5 18 -7 746.769 230.926 1
6 7 -18 1351.98 271.177 1
-6 18 -7 1510.47 308.754 1
7 18 -6 1623.14 330.731 1
-7 18 -7 186.939 134.109 1
7 7 -18 183.121 178.21 1
7 18 -7 204.476 137.522 1
7 18 -8 3354.95 511.864 1
-8 18 -7 3005.47 442.106 1
8 7 -18 2775.9 413.823 1
6 18 -8 2265.53 391.413 1
8 6 -18 2087.23 352.117 1
-8 18 -6 2409.01 398.368 1
-8 18 -5 1609.89 314.23 1
8 5 -18 2061.67 346.876 1
5 18 -8 2018.73 386.297 1
8 4 -18 1821.25 301.399 1
4 18 -8 1544.19 306.93 1
-8 18 -4 2027.52 344.769 1
-8 18 -3 501.183 169.453 1
8 3 -18 762.446 190.248 1
8 18 3 593.832 208.742 1
3 18 -8 473.887 200.375 1
8 18 2 4277.09 521.561 1
2 18 -8 4317.64 562.689 1
8 2 -18 4045.05 415.716 1
-8 18 -2 3935.48 452.713 1
8 18 1 5917.95 611.897 1
-8 18 -1 5938.1 513.485 1
1 18 -8 6128.37 631.613 1
8 18 0 7.79329 123.498 1
0 18 -8 250.656 186.582 1
8 18 -1 6527.94 661.005 1
-1 18 -8 6517.13 652.471 1
8 18 -2 4467.18 557 1
-2 18 -8 4610.09 553.339 1
8 18 -3 626.379 203.173 1
-3 18 -8 866.102 258.871 1
4 8 -18 2668.72 423.422 1
8 18 -4 2124.24 390.178 1
-4 18 -8 2113.15 402.826 1
-5 18 -8 1829.97 344.739 1
8 18 -5 2344.3 425.305 1
5 8 -18 2050.42 341.574 1
6 8 -18 1885.58 345.243 1
8 18 -6 2096.54 373.385 1
-6 18 -8 2473.44 415.625 1
-7 18 -8 3032.95 464.27 1
8 18 -7 3055.52 474.661 1
7 8 -18 2643.3 415.156 1
8 8 -18 1059.55 278.28 1
8 18 -8 1074.95 296.384 1
9 8 -18 1174.28 281.013 1
8 18 -9 1057.27 332.155 1
9 7 -18 2254.77 370.012 1
7 18 -9 1971.72 376.352 1
6 18 -9 2173.75 408.892 1
9 6 -18 2240.97 375.082 1
-9 18 -6 2003.31 347.802 1
5 18 -9 1512.07 338.786 1
9 5 -18 1717.13 309.067 1
-9 18 -5 1759.59 319.723 1
-9 18 -4 1949.48 317.267 1
9 4 -18 1841.14 316.994 1
4 18 -9 2515.07 437.943 1
3 18 -9 832.049 259.399 1
9 3 -18 1121.91 244.234 1
-9 18 -3 792.123 204.829 1
-9 18 -2 336.782 146.123 1
2 18 -9 479.918 206.154 1
9 18 2 185.063 129.807 1
9 18 1 5001.22 589.064 1
1 18 -9 4989.18 586.17 1
9 18 0 178.389 125.182 1
0 18 -9 326.736 173.517 1
-1 18 -9 5583.96 605.579 1
9 18 -1 5204.27 610.41 1
-2 18 -9 427.009 192.68 1
9 18 -2 269.567 156.591 1
3 9 -18 1261.2 287.359 1
9 18 -3 958.87 256.198 1
-3 18 -9 996.574 264.412 1
9 18 -4 1482.54 312.055 1
-4 18 -9 1832.04 357.227 1
4 9 -18 2444.59 409.216 1
5 9 -18 1938.24 381.413 1
9 18 -5 1726.42 387.332 1
-5 18 -9 1693.95 338.14 1
-6 18 -9 2114.77 379.965 1
9 18 -6 2272.01 407.794 1
6 9 -18 2191.24 380.015 1
7 9 -18 2081.37 384.193 1
9 18 -7 2206.14 405.13 1
-7 18 -9 2228.58 404.854 1
9 18 -8 1061.13 282.406 1
8 9 -18 968.046 243.508 1
9 9 -18 777.988 222.963 1
9 18 -9 704.993 242.91 1
9 18 -10 5415.16 655.208 1
10 9 -18 5032.99 590.457 1
18 10 -9 4657.98 594.809 1
10 8 -18 1183.8 277.629 1
8 18 -10 1143.44 293.641 1
10 7 -18 1219.98 285.378 1
7 18 -10 1274.49 352.755 1
6 18 -10 304.978 155.948 1
10 6 -18 405.175 155.055 1
-10 18 -5 991.089 237.472 1
10 5 -18 861.91 214.028 1
5 18 -10 1352.49 343.642 1
10 4 -18 7239.54 612.721 1
4 18 -10 7645.82 746.731 1
-10 18 -4 7651.95 655.583 1
-10 18 -3 5662.54 549.812 1
3 18 -10 5901.37 643.534 1
2 18 -10 212.328 133.356 1
10 18 2 228.109 196.506 1
10 18 1 5074.75 613.686 1
1 18 -10 4618.85 570.453 1
0 18 -10 4270.47 542.701 1
10 18 0 4407.78 562.924 1
10 18 -1 4571.13 585.922 1
-1 18 -10 4734.55 584.194 1
10 18 -2 89.5764 112.882 1
-2 18 -10 64.1285 137.138 1
10 18 -3 5543.48 649.15 1
-3 18 -10 6247.35 662.555 1
3 10 -18 5544.15 622.346 1
10 18 -4 7962.3 768.553 1
-4 18 -10 7185.36 718.736 1
4 10 -18 6923.8 711.214 1
10 18 -5 1311.96 299.561 1
-5 18 -10 1107.54 305.972 1
5 10 -18 1320.47 283.546 1
6 10 -18 447.036 166.144 1
10 18 -6 380.822 209.123 1
-6 18 -10 412.514 245.068 1
7 10 -18 879.421 229.692 1
10 18 -7 1164.85 307.523 1
10 18 -8 1086.11 278.485 1
8 10 -18 900.804 267.817 1
18 9 -10 4523.77 581.365 1
9 10 -18 4537.66 567.774 1
10 18 -9 4464.88 596.779 1
10 18 -10 1272.48 316.58 1
18 10 -10 1087.71 298.631 1
-10 10 18 1263.97 222.09 2
10 10 -18 1186.29 285.71 1
10 18 -11 358.876 163.195 1
-11 10 18 228.832 129.683 2
18 11 -10 303.651 167.494 1
11 10 -18 295.181 161.953 1
9 18 -11 1769 383.219 1
11 9 -18 2232.53 405.145 1
18 11 -9 1981.54 396.984 1
8 18 -11 1728.27 381.129 1
11 8 -18 1919.9 367.92 1
7 18 -11 937.153 303.695 1
11 7 -18 633.868 202.799 1
6 18 -11 935.161 271.936 1
11 6 -18 849.079 238.433 1
-11 18 -5 2737.27 404.504 1
5 18 -11 2252.11 408.936 1
-11 18 -4 1233.11 269.657 1
4 18 -11 1205.53 303.468 1
3 18 -11 3804.84 539.928 1
2 18 -11 782.9 226.073 1
1 18 -11 376.555 210.558 1
11 18 1 401.48 263.921 1
0 18 -11 2391.74 430.148 1
11 18 0 2505.73 435.852 1
11 18 -1 562.274 240.977 1
-1 18 -11 483.005 210.112 1
11 18 -2 840.959 246.686 1
-2 18 -11 754.522 232.84 1
2 11 -18 646.21 246.887 1
3 11 -18 4108.52 537.759 1
-3 18 -11 3635.73 523.777 1
11 18 -3 4298.59 570.811 1
-4 18 -11 1106.9 270.367 1
4 11 -18 1197.98 309.979 1
11 18 -4 1454.18 349.54 1
5 11 -18 2954.1 476.667 1
-5 18 -11 2390.19 414.864 1
11 18 -5 2618.11 456.26 1
-6 18 -11 640.847 232.746 1
6 11 -18 1013.07 277.622 1
11 18 -6 982.893 293.747 1
11 18 -7 938.914 288.857 1
7 11 -18 694.085 235.16 1
18 8 -11 1596.47 334.229 1
8 11 -18 1738.59 373.035 1
11 18 -8 1941.38 384.571 1
18 9 -11 1799.77 391.143 1
11 18 -9 2188.21 431.238 1
-9 11 18 1680.23 275.118 2
9 11 -18 2013.7 389.816 1
18 10 -11 280.958 135.097 1
11 18 -10 488.886 222.24 1
-10 11 18 142.525 94.2511 2
10 11 -18 332.411 169.17 1
11 18 -11 670.514 260.968 1
-11 -11 18 790.315 204.111 2
11 11 -18 1145.54 303.496 1
-11 11 18 845.734 202.223 2
18 11 -11 984.152 274.429 1
18 12 -11 1781.89 353.721 1
-11 -12 18 1662.88 268.358 2
11 18 -12 2082.36 439.497 1
-12 11 18 2144.84 298.188 2
12 11 -18 1800.07 360.639 1
18 12 -10 501.675 215.583 1
-12 10 18 311.614 142.173 2
10 18 -12 414.607 168.393 1
-10 -12 18 158.491 113.599 2
12 10 -18 530.007 243.75 1
-9 -12 18 541.467 159.387 2
18 12 -9 446.596 203.993 1
-12 9 18 606.697 161.916 2
9 18 -12 808.078 275.082 1
12 9 -18 806.225 252.711 1
8 18 -12 715.181 273.149 1
12 8 -18 510.637 171.648 1
-12 8 18 386.643 142.184 2
7 18 -12 3855.34 574.651 1
12 7 -18 4195.43 531.448 1
6 18 -12 4319.07 604.402 1
5 18 -12 5154.54 638.066 1
4 18 -12 48.0754 144.913 1
3 18 -12 511.595 174.73 1
2 18 -12 1190.96 296.821 1
1 18 -12 5245.95 629.399 1
12 18 0 78.6246 119.147 1
0 18 -12 85.9165 115.545 1
12 18 -1 4580.22 595.351 1
1 12 -18 5045.04 629.536 1
-1 18 -12 4884.47 621.704 1
-2 18 -12 1348.62 334.753 1
2 12 -18 1217.22 286.98 1
12 18 -2 1197.86 320.238 1
12 18 -3 890.188 275.411 1
3 12 -18 829.354 282.44 1
-3 18 -12 1106.71 330.107 1
4 12 -18 23.6745 135.788 1
12 18 -4 101.831 139.465 1
-4 18 -12 -61.6637 124.702 1
5 12 -18 4737.65 607.876 1
12 18 -5 4930.89 646.088 1
-5 18 -12 6104.51 698.125 1
12 18 -6 4083.93 596.594 1
6 12 -18 3642.52 536.952 1
12 18 -7 4363.43 590.643 1
7 12 -18 4222.86 585.633 1
18 8 -12 415.517 165.066 1
8 12 -18 608.789 252.835 1
12 18 -8 737.999 267.197 1
18 9 -12 841.769 222.221 1
9 12 -18 511.857 197.852 1
12 18 -9 620.584 266.874 1
10 12 -18 346.326 174.506 1
18 10 -12 478.813 222.595 1
12 18 -10 293.06 150.871 1
-12 -10 18 273.081 107.419 2
-12 -11 18 1978.3 292.798 2
12 18 -11 2577.78 470.589 1
18 11 -12 2010.31 394.677 1
11 12 -18 2206.95 439.354 1
-11 12 18 2176.71 308.321 2
-12 -12 18 189.279 94.5719 2
12 12 -18 495.865 224.764 1
-12 12 18 297.345 155.578 2
12 18 -12 -54.0798 158.904 1
18 12 -12 252.561 185.809 1
-13 12 18 452.327 151.562 2
13 12 -18 415.991 107.274 1
-12 -13 18 386.496 113.572 2
12 18 -13 283.169 180.738 1
18 13 -12 326.8 174.888 1
-11 -13 18 509.208 148.644 2
18 13 -11 644.699 259.565 1
13 11 -18 429.419 189.847 1
11 18 -13 394.81 216.282 1
-13 11 18 709.068 181.281 2
13 10 -18 568.881 222.873 1
18 13 -10 509.531 211.201 1
10 18 -13 988.302 280.058 1
-10 -13 18 467.293 139.551 2
-13 10 18 843.641 206.72 2
13 9 -18 381.178 217.854 1
18 13 -9 101.442 158.509 1
-9 -13 18 329.197 149.643 2
-13 9 18 232.71 119.081 2
9 18 -13 263.416 202.752 1
-13 8 18 363.208 141.575 2
18 13 -8 638.498 292.182 1
8 18 -13 242.846 146.796 1
-8 -13 18 285.246 105.739 2
13 8 -18 285.898 161.8 1
7 18 -13 5611.35 691.181 1
-13 7 18 4847.04 426.573 2
-7 -13 18 5446.08 467.429 2
6 18 -13 539.321 240.404 1
-6 -13 18 188.08 134.778 2
5 18 -13 918.047 346.023 1
4 18 -13 827.298 249.134 1
3 18 -13 2237.81 436.694 1
2 18 -13 1528.54 392.62 1
1 18 -13 984.555 315.417 1
0 18 -13 2327.82 438.605 1
13 18 -1 807.15 292.181 1
1 13 -18 937.693 290.005 1
-1 18 -13 1052.64 340.513 1
13 18 -2 1536.31 336.678 1
2 13 -18 2029.22 402.379 1
-2 18 -13 1407.09 333.648 1
-3 18 -13 1374.66 363.228 1
13 18 -3 1344.79 311.117 1
3 13 -18 1917.73 392.745 1
13 18 -4 880.553 260.684 1
-4 18 -13 1015.43 303.006 1
4 13 -18 1127.53 291.813 1
5 13 -18 627.119 265.513 1
-5 18 -13 869.178 255.618 1
13 18 -5 741.854 247.812 1
6 13 -18 367.994 174.346 1
13 18 -6 661.834 239.938 1
13 18 -7 6079.65 719.096 1
7 13 -18 5683.43 683.48 1
8 13 -18 430.801 174.188 1
18 8 -13 290.065 159.482 1
13 18 -8 218.792 90.0783 1
18 9 -13 448.207 243.867 1
-13 -9 18 293.983 137.624 2
13 18 -9 186.136 130.931 1
9 13 -18 525.588 233.649 1
18 10 -13 470.449 216.721 1
10 13 -18 693.186 237.807 1
-13 -10 18 437.635 159.446 2
13 18 -10 304.504 170.195 1
-13 -11 18 735.517 177.723 2
13 18 -11 527.052 248.431 1
11 13 -18 720.469 267.442 1
18 11 -13 587.124 235.923 1
12 13 -18 530.697 194.118 1
13 18 -12 627.948 233.204 1
18 12 -13 142.973 133.104 1
-12 13 18 619.804 195.179 2
-13 -12 18 456.359 137.791 2
13 13 -18 -92.1999 180.948 1
13 18 -13 298.052 144.833 1
-13 13 18 190.926 219.715 2
18 13 -13 -15.6354 114.544 1
-14 13 18 343.576 117.331 2
18 14 -13 196.692 154.357 1
14 13 -18 406.008 197.758 1
13 18 -14 420.042 214.335 1
-14 12 18 234.824 124.36 2
12 18 -14 190.662 117.521 1
14 12 -18 69.0998 161.379 1
18 14 -11 68.0928 130.67 1
14 11 -18 -48.128 103.424 1
-14 11 18 -87.6154 93.6497 2
11 18 -14 -41.5044 175.744 1
10 18 -14 596.4 248.523 1
-14 10 18 349.471 141.1 2
18 14 -10 305.685 173.555 1
14 10 -18 461.823 220.173 1
9 18 -14 2418.05 470.628 1
-14 9 18 2316.46 313.066 2
18 14 -9 2497.19 487.483 1
14 9 -18 2420.24 420.996 1
18 14 -8 764.42 292.44 1
8 18 -14 817.19 274.68 1
-14 8 18 604.818 148.834 2
-14 7 18 1733.17 266.132 2
-7 -14 18 2209.02 307.572 2
7 18 -14 2274.17 449.437 1
-14 6 18 156.133 101.768 2
6 18 -14 300.392 203.543 1
-6 -14 18 -62.8533 79.4914 2
-5 -14 18 180.76 104.326 2
5 18 -14 379.74 211.155 1
4 18 -14 1490.61 374.946 1
3 18 -14 4978.61 651.181 1
2 18 -14 459.671 207.7 1
1 18 -14 876.41 292.091 1
0 14 -18 -5.80905 178.33 1
0 18 -14 343.009 203.241 1
-1 18 -14 1166.69 320.118 1
1 14 -18 810.534 256.489 1
2 14 -18 439.108 233.48 1
14 18 -2 511.505 276.033 1
-2 18 -14 220.817 156.433 1
-3 18 -14 4575.09 628.287 1
3 14 -18 4482.83 613.784 1
14 18 -3 4749.03 641.94 1
4 14 -18 1320.93 347.628 1
-4 18 -14 1274.27 319.091 1
14 18 -4 1097.71 306.069 1
5 14 -18 299.898 212.938 1
14 18 -5 425.324 239.614 1
-5 18 -14 670.171 294.404 1
6 14 -18 -87.5183 167.853 1
14 18 -6 -24.848 105.489 1
7 14 -18 1956.55 393.344 1
14 18 -7 2312.25 448.434 1
8 14 -18 880.299 264.322 1
14 18 -8 915.912 306.21 1
18 9 -14 2112.97 396.658 1
9 14 -18 2430.39 460.068 1
14 18 -9 2724.56 495.317 1
-14 -9 18 1789.77 272.726 2
-14 -10 18 242.9 147.103 2
14 18 -10 387.761 216.484 1
10 14 -18 146.081 173.987 1
18 10 -14 342.224 233.455 1
-18 10 14 340.694 116.676 2
-18 11 14 114.298 105.442 2
14 18 -11 -114.662 167.013 1
18 11 -14 282.129 174.034 1
-14 -11 18 -16.6597 103.929 2
11 14 -18 -203.977 169.993 1
14 18 -12 36.2892 123.717 1
12 14 -18 243.686 169.32 1
-14 -12 18 -38.2597 102.39 2
18 12 -14 31.3397 88.5708 1
-18 12 14 -14.2289 72.8216 2
18 13 -14 188.429 80.0862 1
-13 14 18 351.469 113.716 2
13 14 -18 250.743 151.209 1
14 18 -13 494.365 232.927 1
-14 14 18 263.088 134.288 2
14 14 -18 138.672 153.389 1
14 18 -14 -278.277 213.926 1
18 14 -14 -127.458 115.702 1
18 15 -14 627.601 245.016 1
-15 14 18 752.815 212.396 2
14 18 -15 -47.314 135.236 1
15 14 -18 489.521 227.52 1
18 15 -13 -236.91 203.298 1
15 13 -18 -48.6341 155.392 1
-15 13 18 2.72173 88.5439 2
13 18 -15 -170.556 171.59 1
-15 12 18 441.328 142.118 2
12 18 -15 547.052 257.647 1
15 12 -18 103.857 147.108 1
18 15 -12 554.749 251.221 1
18 15 -11 303.496 173.987 1
11 18 -15 363.197 255.082 1
-15 11 18 412.195 147.821 2
15 11 -18 200.396 158.11 1
18 15 -10 567.159 248.827 1
-15 10 18 1223.41 253.714 2
10 18 -15 748.867 257.506 1
18 15 -9 1742.37 398.525 1
-15 9 18 1364.44 226.753 2
9 18 -15 1614.5 399.66 1
18 15 -8 43.2093 176.844 1
8 18 -15 183.226 181.007 1
-15 8 18 96.6762 77.4154 2
7 18 -15 103.113 129.013 1
-15 7 18 130.676 71.3585 2
-15 6 18 1131.56 230.752 2
6 18 -15 1296.92 338.827 1
5 18 -15 4131.56 603.066 1
-15 5 18 2991.53 324.447 2
-15 4 18 75.1276 73.3855 2
4 18 -15 93.7031 134.034 1
3 18 -15 336.685 180.347 1
2 18 -15 1853 403.943 1
1 18 -15 -5.58044 195.644 1
-1 15 -18 85.4587 170.47 1
0 18 -15 1411.31 344.299 1
0 15 -18 1146.74 344.437 1
-1 18 -15 475.005 225.84 1
1 15 -18 458.391 218.893 1
2 15 -18 2233.89 428.092 1
-2 18 -15 1912.61 404.614 1
15 18 -3 80.1682 166.681 1
3 15 -18 266.002 165.134 1
-3 18 -15 469.558 202.149 1
-4 18 -15 -41.258 116.309 1
4 15 -18 357.897 215.966 1
15 18 -4 200.748 221.528 1
15 18 -5 3674.75 589.618 1
5 15 -18 4158.19 605.452 1
-5 18 -15 4120.21 620.829 1
15 18 -6 1244.3 357.029 1
6 15 -18 1077.93 304.787 1
15 18 -7 247.132 171.108 1
7 15 -18 313.314 177.758 1
8 15 -18 104.041 97.6839 1
-18 8 15 6.94329 66.7102 2
15 18 -8 258.054 277.665 1
-18 9 15 1350.6 214.888 2
15 18 -9 1295.85 344.599 1
9 15 -18 1753.07 399.267 1
15 18 -10 951.389 296.253 1
10 15 -18 1078.39 325.514 1
-18 10 15 875.068 195.491 2
18 11 -15 241.473 200.234 1
15 18 -11 319.689 200.236 1
-18 11 15 399.495 136.091 2
11 15 -18 173.084 181.705 1
12 15 -18 284.665 194.886 1
-18 12 15 353.955 152.486 2
18 12 -15 197.728 173.72 1
15 18 -12 270.57 106.825 1
18 13 -15 -88.5086 94.6738 1
-18 13 15 82.3254 96.1621 2
13 15 -18 -149.121 153.815 1
15 18 -13 -87.0784 130.185 1
-14 15 18 753.151 220.407 2
15 18 -14 926.975 306.152 1
-18 14 15 793.69 200.85 2
14 15 -18 691.945 290.095 1
18 14 -15 532.778 260.726 1
15 18 -15 1380.95 354.784 1
15 15 -18 1751.94 418.082 1
18 15 -15 2236.69 488.892 1
-15 15 18 1815.59 292.478 2
15 18 -16 544.74 262.337 1
16 15 -18 306.425 184.666 1
-16 15 18 672.294 195.407 2
18 16 -15 582.533 276.266 1
18 16 -14 1603.22 425.237 1
16 14 -18 961.619 296.553 1
-16 14 18 1255.64 248.169 2
14 18 -16 1229.59 349.015 1
-16 13 18 292.165 133.963 2
18 16 -13 357.475 220.854 1
13 18 -16 141.947 142.892 1
16 13 -18 99.098 81.3662 1
-16 12 18 264.073 114.667 2
12 18 -16 128.59 130.845 1
18 16 -12 432.559 227.619 1
11 18 -16 709.942 226.027 1
18 16 -11 530.438 233.687 1
-16 11 18 653.121 188.01 2
18 16 -10 391.06 252.788 1
10 18 -16 642.951 336.196 1
-16 10 18 419.321 144.993 2
-16 9 18 197.161 99.7584 2
9 18 -16 194.327 113.001 1
18 16 -9 164.619 122.607 1
18 16 -8 -18.7293 205.945 1
-16 8 18 238.466 118.739 2
8 18 -16 479.72 204.905 1
-16 7 18 1065.05 225.53 2
7 18 -16 1121.47 331.271 1
6 18 -16 2225.13 464.571 1
-16 6 18 2029.48 282.29 2
-16 5 18 934.178 192.964 2
5 18 -16 656.504 304.734 1
4 18 -16 63.644 106.678 1
-16 4 18 57.6974 95.3098 2
4 16 18 66.5118 54.1318 2
-3 16 -18 -3.7092 146.033 1
-16 3 18 6.58935 88.1431 2
3 18 -16 97.7941 115.018 1
2 18 -16 2514.95 461.715 1
-2 16 -18 2381.89 475.467 1
-16 2 18 2109.21 283.724 2
-1 16 -18 1313.99 358.535 1
1 18 -16 1162.15 293.381 1
-16 1 18 945.612 183.116 2
0 16 -18 78.7472 148.339 1
0 18 -16 20.2693 108.856 1
-1 18 -16 1299.25 354.829 1
1 16 -18 1299.61 342.052 1
2 16 -18 2830.15 528.127 1
-2 18 -16 2384.97 465.327 1
3 16 -18 -76.5495 202.351 1
-3 18 -16 -30.5392 106.858 1
4 16 -18 344.984 271.492 1
-4 18 -16 130.591 128.909 1
16 18 -4 229.87 249.262 1
16 18 -5 884.527 290.937 1
5 16 -18 1005.29 304.852 1
-5 18 -16 887.881 283.335 1
16 18 -6 1735.1 413.815 1
6 16 -18 2362.02 451.516 1
16 18 -7 1551.11 376.749 1
7 16 -18 1066.54 311.771 1
-18 7 16 1083.66 210.744 2
16 18 -8 216.926 217.311 1
-18 8 16 300.511 132.705 2
8 16 -18 354.874 217.475 1
9 16 -18 -151.765 204.964 1
-18 9 16 -28.2915 85.021 2
-18 10 16 269.515 105.793 2
10 16 -18 274.675 189.176 1
16 18 -10 177.595 177.221 1
-18 11 16 420.644 144.239 2
11 16 -18 280.804 116.784 1
16 18 -11 397.343 234.923 1
-18 12 16 354.338 107.741 2
12 16 -18 320.573 201.1 1
16 18 -12 321.141 207.749 1
18 13 -16 107.94 117.9 1
-18 13 16 535.664 185.447 2
16 18 -13 205.791 124.559 1
13 16 -18 399.368 224.521 1
18 14 -16 1191.11 372.979 1
-18 14 16 1306.23 243.373 2
14 16 -18 1163.01 327.056 1
16 18 -14 968.549 314.62 1
-14 16 18 1359.91 273.889 2
16 18 -15 690.441 285.101 1
-18 15 16 465.809 141.822 2
15 16 -18 351.486 146.761 1
18 15 -16 220.764 198.799 1
-15 16 18 419.108 129.34 2
-18 16 16 3639.53 411.508 2
-16 16 18 3883.1 444.433 2
-17 16 18 527.043 143.381 2
-18 17 16 788.298 226.467 2
-17 15 18 1164.99 228.791 2
-17 14 18 141.559 92.8434 2
18 17 -14 181.966 165.822 1
14 18 -17 -167.625 180.707 1
13 18 -17 333.322 189.662 1
18 17 -13 779.276 208.313 1
-17 13 18 948.889 227.702 2
18 17 -12 383.911 228.461 1
-17 12 18 193.327 116.11 2
12 18 -17 214.159 109.952 1
-17 11 18 -72.8145 105.173 2
11 18 -17 96.6849 152.161 1
18 17 -11 9.56841 121.281 1
18 17 -10 27.3862 113.891 1
10 18 -17 -157.542 235.915 1
-17 10 18 139.996 69.4425 2
-17 9 18 40.2588 92.9537 2
18 17 -9 -33.4297 95.988 1
9 18 -17 -46.5708 180.193 1
-17 8 18 549.905 147.299 2
8 18 -17 826.269 334.506 1
18 17 -8 615.139 281.398 1
-17 7 18 1084.63 233.172 2
7 18 -17 861.456 293.191 1
-17 6 18 765.473 179.922 2
6 18 -17 659.578 263.902 1
-17 5 18 700.128 181.154 2
5 18 -17 948.673 306.29 1
-17 4 18 1800.69 268.166 2
4 18 -17 2020.86 432.554 1
-4 17 -18 2335.17 478.532 1
3 18 -17 333.026 131.459 1
-3 17 -18 375.188 224.793 1
-17 3 18 181.63 78.9554 2
-2 17 -18 106.144 114.067 1
2 18 -17 160.275 107.146 1
-17 2 18 247.767 118.155 2
1 18 -17 530.617 214.165 1
-1 17 -18 333.093 195.754 1
0 17 -18 253 155.515 1
0 18 -17 171.285 135.302 1
1 17 -18 242.009 171.705 1
-1 18 -17 265.458 174.117 1
-2 18 -17 196.741 201.108 1
2 17 -18 97.0122 123.925 1
-3 18 -17 419.753 240.079 1
3 17 -18 111.963 152.622 1
4 17 -18 2107.28 451.085 1
-4 18 -17 2145.8 439.253 1
-18 5 17 726.733 177.62 2
5 17 -18 665.138 259.262 1
-5 18 -17 668.808 228.882 1
-18 6 17 587.602 138.495 2
6 17 -18 600.146 272.435 1
17 18 -6 924.768 342.159 1
-18 7 17 1012.9 208.903 2
7 17 -18 1260.63 359.123 1
17 18 -7 1162.09 332.245 1
8 17 -18 841.393 307.462 1
-18 8 17 751.847 194.793 2
17 18 -8 691.042 262.328 1
-18 9 17 44.956 76.4492 2
17 18 -9 -120.858 175.914 1
9 17 -18 14.7056 108.955 1
-18 10 17 191.117 101.265 2
17 18 -10 -28.7034 126.392 1
10 17 -18 -24.9441 135.888 1
-18 11 17 59.0441 72.2194 2
17 18 -11 -29.5904 129.815 1
12 17 -18 101.401 175.783 1
-18 12 17 312.566 132.737 2
17 18 -12 206.562 159.748 1
17 18 -13 467.646 205.707 1
-18 13 17 711.931 219.805 2
13 17 -18 433.229 129.844 1
17 18 -14 129.278 159.897 1
-18 14 17 201.105 101.422 2
14 17 -18 -164.96 169.187 1
-18 15 17 1056.93 229.429 2
-15 17 18 1149.45 246.188 2
-18 16 17 788.509 205.195 2
-16 17 18 693.218 198.94 2
-17 17 18 132.004 117.894 2
-18 17 17 129.522 73.4986 2
-17 18 17 87.836 92.6432 2
0 18 -18 1693.61 395.131 1
1 18 -18 498.921 233.417 1
-1 18 -18 373.465 202.639 1
2 18 -18 -5.83837 154.632 1
-2 18 -18 -209.396 208.639 1
3 18 -18 -2.91427 123.531 1
-18 3 18 -144.823 102.008 2
-18 4 18 1145.27 213.349 2
4 18 -18 1287.08 340.083 1
-4 18 -18 1661.9 418.565 1
-18 5 18 -93.2242 110.829 2
5 18 -18 131.135 175.408 1
-5 18 -18 234.995 146.803 1
-18 6 18 -24.595 94.4003 2
6 18 -18 -12.8616 166.292 1
-6 18 -18 221.38 250.166 1
-18 7 18 1916.21 274.295 2
7 18 -18 2082.78 459.376 1
-18 8 18 1814.67 282.52 2
18 18 -8 1941.79 427.491 1
8 18 -18 1822.24 417.666 1
-18 9 18 78.958 97.5932 2
18 18 -9 136.124 178.705 1
9 18 -18 -5.60391 119.887 1
-18 10 18 -64.6875 92.1246 2
18 18 -10 127.421 99.8768 1
10 18 -18 119.527 195.833 1
11 18 -18 197.808 144.974 1
-18 11 18 356.565 163.354 2
18 18 -11 98.6112 156.196 1
18 18 -12 112.198 217.984 1
12 18 -18 182.222 166.913 1
-18 12 18 195.526 136.171 2
18 18 -13 199.332 161.759 1
-18 13 18 94.9909 90.6063 2
13 18 -18 -60.3127 121.34 1
-18 14 18 1161.88 246.509 2
-15 18 18 422.669 162.727 2
-18 15 18 259.917 126.671 2
-18 18 16 5403.05 505.569 2
-18 16 18 4845.14 491.88 2
-16 18 18 5191.68 517.231 2
-18 18 17 67.6055 98.6799 2
-18 17 18 10.3251 108.015 2
-17 18 18 95.0933 139.683 2
-18 18 18 8464.01 653.506 2
0 19 0 -35.0311 66.9432 1
-1 19 0 1049.45 245.919 1
1 19 0 1025.19 246.072 1
0 19 1 1047.12 233.7 1
0 19 -1 875.338 218.22 1
1 19 -1 1954.52 320.407 1
-1 19 1 2165.72 327.606 1
-1 19 -1 2433.45 387.017 1
1 19 1 2293.13 352.714 1
-1 19 2 1590.1 275.904 1
1 19 -2 1784.22 329.92 1
2 19 1 1798.81 338.193 1
-2 19 -1 1954.44 318.654 1
2 19 0 736.964 186.092 1
0 19 2 768.167 198.526 1
0 19 -2 710.072 185.399 1
-2 19 0 965.227 231.801 1
1 19 2 1440.48 296.527 1
-2 19 1 1258.12 257.671 1
2 19 -1 1461.97 299.935 1
-1 19 -2 1365.07 265.547 1
2 19 2 4066.43 477.84 1
-2 19 -2 3528.99 439.984 1
-2 19 2 3518.61 409.259 1
2 19 -2 3749.87 476.581 1
-3 19 -2 1871.18 317.704 1
3 19 2 1498 294.36 1
2 19 -3 1670.6 335.39 1
-2 19 3 1704.56 275.723 1
-1 19 3 1028.47 216.263 1
-3 19 -1 1305.99 252.246 1
1 19 -3 1010.95 252.983 1
3 19 1 1365.77 284.055 1
-3 19 0 133.479 74.3188 1
0 19 3 63.3221 99.4181 1
3 19 0 187.856 138.484 1
0 19 -3 237.282 171.585 1
3 19 -1 1613.95 312.122 1
1 19 3 1215.92 256.137 1
-3 19 1 1052.74 208.54 1
-1 19 -3 1096.88 290.42 1
3 19 -2 1947.14 354.789 1
-2 19 -3 1517.14 269.53 1
-3 19 2 1882.1 302.779 1
2 19 3 1742.37 309.471 1
-3 19 -3 1300.27 284.738 1
3 19 3 1244.72 275.427 1
3 19 -3 1543.21 319.348 1
-3 19 3 1054.81 223.039 1
-4 19 -3 1729.23 323.655 1
4 19 3 1657.49 309.725 1
3 19 -4 1686.16 342.257 1
-2 19 4 3634.36 409.55 1
-4 19 -2 4021.72 463.895 1
4 19 2 3924.46 486.343 1
2 19 -4 3936.15 497.199 1
-4 19 -1 4923.38 499.393 1
1 19 -4 5150.24 555.471 1
4 19 1 4623.65 528.517 1
-1 19 4 4734.53 471.779 1
-4 19 0 6297.19 557.414 1
0 19 4 6608.89 573.347 1
4 19 0 6786.91 642.925 1
0 19 -4 6690.15 626.344 1
-4 19 1 5104.58 489.888 1
4 19 -1 4710.16 543.317 1
1 19 4 4512.53 475.987 1
-1 19 -4 4571.27 517.321 1
-2 19 -4 3762.55 469.6 1
4 19 -2 3816.25 482.814 1
-4 19 2 3425.1 389.077 1
2 19 4 3547 446.885 1
4 19 -3 1367.41 301.413 1
-3 19 -4 1637.26 311.012 1
3 19 4 1660.74 301.442 1
4 19 -4 12950.2 919.553 1
-4 19 -4 12591.3 840.007 1
4 19 4 11882.4 841.014 1
5 19 4 2409.73 391.125 1
4 19 -5 2322.48 409.683 1
-5 19 -4 2625.92 388.445 1
5 4 -19 2388.73 367.398 1
-5 19 -3 1797.12 303.906 1
3 19 -5 2187.99 392.593 1
5 3 -19 1902.37 319.608 1
5 19 3 1890.94 339.007 1
5 2 -19 366.11 171.693 1
2 19 -5 340.076 131.779 1
-5 19 -2 341.561 137.213 1
5 19 2 524.501 206.736 1
-1 19 5 394.951 128.115 1
-5 19 -1 357.121 157.456 1
5 19 1 345.359 156.65 1
1 19 -5 506.203 217.116 1
5 19 0 3139.43 432.891 1
0 19 -5 3519.87 469.426 1
-5 19 0 3633.23 419.972 1
0 19 5 3438.65 409.917 1
-5 19 1 353.145 118.469 1
-1 19 -5 62.9651 98.5791 1
5 19 -1 228.632 103.781 1
1 19 5 248.979 135.978 1
5 19 -2 277.004 158.845 1
-2 19 -5 374.863 193.71 1
2 19 5 320.266 132.038 1
-3 19 -5 2123.96 363.026 1
5 19 -3 2158.27 368.962 1
-4 19 -5 2287.55 381.068 1
5 19 -4 3145.49 460.818 1
5 5 -19 497.009 171.634 1
-5 19 -5 532.21 199.137 1
5 19 -5 737.91 263.754 1
-6 19 -5 303.482 129.669 1
6 5 -19 504.182 202.021 1
5 19 -6 473.006 201.801 1
6 4 -19 684.78 217.124 1
-6 19 -4 633.875 191.487 1
4 19 -6 556.604 214.389 1
6 19 4 508.891 193.455 1
-6 19 -3 1257.09 267.195 1
3 19 -6 1160.4 296.369 1
6 19 3 1448.44 316.114 1
6 3 -19 1120.35 247.21 1
2 19 -6 14466.6 969.925 1
6 2 -19 14506.1 852.429 1
6 19 2 13796.9 946.52 1
-6 19 -2 13984 853.201 1
6 19 1 898.677 226.31 1
-6 19 -1 1150.37 249.87 1
1 19 -6 814.162 203.653 1
6 1 -19 848.556 213.975 1
0 19 -6 1120.62 296.325 1
6 19 0 754.947 208.724 1
-6 19 0 1138.48 215.743 1
6 19 -1 757.761 235.459 1
-1 19 -6 1245.63 303.769 1
-2 19 -6 15051.7 966.142 1
6 19 -2 14275.6 970.982 1
-3 19 -6 1172.36 285.624 1
6 19 -3 1075.78 265.202 1
4 6 -19 606.44 167.027 1
-4 19 -6 863.371 240.889 1
6 19 -4 559.457 250.684 1
6 19 -5 475.46 205.645 1
-5 19 -6 209.087 79.5815 1
5 6 -19 402.551 208.405 1
6 19 -6 1387.73 308.767 1
6 6 -19 1279.7 288.141 1
-6 19 -6 1435.18 291.961 1
7 6 -19 449.795 201.046 1
6 19 -7 403.786 211.863 1
-7 19 -6 230.517 135.528 1
7 5 -19 584.987 202.517 1
-7 19 -5 261.741 111.855 1
5 19 -7 473.442 216.291 1
7 4 -19 760.719 228.604 1
-7 19 -4 421.269 165.05 1
4 19 -7 786.697 225.67 1
7 3 -19 5570.37 530.663 1
3 19 -7 5762.6 625.276 1
-7 19 -3 5457.64 550.115 1
7 19 3 5545.8 605.547 1
7 19 2 6277.08 640.181 1
2 19 -7 6321.11 639.624 1
-7 19 -2 5930.78 555.672 1
7 2 -19 6455.75 556.242 1
-7 19 -1 270.711 125.054 1
1 19 -7 594.634 218.256 1
7 19 1 514.274 227.48 1
0 19 -7 40.1112 88.7609 1
7 19 0 88.8616 119.023 1
-1 19 -7 570.664 234.314 1
7 19 -1 63.9235 129.639 1
7 19 -2 6052.78 651.339 1
-2 19 -7 5957.56 627.814 1
-3 19 -7 5206.08 581.522 1
7 19 -3 5626.49 617.249 1
-4 19 -7 442.465 177.076 1
4 7 -19 706.178 211.817 1
7 19 -4 712.244 249.607 1
-5 19 -7 369.221 176.557 1
7 19 -5 671.498 241.933 1
5 7 -19 439.703 196.738 1
7 19 -6 271.341 124.604 1
-6 19 -7 378.018 188.961 1
6 7 -19 199.804 92.7575 1
7 19 -7 419.352 227.314 1
7 7 -19 439.962 181.87 1
-7 19 -7 704.729 257.662 1
8 7 -19 1311.04 280.696 1
-8 19 -7 1267.47 323.366 1
7 19 -8 1861.79 381.401 1
6 19 -8 1035.37 304.872 1
8 6 -19 673.476 221.979 1
-8 19 -6 790.377 250.42 1
-8 19 -5 226.786 115.869 1
5 19 -8 30.7735 154.191 1
8 5 -19 128.227 158.144 1
-8 19 -4 3503.31 466.505 1
4 19 -8 3950.81 524.846 1
8 4 -19 3920.2 465.157 1
8 19 3 403.035 187.289 1
-8 19 -3 462.57 200.7 1
3 19 -8 270.884 178.583 1
8 3 -19 164.42 92.4291 1
-8 19 -2 162.204 92.2012 1
8 19 2 -17.5422 114.437 1
2 19 -8 206.078 144.209 1
1 19 -8 -7.11205 140.432 1
8 19 1 38.4103 115.56 1
8 19 0 7129.44 711.336 1
0 19 -8 7254.22 699.604 1
-1 19 -8 -100.132 155.247 1
8 19 -1 230.75 161.847 1
-2 19 -8 78.0323 83.8059 1
8 19 -2 219.62 160.402 1
8 19 -3 296.098 186.523 1
-3 19 -8 221.502 136.562 1
4 8 -19 4158.73 526.471 1
-4 19 -8 3745.3 502.146 1
8 19 -4 4027.06 546.927 1
8 19 -5 218.655 150.573 1
5 8 -19 326.98 164.256 1
-5 19 -8 33.8121 114.012 1
8 19 -6 734.537 238.201 1
-6 19 -8 805.907 251.403 1
6 8 -19 596.749 222.022 1
-7 19 -8 1062.3 292.574 1
8 19 -7 1389.91 352.658 1
7 8 -19 1225.71 293.461 1
8 19 -8 969.275 279.112 1
-8 19 -8 817.145 262.455 1
8 8 -19 1014.13 267.987 1
8 19 -9 767.09 268.983 1
-9 19 -8 667.767 227.748 1
9 8 -19 561.003 199.233 1
9 7 -19 925.879 269.168 1
7 19 -9 796.799 254.673 1
-9 19 -7 1162.75 278.964 1
9 6 -19 1282.07 296.415 1
6 19 -9 1155.44 331.932 1
-9 19 -6 1121.64 290.693 1
9 5 -19 3002.72 409.324 1
-9 19 -5 2854.59 456.841 1
5 19 -9 2878.03 466.936 1
4 19 -9 1841.01 368.84 1
-9 19 -4 2105.95 350.285 1
3 19 -9 822.626 269.733 1
-9 19 -3 504.139 184.565 1
2 19 -9 472.822 132.093 1
9 19 2 589.271 215.118 1
9 19 1 3814.79 530.766 1
1 19 -9 3980.83 538.669 1
9 19 0 10707 888.601 1
0 19 -9 11325.7 897.122 1
9 19 -1 3451.65 506.813 1
-1 19 -9 3473.25 481.118 1
-2 19 -9 514.501 197.614 1
9 19 -2 505.881 243.621 1
3 9 -19 793.181 251.624 1
9 19 -3 527.498 184.984 1
-3 19 -9 848.473 236.394 1
9 19 -4 2042.21 387.982 1
4 9 -19 2077.68 380.303 1
-4 19 -9 2134.13 380.047 1
-5 19 -9 3125.45 479.559 1
9 19 -5 2974.23 470.896 1
5 9 -19 2612.96 452.687 1
6 9 -19 831.403 250.368 1
9 19 -6 1181.39 293.577 1
-6 19 -9 779.158 226.483 1
7 9 -19 612.981 199.469 1
-7 19 -9 1172.65 292.166 1
9 19 -7 862.587 262.978 1
9 19 -8 494.213 205.218 1
8 9 -19 753.371 208.964 1
-8 19 -9 1067.84 291.754 1
9 19 -9 53.9345 92.4312 1
9 9 -19 111.815 91.8753 1
-9 9 19 162.622 75.5521 2
-9 19 -9 -97.8035 109.748 1
-9 -10 19 83.1032 79.0197 2
10 9 -19 103.65 94.3537 1
-10 9 19 193.711 117.091 2
9 19 -10 391.263 187.79 1
8 19 -10 1495.02 385.741 1
-10 19 -8 1342.81 314.574 1
10 8 -19 1174.47 300.713 1
-10 8 19 1558.25 251.244 2
10 7 -19 1821.49 368.255 1
-10 19 -7 1659.4 349.715 1
7 19 -10 1421.33 336.149 1
6 19 -10 465.644 219.58 1
10 6 -19 301.339 160.033 1
-10 19 -6 497.977 188.599 1
-10 19 -5 108.944 111.395 1
5 19 -10 173.143 150.365 1
4 19 -10 1439.18 346.488 1
-10 19 -4 1460.2 283.026 1
3 19 -10 746.811 219.769 1
2 19 -10 3979.81 566.515 1
1 19 -10 204.818 157.065 1
10 19 1 228.829 135.327 1
0 19 -10 650.843 201.372 1
10 19 0 684.419 230.225 1
-1 19 -10 -38.91 136.863 1
10 19 -1 141.047 130.102 1
-2 19 -10 4568.24 574.975 1
10 19 -2 4538.41 600.874 1
10 19 -3 869.705 257.848 1
3 10 -19 1081.58 323.697 1
-3 19 -10 1015.17 277.585 1
10 19 -4 1474.98 337.755 1
-4 19 -10 1414.54 333.784 1
4 10 -19 1864.4 373.251 1
5 10 -19 148.648 99.9793 1
-5 19 -10 -18.2358 143.964 1
10 19 -5 218.485 179.161 1
6 10 -19 403.272 160.871 1
-6 19 -10 456.099 200.456 1
10 19 -6 299.945 174.086 1
7 10 -19 1512.74 326.922 1
10 19 -7 1746.48 363.07 1
-7 19 -10 1416.07 319.897 1
-8 10 19 1123.24 198.336 2
8 10 -19 1089.96 329.572 1
10 19 -8 1371.33 324.343 1
-8 19 -10 1071.23 247.593 1
-9 10 19 229.561 149.07 2
10 19 -9 315.75 252.602 1
9 10 -19 7.53709 97.0574 1
10 10 -19 2204.29 419.261 1
10 19 -10 2062.36 417.035 1
-10 10 19 2268.41 313.832 2
-10 -10 19 2080.05 294.191 2
10 19 -11 1891.58 393.998 1
11 10 -19 1580.19 358.561 1
-10 -11 19 1819.6 279.826 2
-11 10 19 1884.64 283.658 2
9 19 -11 121.439 132.281 1
11 9 -19 144.854 75.9845 1
-9 -11 19 313.458 88.2293 2
-11 9 19 337.765 141.284 2
8 19 -11 692.072 254.348 1
-11 8 19 615.81 164.749 2
-8 -11 19 872.754 201.936 2
11 8 -19 1129.99 298.219 1
7 19 -11 1360.21 362.32 1
-11 19 -7 1478.06 334.351 1
11 7 -19 1338.5 319.927 1
-7 -11 19 1109.19 200.533 2
-11 7 19 1192.74 219.695 2
6 19 -11 1358.88 323.53 1
-11 19 -6 1086.19 283.262 1
-11 19 -5 1411.84 290.437 1
5 19 -11 2013.91 411.107 1
4 19 -11 1244.94 313.158 1
3 19 -11 3272.6 515.235 1
2 19 -11 5501.91 653.861 1
11 19 1 1875.65 392.383 1
1 19 -11 1957.1 392.868 1
0 19 -11 989.726 286.316 1
11 19 0 832.394 246.797 1
11 19 -1 1981.81 405.804 1
-1 19 -11 1590.39 345.944 1
-2 19 -11 5415.2 634.63 1
2 11 -19 5517.93 647.831 1
11 19 -2 5845.23 668.875 1
-3 19 -11 2862.32 479.116 1
11 19 -3 3232.69 521.727 1
3 11 -19 3160.53 483.008 1
-4 19 -11 1218.86 318.009 1
4 11 -19 1191.77 300.506 1
11 19 -4 1209.58 338.668 1
5 11 -19 1534.31 352.553 1
11 19 -5 1633.98 393.839 1
-5 19 -11 1838.69 349.832 1
-6 11 19 1072.36 211.712 2
6 11 -19 1227.49 274.133 1
-6 19 -11 1112.96 301.777 1
11 19 -6 1297.69 356.102 1
11 19 -7 1151.51 323.647 1
7 11 -19 1408.61 330.187 1
-7 19 -11 1162.27 320.14 1
-7 11 19 1256.23 221.105 2
-8 11 19 994.844 229.777 2
8 11 -19 994.001 308.66 1
11 19 -8 747.075 278.285 1
-8 19 -11 615.634 206.406 1
-11 -9 19 -13.8027 93.5782 2
-9 11 19 181.97 126.476 2
9 11 -19 81.8969 83.2746 1
11 19 -9 287.956 200.521 1
10 11 -19 2087.24 426.576 1
-11 -10 19 1901.42 278.814 2
-10 11 19 2048.4 299.343 2
11 19 -10 1706.55 416.172 1
-11 -11 19 194.786 184.005 2
11 11 -19 -107.745 130.611 1
11 19 -11 113.656 101.798 1
-11 -12 19 368.43 163.908 2
-12 11 19 390.88 157.505 2
11 19 -12 364.988 213.944 1
12 11 -19 390.662 172.15 1
10 19 -12 311.897 217.984 1
-10 -12 19 295.496 138.536 2
-12 10 19 445.845 155.761 2
12 10 -19 437.479 172.488 1
12 9 -19 1266.98 329.391 1
9 19 -12 1069.83 337.564 1
-9 -12 19 740.846 151.882 2
-12 9 19 997.032 184.761 2
-8 -12 19 3912.63 403.954 2
8 19 -12 3326.26 562.453 1
12 8 -19 3616.62 500.938 1
-12 8 19 3442.44 375.406 2
-12 19 -7 188.563 126.474 1
-7 -12 19 51.9104 83.2861 2
7 19 -12 373.61 169.973 1
-12 7 19 343.9 114.153 2
-12 6 19 3529.32 348.033 2
6 19 -12 4166.79 587.917 1
-12 19 -6 3604.49 484.345 1
-6 -12 19 4150.46 434.915 2
-5 -12 19 728.553 159.148 2
5 19 -12 909.609 317.044 1
4 19 -12 115.827 195.321 1
-4 -12 19 147.872 99.4051 2
3 19 -12 435.053 152.55 1
2 19 -12 1512.28 353.982 1
1 19 -12 813 286.227 1
0 19 -12 900.945 284.828 1
12 19 0 959.536 333.227 1
-1 19 -12 831.177 272.189 1
12 19 -1 1252.84 346.653 1
1 12 -19 1103.48 294.489 1
-2 19 -12 1632.01 359.219 1
2 12 -19 1711.53 385.649 1
12 19 -2 1106.81 291.491 1
12 19 -3 570.424 274.262 1
-3 19 -12 714.08 250.197 1
3 12 -19 384.387 179.339 1
-4 12 19 103.582 76.6892 2
-4 19 -12 227.888 179.082 1
12 19 -4 185.317 188.268 1
4 12 -19 3.203 96.2055 1
5 12 -19 972.086 293.375 1
-5 12 19 844.393 193.366 2
12 19 -5 743.14 257.271 1
-5 19 -12 958.297 281.34 1
-6 12 19 3796.47 389.666 2
-6 19 -12 3961.22 577.773 1
6 12 -19 3962.01 571.409 1
12 19 -6 3816.64 567.746 1
12 19 -7 171.674 180.637 1
7 12 -19 392.064 241.053 1
-7 12 19 283.238 122.603 2
-7 19 -12 522.965 214.112 1
8 12 -19 3616.43 542.489 1
-8 12 19 3424.35 377.091 2
-12 -8 19 3183.65 352.118 2
-8 19 -12 3438.15 544.499 1
12 19 -8 3046.76 518.865 1
-12 -9 19 908.025 197.657 2
-9 12 19 895.671 203.333 2
9 12 -19 1390.06 376.054 1
12 19 -9 962.6 347.356 1
10 12 -19 442.462 196.73 1
-12 -10 19 217.174 126.137 2
-10 12 19 551.761 138.027 2
12 19 -10 287.759 183.047 1
12 19 -11 265.695 175.914 1
-11 12 19 255.086 136.714 2
-12 -11 19 188.057 137.484 2
11 12 -19 187.857 148.328 1
12 12 -19 1722.39 375.642 1
19 12 -12 2017.51 418.162 1
-12 -12 19 2038.73 296.269 2
-12 12 19 1776.75 272.749 2
12 19 -12 1178.5 362.775 1
13 12 -19 -23.9492 131.494 1
-13 12 19 -105.757 72.8569 2
-12 -13 19 90.5103 129.035 2
12 19 -13 47.0174 135.941 1
13 11 -19 212.022 172.03 1
11 19 -13 164.323 140.099 1
-11 -13 19 18.9584 83.3151 2
19 13 -11 222.202 193.007 1
-13 11 19 214.194 95.7161 2
13 10 -19 613.769 228.485 1
-13 10 19 619.406 184.011 2
-10 -13 19 498.106 150.559 2
10 19 -13 374.893 185.087 1
9 19 -13 212.412 158.156 1
-9 -13 19 113.435 102.818 2
-13 9 19 249.879 127.825 2
-8 -13 19 3408.79 383.08 2
8 19 -13 3530.11 570.195 1
-13 8 19 3289.59 370.122 2
-13 7 19 1777.69 270.482 2
-7 -13 19 1412.64 247.338 2
-13 6 19 1259.27 248.409 2
-6 -13 19 947.338 223.793 2
6 19 -13 875.354 281.172 1
5 19 -13 1337.88 363.52 1
-13 5 19 884.413 183.487 2
-5 -13 19 1203.24 230.465 2
-13 4 19 1231.39 219.502 2
4 19 -13 1361.2 322.905 1
-4 -13 19 1853.98 302.807 2
3 19 -13 265.104 201.149 1
-3 -13 19 654.18 173.102 2
2 19 -13 1332.06 348.465 1
-2 -13 19 1302.52 242.277 2
1 19 -13 396.923 211.242 1
-1 -13 19 386.663 139.035 2
0 13 -19 3534.38 552.144 1
0 19 -13 3858.34 557.474 1
0 -13 19 4084.52 414.298 2
1 13 -19 473.685 206.897 1
-1 19 -13 719.604 265.642 1
13 19 -1 484.524 217.398 1
-2 13 19 1083.81 206.417 2
13 19 -2 1065.62 317.037 1
-2 19 -13 731.559 214.713 1
2 13 -19 1002.43 282.766 1
3 13 -19 583.413 235.59 1
-3 13 19 641.999 175.169 2
13 19 -3 637.944 256.563 1
-3 19 -13 897.175 321.727 1
4 13 -19 1659.03 401.173 1
13 19 -4 1732.77 386.22 1
-4 19 -13 1893.73 420.641 1
5 13 -19 862.678 254.173 1
-5 19 -13 753.739 251.944 1
13 19 -5 1146.2 349.347 1
6 13 -19 1021.93 305.485 1
-13 -6 19 985.43 196.063 2
13 19 -6 1294.4 347.772 1
-6 19 -13 887.939 255.387 1
7 13 -19 1411 369.512 1
-13 -7 19 1243.01 234.503 2
-7 19 -13 1722.27 404.113 1
-7 13 19 1753.47 283.826 2
13 19 -7 1811.1 429.645 1
8 13 -19 3698.62 581.58 1
-13 -8 19 3152.06 360.26 2
-8 13 19 3747.03 396.911 2
13 19 -8 3921.72 606.88 1
13 19 -9 -98.303 189.013 1
-13 -9 19 375.9 161.55 2
-9 13 19 613.739 273.497 2
9 13 -19 106.611 132.525 1
13 19 -10 635.411 252.61 1
-10 13 19 411.265 135.041 2
-13 -10 19 563.977 205.303 2
10 13 -19 531.305 215.438 1
19 11 -13 139.151 124.585 1
-11 13 19 -6.23841 112.427 2
13 19 -11 272.893 161.977 1
-13 -11 19 248.421 112.904 2
11 13 -19 12.9591 150.424 1
12 13 -19 -179.068 162.836 1
19 12 -13 268.816 178.988 1
-12 13 19 171.551 120.005 2
-19 12 13 169.878 68.9585 2
-13 -12 19 285.466 91.0397 2
13 19 -12 25.6106 138.212 1
19 13 -13 -60.6855 162.311 1
-13 13 19 68.4321 104.807 2
13 13 -19 64.848 112.446 1
13 19 -13 69.7029 94.589 1
13 19 -14 970.067 338.163 1
14 13 -19 456.314 204.683 1
19 14 -13 522.77 213.963 1
-14 13 19 671.884 186.896 2
12 19 -14 290.52 172.8 1
-14 12 19 319.518 160.498 2
14 12 -19 846.571 306.397 1
19 14 -12 443.803 232.438 1
11 19 -14 362.55 139.417 1
-14 11 19 654.666 187.158 2
14 11 -19 583.641 231.861 1
19 14 -11 389.541 215.151 1
-14 10 19 832.94 232.762 2
10 19 -14 327.46 185.144 1
-14 9 19 55.6939 93.8737 2
9 19 -14 20.8622 109.676 1
-8 -14 19 1391.96 233.097 2
-14 8 19 1456.7 260.696 2
8 19 -14 1774.53 405.42 1
-14 7 19 147.425 115.596 2
7 19 -14 219.585 153.867 1
-7 -14 19 28.6475 87.2955 2
6 19 -14 2192.4 457.333 1
-14 6 19 1905.78 276.238 2
-6 -14 19 2256.64 314.372 2
5 19 -14 397.613 219.194 1
-14 5 19 466.544 124.332 2
-5 -14 19 821.016 191.883 2
4 19 -14 1694.23 373.293 1
-4 -14 19 2098.68 314.878 2
-14 4 19 1757.9 252.966 2
-14 3 19 413.077 118.419 2
3 14 19 365.974 152.439 2
3 19 -14 504.404 214.325 1
-14 2 19 209.755 141.047 2
2 19 -14 74.1809 121.719 1
2 14 19 107.446 69.4884 2
-1 14 -19 1294.94 339.779 1
1 19 -14 1047.9 316.362 1
1 14 19 1245.64 209.98 2
-14 1 19 1061.95 206.956 2
0 19 -14 0.43108 145.935 1
0 14 -19 1.31405 113.75 1
0 14 19 74.8872 79.541 2
-14 0 19 36.31 78.3638 2
-1 19 -14 1147.18 310.84 1
-1 14 19 1314.54 229.387 2
-14 -1 19 1086.44 212.806 2
1 14 -19 1276.67 376.495 1
14 19 -2 -11.8533 113.557 1
2 14 -19 13.7412 114.09 1
-14 -2 19 107.888 90.6646 2
-2 19 -14 39.8696 113.655 1
14 19 -3 230.318 142.487 1
-3 19 -14 642.045 227.277 1
-14 -3 19 526.376 142.298 2
3 14 -19 754.708 303.843 1
-14 -4 19 1996.14 288.376 2
4 14 -19 2478.82 482.077 1
14 19 -4 2461.72 455.786 1
-4 19 -14 2171.53 432.274 1
5 14 -19 688.242 267.735 1
14 19 -5 850.169 294.553 1
-14 -5 19 371.161 107.968 2
-5 19 -14 1093.33 333.174 1
6 14 -19 1925.85 431.12 1
14 19 -6 2277.92 436.584 1
-14 -6 19 1584.96 239.458 2
-6 19 -14 2133.43 450.517 1
-14 -7 19 102.383 101.005 2
-7 19 -14 -29.6059 117.323 1
14 19 -7 17.5341 183.454 1
7 14 -19 -30.7776 173.298 1
14 19 -8 1682.31 390.109 1
-14 -8 19 1429.39 246.902 2
8 14 -19 1783.48 400.918 1
9 14 -19 182.875 147.213 1
-14 -9 19 13.653 64.9823 2
14 19 -9 -83.2235 132.496 1
-10 14 19 699.144 180.233 2
-19 10 14 555.557 163.219 2
-14 -10 19 754.505 212.097 2
10 14 -19 739.38 250.165 1
14 19 -10 822.917 297.615 1
-11 14 19 634.418 201.014 2
-14 -11 19 338.114 114.351 2
14 19 -11 419.843 201.368 1
-19 11 14 91.6771 81.9016 2
19 11 -14 352.221 182.993 1
11 14 -19 214.926 218.126 1
12 14 -19 466.867 215.273 1
14 19 -12 544.223 241.949 1
19 12 -14 255.062 152.094 1
-12 14 19 487.368 172.443 2
-19 12 14 452.324 153.787 2
-14 -12 19 314.912 132.873 2
-19 13 14 826.285 219.705 2
-13 14 19 818.039 209.247 2
14 19 -13 850.167 320.949 1
13 14 -19 515.445 225.079 1
19 13 -14 215.979 91.7864 1
14 19 -14 473.704 225.509 1
-19 14 14 338.584 140.916 2
-14 14 19 370.827 105.747 2
19 14 -14 570.119 284.915 1
14 14 -19 298.079 230.833 1
-15 14 19 77.9413 84.2926 2
19 15 -14 -3.96914 107.296 1
15 14 -19 47.3511 113.788 1
19 15 -13 146.701 140.982 1
13 19 -15 1007.33 366.142 1
-15 13 19 732.703 200.896 2
15 13 -19 1126.34 329.618 1
19 15 -12 629.304 281.24 1
-15 12 19 628.292 183.471 2
12 19 -15 681.957 236.823 1
11 19 -15 -233.215 208.7 1
-15 11 19 -125.222 111.554 2
19 15 -11 -122.405 154.72 1
10 19 -15 1098.61 346.785 1
-15 10 19 925.745 214.997 2
-15 9 19 504.819 152.179 2
9 19 -15 406.143 225.136 1
8 19 -15 702.309 267.726 1
-15 8 19 897.057 214.333 2
-15 7 19 824.078 171.924 2
7 19 -15 804.398 288.002 1
6 19 -15 759.954 283.847 1
-15 6 19 841.555 192.056 2
-15 5 19 587.497 190.843 2
5 19 -15 372.134 163.214 1
-15 4 19 710.969 174.242 2
4 19 -15 637.41 259.217 1
4 15 19 631.235 161.261 2
-15 3 19 549.929 142.632 2
3 15 19 453.882 116.939 2
3 19 -15 635.68 235.346 1
-15 2 19 1276.53 228.723 2
2 19 -15 1692.02 376.536 1
2 15 19 1194.68 209.808 2
-2 15 -19 1991.65 458.022 1
-1 15 -19 137.698 176.876 1
1 19 -15 95.6104 110.117 1
1 15 19 155.63 73.5441 2
-15 1 19 58.1844 74.8316 2
0 19 -15 200.03 159.089 1
-15 0 19 216.857 104.613 2
0 15 -19 125.195 166.094 1
-15 -1 19 31.4916 93.6519 2
1 15 -19 73.9662 142.823 1
-15 -2 19 1453 247.623 2
2 15 -19 1556.45 360.751 1
-2 19 -15 1708.04 396.109 1
15 19 -3 385.692 179.647 1
3 15 -19 509.415 223.237 1
-15 -3 19 589.673 170.863 2
-3 19 -15 760.875 243.807 1
4 15 -19 972.96 333.884 1
15 19 -4 682.735 269.584 1
-15 -4 19 832.108 189.362 2
-4 19 -15 824.842 322.464 1
15 19 -5 548.5 270.015 1
5 15 -19 299.91 135.229 1
-15 -5 19 96.1915 102.175 2
-5 19 -15 354.64 218.718 1
-6 19 -15 712.82 277.34 1
15 19 -6 611.648 242.552 1
-15 -6 19 747.542 168.719 2
6 15 -19 758.651 296.833 1
7 15 -19 893.489 310.161 1
-15 -7 19 549.84 154.774 2
-7 19 -15 733.051 260.946 1
15 19 -7 954.006 328.882 1
15 19 -8 811.564 292.59 1
8 15 -19 857.368 280.521 1
-15 -8 19 964.322 214.69 2
-15 -9 19 416.027 137.103 2
9 15 -19 493.611 271.735 1
-19 9 15 278.588 107.268 2
15 19 -9 921.211 322.55 1
-15 -10 19 613.887 141.569 2
-19 10 15 652.533 152.268 2
15 19 -10 564.066 202.322 1
10 15 -19 642.255 234.413 1
-15 -11 19 83.1741 63.2327 2
-19 11 15 59.2059 89.6336 2
-11 15 19 -90.0068 132.402 2
15 19 -11 89.8625 153.062 1
12 15 -19 789.336 297.597 1
15 19 -12 735.01 240.859 1
-15 -12 19 727.789 171.394 2
-19 12 15 751.31 159.781 2
-12 15 19 951.855 205.331 2
-19 13 15 838.732 208.782 2
19 13 -15 634.231 255.592 1
-13 15 19 1309.72 274.029 2
15 19 -13 804.717 292.983 1
13 15 -19 731.268 239.057 1
15 19 -14 34.9197 161.995 1
-19 14 15 119.525 118.542 2
14 15 -19 85.2188 114.056 1
-14 15 19 50.4814 114.583 2
19 14 -15 6.30222 134.421 1
-19 15 15 271.745 152.105 2
15 19 -15 -164.836 117.548 1
19 15 -15 32.032 93.1746 1
15 15 -19 -11.4743 108.829 1
-16 15 19 831.485 225.768 2
-19 16 15 838.842 207.709 2
-16 14 19 397.986 144.778 2
19 16 -14 28.6157 154.726 1
14 19 -16 -74.6437 213.826 1
19 16 -13 -79.461 143.818 1
13 19 -16 -223.502 236.123 1
-16 13 19 -90.4616 109.197 2
-16 12 19 348.344 129.245 2
12 19 -16 272.556 196.85 1
11 19 -16 626.504 235.941 1
-16 11 19 739.869 187.646 2
19 16 -11 686.884 265.046 1
10 19 -16 353.907 162.216 1
-16 10 19 324.763 122.267 2
-16 9 19 177.241 99.5962 2
9 19 -16 -16.5436 109.728 1
8 19 -16 1077.77 319.311 1
-16 8 19 1062.14 217.699 2
-16 7 19 809.595 203.126 2
7 19 -16 580.717 191.752 1
-16 6 19 391.78 118.36 2
6 19 -16 1101.11 362.163 1
-16 5 19 1301.38 213.309 2
5 19 -16 1254.43 334.288 1
-16 4 19 301.034 114.824 2
4 16 19 282.428 99.3974 2
-16 3 19 632.217 173.661 2
3 19 -16 974.773 308.889 1
3 16 19 545.971 120.756 2
-3 16 -19 958.583 328.395 1
2 19 -16 426.217 204.648 1
-2 16 -19 435.169 252.681 1
2 16 19 331.346 143.241 2
-16 2 19 388.123 178.12 2
-1 16 -19 658.677 290.228 1
1 19 -16 861.937 289.801 1
-16 1 19 746.728 171.821 2
0 16 -19 -12.4821 167.427 1
-16 0 19 209.155 135.73 2
0 19 -16 85.7326 165.882 1
-16 -1 19 381.965 138.653 2
1 16 -19 651.722 270.926 1
-1 19 -16 927.982 313.154 1
2 16 -19 171.604 175.061 1
-16 -2 19 590.853 159.478 2
-2 19 -16 100.208 125.099 1
-3 19 -16 1362.23 377.361 1
-16 -3 19 633.41 138.562 2
3 16 -19 790.083 287.265 1
4 16 -19 512.129 180.058 1
-16 -4 19 513.111 148.568 2
-4 19 -16 581.621 273.076 1
5 16 -19 1253.29 348.707 1
-16 -5 19 1261.76 232.525 2
-5 19 -16 1299.31 394.446 1
16 19 -5 952.298 302.669 1
6 16 -19 772.068 243.834 1
16 19 -6 465.485 255.163 1
-6 19 -16 912.334 267.023 1
16 19 -7 802.544 281.445 1
-7 19 -16 775.598 255.066 1
7 16 -19 1315.16 382.165 1
-19 8 16 976.428 202.553 2
16 19 -8 751.177 276.952 1
8 16 -19 1568.2 392.031 1
9 16 -19 117.309 100.02 1
16 19 -9 -205.268 160.243 1
-19 9 16 -1.9533 99.5147 2
16 19 -10 865.281 360.301 1
10 16 -19 539.577 247.413 1
-19 10 16 507.858 165.581 2
16 19 -11 324.527 119.091 1
-19 11 16 598.144 168.155 2
11 16 -19 598.684 205.557 1
16 19 -12 525.118 279.634 1
12 16 -19 580.994 227.007 1
-12 16 19 225.051 87.6152 2
-19 12 16 558.453 186.676 2
13 16 -19 -83.5853 120.941 1
-13 16 19 -90.4561 89.1081 2
-19 13 16 262.219 162.323 2
16 19 -13 81.6403 141.367 1
16 19 -14 -63.4366 100.935 1
-19 14 16 -106.907 158.819 2
14 16 -19 23.7902 103.307 1
-19 15 16 959.598 227.528 2
-15 16 19 959.4 229.51 2
-16 16 19 2824.03 382.085 2
-19 16 16 2720.5 364.05 2
-19 17 16 65.281 93.5237 2
-17 16 19 52.1872 82.8748 2
-19 17 15 7150.43 572.973 2
-17 15 19 6837.11 581.505 2
-17 14 19 440.916 203.413 2
-17 13 19 -75.8081 137.993 2
19 17 -13 -63.9762 100.606 1
-17 12 19 317.219 152.084 2
19 17 -12 362.666 232.769 1
12 19 -17 224.367 136.736 1
-17 11 19 74.2147 81.9034 2
11 19 -17 25.4574 121.067 1
19 17 -11 209.231 128.451 1
-17 10 19 284.064 141.175 2
10 19 -17 874.15 302.269 1
-17 9 19 26.7335 93.1716 2
9 19 -17 3.60192 125.808 1
-17 8 19 1136.04 218.118 2
8 19 -17 936.453 307.313 1
-17 7 19 1257.28 244.426 2
7 19 -17 1211.07 364.717 1
-17 6 19 549.845 148.945 2
6 19 -17 775.354 267.207 1
5 19 -17 491.457 194.253 1
-17 5 19 812.884 175 2
-17 4 19 187.924 110.755 2
4 17 19 209.997 121.792 2
4 19 -17 102.009 127.663 1
-4 17 -19 -4.07481 126.961 1
-3 17 -19 189.809 142.526 1
3 19 -17 235.391 195.013 1
3 17 19 110.129 57.6456 2
-17 3 19 174.057 107.496 2
2 19 -17 149.396 120.417 1
2 17 19 -60.7348 97.9956 2
-2 17 -19 32.065 136.382 1
-17 2 19 -87.7194 81.6884 2
1 19 -17 652.566 230.278 1
-1 17 -19 710.204 303.743 1
-17 1 19 683.583 183.304 2
0 19 -17 46.3418 140.91 1
0 17 -19 33.3146 129.908 1
-17 0 19 73.6679 116.57 2
-17 -1 19 719.509 171.337 2
1 17 -19 897.211 316.225 1
-1 19 -17 1250.43 370.221 1
-2 19 -17 173.199 190.03 1
2 17 -19 353.903 262.044 1
-17 -2 19 -33.7352 140.719 2
3 17 -19 -80.9891 201.866 1
-3 19 -17 479.402 239.845 1
4 17 -19 187.307 94.5848 1
-4 19 -17 128.761 201.17 1
5 17 -19 1217.52 354.763 1
-5 19 -17 831.938 345.177 1
-6 19 -17 1094.42 319.998 1
6 17 -19 758.879 289.414 1
-7 19 -17 1172.97 345.485 1
-19 7 17 959.336 194.134 2
7 17 -19 908.298 317.253 1
17 19 -7 1018.84 332.48 1
-8 19 -17 624.881 215.403 1
-19 8 17 575.564 139.876 2
8 17 -19 748.524 258.219 1
17 19 -8 845.644 311.174 1
17 19 -9 445.932 199.961 1
-19 9 17 174.323 142.317 2
9 17 -19 595.458 245.98 1
-19 10 17 417.39 160.083 2
10 17 -19 912.291 358.913 1
17 19 -10 540.684 274.379 1
11 17 -19 223.62 157.467 1
-19 11 17 216.443 126.562 2
17 19 -11 50.4299 200.335 1
-19 12 17 -25.1204 67.1626 2
12 17 -19 -80.8445 84.8853 1
17 19 -12 112.088 148.485 1
-12 17 19 209.739 156.857 2
17 19 -13 -199.506 191.353 1
-13 17 19 -38.6774 78.0811 2
13 17 -19 228.079 174.267 1
-19 13 17 -9.73756 76.4496 2
-19 14 17 266.121 94.2099 2
-14 17 19 347.22 140.807 2
-15 17 19 7152.11 595.898 2
-19 15 17 6700.74 566.073 2
-16 17 19 116.432 130.832 2
-19 16 17 53.9612 84.4739 2
-17 17 19 98.5459 143.608 2
-19 17 17 -0.70438 82.6092 2
-19 18 17 348.251 152.409 2
-18 17 19 404.153 176.284 2
-17 19 18 333.451 140.423 2
-16 19 18 372.814 164.727 2
-19 18 16 508.453 191.11 2
-18 16 19 423.835 168.727 2
-18 15 19 365.474 152.868 2
-15 19 18 374.148 158.391 2
-18 14 19 1418.08 283.156 2
-18 13 19 2380.96 396.842 2
-18 12 19 388.543 133.534 2
11 19 -18 80.5286 115.147 1
-18 11 19 -97.79 124.061 2
10 19 -18 165.057 181.574 1
-18 10 19 146.41 132.594 2
-18 9 19 418.914 150.042 2
9 19 -18 457.408 218.006 1
-18 8 19 718.769 199.982 2
8 19 -18 623.947 241.759 1
7 19 -18 1433.42 400.977 1
-18 7 19 1449.13 243.057 2
6 19 -18 2010.68 468.322 1
-18 6 19 2006.48 292.664 2
-6 18 -19 1872.02 447.584 1
-18 5 19 563.4 190.777 2
-5 18 -19 602.354 267.405 1
5 19 -18 138.898 161.87 1
4 18 19 343.498 144.623 2
-18 4 19 274.784 137.871 2
4 19 -18 74.245 185.129 1
-4 18 -19 163.322 120.564 1
3 19 -18 2394.34 500.706 1
3 18 19 2081.56 287.534 2
-18 3 19 2152.99 286.031 2
-3 18 -19 2663.63 541.659 1
2 19 -18 1212.81 371.834 1
-2 18 -19 1373.33 386.942 1
-18 2 19 1307.94 235.631 2
1 19 -18 169.183 164.162 1
-18 1 19 96.9916 82.8838 2
0 18 -19 1332.08 410.431 1
0 19 -18 1716.14 433.982 1
-1 19 -18 202.937 193.916 1
1 18 -19 -216.148 204.118 1
2 18 -19 1444.64 377.975 1
-2 19 -18 1737.64 455.736 1
-3 19 -18 2341.71 501.722 1
3 18 -19 3201.43 569.795 1
-4 19 -18 -68.9422 132.668 1
4 18 -19 613.07 288.359 1
-19 5 18 404.509 157.089 2
-5 19 -18 458.938 227.157 1
5 18 -19 342.065 178.18 1
-19 6 18 1437.52 245.16 2
-6 19 -18 1801.88 444.454 1
6 18 -19 1764.39 435.32 1
7 18 -19 1217.44 352.839 1
-19 7 18 852.743 191.169 2
-7 19 -18 1476.45 386.082 1
-19 8 18 763.226 180.37 2
8 18 -19 668.129 224.288 1
-8 19 -18 289.065 219.162 1
-19 9 18 417.291 169.502 2
9 18 -19 1084.02 359.125 1
18 19 -9 766.341 283.419 1
-19 10 18 -174.89 153.623 2
18 19 -10 60.1755 137.616 1
10 18 -19 -12.5983 92.3845 1
11 18 -19 -280.706 245.328 1
-19 11 18 -55.9283 86.75 2
18 19 -11 246.815 271.973 1
-19 12 18 363.26 127.636 2
-13 18 19 164.515 123.979 2
-19 13 18 336.591 176.875 2
-14 18 19 1386.09 273.233 2
-19 14 18 1155.95 227.672 2
-19 15 18 285.957 129.281 2
-15 18 19 471.867 179.729 2
-16 18 19 643.48 193.768 2
-19 16 18 453.582 161.173 2
-18 19 17 175.065 109.967 2
-19 17 18 592.578 200.615 2
-17 18 19 500.164 172.562 2
-18 18 19 136.899 84.6 2
-18 19 18 181.664 102.064 2
-19 18 18 10.7854 80.8837 2
0 19 -19 1190.46 411.809 1
-1 19 -19 117.959 140.586 1
1 19 -19 1000.24 447.213 1
-2 19 -19 4162.02 662.899 1
2 19 -19 4244.26 679.24 1
3 19 -19 1650.45 437.879 1
3 19 19 1509.23 255.152 2
-3 19 -19 1789.86 464.413 1
4 19 19 1175.73 216.3 2
-4 19 -19 1424.45 400.91 1
4 19 -19 1429.55 390.494 1
-19 4 19 1316.86 227.116 2
-5 19 -19 1573.7 420.2 1
-19 5 19 885.045 200.654 2
5 19 -19 1338.1 378.065 1
-19 6 19 2021.26 288.997 2
6 19 -19 2130.67 450.632 1
-6 19 -19 2149.15 503.052 1
-19 7 19 1242.8 235.269 2
-7 19 -19 1496.11 366.567 1
7 19 -19 730.288 266.607 1
8 19 -19 523.237 168.791 1
-19 8 19 762.828 193.106 2
-8 19 -19 1089.18 385.102 1
9 19 -19 803.644 264.607 1
-19 9 19 1752.34 290.841 2
-9 19 -19 1912.75 459.431 1
-19 10 19 960.495 229.943 2
-19 11 19 -232.722 152.88 2
-19 12 19 190.131 110.808 2
-19 13 19 1331.82 252.506 2
-13 19 19 1223.21 262.058 2
-19 14 19 -8.95132 104.475 2
-14 19 19 213.927 141.629 2
-19 15 19 43.5557 125.774 2
-15 19 19 -217.054 151.612 2
-16 19 19 -138.371 120.629 2
-19 16 19 -11.4103 113.846 2
-19 19 16 88.3663 106.499 2
-19 17 19 7264.64 587.203 2
-19 19 17 6861.89 570.463 2
-17 19 19 6237.81 555.63 2
-19 18 19 458.066 171.572 2
-18 19 19 358.266 178.315 2
-19 19 18 279.45 113.304 2
-19 19 19 168.424 123.894 2
0 20 0 3197.01 433.69 1
0 20 -1 376.029 155.885 1
-1 20 0 362.499 153.075 1
0 20 1 300.542 136.401 1
1 20 0 210.705 146.115 1
1 20 -1 3898.63 502.216 1
-1 20 -1 4203.37 498.227 1
-1 20 1 3966.56 467.183 1
1 20 1 3976.1 480.208 1
-2 20 -1 2664.81 393.719 1
1 20 -2 2855.06 418.463 1
2 20 1 3178.26 440.455 1
-1 20 2 2773.23 380.725 1
2 20 0 332.29 160.956 1
0 20 -2 227.556 126.515 1
-2 20 0 405.808 134.932 1
0 20 2 173.442 131.411 1
1 20 2 2955.07 405.316 1
2 20 -1 2901.65 421.431 1
-2 20 1 2707.6 377.988 1
-1 20 -2 2987.54 430.033 1
2 20 2 3801.83 470.379 1
2 20 -2 3862.71 487.18 1
-2 20 -2 3330.1 437.83 1
-2 20 2 4169.56 459.495 1
-2 20 3 517.54 166.148 1
-3 20 -2 420.224 179.919 1
2 20 -3 364.882 181.417 1
3 20 2 374.289 174.492 1
3 20 1 661.009 213.572 1
-3 20 -1 702.989 202.74 1
-1 20 3 630.226 183.592 1
1 20 -3 851.758 248.523 1
0 20 -3 4680.29 527.881 1
-3 20 0 4461.24 497.782 1
0 20 3 4585.71 502.448 1
3 20 0 4471.69 538.537 1
-3 20 1 992.959 236.73 1
-1 20 -3 955.224 247.645 1
3 20 -1 711.677 222.489 1
1 20 3 837.869 224.373 1
3 20 -2 715.251 244.699 1
-3 20 2 339.006 144.63 1
-2 20 -3 518.355 204.532 1
2 20 3 413.642 183.398 1
-3 20 -3 11782.1 841.205 1
3 20 3 11207 831.069 1
3 20 -3 12650 920.662 1
4 20 3 1926.85 360.629 1
-4 20 -3 1952.66 337.231 1
3 20 -4 2000.74 362.419 1
-4 20 -2 1750.6 318.414 1
2 20 -4 1581.11 327.041 1
4 20 2 1399.49 310.362 1
-1 20 4 1889.9 322.209 1
4 20 1 2084.52 376.887 1
1 20 -4 1965.06 363.051 1
-4 20 -1 1563.55 297.331 1
0 20 -4 920.721 246.651 1
0 20 4 1201.75 256.236 1
-4 20 0 1209.42 273.437 1
4 20 0 1244.75 299.631 1
-4 20 1 1657.06 283.838 1
-1 20 -4 1511.05 321.63 1
1 20 4 1566.72 309.506 1
4 20 -1 1822.74 355.715 1
-2 20 -4 1446.6 295.864 1
4 20 -2 1318.04 306.963 1
2 20 4 1488.35 291.495 1
3 20 4 1721.95 333.139 1
-3 20 -4 1819.74 345.371 1
4 20 -3 1571.61 322.394 1
4 20 -4 162.823 129.228 1
-4 20 -4 132.434 143.944 1
4 20 4 8.07204 84.6926 1
-5 20 -4 930.459 227.737 1
5 20 4 1504.95 331.818 1
5 4 -20 1108.22 261.535 1
4 20 -5 1095.35 294.085 1
-5 20 -3 1337.26 284.653 1
3 20 -5 1459.04 309.408 1
5 3 -20 1866.75 337.762 1
5 20 3 1803.81 367.383 1
5 20 2 2601.62 413.934 1
-5 20 -2 2557.13 391.797 1
2 20 -5 2622.41 440.585 1
5 2 -20 2889.1 387.054 1
-5 20 -1 6146.25 582.98 1
5 20 1 6079.82 638.54 1
5 1 -20 5651.25 535.022 1
1 20 -5 5898.15 623.057 1
0 20 5 1820.25 319.359 1
-5 20 0 2152.8 331.886 1
0 20 -5 2020.5 358.557 1
5 20 0 1886.75 374.504 1
-1 20 -5 5747.8 614.462 1
1 20 5 6129.15 577.359 1
5 20 -1 6038.25 628.744 1
-2 20 -5 2495.86 434.227 1
5 20 -2 2636.05 446.595 1
-3 20 -5 1566.96 329.082 1
5 20 -3 1711.82 345.452 1
-4 20 -5 919.34 232.784 1
5 20 -4 1207.93 310.431 1
-5 20 -5 6137.18 625.328 1
5 5 -20 6240.97 627.294 1
5 20 -5 6508.07 689.651 1
-6 20 -5 399.307 158.905 1
6 5 -20 446.684 204.407 1
5 20 -6 422.734 171.862 1
6 4 -20 1811.05 389.433 1
4 20 -6 2454.74 431.569 1
-6 20 -4 2514.87 384.901 1
-6 20 -3 1172.74 276.582 1
6 20 3 1017.99 241.301 1
3 20 -6 1145.55 309.824 1
6 3 -20 1047.2 262.629 1
6 20 2 563.338 201.287 1
2 20 -6 769.247 275.121 1
-6 20 -2 724.768 205.224 1
1 20 -6 3258.01 482.7 1
-6 20 -1 2634.15 371.986 1
6 20 1 2931.12 441.75 1
6 20 0 1255.15 297.744 1
0 20 -6 890.039 226.102 1
-1 20 -6 2990.13 457.505 1
6 20 -1 3006.83 469.827 1
-2 20 -6 642.391 235.933 1
6 20 -2 548.821 219.503 1
-3 20 -6 762.571 223.86 1
6 20 -3 850.697 266.043 1
6 20 -4 2497.88 428.084 1
-4 20 -6 2708.97 447.276 1
4 6 -20 2867.14 421.429 1
6 20 -5 517.676 190.059 1
5 6 -20 585.873 210.382 1
-5 20 -6 604.261 235.3 1
-6 20 -6 300.952 155.485 1
6 20 -6 148.063 170.008 1
6 6 -20 42.3702 86.6798 1
7 6 -20 453.015 202.388 1
6 20 -7 601.595 235.762 1
-7 20 -6 476.577 161.126 1
7 5 -20 1593.16 329.847 1
-7 20 -5 1267.14 296.703 1
5 20 -7 1170.17 304.366 1
7 4 -20 -35.8268 110.666 1
-7 20 -4 174.454 185.012 1
4 20 -7 -102.214 125.328 1
7 20 3 6223.37 672.35 1
3 20 -7 6965.74 715.763 1
-7 20 -3 6624.19 618.408 1
2 20 -7 826.485 243.706 1
-7 20 -2 583.317 196.323 1
7 20 2 718.51 211.204 1
1 20 -7 5065.45 592.632 1
7 20 1 5307.91 615.42 1
0 20 -7 473.347 213.283 1
7 20 0 386.668 221.916 1
7 20 -1 5646.64 642.711 1
-1 20 -7 5123.28 605.688 1
-2 20 -7 706.035 204.167 1
7 20 -2 422.207 214.724 1
7 20 -3 6803.54 713.558 1
-3 20 -7 6579.61 664.497 1
-4 20 -7 -116.655 143.88 1
7 20 -4 18.2387 100.095 1
4 7 -20 -20.3349 97.6623 1
-5 20 -7 1211.71 281.945 1
7 20 -5 1175.78 289.79 1
5 7 -20 1351.35 311.263 1
7 20 -6 560.356 210.572 1
6 7 -20 543.876 183.64 1
-6 20 -7 611.504 240.734 1
7 7 -20 143.443 135.002 1
7 20 -7 58.9711 99.8625 1
-7 20 -7 18.8988 73.0349 1
7 20 -8 22.0077 141.513 1
8 7 -20 -79.6517 108.481 1
-8 20 -7 -119.103 167.994 1
6 20 -8 469.411 241.542 1
8 6 -20 186.432 138.388 1
-8 20 -6 525.766 285.118 1
-8 20 -5 160.072 168.162 1
5 20 -8 -58.4769 107.555 1
8 5 -20 65.003 62.6834 1
4 20 -8 3062.17 488.558 1
-8 20 -4 2912.38 415.445 1
3 20 -8 2973.36 475.363 1
-8 20 -3 2574.3 371.256 1
8 20 2 1922.5 381.872 1
2 20 -8 2253.13 435.887 1
1 20 -8 4333.96 568.568 1
8 20 1 4400.36 588.816 1
8 20 0 2923.78 471.266 1
0 20 -8 3323.49 496.475 1
8 20 -1 4259.66 576.507 1
-1 20 -8 4366.47 552.59 1
-2 20 -8 2130.89 382.6 1
8 20 -2 2177.39 413.336 1
8 20 -3 2844.89 480.297 1
3 8 -20 2972.37 462.839 1
-3 20 -8 3025.09 462.063 1
-4 20 -8 3496.56 502.411 1
4 8 -20 3094.84 457.077 1
8 20 -4 3103.12 504.913 1
8 20 -5 32.4594 166.546 1
-5 20 -8 28.7302 101.531 1
5 8 -20 45.4854 79.1502 1
-6 20 -8 27.5359 100.685 1
6 8 -20 177.065 77.5289 1
8 20 -6 259.203 112.806 1
8 20 -7 240.676 203.503 1
7 8 -20 -44.6458 93.7503 1
-7 20 -8 -94.8687 118.411 1
8 20 -8 118.074 101.532 1
8 8 -20 23.7952 80.8807 1
-8 8 20 156.696 69.8231 2
-8 20 -8 45.9482 140.481 1
-9 20 -8 66.2219 114.214 1
8 20 -9 -146.24 166.767 1
9 8 -20 560.144 211.319 1
-9 8 20 315.307 152.411 2
-8 -9 20 186.396 100.647 2
-9 20 -7 267.895 113.389 1
-7 -9 20 287.233 145.3 2
9 7 -20 62.8872 108.755 1
-9 7 20 196.577 94.0032 2
7 20 -9 426.93 239.991 1
6 20 -9 695.868 230.072 1
9 6 -20 922.897 261.557 1
-9 20 -6 1011 266.868 1
5 20 -9 132.098 120.503 1
-9 20 -5 -10.0598 67.2339 1
-9 20 -4 313.208 137.817 1
4 20 -9 310.996 195.536 1
3 20 -9 2132.28 415.252 1
9 20 2 257.733 194.514 1
2 20 -9 158.278 107.179 1
9 20 1 3030.28 498.774 1
1 20 -9 2657.34 455.381 1
9 20 0 198.404 155.763 1
0 20 -9 -59.9797 128.938 1
-1 20 -9 2709.27 448.694 1
9 20 -1 2648.69 464.57 1
-2 20 -9 356.236 155.386 1
9 20 -2 345.352 207.544 1
-3 20 -9 2312.29 420.762 1
9 20 -3 2254.28 442.974 1
3 9 -20 2449.08 405.812 1
4 9 -20 120.904 146.582 1
-4 20 -9 353.099 217.114 1
9 20 -4 33.7322 149.047 1
-5 20 -9 27.0197 124.568 1
9 20 -5 -95.2672 139.381 1
5 9 -20 -2.98968 106.394 1
6 9 -20 959.432 267.873 1
-6 20 -9 607.836 207.155 1
9 20 -6 863.424 264.382 1
7 9 -20 446.632 199.081 1
-7 20 -9 366.804 182.696 1
9 20 -7 308.29 195.314 1
-7 9 20 414.776 172.581 2
8 9 -20 177.017 128.843 1
-8 9 20 -21.8289 71.2413 2
-9 -8 20 214.215 164.065 2
9 20 -8 124.727 141.467 1
-8 20 -9 149.467 109.308 1
9 9 -20 4046.1 556.466 1
-9 9 20 4204.76 403.859 2
9 20 -9 3761.73 573.366 1
-9 20 -9 4230.25 587.898 1
-9 -9 20 3910.79 398.917 2
9 20 -10 1066.52 325.056 1
-10 20 -9 1534.68 359.984 1
-9 -10 20 1398.78 236.68 2
10 9 -20 1471.44 357.69 1
-10 9 20 1353.59 256.528 2
8 20 -10 842.257 290.102 1
10 8 -20 756.03 223.051 1
-10 8 20 829.358 194.101 2
-8 -10 20 852.508 191.221 2
-10 20 -8 842.948 283.71 1
-7 -10 20 723.672 196.527 2
-10 7 20 675.96 186.409 2
10 7 -20 656.414 224.482 1
7 20 -10 615.79 247.239 1
-10 20 -7 575.874 191.703 1
6 20 -10 2269.08 450.849 1
-10 6 20 2364.73 316.115 2
-10 20 -6 2532.85 427.035 1
-6 -10 20 2271.15 316.483 2
-5 -10 20 242.838 125.326 2
-10 5 20 259.208 105.493 2
5 20 -10 509.663 235.377 1
-10 20 -5 336.27 168.471 1
4 20 -10 1111.59 333.737 1
3 20 -10 508.717 96.7411 1
2 20 -10 3164.22 514.467 1
10 20 1 3261.35 511.345 1
1 20 -10 3384.57 530.726 1
0 20 -10 1123.85 319.903 1
10 20 0 830.763 233.026 1
10 20 -1 3652.94 544.647 1
-1 20 -10 3346.52 499.791 1
2 10 -20 3003.35 493.052 1
-2 20 -10 3256.28 517.456 1
10 20 -2 2478.45 433.451 1
-3 20 -10 646.356 223.75 1
3 10 -20 664.003 248.814 1
10 20 -3 760.83 255.968 1
10 20 -4 1100.95 330.591 1
4 10 -20 544.174 203.815 1
-4 20 -10 715.531 249.349 1
10 20 -5 300.346 227.75 1
-5 10 20 266.069 116.531 2
-5 20 -10 50.0341 119.661 1
5 10 -20 189.03 123.629 1
-6 10 20 2318.36 304.414 2
10 20 -6 2673.59 484.977 1
-6 20 -10 2246.54 420.243 1
7 10 -20 321.068 147.557 1
-7 10 20 519.486 168.833 2
-10 -7 20 367.14 122.281 2
10 20 -7 304.689 127.14 1
-7 20 -10 715.836 269.345 1
8 10 -20 772.058 279.325 1
10 20 -8 710.817 250.217 1
-8 10 20 554.097 140.169 2
-10 -8 20 784.561 178.251 2
-8 20 -10 923.781 311.212 1
9 10 -20 1622.87 382.167 1
10 20 -9 1262.21 332.087 1
-10 -9 20 1238.28 229.234 2
-9 20 -10 861.627 286.299 1
-9 10 20 1256.18 221.488 2
-10 10 20 -42.7117 92.9104 2
-10 20 -10 144.991 184.651 1
10 10 -20 119.67 140.931 1
-10 -10 20 56.6215 92.4723 2
10 20 -10 -17.0475 136.319 1
11 10 -20 294.726 207.776 1
10 20 -11 89.9496 161.33 1
-11 10 20 26.9321 111.539 2
-11 20 -10 -22.8733 124.89 1
-10 -11 20 47.4534 104.973 2
9 20 -11 1001.73 280.42 1
-11 9 20 1028.74 228.247 2
-11 20 -9 849.863 249.368 1
11 9 -20 1123.02 279.48 1
-9 -11 20 908.649 189.04 2
-11 20 -8 777.62 282.699 1
-11 8 20 1130.78 238.308 2
-8 -11 20 791.101 205.862 2
8 20 -11 515.357 245.485 1
11 8 -20 923.108 278.551 1
-7 -11 20 4020.04 417.379 2
-11 7 20 4083.52 412.888 2
-11 20 -7 4441.12 588.957 1
7 20 -11 3551.86 556.902 1
-11 6 20 443.632 61.3056 2
-6 -11 20 472.529 165.06 2
-11 20 -6 491.162 224.615 1
6 20 -11 436.764 228.862 1
5 20 -11 342.18 172.951 1
-11 5 20 111.993 78.7771 2
-5 -11 20 316.342 198.135 2
-11 4 20 381.699 166.009 2
4 20 -11 222.63 150.929 1
-4 -11 20 302.718 143.131 2
-3 -11 20 175.123 67.9631 2
3 20 -11 101.555 126.052 1
-2 -11 20 493.577 172.637 2
2 20 -11 255.876 177.627 1
1 20 -11 1947.93 408.079 1
-1 -11 20 2031.84 295.33 2
0 20 -11 137.798 111.165 1
0 -11 20 163.726 139.988 2
11 20 0 -25.4035 108.023 1
-1 20 -11 1463.61 347.512 1
11 20 -1 1935.62 395.527 1
1 -11 20 1930.67 287.674 2
-2 20 -11 525.62 221.851 1
11 20 -2 318.824 168.986 1
2 -11 20 294.698 105.467 2
2 11 -20 266.327 161.701 1
-3 20 -11 -312.234 221.644 1
-3 11 20 113.843 99.4954 2
3 -11 20 133.325 114.961 2
3 11 -20 -45.4353 154.623 1
11 20 -3 430.154 256.209 1
11 20 -4 277.576 219.133 1
-4 20 -11 371.396 199.731 1
-4 11 20 218.917 110.045 2
4 -11 20 91.7551 99.782 2
4 11 -20 283.998 195.507 1
5 11 -20 119.09 122.337 1
-5 11 20 83.555 60.0842 2
11 20 -5 205.427 146.381 1
-11 -5 20 152.817 61.9624 2
-5 20 -11 198.766 124.088 1
6 11 -20 832.794 277.034 1
11 20 -6 707.459 268.124 1
-6 11 20 622.188 173.039 2
-11 -6 20 548.585 175.597 2
-6 20 -11 686.809 254.382 1
11 20 -7 3695.63 578.818 1
-7 11 20 3720.03 392.87 2
-11 -7 20 3729.62 389.584 2
-7 20 -11 4006.68 569.729 1
7 11 -20 3745.05 545.98 1
11 20 -8 863.193 276.1 1
-11 -8 20 952.891 211.932 2
-8 11 20 947.322 207.425 2
8 11 -20 879.232 273.761 1
-8 20 -11 976.757 272.574 1
-11 -9 20 1063.89 226.007 2
-9 11 20 1108.86 227.258 2
11 20 -9 626.286 240.821 1
-9 20 -11 819.064 298.133 1
9 11 -20 913.305 286.626 1
-10 11 20 13.5951 97.5095 2
10 11 -20 234.044 195.609 1
-10 20 -11 -61.3661 155.74 1
-11 -10 20 5.74979 84.7211 2
11 20 -10 -123.077 206.973 1
-11 -11 20 2275.32 313.148 2
11 20 -11 2145.52 461.512 1
-11 11 20 2061.36 304.568 2
-11 20 -11 1944.8 425.012 1
11 11 -20 1932.04 406.289 1
12 11 -20 244.371 142.165 1
-12 11 20 406.049 114.363 2
-11 -12 20 630.411 180.567 2
-12 20 -11 400.901 190.417 1
11 20 -12 212.182 141.042 1
12 10 -20 737.463 318.313 1
10 20 -12 444.284 247.574 1
-10 -12 20 399.865 129.322 2
-12 10 20 502.23 179.872 2
-12 20 -10 352.604 210.778 1
9 20 -12 1161.07 334.689 1
-9 -12 20 1394.96 257.377 2
-12 9 20 1843.38 293.056 2
-12 20 -9 1313.65 328.602 1
-12 8 20 1542.96 258.443 2
-8 -12 20 1538.39 281.958 2
-12 20 -8 1217.36 300.023 1
8 20 -12 1376.95 357.529 1
-7 -12 20 429.533 147.613 2
-12 7 20 355.398 123.422 2
7 20 -12 275.475 173.943 1
-12 6 20 214.743 93.4739 2
6 20 -12 451.942 241.627 1
-6 -12 20 484.138 141.456 2
-12 5 20 741.506 192.806 2
5 20 -12 319.137 109.49 1
-5 -12 20 542.893 172.209 2
-12 4 20 1782.56 268.07 2
-4 -12 20 2170.35 300.105 2
4 20 -12 2565.21 478.157 1
-12 3 20 1621.28 257.898 2
-3 -12 20 1593.42 267.583 2
3 20 -12 1793.1 411.048 1
-12 2 20 424.063 148.919 2
2 20 -12 434.559 191.763 1
-2 -12 20 259.064 91.6917 2
1 20 -12 2013.49 417.806 1
-12 1 20 2021.22 290.562 2
-1 -12 20 2130.63 302.024 2
1 12 20 1665.11 247.122 2
12 20 0 1486.19 368.093 1
0 12 20 1275.65 216.043 2
0 -12 20 1797.03 287.824 2
0 20 -12 1616.08 365.231 1
-12 0 20 1456.06 229.593 2
-1 20 -12 1971.83 427.155 1
1 -12 20 1930.29 289.228 2
-1 12 20 1761.68 281.428 2
-12 -1 20 1951.43 280.882 2
1 12 -20 2031.75 406.075 1
12 20 -1 2175.21 449.432 1
-2 20 -12 321.663 193.956 1
2 -12 20 260.689 79.3094 2
-2 12 20 519.662 152.063 2
2 12 -20 227.225 190.456 1
12 20 -2 161.265 161.344 1
-12 -2 20 147.575 82.245 2
12 20 -3 1991.07 396.229 1
3 -12 20 1867.32 302.241 2
-3 20 -12 1514.2 378.903 1
-12 -3 20 1431.94 236.13 2
-3 12 20 1730.37 256.484 2
3 12 -20 2007.11 412.061 1
-4 12 20 2147.7 306.86 2
12 20 -4 2557.58 496.087 1
4 12 -20 2022.02 401.625 1
-12 -4 20 2084.96 288.528 2
-4 20 -12 2386.13 440.689 1
5 12 -20 726.507 262.274 1
12 20 -5 805.567 270.505 1
-12 -5 20 403.935 127.227 2
-5 12 20 552.692 176.098 2
-5 20 -12 486.718 208.867 1
6 12 -20 300.993 184.767 1
12 20 -6 414.361 239.491 1
-6 12 20 454.628 144.288 2
-6 20 -12 369.176 150.405 1
-12 -6 20 462.823 157.278 2
7 12 -20 458.15 208.6 1
12 20 -7 384.516 210.775 1
-12 -7 20 364.579 109.83 2
-7 12 20 468.086 146.557 2
-7 20 -12 378.357 223.494 1
12 20 -8 1286.27 305.407 1
-12 -8 20 1947.26 341.896 2
8 12 -20 1538.68 365.615 1
-8 20 -12 1601.51 356.098 1
-8 12 20 1499.41 266.287 2
-12 -9 20 1241.78 250.136 2
-9 20 -12 1740.01 409.047 1
9 12 -20 1104.37 314.062 1
-9 12 20 1328.78 259.249 2
12 20 -9 1454.62 371.886 1
-10 20 -12 508.218 204.784 1
-10 12 20 648.983 189.16 2
10 12 -20 529.541 273.535 1
-12 -10 20 447.992 159.523 2
12 20 -10 439.178 197.792 1
11 12 -20 423.937 210.753 1
-12 -11 20 472.481 189.881 2
-11 20 -12 250.731 92.0392 1
12 20 -11 510.444 199.508 1
-11 12 20 307.977 157.34 2
-12 -12 20 149.8 132.228 2
12 20 -12 45.5899 171.128 1
-12 12 20 79.8742 83.9697 2
12 12 -20 297.212 168.533 1
13 12 -20 408.799 207.114 1
-13 12 20 478.902 123.906 2
12 20 -13 -18.9514 134.552 1
-12 -13 20 302.593 127.675 2
11 20 -13 574.763 258.397 1
-13 11 20 435.831 150.74 2
-11 -13 20 668.949 164.406 2
10 20 -13 261.384 179.928 1
-10 -13 20 361.363 137.417 2
-13 10 20 514.018 182.543 2
-13 20 -10 288.453 247.935 1
-9 -13 20 5205.6 491.894 2
-13 9 20 4644.09 449.97 2
9 20 -13 4331.43 645.469 1
-13 20 -9 3435.07 533.134 1
-8 -13 20 543.466 191.414 2
-13 8 20 501.634 160.704 2
8 20 -13 556.353 271.591 1
7 20 -13 398.303 218.793 1
-7 -13 20 340.161 105.605 2
-13 7 20 415.752 127.52 2
-13 6 20 120.852 64.5069 2
6 20 -13 267.727 189.221 1
-6 -13 20 20.4618 71.9437 2
-13 5 20 1960.25 275.308 2
5 20 -13 2472.66 458.441 1
-5 -13 20 2137.07 302.32 2
-4 -13 20 104.409 138.467 2
-13 4 20 196.036 159.26 2
4 20 -13 385.978 211.637 1
4 13 20 3.3453 79.5638 2
-13 3 20 1217.67 221.746 2
-3 -13 20 1464.86 264.524 2
3 20 -13 1290.34 344.766 1
3 13 20 1037.44 198.212 2
-13 2 20 335.362 125.061 2
2 20 -13 473.545 246.37 1
2 13 20 411.342 138.712 2
-2 -13 20 377.651 174.466 2
1 20 -13 190.299 162.689 1
1 13 20 175.44 107.931 2
-1 -13 20 217.305 109.794 2
-13 1 20 128.151 96.8523 2
0 20 -13 1047.74 338.427 1
0 -13 20 977.729 228.087 2
0 13 20 761.165 160.355 2
0 13 -20 640.042 237.027 1
-13 0 20 974.218 206.383 2
-1 20 -13 -38.1116 156.584 1
1 13 -20 -52.3963 167.883 1
-1 13 20 -89.7571 57.7266 2
-13 -1 20 228.192 115.292 2
13 20 -1 -107.145 174.785 1
13 20 -2 298.388 199.75 1
-2 13 20 449.004 153.287 2
-13 -2 20 276.123 103.114 2
2 13 -20 194.544 107.322 1
-2 20 -13 556.272 274.401 1
-13 -3 20 1322.31 228.244 2
-3 13 20 1275.96 244.278 2
13 20 -3 1428.81 376.6 1
3 13 -20 1501.28 361.735 1
-3 20 -13 1355.66 361.771 1
4 13 -20 258.016 91.2652 1
-4 13 20 88.6699 75.9678 2
-13 -4 20 15.8264 70.1343 2
13 20 -4 361.997 236.134 1
-4 20 -13 320.327 192.779 1
5 13 -20 2188.2 453.261 1
-5 13 20 2228.03 303.238 2
-13 -5 20 1919.6 269.2 2
13 20 -5 2231.08 450.316 1
-5 20 -13 2473.73 478.555 1
6 13 -20 78.3856 131.11 1
-6 13 20 223.115 104.725 2
13 20 -6 7.38779 117.468 1
-13 -6 20 -34.4609 69.7211 2
-6 20 -13 289.503 182.773 1
-7 13 20 545.77 157.94 2
7 13 -20 370.612 167.114 1
-7 20 -13 612.172 273.937 1
-13 -7 20 435.104 134.427 2
13 20 -7 351.264 197.856 1
-8 20 -13 558.486 267.74 1
13 20 -8 607.406 232.028 1
-13 -8 20 468.027 159.72 2
8 13 -20 369.224 219.343 1
-8 13 20 633.139 188.499 2
9 13 -20 4262.97 629.02 1
13 20 -9 4352.46 660.035 1
-13 -9 20 3848.59 404.307 2
-9 20 -13 4303.42 633.263 1
-9 13 20 4153.15 425.685 2
13 20 -10 121.365 197.051 1
-10 13 20 429.268 170.096 2
10 13 -20 281.642 180.372 1
-13 -10 20 390.105 151.859 2
-10 20 -13 776.211 318.532 1
13 20 -11 720.789 298.141 1
11 13 -20 530.253 250.978 1
-11 13 20 546.075 170.794 2
-11 20 -13 553.133 217.025 1
-13 -11 20 605.519 173.967 2
12 13 -20 -177.81 195.289 1
-13 -12 20 183.711 92.2147 2
-12 13 20 161.473 115.47 2
13 20 -12 380.839 200.11 1
13 13 -20 632.93 256.303 1
13 20 -13 663.367 272.138 1
-13 13 20 787.195 203.854 2
-20 13 13 437.462 155.153 2
-20 14 13 322.251 114.944 2
-14 13 20 385.831 154.04 2
13 20 -14 500.264 227.757 1
-14 12 20 197.808 169.971 2
12 20 -14 19.3359 125.68 1
-14 11 20 1029.59 221.94 2
11 20 -14 1243.73 383.626 1
10 20 -14 205.84 241.163 1
-14 10 20 226.099 91.9943 2
9 20 -14 62.2919 175.263 1
-14 9 20 539.595 219.784 2
-14 8 20 780.948 193.247 2
8 20 -14 580.9 256.338 1
-7 -14 20 2066.27 301.576 2
-14 7 20 2040.19 310.418 2
7 20 -14 1741.28 397.674 1
-14 6 20 741.73 184.773 2
-6 -14 20 890.183 214.304 2
6 20 -14 785.251 267.149 1
-5 -14 20 253.041 117.214 2
-14 5 20 178.303 102.035 2
5 20 -14 552.88 223.823 1
-14 4 20 704.186 184.075 2
4 14 20 731.185 169.262 2
4 20 -14 757.948 316.069 1
-14 3 20 281.567 132.998 2
3 14 20 4.95316 72.353 2
3 20 -14 105.919 120.228 1
-14 2 20 479.115 141.665 2
2 20 -14 306.566 170.326 1
2 14 20 412.69 167.831 2
1 20 -14 1291.53 340.798 1
-1 14 -20 1491.52 389.885 1
1 14 20 1184.11 229.824 2
-14 1 20 1070.06 220.73 2
0 14 -20 -131.6 110.331 1
0 14 20 -2.52524 83.5969 2
-14 0 20 106.718 114.368 2
-1 20 -14 1326.74 383.407 1
1 14 -20 967.441 337.147 1
-1 14 20 1282.72 228.395 2
-14 -1 20 1017.15 208.715 2
-2 20 -14 2.72201 149.418 1
14 20 -2 39.4316 98.0969 1
-2 14 20 331.47 143.156 2
-14 -2 20 313.914 96.3654 2
2 14 -20 532.774 270.491 1
-14 -3 20 58.7056 89.903 2
-3 14 20 162.405 136.948 2
14 20 -3 287.343 180.051 1
-3 20 -14 88.8182 161.456 1
3 14 -20 97.2724 150.138 1
4 14 -20 1098.45 316.351 1
14 20 -4 1080.64 315.17 1
-14 -4 20 727.039 179.105 2
-4 14 20 1011.14 210.331 2
-4 20 -14 1039.55 333.018 1
-5 20 -14 6.09319 167.268 1
5 14 -20 307.954 158.498 1
-14 -5 20 281.064 110.503 2
-5 14 20 417.157 165.311 2
14 20 -5 241.852 153.306 1
6 14 -20 577.744 240.446 1
14 20 -6 673.612 236.253 1
-14 -6 20 750.719 196.452 2
-6 14 20 664.044 189.667 2
-6 20 -14 514.926 220.123 1
14 20 -7 2202.12 465.622 1
-7 20 -14 1550.12 368.073 1
-14 -7 20 1490.16 240.733 2
7 14 -20 1769.7 423.108 1
-7 14 20 2278.57 347.874 2
14 20 -8 738.296 291.432 1
-8 20 -14 1286.5 433.026 1
-8 14 20 731.393 220.888 2
-14 -8 20 652.76 178.981 2
8 14 -20 470.103 209.432 1
-9 20 -14 222.526 237.884 1
-14 -9 20 273.034 137.76 2
-9 14 20 359.76 152.723 2
9 14 -20 82.4424 90.5289 1
14 20 -9 58.253 147.226 1
-14 -10 20 80.074 117.2 2
10 14 -20 223.703 160.75 1
14 20 -10 -133.336 174.827 1
-10 14 20 149.477 83.9386 2
-10 20 -14 82.5452 106.071 1
-11 14 20 1368.91 279.208 2
-14 -11 20 1110.15 215.575 2
14 20 -11 1617.39 420.717 1
11 14 -20 911.706 280.513 1
12 14 -20 184.675 128.276 1
14 20 -12 -163.911 194.693 1
-12 14 20 216.294 120.614 2
-14 -12 20 138.093 112.096 2
-20 12 14 -37.8399 71.1396 2
14 20 -13 475.786 250.93 1
-20 13 14 403.928 113.341 2
-13 14 20 496.216 152.626 2
13 14 -20 116.182 116.055 1
14 20 -14 1043.94 308.74 1
-14 14 20 1379.28 272.014 2
14 14 -20 967.837 316.216 1
-20 14 14 1117.78 227.925 2
-15 14 20 736.182 222.844 2
-20 15 14 652.528 177.894 2
13 20 -15 707.477 314.539 1
-15 13 20 585.118 167.805 2
-15 12 20 394.108 181.672 2
12 20 -15 274.48 190.158 1
-15 11 20 317.527 150.261 2
11 20 -15 234.573 197.447 1
10 20 -15 486.527 247.619 1
-15 10 20 446.284 163.135 2
9 20 -15 203.401 246.07 1
-15 9 20 171.314 88.7372 2
-15 8 20 -36.8077 79.8126 2
8 20 -15 288.098 148.507 1
-15 7 20 1878.49 289.591 2
7 20 -15 1677.13 401.965 1
-15 6 20 638.262 211.987 2
6 20 -15 450.591 237.217 1
-15 5 20 121.41 105.002 2
5 20 -15 391.902 222.506 1
-15 4 20 1799.15 268.992 2
4 15 20 1308.17 212.913 2
4 20 -15 2118.82 440.929 1
-15 3 20 216.523 114.801 2
3 15 20 418.586 158.445 2
3 20 -15 260.522 143.66 1
2 20 -15 137.922 165.627 1
2 15 20 156.519 106.862 2
-2 15 -20 140.646 197.497 1
-15 2 20 287.975 130.164 2
1 15 20 447.074 131.594 2
1 20 -15 781.056 285.92 1
-1 15 -20 509.324 186.686 1
-15 1 20 568.122 179.594 2
0 20 -15 331.418 142.828 1
0 15 20 55.7299 90.706 2
0 15 -20 241.925 113.84 1
-15 0 20 209.114 134.122 2
-15 -1 20 447.554 131.352 2
-1 20 -15 503.264 235.221 1
-1 15 20 420.071 121.323 2
1 15 -20 720.365 282.725 1
-2 20 -15 -1.41684 107.761 1
-2 15 20 217.537 131.531 2
-15 -2 20 236.83 120.262 2
2 15 -20 -107.629 168.652 1
3 15 -20 360.521 193.017 1
-15 -3 20 458.771 127.016 2
-3 15 20 553.347 146.328 2
-3 20 -15 775.712 279.161 1
4 15 -20 2151.69 442.851 1
-15 -4 20 1771.74 274.457 2
-4 15 20 1861.7 286.642 2
15 20 -4 2246.74 501.638 1
-4 20 -15 1952.41 453.05 1
15 20 -5 448.289 224.076 1
5 15 -20 332.654 255.122 1
-5 15 20 443.586 145.579 2
-15 -5 20 451.521 170.317 2
-5 20 -15 673.888 292.835 1
6 15 -20 83.8569 132.88 1
-15 -6 20 318.782 89.4478 2
-6 20 -15 255.747 236.937 1
-6 15 20 300.634 130.441 2
-7 15 20 1776.89 291.986 2
7 15 -20 1674.02 414.165 1
15 20 -7 1888.12 469.038 1
-7 20 -15 1903.91 396.457 1
-15 -7 20 1736.82 266.419 2
-8 20 -15 -137.994 116.119 1
15 20 -8 63.2095 111.796 1
8 15 -20 332.519 223.002 1
-15 -8 20 -52.3443 104.853 2
-8 15 20 56.1904 131.758 2
-9 20 -15 273.998 235.126 1
15 20 -9 -44.1274 176.976 1
-9 15 20 150.715 87.5832 2
-15 -9 20 29.2902 98.1368 2
9 15 -20 -84.6297 219.175 1
-10 15 20 543.203 188.733 2
-10 20 -15 478.327 290.558 1
-15 -10 20 465.231 177.136 2
10 15 -20 326.001 141.771 1
15 20 -10 429.223 238.312 1
-15 -11 20 372.863 147.196 2
-11 15 20 430.517 159.995 2
15 20 -11 363.813 234.174 1
-20 11 15 161.128 113.969 2
11 15 -20 145.113 109.155 1
12 15 -20 261.339 172.615 1
-15 -12 20 35.9892 72.8701 2
-12 15 20 204.015 135.741 2
-20 12 15 153.307 72.247 2
15 20 -12 43.092 140.537 1
-20 13 15 979.529 220.095 2
-13 15 20 739.453 207.416 2
15 20 -13 964.647 344.594 1
-14 15 20 744.782 220.072 2
-20 14 15 311.241 112.394 2
-20 15 15 1003.48 243.005 2
-15 15 20 828.758 194.372 2
-16 15 20 188.906 139.777 2
-20 16 15 10.3149 86.1518 2
-16 14 20 1576.73 269.135 2
-20 16 14 1260.25 229.057 2
-16 13 20 940.201 236.126 2
-16 12 20 657.453 169.797 2
12 20 -16 553.399 281.644 1
11 20 -16 77.8631 111.595 1
-16 11 20 146.787 114.907 2
10 20 -16 47.231 140.28 1
-16 10 20 43.235 80.9288 2
-16 9 20 1504.17 257.546 2
9 20 -16 1771.59 446.047 1
-16 8 20 586.636 183.508 2
8 20 -16 678.094 285.033 1
-16 7 20 826.398 179.327 2
7 20 -16 553.763 221.898 1
-16 6 20 625.701 187.591 2
6 20 -16 219.788 168.527 1
-16 5 20 430.109 155.408 2
5 20 -16 742.447 277.379 1
-16 4 20 435.523 193.235 2
4 20 -16 580.952 225.993 1
4 16 20 287.019 113.154 2
3 20 -16 708.396 301.71 1
3 16 20 820.802 182.27 2
-3 16 -20 1229.94 335.067 1
-16 3 20 839.642 193.532 2
-2 16 -20 300.957 191.809 1
2 16 20 366.441 131.161 2
2 20 -16 437.77 215.905 1
-16 2 20 360.81 141.142 2
1 20 -16 644.637 257.489 1
-1 16 -20 592.575 265.917 1
1 16 20 714.887 172.305 2
-16 1 20 622.659 162.538 2
0 20 -16 46.2599 120.036 1
0 16 20 102.498 109.028 2
-16 0 20 9.93148 85.8481 2
0 16 -20 200.225 161.161 1
-1 20 -16 1146.5 381.398 1
1 16 -20 1001.81 309.603 1
-1 16 20 1134.32 219.626 2
-16 -1 20 746.2 181.389 2
2 16 -20 459.53 171.989 1
-2 20 -16 523.075 233.604 1
-2 16 20 581.033 176.594 2
-16 -2 20 385.214 136.117 2
3 16 -20 1380.98 381.144 1
-3 16 20 953.985 201.64 2
-16 -3 20 919.587 197.199 2
-3 20 -16 1101.22 313.213 1
-4 16 20 374.389 135.072 2
-4 20 -16 85.8195 150.348 1
-16 -4 20 545.298 141.24 2
5 16 -20 614.671 259.82 1
-16 -5 20 521.551 160.568 2
16 20 -5 739.867 351.496 1
-5 20 -16 658.583 286.542 1
-5 16 20 529.97 143.674 2
16 20 -6 588.369 239.163 1
-16 -6 20 528.321 174.594 2
-6 16 20 402.76 153.097 2
6 16 -20 485.972 192.323 1
-6 20 -16 347.675 140.347 1
7 16 -20 679.501 242.7 1
-7 16 20 1254.54 247.187 2
16 20 -7 702.457 293.882 1
-7 20 -16 678.382 253.551 1
-16 -7 20 689.547 171.264 2
-8 20 -16 523.586 176.41 1
-16 -8 20 385.427 134.701 2
-8 16 20 582.391 184.19 2
8 16 -20 299.54 155.556 1
16 20 -8 951.276 344.977 1
-9 20 -16 1810.25 433.363 1
-16 -9 20 1622.7 252.755 2
-9 16 20 1819.83 290.729 2
16 20 -9 1758.44 449.028 1
9 16 -20 1737.78 414.795 1
16 20 -10 230.881 189.152 1
-20 10 16 105.115 145.722 2
-10 16 20 185.994 77.8112 2
10 16 -20 -183.248 202.622 1
-10 20 -16 -75.684 204.197 1
11 16 -20 14.1914 184.687 1
16 20 -11 -106.17 157.674 1
-20 11 16 -62.8385 87.4949 2
-11 16 20 185.458 132.94 2
-11 20 -16 24.3625 141.563 1
16 20 -12 456.261 196.416 1
12 16 -20 498.796 277.517 1
-12 16 20 585.543 186.056 2
-20 12 16 620.385 186.345 2
13 16 -20 1013.53 310.33 1
-13 16 20 1204.39 258.655 2
-20 13 16 819.169 180.464 2
-20 14 16 1244.09 252.159 2
-14 16 20 1479.14 275.952 2
-15 16 20 -28.5773 119.377 2
-20 15 16 10.4786 90.6274 2
-20 16 16 3686.33 413.497 2
-16 16 20 4017.22 447.123 2
-17 16 20 488.268 154.907 2
-20 17 16 439.192 158.352 2
-17 15 20 1050.29 228.665 2
-20 17 15 958.544 210.569 2
-17 14 20 224.232 100.869 2
-17 13 20 239.499 134.666 2
-17 12 20 184.513 133.611 2
-17 11 20 479.539 157.625 2
11 20 -17 393.839 211.481 1
-17 10 20 -20.5896 75.5773 2
10 20 -17 23.3162 103.847 1
-17 9 20 822.703 218.241 2
9 20 -17 875.587 332.968 1
-17 8 20 849.811 208.071 2
8 20 -17 761.93 288.881 1
-17 7 20 410.984 136.765 2
7 20 -17 393.892 240.693 1
-17 6 20 1194.89 232.045 2
6 20 -17 724.484 296.147 1
-17 5 20 856.947 197.747 2
-5 17 -20 724.742 228.052 1
5 20 -17 919.38 310.729 1
-17 4 20 903.684 216.024 2
4 17 20 648.423 168.106 2
4 20 -17 900.776 302.438 1
-4 17 -20 752.977 304.738 1
3 17 20 1192.42 221.688 2
-3 17 -20 1272.56 360.037 1
3 20 -17 1357.76 354.112 1
-17 3 20 1145.77 217.237 2
-17 2 20 382.441 137.055 2
2 20 -17 701.685 280.394 1
2 17 20 766.239 196.785 2
-2 17 -20 840.289 285.64 1
-1 17 -20 -85.7802 177.688 1
1 20 -17 98.1307 199.602 1
1 17 20 158.162 116.714 2
-17 1 20 185.38 141.623 2
0 20 -17 22.7357 88.143 1
0 17 20 56.246 77.8349 2
-17 0 20 15.6725 101.503 2
0 17 -20 -130.211 134.887 1
1 17 -20 145.51 110.211 1
-1 20 -17 -49.2367 157.668 1
-17 -1 20 188.989 126.552 2
-2 20 -17 859.822 305.846 1
2 17 -20 549.039 225.076 1
-2 17 20 287.939 149.993 2
-17 -2 20 469.837 139.636 2
3 17 -20 1392.55 401.294 1
-17 -3 20 1096.93 204.259 2
-3 20 -17 1550.23 431.697 1
4 17 -20 1157.75 347.246 1
-17 -4 20 557.073 150.547 2
-4 20 -17 845.773 328.25 1
-5 20 -17 1106.65 349.069 1
5 17 -20 1441.79 416.78 1
6 17 -20 1715.96 401.948 1
-6 20 -17 1552.55 416.75 1
17 20 -7 651.725 317.654 1
7 17 -20 322.789 247.245 1
-7 20 -17 301.685 218.949 1
17 20 -8 752.952 364.432 1
-8 17 20 1085.66 243.993 2
-8 20 -17 924.165 308.247 1
8 17 -20 1337.99 354.684 1
9 17 -20 950.751 318.135 1
-20 9 17 304.408 107.419 2
17 20 -9 100.563 144.683 1
-9 17 20 741.7 215.878 2
-9 20 -17 333.153 157.405 1
-10 17 20 286.135 144.873 2
10 17 -20 100.255 149.103 1
17 20 -10 141.682 163.493 1
-20 10 17 184.514 109.231 2
-10 20 -17 2.20769 105.051 1
11 17 -20 227.611 135.934 1
-20 11 17 729.709 219.7 2
-11 17 20 422.562 159.436 2
17 20 -11 249.187 76.7742 1
-11 20 -17 334.854 229.487 1
-20 12 17 -80.5528 89.8221 2
-12 17 20 -176.988 155.52 2
-20 13 17 209.592 107.253 2
-13 17 20 61.5289 117.179 2
-20 14 17 243.441 67.5481 2
-14 17 20 458.28 172.964 2
-15 17 20 875.123 231.33 2
-20 15 17 763.349 198.314 2
-16 17 20 350.68 133.364 2
-20 16 17 216.167 101.188 2
-17 20 17 1244.77 250.72 2
-17 17 20 1127.3 250.221 2
-20 17 17 923.63 211.593 2
-18 17 20 120.728 111.306 2
-17 20 18 -51.2762 90.1031 2
-20 18 17 84.2008 92.4073 2
-18 16 20 2715.46 357.998 2
-16 20 18 2800.58 387.56 2
-20 18 16 2341.64 334.946 2
-20 18 15 502.78 194.24 2
-18 15 20 307.595 168.833 2
-18 14 20 1754.4 290.327 2
-18 13 20 306.608 143.944 2
-18 12 20 233.358 132.233 2
-18 11 20 1154.48 228.154 2
-18 10 20 -3.56082 94.3484 2
-18 9 20 1057.13 228.719 2
9 20 -18 1165.39 357.786 1
-18 8 20 229.227 97.4466 2
8 20 -18 -87.8923 124.011 1
-7 18 -20 671.034 304.238 1
-18 7 20 519.755 159.584 2
7 20 -18 652.773 306.604 1
-18 6 20 2342.99 322.202 2
6 20 -18 2285.63 523.107 1
-6 18 -20 2347.85 529.355 1
5 20 -18 3619.37 632.728 1
-18 5 20 3595.81 386.074 2
-5 18 -20 3919.05 664.68 1
4 18 20 -9.60448 81.1058 2
-4 18 -20 170.939 120.62 1
4 20 -18 27.761 129.648 1
3 20 -18 417.756 195.409 1
3 18 20 526.334 165.811 2
-3 18 -20 449.778 219.159 1
-18 3 20 466.296 121.338 2
2 20 -18 912.696 306.518 1
2 18 20 828.692 185.83 2
-18 2 20 911.973 192.953 2
-2 18 -20 1071.26 347.065 1
1 20 -18 545.253 210.31 1
-1 18 -20 985.521 344.868 1
1 18 20 455.512 187.133 2
-18 1 20 663.697 178.084 2
0 18 -20 1031.49 346.748 1
0 20 -18 704.398 250.011 1
0 18 20 543.934 181.829 2
-18 0 20 1102.09 209.606 2
1 18 -20 506.377 259.518 1
-1 18 20 416.627 213.303 2
-1 20 -18 425.159 240.813 1
-18 -1 20 367.557 146.027 2
-2 20 -18 1239.65 374.347 1
2 18 -20 871.712 295.455 1
3 18 -20 696.083 284.387 1
-3 20 -18 371.836 232.641 1
4 18 -20 107.033 131.643 1
-4 20 -18 417.419 238.473 1
5 18 -20 3371.62 604.94 1
-5 20 -18 4716.01 723.046 1
6 18 -20 1892.49 457.361 1
-6 20 -18 2433.38 497.785 1
-7 20 -18 360.328 281.172 1
7 18 -20 340.566 227.623 1
-20 8 18 247.721 126.272 2
8 18 -20 455.251 237.607 1
-8 20 -18 137.344 200.328 1
-9 20 -18 1351.81 391.262 1
-20 9 18 786.196 182.743 2
-9 18 20 1127.56 245.182 2
9 18 -20 790.404 332.286 1
-20 10 18 -54.0688 65.8132 2
-10 18 20 211.264 139.715 2
-20 11 18 1067.23 222.493 2
-11 18 20 1362.13 268.842 2
-20 12 18 297.028 118.083 2
-12 18 20 111.867 84.0076 2
-20 13 18 214.126 120.341 2
-13 18 20 263.557 153.069 2
-20 14 18 1764.09 288.128 2
-14 18 20 1403.98 292.886 2
-20 15 18 303.36 108.33 2
-15 18 20 542.96 201.035 2
-16 18 20 2485.85 345.234 2
-20 16 18 2429.64 344.186 2
-20 17 18 187.968 115.9 2
-18 20 17 125.778 90.5724 2
-17 18 20 94.9966 85.5338 2
-18 20 18 2869.55 374.215 2
-20 18 18 2598.67 340.71 2
-18 18 20 2763.45 372.948 2
-20 19 18 1014.98 226.075 2
-18 20 19 1185.99 252.116 2
-19 18 20 1416.91 278.627 2
-19 17 20 183.775 144.499 2
-20 19 17 377.136 162.797 2
-17 20 19 534.955 206.477 2
-16 20 19 61.5082 91.6485 2
-19 16 20 -3.23118 74.2659 2
-20 19 16 -13.7459 96.6556 2
-19 15 20 955.318 222.245 2
-15 20 19 859.919 222.648 2
-20 19 15 987.308 236.131 2
-14 20 19 902.867 253.255 2
-19 14 20 686.979 214.683 2
-19 13 20 1126.45 235.441 2
-13 20 19 1260.11 259.928 2
-19 12 20 484.402 186.097 2
-19 11 20 10.694 110.558 2
-19 10 20 390.296 147.53 2
-19 9 20 340.761 129.779 2
-19 8 20 597.701 189.952 2
-19 7 20 789.16 217.782 2
-7 19 -20 661.997 300.143 1
7 20 -19 470.414 221.666 1
-19 6 20 755.864 182.696 2
6 20 -19 457.252 196.542 1
-6 19 -20 623.453 292.52 1
5 20 -19 1631.06 429.85 1
-5 19 -20 1261.6 360.307 1
-19 5 20 1271.6 247.646 2
4 19 20 1052.88 215.37 2
4 20 -19 1019.32 319.723 1
-4 19 -20 964.895 344.93 1
-19 4 20 912.888 195.025 2
3 19 20 230.215 109.663 2
-19 3 20 236.22 121.296 2
-3 19 -20 297.06 277.854 1
3 20 -19 111.595 132.961 1
2 20 -19 133.688 189.116 1
-19 2 20 34.0429 97.4722 2
-2 19 -20 173.062 274.749 1
2 19 20 200.505 113.293 2
-1 19 -20 121.544 155.861 1
1 20 -19 43.5427 182.08 1
1 19 20 221.716 123.285 2
0 19 -20 241.293 195.148 1
0 20 -19 -40.0087 129.394 1
0 19 20 190.59 157.213 2
-1 20 -19 149.611 158.198 1
1 19 -20 55.5534 150.372 1
-1 19 20 136.668 154.455 2
-2 20 -19 529.773 254.431 1
2 19 -20 185.254 142.135 1
3 19 -20 320.771 111.435 1
3 20 19 296.315 119.123 2
-3 20 -19 142.251 128.455 1
4 19 -20 1391.07 387.756 1
4 20 19 965.088 220.872 2
-4 20 -19 1304.31 352.049 1
5 19 -20 915.138 272.072 1
-5 20 -19 1044.55 331.025 1
-20 6 19 855.403 230.442 2
-6 20 -19 880.049 337.003 1
6 19 -20 929.28 328.748 1
-20 7 19 615.757 191.681 2
7 19 -20 385.312 222.754 1
-7 20 -19 561.29 292.289 1
-20 8 19 877.75 189.508 2
-20 9 19 245.755 147.95 2
-20 10 19 215.787 127.401 2
-10 19 20 459.699 189.411 2
-20 11 19 -120.623 167.634 2
-11 19 20 135.431 94.9827 2
-20 12 19 532.743 155.582 2
-12 19 20 315.149 155.689 2
-20 13 19 1117.64 239.449 2
-13 19 20 1243.24 267.935 2
-20 14 19 553.749 197.236 2
-14 19 20 793.807 238.445 2
-20 15 19 864.346 189.595 2
-15 19 20 1076.09 248.296 2
-16 19 20 93.5994 105.269 2
-19 20 16 185.009 155.045 2
-20 16 19 199.189 120.724 2
-17 19 20 217.386 81.4237 2
-19 20 17 204.552 111.621 2
-20 17 19 317.138 154.226 2
-20 18 19 1131.58 230.22 2
-19 20 18 967.889 220.022 2
-18 19 20 1107.02 237.556 2
-19 19 20 85.0777 91.2618 2
-20 19 19 127.439 109.754 2
-19 20 19 126.506 97.4951 2
0 20 20 1112.8 267.43 2
0 20 -20 1230.57 375.184 1
1 20 20 610.415 194.851 2
-1 20 -20 456.539 272.244 1
1 20 -20 876.4 334.854 1
-2 20 -20 302.729 247.687 1
2 20 -20 344.386 229.061 1
2 20 20 218.039 123.847 2
-3 20 -20 2018.21 467.734 1
3 20 -20 2305.14 526.637 1
3 20 20 2094.76 298.549 2
4 20 20 2472.92 314.664 2
-20 5 20 304.193 128.916 2
-20 6 20 863.426 169.638 2
-20 7 20 3883.46 403.578 2
-20 8 20 3023.25 367.578 2
-20 9 20 791.164 185.809 2
-20 10 20 657.397 181.346 2
-10 20 20 734.153 215.493 2
-20 11 20 209.679 131.506 2
-11 20 20 251.634 158.702 2
-20 12 20 230.973 140.367 2
-12 20 20 -64.6117 97.7246 2
-20 13 20 697.734 209.567 2
-13 20 20 725.737 218.985 2
-20 14 20 12.8995 77.1879 2
-14 20 20 369.646 165.951 2
-15 20 20 896.067 226.383 2
-20 15 20 859.128 218.123 2
-20 20 15 1242.66 255.021 2
-20 16 20 2315.45 332.095 2
-20 20 16 1935.02 302.146 2
-16 20 20 2231.09 342.296 2
-20 17 20 -13.4114 71.8531 2
-17 20 20 262.954 114.735 2
-20 20 17 36.7559 127.109 2
-20 18 20 441.196 146.623 2
-18 20 20 223.322 150.159 2
-20 20 18 428.257 139.374 2
-19 20 20 255.08 115.979 2
-20 19 20 427.926 154.59 2
-20 20 19 483.847 182.46 2
-20 20 20 1829.43 288.832 2
0 21 0 -68.931 115.377 1
0 21 1 7007.41 647.523 1
0 21 -1 7086.87 670.801 1
-1 21 0 7048.65 652.901 1
1 21 0 6845.17 657.587 1
1 21 1 3125.31 426.222 1
-1 21 -1 3134.29 444.088 1
-1 21 1 3105.15 435.484 1
1 21 -1 3163.29 457.148 1
-1 21 2 2154.42 357.697 1
2 21 1 1868.74 348.502 1
1 21 -2 1723.86 333.918 1
-2 21 -1 1847.53 318.515 1
0 21 -2 1452.23 308.519 1
2 21 0 1363.68 310.205 1
-2 21 0 1663.47 322.747 1
0 21 2 1252.41 283.892 1
2 21 -1 1967.12 368.83 1
-1 21 -2 2241.5 388.621 1
1 21 2 1936.67 336.678 1
-2 21 1 2200.58 360.416 1
2 21 -2 1222.38 293.506 1
-2 21 -2 1280.59 271.192 1
2 21 2 1050.4 270.196 1
-2 21 2 1253.63 268.458 1
-3 21 -2 2959.5 427.703 1
3 21 2 3239.01 460.713 1
2 21 -3 3323.9 470.708 1
-3 21 -1 840.245 190.996 1
-1 21 3 893.83 230.62 1
3 21 1 796.456 243.219 1
1 21 -3 643.487 192.268 1
-3 21 0 335.482 161.716 1
0 21 3 270.615 151.053 1
0 21 -3 456.403 180.853 1
3 21 0 356.296 196.964 1
-3 21 1 959.328 247.433 1
1 21 3 762.955 220.344 1
-1 21 -3 702.024 243.717 1
3 21 -1 820.723 235.021 1
-2 21 -3 3095.56 441.022 1
3 21 -2 3039.54 451.321 1
2 21 3 3044.9 446.424 1
-3 21 -3 2945.45 430.882 1
3 21 -3 3131.07 459.759 1
3 21 3 3086.27 438.638 1
3 21 -4 210.688 156.729 1
4 21 3 337.55 80.7995 1
-4 21 -3 240.707 184.536 1
-4 21 -2 5611.15 590.567 1
2 21 -4 6167.94 656.62 1
4 21 2 5222 597.647 1
4 21 1 2744.28 435.222 1
-4 21 -1 2412.78 378.488 1
1 21 -4 2438.73 411.301 1
-4 21 0 1604.63 293.965 1
0 21 -4 1637.16 325.522 1
4 21 0 1553.94 317.309 1
0 21 4 1314.09 285.041 1
1 21 4 2527.97 402.851 1
-1 21 -4 2421.54 422.091 1
4 21 -1 2472.46 412.733 1
-2 21 -4 5916.23 622.587 1
2 21 4 5940.48 613.219 1
4 21 -2 5972.68 646.055 1
-3 21 -4 616.311 241.496 1
3 21 4 522.014 210.614 1
4 21 -3 432.829 208.503 1
4 4 -21 3171.04 438.564 1
4 21 4 2623.52 406.684 1
4 21 -4 3134.14 491.703 1
-4 21 -4 2639.1 412.506 1
-5 21 -4 1260.99 283.726 1
4 21 -5 1054.83 281.961 1
5 4 -21 1747.05 333.8 1
-5 21 -3 943.095 240.949 1
5 21 3 673.822 208.248 1
5 3 -21 705.031 210.01 1
3 21 -5 1270.71 325.258 1
5 21 2 1080.33 294.667 1
-5 21 -2 999.55 253.239 1
2 21 -5 1173.58 297.742 1
5 21 1 1081.14 276.628 1
1 21 -5 834.434 246.131 1
-5 21 -1 1011.7 224.48 1
0 21 -5 4063.97 529.641 1
5 21 0 3572.95 510.169 1
-1 21 -5 645.992 211.609 1
5 21 -1 939.405 301.504 1
-2 21 -5 1250.53 298.024 1
5 21 -2 1107.88 292.068 1
-3 21 -5 662.782 200.269 1
5 21 -3 652.96 207.693 1
4 5 -21 1446.89 307.928 1
5 21 -4 1262.82 307.928 1
-4 21 -5 1170.25 274.919 1
-5 21 -5 812.509 254.888 1
5 21 -5 585.704 233.631 1
5 5 -21 951.11 258.995 1
-6 21 -5 1060.94 346.953 1
5 21 -6 755.044 237.484 1
6 5 -21 597.702 197.881 1
4 21 -6 5882.78 671.694 1
-6 21 -4 6024.56 615.544 1
6 4 -21 6035.75 626.219 1
6 21 3 1233.92 328.666 1
-6 21 -3 1106.99 275.07 1
3 21 -6 771.683 234.283 1
-6 21 -2 976.302 252.099 1
2 21 -6 1169.82 288.814 1
6 21 2 1289.06 314.703 1
6 21 1 1652.26 372.457 1
1 21 -6 1324.42 323.663 1
0 21 -6 7541.56 730.789 1
6 21 0 8171.95 789.885 1
6 21 -1 1750.79 362.859 1
-1 21 -6 1874.25 386.965 1
-2 21 -6 1142.22 279.71 1
6 21 -2 1327.41 323.863 1
-3 21 -6 1018 268.066 1
6 21 -3 961.57 288.56 1
4 6 -21 6416.87 686.668 1
6 21 -4 6006.94 676.423 1
-4 21 -6 5934.75 654.765 1
-5 21 -6 805.108 237.429 1
6 21 -5 614.358 235.553 1
5 6 -21 735.842 242.57 1
-6 21 -6 656.39 219.325 1
6 21 -6 629.906 236.609 1
6 6 -21 640.473 205.245 1
6 21 -7 273.06 207.007 1
7 6 -21 -153.981 148.453 1
-7 21 -6 -107.849 177.097 1
-7 6 21 -19.0529 86.0656 2
-6 -7 21 -103.731 95.4978 2
7 5 -21 1922.98 345.873 1
-7 21 -5 1611.24 330.222 1
5 21 -7 1810.15 375.947 1
-7 21 -4 469.615 191.521 1
4 21 -7 186.037 97.6992 1
3 21 -7 311.897 145.363 1
-7 21 -3 122.959 108.111 1
7 21 3 148.834 94.999 1
7 21 2 2251.39 390.592 1
2 21 -7 2336.98 417.982 1
1 21 -7 2286.59 406.707 1
7 21 1 2254.57 412.949 1
0 21 -7 2154.35 390.565 1
7 21 0 2145.52 416.403 1
-1 21 -7 2305.09 447.761 1
7 21 -1 1899.16 386.054 1
7 21 -2 2503.88 450.207 1
-2 21 -7 2691.32 450.95 1
-3 21 -7 15.5146 100.145 1
3 7 -21 44.7113 135.199 1
-4 21 -7 301.266 138.498 1
7 21 -4 348.049 169.594 1
4 7 -21 646.669 228.468 1
-5 21 -7 1752.66 354.972 1
7 21 -5 1920.02 382.334 1
5 7 -21 2035.4 380.025 1
6 7 -21 97.7576 138.884 1
-6 21 -7 -171.682 165.475 1
7 21 -6 328.714 257.273 1
-6 7 21 83.8003 97.1296 2
-7 -6 21 -36.6051 62.2683 2
-7 21 -7 97.4108 98.4324 1
7 21 -7 142.045 186.016 1
-7 7 21 79.3038 91.1915 2
7 7 -21 220.417 167.205 1
-7 -7 21 153.635 115.91 2
-8 21 -7 175.613 140.087 1
7 21 -8 394.037 153.597 1
-8 7 21 350.189 152.359 2
-7 -8 21 468.069 148.402 2
8 7 -21 336.628 165.877 1
-8 21 -6 -140.065 137.629 1
6 21 -8 -190.344 188.158 1
-8 6 21 -96.3826 89.7967 2
8 6 -21 143.27 137.457 1
-6 -8 21 -66.9222 73.8484 2
-8 5 21 1040 187.655 2
-8 21 -5 1276.82 286.843 1
-5 -8 21 1491.4 250.509 2
5 21 -8 1600.24 382.716 1
-8 4 21 55.8583 80.5557 2
-8 21 -4 19.5848 106.034 1
-4 -8 21 329.365 161.583 2
4 21 -8 13.205 111.802 1
3 21 -8 126.057 116.434 1
8 21 2 4765.7 616.64 1
2 21 -8 4608.89 604.231 1
1 21 -8 447.309 177.055 1
8 21 1 618.921 249.221 1
8 21 0 506.486 239.638 1
0 21 -8 505.264 201.964 1
-1 21 -8 482.886 180.655 1
8 21 -1 577.55 220.587 1
8 21 -2 4896.62 632.913 1
-2 21 -8 5432.07 640.271 1
8 21 -3 282.314 199.102 1
-3 21 -8 78.6398 119.225 1
3 8 -21 92.1073 195.309 1
-4 8 21 231.76 89.2137 2
8 21 -4 223.789 181.156 1
-4 21 -8 91.9276 114.477 1
4 8 -21 337.484 197.458 1
-5 21 -8 1309.36 311.946 1
8 21 -5 1502.01 367.13 1
-8 -5 21 1310.19 230.605 2
-5 8 21 1270.88 236.199 2
5 8 -21 1560.29 351.196 1
6 8 -21 -42.7381 130.227 1
-6 8 21 3.92941 74.0074 2
8 21 -6 55.5438 91.8182 1
-8 -6 21 93.231 106.597 2
-6 21 -8 200.483 137.235 1
-7 21 -8 61.8158 107.148 1
7 8 -21 369.991 190.252 1
8 21 -7 544.069 254.025 1
-7 8 21 200.795 109.53 2
-8 -7 21 256.162 99.178 2
8 8 -21 318.633 174.216 1
8 21 -8 531.058 255.001 1
-8 8 21 591.513 171.58 2
8 -8 21 242.885 113.388 2
-8 -8 21 431.881 146.715 2
-8 21 -8 407.45 172.961 1
8 21 -9 218.668 95.831 1
-9 8 21 450.227 131.965 2
9 8 -21 477.764 208.156 1
-8 -9 21 407.797 160.869 2
-9 21 -8 610.37 261.61 1
7 21 -9 857.8 279.079 1
-9 7 21 924.041 213.709 2
-7 -9 21 745.111 171.243 2
9 7 -21 876.234 219.082 1
-9 21 -7 1082.02 293.282 1
-9 21 -6 344.229 213.803 1
-9 6 21 261.743 105.229 2
-6 -9 21 535.133 165.33 2
6 21 -9 215.447 164.497 1
-9 21 -5 180.542 107.286 1
-9 5 21 33.4684 84.3645 2
-5 -9 21 276.506 69.2272 2
5 21 -9 306.303 222.139 1
-9 4 21 404.657 95.2272 2
-4 -9 21 401.721 140.961 2
4 21 -9 270.606 198.844 1
3 21 -9 5190.95 658.472 1
-9 3 21 5301.29 455.034 2
-3 -9 21 5697.56 493.058 2
-9 2 21 4190.76 393.86 2
2 21 -9 4465.98 605.578 1
-2 -9 21 4304.38 429.787 2
9 21 1 1735.35 373.527 1
-1 -9 21 1968.81 300.878 2
1 21 -9 2061.79 407.261 1
9 21 0 570.068 229.669 1
0 -9 21 572.085 176.825 2
0 21 -9 506.415 205.93 1
9 21 -1 1648.4 359.511 1
-1 21 -9 1708.51 367.476 1
1 -9 21 1829.94 291.053 2
9 21 -2 4095.25 579.484 1
-2 9 21 3858.06 380.355 2
2 -9 21 4413.67 418.883 2
3 -9 21 5395.87 471.144 2
9 21 -3 5247.08 670.446 1
-9 -3 21 5476.82 451.063 2
-3 9 21 4212.33 397.062 2
3 9 -21 5112.99 639.546 1
-3 21 -9 4794.42 622.883 1
9 21 -4 584.707 279.021 1
-4 9 21 192.374 73.7023 2
-9 -4 21 471.882 157.077 2
4 -9 21 388.207 121.044 2
-4 21 -9 357.068 197.674 1
-9 -5 21 67.1875 102.374 2
5 9 -21 104.489 121.628 1
5 -9 21 60.5384 85.1272 2
-5 9 21 148.206 126.496 2
-5 21 -9 314.547 225.803 1
9 21 -5 7.99388 134.798 1
-6 21 -9 118.274 149.774 1
6 9 -21 148.454 157.595 1
6 -9 21 190.002 103.711 2
-6 9 21 138.332 120.251 2
-9 -6 21 228.448 87.1765 2
9 21 -6 515.11 262.359 1
7 9 -21 1238.21 334.362 1
-7 9 21 959.373 186.962 2
7 -9 21 921.406 199.844 2
-9 -7 21 995.542 216.705 2
9 21 -7 1030.37 322.192 1
-7 21 -9 1300.98 340.486 1
8 9 -21 330.848 178.519 1
-8 9 21 435.999 123.873 2
9 21 -8 498.473 266.711 1
-9 -8 21 454.397 176.478 2
-8 21 -9 466.205 196.62 1
-9 9 21 793.854 200.28 2
-9 -9 21 795.49 187.04 2
9 21 -9 1062.52 336.913 1
9 9 -21 889.943 258.592 1
-9 21 -9 1019.05 292.673 1
9 21 -10 658.716 273.792 1
10 9 -21 692.281 226.086 1
-9 -10 21 951.567 222.429 2
-10 9 21 776.551 200.069 2
-10 21 -9 589.487 245.721 1
-8 -10 21 4060.61 419.277 2
-10 8 21 4246.9 426.34 2
-10 21 -8 3684.15 563.699 1
8 21 -10 3911.13 620.392 1
-10 7 21 532.15 149.062 2
-7 -10 21 1196.65 257.406 2
7 21 -10 725.751 265.21 1
-10 21 -7 620.789 219.219 1
-10 6 21 581.633 158.29 2
-6 -10 21 709.456 200.907 2
6 21 -10 831.821 282.974 1
-10 5 21 99.6472 89.5248 2
-5 -10 21 77.0924 76.9342 2
5 21 -10 204.997 184.264 1
-10 4 21 272.537 144.318 2
-4 -10 21 190.404 120.364 2
4 21 -10 70.2175 157.109 1
-10 3 21 728.8 186.128 2
3 21 -10 546.523 264.334 1
-3 -10 21 661.688 190.777 2
-10 2 21 407.514 145.496 2
-2 -10 21 490.989 144.767 2
2 21 -10 500.55 242.249 1
10 21 1 19.4237 103.312 1
1 21 -10 -5.31816 161.404 1
-1 -10 21 135.833 122.515 2
0 -10 21 2778.4 360.118 2
10 21 0 2381.89 436.013 1
-10 0 21 2133.78 292.702 2
0 10 21 1899.02 266.799 2
0 21 -10 2547.85 466.979 1
-1 21 -10 13.7422 109.131 1
1 -10 21 -147.813 153.538 2
-1 10 21 -77.3323 124.248 2
10 21 -1 -76.0583 135.079 1
-10 -1 21 76.96 110.367 2
10 21 -2 323.635 219.211 1
-2 21 -10 289.944 170.081 1
-10 -2 21 356.464 138.344 2
-2 10 21 311.32 113.643 2
2 -10 21 433.69 168.493 2
2 10 -21 271.355 172.983 1
-3 21 -10 537.259 228.555 1
3 -10 21 1004.6 235.679 2
10 21 -3 430.841 236.933 1
-10 -3 21 609.474 158.16 2
3 10 -21 462.823 194.741 1
-3 10 21 274.015 83.166 2
-4 21 -10 66.8714 124.485 1
-4 10 21 256.814 136.089 2
4 -10 21 197.909 92.9671 2
10 21 -4 94.7457 180.847 1
4 10 -21 223.71 154.385 1
-10 -4 21 154.146 132.054 2
-5 21 -10 77.5681 79.2097 1
10 21 -5 -59.8051 139.071 1
5 -10 21 215.318 71.7895 2
-5 10 21 228.664 110.666 2
-10 -5 21 52.8636 71.8656 2
5 10 -21 3.2711 169.248 1
6 10 -21 761.38 262 1
-6 10 21 533.9 153.392 2
6 -10 21 445.592 160.813 2
-10 -6 21 370.027 138.045 2
-6 21 -10 776.324 252.301 1
10 21 -6 383.77 174.766 1
7 10 -21 672.083 257.341 1
10 21 -7 737.477 255.63 1
-7 10 21 706.643 190.595 2
-10 -7 21 1000.46 213.181 2
-7 21 -10 735.66 244.451 1
-10 -8 21 3883.7 398.244 2
8 10 -21 4448.47 602.985 1
-8 10 21 4455.4 433.032 2
-8 21 -10 4154.51 596.042 1
10 21 -8 4404 646.148 1
-9 10 21 820.451 212.068 2
-10 -9 21 860.034 203.746 2
9 10 -21 544.948 272.092 1
-9 21 -10 824.14 279.315 1
10 21 -9 615.87 242.285 1
-10 -10 21 56.4262 79.9036 2
10 21 -10 262.287 190.178 1
-10 10 21 24.2959 81.0698 2
10 10 -21 -187.919 203.011 1
-10 21 -10 127.331 122.809 1
-11 10 21 578.594 160.929 2
-10 -11 21 845.69 202.906 2
10 21 -11 436.123 229.31 1
11 10 -21 452.716 197.902 1
-11 21 -10 517.293 288.381 1
9 21 -11 1464.9 366.353 1
-9 -11 21 1125.7 214.239 2
-11 21 -9 1075.05 282.532 1
-11 9 21 1421.58 266.589 2
8 21 -11 1356.04 367.644 1
-11 8 21 1489.1 264.636 2
-8 -11 21 1334.94 258.864 2
-11 21 -8 1227.27 353.196 1
-11 7 21 1368.91 245.058 2
-7 -11 21 1339.28 248.195 2
7 21 -11 1490.73 377.102 1
-11 6 21 200.433 134.263 2
-6 -11 21 196.369 118.34 2
6 21 -11 140.977 167.405 1
-11 5 21 1843.19 271.76 2
-5 -11 21 2047.47 314.156 2
5 21 -11 1589.83 368.7 1
-11 4 21 156.985 97.9366 2
4 11 21 54.6809 90.1695 2
-4 -11 21 59.9995 96.4194 2
4 21 -11 45.3249 87.0512 1
-11 3 21 130.222 69.7478 2
3 11 21 324.052 118.386 2
3 21 -11 637.852 305.793 1
-3 -11 21 452.995 141.095 2
-11 2 21 176.663 111.814 2
2 21 -11 43.1715 158.076 1
2 11 21 72.8862 90.1988 2
-2 -11 21 361.955 115.763 2
-1 -11 21 762.611 176.017 2
1 21 -11 708.595 233.841 1
1 11 21 728.319 185.27 2
-11 1 21 706.038 195.446 2
0 21 -11 4162.26 585.856 1
0 11 21 3420.24 357.184 2
11 21 0 3161.51 586.991 1
0 -11 21 4292.77 431.335 2
-11 0 21 4122.98 392.865 2
11 21 -1 542.317 211.657 1
-1 21 -11 499.822 220.66 1
-1 11 21 551.239 142.932 2
1 -11 21 720.546 186.28 2
1 11 -21 505.831 209.541 1
-11 -1 21 702.319 182.232 2
-2 21 -11 217.13 167.788 1
-2 11 21 -69.842 82.7615 2
11 21 -2 49.382 136.261 1
2 -11 21 97.6756 80.0394 2
2 11 -21 142.271 110.732 1
-11 -2 21 53.3026 65.2514 2
11 21 -3 635.639 260.902 1
-3 21 -11 512.733 200.707 1
3 -11 21 582.858 165.326 2
-3 11 21 477.547 150.686 2
-11 -3 21 638.397 203.094 2
3 11 -21 254.326 81.9812 1
-4 21 -11 83.9457 94.9272 1
-4 11 21 -20.8783 97.7038 2
4 11 -21 208.106 222.922 1
4 -11 21 136.652 80.429 2
-11 -4 21 -102.432 111.496 2
11 21 -4 375.449 227.507 1
5 11 -21 2529.34 481.235 1
-5 11 21 2198.55 300.387 2
11 21 -5 2053.55 420.977 1
-11 -5 21 1965.87 285.304 2
-5 21 -11 1934.42 396.706 1
6 11 -21 150.107 193.644 1
11 21 -6 -65.1263 142.962 1
-11 -6 21 170.763 115.819 2
-6 11 21 77.4781 88.8437 2
-6 21 -11 88.2492 110.731 1
11 21 -7 992.084 285.164 1
7 11 -21 1264.29 344.881 1
-11 -7 21 1310.29 237.651 2
-7 21 -11 1394.43 369.761 1
-7 11 21 1473.96 257.307 2
8 11 -21 1079.82 346.088 1
-8 11 21 1152.67 218.481 2
-11 -8 21 1148.65 234.45 2
-8 21 -11 1310.53 353.042 1
11 21 -8 1226.74 335.576 1
-11 -9 21 1203.08 230.607 2
-9 21 -11 1350.26 331.085 1
11 21 -9 1330.35 368.405 1
-9 11 21 1490.07 259.933 2
9 11 -21 1212.53 325.586 1
-10 11 21 493.886 147.153 2
10 11 -21 528.032 244.964 1
11 21 -10 595.272 269.581 1
-11 -10 21 698.345 149.956 2
-10 21 -11 347.298 151.378 1
11 21 -11 515.637 281.053 1
-11 11 21 690.527 206.385 2
-11 -11 21 842.986 205.164 2
-11 21 -11 542.786 280.998 1
11 11 -21 448.325 208.205 1
11 21 -12 73.5229 185.224 1
-12 11 21 -147.536 129.124 2
-11 -12 21 15.1419 92.3707 2
-12 21 -11 49.9068 104.016 1
-12 10 21 4807.58 466.955 2
-10 -12 21 4577.48 457.592 2
10 21 -12 4743.35 681.937 1
-12 21 -10 3789.44 577.936 1
9 21 -12 1522.62 370.94 1
-12 9 21 1810.82 307.127 2
-9 -12 21 1208.35 227.474 2
-12 21 -9 1486.7 359.967 1
8 21 -12 731.653 285.923 1
-8 -12 21 830.067 207.81 2
-12 8 21 785.175 166.337 2
-12 7 21 778.107 211.704 2
-7 -12 21 632.349 190.909 2
7 21 -12 877.559 328.466 1
-12 6 21 981.94 205.886 2
-6 -12 21 1125.55 229.79 2
6 21 -12 1192.6 312.698 1
-12 5 21 304.563 127.428 2
-5 -12 21 241.453 100.281 2
5 21 -12 143.933 99.8174 1
-12 4 21 814.215 195.566 2
-4 -12 21 890.944 217.407 2
4 12 21 640.896 168.11 2
4 21 -12 745.865 285.258 1
-12 3 21 157.173 125.387 2
3 12 21 -23.046 62.4938 2
3 21 -12 59.4037 157.948 1
-3 -12 21 43.3698 75.9014 2
-12 2 21 851.835 188.317 2
2 12 21 699.58 156.278 2
-2 -12 21 1328.99 258.686 2
2 21 -12 813.23 217.065 1
1 12 21 74.7383 85.7123 2
-1 -12 21 359.784 154.74 2
1 21 -12 215.847 155.926 1
-12 1 21 242.608 127.762 2
0 21 -12 146.998 124.611 1
0 -12 21 195.625 143.967 2
0 12 21 219.544 126.104 2
-12 0 21 250.242 103.623 2
1 12 -21 277.17 226.197 1
-1 21 -12 8.27985 116.285 1
-1 12 21 88.4212 81.6561 2
1 -12 21 278.67 146.468 2
12 21 -1 94.7197 131.524 1
-12 -1 21 168.915 90.8863 2
-2 21 -12 586.953 228.836 1
-2 12 21 805.776 204.458 2
12 21 -2 619.42 246.659 1
2 -12 21 1357.47 246.53 2
-12 -2 21 936.449 219.789 2
2 12 -21 589.814 221.034 1
-3 21 -12 -211.183 200.42 1
12 21 -3 -67.8313 184.155 1
-12 -3 21 5.5614 102.177 2
-3 12 21 -113.73 114.257 2
3 12 -21 42.0258 120.853 1
-4 21 -12 955.226 287.284 1
12 21 -4 706.434 246.507 1
-4 12 21 1002.14 201.5 2
-12 -4 21 629.189 174.987 2
4 12 -21 901.801 290.193 1
-5 12 21 240.639 135.275 2
5 12 -21 408.404 213.063 1
-12 -5 21 244.165 125.648 2
12 21 -5 141.109 186.128 1
-5 21 -12 194.347 198.351 1
6 12 -21 890.297 284.619 1
-6 12 21 1136.33 223.296 2
-12 -6 21 805.095 200.987 2
12 21 -6 1296.12 361.594 1
-6 21 -12 1131.12 306.637 1
7 12 -21 71.9986 148.966 1
12 21 -7 277.72 213.235 1
-12 -7 21 643.654 182.821 2
-7 21 -12 571.849 237.411 1
-7 12 21 631.866 183.364 2
8 12 -21 798.221 255.598 1
-12 -8 21 851.105 200.442 2
12 21 -8 1290.72 337.367 1
-8 12 21 1018.41 227.972 2
-8 21 -12 856.504 275.072 1
-9 12 21 1625.28 278.847 2
9 12 -21 1032.14 298.289 1
12 21 -9 1157.6 357.06 1
-9 21 -12 1206.51 338.19 1
-12 -9 21 1295.63 244.243 2
12 21 -10 4963.3 688.694 1
10 12 -21 4398.93 624.487 1
-10 12 21 4942.31 474.103 2
-10 21 -12 4042.53 637.456 1
-12 -10 21 5024.87 463.299 2
-11 12 21 89.9213 125.851 2
-11 21 -12 -174.132 180.582 1
-12 -11 21 360.254 186.589 2
11 12 -21 -248.033 246.782 1
12 21 -11 27.5232 150.866 1
12 12 -21 -148.88 159.84 1
-12 12 21 208.227 124.46 2
-12 -12 21 150.525 100.623 2
-12 21 -12 -184.286 90.8505 1
12 21 -12 234.503 200.284 1
-13 21 -12 -64.9283 142.645 1
-13 12 21 97.5537 131.865 2
12 21 -13 13.944 136.97 1
-12 -13 21 -19.6251 87.717 2
11 21 -13 258.564 169.002 1
-11 -13 21 160.762 116.336 2
-13 11 21 392.659 170.415 2
-13 21 -11 18.9202 132.933 1
-13 10 21 531.018 164.682 2
10 21 -13 83.1527 146.721 1
-10 -13 21 429.983 172.867 2
9 21 -13 1319.74 385.264 1
-13 9 21 1688.06 290.523 2
-9 -13 21 1977.85 299.944 2
8 21 -13 28.4423 97.0716 1
-13 8 21 73.7841 92.3498 2
-8 -13 21 -129.836 113.024 2
-13 7 21 806.562 205.326 2
-7 -13 21 711.133 199.066 2
7 21 -13 571.123 228.765 1
-13 6 21 2009.05 308.905 2
-6 -13 21 1860.81 308.312 2
6 21 -13 1875.93 414.949 1
-13 5 21 2338.33 299.512 2
5 13 21 1935.81 252.371 2
5 21 -13 2600.59 497.023 1
-5 -13 21 2281.37 331.234 2
-13 4 21 263.151 150.908 2
4 13 21 175.725 83.0831 2
4 21 -13 -100.896 160.753 1
-4 -13 21 43.2912 87.8268 2
-13 3 21 122.052 102.592 2
-3 -13 21 91.5572 87.4994 2
3 13 21 188.636 67.9694 2
3 21 -13 369.663 237.959 1
2 21 -13 1158.52 335.885 1
2 13 21 860.06 179.668 2
-2 -13 21 838.654 203.714 2
-13 2 21 694.746 160.974 2
1 21 -13 1070.19 318.909 1
1 13 21 803.858 182.946 2
-1 -13 21 1212.96 252.289 2
-13 1 21 979.666 202.176 2
0 21 -13 114.896 89.0044 1
0 13 21 114.172 103.816 2
0 -13 21 136.011 84.4548 2
0 13 -21 225.032 224.957 1
-13 0 21 -59.7794 94.8787 2
-1 21 -13 1069.54 304.785 1
-1 13 21 1069.79 237.897 2
1 13 -21 1100.03 364.566 1
-13 -1 21 1071.46 227.672 2
-2 21 -13 829.366 307.169 1
13 21 -2 774.001 332.418 1
-2 13 21 1021.8 223.091 2
-13 -2 21 904.736 201.499 2
2 13 -21 941.435 302.582 1
13 21 -3 234.321 162.191 1
-3 21 -13 520.226 284.637 1
-3 13 21 145.849 83.5684 2
-13 -3 21 222.717 111.803 2
3 13 -21 182.337 176.457 1
-4 21 -13 -211.249 180.287 1
4 13 -21 227.351 208.349 1
-4 13 21 -8.07124 90.2993 2
13 21 -4 270.65 237.764 1
-13 -4 21 100.426 99.3211 2
5 13 -21 2298.99 465.467 1
13 21 -5 2380.95 475.443 1
-13 -5 21 2278.64 299.832 2
-5 13 21 2804.48 348.339 2
-5 21 -13 2407.51 461.941 1
6 13 -21 1646.87 384.665 1
13 21 -6 1849.95 401.721 1
-6 13 21 1791.06 270.055 2
-13 -6 21 1670.59 277.734 2
-6 21 -13 2103.92 462.896 1
13 21 -7 1086.45 329.424 1
-7 13 21 969.992 212.5 2
-13 -7 21 730.047 194.994 2
-7 21 -13 772.173 260.408 1
7 13 -21 1367.37 400 1
8 13 -21 -225.256 225.404 1
-8 13 21 40.9575 73.8066 2
-13 -8 21 -39.5856 95.8887 2
13 21 -8 114.562 119.338 1
-8 21 -13 280.619 242.245 1
-13 -9 21 1362.83 248.627 2
-9 13 21 1380.51 282.409 2
9 13 -21 1469.46 382.465 1
13 21 -9 1488.73 397.87 1
-9 21 -13 1351.19 355.117 1
-13 -10 21 228.379 95.3295 2
10 13 -21 286.31 188.229 1
-10 13 21 375.773 146.768 2
-10 21 -13 174.265 104.927 1
13 21 -11 366.636 199.982 1
-11 13 21 311.769 136.974 2
-13 -11 21 317.483 135.17 2
-11 21 -13 422.79 207.119 1
11 13 -21 -33.2802 145.099 1
13 21 -12 158.083 155.06 1
12 13 -21 60.1018 131.639 1
-12 13 21 87.2263 95.8071 2
-13 -12 21 126.776 69.2249 2
-12 21 -13 -126.405 126.316 1
13 21 -13 902.404 323.296 1
-13 13 21 868.684 222.539 2
-13 21 -13 1018.74 358.969 1
-14 13 21 40.339 106.226 2
13 21 -14 143.114 235.858 1
12 21 -14 -231.204 221.221 1
-14 12 21 261.58 173.169 2
-14 11 21 669.241 214.911 2
11 21 -14 1138.48 381.995 1
10 21 -14 682.405 259.858 1
-14 10 21 337.171 96.2474 2
9 21 -14 1110.44 340.253 1
-14 9 21 904.111 221.605 2
-14 8 21 1725.92 284.818 2
8 21 -14 1734.41 418.313 1
-14 7 21 517.763 172.953 2
7 21 -14 144.878 141.753 1
-14 6 21 1239.66 244.229 2
-6 -14 21 1323.45 261.208 2
6 21 -14 1084.84 311.502 1
-14 5 21 88.1589 86.7089 2
5 21 -14 169.26 174.308 1
-14 4 21 469.928 162.913 2
4 14 21 429.298 147.943 2
4 21 -14 554.968 251.279 1
-14 3 21 314.984 150.05 2
3 21 -14 529.782 230.145 1
3 14 21 381.585 144.523 2
2 14 21 178.507 101.55 2
2 21 -14 234.712 157.556 1
-14 2 21 347.927 142.116 2
1 21 -14 230.199 189.67 1
1 14 21 322.286 131.227 2
-1 14 -21 320.271 229.846 1
-14 1 21 448.281 158.671 2
0 21 -14 919.438 302.766 1
0 14 21 677.965 179.047 2
0 14 -21 1176.86 335.073 1
-14 0 21 812.219 207.443 2
-1 14 21 250.529 138.281 2
1 14 -21 161.507 145.273 1
-1 21 -14 350.133 211.251 1
-14 -1 21 462.006 171.097 2
-2 14 21 234.577 93.2119 2
-14 -2 21 194.326 108.304 2
-2 21 -14 446.845 251.128 1
2 14 -21 240.496 196.908 1
3 14 -21 349.392 199.257 1
-3 21 -14 481.531 243.257 1
-3 14 21 344.088 150.501 2
-14 -3 21 525.984 141.075 2
14 21 -3 182.903 154.417 1
-4 21 -14 656.029 234.466 1
4 14 -21 486.775 195.435 1
-4 14 21 530.758 172.311 2
-14 -4 21 339.339 127.193 2
14 21 -4 731.28 330.999 1
5 14 -21 240.904 151.753 1
-5 14 21 73.4692 77.6533 2
-14 -5 21 298.628 159.273 2
14 21 -5 111.069 162.426 1
-5 21 -14 45.9082 82.019 1
6 14 -21 1478.23 373.572 1
14 21 -6 1304.73 378.635 1
-14 -6 21 1027.32 216.223 2
-6 14 21 1513.97 273.481 2
-6 21 -14 1384.03 385.895 1
14 21 -7 213.915 188.844 1
7 14 -21 158.676 223.483 1
-7 14 21 306.179 102.59 2
-7 21 -14 492.521 264.479 1
-14 -7 21 490.155 155.892 2
-8 14 21 1447 276.072 2
8 14 -21 1721.49 426.654 1
-14 -8 21 1624.18 276.45 2
-8 21 -14 1485.54 392.109 1
14 21 -8 1551.03 416.532 1
-14 -9 21 797.365 201.771 2
-9 21 -14 840.526 314.667 1
9 14 -21 1543.08 409.858 1
-9 14 21 725.336 190.619 2
14 21 -9 592.145 236.352 1
-10 14 21 754.643 196.023 2
-14 -10 21 481.055 176.296 2
14 21 -10 384.652 204.19 1
10 14 -21 557.044 296.985 1
-10 21 -14 162.057 134.917 1
-11 14 21 961.456 228.558 2
-14 -11 21 738.66 188.53 2
-11 21 -14 634.805 299.258 1
14 21 -11 1112.06 376.054 1
11 14 -21 496.529 220.165 1
-12 21 -14 -1.04639 99.2771 1
12 14 -21 -55.2958 137.626 1
-12 14 21 99.3539 110.911 2
14 21 -12 291.526 233.052 1
-14 -12 21 95.3864 80.117 2
14 21 -13 -90.5373 111.596 1
-13 14 21 145.4 135.507 2
-13 21 -14 -9.00648 109.998 1
-14 14 21 313.402 150.365 2
-21 14 14 226.181 128.436 2
-15 14 21 364.654 132.842 2
-21 15 14 622.552 190.63 2
-15 13 21 -32.3474 102.893 2
-21 15 13 194.479 156.036 2
12 21 -15 187.429 110.209 1
-15 12 21 509.748 183.406 2
-15 11 21 666.305 198.266 2
11 21 -15 531.404 196.237 1
10 21 -15 548.831 240.523 1
-15 10 21 767.48 202.722 2
9 21 -15 90.6592 124.375 1
-15 9 21 15.3078 77.4694 2
8 21 -15 2048.52 461.731 1
-15 8 21 2427.62 337.202 2
-15 7 21 317.852 147.615 2
7 21 -15 1152.21 403.828 1
-15 6 21 619.768 182.731 2
6 21 -15 682.903 292.072 1
-15 5 21 692.144 166.074 2
5 21 -15 411.065 188.805 1
-15 4 21 605.55 181.989 2
4 21 -15 484.952 173.778 1
4 15 21 653.266 163.614 2
3 15 21 390.813 135.449 2
-3 15 -21 380.999 167.358 1
3 21 -15 634.931 286.392 1
-15 3 21 536.719 176.797 2
2 21 -15 169.973 88.6647 1
2 15 21 90.8362 65.5053 2
-15 2 21 171.06 93.071 2
-2 15 -21 200.433 188.81 1
-1 15 -21 79.4963 152.99 1
1 15 21 88.5479 95.2461 2
-15 1 21 72.2594 60.0039 2
1 21 -15 36.5505 139.184 1
-15 0 21 1651.87 271.993 2
0 21 -15 1877.05 434.996 1
0 15 21 1812.19 282.783 2
0 15 -21 2104.75 464.724 1
-1 21 -15 -47.7569 187.787 1
-15 -1 21 -6.66982 86.0451 2
-1 15 21 25.6085 96.0116 2
1 15 -21 369.845 210.234 1
-2 21 -15 -20.5595 187.585 1
-2 15 21 83.4798 84.8851 2
-15 -2 21 192.435 141.405 2
2 15 -21 254.149 260.799 1
-3 21 -15 536.193 212.868 1
3 15 -21 915.431 325.371 1
-3 15 21 632.391 168.339 2
-15 -3 21 420.516 144.456 2
15 21 -4 618.077 298.301 1
4 15 -21 1146.57 353.413 1
-4 15 21 640.717 174.813 2
-15 -4 21 478.055 161.033 2
-4 21 -15 342.297 158.419 1
5 15 -21 598.226 238.106 1
-5 15 21 767.939 203.216 2
-15 -5 21 907.818 212.189 2
15 21 -5 647.842 268.052 1
-5 21 -15 741.098 232.212 1
15 21 -6 461.204 259.092 1
-6 15 21 817.784 194.343 2
6 15 -21 393.842 197.669 1
-6 21 -15 664.043 312.846 1
-15 -6 21 515.259 161.398 2
-7 15 21 197.237 121.741 2
-15 -7 21 323.415 128.324 2
7 15 -21 301.602 212.091 1
15 21 -7 173.749 131.202 1
-7 21 -15 -187.606 155.657 1
15 21 -8 2320.51 505.271 1
-15 -8 21 1910.32 279.51 2
8 15 -21 2036.21 420.327 1
-8 15 21 2488.43 353.018 2
-8 21 -15 2387.49 485.982 1
15 21 -9 -49.3411 228.074 1
-9 15 21 265.938 132.327 2
9 15 -21 119.701 175.204 1
-15 -9 21 10.1137 83.6869 2
-9 21 -15 128.475 144.226 1
15 21 -10 1097.46 383.648 1
-10 15 21 888.896 230.423 2
-15 -10 21 577.038 154.703 2
10 15 -21 1113.57 366.409 1
-10 21 -15 329.423 155.808 1
11 15 -21 1171.88 326.963 1
-15 -11 21 995.501 222.557 2
-11 15 21 653.223 182.297 2
-11 21 -15 549.289 245.689 1
15 21 -11 584.899 203.36 1
12 15 -21 88.8771 120.079 1
-12 21 -15 354.881 205.25 1
-12 15 21 426.323 147.015 2
-13 15 21 59.3814 126.015 2
-21 13 15 39.7061 84.6982 2
-14 15 21 725.642 175.815 2
-21 14 15 538.299 180.582 2
-15 15 21 3654.91 431.594 2
-21 15 15 3605.24 406.252 2
-16 15 21 314.293 150.64 2
-21 16 15 89.6685 77.1755 2
-16 14 21 1628.88 293.998 2
-21 16 14 1739.48 306.315 2
-16 13 21 376.138 183.377 2
-21 16 13 225.582 132.979 2
-16 12 21 672.507 183.967 2
-16 11 21 465.013 152.467 2
-16 10 21 155.921 70.5926 2
10 21 -16 197.717 101.533 1
9 21 -16 548.653 279.073 1
-16 9 21 409.866 160.539 2
-16 8 21 505.818 184.374 2
8 21 -16 146.5 171.867 1
-16 7 21 1158.3 240.056 2
7 21 -16 844.999 304.944 1
-16 6 21 1222.96 244.47 2
6 21 -16 1269.18 340.339 1
-16 5 21 -20.2327 74.9818 2
5 21 -16 809.615 390.396 1
-16 4 21 249.625 192.88 2
4 16 21 586.752 177.894 2
4 21 -16 445.248 236.755 1
3 16 21 525.061 149.741 2
3 21 -16 668.579 288.108 1
-3 16 -21 596.985 225.083 1
-16 3 21 283.513 108.302 2
2 16 21 514.163 148.577 2
2 21 -16 350.766 144.132 1
-2 16 -21 517.092 251.142 1
-16 2 21 498.703 160.344 2
1 21 -16 223.8 123.803 1
1 16 21 538.16 167.205 2
-16 1 21 767.706 196.759 2
0 21 -16 -27.7141 93.6944 1
-16 0 21 -223.27 107.989 2
0 16 21 -23.0755 70.6463 2
0 16 -21 28.1444 151.819 1
-16 -1 21 588.406 169.833 2
-1 16 21 358.861 201.733 2
1 16 -21 557.412 256.307 1
2 16 -21 1000.26 327.809 1
-2 21 -16 786.274 310.08 1
-2 16 21 233.616 152.157 2
-16 -2 21 537.829 154.479 2
-3 21 -16 622.407 289.09 1
3 16 -21 434.055 249.337 1
-3 16 21 649.073 207.085 2
-16 -3 21 230.398 95.4011 2
4 16 -21 324.948 193.486 1
-4 16 21 142.293 155.319 2
-16 -4 21 337.384 133.516 2
-4 21 -16 486.483 242.046 1
5 16 -21 80.6872 144.712 1
-16 -5 21 122.609 141.578 2
-5 16 21 74.847 90.7921 2
-5 21 -16 -215.379 183.613 1
16 21 -6 1266.93 356.012 1
6 16 -21 778.18 277.862 1
-6 16 21 1095.61 243.331 2
-6 21 -16 695.221 295.52 1
-16 -6 21 1056.75 216.07 2
-7 21 -16 922.436 293.952 1
-7 16 21 971.783 220.373 2
7 16 -21 910.264 337.454 1
16 21 -7 1340.53 399.285 1
-16 -7 21 632.692 173.692 2
8 16 -21 533.138 229.643 1
16 21 -8 596.264 302.505 1
-16 -8 21 378.954 122.168 2
-8 16 21 499.723 182.259 2
-8 21 -16 402.219 200.099 1
-16 -9 21 477.091 170.301 2
-9 16 21 412.067 153.086 2
9 16 -21 435.99 192.882 1
-9 21 -16 529.433 283.686 1
16 21 -9 595.647 283.839 1
-10 16 21 240.198 125.742 2
-16 -10 21 35.9709 101.382 2
16 21 -10 83.1917 118.382 1
-10 21 -16 -76.1433 173.807 1
10 16 -21 292.392 215.103 1
11 16 -21 462.451 217.127 1
-16 -11 21 421.266 164.943 2
-11 21 -16 91.4044 137.48 1
-11 16 21 468.58 169.336 2
-21 12 16 272.211 102.86 2
-12 16 21 523.876 207.857 2
-21 13 16 136.081 134.468 2
-13 16 21 58.8378 89.392 2
-14 16 21 1758.39 308.097 2
-21 14 16 1515.11 263.629 2
-21 15 16 68.0586 75.4603 2
-15 16 21 119.111 125.012 2
-16 16 21 356.317 135.177 2
-21 16 16 171.48 125.439 2
-17 16 21 600.842 193.3 2
-21 17 16 596.536 180.501 2
-17 15 21 214.276 142.475 2
-21 17 15 90.3489 94.9144 2
-17 14 21 538.055 180.174 2
-21 17 14 657.264 202.657 2
-21 17 13 1153.64 228.583 2
-17 13 21 1071.3 228.364 2
-17 12 21 1358.34 266.88 2
-17 11 21 18.2966 82.8805 2
-17 10 21 896.78 203.274 2
9 21 -17 439.174 309.894 1
-17 9 21 242.589 117.368 2
-17 8 21 1493.85 267.536 2
8 21 -17 1650.71 419.156 1
-17 7 21 63.9365 98.502 2
7 21 -17 421.607 209.921 1
-17 6 21 1878.52 285.289 2
6 21 -17 2090.23 478.571 1
-6 17 -21 1696.76 423.77 1
-17 5 21 97.2495 142.462 2
5 21 -17 -16.3321 118.8 1
-5 17 -21 149.088 209.038 1
4 17 21 126.773 127.543 2
-4 17 -21 310.682 224.887 1
4 21 -17 230.025 232.031 1
-17 4 21 -36.3959 100.7 2
3 17 21 420.382 146.841 2
3 21 -17 522.566 280.739 1
-3 17 -21 743.763 243.252 1
-17 3 21 808.711 202.806 2
-2 17 -21 158.021 198.064 1
2 21 -17 208.32 181.148 1
2 17 21 594.148 200.794 2
-17 2 21 95.1647 76.3007 2
1 21 -17 -84.8608 149.919 1
1 17 21 189.773 146.988 2
-17 1 21 317.964 112.394 2
-1 17 -21 587.134 295.171 1
0 21 -17 1338.59 388.327 1
0 17 21 922.269 271.192 2
-17 0 21 1191.49 248.187 2
0 17 -21 1901.8 457.326 1
1 17 -21 340.318 242.303 1
-1 21 -17 368.589 176.405 1
-1 17 21 262.078 166.049 2
-17 -1 21 358.697 166.632 2
-2 21 -17 391.024 219.237 1
2 17 -21 309.987 222.575 1
-2 17 21 494.025 226.28 2
-17 -2 21 150.235 117.966 2
-3 21 -17 264.354 133.086 1
3 17 -21 149.365 119.974 1
-3 17 21 441.481 165.311 2
-17 -3 21 414.496 99.0229 2
4 17 -21 278.679 247.186 1
-17 -4 21 1.21313 98.4508 2
-4 17 21 44.1719 111.413 2
-4 21 -17 243.502 218.978 1
5 17 -21 -10.9769 85.851 1
-5 17 21 33.8825 99.4666 2
-17 -5 21 50.6748 94.295 2
-5 21 -17 298.277 218.69 1
-17 -6 21 1464.18 239.615 2
6 17 -21 1844.53 438.887 1
-6 21 -17 1566.69 443.666 1
-6 17 21 2202.19 337.647 2
-17 -7 21 78.4548 70.9636 2
7 17 -21 398.188 201.734 1
-7 17 21 20.6395 104.601 2
-7 21 -17 396.654 201.515 1
8 17 -21 1254.4 403.553 1
17 21 -8 1601.25 451.76 1
-8 21 -17 1421.28 401.542 1
-8 17 21 1484.28 287.428 2
17 21 -9 457.929 285.699 1
-9 21 -17 -94.991 210.65 1
-9 17 21 340.057 124.522 2
9 17 -21 258.215 167.852 1
-10 17 21 1202.87 265.87 2
-21 11 17 0.6139 87.7398 2
-11 17 21 504.747 198.002 2
-21 12 17 1369.4 257.937 2
-12 17 21 1579.76 295.499 2
-21 13 17 1038.12 217.943 2
-13 17 21 1410.64 272.251 2
-21 14 17 563.935 179.499 2
-14 17 21 637.146 207.15 2
-21 15 17 317.251 166.939 2
-15 17 21 289.333 176.873 2
-16 17 21 466.432 175.716 2
-21 16 17 277.724 131.639 2
-21 17 17 6080.71 510.864 2
-17 21 17 6080.44 554.078 2
-17 17 21 6529.79 581.574 2
-18 17 21 376.41 175.86 2
-17 21 18 449.323 185.234 2
-21 18 17 317.855 104.448 2
-21 18 16 341.349 153.969 2
-18 16 21 -34.1026 111.832 2
-16 21 18 410.846 150.258 2
-18 15 21 334.606 163.197 2
-21 18 15 707.814 188.034 2
-18 14 21 55.6557 99.95 2
-21 18 14 300.495 100.716 2
-18 13 21 517.047 160.557 2
-18 12 21 349.069 115.887 2
-18 11 21 -123.449 118.674 2
-18 10 21 210.285 90.6466 2
-18 9 21 534.826 173.865 2
-18 8 21 140.177 97.8856 2
-18 7 21 140.426 88.6818 2
-7 18 -21 598.805 304.511 1
7 21 -18 175.6 202.272 1
-18 6 21 95.7118 110.033 2
-6 18 -21 36.2891 146.562 1
6 21 -18 -15.2251 127.227 1
5 21 -18 1577.99 361.416 1
-5 18 -21 1745.42 437.768 1
-18 5 21 1930.91 302.203 2
4 18 21 985.838 230.932 2
-4 18 -21 1053.55 353.213 1
4 21 -18 1062.44 353.339 1
-18 4 21 861.561 211.902 2
-18 3 21 898.114 224.231 2
3 18 21 752.256 178.968 2
3 21 -18 1058.6 353.771 1
-3 18 -21 760.867 302.199 1
2 18 21 813.699 193.452 2
2 21 -18 818.432 308.502 1
-2 18 -21 932.33 325.385 1
-18 2 21 711.307 188.516 2
1 21 -18 -5.36696 118.1 1
1 18 21 -74.9018 95.3596 2
-18 1 21 -149.913 97.4238 2
-1 18 -21 -374.147 328.598 1
0 18 -21 1493.58 420.88 1
0 21 -18 1540.54 445.834 1
0 18 21 1153.38 242.109 2
-18 0 21 1329.02 237.768 2
-1 21 -18 346.515 265.377 1
-1 18 21 62.8423 131.24 2
1 18 -21 -357.203 253.119 1
-18 -1 21 -95.7342 148.768 2
-2 21 -18 816.192 318.333 1
2 18 -21 650.279 206.537 1
-2 18 21 607.641 219.327 2
-18 -2 21 682.44 196.854 2
-3 21 -18 787.922 265.188 1
3 18 -21 384.515 181.646 1
-18 -3 21 878.694 189.217 2
-3 18 21 504.231 222.469 2
-4 21 -18 1151.01 350.727 1
4 18 -21 617.197 237.071 1
-4 18 21 463.698 207.861 2
5 18 -21 1993.83 459.297 1
-5 18 21 2144.17 325.788 2
-5 21 -18 2173.04 488.699 1
6 18 -21 -99.8229 176.285 1
-6 18 21 -30.5867 69.6915 2
-6 21 -18 225.694 229.392 1
7 18 -21 40.451 161.051 1
-7 18 21 397.788 149.417 2
-7 21 -18 48.2024 178.406 1
-8 18 21 153.212 164.104 2
-9 18 21 448.437 144.181 2
-21 10 18 348.425 149.198 2
-10 18 21 437.017 182.292 2
-21 11 18 -3.32343 99.7118 2
-11 18 21 124.826 148.749 2
-21 12 18 54.7959 80.783 2
-12 18 21 88.7931 95.3216 2
-21 13 18 413.92 156.254 2
-13 18 21 540.818 153.464 2
-21 14 18 49.1317 107.818 2
-14 18 21 450.051 186.939 2
-21 15 18 351.657 129.403 2
-15 18 21 229.038 105.281 2
-16 18 21 298.78 123.939 2
-21 16 18 326.236 126.785 2
-21 17 18 450.918 155.894 2
-17 18 21 322.024 152.286 2
-18 21 17 93.4694 119.821 2
-21 18 18 -61.2234 119.627 2
-18 18 21 -184.397 136.759 2
-18 21 18 -44.2077 115.554 2
-19 18 21 427.608 176.281 2
-21 19 18 325.482 101.026 2
-18 21 19 172.399 101.893 2
-21 19 17 -1.0793 86.1781 2
-19 17 21 263.836 147.241 2
-17 21 19 250.228 123.215 2
-19 16 21 529.919 180.413 2
-21 19 16 316.791 121.94 2
-16 21 19 401.401 149.045 2
-19 15 21 1384.75 255.274 2
-21 19 15 1108.99 217.594 2
-15 21 19 1268.96 256.986 2
-19 14 21 1284.48 262.927 2
-21 19 14 1590.4 269.584 2
-14 21 19 1489.79 292.773 2
-19 13 21 148.546 142.312 2
-13 21 19 237.726 146.639 2
-19 12 21 602.63 174.309 2
-19 11 21 214.894 131.534 2
-19 10 21 1065.4 233.875 2
-19 9 21 95.8848 72.8551 2
-19 8 21 2874.87 351.674 2
-19 7 21 3229.59 390.129 2
-19 6 21 1823.86 272.251 2
-19 5 21 1141.26 210.197 2
4 19 21 3180.24 364.57 2
-19 4 21 3688.18 390.536 2
3 19 21 1031.65 187.468 2
3 21 -19 1012.37 346.176 1
-19 3 21 1177.87 225.727 2
-3 19 -21 744.168 317.075 1
2 21 -19 1219.39 397.332 1
-19 2 21 1170.55 225.361 2
2 19 21 1137.81 229.437 2
-2 19 -21 971.534 327.374 1
1 21 -19 807.339 298.815 1
-1 19 -21 503.3 294.446 1
-19 1 21 955.383 196.529 2
1 19 21 939.093 221.959 2
0 19 -21 173.376 165.879 1
0 21 -19 171.1 142.248 1
0 19 21 6.34672 81.3903 2
1 19 -21 1180.12 377.462 1
-1 21 -19 774.039 281.112 1
-1 19 21 610.154 207.313 2
2 19 -21 1203.57 373.07 1
-2 19 21 860.379 269.315 2
-3 21 -19 1117.33 392.346 1
3 19 -21 1294.5 405.898 1
-3 19 21 853.144 234.836 2
3 21 19 1002.64 217.572 2
-4 19 21 2657.32 393.999 2
4 21 19 2623.66 337.491 2
-5 19 21 700.29 186.292 2
-6 19 21 1593.97 283.056 2
-7 19 21 3433.48 413.083 2
-8 19 21 3643.69 429.288 2
-21 9 19 32.9724 120.451 2
-9 19 21 -57.2815 110.218 2
-21 10 19 931.34 190.861 2
-10 19 21 1203.37 273.632 2
-21 11 19 233.283 129.984 2
-11 19 21 261.565 138.055 2
-21 12 19 554.366 186.414 2
-12 19 21 556.049 209.416 2
-13 19 21 433.256 183.958 2
-21 13 19 302.821 145.095 2
-21 14 19 1324 239.177 2
-14 19 21 1557.67 293.903 2
-15 19 21 1255.94 263.286 2
-21 15 19 1418.27 259.907 2
-21 16 19 722.768 186.33 2
-16 19 21 518.299 187.653 2
-19 21 16 396.611 160.571 2
-21 17 19 226.542 138.289 2
-19 21 17 84.7709 82.9767 2
-17 19 21 -21.9591 108.527 2
-21 18 19 305.692 151.082 2
-18 19 21 303.074 145.661 2
-19 21 18 450.131 188.537 2
-19 19 21 1648.44 282.19 2
-19 21 19 1698.46 286.299 2
-21 19 19 1653.97 324.683 2
-20 19 21 821.123 198.109 2
-21 20 19 534.716 149.767 2
-19 21 20 814.742 191.121 2
-20 18 21 -38.0768 119.461 2
-21 20 18 111.238 128.535 2
-18 21 20 75.8788 92.3142 2
-20 17 21 323.911 150.739 2
-17 21 20 249.871 137.771 2
-21 20 17 131.897 100.227 2
-20 16 21 388.372 119.198 2
-21 20 16 460.251 167.136 2
-16 21 20 634.012 212.861 2
-20 15 21 626.257 179.809 2
-21 20 15 665.879 162.344 2
-15 21 20 713.709 213.822 2
-20 14 21 659.519 198.128 2
-14 21 20 597.83 191.407 2
-21 20 14 536.386 169.599 2
-20 13 21 66.401 91.3119 2
-13 21 20 20.5224 92.4853 2
-20 12 21 632.291 163.878 2
-12 21 20 967.413 233.948 2
-20 11 21 1054.83 233.032 2
-11 21 20 983.274 244.508 2
-20 10 21 434.915 132.336 2
-10 21 20 394.01 165.938 2
-20 9 21 125.905 98.1475 2
-20 8 21 283.795 91.7211 2
-20 7 21 1213.96 238.349 2
-20 6 21 483.438 151.048 2
-20 5 21 202.199 106.88 2
4 20 21 651.812 162.577 2
-20 4 21 751.805 195.474 2
3 20 21 892.491 193.114 2
2 20 21 1460.17 260.845 2
1 20 21 686.23 200.428 2
0 20 21 112.735 143.905 2
0 21 20 135.429 145.646 2
-1 20 21 424.802 183.417 2
1 21 20 947.524 203.211 2
-2 20 21 2789.2 655.048 2
2 21 20 1015.65 207.485 2
-3 20 21 700.982 237.496 2
3 21 20 1014.77 214.174 2
-4 20 21 768.271 218.185 2
4 21 20 779.143 173.393 2
-5 20 21 400.552 225.768 2
-6 20 21 585.245 174.08 2
-7 20 21 923.553 227.105 2
-21 8 20 186.518 88.6374 2
-8 20 21 459.25 194.173 2
-21 9 20 34.425 103.967 2
-9 20 21 163.003 150.067 2
-21 10 20 375.541 156.851 2
-10 20 21 577.945 185.95 2
-21 11 20 891.053 182.591 2
-11 20 21 860.829 216.026 2
-21 12 20 895.308 223.163 2
-12 20 21 907.121 222.047 2
-21 13 20 -21.752 113.06 2
-13 20 21 -168.446 134.04 2
-21 14 20 454.122 190.648 2
-14 20 21 533.44 176.964 2
-21 15 20 757.262 191.194 2
-15 20 21 750.365 218.309 2
-20 21 15 730.736 194.134 2
-16 20 21 475.251 201.146 2
-21 16 20 320.575 134.232 2
-20 21 16 233.647 110.009 2
-21 17 20 386.178 146.827 2
-17 20 21 118.019 91.3328 2
-20 21 17 266.264 139.363 2
-18 20 21 -90.3245 120.117 2
-20 21 18 -52.8825 93.0847 2
-21 19 20 847.796 215.211 2
-19 20 21 844.363 230.059 2
-20 21 19 515.536 135.169 2
-20 20 21 292.168 138.99 2
-21 20 20 457.726 131.667 2
-20 21 20 424.65 153.411 2
0 21 21 596.174 238.423 2
-1 21 21 961.382 251.207 2
1 21 21 1204.98 251.642 2
2 21 21 1628.06 272.594 2
-2 21 21 1138.43 267.583 2
-3 21 21 78.8852 100.355 2
3 21 21 440.603 165.138 2
-4 21 21 997.711 276.103 2
4 21 21 1127.44 215.155 2
-5 21 21 813.365 198.84 2
-6 21 21 4991.78 508.947 2
-7 21 21 624.455 205.104 2
-21 7 21 469.106 131.399 2
-8 21 21 308.481 166.716 2
-21 8 21 294.025 130.225 2
-21 9 21 2935.72 360.002 2
-9 21 21 3014.42 397.154 2
-21 10 21 1042.5 204.626 2
-10 21 21 1364.33 289.835 2
-21 11 21 -1.68964 68.6082 2
-11 21 21 258.696 165.281 2
-21 12 21 807.927 198.199 2
-12 21 21 691.118 193.482 2
-21 13 21 899.408 200.602 2
-13 21 21 1040.31 249.424 2
-21 14 21 398.103 174.839 2
-21 21 14 212.9 96.0464 2
-14 21 21 99.1532 110.964 2
-21 15 21 976.482 194.83 2
-21 21 15 786 196.722 2
-21 16 21 209.691 111.191 2
-21 21 16 443.216 126.68 2
-16 21 21 394.897 146.632 2
-21 17 21 290.767 143.121 2
-21 21 17 -111.851 116.266 2
-17 21 21 94.7925 127.293 2
-21 18 21 854.924 202.264 2
-18 21 21 1021.79 234.35 2
-21 21 18 1194.57 224.002 2
-21 19 21 663.81 166.862 2
-19 21 21 805.818 213.831 2
-21 21 19 723.616 184.621 2
-21 20 21 185.413 94.5688 2
-20 21 21 273.876 141.943 2
-21 21 20 489.642 167.195 2
-21 21 21 526.163 171.561 2
0 22 0 -133.124 127.707 1
0 22 1 6476.16 642.443 1
1 22 0 5806.74 622.479 1
0 22 -1 5747.26 622.613 1
-1 22 0 6388.85 634.79 1
1 22 1 -207.061 185.206 1
-1 22 -1 54.63 85.1674 1
1 22 -1 132.083 104.194 1
-1 22 1 -20.672 76.2532 1
1 22 -2 2477.16 434.774 1
-1 22 2 2810.11 406.546 1
2 22 1 2355.89 393.768 1
-2 22 -1 2665.85 413.503 1
2 22 0 4283.62 538.42 1
0 22 2 4477.02 524.816 1
0 22 -2 3804.36 513.282 1
-2 22 0 3898.32 485.293 1
-1 22 -2 2958.72 465.728 1
1 22 2 3012.39 442.288 1
2 22 -1 2782.01 444.15 1
-2 22 1 3040.49 436.358 1
2 22 -2 853.155 269.541 1
2 22 2 724.733 267.039 1
-2 22 -2 985.441 349.094 1
-3 22 -2 3914.53 496.592 1
2 22 -3 4058.34 550.361 1
3 22 2 3907.85 531.498 1
-3 22 -1 1854.61 335.73 1
1 22 -3 2072.59 373.235 1
3 22 1 2022.69 376.833 1
0 22 3 11.1005 85.1205 1
-3 22 0 -39.853 89.0624 1
3 22 0 -41.7609 82.4356 1
0 22 -3 167.987 153.886 1
1 22 3 1837.97 339.676 1
3 22 -1 1810.53 356.418 1
-1 22 -3 2187.2 414.691 1
-2 22 -3 4014.56 525.582 1
3 22 -2 4058.67 548.172 1
2 22 3 4339 551.564 1
3 22 3 -12.3102 187.08 1
3 22 -3 329.142 185.585 1
3 22 -4 713.862 229.556 1
4 22 3 768.33 234.405 1
-4 22 -3 1091.44 296.995 1
4 3 -22 866.648 236.383 1
2 22 -4 1169.25 301.894 1
4 22 2 950.689 251.57 1
-4 22 -2 1346.65 295.035 1
-4 22 -1 2993.85 447.673 1
1 22 -4 3055.81 462.889 1
4 22 1 2959.51 457.285 1
4 22 0 848.994 248.38 1
0 22 -4 816.344 235.855 1
4 22 -1 2911.15 475.826 1
-1 22 -4 2788.56 453.941 1
1 22 4 2563.12 402.13 1
2 22 4 947.134 313.956 1
4 22 -2 1280.56 318.674 1
-2 22 -4 1432.99 331.834 1
3 22 4 913.366 269.414 1
4 22 -3 940.127 266.489 1
-3 22 -4 998.218 267.588 1
4 22 -4 951.935 288.839 1
-4 22 -4 1141.06 300.478 1
4 4 -22 1542.67 332.316 1
-5 4 22 886.622 190.05 2
4 22 -5 967.571 276.186 1
-5 22 -4 795.209 237.581 1
-4 -5 22 1010.13 211.509 2
5 4 -22 832.443 240.606 1
-5 22 -3 7617.58 712.09 1
-5 3 22 7531.24 543.492 2
-3 -5 22 7906.18 564.78 2
5 22 3 7675.87 749.93 1
3 22 -5 7537.99 782.249 1
5 22 2 855.315 245.285 1
-5 22 -2 824.991 260.214 1
2 22 -5 1010.06 275.153 1
1 22 -5 2026.18 409.655 1
5 22 1 1815.79 365.452 1
5 22 0 1996.62 397.029 1
0 22 -5 2111.79 403.218 1
5 22 -1 1515.53 364.329 1
-1 22 -5 1849.01 379.674 1
-2 22 -5 962.2 258.765 1
5 22 -2 739.908 250.809 1
-3 22 -5 7709.74 742.057 1
-5 -3 22 7679.01 546.902 2
5 22 -3 7554.3 783.848 1
-4 5 22 938.469 200.697 2
5 22 -4 867.284 305.949 1
-4 22 -5 694.32 225.104 1
4 5 -22 797.836 220.189 1
-5 -4 22 996.292 213.767 2
-5 5 22 60.0652 91.5299 2
5 22 -5 70.7427 106.092 1
-5 22 -5 13.1282 85.255 1
-5 -5 22 136.874 132.017 2
5 5 -22 222.944 148.046 1
-6 5 22 260.986 124.489 2
5 22 -6 482.866 254.051 1
-5 -6 22 396.643 141.783 2
-6 22 -5 264.068 118.498 1
6 5 -22 180.176 114.147 1
4 22 -6 492.947 255.039 1
-6 4 22 480.118 152.55 2
-6 22 -4 723.837 192.93 1
-4 -6 22 540.453 159.186 2
-6 3 22 996.607 202.013 2
6 22 3 1163.26 315.367 1
-6 22 -3 834.027 218.663 1
-3 -6 22 1072.22 215.207 2
3 22 -6 1052.98 300.242 1
6 22 2 2205.31 429.498 1
-2 -6 22 2572.34 326.798 2
-6 2 22 2412.55 309.004 2
2 22 -6 2372.54 419.791 1
6 22 1 1489.38 328.523 1
-1 -6 22 2046.68 297.446 2
1 22 -6 1907.36 388.632 1
-6 1 22 1920.64 263.372 2
6 22 0 19.2991 164.313 1
0 22 -6 63.134 162.557 1
-6 0 22 83.4484 92.7061 2
-6 -1 22 1912.85 320.572 2
6 22 -1 1850.57 403.932 1
-1 22 -6 1589.6 364.353 1
-6 -2 22 2162.16 278.941 2
-2 22 -6 2343.43 441.606 1
-2 6 22 2309.67 286.487 2
6 22 -2 2610.5 459.84 1
-3 6 22 1040.09 192.265 2
-3 22 -6 716.221 225.8 1
-6 -3 22 1281.94 236.259 2
6 22 -3 917.835 299.081 1
-4 6 22 492.097 128.518 2
-4 22 -6 792.876 247.448 1
6 22 -4 667.511 233.281 1
-6 -4 22 843.442 220.739 2
4 6 -22 500.567 182.815 1
-5 6 22 176.983 90.6065 2
5 -6 22 333.017 146.073 2
-5 22 -6 293.19 187.708 1
6 22 -5 151.293 94.089 1
-6 -5 22 504.911 159.217 2
5 6 -22 446.048 209.097 1
6 6 -22 -128.775 142.061 1
-6 6 22 145.985 93.1026 2
-6 22 -6 -32.0567 72.9931 1
6 22 -6 -45.2669 126.281 1
-6 -6 22 -21.676 100.535 2
6 -6 22 125.616 119.535 2
-7 6 22 267.996 120.899 2
6 22 -7 148.219 146.78 1
-7 22 -6 362.116 194.673 1
7 6 -22 432.504 200.459 1
-6 -7 22 262.927 130.722 2
7 -6 22 266.044 107.047 2
5 22 -7 1024.6 318.526 1
-7 5 22 858.817 194.504 2
-7 22 -5 935.902 262.918 1
-5 -7 22 1070.31 204.022 2
4 22 -7 662.475 223.25 1
-7 4 22 598.321 145.858 2
-4 -7 22 701.364 180.086 2
-7 22 -4 440.024 163.785 1
-7 3 22 1168.46 233.285 2
-3 -7 22 1366.23 238.921 2
3 22 -7 1294.5 347.87 1
-7 2 22 400.017 175.642 2
-2 -7 22 314.899 147.076 2
2 22 -7 366.657 203.59 1
7 22 2 215.93 95.7102 1
-1 -7 22 2402.09 323.894 2
-7 1 22 2293.35 308.231 2
1 22 -7 2069.35 402.733 1
7 22 1 2666.64 467.532 1
7 22 0 1487.64 371.714 1
0 -7 22 1452.64 254.095 2
-7 0 22 1082.09 213.394 2
0 22 -7 1328.4 343.724 1
-1 22 -7 2701.29 467.52 1
-7 -1 22 2726.49 337.551 2
-1 7 22 2363.18 298.841 2
1 -7 22 2264.6 302.139 2
7 22 -1 2470.09 429.648 1
-2 7 22 268.71 105.625 2
7 22 -2 186.772 183.569 1
-2 22 -7 447.936 234.448 1
-7 -2 22 84.1336 57.8181 2
2 -7 22 288.609 145.377 2
7 22 -3 965.747 293.322 1
-3 7 22 1445.67 262.632 2
3 -7 22 1409.63 242.82 2
-3 22 -7 1355.32 333.04 1
3 7 -22 1264.24 324.267 1
-7 -3 22 1022.58 196.323 2
-4 7 22 784.21 173.115 2
-4 22 -7 983.331 313.548 1
4 -7 22 898.619 191.652 2
-7 -4 22 810.672 294.002 2
7 22 -4 655.934 232.868 1
4 7 -22 673.884 238.513 1
7 22 -5 1145.19 319.164 1
-5 7 22 1414.44 240.226 2
-5 22 -7 1386.07 346.93 1
5 7 -22 1507.97 339.002 1
5 -7 22 1041.14 222.602 2
-7 -5 22 1826.52 285.142 2
6 7 -22 240.119 128.184 1
-6 22 -7 486 198.973 1
-6 7 22 227.717 112.711 2
-7 -6 22 222.787 121.292 2
6 -7 22 125.581 82.1806 2
7 22 -6 259.58 200.791 1
7 7 -22 278.636 158.979 1
-7 22 -7 170.777 153.926 1
-7 7 22 194.268 131.036 2
7 22 -7 47.617 108.139 1
7 -7 22 121.265 83.2634 2
-7 -7 22 178.616 126.399 2
-8 22 -7 108.817 100.898 1
-8 7 22 31.4695 91.8927 2
7 22 -8 309.165 169.771 1
8 -7 22 360.627 131.467 2
-7 -8 22 309.751 138.179 2
-8 6 22 455.098 147.921 2
6 22 -8 434.503 269.024 1
-8 22 -6 531.354 196.394 1
-6 -8 22 635.807 184.096 2
8 -6 22 409.837 117.534 2
-8 5 22 74.2802 81.6844 2
-5 -8 22 -64.1398 95.093 2
5 22 -8 -35.6977 145.913 1
-4 -8 22 2400.95 340.325 2
4 22 -8 2652.79 495.298 1
-8 4 22 2331.34 307.332 2
-8 3 22 624.85 185.517 2
3 8 22 362.092 91.0714 2
3 22 -8 466.823 188.4 1
-3 -8 22 569.396 145.507 2
-8 2 22 949.312 189.384 2
2 8 22 949.017 190.455 2
-2 -8 22 878.362 190.164 2
2 22 -8 1011.71 275.531 1
8 22 2 1217.42 312.002 1
1 8 22 833.565 195.805 2
8 22 1 1281.73 344.484 1
-1 -8 22 1128.59 233.703 2
1 22 -8 1227.57 345.697 1
-8 1 22 988.016 201.595 2
0 -8 22 2512.28 319.084 2
0 8 22 2087.11 278.508 2
-8 0 22 2441.1 314.394 2
8 22 0 2059.78 390.837 1
0 22 -8 2195.63 426.77 1
-1 8 22 1239.33 210.931 2
-1 22 -8 1425.98 338.795 1
1 -8 22 1439.61 245.54 2
-8 -1 22 1777.98 321.85 2
8 22 -1 1270.58 348.803 1
-2 8 22 1144.39 214.535 2
-8 -2 22 972.907 200.408 2
2 -8 22 857.123 189.791 2
-2 22 -8 1377.13 343.885 1
8 22 -2 983.403 291.64 1
-3 8 22 499.955 168.447 2
-3 22 -8 286.718 143.404 1
8 22 -3 251.124 100.589 1
3 -8 22 620.907 156.04 2
3 8 -22 381.872 181.549 1
-8 -3 22 603.389 160.673 2
8 22 -4 2027.84 435.439 1
-4 22 -8 2138.42 403.162 1
4 -8 22 2148.37 302.554 2
-4 8 22 2383.89 305.072 2
-8 -4 22 2534.72 324.125 2
4 8 -22 2489.35 453.98 1
5 8 -22 327.669 208.099 1
-5 22 -8 251.976 188.236 1
-5 8 22 82.1586 81.1085 2
-8 -5 22 45.5193 72.6148 2
5 -8 22 -4.13551 75.4167 2
8 22 -5 78.9382 99.3391 1
6 8 -22 204.147 127.493 1
-6 22 -8 568.394 191.377 1
-6 8 22 559.658 168.611 2
-8 -6 22 530.025 163.292 2
8 22 -6 703.157 290.038 1
6 -8 22 450.603 155.175 2
-7 22 -8 152.762 136.382 1
-7 8 22 83.9945 82.1832 2
7 8 -22 159.268 138.078 1
8 22 -7 174.716 173.804 1
-8 -7 22 133.442 85.9373 2
-8 22 -8 1399.58 352.866 1
-8 8 22 1537.21 255.68 2
8 8 -22 1575.16 346.27 1
8 22 -8 1482.69 382.815 1
8 -8 22 1016.98 241.539 2
-8 -8 22 1643.37 281.107 2
-9 22 -8 1770.18 363.862 1
-8 -9 22 1883.44 291.906 2
8 22 -9 1491.29 298.616 1
-9 8 22 1751.58 305.223 2
-9 22 -7 682.446 222.606 1
7 22 -9 781.702 249.857 1
-9 7 22 1116.14 237.772 2
9 -7 22 347.717 146.921 2
-7 -9 22 922.339 227.38 2
6 22 -9 815.625 312.308 1
-9 6 22 574.521 149.355 2
-6 -9 22 740.779 216.805 2
-9 5 22 -90.3493 100.004 2
-5 -9 22 9.50352 90.4691 2
5 22 -9 66.1429 108.677 1
-9 4 22 1549.74 257.887 2
4 9 22 1077.35 188.017 2
-4 -9 22 1540.18 264.322 2
4 22 -9 913.398 315.582 1
-9 3 22 692.595 193.595 2
3 9 22 443.064 132.749 2
-3 -9 22 675.269 179.895 2
3 22 -9 728.463 240.255 1
-9 2 22 968.187 210.826 2
2 9 22 781.185 172.873 2
-2 -9 22 1081.36 229.69 2
2 22 -9 689.845 254.106 1
9 22 1 844.125 327.655 1
-1 -9 22 1321.84 247.784 2
1 22 -9 1544.88 374.193 1
1 9 22 1248.89 219.156 2
-9 1 22 1507.97 250.994 2
0 9 22 265.336 122.66 2
0 22 -9 380.694 194.716 1
0 -9 22 202.16 105.849 2
-9 0 22 338.669 157.17 2
9 22 0 361.746 209.141 1
-1 9 22 1332.05 233.125 2
1 -9 22 1240.35 252.596 2
-1 22 -9 1577.97 356.175 1
9 22 -1 1554.68 384.816 1
-9 -1 22 1376.41 246.203 2
-2 9 22 839.912 191.459 2
-2 22 -9 893.683 220.493 1
2 -9 22 1068.39 243.049 2
2 9 -22 895.157 251.848 1
-9 -2 22 1176.07 220.946 2
9 22 -2 1061.49 341.44 1
-3 22 -9 828.988 262.744 1
-3 9 22 648.071 140.632 2
3 -9 22 759.86 181.991 2
9 22 -3 996.662 325.153 1
-9 -3 22 853.539 197.407 2
3 9 -22 785.648 250.584 1
-4 22 -9 869.811 301.01 1
-4 9 22 1199.88 226.761 2
9 22 -4 597.061 266.898 1
4 -9 22 1205.68 248.408 2
-9 -4 22 996.583 210.753 2
4 9 -22 1268.52 341.334 1
-9 -5 22 18.8693 75.3663 2
-5 22 -9 100.224 154.254 1
-5 9 22 170.068 147.786 2
9 22 -5 -24.2991 153.65 1
5 -9 22 240.976 132.451 2
5 9 -22 90.9389 107.821 1
6 9 -22 1017.74 317.077 1
-6 22 -9 795.47 277.063 1
-6 9 22 700.368 179.251 2
-9 -6 22 938.05 225.705 2
6 -9 22 726.468 209.219 2
9 22 -6 1154.43 350.966 1
-7 22 -9 1239.99 344.062 1
7 9 -22 758.079 239.798 1
-7 9 22 887.656 196.458 2
7 -9 22 683.114 202.154 2
-9 -7 22 614.984 165.055 2
9 22 -7 604.372 247.803 1
-8 22 -9 1525.4 364.61 1
8 9 -22 1723.89 398.07 1
-8 9 22 1671.23 269.232 2
-9 -8 22 1827.7 278.022 2
9 22 -8 2203.8 471.379 1
-9 22 -9 704.703 272.326 1
9 22 -9 971.777 318.998 1
-9 9 22 997.181 223.958 2
9 9 -22 1027.18 333.312 1
-9 -9 22 921.151 212.073 2
-10 9 22 140.174 74.6114 2
9 22 -10 -24.7498 109.339 1
-9 -10 22 182.789 95.2345 2
-10 22 -9 -10.8319 155.585 1
-10 22 -8 251.494 185.016 1
-10 8 22 506.918 164.996 2
8 22 -10 464.348 317.554 1
-8 -10 22 493.916 173.999 2
-10 7 22 1268.99 261.283 2
-7 -10 22 1316.46 256.031 2
7 22 -10 1396.32 361.076 1
-10 6 22 1892.87 276.863 2
6 22 -10 2077.75 458.053 1
-6 -10 22 2101.53 316.418 2
5 10 22 85.84 79.9325 2
-10 5 22 145.351 114.863 2
5 22 -10 249.242 172.347 1
-5 -10 22 113.603 126.771 2
-10 4 22 1068.98 240.731 2
4 10 22 692.353 155.169 2
-4 -10 22 837.263 210.787 2
4 22 -10 1135.05 323.586 1
-10 3 22 449.079 157.155 2
3 10 22 300.093 113.458 2
-3 -10 22 354.295 158.414 2
3 22 -10 32.9651 167.524 1
2 10 22 490.665 168.743 2
2 22 -10 456.577 236.535 1
-2 -10 22 799.508 215.496 2
-10 2 22 633.053 183.75 2
1 10 22 780.346 174.576 2
-1 -10 22 960.685 228.948 2
1 22 -10 787.031 264.561 1
-10 1 22 963.86 191 2
0 10 22 864.831 205.502 2
0 22 -10 943.467 306.492 1
0 -10 22 755.451 199.854 2
10 22 0 689.52 263.445 1
-10 0 22 852.047 199.127 2
-1 10 22 832.613 204.237 2
1 -10 22 1288.7 263.056 2
-10 -1 22 992.674 215.381 2
-1 22 -10 959.302 302.145 1
10 22 -1 730.43 243.82 1
2 10 -22 525.19 244.894 1
-2 22 -10 431.548 191.014 1
10 22 -2 740.289 259.855 1
2 -10 22 787.245 204.925 2
-2 10 22 635.956 196.728 2
-10 -2 22 395.287 146.834 2
-3 22 -10 243.633 148.687 1
10 22 -3 93.6744 152.88 1
-3 10 22 355.25 157.361 2
3 -10 22 295.117 147.875 2
-10 -3 22 342.836 135.582 2
3 10 -22 597.657 284.094 1
-4 22 -10 984.335 298.23 1
4 -10 22 683.234 171.395 2
-10 -4 22 1055.83 226.893 2
-4 10 22 1257.2 236.11 2
10 22 -4 1020.45 326.391 1
4 10 -22 1385.04 353.779 1
5 10 -22 65.2553 114.088 1
-5 22 -10 78.9578 107.752 1
10 22 -5 143.932 165.007 1
-10 -5 22 255.145 121.366 2
-5 10 22 356.302 150.118 2
5 -10 22 343.351 162.951 2
-6 22 -10 1830.1 394.687 1
6 10 -22 1818.08 393.668 1
10 22 -6 1799.94 404.818 1
-6 10 22 3090.28 426.36 2
-10 -6 22 1923.4 291.893 2
6 -10 22 1943.3 298.245 2
-7 22 -10 1149.55 318.362 1
7 10 -22 1252.15 321.373 1
-7 10 22 1787.64 277.3 2
-10 -7 22 1403.47 260.367 2
10 22 -7 1482.57 378.613 1
-8 22 -10 505.543 219.649 1
-10 -8 22 352.457 148.767 2
-8 10 22 534.809 184.156 2
10 22 -8 418.142 173.258 1
8 10 -22 331.539 167.618 1
-9 10 22 129.512 82.6326 2
-10 -9 22 93.9794 129.343 2
9 10 -22 92.5593 154.674 1
10 22 -9 69.6632 114.57 1
-9 22 -10 94.8483 150.244 1
-10 -10 22 5631.71 488.842 2
-10 10 22 5758.08 520.884 2
-10 22 -10 5086.38 680.895 1
10 22 -10 5135.08 734.692 1
-11 10 22 1106.33 239.786 2
-10 -11 22 1137.96 243.873 2
10 22 -11 1503.86 390.879 1
-11 22 -10 725.267 183.755 1
9 22 -11 2534.21 503.082 1
-11 9 22 2679.22 346.845 2
-9 -11 22 2549.18 343.247 2
8 22 -11 1295.66 360.12 1
-11 8 22 1587.09 270 2
-8 -11 22 1499.9 266.351 2
7 22 -11 578.244 233.669 1
-11 7 22 843.401 191.728 2
-7 -11 22 925.448 219.889 2
-11 6 22 1003.2 229.49 2
-6 -11 22 1101.05 229.366 2
6 22 -11 680.285 253.37 1
-11 5 22 788.252 198.898 2
5 11 22 741.788 170.827 2
-5 -11 22 764.013 193.672 2
5 22 -11 654.242 257.232 1
-11 4 22 340.768 116.703 2
4 11 22 88.4031 111.108 2
-4 -11 22 214.227 129.904 2
4 22 -11 337.954 216.424 1
-11 3 22 753.648 183.584 2
3 11 22 572.388 186.308 2
-3 -11 22 359.975 133.437 2
3 22 -11 411.219 234.475 1
2 11 22 636.505 189.749 2
2 22 -11 587.856 258.537 1
-2 -11 22 768.248 196.493 2
-11 2 22 472.092 133.243 2
1 11 22 725.09 187.63 2
-1 -11 22 643.482 179.493 2
1 22 -11 718.268 288.023 1
-11 1 22 733.134 192.147 2
0 11 22 112.735 81.0836 2
0 -11 22 -93.5156 71.1173 2
0 22 -11 238.385 214.49 1
11 22 0 30.1187 159.577 1
-11 0 22 114.348 122.286 2
-1 22 -11 699.695 256.945 1
1 -11 22 966.573 216.026 2
11 22 -1 622.85 235.145 1
-1 11 22 779.798 180.07 2
1 11 -22 793.945 249.158 1
-11 -1 22 798.813 190.113 2
2 11 -22 784.608 284.251 1
11 22 -2 762.428 278.05 1
-2 22 -11 431.629 152.313 1
-2 11 22 718.797 191.077 2
2 -11 22 778.041 186.497 2
-11 -2 22 941.005 231.65 2
-3 22 -11 507.632 216.16 1
11 22 -3 410.191 224.811 1
3 -11 22 842.712 214.278 2
-3 11 22 374.359 129.946 2
-11 -3 22 587.185 171.085 2
3 11 -22 298.146 171.208 1
-4 22 -11 236.345 161.728 1
-4 11 22 249.09 91.536 2
4 -11 22 269.504 111.156 2
-11 -4 22 335.331 142.189 2
4 11 -22 -26.0123 147.226 1
11 22 -4 440.114 218.438 1
5 11 -22 894.115 301.558 1
-5 22 -11 670.43 240.765 1
-5 11 22 702.554 170.771 2
-11 -5 22 745.775 200.939 2
11 22 -5 1207.26 378.53 1
-6 22 -11 1218.84 307.403 1
6 11 -22 1116.3 314.259 1
-6 11 22 1076.95 223.257 2
-11 -6 22 1317.07 250.13 2
11 22 -6 979.863 320.916 1
-7 22 -11 1363.12 355.95 1
11 22 -7 1469.01 392.892 1
7 11 -22 1038.64 346.654 1
-7 11 22 960.415 200.007 2
-11 -7 22 1105.14 241.031 2
11 22 -8 1311.29 387.557 1
-8 11 22 1639.72 297.646 2
8 11 -22 1367.32 360.313 1
-11 -8 22 1627.18 287.449 2
-8 22 -11 1638.06 391.391 1
9 11 -22 1610.96 381.021 1
-11 -9 22 2518.84 340.283 2
-9 11 22 2261.06 327.991 2
-9 22 -11 1976.49 448.727 1
11 22 -9 1839.08 464.365 1
10 11 -22 904.559 299.709 1
-10 11 22 1252.3 242.03 2
-11 -10 22 1224.6 240.275 2
11 22 -10 1101.31 380.462 1
-10 22 -11 979.788 290.396 1
-11 22 -11 2121.01 464.462 1
-11 -11 22 3146.27 375.421 2
-11 11 22 2826.89 372.536 2
11 22 -11 3084.91 570.128 1
-12 11 22 457.871 181.517 2
-11 -12 22 362.221 141.799 2
11 22 -12 666.295 301.461 1
-12 22 -11 174.87 130.278 1
-12 10 22 356.263 194.159 2
10 22 -12 418.764 259.11 1
-10 -12 22 401.398 179.009 2
-12 9 22 1114.64 241.72 2
9 22 -12 1090.83 357.558 1
-9 -12 22 1071.51 238.28 2
-12 8 22 4184.01 440.159 2
-8 -12 22 3440.53 403.148 2
8 22 -12 3360.88 576.167 1
7 22 -12 621.183 267.198 1
-12 7 22 672.069 187.226 2
-7 -12 22 705.806 205.441 2
-12 6 22 951.711 233.985 2
-6 -12 22 674.016 184.063 2
6 22 -12 692.561 311.771 1
-12 5 22 912.955 215.72 2
5 12 22 473.853 151.269 2
-5 -12 22 742.326 200.466 2
5 22 -12 710.032 298.251 1
4 22 -12 1141.85 341.009 1
-12 4 22 1336.23 250.92 2
4 12 22 943.875 181.012 2
-4 -12 22 1243.69 245.131 2
-12 3 22 -57.5203 88.7644 2
3 12 22 -0.75882 91.4135 2
-3 -12 22 254.986 132.522 2
3 22 -12 221.61 203.789 1
2 12 22 1283.98 243.05 2
-2 -12 22 1440.41 264.118 2
-12 2 22 1385.76 245.005 2
2 22 -12 1345.11 354.101 1
1 12 22 464.901 148.119 2
-1 -12 22 784.265 219.104 2
-12 1 22 522.695 181.352 2
1 22 -12 477.301 235.228 1
0 -12 22 -42.7701 72.2417 2
0 12 22 -117.406 141.855 2
0 22 -12 -86.8734 133.26 1
-12 0 22 169.507 100.309 2
0 12 -22 -336.223 197.589 1
-1 22 -12 440.565 231.502 1
1 -12 22 607.045 172.633 2
1 12 -22 852.859 317.474 1
12 22 -1 675.224 256.46 1
-12 -1 22 858.179 200.978 2
-1 12 22 780.418 200.865 2
-2 22 -12 1253.12 365.623 1
-2 12 22 1552.93 265.511 2
2 -12 22 1563.93 283.718 2
12 22 -2 1526.31 397.172 1
-12 -2 22 1217.41 226.855 2
2 12 -22 1293.23 328.618 1
-3 22 -12 -63.5933 95.5209 1
-3 12 22 201.946 98.6586 2
-12 -3 22 8.7311 99.2448 2
12 22 -3 -168.153 246.29 1
3 12 -22 178.298 197.878 1
4 12 -22 1279.06 352.055 1
-4 22 -12 1040.56 311.015 1
12 22 -4 1334.04 388.829 1
-4 12 22 1093.39 211.857 2
-12 -4 22 1087.82 223.138 2
12 22 -5 157.077 127.786 1
-5 22 -12 641.342 298.018 1
5 12 -22 665.398 248.806 1
-5 12 22 502.088 113.462 2
-12 -5 22 669.192 178.899 2
-6 22 -12 319.304 249.129 1
6 12 -22 192.101 160.377 1
-6 12 22 424.814 136.575 2
12 22 -6 295.228 135.425 1
-12 -6 22 454.353 166.364 2
7 12 -22 951.89 265.187 1
-7 12 22 753.298 195.496 2
12 22 -7 583.587 194.897 1
-12 -7 22 607.783 168.882 2
-7 22 -12 705.601 285.886 1
8 12 -22 2950.18 529.409 1
-8 12 22 3878.39 423.958 2
-12 -8 22 3502.25 396.011 2
12 22 -8 3588.12 607.867 1
-8 22 -12 3004.98 548.25 1
12 22 -9 1176.63 380.273 1
-9 12 22 1211.52 249.944 2
-12 -9 22 1121.69 233.858 2
9 12 -22 1219.88 367.905 1
-9 22 -12 1141.96 325.393 1
10 12 -22 -7.91562 97.0658 1
12 22 -10 -271.727 197.293 1
-10 12 22 10.8448 79.2782 2
-10 22 -12 -43.7064 96.005 1
12 22 -11 594.553 294.694 1
-12 -11 22 426.173 153.388 2
-11 12 22 349.771 132.161 2
-11 22 -12 551.855 257.46 1
-12 -12 22 2575.19 362.891 2
-12 12 22 2986.96 390.136 2
-12 22 -12 2381.37 467.031 1
12 22 -12 2810.31 564.131 1
-13 12 22 68.2346 110.639 2
-12 -13 22 30.3331 83.801 2
12 22 -13 268.305 262.721 1
-13 11 22 1920.52 301.609 2
-11 -13 22 1605.9 278.34 2
11 22 -13 1488.85 407.132 1
-10 -13 22 2486.36 338.365 2
-13 10 22 2623.76 361.875 2
10 22 -13 2086.75 470.942 1
-13 9 22 401.154 112.747 2
9 22 -13 624.812 277.777 1
-9 -13 22 535.352 160.108 2
8 22 -13 209.927 114.809 1
-13 8 22 432.277 171.804 2
-8 -13 22 216.664 147.489 2
-13 7 22 3681.86 404.444 2
-7 -13 22 3504.67 401.845 2
7 22 -13 3853.03 640.237 1
-13 6 22 359.797 116.963 2
-6 -13 22 466.7 171.789 2
6 22 -13 221.652 130.408 1
-13 5 22 280.601 67.6225 2
5 13 22 520.661 159.313 2
5 22 -13 551.751 225.057 1
-5 -13 22 340.446 133.229 2
-13 4 22 128.763 109.221 2
4 13 22 66.4867 70.6478 2
-4 -13 22 236.472 130.791 2
4 22 -13 167.108 158.297 1
3 13 22 374.725 136.323 2
3 22 -13 500.083 242.519 1
-3 -13 22 285.367 129.004 2
-13 3 22 85.4272 73.6937 2
-2 -13 22 506.74 146.212 2
2 13 22 305.29 130.529 2
2 22 -13 379.828 249.18 1
-13 2 22 392.059 159.249 2
1 13 22 524.786 142.119 2
-1 -13 22 598.858 192.387 2
1 22 -13 907.567 325.213 1
-1 13 -22 578.022 235.636 1
-13 1 22 1416.9 250.344 2
0 -13 22 596.63 175.703 2
0 13 -22 343.092 228.086 1
0 13 22 498.344 130.002 2
0 22 -13 417.517 123.023 1
-13 0 22 534.905 156.281 2
-1 22 -13 700.044 277.236 1
-1 13 22 860.727 193.034 2
-13 -1 22 893.953 215.678 2
1 13 -22 279.349 172.249 1
13 22 -2 471.347 265.627 1
-2 22 -13 345.489 161.789 1
-2 13 22 419.895 152.469 2
-13 -2 22 372.102 129.509 2
2 13 -22 129.237 138.593 1
-3 22 -13 19.4882 137.023 1
-3 13 22 -32.6414 116.328 2
13 22 -3 106.765 106.953 1
-13 -3 22 267.721 149.789 2
3 13 -22 99.8128 127.511 1
4 13 -22 158.11 181.915 1
-4 22 -13 330.982 203.029 1
-13 -4 22 63.6292 87.6551 2
-4 13 22 181.72 95.5929 2
13 22 -4 72.3371 154.92 1
-5 22 -13 520.337 241.258 1
5 13 -22 337.31 161.197 1
-5 13 22 530.11 179.491 2
13 22 -5 377.723 105.704 1
-13 -5 22 611.073 180.637 2
-6 22 -13 421.13 176.625 1
-6 13 22 390.313 151.698 2
13 22 -6 498.932 225.145 1
6 13 -22 851.523 314.992 1
-13 -6 22 423.075 161.014 2
-13 -7 22 3440.96 378.81 2
7 13 -22 3170.89 561.12 1
-7 13 22 3522.15 412.657 2
13 22 -7 3419.93 586.942 1
-7 22 -13 3597.46 582.403 1
-8 13 22 210.232 140.421 2
8 13 -22 403.728 203.379 1
13 22 -8 278.282 123.255 1
-8 22 -13 -22.7992 120.463 1
-9 13 22 564.981 169.585 2
13 22 -9 491.164 186.227 1
-13 -9 22 511.652 172.358 2
9 13 -22 481.093 152.696 1
-9 22 -13 418.858 229.431 1
-13 -10 22 2422.27 335.109 2
-10 13 22 2272.31 335.173 2
13 22 -10 2287.26 500.495 1
10 13 -22 1899 413.499 1
-10 22 -13 1865.32 443.086 1
-11 13 22 1832.01 305.986 2
-13 -11 22 1608.09 266.798 2
13 22 -11 1274.23 341.912 1
-11 22 -13 1263.73 367.172 1
11 13 -22 1261.35 336.183 1
13 22 -12 521.436 259.222 1
-12 13 22 118.349 98.3059 2
-12 22 -13 620.846 227.877 1
-13 13 22 -33.3005 107.469 2
-14 13 22 526.197 211.108 2
-14 12 22 518.91 192.09 2
-14 11 22 331.773 156.556 2
11 22 -14 35.6894 92.7913 1
-14 10 22 1174.8 242.254 2
10 22 -14 1102.84 375.268 1
-14 9 22 1494.5 279.717 2
9 22 -14 1339.7 363.019 1
8 22 -14 390.401 186.086 1
-14 8 22 364.074 167.185 2
-14 7 22 782.656 197.147 2
7 22 -14 1447.01 383.914 1
-14 6 22 2187.89 328.902 2
6 22 -14 1902 439.686 1
-14 5 22 779.422 197.071 2
5 14 22 479.985 156.041 2
5 22 -14 977.477 420.895 1
-14 4 22 295.346 157.463 2
4 14 22 92.6946 63.85 2
4 22 -14 117.665 169.139 1
3 14 22 128.903 118.901 2
3 22 -14 338.292 210.4 1
-14 3 22 385.169 141.408 2
2 14 22 315.12 99.301 2
2 22 -14 565.305 274.147 1
-2 14 -22 365.01 236.924 1
-14 2 22 359.386 142.671 2
1 14 22 1196.03 237.178 2
1 22 -14 1533.48 399.978 1
-1 14 -22 1811.75 456.584 1
-14 1 22 1642.99 276.781 2
0 14 -22 50.3735 192.356 1
0 22 -14 15.654 172.618 1
0 14 22 110.737 95.658 2
-14 0 22 290.383 124.587 2
-1 22 -14 1464.09 391.483 1
-1 14 22 809.615 223.417 2
-14 -1 22 1258.43 243.831 2
1 14 -22 1257.19 363.193 1
-2 22 -14 484.189 240.305 1
-2 14 22 291.698 116.955 2
-14 -2 22 429.866 163.357 2
2 14 -22 354.164 237.254 1
14 22 -3 161.703 148.274 1
3 14 -22 254.974 179.227 1
-3 22 -14 261.828 187.217 1
-3 14 22 -71.1964 113.542 2
-14 -3 22 180.035 102.878 2
-4 22 -14 152.124 174.216 1
4 14 -22 250.685 169.759 1
-4 14 22 89.3097 98.1535 2
-14 -4 22 336.317 158.903 2
14 22 -4 232.355 185.036 1
-5 22 -14 872.364 328.504 1
5 14 -22 471.9 205.287 1
14 22 -5 1380.67 468.625 1
-5 14 22 743.618 202.653 2
-14 -5 22 571.848 156.104 2
-6 22 -14 2542.72 515.806 1
6 14 -22 1995.88 442.982 1
-6 14 22 2402.86 340.369 2
-14 -6 22 2495.29 339.255 2
14 22 -6 2013.07 466.404 1
-7 14 22 654.44 154.427 2
7 14 -22 715.426 269.213 1
14 22 -7 513.934 226.388 1
-14 -7 22 891.721 207.774 2
-7 22 -14 538.719 254.024 1
-8 22 -14 494.576 277.292 1
14 22 -8 650.593 310.749 1
-8 14 22 -61.3692 130.887 2
8 14 -22 -161.565 192.585 1
-14 -8 22 174.111 129.59 2
14 22 -9 1421.29 380.514 1
-9 14 22 1413.92 263.463 2
-14 -9 22 1293.31 256.398 2
9 14 -22 1059.12 311.243 1
-9 22 -14 803.32 274.205 1
-14 -10 22 1081.07 238.938 2
-10 22 -14 820.607 302.689 1
-10 14 22 1132.16 240.183 2
14 22 -10 939.699 331.393 1
10 14 -22 894.496 303.839 1
11 14 -22 274.973 117.204 1
-11 14 22 177.48 91.5359 2
-14 -11 22 68.7333 88.2666 2
-11 22 -14 48.6423 95.4646 1
-12 14 22 632.924 201.936 2
-14 -12 22 407.669 155.259 2
-12 22 -14 172.757 182.103 1
-13 14 22 469.642 164.682 2
-14 14 22 364.293 140.597 2
-15 14 22 248.514 154.91 2
-15 13 22 84.5287 80.8595 2
-15 12 22 252.141 148.466 2
-15 11 22 355.319 141.457 2
-15 10 22 -43.5987 95.9178 2
10 22 -15 55.7749 118.641 1
-15 9 22 1123.72 233.049 2
9 22 -15 1144.4 346.986 1
8 22 -15 1454.69 395.989 1
-15 8 22 1482.04 277.98 2
-15 7 22 131.093 95.7633 2
7 22 -15 -307.255 207.118 1
-15 6 22 445.12 137.782 2
6 22 -15 238.1 188.851 1
-15 5 22 332.47 106.752 2
5 15 22 342.71 138.168 2
5 22 -15 187.949 165.039 1
4 15 22 30.4682 101.651 2
-15 4 22 40.7879 89.5547 2
4 22 -15 295.35 229.609 1
3 15 22 444.497 150.256 2
3 22 -15 430.053 286.223 1
-3 15 -22 104.265 144.357 1
-15 3 22 687.275 184.205 2
2 22 -15 698.649 277.858 1
2 15 22 480.327 150.428 2
-2 15 -22 673.778 247.346 1
-15 2 22 492.326 133.267 2
1 15 22 288.455 167.112 2
1 22 -15 483.262 300.892 1
-1 15 -22 247.543 203.294 1
-15 1 22 307.089 123.289 2
0 22 -15 806.177 314.112 1
0 15 22 273.082 136.078 2
-15 0 22 740.343 221.383 2
0 15 -22 448.992 228.307 1
-1 22 -15 274.422 200.293 1
-1 15 22 66.105 88.1981 2
-15 -1 22 138.934 92.1913 2
1 15 -22 392.129 208.353 1
2 15 -22 1124.13 368.192 1
-2 22 -15 318.12 217.428 1
-2 15 22 403.906 177.095 2
-15 -2 22 822.667 184.723 2
3 15 -22 579.983 239.705 1
-3 15 22 608.472 196.574 2
-15 -3 22 536.446 166.761 2
-3 22 -15 574.191 239.898 1
-4 22 -15 -82.7711 140.771 1
4 15 -22 -114.645 191.418 1
-15 -4 22 -55.9419 150.934 2
-4 15 22 -27.6592 102.506 2
-5 22 -15 351.712 205.485 1
5 15 -22 451.508 236.336 1
-5 15 22 778.139 212.995 2
-15 -5 22 430.413 179.559 2
15 22 -5 876.345 311.361 1
15 22 -6 351.431 242.74 1
6 15 -22 216.017 206.369 1
-6 15 22 288.884 152.871 2
-15 -6 22 712.407 173.771 2
-6 22 -15 387.127 201.995 1
-7 15 22 57.2877 94.6791 2
15 22 -7 -11.6578 162.647 1
7 15 -22 1.534 176.618 1
-15 -7 22 225.278 124.007 2
-7 22 -15 83.61 206.531 1
-8 15 22 1479.37 290.466 2
-15 -8 22 1363.21 252.284 2
8 15 -22 1403.61 389.094 1
15 22 -8 1271.78 423.512 1
-8 22 -15 1195.97 388.782 1
-9 15 22 1146.68 262.342 2
15 22 -9 630.617 215.424 1
-15 -9 22 893.381 190.714 2
9 15 -22 1234.46 350.058 1
-9 22 -15 980.485 347.226 1
15 22 -10 1.09295 113.053 1
-15 -10 22 11.1474 81.1342 2
-10 15 22 69.8926 123.38 2
10 15 -22 -75.6054 207.366 1
-10 22 -15 159.475 219.906 1
-11 15 22 665.192 206.384 2
-15 -11 22 512.575 153.935 2
-12 15 22 519.72 173.778 2
-13 15 22 69.1796 102.172 2
-14 15 22 -160.318 146.168 2
-15 15 22 650.509 193.158 2
-22 15 15 488.504 162.76 2
-16 15 22 231.09 122.749 2
-22 16 15 176.282 103.318 2
-16 14 22 2475.18 369.286 2
-22 16 14 1876.27 267.837 2
-16 13 22 713.903 222.608 2
-16 12 22 321.903 144.315 2
-16 11 22 1817.45 306.789 2
-16 10 22 77.3581 86.5359 2
-16 9 22 200.289 142.117 2
8 22 -16 410.661 266.851 1
-16 8 22 124.049 96.4416 2
-16 7 22 2820.56 359.988 2
7 22 -16 2388.63 519.421 1
-16 6 22 -41.6049 90.4884 2
6 22 -16 293.484 232.114 1
-16 5 22 175.424 119.171 2
5 16 22 169.765 79.9256 2
5 22 -16 203.595 156.09 1
-5 16 -22 443.11 259.558 1
4 16 22 528.625 123.646 2
-16 4 22 885.275 208.685 2
4 22 -16 434.304 171.365 1
-4 16 -22 560.63 214.882 1
3 16 22 398.21 144.524 2
3 22 -16 656.625 216.243 1
-3 16 -22 585.64 276.72 1
-16 3 22 465.28 163.945 2
2 16 22 234.458 128.373 2
2 22 -16 486.364 246.65 1
-2 16 -22 81.7468 159.084 1
-16 2 22 304.285 143.498 2
1 16 22 273.152 190.624 2
1 22 -16 645.453 262.974 1
-16 1 22 468.533 133.923 2
-1 16 -22 769.952 285.929 1
0 16 22 -290.535 127.842 2
-16 0 22 87.6925 135.914 2
0 16 -22 -112.842 134.379 1
1 16 -22 895.66 332.674 1
-1 22 -16 1056.28 347.387 1
-16 -1 22 928.132 209.214 2
-1 16 22 796.265 229.141 2
2 16 -22 184.993 176.533 1
-2 22 -16 463.928 214.963 1
-2 16 22 216.351 141.765 2
-16 -2 22 387.026 160.336 2
-3 22 -16 338.574 149.279 1
3 16 -22 79.6282 146.017 1
-3 16 22 360.684 172.672 2
-16 -3 22 437.205 170.189 2
-4 22 -16 661.262 261.446 1
4 16 -22 756.192 270.677 1
-4 16 22 520.61 227.52 2
-16 -4 22 696.098 185.077 2
-5 22 -16 157.383 101.022 1
5 16 -22 59.215 95.8406 1
-16 -5 22 182.196 95.0001 2
-5 16 22 -101.866 135.798 2
-6 22 -16 446.092 262.005 1
16 22 -6 -162.818 217.175 1
6 16 -22 -18.3473 174.106 1
-6 16 22 37.2067 85.5506 2
-16 -6 22 84.0439 90.7717 2
7 16 -22 1941.85 468.982 1
-16 -7 22 2128.37 314.939 2
-7 16 22 2348.84 339.977 2
16 22 -7 1899.64 464.872 1
-7 22 -16 1794.57 429.634 1
-16 -8 22 350.125 137.105 2
-8 16 22 22.1777 86.981 2
16 22 -8 104.924 170.884 1
-8 22 -16 0.55007 154.16 1
8 16 -22 82.4049 116.686 1
-9 16 22 345.281 137.664 2
-16 -9 22 116.783 78.8627 2
9 16 -22 60.7027 126.706 1
-9 22 -16 -156.703 208.352 1
-10 16 22 267.957 160.174 2
-16 -10 22 210.516 77.898 2
-11 16 22 2324.71 348.946 2
-16 -11 22 1960.85 285.62 2
-12 16 22 104.388 128.806 2
-13 16 22 334.684 130.32 2
-14 16 22 2082.22 330.308 2
-22 14 16 2064.37 294.752 2
-22 15 16 114.28 85.2932 2
-15 16 22 234.208 149.802 2
-16 16 22 814.918 212.726 2
-22 16 16 847.772 203.604 2
-17 16 22 237.068 99.7067 2
-22 17 16 -26.0072 80.3841 2
-17 15 22 591.604 175.816 2
-22 17 15 380.474 148.73 2
-17 14 22 224.787 82.6806 2
-22 17 14 211.445 163.69 2
-17 13 22 405.123 160.233 2
-22 17 13 571.411 196.92 2
-17 12 22 120.028 138.56 2
-17 11 22 426.794 168.735 2
-17 10 22 1140.25 252.34 2
-17 9 22 271.852 138.57 2
-17 8 22 984.708 223.922 2
-17 7 22 616.604 166.323 2
-17 6 22 644.811 191.069 2
-6 17 -22 723.773 341.792 1
6 22 -17 495.503 223.951 1
5 22 -17 59.6979 169.44 1
-5 17 -22 520.519 272.01 1
-17 5 22 648.509 180.627 2
4 17 22 1580.36 268.424 2
4 22 -17 1742.02 408.135 1
-4 17 -22 1408.13 360.151 1
-17 4 22 1311.8 247.995 2
3 22 -17 309.058 244.349 1
3 17 22 337.557 130.498 2
-3 17 -22 363.447 224.144 1
-17 3 22 620.503 167.535 2
2 17 22 551.108 163.817 2
-17 2 22 786.326 206.075 2
2 22 -17 714.658 273.475 1
-2 17 -22 844.486 332.381 1
1 17 22 2041.41 332.008 2
-17 1 22 2722.82 363.099 2
1 22 -17 2755.46 529.663 1
-1 17 -22 3518.5 714.636 1
0 17 -22 252.553 212.471 1
0 22 -17 498.491 255.65 1
0 17 22 126.005 116.574 2
-17 0 22 281.56 88.3111 2
1 17 -22 2639.98 543.549 1
-1 22 -17 2308.22 483.652 1
-1 17 22 1947.05 343.847 2
-17 -1 22 2692.03 347.109 2
2 17 -22 508.884 144.064 1
-2 22 -17 615.056 252.554 1
-2 17 22 454.803 203.798 2
-17 -2 22 748.464 196.398 2
-3 22 -17 586.406 267.756 1
3 17 -22 249.015 167.351 1
-3 17 22 87.2749 124.999 2
-17 -3 22 514.733 198.143 2
-4 22 -17 1571.72 436.777 1
4 17 -22 1712.49 421.013 1
-4 17 22 1593.42 307.243 2
-17 -4 22 1792.59 277.896 2
-5 22 -17 403.652 225.961 1
5 17 -22 611.545 262.667 1
-5 17 22 522.081 211.464 2
-17 -5 22 556.946 181.706 2
-6 22 -17 116.448 156.594 1
-17 -6 22 318.064 127.864 2
6 17 -22 440.248 278.854 1
-6 17 22 690.121 203.508 2
-7 17 22 604.706 188 2
-17 -7 22 194.898 63.8617 2
-17 -8 22 667.231 180.16 2
-8 17 22 1003.63 255.695 2
-9 17 22 222.557 147.342 2
-17 -9 22 59.4121 65.513 2
-10 17 22 1175 244.872 2
-11 17 22 534.263 224.538 2
-12 17 22 -59.9718 104.483 2
-13 17 22 637.123 183.556 2
-22 14 17 247.144 129.586 2
-14 17 22 369.636 171.688 2
-22 15 17 319.348 138.533 2
-15 17 22 443.574 150.877 2
-22 16 17 291.272 136.656 2
-16 17 22 252.58 145.888 2
-17 17 22 111.96 111.945 2
-22 17 17 371.201 168.011 2
-17 22 17 132.857 140.493 2
-18 17 22 770.12 199.087 2
-22 18 17 758.46 178.892 2
-17 22 18 503.855 168.373 2
-18 16 22 1887 308.886 2
-22 18 16 1934.9 296.274 2
-16 22 18 1871.85 320.623 2
-18 15 22 505.127 164.291 2
-15 22 18 857.464 234.124 2
-22 18 15 703.898 166.516 2
-18 14 22 -135.331 149.273 2
-22 18 14 52.0742 78.6833 2
-18 13 22 1366.65 264.361 2
-22 18 13 1427.53 249.114 2
-18 12 22 127.952 77.3475 2
-22 18 12 176.54 117.685 2
-18 11 22 339.519 161.162 2
-18 10 22 241.551 77.8423 2
-18 9 22 4462 452.222 2
-18 8 22 1102.01 228.279 2
-18 7 22 3138.05 382.134 2
-18 6 22 96.3948 69.3545 2
-18 5 22 165.258 106.939 2
4 18 22 1015.43 214.618 2
-18 4 22 962.362 223.172 2
-18 3 22 3484.99 394.251 2
3 18 22 3538.48 376.764 2
2 18 22 53.6711 89.5942 2
2 22 -18 -89.9741 128.785 1
-18 2 22 276.155 136.886 2
-2 18 -22 351.279 221.916 1
-1 18 -22 325.881 258.688 1
1 22 -18 119.954 92.3708 1
1 18 22 533.417 182.076 2
-18 1 22 442.623 123.872 2
0 18 -22 421.967 231.246 1
0 22 -18 296.993 240.856 1
0 18 22 29.4301 105.266 2
-18 0 22 270.167 115.083 2
1 18 -22 560.969 306.248 1
-1 22 -18 602.526 241.953 1
-1 18 22 235.399 169.996 2
-18 -1 22 604.573 194.835 2
-2 22 -18 266.593 186.15 1
2 18 -22 41.0796 160.791 1
-2 18 22 29.1374 124.536 2
-18 -2 22 299.949 146.14 2
3 18 -22 3105.67 573.978 1
-18 -3 22 3545.94 385.671 2
-3 18 22 3674.19 437.602 2
-4 18 22 828.39 215.453 2
-18 -4 22 1403.71 258.753 2
-5 18 22 35.078 118.332 2
-18 -5 22 7.70704 81.2999 2
-6 18 22 67.9784 76.4137 2
-7 18 22 3128.13 403.571 2
-8 18 22 1019.81 216.913 2
-9 18 22 5070.69 516.252 2
-10 18 22 503.819 171.996 2
-11 18 22 258.887 140.603 2
-12 18 22 69.1961 97.6819 2
-22 13 18 1336.24 235.073 2
-13 18 22 1568.11 308.791 2
-22 14 18 109.949 105.759 2
-14 18 22 192.97 177.696 2
-22 15 18 642.717 160.865 2
-15 18 22 395.471 145.596 2
-22 16 18 1665.67 270.976 2
-16 18 22 1876.39 302.671 2
-22 17 18 607.683 198.578 2
-17 18 22 479.873 168.197 2
-18 22 17 578.034 198.551 2
-18 18 22 89.7476 128.278 2
-22 18 18 -42.8634 64.6862 2
-18 22 18 -19.3041 91.7884 2
-19 18 22 30.7032 116.72 2
-22 19 18 3.15347 75.8789 2
-18 22 19 -99.2078 79.379 2
-19 17 22 130.239 127.332 2
-22 19 17 94.9343 83.0382 2
-17 22 19 74.6932 119.823 2
-16 22 19 440.455 129.201 2
-19 16 22 308.899 139.526 2
-22 19 16 485.873 203.969 2
-19 15 22 140.547 90.3532 2
-15 22 19 182.231 137.306 2
-22 19 15 369.927 153.568 2
-19 14 22 587.786 174.649 2
-22 19 14 761.34 207.285 2
-14 22 19 622.827 210.119 2
-19 13 22 236.254 91.1314 2
-22 19 13 125.348 101.711 2
-13 22 19 236.38 133.904 2
-19 12 22 232.171 135.197 2
-19 11 22 798.881 202.32 2
-19 10 22 169.602 134.958 2
-19 9 22 541.428 194.293 2
-19 8 22 381.098 127.327 2
-19 7 22 4.58379 96.2102 2
-19 6 22 1314.83 248.848 2
-19 5 22 1092.81 238.301 2
4 19 22 934.974 199.67 2
-19 4 22 966.106 206.823 2
3 19 22 1023.28 204.458 2
-19 3 22 1311.48 253.688 2
2 19 22 601.301 175.807 2
-19 2 22 819.621 210.671 2
1 19 22 239.333 117.856 2
-19 1 22 507.634 170.007 2
0 19 22 712.939 240.551 2
-19 0 22 1281.81 233.173 2
-1 19 22 218.456 145.863 2
-19 -1 22 208.986 90.6078 2
-2 19 22 394.335 182.485 2
-3 19 22 660.32 228.108 2
3 22 19 1522 262.682 2
-4 19 22 493.44 227.187 2
4 22 19 778.477 187.155 2
-5 19 22 1753.56 306.669 2
-6 19 22 1311.89 259.225 2
-7 19 22 -130.75 120.344 2
-8 19 22 268.637 147.046 2
-9 19 22 531.245 168.264 2
-10 19 22 501.985 175.267 2
-11 19 22 903.307 228.342 2
-22 12 19 348.483 137.574 2
-12 19 22 42.0544 118.821 2
-22 13 19 334.691 139.245 2
-13 19 22 -37.1856 140.098 2
-22 14 19 520.304 169.835 2
-14 19 22 786.531 239.027 2
-22 15 19 225.256 120.989 2
-15 19 22 274.051 136.858 2
-22 16 19 523.015 181.24 2
-16 19 22 527.569 163.978 2
-19 22 16 457.947 157.199 2
-22 17 19 140.407 100.433 2
-17 19 22 -108.18 100.652 2
-19 22 17 268.619 138.193 2
-22 18 19 -28.0203 109.971 2
-18 19 22 208.268 139.34 2
-19 22 18 -34.2292 106.181 2
-19 19 22 960.891 213.154 2
-22 19 19 1157.97 243.255 2
-19 22 19 1225.17 233.023 2
-20 19 22 720.998 157.437 2
-22 20 19 858.738 189.34 2
-19 22 20 706.968 198.029 2
-20 18 22 628.199 176.113 2
-22 20 18 488.308 150.151 2
-18 22 20 612.792 170.588 2
-20 17 22 204.439 147.133 2
-17 22 20 364.025 161.675 2
-22 20 17 248.938 147.453 2
-20 16 22 143.374 118.441 2
-16 22 20 120.997 120.028 2
-22 20 16 8.30593 66.6721 2
-20 15 22 256.539 136.665 2
-22 20 15 198.604 138.804 2
-15 22 20 -19.0148 82.1513 2
-20 14 22 91.4888 87.2193 2
-14 22 20 94.1737 99.6461 2
-22 20 14 -0.20915 69.4106 2
-20 13 22 504.595 149.993 2
-13 22 20 741.961 210.833 2
-22 20 13 423.09 125.632 2
-20 12 22 1641.67 270.75 2
-12 22 20 1285.37 257.677 2
-20 11 22 1502.15 283.12 2
-11 22 20 1846.76 302.272 2
-20 10 22 1086.14 209.613 2
-10 22 20 1268.08 270.642 2
-20 9 22 1378.81 244.071 2
-20 8 22 747.952 195.072 2
-20 7 22 1009.46 222.761 2
-20 6 22 1527 255.574 2
-20 5 22 4164.11 426.014 2
4 20 22 -178.999 94.2131 2
-20 4 22 160.908 121.83 2
3 20 22 541.542 180.541 2
-20 3 22 360.557 138.181 2
2 20 22 839.676 193.99 2
-20 2 22 665.992 169.325 2
1 20 22 1886.61 282.901 2
0 22 20 -4.83785 92.3971 2
0 20 22 28.4701 87.6594 2
-1 20 22 1682.36 314.317 2
1 22 20 1875.5 286.083 2
-2 20 22 378.85 185.707 2
2 22 20 802.411 203.901 2
-3 20 22 91.6616 133.178 2
3 22 20 471.178 153.792 2
4 22 20 -17.18 60.138 2
-4 20 22 126.336 135.232 2
-5 20 22 4469.8 469.282 2
-6 20 22 1336.07 260.176 2
-7 20 22 859.424 219.504 2
-8 20 22 564.428 204.801 2
-9 20 22 1611.32 304.08 2
-10 20 22 1344.58 277.441 2
-11 20 22 1690.64 304.015 2
-22 11 20 1623.4 261.132 2
-22 12 20 1321.68 247.092 2
-12 20 22 1812.01 308.323 2
-22 13 20 520.329 151.289 2
-13 20 22 765.838 220.037 2
-22 14 20 -34.5798 106.267 2
-14 20 22 -18.5545 106.639 2
-22 15 20 381.33 178.21 2
-15 20 22 167.208 132.726 2
-20 22 15 90.6204 76.279 2
-22 16 20 182.329 128.156 2
-16 20 22 361.012 163.958 2
-20 22 16 372.079 142.541 2
-22 17 20 587.723 182.102 2
-17 20 22 395.792 157.41 2
-20 22 17 500.545 168.475 2
-22 18 20 666.863 182.632 2
-18 20 22 653.672 177.408 2
-20 22 18 383.35 148.949 2
-22 19 20 690.482 170.255 2
-19 20 22 755.105 198.056 2
-20 22 19 725.27 197.605 2
-20 20 22 200.635 130.995 2
-22 20 20 44.6142 65.6916 2
-20 22 20 -4.56946 80.3223 2
-21 20 22 271.938 114.624 2
-22 21 20 137.32 82.9508 2
-20 22 21 376.361 144.885 2
-21 19 22 168.043 80.6034 2
-22 21 19 452.551 133.642 2
-19 22 21 465.652 167.255 2
-21 18 22 817.606 192.464 2
-22 21 18 1042.91 209.571 2
-18 22 21 635.794 186.259 2
-21 17 22 448.156 163.667 2
-22 21 17 427.23 156.102 2
-17 22 21 291.821 161.379 2
-21 16 22 105.68 79.671 2
-22 21 16 180.277 98.2428 2
-16 22 21 352.914 160.74 2
-21 15 22 -55.546 118.184 2
-22 21 15 100.376 81.3587 2
-15 22 21 135.259 91.9382 2
-21 14 22 568.734 160.74 2
-22 21 14 389.889 140.909 2
-14 22 21 643.067 185.355 2
-21 13 22 602.818 180.282 2
-13 22 21 1068.61 262.589 2
-22 21 13 712.315 219.738 2
-21 12 22 909.7 201.35 2
-12 22 21 1136.05 250.058 2
-21 11 22 -171.958 106.914 2
-11 22 21 -135.348 128.06 2
-10 22 21 517.709 170.69 2
-21 10 22 65.3203 92.3393 2
-9 22 21 912.022 232.849 2
-21 9 22 933.805 219.593 2
-8 22 21 703.853 243.587 2
-21 8 22 376.958 180.102 2
-7 22 21 380.193 140.482 2
-21 7 22 169.157 96.5033 2
-6 22 21 1037.59 221.157 2
-21 6 22 740.109 149.348 2
-5 22 21 147.278 98.9733 2
-21 5 22 274.682 110.269 2
-4 22 21 975.736 284.579 2
4 21 22 962.586 190.301 2
-3 22 21 598.734 223.386 2
3 21 22 1476.77 268.404 2
-2 22 21 112.497 163.341 2
2 21 22 736.131 172.201 2
1 21 22 359.095 133.365 2
-1 22 21 257.6 164.077 2
0 21 22 192.331 155.49 2
0 22 21 353.005 168.524 2
-1 21 22 188.425 137.539 2
1 22 21 301.802 144.092 2
2 22 21 432.106 151.603 2
-2 21 22 161.613 149.287 2
3 22 21 1363.9 245.107 2
-3 21 22 933.235 271.672 2
4 22 21 1410.56 233.077 2
-4 21 22 815.456 253.882 2
-5 21 22 -12.5916 91.538 2
-6 21 22 1013.04 229.944 2
-7 21 22 398.58 165.034 2
-8 21 22 729.01 211.866 2
-9 21 22 588.282 174.043 2
-10 21 22 -40.9595 90.4192 2
-22 10 21 221.798 103.867 2
-22 11 21 -45.9252 95.617 2
-11 21 22 -96.7546 143.597 2
-22 12 21 778.545 183.432 2
-12 21 22 735.394 225.298 2
-22 13 21 652.649 172.82 2
-13 21 22 790.192 216.383 2
-22 14 21 322.379 135.309 2
-14 21 22 333.45 181.571 2
-21 22 14 566.268 180.886 2
-22 15 21 -182.249 129.065 2
-15 21 22 4.88809 112.511 2
-22 16 21 380.887 131.388 2
-16 21 22 418.875 161.53 2
-21 22 16 280.152 119.824 2
-22 17 21 374.462 119.33 2
-17 21 22 374.621 122.36 2
-21 22 17 444.169 158.6 2
-22 18 21 847.613 192.286 2
-18 21 22 712.83 182.609 2
-21 22 18 788.592 178.458 2
-22 19 21 227.807 104.718 2
-19 21 22 234.083 111.695 2
-21 22 19 127.525 111.78 2
-22 20 21 151.16 90.4578 2
-20 21 22 139.287 112.795 2
-22 21 21 274.549 117.513 2
-21 21 22 99.6281 82.8866 2
-21 22 21 168.303 97.1028 2
0 22 22 1431.39 298.467 2
1 22 22 246.794 139.217 2
-1 22 22 207.869 166.695 2
2 22 22 173.609 86.2787 2
-2 22 22 85.6502 118.234 2
3 22 22 2520.84 343.247 2
-3 22 22 2277.31 342.89 2
-4 22 22 266.074 132.622 2
4 22 22 595.447 168.137 2
-5 22 22 392.295 198.585 2
-6 22 22 -127.502 134.696 2
-7 22 22 2653.05 371.082 2
-8 22 22 235.404 131.365 2
-9 22 22 1376.56 270.761 2
-22 9 22 1248.47 245.841 2
-10 22 22 886.232 236.592 2
-22 10 22 365.132 135.765 2
-11 22 22 -3.16375 98.1402 2
-22 11 22 139.33 70.24 2
-12 22 22 947.795 211.695 2
-22 12 22 917.301 211.42 2
-22 13 22 1233.16 228.022 2
-13 22 22 1427.67 268.515 2
-22 22 13 1208.65 241.793 2
-22 14 22 2151 296.136 2
-14 22 22 2477.63 351.794 2
-22 22 14 2153.53 294.793 2
-22 15 22 584.549 150.711 2
-15 22 22 677.881 192.088 2
-22 22 15 956.596 214.001 2
-22 16 22 124.918 78.2174 2
-16 22 22 188.157 143.47 2
-22 22 16 144.97 109.487 2
-22 17 22 239.711 134.365 2
-17 22 22 53.1111 102.403 2
-22 22 17 71.6373 77.6238 2
-22 18 22 156.818 88.0738 2
-18 22 22 290.105 125.906 2
-22 22 18 488.03 138.113 2
-22 19 22 54.5713 95.84 2
-19 22 22 51.1323 66.2601 2
-22 22 19 14.3759 70.5881 2
-22 20 22 804.845 187.841 2
-20 22 22 625.685 175.571 2
-22 22 20 1079.77 207.886 2
-22 21 22 294.688 111.538 2
-22 22 21 329.079 108.904 2
-21 22 22 58.4579 68.7522 2
-22 22 22 496.014 148.739 2
0 0 23 14.4799 63.7304 2
0 23 0 -68.5937 122.48 1
1 23 0 3136.48 489.066 1
0 23 1 2716.66 434.192 1
0 1 23 3139.65 346.183 2
0 -1 23 2930.08 335.177 2
-1 0 23 2966.3 347.125 2
0 23 -1 3348.93 484.187 1
-1 23 0 3026.88 460.418 1
-1 23 1 1885.22 357.174 1
-1 23 -1 1898.43 381.634 1
-1 -1 23 2390.16 313.027 2
1 23 -1 1923.56 372.053 1
1 23 1 1823.89 366.701 1
1 -1 23 1725.9 254.952 2
-1 1 23 1894.8 265.934 2
-1 -2 23 3369.41 378.816 2
2 23 1 2956.06 471.452 1
2 -1 23 2703.22 315.268 2
-2 1 23 3012.53 349.683 2
1 2 23 2917.87 331.229 2
-2 23 -1 2914.68 439.885 1
1 23 -2 2635.75 440.295 1
2 23 0 352.21 159.574 1
0 23 -2 931.774 289.052 1
-2 23 0 454.6 168.897 1
0 -2 23 513.87 158.286 2
-2 0 23 518.805 147.973 2
0 2 23 581.643 179.329 2
1 -2 23 3390.15 363.049 2
-1 2 23 3050.99 355.258 2
-1 23 -2 2953.92 454.2 1
1 23 2 3181.88 480.627 1
-2 -1 23 3301.56 362.285 2
2 23 -1 2982.18 482.5 1
-2 23 -2 2080.82 382.218 1
2 23 2 2206.03 406.485 1
2 -2 23 1966.75 289.725 2
-2 2 23 2573.52 320.127 2
-2 -2 23 2284.42 297.998 2
2 23 -2 2096.06 418.207 1
-3 23 -2 1515.77 334.437 1
3 23 2 1659.28 356.943 1
2 23 -3 1366.27 329.285 1
3 -2 23 1831.95 281.121 2
-2 -3 23 1633.84 249.7 2
2 3 23 1413 249.412 2
-3 2 23 1613.1 252.394 2
1 23 -3 1699.65 366.209 1
-3 23 -1 1861.43 378.723 1
-1 -3 23 1893.08 285.614 2
3 23 1 1658.66 371.957 1
-3 1 23 1806.19 261.899 2
1 3 23 1585.13 252.921 2
0 -3 23 7876.24 561.144 2
-3 0 23 9086.98 602.031 2
3 23 0 7382.2 746.097 1
0 3 23 7500.3 540.499 2
0 23 -3 7789.6 769.019 1
-1 23 -3 1268.92 299.394 1
1 -3 23 1328.51 227.535 2
-3 -1 23 1408.63 245.373 2
-1 3 23 1529.56 245.641 2
3 23 -1 1912.37 397.147 1
2 23 3 1466.53 322.357 1
2 -3 23 1587.83 262.431 2
3 23 -2 1323.98 326.991 1
-3 -2 23 1752.9 263.998 2
-2 23 -3 1477.09 348.26 1
-2 3 23 1504.97 245.76 2
3 23 3 34.3175 94.2712 1
3 23 -3 -138.722 153.963 1
3 -3 23 -0.19833 116.3 2
-3 -3 23 -5.49994 72.4871 2
-3 23 -3 -79.0443 86.2353 1
3 3 23 91.4457 60.4493 2
-3 3 23 -3.94784 81.3168 2
-4 3 23 871.793 177.435 2
4 23 3 941.976 302.446 1
3 23 -4 986.167 296.712 1
4 -3 23 1066.42 199.677 2
-3 -4 23 1399.99 243.291 2
-4 23 -3 973.088 261.217 1
3 4 23 959.253 193.644 2
2 23 -4 1419.78 353.695 1
4 -2 23 1098.72 210.396 2
-2 -4 23 1261.26 241.924 2
4 23 2 1290.23 303.213 1
2 4 23 1433.41 242.211 2
-4 23 -2 1325.16 306.229 1
-4 2 23 1156.59 205.501 2
4 23 1 1624.56 363.23 1
1 23 -4 1810.22 406.503 1
-1 -4 23 2110.3 311.449 2
-4 1 23 1902.07 275.689 2
1 4 23 1587.06 250.18 2
0 -4 23 1085.38 191.683 2
4 23 0 1132.47 302.509 1
-4 0 23 1143.43 231.855 2
0 23 -4 1295.16 320.399 1
0 4 23 1125.63 220.847 2
-1 4 23 1628.9 251.534 2
4 23 -1 1916.77 400.354 1
1 -4 23 2020.73 292.416 2
-4 -1 23 1835.43 266.975 2
-1 23 -4 1601.78 353.152 1
-2 4 23 1493.73 246.86 2
2 -4 23 1256.69 246.625 2
-4 -2 23 1331.53 249.104 2
-2 23 -4 1054.59 273.4 1
4 23 -2 1132 333.154 1
-3 4 23 1379.09 243.413 2
3 -4 23 1350.57 254.361 2
4 23 -3 1071.74 278.015 1
-3 23 -4 1183.13 306.59 1
-4 -3 23 1400.17 262.381 2
-4 4 23 2309.37 286.326 2
-4 -4 23 2249.76 308.057 2
4 4 23 2204.75 281.517 2
4 -4 23 2163.18 309.136 2
4 23 -4 1891.33 379.971 1
-4 23 -4 2297.36 409.127 1
4 4 -23 2219.47 382.566 1
-5 4 23 250.34 135.938 2
4 23 -5 -3.72264 143.37 1
-4 -5 23 35.8812 98.6618 2
5 -4 23 20.8413 84.6374 2
4 5 23 164.561 77.3404 2
3 23 -5 885.063 289.831 1
5 23 3 1102.42 316.363 1
5 -3 23 976.478 201.324 2
-3 -5 23 1451.96 224.346 2
-5 3 23 1307.73 217.692 2
3 5 23 1195.62 214.466 2
5 23 2 3313.8 522.963 1
-2 -5 23 3660.95 381.627 2
2 23 -5 3138.8 505.011 1
-5 2 23 3433.66 372.052 2
5 -2 23 2937.57 333.897 2
2 5 23 3037.02 343.405 2
1 5 23 491.03 161.74 2
5 23 1 457.273 198.705 1
-1 -5 23 675.989 180.655 2
5 -1 23 373.633 129.996 2
-5 1 23 581.596 150.846 2
1 23 -5 457.783 191.903 1
0 5 23 795.842 168.256 2
0 -5 23 991.662 223.102 2
5 23 0 975.626 320.249 1
0 23 -5 781.552 263.349 1
-5 0 23 726.14 156.372 2
-1 5 23 659.256 153.467 2
5 23 -1 743.47 257.9 1
1 -5 23 772.603 188.185 2
-1 23 -5 383.371 181.364 1
-5 -1 23 462.182 147.37 2
5 23 -2 2682.34 467.053 1
-2 23 -5 2717.74 452.773 1
-5 -2 23 3357.69 351.946 2
2 -5 23 3483.68 379.027 2
-2 5 23 3334.84 358.171 2
3 -5 23 1334.64 243.568 2
-3 23 -5 1278.07 318.527 1
3 5 -23 1363.51 336.916 1
-3 5 23 1253.96 224.287 2
-5 -3 23 1196.34 228.15 2
5 23 -3 1182.78 298.37 1
-4 5 23 274.852 92.2576 2
4 -5 23 215.114 119.075 2
-4 23 -5 -82.7307 163.826 1
-5 -4 23 97.5157 114.536 2
4 5 -23 252.569 169.171 1
5 4 23 175.504 109.53 2
5 23 -4 118.619 144.203 1
-5 5 23 73.0841 75.1395 2
5 23 -5 112.434 126.041 1
5 -5 23 314.947 135.249 2
-5 -5 23 239.688 128.609 2
-5 23 -5 92.0222 127.704 1
5 5 23 47.3538 72.4227 2
5 5 -23 224.636 140.784 1
-6 5 23 373.575 136.997 2
5 23 -6 507.208 227.197 1
6 -5 23 368.082 146.763 2
-5 -6 23 315.941 133.793 2
-6 23 -5 514.45 243.226 1
5 6 23 199.624 94.4707 2
-6 4 23 1107.98 224.437 2
4 23 -6 807.249 262.568 1
-4 -6 23 1424.62 268.704 2
6 -4 23 893.882 193.964 2
4 6 23 765.041 170.309 2
-6 3 23 327.418 144.554 2
3 23 -6 84.3595 135.122 1
-3 -6 23 354.064 149.653 2
6 -3 23 318.544 132.004 2
3 6 23 140.101 88.1263 2
-2 -6 23 2569.12 334.795 2
-6 2 23 2378.96 313.075 2
2 6 23 2632.17 333.857 2
2 23 -6 2796.83 492.615 1
6 23 2 2327.78 449.624 1
6 -2 23 2379.6 307.375 2
1 6 23 431.102 150.231 2
-1 -6 23 527.957 160.202 2
6 -1 23 539.142 167.07 2
6 23 1 340.24 226.321 1
1 23 -6 231.372 165.617 1
-6 1 23 607.903 167.264 2
6 23 0 585.905 220.683 1
0 6 23 484.41 129.136 2
0 -6 23 563.266 199.074 2
0 23 -6 506.964 209.383 1
-6 0 23 859.588 203.266 2
-1 6 23 572.59 188.41 2
6 23 -1 659.303 257.211 1
-1 23 -6 234.007 149.934 1
-6 -1 23 426.008 133.669 2
1 -6 23 499.86 159.622 2
-2 23 -6 2815.6 500.622 1
6 23 -2 2797.38 481.59 1
-6 -2 23 2954.95 357.204 2
2 -6 23 2705.74 367.58 2
-2 6 23 2818.99 346.409 2
6 23 -3 363.086 166.916 1
-3 6 23 349.244 126.63 2
-3 23 -6 292.116 171.12 1
3 -6 23 242.605 82.55 2
3 6 -23 233.734 118.01 1
-6 -3 23 370.948 136.616 2
-4 6 23 1244.58 233.796 2
-4 23 -6 1360.1 348.801 1
4 -6 23 1293.32 247.799 2
-6 -4 23 1204.35 242.45 2
6 23 -4 1132.52 306.007 1
4 6 -23 1133.83 291.811 1
-5 6 23 299.933 136.961 2
-5 23 -6 346.874 112.768 1
5 -6 23 154.482 115.802 2
6 23 -5 -10.2808 90.467 1
-6 -5 23 237.238 131.767 2
-6 6 23 372.707 110.43 2
6 -6 23 564.67 168.867 2
6 23 -6 529.144 242.096 1
-6 -6 23 590.427 167.059 2
-6 23 -6 444.635 181.541 1
-7 6 23 192.011 83.5382 2
-7 23 -6 340.37 165.444 1
6 23 -7 242.024 199.48 1
-6 -7 23 437.63 161.959 2
7 -6 23 662.665 203.652 2
-7 5 23 545.732 162.387 2
5 23 -7 529.824 249.58 1
7 -5 23 508.947 155.576 2
-5 -7 23 849.395 200.036 2
5 7 23 634.711 162.797 2
4 7 23 596.775 170.315 2
-7 4 23 595.352 176.74 2
4 23 -7 699.173 242.907 1
7 -4 23 551.565 169.824 2
-4 -7 23 525.623 165.813 2
-7 3 23 1430.18 246.931 2
3 7 23 1235.23 219.298 2
7 -3 23 1369.52 243.78 2
3 23 -7 1473.29 356.987 1
-3 -7 23 1453.07 258.55 2
2 7 23 -30.6234 100.047 2
7 -2 23 152.892 102.294 2
7 23 2 84.0263 158.083 1
2 23 -7 192.438 107.127 1
-2 -7 23 -56.3556 67.6157 2
-7 2 23 46.1491 62.0968 2
1 7 23 361.358 164.632 2
7 23 1 337.18 137.843 1
-1 -7 23 219.503 93.7129 2
1 23 -7 238.405 166.814 1
-7 1 23 268.987 92.2203 2
7 23 0 2105.3 435.338 1
0 7 23 2220.87 292.612 2
0 -7 23 3057.72 374.526 2
0 23 -7 2288.13 435.997 1
-7 0 23 2218.42 297.064 2
-1 7 23 393.752 135.659 2
-1 23 -7 270.44 153.322 1
1 -7 23 559.478 182.05 2
-7 -1 23 401.988 131.196 2
7 23 -1 474.238 217.783 1
-2 7 23 -128.211 96.2154 2
-2 23 -7 -17.0597 110.677 1
2 -7 23 43.0526 109.974 2
7 23 -2 -62.3529 98.4448 1
-7 -2 23 208.431 137.586 2
-3 7 23 1355.32 240.538 2
7 23 -3 1200.16 315.58 1
-3 23 -7 1453.18 359.978 1
3 -7 23 1519.57 276.097 2
-7 -3 23 1465.5 257.677 2
3 7 -23 1306.74 342.474 1
-4 7 23 479.958 156.834 2
4 -7 23 706.938 214.586 2
-7 -4 23 602.562 175.565 2
-4 23 -7 360.425 180.018 1
4 7 -23 417.177 186.564 1
7 23 -4 305.671 138.895 1
-5 7 23 420.341 134.342 2
-5 23 -7 474.681 215.31 1
-7 -5 23 717.808 169.649 2
7 23 -5 298.637 203.694 1
5 -7 23 594.422 172.58 2
5 7 -23 487.622 198.595 1
6 7 -23 295.158 160.98 1
-6 7 23 588.367 180.029 2
-6 23 -7 386.198 199.576 1
6 -7 23 352.272 145.145 2
-7 -6 23 357.448 131.652 2
7 23 -6 220.854 154.075 1
-7 7 23 2216.41 318.28 2
-7 23 -7 1843.08 369.691 1
7 -7 23 1787.81 268.216 2
-7 -7 23 2232.32 328.832 2
7 23 -7 2052.02 419.968 1
-8 7 23 1358.87 255.252 2
-8 23 -7 881.819 272.343 1
8 -7 23 984.849 254.937 2
7 23 -8 908.648 282.295 1
-7 -8 23 1389.06 265.931 2
-8 6 23 96.8414 66.9549 2
6 23 -8 44.3556 118.112 1
8 -6 23 -27.9608 75.6908 2
-6 -8 23 170.731 101.07 2
5 8 23 211.336 137.708 2
-8 5 23 33.4428 70.4878 2
5 23 -8 231.644 165.871 1
8 -5 23 76.2033 81.4277 2
-5 -8 23 142.128 116.618 2
4 8 23 647.802 157.489 2
-8 4 23 779.216 193.925 2
8 -4 23 794.153 175.667 2
-4 -8 23 1316.38 252.578 2
4 23 -8 607.913 227.741 1
-8 3 23 1859.93 295.224 2
3 8 23 1414.41 241.737 2
-3 -8 23 1977.86 310.913 2
8 -3 23 1602.51 257.323 2
3 23 -8 1483.43 361.183 1
2 8 23 172.614 128.63 2
-2 -8 23 9.65792 106.517 2
2 23 -8 -87.4777 155.35 1
-8 2 23 215.474 131.711 2
1 8 23 163.577 100.568 2
1 23 -8 56.077 97.7949 1
-1 -8 23 494.083 185.924 2
8 23 1 533.15 255.308 1
-8 1 23 250.131 121.207 2
0 8 23 1972.47 298.284 2
0 -8 23 1896.72 285.763 2
0 23 -8 1396.23 333.125 1
8 23 0 1409.44 353.729 1
-8 0 23 1743.92 261.262 2
-1 8 23 382.97 133.565 2
8 23 -1 543.12 212.27 1
-1 23 -8 270.293 115.691 1
1 -8 23 468.588 173.51 2
-8 -1 23 373.74 144.41 2
-2 8 23 175.581 104.8 2
-2 23 -8 -98.6634 117.229 1
2 -8 23 195.119 110.597 2
2 8 -23 267.929 216.509 1
-8 -2 23 308.762 149.817 2
8 23 -2 -169.031 174.111 1
-3 8 23 1959.55 288.404 2
-3 23 -8 1692.32 385.372 1
3 -8 23 2226.93 316.837 2
8 23 -3 1859.23 411.465 1
-8 -3 23 2076.62 291.188 2
3 8 -23 1883.61 409.868 1
-4 8 23 890.411 208.976 2
8 23 -4 1066.35 330.294 1
4 -8 23 1048.29 211.847 2
-4 23 -8 1086.37 307.44 1
-8 -4 23 790.882 199.726 2
4 8 -23 832.872 297.443 1
8 23 -5 281.851 153.04 1
-5 8 23 2.75243 79.1791 2
-5 23 -8 87.1973 174.791 1
5 -8 23 8.35931 74.436 2
-8 -5 23 89.2668 111.085 2
5 8 -23 -25.9057 121.05 1
-8 -6 23 206.161 102.129 2
6 8 -23 42.9267 98.5911 1
-6 8 23 -5.15715 108.025 2
-6 23 -8 62.6872 107.942 1
6 -8 23 92.2518 86.5786 2
8 23 -6 285.988 174.846 1
-7 8 23 1407.46 244.308 2
7 8 -23 911.992 302.259 1
-7 23 -8 1196.61 303.392 1
7 -8 23 1278.84 261.376 2
-8 -7 23 1432.74 244.865 2
8 23 -7 1401.98 373.179 1
-8 23 -8 995.109 298.297 1
-8 8 23 1048.89 238.817 2
8 -8 23 1031.62 218.085 2
8 23 -8 950.82 329.291 1
-8 -8 23 1157.85 242.995 2
-9 23 -8 61.1769 85.2346 1
-9 8 23 273.453 114.326 2
8 23 -9 228.453 220.131 1
-8 -9 23 184.218 111.751 2
-9 7 23 1211.74 232.998 2
7 23 -9 1087.96 319.081 1
9 -7 23 727.547 191.097 2
-7 -9 23 1199.43 245.851 2
-9 6 23 566.153 181.621 2
6 23 -9 329.782 201.46 1
-6 -9 23 303.245 134.003 2
9 -6 23 82.9536 72.905 2
5 23 -9 169.825 98.1435 1
5 9 23 299.246 124.264 2
-9 5 23 177.919 108.246 2
-5 -9 23 273.733 160.206 2
9 -5 23 279.081 122.55 2
-9 4 23 452.923 153.842 2
4 9 23 421.249 139.953 2
-4 -9 23 394.446 149.797 2
4 23 -9 183.633 138.213 1
-9 3 23 339.293 164.895 2
-3 -9 23 279.424 177.927 2
3 23 -9 471.647 241.179 1
3 9 23 453.421 148.149 2
2 9 23 408.606 146.008 2
-2 -9 23 745.915 200.565 2
2 23 -9 520.111 253.68 1
-9 2 23 438.093 133.742 2
1 9 23 1022.68 231.531 2
9 23 1 824.399 262.542 1
1 23 -9 699.203 214.872 1
-1 -9 23 1254.68 260.044 2
-9 1 23 1074.65 211.752 2
0 9 23 335.748 125.682 2
-9 0 23 208.164 143.788 2
9 23 0 188.292 214.474 1
0 23 -9 242.063 113.548 1
0 -9 23 115.08 109.884 2
-1 9 23 1169.27 227.504 2
-1 23 -9 844.136 256.3 1
1 -9 23 1144.43 248.484 2
9 23 -1 916.648 292.539 1
-9 -1 23 1157.09 224.425 2
9 23 -2 274.736 235.688 1
-2 9 23 422.304 144.601 2
2 -9 23 535.685 164.935 2
-2 23 -9 333.575 189.459 1
2 9 -23 555.175 279.379 1
-9 -2 23 637.448 190.172 2
-3 23 -9 376.487 217.75 1
-3 9 23 454.029 156.568 2
-9 -3 23 392.224 161.597 2
3 -9 23 426.184 150.487 2
9 23 -3 364.686 207.94 1
3 9 -23 333.276 153.808 1
-4 9 23 360.136 140.761 2
-4 23 -9 418.833 148.338 1
4 -9 23 584.187 186.257 2
-9 -4 23 498.947 149.245 2
4 9 -23 325.793 180.284 1
9 23 -4 393.295 178.258 1
5 9 -23 145.67 112.188 1
-5 9 23 330.999 103.541 2
-5 23 -9 405.543 252.79 1
9 23 -5 58.4373 111.349 1
-9 -5 23 504.604 177.376 2
5 -9 23 285.247 145.662 2
9 23 -6 187.839 174.673 1
6 9 -23 114.343 112.423 1
-6 23 -9 351.554 214.76 1
-6 9 23 415.428 133.075 2
6 -9 23 253.298 73.4003 2
-9 -6 23 616.186 181.637 2
-7 23 -9 757.827 259.766 1
-7 9 23 1379.67 282.49 2
7 9 -23 1029.18 305.302 1
7 -9 23 836.55 222.189 2
-9 -7 23 1020.17 190.799 2
9 23 -7 1221.81 363.212 1
-8 23 -9 107.494 110.719 1
-8 9 23 516.498 168.056 2
8 9 -23 -0.85198 81.4243 1
9 23 -8 531.439 282.394 1
-9 -8 23 430.61 157.027 2
-9 -9 23 4517.26 450.162 2
-9 9 23 4429.41 460.348 2
-9 23 -9 3749.74 576.266 1
9 23 -9 4039.08 629.712 1
-10 9 23 2922.69 361.773 2
-9 -10 23 2920.68 375.917 2
9 23 -10 2290.27 503.419 1
-10 8 23 33.5286 75.479 2
-8 -10 23 76.5488 93.7389 2
-10 7 23 65.4452 95.9235 2
7 23 -10 -15.0392 179.39 1
-7 -10 23 101.666 114.1 2
6 23 -10 1147.22 344.287 1
-10 6 23 927.126 191.734 2
-6 -10 23 1010.08 218.207 2
5 10 23 1349.3 231.264 2
-10 5 23 1717.07 278.727 2
-5 -10 23 1726.58 278.193 2
5 23 -10 1271.66 355.181 1
-10 4 23 208.088 87.8969 2
4 10 23 258.391 113.034 2
-4 -10 23 86.6885 91.3479 2
4 23 -10 348.879 230.606 1
3 10 23 158.605 58.5004 2
-3 -10 23 278.41 122.494 2
3 23 -10 -75.3564 127.311 1
-10 3 23 245.739 153.838 2
2 10 23 377.046 142.466 2
2 23 -10 258.739 208.265 1
-2 -10 23 187.644 116.18 2
-10 2 23 327.178 136.496 2
1 10 23 1366.62 241.825 2
1 23 -10 1472.77 373.714 1
-1 -10 23 1701.35 293.742 2
-10 1 23 1654.84 270.823 2
0 10 23 1216.67 242.872 2
0 -10 23 1078.13 242.661 2
0 23 -10 657.703 261.809 1
-10 0 23 1107.42 225.88 2
10 23 0 955.223 345.469 1
-1 10 23 1690.42 267.461 2
10 23 -1 1614.92 391.454 1
1 -10 23 1692.15 278.956 2
-1 23 -10 1305.23 337.401 1
1 10 -23 1160.63 319.2 1
-10 -1 23 1751.96 273.155 2
-2 10 23 293.354 160.227 2
2 -10 23 230.056 112.195 2
-2 23 -10 96.3221 115.906 1
10 23 -2 -22.3267 179.189 1
-10 -2 23 303.716 138.088 2
2 10 -23 79.0749 117.301 1
10 23 -3 -11.2674 106.69 1
-3 10 23 257.915 136.347 2
3 -10 23 370.42 161.141 2
-10 -3 23 159.625 76.2687 2
-3 23 -10 350.814 235.894 1
3 10 -23 326.654 198.269 1
-4 23 -10 386.719 234.926 1
-4 10 23 210.062 114.551 2
-10 -4 23 35.2232 78.6029 2
4 -10 23 119.708 78.3364 2
10 23 -4 139.482 186.829 1
4 10 -23 445.976 195.691 1
5 10 -23 2188.73 466.002 1
-5 23 -10 1800.19 395.534 1
-5 10 23 1625.83 269.793 2
5 -10 23 2040.42 318.695 2
10 23 -5 1768.12 403.678 1
-10 -5 23 1927.73 306.804 2
6 10 -23 917.574 321.006 1
-6 23 -10 1013.41 317.9 1
-6 10 23 1176.78 238.156 2
-10 -6 23 1172.13 230.778 2
10 23 -6 807.408 293.199 1
-7 23 -10 115.669 181.764 1
10 23 -7 367.443 230.587 1
-7 10 23 23.1961 69.3556 2
7 10 -23 70.6214 125.638 1
-10 -7 23 327.065 175.181 2
10 23 -8 -178.785 175.539 1
-8 23 -10 -12.7897 80.6655 1
-8 10 23 77.6151 102.105 2
8 10 -23 -184.607 185.492 1
-10 -8 23 -75.1035 113.35 2
-9 23 -10 2479.72 475.947 1
-10 -9 23 2931.23 363.013 2
-9 10 23 3469.98 409.182 2
10 23 -9 2829.57 545.492 1
-10 23 -10 1772.05 404.301 1
-10 10 23 1983.75 311.299 2
-10 -10 23 2400.45 347.183 2
10 23 -10 2010.96 444.757 1
-11 10 23 -9.43242 106.755 2
10 23 -11 161.156 185.842 1
-10 -11 23 179.739 130.172 2
-11 9 23 2956.41 377.44 2
-9 -11 23 2832.73 371.3 2
9 23 -11 3521.89 616.924 1
-11 8 23 1879.88 309.69 2
8 23 -11 1720.18 415.625 1
-8 -11 23 1642.59 289.504 2
-11 7 23 2146.88 319.94 2
7 23 -11 1879.6 449.42 1
-7 -11 23 2180.71 323.844 2
6 23 -11 1525.04 435.334 1
-11 6 23 1336.59 235.433 2
-6 -11 23 1282.77 249.145 2
-11 5 23 1051.92 219.387 2
5 11 23 777.955 186.745 2
-5 -11 23 1306.7 260.147 2
5 23 -11 1076.96 348.367 1
-11 4 23 80.9475 129.92 2
4 11 23 1.90822 99.4478 2
-4 -11 23 183.326 133.459 2
4 23 -11 84.289 126.215 1
3 11 23 160.583 81.6084 2
3 23 -11 -127.145 93.184 1
-3 -11 23 98.4413 118.861 2
-11 3 23 389.768 151.755 2
2 11 23 306.644 124.741 2
2 23 -11 84.9046 127.048 1
-11 2 23 338.072 121.86 2
1 11 23 452.701 166.535 2
-1 -11 23 308.548 155.03 2
1 23 -11 340.642 163.045 1
-11 1 23 436.205 160.3 2
0 11 23 99.5891 75.895 2
0 -11 23 137.929 84.0013 2
0 11 -23 143.786 126.316 1
0 23 -11 121.356 151.442 1
-11 0 23 97.9551 73.8754 2
-1 11 23 369.349 134.908 2
11 23 -1 89.2214 162.517 1
-1 23 -11 914.15 290.7 1
1 11 -23 443.848 202.679 1
-11 -1 23 615.872 184.973 2
1 -11 23 493.288 135.055 2
11 23 -2 168.438 139.706 1
-2 11 23 371.913 136.346 2
-11 -2 23 462.808 165.612 2
2 -11 23 274.11 145.413 2
-2 23 -11 575.239 299.779 1
2 11 -23 493.598 238.805 1
-3 23 -11 310.393 198.525 1
-3 11 23 334.064 129.268 2
11 23 -3 362.821 217.895 1
-11 -3 23 211.67 70.3165 2
3 -11 23 296.788 155.484 2
3 11 -23 26.5703 119.81 1
4 11 -23 75.1229 105.278 1
11 23 -4 69.0593 209.354 1
-4 23 -11 -64.0673 114.944 1
-4 11 23 -79.0312 96.1713 2
4 -11 23 -184.488 137.741 2
-11 -4 23 -148.519 107.507 2
5 11 -23 1052.49 299.607 1
-5 23 -11 1215.91 350.44 1
-5 11 23 1131.61 226.705 2
-11 -5 23 1279.72 252.694 2
11 23 -5 1094.68 313.849 1
-6 23 -11 1385.59 370.313 1
6 11 -23 1342 352.795 1
-6 11 23 1694.53 288.654 2
-11 -6 23 1501.84 284.373 2
11 23 -6 1648.16 398.755 1
-7 23 -11 1983.1 426.778 1
-7 11 23 2376.28 325.859 2
11 23 -7 2143.63 487.871 1
7 11 -23 1681.98 399.702 1
-11 -7 23 2086.18 310.089 2
-8 23 -11 1223.17 354.095 1
11 23 -8 1314.35 388.592 1
-8 11 23 1677.67 275.282 2
-11 -8 23 1587.11 266.338 2
8 11 -23 1639.28 403.169 1
-9 23 -11 2325.9 471.239 1
11 23 -9 3383.55 595.982 1
-9 11 23 3186.76 388.964 2
-11 -9 23 3240.96 386.971 2
9 11 -23 1954.86 412.401 1
11 23 -10 -32.773 160.712 1
-10 23 -11 -19.8246 141.605 1
-10 11 23 156.944 150.249 2
-11 -10 23 -33.3767 82.218 2
-11 11 23 2813.19 380.386 2
-11 -11 23 2944.01 379.45 2
11 23 -11 2790.23 556.935 1
-12 11 23 2466.1 364.98 2
-11 -12 23 2445.83 344.524 2
11 23 -12 1978.01 470.375 1
-12 10 23 101.172 80.7351 2
10 23 -12 245.762 161.881 1
-10 -12 23 247.13 163.504 2
-12 9 23 1277.76 260.115 2
-9 -12 23 1257.17 268.007 2
9 23 -12 1220.47 357.592 1
-8 -12 23 4863.44 480.774 2
-12 8 23 4153.94 448.305 2
8 23 -12 3955.91 638.864 1
7 23 -12 948.808 346.754 1
-12 7 23 946.756 224.648 2
-7 -12 23 662.291 199.917 2
-12 6 23 106.122 72.7494 2
-6 -12 23 133.638 110.061 2
6 23 -12 -65.4493 131.123 1
-12 5 23 601.727 179.576 2
5 12 23 537.373 152.916 2
-5 -12 23 505.863 182.158 2
5 23 -12 284.5 216.826 1
-12 4 23 233.82 120.128 2
4 12 23 115.647 108.873 2
-4 -12 23 229.516 116.881 2
4 23 -12 111.801 130.121 1
3 12 23 318.769 132.743 2
-3 -12 23 356.113 124.322 2
3 23 -12 63.7507 167.298 1
-12 3 23 246.419 126.881 2
2 12 23 1266.35 235.359 2
2 23 -12 1230.73 355.572 1
-2 -12 23 1480.47 283.472 2
-12 2 23 1428.39 261.206 2
1 12 23 322.943 126.616 2
-1 -12 23 308.733 111.155 2
1 23 -12 216.811 160.352 1
-1 12 -23 349.235 220.333 1
-12 1 23 517.376 169.163 2
0 12 23 38.8258 86.7596 2
0 23 -12 38.2916 181.505 1
0 -12 23 269.933 126.622 2
0 12 -23 314.456 201.3 1
-12 0 23 133.132 89.2163 2
-1 12 23 272.205 143.774 2
-1 23 -12 109.098 174.167 1
1 -12 23 295.116 153.97 2
-12 -1 23 481.112 179.221 2
1 12 -23 214.185 206.088 1
-2 12 23 1791.63 275.777 2
-2 23 -12 880.938 312.567 1
2 -12 23 1185.27 248.673 2
12 23 -2 884.789 364.353 1
-12 -2 23 1816.66 293.728 2
2 12 -23 1199.82 354.673 1
-3 23 -12 457.757 173.33 1
12 23 -3 585.357 261.395 1
-3 12 23 543.618 157.848 2
-12 -3 23 384.997 161.019 2
3 12 -23 208.475 103.837 1
4 12 -23 384.808 214.256 1
-4 23 -12 166.996 106.531 1
-4 12 23 304.877 142.945 2
-12 -4 23 223.101 102.645 2
12 23 -4 -30.8967 122.261 1
5 12 -23 584.745 265.335 1
-5 23 -12 412.021 183.018 1
-5 12 23 737.52 205.026 2
12 23 -5 466.41 254.263 1
-12 -5 23 266.963 133.095 2
12 23 -6 14.7276 115.638 1
-6 23 -12 61.3783 145.621 1
6 12 -23 -100.727 179.647 1
-6 12 23 19.0822 92.141 2
-12 -6 23 -7.94241 114.522 2
-7 23 -12 538.433 140.533 1
-7 12 23 1001.18 245.088 2
7 12 -23 934.026 295.929 1
-12 -7 23 1060.61 227.178 2
12 23 -7 461.574 174.707 1
8 12 -23 3328.14 557.178 1
-8 12 23 4614.9 487.392 2
-12 -8 23 4663.02 461.086 2
12 23 -8 3643.37 608.968 1
-8 23 -12 3469.77 588.86 1
-9 23 -12 693.58 282.764 1
-9 12 23 775.629 181.8 2
12 23 -9 1114.17 355.575 1
-12 -9 23 1114.69 245.901 2
9 12 -23 701.65 293.002 1
-10 23 -12 158.216 136.568 1
-10 12 23 506.212 177.562 2
-12 -10 23 202.485 128.657 2
12 23 -10 -8.99643 150.927 1
12 23 -11 2195.22 485.115 1
-11 12 23 2581.05 362.839 2
-12 -11 23 2484.57 351.309 2
-11 23 -12 2175.61 486.196 1
-12 12 23 1099.41 249.468 2
-12 -12 23 865.242 225.187 2
-13 12 23 273.473 115.454 2
-13 11 23 2498.08 354.874 2
-11 -13 23 2351.25 346.928 2
-13 10 23 550.739 183.31 2
-10 -13 23 131.791 80.2902 2
10 23 -13 220.402 167.05 1
-13 9 23 966.138 233.579 2
-9 -13 23 692.198 185.156 2
9 23 -13 1160.33 376.959 1
-13 8 23 1049.64 229.022 2
8 23 -13 1002.19 353.106 1
-8 -13 23 889.407 228.301 2
7 23 -13 1932.9 453.807 1
-13 7 23 1902.9 292.151 2
-7 -13 23 1757.89 279.837 2
-13 6 23 247.558 151.802 2
-6 -13 23 276.293 153.35 2
6 23 -13 50.8037 132.277 1
-13 5 23 677.799 190.512 2
5 13 23 552.408 155.841 2
-5 -13 23 441.633 176.249 2
5 23 -13 268.625 185.943 1
4 13 23 185.251 80.2785 2
-4 -13 23 520.101 184.607 2
4 23 -13 512.291 300.372 1
-13 4 23 542.607 164.395 2
3 13 23 945.666 211.436 2
-3 -13 23 1200.85 268.545 2
3 23 -13 1027.32 341.477 1
-13 3 23 1196.51 251.694 2
2 23 -13 254.927 161.446 1
2 13 23 337.507 212.444 2
-13 2 23 661.789 181.795 2
-2 -13 23 652.736 185.662 2
1 13 23 52.3076 75.675 2
-1 -13 23 475.863 184.808 2
1 23 -13 173.076 140.177 1
-1 13 -23 205.473 178.805 1
-13 1 23 249.598 117.837 2
0 13 23 1143.78 256.858 2
0 23 -13 1330.55 360.016 1
0 13 -23 1284.32 369.325 1
-13 0 23 1261.61 232.732 2
-1 23 -13 -70.7048 96.961 1
-13 -1 23 107.157 67.4068 2
-1 13 23 47.7205 114.225 2
-2 23 -13 886.192 309.674 1
-2 13 23 307.602 152.206 2
-13 -2 23 811.329 213.394 2
2 13 -23 344.708 172.813 1
3 13 -23 1199.55 305.694 1
-3 23 -13 1136.54 348.378 1
-13 -3 23 1353.02 247.397 2
13 23 -3 1172.16 360.226 1
-3 13 23 919.171 219.952 2
4 13 -23 -41.3005 171.375 1
-4 23 -13 314.918 234.079 1
-4 13 23 93.4298 113.473 2
13 23 -4 356.646 170.498 1
-13 -4 23 222.324 91.296 2
-5 23 -13 -31.215 146.547 1
5 13 -23 185.025 171.191 1
-5 13 23 416.149 177.973 2
-13 -5 23 322.662 130.809 2
13 23 -5 329.525 219.365 1
-6 23 -13 275.877 176.855 1
6 13 -23 -29.1551 118.674 1
-6 13 23 134.741 124.371 2
13 23 -6 186.67 245.456 1
-13 -6 23 134.283 81.9385 2
-7 23 -13 2120.95 466.842 1
13 23 -7 1958.34 451.239 1
7 13 -23 2183.64 473.52 1
-13 -7 23 2037.79 305.442 2
-7 13 23 2270.42 339 2
-8 23 -13 486.189 257.135 1
-13 -8 23 555.701 171.603 2
-8 13 23 987.888 231.666 2
8 13 -23 774.267 270.983 1
13 23 -8 957.896 306.93 1
-9 23 -13 671.05 262.057 1
-9 13 23 975.406 241.305 2
-13 -9 23 679.508 189.825 2
9 13 -23 569.376 246.241 1
13 23 -9 1276.13 407.625 1
-13 -10 23 110.39 89.7042 2
13 23 -10 -4.32117 106.269 1
-10 23 -13 -54.9818 193.3 1
-13 -11 23 2234.95 337.152 2
-11 13 23 2994.86 385.83 2
-12 13 23 302.529 142.246 2
-13 -12 23 448.819 181.17 2
-13 13 23 65.5317 106.178 2
-14 13 23 309.738 166.107 2
-14 12 23 468.281 125.345 2
-14 11 23 1542.88 280.207 2
-14 10 23 915.658 223.168 2
-14 9 23 572.937 168.878 2
9 23 -14 427.534 205.314 1
-14 8 23 586.971 183.425 2
8 23 -14 140.993 110.458 1
7 23 -14 2283.02 527.915 1
-14 7 23 2410.24 335.902 2
-14 6 23 1152.26 242.344 2
6 23 -14 1089.58 372.871 1
-14 5 23 -47.4222 88.2341 2
5 14 23 -75.9236 121.066 2
5 23 -14 65.5323 151.928 1
4 23 -14 654.013 282.66 1
4 14 23 507.79 158.605 2
-14 4 23 811.297 228.6 2
3 14 23 251.497 111.759 2
3 23 -14 269.405 266.643 1
-3 14 -23 459.291 216.764 1
-14 3 23 385.186 162.708 2
2 14 23 1147.46 218.689 2
2 23 -14 1339.55 398.539 1
-2 14 -23 906.641 322.621 1
-14 2 23 1235.02 248.075 2
1 14 23 799.79 232.842 2
1 23 -14 868.729 229.777 1
-1 14 -23 1518.81 416.93 1
-14 1 23 1103.95 234.48 2
0 14 23 -204.851 112.402 2
0 23 -14 47.1814 115.34 1
-14 0 23 8.04941 69.1891 2
0 14 -23 -262.039 190.927 1
-1 14 23 732.716 232.806 2
-1 23 -14 714.392 236.514 1
-14 -1 23 1502.52 266.759 2
1 14 -23 1344.36 381.165 1
-2 23 -14 797.505 269.31 1
-2 14 23 680.872 217.994 2
-14 -2 23 1035.34 220.773 2
2 14 -23 962.863 290.691 1
3 14 -23 431.61 226.846 1
-3 23 -14 335.999 223.288 1
-3 14 23 48.0278 101.871 2
-14 -3 23 244.522 120.197 2
4 14 -23 619.369 270.849 1
-4 23 -14 560.569 246.07 1
-4 14 23 453.947 192.527 2
-14 -4 23 818.519 213.968 2
14 23 -4 734.255 260.018 1
-5 23 -14 -243.029 205.045 1
5 14 -23 112.623 127.738 1
-14 -5 23 0.65688 123.652 2
-5 14 23 50.3403 114.437 2
14 23 -5 86.6329 110.959 1
-6 23 -14 1321.37 401.874 1
14 23 -6 1291 382.853 1
-6 14 23 1178.01 241.753 2
6 14 -23 1080.39 336.992 1
-14 -6 23 1288.81 242.669 2
-7 23 -14 1594.41 408.391 1
7 14 -23 1861.83 435.837 1
-14 -7 23 2013.42 324.772 2
-7 14 23 1947.89 316.014 2
14 23 -7 2308.57 513.254 1
-8 23 -14 292.111 186.758 1
8 14 -23 456.454 184.15 1
-8 14 23 785.058 232.547 2
14 23 -8 294.784 160.165 1
-14 -8 23 325.817 117.799 2
-9 23 -14 365.756 170.897 1
14 23 -9 772.012 320.708 1
-9 14 23 734.806 223.487 2
-14 -9 23 619.218 169.015 2
9 14 -23 355.115 128.361 1
-10 14 23 1328.97 269.979 2
-14 -10 23 888.373 214.574 2
-10 23 -14 1137.47 372.022 1
-11 14 23 2035.27 339.414 2
-14 -11 23 1501.97 267.289 2
-12 14 23 320.293 150.566 2
-14 -12 23 618.391 187.008 2
-13 14 23 201.506 169.016 2
-14 14 23 11.9098 98.6813 2
-15 14 23 -68.777 128.663 2
-15 13 23 1328.81 285.309 2
-15 12 23 104.462 92.563 2
-15 11 23 -6.02174 90.0184 2
-15 10 23 1495.28 271.532 2
-15 9 23 468.69 173.054 2
-15 8 23 1142.81 244.288 2
7 23 -15 293.557 255.712 1
-15 7 23 472.339 172.164 2
-15 6 23 451.139 174.437 2
6 23 -15 552.106 228.774 1
5 15 23 817.743 191.016 2
5 23 -15 1174.08 393.546 1
-15 5 23 1200.4 240.138 2
4 15 23 1205.44 226.187 2
4 23 -15 1225.93 329.005 1
-4 15 -23 1324.94 376.674 1
-15 4 23 1163.42 237.437 2
3 15 23 621.941 176.91 2
3 23 -15 484.952 242.226 1
-3 15 -23 349.668 255.685 1
-15 3 23 625.864 188.959 2
2 15 23 955.605 216.713 2
2 23 -15 453.402 271.909 1
-15 2 23 445.388 150.015 2
-2 15 -23 265.421 174.76 1
1 15 23 621.041 204.205 2
1 23 -15 706.777 304.482 1
-15 1 23 590.508 172.018 2
-1 15 -23 568.812 316.351 1
0 15 23 55.4617 94.0671 2
0 23 -15 112.748 174.423 1
-15 0 23 332.48 159.857 2
-1 23 -15 741.991 278.762 1
-1 15 23 267.113 172.259 2
-15 -1 23 1046.25 231.262 2
1 15 -23 960.244 291.44 1
2 15 -23 1021.87 377.27 1
-2 23 -15 739.571 289.858 1
-15 -2 23 546.119 178.818 2
-2 15 23 402.621 192.432 2
3 15 -23 60.4103 162.357 1
-3 23 -15 633.089 258.174 1
-15 -3 23 547.234 158.275 2
-3 15 23 508.525 180.855 2
-4 23 -15 996.598 310.816 1
4 15 -23 1096.98 347.117 1
-4 15 23 840.916 241.543 2
-15 -4 23 1266.04 254.692 2
-5 23 -15 706.637 263.939 1
5 15 -23 611.631 289.13 1
-5 15 23 1047.16 210.223 2
-15 -5 23 979.75 216.698 2
-6 23 -15 507.694 214.973 1
-15 -6 23 441.482 162.193 2
6 15 -23 404.148 222.459 1
-6 15 23 616.136 194.908 2
15 23 -6 409.132 233.59 1
-7 23 -15 490.389 255.486 1
-7 15 23 271.569 113.701 2
7 15 -23 -19.4464 93.5013 1
-15 -7 23 503.078 163.927 2
15 23 -7 -91.867 147.282 1
-8 23 -15 811.436 313.108 1
-8 15 23 1056.74 221.627 2
-15 -8 23 1155.9 235.699 2
8 15 -23 1135.88 349.86 1
-9 15 23 371.532 187.456 2
-15 -9 23 571.628 204.138 2
-10 15 23 1476.86 276.594 2
-15 -10 23 1226.53 233.676 2
-15 -11 23 -105.416 103.794 2
-11 15 23 123.045 79.9454 2
-12 15 23 378.803 165.276 2
-13 15 23 822.238 220.755 2
-14 15 23 273.689 136.999 2
-15 15 23 760.288 208.834 2
-16 15 23 314.219 167.414 2
-16 14 23 102.839 133.899 2
-16 13 23 285.464 125.705 2
-16 12 23 259.66 174.73 2
-16 11 23 715.638 198.654 2
-16 10 23 388.592 147.51 2
-16 9 23 1928.58 305.674 2
-16 8 23 -38.8513 102.518 2
-16 7 23 114.096 139.08 2
-16 6 23 345.226 151.771 2
5 16 23 1030.3 188.944 2
-5 16 -23 1122.24 387.776 1
5 23 -16 1199.35 395.99 1
-16 5 23 1116.26 248.972 2
4 16 23 2022.71 283.802 2
4 23 -16 1383.76 371.06 1
-4 16 -23 1566.69 407.741 1
-16 4 23 1629.94 289.104 2
3 16 23 1192.74 224.276 2
3 23 -16 1543.57 394.089 1
-3 16 -23 1323.43 367.44 1
-16 3 23 1419.38 252.823 2
2 16 23 676.19 196.917 2
2 23 -16 875.689 307.911 1
-16 2 23 581.05 185.819 2
-2 16 -23 553.101 236.364 1
1 23 -16 395.852 147.856 1
1 16 23 400.566 178.049 2
-16 1 23 807.738 221.534 2
-1 16 -23 794.544 342.953 1
0 16 23 127.809 129.961 2
0 23 -16 326.056 235.25 1
-16 0 23 132.593 145.117 2
0 16 -23 302.849 224.709 1
1 16 -23 795.39 241.012 1
-1 16 23 536.227 203.59 2
-1 23 -16 723.582 282.222 1
-16 -1 23 971.157 245.723 2
2 16 -23 411.326 212.552 1
-2 23 -16 870.145 328.112 1
-2 16 23 593.078 212.176 2
-16 -2 23 664.108 160.046 2
3 16 -23 1501.46 420.219 1
-3 23 -16 1639.92 435.708 1
-3 16 23 1039.46 260.239 2
-16 -3 23 1387.33 262.186 2
-4 23 -16 1657.29 406.215 1
4 16 -23 1548.08 390.972 1
-4 16 23 1528.81 309.003 2
-16 -4 23 1672.19 271.533 2
-5 23 -16 886.911 263.412 1
5 16 -23 983.615 309.613 1
-5 16 23 1304.93 268.058 2
-16 -5 23 1123.34 224.22 2
-6 23 -16 411.734 210.695 1
-16 -6 23 161.664 115.53 2
6 16 -23 -60.3696 226.584 1
-6 16 23 367.984 176.876 2
-7 16 23 60.4035 85.8852 2
-16 -7 23 247.122 119.801 2
-8 16 23 212.459 156.847 2
-16 -8 23 464.982 160.717 2
-9 16 23 2362.6 360.053 2
-16 -9 23 1973.31 294.769 2
-16 -10 23 536.366 170.879 2
-10 16 23 583.433 187.43 2
-11 16 23 534.673 155.468 2
-16 -11 23 752.286 175.43 2
-12 16 23 359.845 187.825 2
-13 16 23 16.8509 100.316 2
-14 16 23 200.701 126.792 2
-15 16 23 177.2 119.303 2
-16 16 23 852.936 211.929 2
-17 16 23 -204.499 132.73 2
-17 15 23 413.659 159.215 2
-17 14 23 1325.93 265.808 2
-17 13 23 191.536 106.664 2
-17 12 23 288.847 136.542 2
-17 11 23 281.788 126.264 2
-17 10 23 2389.79 348.02 2
-17 9 23 9.30087 100.873 2
-17 8 23 1051.99 239.564 2
-17 7 23 135.423 99.3505 2
-17 6 23 4142.91 441.036 2
5 17 23 889.164 198.527 2
-17 5 23 815.717 224.817 2
4 17 23 2797.06 330.801 2
-17 4 23 2516.95 340.277 2
3 17 23 712.742 174.125 2
-17 3 23 717.957 194.83 2
2 17 23 272.596 110.358 2
-17 2 23 276.011 136.87 2
1 17 23 42.6337 105.746 2
-17 1 23 35.8077 80.3947 2
0 17 23 2022.98 335.878 2
-17 0 23 2092.54 314.454 2
-1 17 23 54.5361 127.81 2
-17 -1 23 127.92 76.8036 2
-2 17 23 48.0766 143.571 2
-17 -2 23 281.951 145.502 2
-17 -3 23 781.722 186.88 2
-3 17 23 462.968 206.037 2
-17 -4 23 2635.82 336.847 2
-4 17 23 2452.34 371.583 2
-5 17 23 858.932 210.65 2
-17 -5 23 859.292 189.753 2
-6 17 23 1626.41 289.31 2
-17 -6 23 1609.37 254.372 2
-7 17 23 301.938 134.987 2
-17 -7 23 313.818 143.906 2
-8 17 23 1036.33 253.952 2
-17 -8 23 744.153 185.439 2
-9 17 23 -72.9179 124.19 2
-17 -9 23 -42.2318 120.667 2
-17 -10 23 2100.48 305.337 2
-10 17 23 2190.17 346.193 2
-11 17 23 30.9441 110.633 2
-12 17 23 212.25 126.419 2
-13 17 23 275.303 125.594 2
-14 17 23 1556.21 290.569 2
-15 17 23 502.109 183.504 2
-16 17 23 70.2199 102.982 2
-17 17 23 571.61 174.448 2
-23 17 17 544.372 160.189 2
-17 23 17 642.893 208.836 2
-18 17 23 145.451 96.8963 2
-23 18 17 486.779 168.379 2
-17 23 18 245.492 103.665 2
-23 18 16 -25.454 112.679 2
-16 23 18 35.2585 102.283 2
-18 15 23 -97.4912 80.3385 2
-23 18 15 85.8106 67.2692 2
-15 23 18 -6.88938 116.053 2
-18 14 23 562.857 163.465 2
-18 13 23 204.259 111.507 2
-18 12 23 146.285 128.271 2
-18 11 23 110.628 80.4899 2
-18 10 23 459.708 158.431 2
-18 9 23 537.307 187.373 2
-18 8 23 420.715 155.34 2
-18 7 23 1125.18 255.434 2
-18 6 23 490.252 152.719 2
-18 5 23 275.973 119.428 2
4 18 23 -72.8911 80.2118 2
-18 4 23 112.634 82.8638 2
3 18 23 85.6056 120.727 2
-18 3 23 164.92 96.5176 2
2 18 23 851.384 187.632 2
-18 2 23 727.06 183.448 2
1 18 23 2028.83 310.691 2
-18 1 23 1897.7 283.82 2
0 18 23 473.727 195.78 2
-18 0 23 1050.22 216.923 2
-18 -1 23 2197.02 325.428 2
-1 18 23 1469.61 307.891 2
-2 18 23 639.535 225.393 2
-18 -2 23 875.384 210.231 2
-3 18 23 50.6476 152.174 2
-18 -3 23 -3.97582 105.513 2
-4 18 23 38.34 145.341 2
-18 -4 23 -74.1514 91.3766 2
-5 18 23 545.461 188.663 2
-18 -5 23 463.916 175.306 2
-6 18 23 1124.63 259.371 2
-18 -6 23 782.479 192.122 2
-7 18 23 1340.58 272.098 2
-18 -7 23 1328.6 245.021 2
-8 18 23 422.922 149.806 2
-9 18 23 665.105 187.543 2
-10 18 23 815.558 209.155 2
-11 18 23 12.8997 98.014 2
-12 18 23 342.713 151.941 2
-13 18 23 185.348 116.346 2
-14 18 23 630.937 208.175 2
-15 18 23 -29.375 113.353 2
-23 16 18 150.975 80.5016 2
-16 18 23 35.1756 84.451 2
-18 23 16 184.678 120.587 2
-23 17 18 34.8324 129.399 2
-17 18 23 124.453 115.457 2
-18 23 17 202.541 116.895 2
-18 18 23 659.674 145.451 2
-23 18 18 966.693 203.101 2
-18 23 18 775.482 202.858 2
-19 18 23 89.7304 90.8665 2
-23 19 18 159.477 93.2803 2
-18 23 19 326.13 156.156 2
-19 17 23 196.463 148.556 2
-23 19 17 135.898 109.45 2
-17 23 19 -133.451 102.905 2
-19 16 23 537.513 163.42 2
-23 19 16 760.816 180.259 2
-16 23 19 616.125 203.224 2
-19 15 23 572.551 172.449 2
-23 19 15 433.882 96.1929 2
-15 23 19 765.528 205.868 2
-19 14 23 376.618 174.767 2
-23 19 14 286.651 79.5867 2
-14 23 19 295.641 140.822 2
-19 13 23 774.501 182.641 2
-13 23 19 735.365 193.379 2
-19 12 23 2535.75 335.662 2
-19 11 23 -98.8562 126.257 2
-19 10 23 516.388 155.616 2
-19 9 23 1451.33 261.106 2
-19 8 23 2582.39 362.208 2
-19 7 23 181.783 123.437 2
-19 6 23 2188.19 304.542 2
-19 5 23 1161.22 239.687 2
4 19 23 841.48 172.357 2
-19 4 23 984.646 218.897 2
3 19 23 238.983 124.349 2
-19 3 23 207.035 125.247 2
2 19 23 1876.16 284.359 2
-19 2 23 1881.57 285.4 2
1 19 23 134.571 88.9103 2
-19 1 23 206.429 104.078 2
0 19 23 372.973 215.232 2
-19 0 23 1161.38 224.651 2
-1 19 23 62.8886 109.017 2
-19 -1 23 196.412 115.938 2
-2 19 23 1453.78 292.881 2
-19 -2 23 1631.08 264.443 2
-3 19 23 182.399 150.65 2
-19 -3 23 218.485 89.9186 2
3 23 19 386.79 157.379 2
-4 19 23 810.269 243.391 2
4 23 19 948.071 193.855 2
-5 19 23 977.723 215.11 2
-6 19 23 2358.24 342.522 2
-7 19 23 364.615 161.409 2
-8 19 23 2431.96 349.335 2
-9 19 23 1637.6 311.974 2
-10 19 23 764.417 209.616 2
-11 19 23 120.953 86.0469 2
-12 19 23 2964.08 399.456 2
-13 19 23 1063.07 241.772 2
-14 19 23 337.956 170.808 2
-23 15 19 381.935 129.75 2
-15 19 23 739.381 198.25 2
-23 16 19 639.239 152.886 2
-16 19 23 592.917 174.727 2
-19 23 16 343.892 151.714 2
-23 17 19 198.766 108.242 2
-17 19 23 40.2433 89.3933 2
-19 23 17 159.966 112.604 2
-23 18 19 284.205 124.628 2
-18 19 23 336.311 83.137 2
-19 23 18 380.189 144.818 2
-19 19 23 118.463 116.992 2
-23 19 19 240.25 76.0357 2
-19 23 19 466.036 161.899 2
-20 19 23 177.985 107.77 2
-23 20 19 232.028 138.7 2
-19 23 20 198.432 117.551 2
-23 20 18 17.9161 83.1466 2
-18 23 20 20.0632 73.4061 2
-20 17 23 413.005 144.461 2
-23 20 17 541.762 140.774 2
-17 23 20 592.731 174.253 2
-20 16 23 294.843 140.314 2
-23 20 16 150.178 101.096 2
-16 23 20 -3.84688 122.892 2
-20 15 23 80.3424 86.8699 2
-23 20 15 0.95401 111.103 2
-15 23 20 -79.4228 107.318 2
-20 14 23 91.07 69.8655 2
-23 20 14 367.441 140.145 2
-14 23 20 187.305 132.714 2
-20 13 23 927.729 209.533 2
-13 23 20 804.981 230.602 2
-23 20 13 648.908 179.358 2
-20 12 23 787.271 197.072 2
-12 23 20 1055.96 253.762 2
-20 11 23 194.751 79.7235 2
-11 23 20 223.854 118.557 2
-10 23 20 582.1 179.083 2
-20 10 23 599.2 179.71 2
-20 9 23 802.995 190.444 2
-9 23 20 457.371 181.877 2
-20 8 23 707.665 209.695 2
-20 7 23 201.772 104.406 2
-20 6 23 377.146 135.822 2
-20 5 23 1134.06 251.354 2
4 20 23 885.661 181.958 2
-20 4 23 1343.41 244.091 2
-20 3 23 2245.58 323.107 2
3 20 23 2445.55 315.787 2
2 20 23 247.919 105.612 2
-20 2 23 293.074 126.822 2
1 20 23 17.7236 128.693 2
-1 23 20 -46.3768 136.798 2
-20 1 23 22.1932 86.9659 2
0 20 23 274.1 178.814 2
0 23 20 203.035 132.058 2
-1 20 23 13.4937 75.7901 2
1 23 20 139.333 126.509 2
-2 20 23 250.869 148.512 2
2 23 20 324.792 140.114 2
3 23 20 2120.09 298.04 2
-3 20 23 1475.04 310.727 2
-4 20 23 570.955 227.491 2
4 23 20 972.682 202.626 2
-5 20 23 1096.43 244.456 2
-6 20 23 538.233 172.617 2
-7 20 23 157.539 140.867 2
-8 20 23 605.723 190.288 2
-9 20 23 907.584 236.386 2
-10 20 23 712.794 211.628 2
-11 20 23 630.033 203.053 2
-12 20 23 1042.65 244.932 2
-13 20 23 1224.08 258.763 2
-23 14 20 170.922 88.7993 2
-14 20 23 187.307 127.618 2
-23 15 20 265.037 127.908 2
-15 20 23 90.6547 115.253 2
-20 23 15 139.668 113.378 2
-23 16 20 140.705 74.3023 2
-16 20 23 340.897 160.473 2
-20 23 16 77.6017 108.694 2
-23 17 20 198.235 87.3963 2
-17 20 23 263.837 117.333 2
-20 23 17 381.466 149.259 2
-23 18 20 288.402 136.213 2
-18 20 23 106.293 85.5945 2
-20 23 18 -79.5808 69.1551 2
-23 19 20 362.016 153.584 2
-19 20 23 300.198 158.34 2
-20 23 19 132.609 68.3963 2
-23 20 20 980.859 199.421 2
-20 20 23 832.706 198.961 2
-20 23 20 1002.57 219.965 2
-21 20 23 -89.5903 101.528 2
-23 21 20 -56.4518 70.4108 2
-20 23 21 11.5353 71.4493 2
-21 19 23 111.397 105.97 2
-23 21 19 102.94 104.112 2
-19 23 21 -20.4252 88.6251 2
-21 18 23 340.829 155.713 2
-23 21 18 50.3079 99.4538 2
-18 23 21 41.1466 104.666 2
-21 17 23 718.944 178.863 2
-23 21 17 368.129 124.441 2
-17 23 21 571.731 170.758 2
-21 16 23 -2.49914 74.5865 2
-16 23 21 150.746 136.833 2
-23 21 16 11.3306 71.4919 2
-21 15 23 1024.55 198.706 2
-23 21 15 1582.03 248.043 2
-15 23 21 1531.36 281.628 2
-21 14 23 915.452 195.634 2
-23 21 14 1169.98 222.78 2
-14 23 21 1267.03 226.395 2
-21 13 23 320.629 132.543 2
-13 23 21 207.975 119.708 2
-23 21 13 304.071 123.903 2
-12 23 21 139.729 112.19 2
-23 21 12 278.563 124.691 2
-21 12 23 301.627 134.365 2
-11 23 21 1724.3 299.821 2
-21 11 23 1916.3 287.753 2
-10 23 21 751.679 209.869 2
-21 10 23 814.613 193.106 2
-9 23 21 8.59505 103.293 2
-21 9 23 63.3506 82.1133 2
-21 8 23 2458.8 342.179 2
-8 23 21 2231.97 335.476 2
-7 23 21 566.148 188.036 2
-21 7 23 564.16 174.034 2
-6 23 21 1112.35 245.96 2
-21 6 23 1010.65 210.026 2
-5 23 21 168.298 137.015 2
-21 5 23 233.247 151.024 2
4 21 23 2379.64 297.876 2
-21 4 23 2469.3 319.256 2
-4 23 21 2432.25 348.695 2
3 21 23 230.752 124.517 2
-3 23 21 345.771 153.453 2
-2 23 21 864.886 233.093 2
2 21 23 1013.69 204.227 2
1 21 23 254.108 113.808 2
-1 23 21 228.99 155.135 2
0 21 23 386.512 171.933 2
0 23 21 319.736 159.243 2
-1 21 23 294.567 195.414 2
1 23 21 242.703 114.441 2
-2 21 23 760.681 229.743 2
2 23 21 1033.96 195.436 2
3 23 21 1536.02 251.913 2
-3 21 23 362.317 152.591 2
4 23 21 2269.91 277.461 2
-4 21 23 2610.67 348.635 2
-5 21 23 77.9366 124.155 2
-6 21 23 979.344 209.431 2
-7 21 23 402.633 129.719 2
-8 21 23 2478.86 356.283 2
-9 21 23 171.377 148.701 2
-10 21 23 962.278 229.04 2
-11 21 23 2033.42 332.344 2
-12 21 23 395.667 150.02 2
-13 21 23 314.771 130.863 2
-23 13 21 -73.0371 92.8032 2
-23 14 21 1181.4 221.117 2
-14 21 23 1674.76 292.467 2
-21 23 14 1707.47 328.478 2
-23 15 21 1052.88 183.91 2
-15 21 23 1546.14 269.931 2
-21 23 15 1532.37 254.552 2
-23 16 21 82.0643 69.9224 2
-16 21 23 -19.6188 106.229 2
-21 23 16 237.081 120.436 2
-23 17 21 437.081 143.41 2
-17 21 23 584.171 183.687 2
-21 23 17 285.65 129.363 2
-23 18 21 261.406 127.935 2
-18 21 23 70.5039 111.482 2
-21 23 18 57.9277 71.4601 2
-23 19 21 38.8244 83.1621 2
-19 21 23 -0.18297 89.2306 2
-21 23 19 -99.0777 92.9746 2
-23 20 21 85.8928 79.363 2
-20 21 23 -15.8842 77.5567 2
-21 23 20 107.049 89.4768 2
-23 21 21 249.313 103.214 2
-21 21 23 121.759 69.6872 2
-21 23 21 298.237 128.932 2
-23 22 21 110.493 87.0568 2
-21 23 22 -37.722 90.6413 2
-22 21 23 82.6705 64.747 2
-22 20 23 8.42988 85.6674 2
-23 22 20 34.7274 67.9291 2
-20 23 22 68.9874 85.9909 2
-22 19 23 289.707 118.452 2
-23 22 19 211.274 100.999 2
-19 23 22 305.688 104.884 2
-22 18 23 946.498 200.196 2
-23 22 18 822.048 180.204 2
-18 23 22 896.437 213.476 2
-22 17 23 276.785 123.88 2
-23 22 17 255.174 107.08 2
-17 23 22 155.45 110.425 2
-23 22 16 56.3927 82.945 2
-16 23 22 -58.2588 81.0681 2
-22 16 23 136.055 101.685 2
-15 23 22 1002.81 224.53 2
-23 22 15 843.844 178.288 2
-14 23 22 1080.86 241.93 2
-23 22 14 661.531 174.387 2
-22 14 23 639.329 172.597 2
-13 23 22 393.495 145.92 2
-23 22 13 281.762 140.74 2
-22 13 23 328.57 135.984 2
-12 23 22 45.1906 89.4311 2
-23 22 12 36.7713 72.5487 2
-22 12 23 42.4935 93.2907 2
-11 23 22 1313.23 240.621 2
-23 22 11 1499.13 245.943 2
-22 11 23 695.616 250.193 2
-10 23 22 1610.97 300.965 2
-22 10 23 1520.89 244.535 2
-9 23 22 265.923 138.623 2
-22 9 23 200.881 104.008 2
-8 23 22 580.791 174.211 2
-22 8 23 721.537 198.556 2
-7 23 22 424.883 157.41 2
-6 23 22 222.558 130.721 2
-5 23 22 743.468 195.97 2
4 22 23 1113.9 202.409 2
-4 23 22 934.188 215.324 2
3 22 23 515.135 158.988 2
-3 23 22 628.616 178.977 2
-2 23 22 452.147 152.873 2
2 22 23 780.295 187.74 2
1 22 23 17.2709 81.0868 2
-1 23 22 202.561 132.235 2
0 22 23 100.94 92.3176 2
0 23 22 252.751 139.269 2
-1 22 23 -7.84101 129.759 2
1 23 22 111.784 113.168 2
2 23 22 488.64 141.508 2
-2 22 23 450.207 131.809 2
3 23 22 589.949 176.969 2
-3 22 23 646.355 190.586 2
4 23 22 743.516 179.462 2
-4 22 23 756.633 181.287 2
-5 22 23 896.158 209.367 2
-6 22 23 320.803 166.156 2
-7 22 23 732.281 207.004 2
-8 22 23 566.007 183.568 2
-9 22 23 222.516 151.205 2
-10 22 23 1345.56 255.975 2
-11 22 23 1848.96 314.445 2
-12 22 23 121.29 102.205 2
-13 22 23 407.593 146.934 2
-22 23 13 195.721 109.983 2
-23 13 22 451.068 171.724 2
-14 22 23 957.665 233.453 2
-22 23 14 773.466 180.521 2
-23 14 22 768 194.102 2
-15 22 23 502.179 162.797 2
-22 23 15 595.555 164.214 2
-23 15 22 759.276 191.735 2
-16 22 23 111.494 86.2917 2
-22 23 16 125.661 115.935 2
-23 16 22 -109.114 108.682 2
-17 22 23 140.162 82.8728 2
-22 23 17 74.179 65.6757 2
-23 17 22 269.275 100.12 2
-23 18 22 1307.89 216.243 2
-18 22 23 1023.84 224.909 2
-22 23 18 932.14 197.58 2
-23 19 22 187.044 105.636 2
-19 22 23 184.72 124.735 2
-22 23 19 379.769 133.544 2
-20 22 23 79.2484 94.3072 2
-22 23 20 -48.4042 66.8802 2
-23 20 22 -35.7625 58.8442 2
-21 22 23 50.5572 54.1845 2
-23 21 22 -0.37761 56.3285 2
-22 23 22 12.365 53.6099 2
-23 22 22 82.8076 67.5298 2
-22 22 23 50.3734 84.7403 2
0 23 23 40.961 94.5883 2
1 23 23 -7.96315 76.4305 2
-1 23 23 87.6559 102.929 2
-2 23 23 673.206 192.138 2
2 23 23 574.559 160.462 2
3 23 23 118.379 101.564 2
-3 23 23 58.0198 78.3184 2
4 23 23 135.564 101.29 2
-4 23 23 132.193 91.7572 2
-5 23 23 430.571 168.415 2
-6 23 23 2329.25 329.841 2
-7 23 23 334.271 176.122 2
-8 23 23 162.653 106.587 2
-9 23 23 197.862 121.329 2
-10 23 23 1596.25 277.889 2
-11 23 23 397.57 175.375 2
-23 23 11 102.129 122.66 2
-12 23 23 1633.03 275.329 2
-23 23 12 1426.21 243.069 2
-23 12 23 1423.6 234.722 2
-13 23 23 2932.05 364.094 2
-23 23 13 3009.98 331.741 2
-14 23 23 193.678 85.5868 2
-23 23 14 -14.0096 85.7475 2
-23 14 23 -18.2947 73.3969 2
-23 23 15 173.905 108.133 2
-23 15 23 -3.43049 62.1691 2
-16 23 23 98.8978 111.158 2
-23 16 23 60.9373 69.2459 2
-17 23 23 1319.67 255.316 2
-23 23 17 1164.05 201.854 2
-23 17 23 674.415 178.105 2
-18 23 23 -157.121 112.783 2
-23 23 18 -205.821 102.159 2
-23 18 23 1.4346 92.9876 2
-23 23 19 -36.5034 77.5737 2
-19 23 23 107.635 119.142 2
-23 19 23 -27.6826 66.1036 2
-23 23 20 653.835 152.707 2
-20 23 23 683.814 160.949 2
-23 20 23 178.45 146.232 2
-23 23 21 637.351 145.914 2
-21 23 23 772.186 162.816 2
0 24 0 2776.01 472.444 1
0 0 24 2547.42 337.695 2
1 24 0 1803.81 370.625 1
1 0 24 2356.33 312.993 2
-1 0 24 2273.65 310.795 2
0 24 -1 2131.42 414.626 1
0 -1 24 2113.45 296.673 2
0 1 24 1891.27 286.515 2
-1 24 -1 910.395 296.116 1
1 24 1 507.378 258.24 1
1 -1 24 352.375 140.436 2
-1 -1 24 522.839 174.507 2
1 1 24 347.764 104.422 2
-1 1 24 563.629 123.849 2
1 24 -1 769.75 252.957 1
-1 -2 24 3968.92 414.467 2
1 2 24 3380.42 371.722 2
-2 1 24 3634.96 383.998 2
2 24 1 3213.79 495.392 1
2 -1 24 3645.02 383.881 2
1 24 -2 3153.59 494.6 1
2 24 0 156.273 158.724 1
0 24 -2 487.4 180.891 1
-2 0 24 30.5539 118.986 2
0 -2 24 156.547 113.734 2
2 0 24 168.694 86.5704 2
0 2 24 124.492 101.335 2
2 24 -1 2797.82 473.144 1
1 -2 24 3067.37 358.674 2
-2 -1 24 3518.86 380.256 2
2 1 24 2692.72 327.893 2
-1 2 24 3596.82 382.151 2
-1 24 -2 2989.8 481.278 1
-2 24 -2 874.199 249.716 1
2 2 24 1552.47 251.897 2
2 24 2 783.76 252.48 1
2 -2 24 1314.84 244.569 2
2 24 -2 1266.26 327.344 1
-2 -2 24 1652.94 276.897 2
-2 2 24 1444.06 257.966 2
2 24 -3 246.407 207.176 1
3 -2 24 146.116 77.894 2
-2 -3 24 214.856 118.742 2
3 24 2 160.083 103.325 1
2 3 24 309.204 148.277 2
-3 2 24 267.591 143.861 2
3 24 1 -128.444 170.57 1
1 24 -3 85.1646 154.246 1
-1 -3 24 107.217 108.647 2
3 -1 24 -198.754 116.461 2
-3 1 24 -53.3943 88.9798 2
1 3 24 82.7931 110.986 2
0 24 -3 1184.88 306.103 1
3 24 0 1165.41 315.692 1
0 -3 24 1528.43 248.68 2
3 0 24 1234.53 211.543 2
-3 0 24 1582.43 259.992 2
0 3 24 1360.76 262.323 2
-1 24 -3 44.7094 117.359 1
3 24 -1 336.665 209.572 1
1 -3 24 469.58 161.83 2
3 1 24 161.261 119.498 2
-3 -1 24 176.262 100.346 2
-1 3 24 244.453 136.62 2
-2 24 -3 73.0119 131.127 1
2 -3 24 340.66 164.641 2
-3 -2 24 -62.0252 83.1246 2
3 2 24 118.56 82.3804 2
-2 3 24 279.846 141.47 2
-3 24 -3 987.578 262.823 1
3 -3 24 919.07 214.036 2
3 24 -3 1091.19 300.945 1
-3 -3 24 925.445 207.061 2
3 3 24 1089.55 227.962 2
3 24 3 1011.1 273.415 1
-3 3 24 1060.63 224.566 2
3 4 24 1362.43 218.551 2
4 -3 24 1863.41 291.59 2
-3 -4 24 1943.7 300.805 2
3 24 -4 1411.14 320.384 1
-4 3 24 1962.45 287.919 2
4 24 2 224.676 138.176 1
2 24 -4 405.527 194.101 1
4 -2 24 453.284 147.705 2
-2 -4 24 593.432 191.182 2
2 4 24 218.992 118.015 2
-4 2 24 392.565 123.852 2
1 24 -4 2607.71 468.964 1
-1 -4 24 2833.75 362.436 2
-4 1 24 2692.49 330.031 2
1 4 24 2480.36 320.395 2
4 -1 24 2408.39 330.165 2
4 24 1 2250.11 435.648 1
0 24 -4 328.953 192.73 1
0 -4 24 274.077 112.709 2
4 0 24 380.96 161.633 2
4 24 0 407.463 208.77 1
-4 0 24 205.233 93.305 2
0 4 24 425.857 140.803 2
-1 24 -4 2537.11 442.664 1
1 -4 24 2708.6 346.928 2
4 1 24 2263.22 308.844 2
-4 -1 24 2971.56 358.891 2
-1 4 24 2928.9 369.291 2
4 24 -1 2472.98 472.453 1
4 24 -2 380.285 179.542 1
4 2 24 279.71 147.961 2
2 -4 24 412.969 140.518 2
-4 -2 24 354.404 140.197 2
-2 24 -4 383.773 162.748 1
-2 4 24 380.227 141.985 2
3 -4 24 1716.78 288.943 2
-4 -3 24 1942.52 293.948 2
4 3 24 1263.46 223.99 2
4 24 -3 1603.42 375.552 1
-3 24 -4 1548.74 332.331 1
-3 4 24 1495.63 268.918 2
-4 4 24 -125.867 137.145 2
4 -4 24 59.544 67.6408 2
4 24 -4 220.482 152.794 1
-4 -4 24 225.116 123.679 2
-4 24 -4 53.3537 159.146 1
4 4 24 84.6507 139.149 2
4 24 -5 -101.356 106.999 1
5 -4 24 46.7116 94.1182 2
-4 -5 24 171.106 115.308 2
4 5 24 195.639 130.481 2
5 -3 24 147.641 109.374 2
-3 -5 24 112.424 102.608 2
3 24 -5 -118.962 204.464 1
3 5 24 -28.449 75.1373 2
-5 3 24 101.41 81.6342 2
2 24 -5 415.774 227.745 1
5 24 2 470.037 196.262 1
-2 -5 24 389.206 146.339 2
-5 2 24 438.287 174.519 2
2 5 24 371.961 147.678 2
5 -2 24 259.147 96.7028 2
-1 -5 24 568.795 169.057 2
1 24 -5 397.25 174.465 1
5 24 1 289.371 147.912 1
5 -1 24 557.025 158.07 2
-5 1 24 559.553 153.764 2
1 5 24 579.255 151.627 2
0 24 -5 999.699 264.161 1
5 24 0 1085.65 326.388 1
5 0 24 708.681 161.618 2
0 -5 24 1242.99 245.606 2
-5 0 24 1036.88 226.485 2
0 5 24 1009.82 214.949 2
-1 5 24 958.975 214.551 2
1 -5 24 685.523 180.754 2
5 24 -1 443.896 131.627 1
5 1 24 714.25 192.809 2
-5 -1 24 700.198 173.728 2
-1 24 -5 847.301 287.695 1
-2 5 24 416.861 159.415 2
5 24 -2 317.388 203.171 1
2 -5 24 458.45 140.236 2
5 2 24 355.905 117.011 2
-5 -2 24 355.232 126.084 2
-2 24 -5 370.147 181.474 1
5 24 -3 153.718 152.049 1
-3 5 24 113.639 94.9545 2
3 -5 24 -81.4714 77.1334 2
-5 -3 24 170.995 140.779 2
3 5 -24 -135.628 92.9014 1
-3 24 -5 116.633 83.6288 1
5 3 24 -58.8999 102.679 2
-4 5 24 104.268 73.6632 2
-4 24 -5 254.511 199.81 1
4 -5 24 361.69 159.261 2
-5 -4 24 -27.1841 100.9 2
5 24 -4 212.639 187.052 1
5 4 24 -14.7296 92.2617 2
-5 5 24 1837.69 268.179 2
5 -5 24 1787.41 286.104 2
5 24 -5 1864.84 410.614 1
-5 24 -5 1335.96 298.226 1
-5 -5 24 1968.34 301.341 2
5 5 24 1563.76 245.362 2
-6 5 24 714.224 164.949 2
5 24 -6 303.465 180.73 1
6 -5 24 591.473 181.381 2
-5 -6 24 850.972 227.436 2
5 6 24 665.34 177.32 2
-6 4 24 646.526 173.002 2
6 -4 24 532.248 158.506 2
4 24 -6 466.168 177.263 1
-4 -6 24 497.489 169.958 2
4 6 24 577.47 144.08 2
3 24 -6 1093.11 275.214 1
6 -3 24 862.274 203.507 2
-3 -6 24 1236.18 248.044 2
3 6 24 900.032 199.214 2
-6 3 24 953.337 218.264 2
2 24 -6 189.156 99.1182 1
6 24 2 7.12646 122.884 1
6 -2 24 90.1026 83.2909 2
-2 -6 24 311.443 145.691 2
-6 2 24 153.524 136.42 2
2 6 24 91.678 124.402 2
-6 1 24 2050.23 305.451 2
6 24 1 1970.44 408.688 1
1 6 24 2119.86 317.002 2
6 -1 24 1884.52 285.672 2
-1 -6 24 2141.86 308.862 2
1 24 -6 1877.4 369.027 1
0 6 24 324.793 160.177 2
6 24 0 611.725 263.694 1
0 -6 24 365.178 152.782 2
6 0 24 368.7 139.904 2
-6 0 24 327.64 149.442 2
0 24 -6 352.688 189.933 1
-1 6 24 1823.8 277.623 2
-6 -1 24 2306.94 317.689 2
1 -6 24 2237.99 313.953 2
6 1 24 1892.91 274.871 2
-1 24 -6 2004.84 428.733 1
6 24 -1 2028.62 423.114 1
-2 6 24 63.1581 77.9646 2
6 24 -2 50.0673 97.8929 1
6 2 24 -11.1636 93.382 2
-2 24 -6 424.327 181.114 1
-6 -2 24 251.295 221.003 2
2 -6 24 85.7166 104.201 2
-3 6 24 802.36 192.832 2
6 24 -3 600.036 252.671 1
3 -6 24 742.702 176.488 2
-3 24 -6 517.043 188.487 1
-6 -3 24 927.703 204.833 2
6 3 24 867.994 200.005 2
3 6 -24 753.568 285.562 1
-4 6 24 375.454 134.951 2
4 -6 24 466.126 168.687 2
-4 24 -6 437.08 205.952 1
-6 -4 24 413.458 143.258 2
6 4 24 356.996 67.0174 2
4 6 -24 472.673 218.751 1
6 24 -4 776.585 274.945 1
-5 6 24 701.528 192.38 2
5 -6 24 524.806 176.526 2
-5 24 -6 651.197 273.716 1
-6 -5 24 577.268 185.251 2
6 24 -5 780.329 274.546 1
6 5 24 551.548 154.526 2
-6 6 24 96.6674 103.979 2
6 -6 24 -131.556 123.257 2
-6 24 -6 25.2901 139.557 1
6 24 -6 -135.309 163.903 1
-6 -6 24 0.45063 98.0552 2
6 6 24 -33.7098 105.9 2
-7 6 24 391.742 144.205 2
7 -6 24 376.66 141.328 2
6 24 -7 599.483 275.662 1
-6 -7 24 295.556 96.8121 2
6 7 24 523.319 164.927 2
-7 5 24 87.631 71.5683 2
5 24 -7 100.904 106.383 1
7 -5 24 110.327 78.032 2
-5 -7 24 231.96 149.016 2
5 7 24 59.9321 68.2673 2
-7 4 24 238.823 124.902 2
4 24 -7 75.2864 125.308 1
-4 -7 24 442.951 164.381 2
7 -4 24 662.728 171.914 2
4 7 24 351.797 140.99 2
3 24 -7 1519.23 407.349 1
-3 -7 24 1288.28 259.733 2
7 -3 24 505.754 157.838 2
-7 3 24 970.895 207.367 2
3 7 24 627.408 183.875 2
2 7 24 926.005 199.355 2
7 -2 24 750.267 183.504 2
-2 -7 24 994.897 218.942 2
-7 2 24 942.305 215.598 2
2 24 -7 370.896 142.265 1
1 7 24 205.678 141.614 2
-1 -7 24 341.036 132.511 2
7 -1 24 244.148 123.195 2
7 24 1 6.54322 127.97 1
1 24 -7 286.903 199.206 1
-7 1 24 57.8858 63.6294 2
0 7 24 231.935 98.612 2
0 -7 24 261.188 139.27 2
7 0 24 333.276 117.847 2
7 24 0 238.431 191.701 1
0 24 -7 358.814 201.434 1
-7 0 24 2.798 111.244 2
-1 7 24 -23.0011 77.7939 2
7 24 -1 180.304 148.692 1
1 -7 24 153.642 103.554 2
7 1 24 110.881 117.893 2
-1 24 -7 77.8946 84.8538 1
-7 -1 24 171.793 139.544 2
-2 7 24 895.887 224.16 2
2 -7 24 1035.58 234.385 2
-2 24 -7 908.429 307.246 1
7 2 24 922.651 191.924 2
2 7 -24 797.424 267.164 1
-7 -2 24 1049.08 233.528 2
7 24 -2 608.852 250.583 1
-3 7 24 1287.53 230.097 2
7 24 -3 1042.47 335.665 1
-3 24 -7 797.237 289.295 1
3 -7 24 969.197 229.848 2
-7 -3 24 1054.53 233.899 2
3 7 -24 1088.68 301.326 1
-4 7 24 432.078 136.807 2
7 24 -4 305.639 195.147 1
-4 24 -7 545.132 211.71 1
4 -7 24 279.205 139.498 2
-7 -4 24 471.928 161.172 2
4 7 -24 468.463 221.736 1
5 7 -24 46.8558 166.108 1
-5 7 24 70.5979 64.8659 2
5 -7 24 40.3121 78.2481 2
-5 24 -7 254.265 173.069 1
-7 -5 24 -66.6829 96.0083 2
7 24 -5 -133.749 155.634 1
-6 7 24 744.674 196.074 2
-6 24 -7 644.244 227.474 1
-7 -6 24 398.932 132.815 2
6 -7 24 439.989 145.497 2
7 24 -6 711.324 269.639 1
-7 7 24 -162.209 128.423 2
7 -7 24 24.4071 81.6548 2
-7 -7 24 206.544 116.723 2
7 24 -7 178.543 142.103 1
-8 7 24 1812.99 301.633 2
-7 -8 24 1964.76 306.296 2
7 24 -8 1658.67 409.991 1
8 -7 24 1594.77 264.74 2
-8 6 24 458.163 143.313 2
-6 -8 24 293.516 110.942 2
8 -6 24 260.244 115.754 2
-8 5 24 375.87 137.653 2
5 24 -8 653.828 276.624 1
8 -5 24 259.979 106.433 2
-5 -8 24 329.463 153.059 2
5 8 24 276.443 107.271 2
-8 4 24 673.085 200.129 2
4 24 -8 799.584 303.543 1
8 -4 24 501.866 164.482 2
-4 -8 24 528.211 131.448 2
4 8 24 368.965 102.81 2
3 24 -8 1037.6 345.335 1
3 8 24 721.547 190.414 2
8 -3 24 905.582 214.306 2
-3 -8 24 1031.77 252.26 2
-8 3 24 751.574 177.564 2
2 8 24 386.949 159.518 2
-2 -8 24 583.773 177.352 2
8 -2 24 244.068 116.649 2
2 24 -8 494.851 229.703 1
-8 2 24 403.752 139.479 2
1 8 24 478.905 154.578 2
-1 -8 24 704.666 170.49 2
8 24 1 928.8 303.728 1
1 24 -8 556.566 224.164 1
-8 1 24 443.774 152.407 2
0 8 24 384.457 134.903 2
8 24 0 517.054 237.939 1
0 -8 24 691.138 195.293 2
-8 0 24 753.822 210.761 2
0 24 -8 115.821 117.341 1
-1 8 24 518.771 159.24 2
1 -8 24 662.438 185.785 2
8 24 -1 616.098 203.863 1
-1 24 -8 660.507 270.057 1
-8 -1 24 622.357 148.61 2
8 24 -2 858.685 310.486 1
-2 8 24 467.521 159.157 2
2 -8 24 335.692 163.069 2
-2 24 -8 340.707 216.058 1
2 8 -24 393.323 267.193 1
-8 -2 24 537.635 200.555 2
-3 8 24 760.381 207.321 2
3 -8 24 723.391 195.186 2
-8 -3 24 675.426 171.421 2
8 24 -3 837.221 260.976 1
-3 24 -8 916.908 263.826 1
3 8 -24 208.342 126.349 1
-4 8 24 456.189 150.019 2
4 -8 24 411.805 128.036 2
-4 24 -8 465.17 233.905 1
8 24 -4 168.059 165.839 1
-8 -4 24 468.87 121.383 2
4 8 -24 310.469 185.687 1
5 8 -24 263.36 156.449 1
-5 8 24 455.029 166.794 2
8 24 -5 726.558 332.605 1
5 -8 24 556.005 152.804 2
-5 24 -8 130.347 165.161 1
-8 -5 24 475.979 156.946 2
8 24 -6 692.687 280.962 1
-6 8 24 461.248 149.472 2
-6 24 -8 459.107 197.102 1
-8 -6 24 507.743 172.15 2
6 -8 24 392.972 168.616 2
-7 8 24 1992.66 307.172 2
7 -8 24 1660.1 267.991 2
-8 -7 24 1855.07 286.846 2
-7 24 -8 1435 328.41 1
8 24 -7 1303.32 374.139 1
-8 8 24 10.3241 95.3964 2
-8 -8 24 101.747 106.777 2
8 24 -8 323.43 168.973 1
-9 8 24 654.94 192.399 2
-8 -9 24 817.12 209.212 2
8 24 -9 593.461 239.999 1
-9 7 24 720.699 182.797 2
-7 -9 24 786.226 208.995 2
7 24 -9 756.245 295.755 1
-9 6 24 998.442 245.271 2
6 24 -9 943.628 344.609 1
-6 -9 24 681.106 195.214 2
9 -6 24 720.46 215.15 2
-9 5 24 286.785 144.121 2
5 24 -9 361.109 252.369 1
9 -5 24 280.424 125.486 2
-5 -9 24 379.756 156.154 2
5 9 24 255.246 100.312 2
-9 4 24 649.67 164.289 2
4 9 24 747.849 181.676 2
4 24 -9 443.844 260.926 1
9 -4 24 512.631 170.448 2
-4 -9 24 840.425 221.505 2
3 9 24 317.956 125.353 2
-3 -9 24 686.023 186.77 2
3 24 -9 327.628 187.515 1
-9 3 24 332.798 121.208 2
2 9 24 644.05 186.628 2
-2 -9 24 681.002 183.25 2
2 24 -9 1018.81 328.289 1
-9 2 24 845.489 208.192 2
1 9 24 425.732 144.219 2
-1 -9 24 536.283 184.415 2
1 24 -9 354.205 162.422 1
-9 1 24 568.244 174.638 2
0 9 24 1039.33 204.924 2
9 24 0 1065.09 350.093 1
0 -9 24 1246.93 253.881 2
0 24 -9 1107.98 336.033 1
-9 0 24 1179.63 246.001 2
9 24 -1 358.979 189.491 1
-1 9 24 467.082 145.43 2
1 -9 24 743.683 192.535 2
-1 24 -9 402.35 228.024 1
1 9 -24 227.578 171.321 1
-9 -1 24 361.24 137.029 2
-2 9 24 652.154 167.029 2
2 -9 24 845.509 204.923 2
9 24 -2 588.198 216.191 1
-2 24 -9 681.129 234.346 1
-9 -2 24 834.101 219.347 2
2 9 -24 790.259 288.088 1
9 24 -3 415.629 210.662 1
-3 9 24 323.473 145.431 2
3 9 -24 285.808 209.585 1
3 -9 24 367.443 161.539 2
-3 24 -9 534.487 267.711 1
-9 -3 24 401.698 148.674 2
-4 9 24 952.49 208.706 2
4 -9 24 943.144 216.955 2
-4 24 -9 712.925 242.192 1
-9 -4 24 1102.28 230.971 2
9 24 -4 937.143 354.834 1
4 9 -24 620.881 213.119 1
5 9 -24 347.289 160.253 1
-5 9 24 397.85 134.023 2
-5 24 -9 249.933 163.645 1
9 24 -5 475.3 254.716 1
-9 -5 24 361.97 156.108 2
5 -9 24 364.091 174.185 2
6 9 -24 793.761 257.67 1
-6 9 24 790.869 195.247 2
9 24 -6 822.805 298.695 1
-6 24 -9 817.503 281.285 1
6 -9 24 909.995 202.935 2
-9 -6 24 877.339 229.47 2
9 24 -7 542.935 239.751 1
-7 9 24 863.463 225.189 2
-7 24 -9 586.932 249.545 1
-9 -7 24 923.123 214.437 2
-8 9 24 577.578 149.318 2
-8 24 -9 676.414 240.586 1
-9 -8 24 646.479 175.931 2
9 24 -8 689.361 259.757 1
-9 9 24 1497.77 268.423 2
-9 -9 24 1625.62 272.412 2
9 24 -9 1324.78 375.258 1
-10 9 24 2178.31 325.772 2
-9 -10 24 2034.45 314.148 2
9 24 -10 2106.34 459.925 1
-8 -10 24 5227.37 501.868 2
-10 8 24 4948.96 491.72 2
8 24 -10 4761.1 689.833 1
-10 7 24 -8.8121 90.4387 2
7 24 -10 -85.7623 179.528 1
-7 -10 24 237.957 147.83 2
-10 6 24 322.552 107.653 2
6 24 -10 78.544 130.668 1
-6 -10 24 294.347 131.944 2
5 10 24 1234.93 237.11 2
-10 5 24 1231.98 242.946 2
5 24 -10 873.578 327.325 1
-5 -10 24 1424.07 252.533 2
4 10 24 -71.6651 67.3198 2
-4 -10 24 11.2723 88.2674 2
4 24 -10 6.83159 205.859 1
-10 4 24 20.0551 98.784 2
3 10 24 -28.2007 84.9629 2
-3 -10 24 24.8739 70.2767 2
3 24 -10 -15.0578 95.6444 1
-10 3 24 142.346 134.734 2
2 10 24 173.733 146.799 2
-2 -10 24 570.605 198.027 2
2 24 -10 385.234 164.043 1
-10 2 24 361.573 115.963 2
1 10 24 34.0664 61.8199 2
-1 -10 24 -30.6283 81.477 2
1 24 -10 -186.186 136.783 1
-10 1 24 -45.9964 105.052 2
0 10 24 -36.0671 119.471 2
0 24 -10 -17.367 82.6896 1
0 -10 24 6.76196 97.8374 2
0 10 -24 243.569 192.013 1
-10 0 24 86.2045 124.52 2
-1 10 24 50.0668 75.6084 2
1 -10 24 157.049 132.95 2
-1 24 -10 -178.786 191.488 1
1 10 -24 134.147 172.763 1
-10 -1 24 49.8258 112.771 2
10 24 -1 -48.8345 164.04 1
-2 10 24 808.341 218.58 2
2 -10 24 302.304 129.537 2
-2 24 -10 489.546 237.113 1
-10 -2 24 650.4 190.255 2
2 10 -24 271.488 167.076 1
10 24 -2 512.128 203.489 1
-3 10 24 64.8459 133.339 2
3 -10 24 168.687 134.691 2
-10 -3 24 -24.1489 77.0762 2
10 24 -3 -134.902 189.669 1
-3 24 -10 211.172 138.43 1
3 10 -24 -98.3862 208.879 1
4 10 -24 -2.84374 101.528 1
10 24 -4 -99.334 190.166 1
-4 10 24 -54.678 128.136 2
4 -10 24 184.447 118.633 2
-4 24 -10 70.7286 110.157 1
-10 -4 24 186.201 134.073 2
5 10 -24 760.404 243.842 1
-5 10 24 1448.4 259.891 2
-5 24 -10 1295.79 334.979 1
5 -10 24 1454.96 279.41 2
-10 -5 24 1453.24 269.358 2
10 24 -5 1078.25 338.046 1
6 10 -24 185.775 184.222 1
-6 10 24 301.592 155.099 2
-6 24 -10 491.693 214.673 1
-10 -6 24 407.908 159.713 2
10 24 -6 -79.4781 176.484 1
-7 10 24 202.764 146.417 2
-7 24 -10 74.9035 199.697 1
7 10 -24 329.547 226.481 1
-10 -7 24 243.545 163.007 2
10 24 -7 87.034 146.844 1
10 24 -8 4934.16 726.464 1
-8 10 24 5740.76 520.217 2
-10 -8 24 4983.31 475.809 2
-8 24 -10 4286.15 635.639 1
10 24 -9 2131.63 456.128 1
-10 -9 24 2102.78 320.366 2
-9 10 24 2411.52 363.772 2
-10 10 24 213.496 150.463 2
-10 -10 24 -85.6312 81.2875 2
10 24 -10 -57.0266 117.29 1
-10 -11 24 3159.26 391.694 2
-11 10 24 3215.02 404.491 2
10 24 -11 2585.61 519.718 1
-9 -11 24 3004.65 380.576 2
9 24 -11 2301.24 524.905 1
-11 9 24 2950.5 375.217 2
-11 8 24 303.071 126.927 2
-8 -11 24 184.978 116.327 2
8 24 -11 284.292 182.943 1
-11 7 24 689.752 197.279 2
7 24 -11 567.295 265.587 1
-7 -11 24 547.047 181.996 2
-11 6 24 1962.27 322.859 2
6 24 -11 1730.67 400.282 1
-6 -11 24 1859.87 298.569 2
-11 5 24 324.863 181.631 2
5 24 -11 94.3597 138.063 1
5 11 24 166.292 94.8733 2
-5 -11 24 276.245 151.475 2
4 11 24 364.034 125.173 2
-4 -11 24 382.274 151.999 2
4 24 -11 194.022 166.844 1
-11 4 24 559.634 171.166 2
3 11 24 720.563 161.896 2
-3 -11 24 820.05 201.288 2
3 24 -11 932.945 320.479 1
-11 3 24 736.771 200.404 2
2 11 24 71.4984 114.555 2
-2 -11 24 551.883 185.516 2
2 24 -11 175.349 142.757 1
-11 2 24 385.658 162.313 2
1 11 24 213.622 142.203 2
-1 -11 24 534.631 172.017 2
1 24 -11 416.274 171.596 1
-11 1 24 526.727 174.38 2
0 11 24 1052.93 234.577 2
0 24 -11 1436.13 384.144 1
0 -11 24 1372.58 270.986 2
0 11 -24 1462.08 370.092 1
-11 0 24 1306.91 237.12 2
11 24 -1 352.375 173.976 1
-1 11 24 348.074 166.105 2
-1 24 -11 942.612 281.309 1
1 -11 24 791.852 206.279 2
-11 -1 24 534.746 190.509 2
1 11 -24 561.477 330.418 1
-2 11 24 194.347 139.111 2
2 -11 24 490.637 160.838 2
-2 24 -11 68.2485 156.089 1
-11 -2 24 155.599 88.2388 2
11 24 -2 310.634 226.678 1
2 11 -24 151.892 133.366 1
-3 11 24 579.64 194.139 2
3 -11 24 636.091 175.188 2
-3 24 -11 563.439 230.428 1
-11 -3 24 833.589 206.74 2
3 11 -24 641.085 257.928 1
11 24 -3 862.112 313.812 1
4 11 -24 260.817 158.526 1
-4 11 24 302.15 186.359 2
-4 24 -11 196.078 107.244 1
11 24 -4 662.283 297.97 1
-11 -4 24 655.952 185.326 2
5 11 -24 372.929 208.273 1
-5 11 24 293.028 113.79 2
-5 24 -11 -23.0859 88.2334 1
-11 -5 24 136.326 127.685 2
6 11 -24 1848.19 434.477 1
-6 11 24 2079.91 324.965 2
-6 24 -11 1798.32 411.038 1
-11 -6 24 2118.41 315.166 2
11 24 -6 2350.29 511.824 1
-7 24 -11 224.497 134.849 1
-7 11 24 880.797 238.537 2
7 11 -24 525.031 231.622 1
-11 -7 24 705.632 192.897 2
11 24 -7 594.169 230.26 1
-8 24 -11 335.878 189.871 1
-8 11 24 389.634 157.677 2
-11 -8 24 347.962 142.767 2
11 24 -8 260.158 197.334 1
-9 24 -11 2231.74 466.314 1
-11 -9 24 3110.31 394.425 2
-9 11 24 3295.22 398.309 2
11 24 -9 2909.65 560.081 1
11 24 -10 3470.47 627.46 1
-11 -10 24 3306.48 396.06 2
-10 11 24 3453.46 412.186 2
-11 11 24 631.425 180.286 2
-11 -11 24 800.354 202.416 2
-12 11 24 417.728 167.013 2
-11 -12 24 2467.79 365.037 2
-10 -12 24 4438.52 457.231 2
-12 10 24 5111.43 503.164 2
-12 9 24 396.921 118.653 2
-9 -12 24 437.667 136.484 2
9 24 -12 360.822 217.121 1
-12 8 24 186.819 120.902 2
-8 -12 24 47.2003 100.322 2
8 24 -12 -137.987 186.94 1
-12 7 24 425.36 149.544 2
7 24 -12 531.026 229.029 1
-7 -12 24 410.233 157.918 2
6 24 -12 2045.74 454.37 1
-6 -12 24 2181.59 330.945 2
-12 6 24 2742.24 369.015 2
-12 5 24 514.117 167.62 2
5 12 24 115.254 105.88 2
-5 -12 24 447.596 154.105 2
5 24 -12 382.692 251.314 1
4 12 24 -20.8107 77.8514 2
-4 -12 24 264.645 159.013 2
4 24 -12 470.506 293.967 1
-12 4 24 206.803 170.127 2
3 12 24 211.307 116.283 2
-3 -12 24 128.153 92.8413 2
3 24 -12 176.304 122.999 1
-12 3 24 266.987 119.547 2
2 12 24 607.703 200.766 2
-2 -12 24 761.615 193.258 2
2 24 -12 315.169 194.784 1
-12 2 24 530.956 165.589 2
1 12 24 103.717 142.074 2
-1 -12 24 454.923 164.203 2
1 24 -12 28.9077 157.169 1
-1 12 -24 192.738 190.176 1
-12 1 24 284.474 128.201 2
0 12 24 370.049 165.026 2
0 24 -12 851.582 274.265 1
0 -12 24 935.803 202.32 2
0 12 -24 780.414 350.81 1
-12 0 24 961.357 205.695 2
-1 12 24 94.4152 115.836 2
1 -12 24 211.322 113.798 2
-1 24 -12 -72.4848 81.7682 1
-12 -1 24 123.578 121.523 2
1 12 -24 -27.0639 160.47 1
-2 12 24 731.863 215.157 2
-2 24 -12 778.455 319.704 1
-12 -2 24 666.077 184.168 2
12 24 -2 586.996 237.861 1
2 12 -24 648.745 255.899 1
3 12 -24 423.313 233.474 1
-3 12 24 163.99 155.039 2
-3 24 -12 215.111 191.769 1
-12 -3 24 233.242 116.435 2
12 24 -3 215.217 173.494 1
4 12 -24 41.0606 109.099 1
12 24 -4 88.5506 114.779 1
-4 12 24 201.274 136.403 2
-4 24 -12 50.9504 95.4372 1
-12 -4 24 92.6712 89.5531 2
5 12 -24 18.3815 142.358 1
-5 24 -12 470.468 214.654 1
-5 12 24 525.853 190.458 2
-12 -5 24 248.315 138.083 2
12 24 -5 442.34 195.907 1
-6 24 -12 1767.18 414.504 1
6 12 -24 1329.88 373.474 1
12 24 -6 2150.63 467.629 1
-6 12 24 2425.06 347.421 2
-12 -6 24 2157.19 321.874 2
12 24 -7 749.791 292.763 1
-7 24 -12 292.47 169.581 1
-7 12 24 597.801 182.01 2
7 12 -24 329.904 187.764 1
-12 -7 24 320.845 139.29 2
-8 24 -12 67.4496 73.8164 1
-8 12 24 -13.7731 125.267 2
-12 -8 24 288.651 147.077 2
8 12 -24 358.061 223.483 1
12 24 -8 225.28 239.672 1
-9 24 -12 30.444 128.064 1
-9 12 24 302.264 133.629 2
-12 -9 24 572.09 165.255 2
12 24 -9 447.937 257.857 1
-10 12 24 5190.05 520.354 2
-12 -10 24 4414.67 467.442 2
-11 12 24 199.865 137.154 2
-12 -11 24 86.6223 119.177 2
-12 12 24 216.825 126.858 2
-12 -12 24 111.843 101.95 2
-13 12 24 3250.16 398.223 2
-13 11 24 871.194 221.692 2
-13 10 24 181.76 108.747 2
-10 -13 24 422.236 172.581 2
-13 9 24 782.157 211.009 2
-9 -13 24 940.717 220.544 2
-13 8 24 4840.75 490.468 2
-8 -13 24 4995.73 489.649 2
8 24 -13 3937.15 656.995 1
-13 7 24 353.715 178.405 2
7 24 -13 276.299 154.644 1
-7 -13 24 21.9161 98.23 2
-13 6 24 254.879 144.843 2
6 24 -13 -104.614 248.552 1
-6 -13 24 272.116 145.157 2
-13 5 24 2299.04 338.943 2
5 13 24 2119.62 289.323 2
-5 -13 24 2316.03 345.164 2
5 24 -13 2318.67 531.24 1
4 13 24 184.407 139.748 2
-4 -13 24 176.056 100.72 2
4 24 -13 44.0304 126.987 1
-13 4 24 327.82 149.787 2
3 13 24 159.559 127.734 2
-3 -13 24 217.019 139.362 2
3 24 -13 261.623 169.081 1
-13 3 24 75.7172 87.3354 2
2 13 24 847.213 219.273 2
-2 -13 24 712.925 187.932 2
2 24 -13 615.788 273.631 1
-2 13 -24 908.715 314.759 1
-13 2 24 1251.01 249.343 2
1 13 24 490.124 199.205 2
1 24 -13 848.411 315.607 1
-1 13 -24 275.165 148.016 1
-13 1 24 742.942 183.368 2
0 13 24 340.313 186.83 2
-13 0 24 464.796 177.732 2
0 13 -24 684.868 298.937 1
0 24 -13 442.351 240.158 1
-1 13 24 359.172 180.113 2
-1 24 -13 761.417 217.654 1
-13 -1 24 807.65 202.355 2
1 13 -24 460.221 252.46 1
-2 13 24 787.681 250.3 2
-2 24 -13 382.617 192.389 1
-13 -2 24 1153.87 243.219 2
2 13 -24 740.388 277.851 1
3 13 -24 251.558 170.807 1
-3 13 24 14.3935 99.0345 2
-3 24 -13 154.817 108.58 1
-13 -3 24 202.093 128.379 2
4 13 -24 -122.83 235.722 1
-4 24 -13 22.9213 157.076 1
-4 13 24 197.128 137.708 2
13 24 -4 11.5325 131.305 1
-13 -4 24 163.491 82.446 2
5 13 -24 2573.58 526.743 1
-5 24 -13 2135.11 448.044 1
-5 13 24 2862.08 382.187 2
-13 -5 24 1965.47 327.05 2
13 24 -5 2134.49 481.208 1
-6 24 -13 -188.212 200.703 1
-6 13 24 78.8479 89.1172 2
-13 -6 24 131.216 113.637 2
6 13 -24 152.449 106.679 1
13 24 -6 -202.3 257.119 1
-7 24 -13 22.1903 123.054 1
-7 13 24 239.211 137.003 2
7 13 -24 45.3308 151.474 1
13 24 -7 139.321 123.656 1
-13 -7 24 -0.90448 80.9214 2
8 13 -24 3467.21 600.101 1
-13 -8 24 4276.24 448.724 2
-8 13 24 4835.55 497.865 2
13 24 -8 4151.31 670.711 1
-8 24 -13 3744.91 613.011 1
-9 24 -13 427.538 270.083 1
-9 13 24 755.989 263.13 2
-13 -9 24 659.318 180.552 2
-10 13 24 305.345 157.743 2
-13 -10 24 398.142 382.183 2
-11 13 24 877.592 221.125 2
-13 -11 24 1230.97 255.327 2
-13 -12 24 2990.06 379.683 2
-12 13 24 3284.1 414.008 2
-13 13 24 -105.588 132.328 2
-14 13 24 129.825 116.197 2
-14 12 24 727.913 206.902 2
-14 11 24 190.382 126.771 2
-14 10 24 229.025 131.287 2
-14 9 24 187.11 124.937 2
-14 8 24 1717.86 299.597 2
-14 7 24 1953.89 320.729 2
-14 6 24 440.27 152.28 2
6 24 -14 173.502 219.72 1
5 14 24 1020.66 199.245 2
5 24 -14 1025.63 329.009 1
-14 5 24 1033.93 251.146 2
4 14 24 1384.38 251.617 2
4 24 -14 1396.63 387.005 1
-14 4 24 1494.13 260.132 2
3 14 24 -8.17543 92.8382 2
-3 14 -24 1.697 128.875 1
-14 3 24 -41.2107 102.839 2
2 14 24 1029.35 216.838 2
2 24 -14 865.622 309.133 1
-2 14 -24 780.625 342.895 1
-14 2 24 871.967 210.655 2
1 14 24 984.978 248.575 2
1 24 -14 762.088 308.546 1
-14 1 24 727.666 187.828 2
0 14 24 137.989 156.596 2
0 24 -14 133.423 192.199 1
-14 0 24 456.33 172.392 2
0 14 -24 333.722 220.586 1
-1 14 24 524.26 198.932 2
-1 24 -14 635.553 265.159 1
-14 -1 24 912.245 216.697 2
1 14 -24 932.648 331.589 1
2 14 -24 482.095 207.245 1
-2 14 24 579.656 211.196 2
-2 24 -14 1032.96 353.798 1
-14 -2 24 1051.14 219.589 2
3 14 -24 199.784 177.892 1
-3 14 24 -13.4009 77.9861 2
-3 24 -14 -224.196 267.569 1
-14 -3 24 -66.9756 111.599 2
4 14 -24 1450.16 430.254 1
-4 24 -14 950.392 315.774 1
-4 14 24 1214.96 272.1 2
-14 -4 24 1370.07 256.682 2
14 24 -5 867.435 326.488 1
-5 24 -14 1223.19 350.318 1
5 14 -24 762.342 288.126 1
-5 14 24 1533.51 285.651 2
-14 -5 24 1056.67 225.664 2
-6 24 -14 709.246 296.017 1
-6 14 24 448.18 159.972 2
6 14 -24 66.0421 156.755 1
-14 -6 24 476.431 157.414 2
14 24 -6 209.126 168.414 1
-7 14 24 2086.32 327.885 2
7 14 -24 1766.12 391.983 1
-14 -7 24 1547.05 265.559 2
-8 14 24 1814.21 305.29 2
-14 -8 24 1439.39 266.205 2
-9 14 24 258.664 133.119 2
-14 -9 24 -10.2002 70.4791 2
-10 14 24 208.538 106.77 2
-14 -10 24 31.4636 107.893 2
-11 14 24 292.773 148.928 2
-14 -11 24 140.982 141.86 2
-12 14 24 957.555 239.06 2
-13 14 24 211.164 125.836 2
-14 14 24 702.758 186.513 2
-15 14 24 381.67 139.006 2
-15 13 24 312.895 120.854 2
-15 12 24 377.345 120.043 2
-15 11 24 532.781 190.632 2
-15 10 24 3633.98 424.064 2
-15 9 24 -56.5696 131.965 2
-15 8 24 532.814 175.692 2
-15 7 24 1469.6 280.44 2
-15 6 24 725.452 185.542 2
5 15 24 284.671 126.014 2
-15 5 24 138.43 99.9425 2
4 15 24 1102.92 213.597 2
-15 4 24 1011.32 214.148 2
3 15 24 154.067 117.554 2
3 24 -15 195.25 105.465 1
-3 15 -24 213.119 140.7 1
2 15 24 981.79 213.828 2
2 24 -15 812.704 256.549 1
-2 15 -24 1522.07 428.599 1
-15 2 24 1000.16 223.779 2
1 15 24 26.6896 90.519 2
1 24 -15 -324.828 223.11 1
-15 1 24 -115.293 114.319 2
-1 15 -24 -391.203 229.01 1
0 15 24 1119.41 249.684 2
0 24 -15 1669.23 425.725 1
-15 0 24 1742.12 315.616 2
0 15 -24 1670.66 486.156 1
1 15 -24 -10.5908 146.562 1
-1 15 24 3.37005 89.1241 2
-15 -1 24 206.614 101.769 2
2 15 -24 913.975 359.171 1
-2 15 24 758.145 223.869 2
-2 24 -15 749.221 329.476 1
-15 -2 24 986.717 228.166 2
3 15 -24 -68.6522 145.399 1
-3 24 -15 19.8502 130.922 1
-3 15 24 158.447 136.893 2
-15 -3 24 253.21 132.96 2
4 15 -24 1083.21 322.604 1
-4 24 -15 804.729 265.961 1
-4 15 24 1026.97 246.161 2
-15 -4 24 916.029 219.118 2
-5 15 24 433.715 174.414 2
-15 -5 24 274.635 107.003 2
-15 -6 24 1147.67 244.408 2
-6 15 24 1123.36 247.489 2
-7 15 24 1160.15 245.087 2
-15 -7 24 1100.17 245.052 2
-8 15 24 645.212 189.367 2
-15 -8 24 444.987 165.793 2
-9 15 24 86.6779 106.553 2
-15 -9 24 99.1482 96.1966 2
-15 -10 24 3978.85 418.222 2
-10 15 24 4462.65 477.229 2
-11 15 24 562.743 164.073 2
-15 -11 24 481.685 165.026 2
-12 15 24 385.427 173.996 2
-13 15 24 579.739 199.629 2
-14 15 24 325.589 163.75 2
-15 15 24 1028.88 232.079 2
-16 15 24 353.876 147.801 2
-16 14 24 -68.2541 104.437 2
-16 13 24 -3.12057 91.4762 2
-16 12 24 429.807 180.645 2
-16 11 24 759.168 214.364 2
-16 10 24 -97.1925 107.128 2
-16 9 24 1782.92 308.327 2
-16 8 24 286.37 122.813 2
-16 7 24 700.673 197.236 2
-16 6 24 547.495 179.248 2
5 16 24 324.862 156.199 2
-16 5 24 151.087 76.727 2
4 16 24 566.71 165.263 2
-16 4 24 564.577 220.227 2
3 16 24 1598.08 258.259 2
-16 3 24 1707.77 290.935 2
2 16 24 352.602 186.157 2
-16 2 24 58.8825 69.2534 2
1 16 24 877.404 196.786 2
-16 1 24 926.599 219.157 2
0 16 24 130.041 110.847 2
-16 0 24 261.841 115.41 2
-1 16 24 599.619 216.198 2
-16 -1 24 1147.4 257.212 2
-16 -2 24 54.0762 85.1754 2
-2 16 24 29.524 111.045 2
-3 16 24 1024.22 277.797 2
-16 -3 24 1506.97 269.705 2
-4 16 24 560.478 192.939 2
-16 -4 24 634.745 177.631 2
-5 16 24 194.402 129.807 2
-16 -5 24 183.211 77.7877 2
-16 -6 24 774.441 200.546 2
-6 16 24 523.094 152.433 2
-7 16 24 579.984 189.806 2
-16 -7 24 689.518 207.64 2
-16 -8 24 236.324 124.15 2
-8 16 24 -31.264 101.79 2
-9 16 24 1510.71 290.21 2
-16 -9 24 1440 246.321 2
-16 -10 24 85.3591 111.598 2
-10 16 24 169.138 138.3 2
-11 16 24 630.751 186.474 2
-12 16 24 437.672 168.786 2
-13 16 24 198.26 83.8117 2
-14 16 24 189.253 118.957 2
-15 16 24 390.951 144.745 2
-16 16 24 575.551 197.07 2
-17 16 24 25.5493 116.375 2
-17 15 24 206.2 132.457 2
-17 14 24 135.171 126.815 2
-17 13 24 760.13 205.825 2
-17 12 24 738.69 201.578 2
-17 11 24 421.983 148.523 2
-17 10 24 241.335 117.558 2
-17 9 24 592.219 166.579 2
-17 8 24 934.055 224.401 2
-17 7 24 444.836 193.303 2
-17 6 24 667.242 188.226 2
5 17 24 549.103 139.843 2
-17 5 24 993.087 244.088 2
4 17 24 879.419 177.245 2
-17 4 24 794.155 208.163 2
3 17 24 478.318 166.381 2
-17 3 24 556.314 189.076 2
2 17 24 1030.84 229.797 2
-17 2 24 1099.89 251.941 2
1 17 24 406.801 148.902 2
-17 1 24 193.893 102.012 2
-17 0 24 3161.86 380.949 2
0 17 24 2480.16 372.304 2
-1 17 24 98.3616 139.646 2
-17 -1 24 320.896 139.705 2
-2 17 24 725.842 241.994 2
-17 -2 24 1121.88 225.314 2
-3 17 24 74.7406 152.296 2
-17 -3 24 475.81 144.809 2
-4 17 24 468.281 220.709 2
-17 -4 24 911.171 210.349 2
-17 -5 24 310.895 93.5685 2
-5 17 24 682.363 196.719 2
-6 17 24 962.812 232.777 2
-17 -6 24 1106.96 240.717 2
-7 17 24 317.549 146.198 2
-17 -7 24 325.091 132.177 2
-8 17 24 781.383 202.984 2
-17 -8 24 820.805 183.388 2
-9 17 24 780.561 239.329 2
-17 -9 24 684.512 194.894 2
-10 17 24 430.922 179.014 2
-17 -10 24 238.36 111.639 2
-11 17 24 295.791 151.619 2
-12 17 24 820.157 210.858 2
-13 17 24 1168.21 250.479 2
-14 17 24 1.94433 115.516 2
-15 17 24 -116.872 116.573 2
-16 17 24 147.31 128.428 2
-17 17 24 466.487 155.797 2
-17 24 17 -82.0961 117.867 2
-18 17 24 109.252 83.0627 2
-17 24 18 102.376 96.2809 2
-18 16 24 450.144 151.383 2
-16 24 18 158.983 120.78 2
-18 15 24 713.167 187.642 2
-15 24 18 848.994 213.299 2
-18 14 24 557.525 280.569 2
-18 13 24 732.443 188.677 2
-18 12 24 526.117 162.665 2
-18 11 24 2720.56 349.908 2
-18 10 24 210.199 152.528 2
-18 9 24 671.468 185.56 2
-18 8 24 272.057 133.443 2
-18 7 24 2083.65 323.413 2
-18 6 24 779.121 192.944 2
-18 5 24 3385.76 402.949 2
4 18 24 594.036 174.39 2
-18 4 24 268.089 122.977 2
3 18 24 654.909 173.864 2
-18 3 24 740.241 214.194 2
2 18 24 736.268 194.54 2
-18 2 24 1010.04 231.76 2
1 18 24 1699.53 256.916 2
-18 1 24 1642.45 256.224 2
0 18 24 17.891 89.6373 2
-18 0 24 143.902 122.65 2
-1 18 24 1608.39 304.315 2
-18 -1 24 1707.25 270.088 2
-18 -2 24 739.855 208.46 2
-2 18 24 578.672 203.124 2
-3 18 24 182.304 142.337 2
-18 -3 24 459.344 134.733 2
-18 -4 24 477.444 166.099 2
-4 18 24 225.125 136.912 2
-18 -5 24 2949.23 362.835 2
-5 18 24 3711.7 427.513 2
-6 18 24 1123.29 257.799 2
-18 -6 24 887.872 184.694 2
-7 18 24 2263.09 344.43 2
-18 -7 24 1981.67 285.578 2
-8 18 24 79.819 90.3436 2
-18 -8 24 216.29 113.343 2
-9 18 24 768.588 209.854 2
-10 18 24 226.81 143.853 2
-11 18 24 2738.52 380.992 2
-12 18 24 661.294 204.988 2
-13 18 24 702.592 200.708 2
-14 18 24 -106.32 91.5852 2
-15 18 24 874.15 210.142 2
-16 18 24 176 84.103 2
-18 24 16 121.95 104.253 2
-17 18 24 13.3266 93.9424 2
-18 24 17 154.449 128.774 2
-18 18 24 47.6181 113.126 2
-18 24 18 -59.0308 104.428 2
-19 18 24 424.228 137.43 2
-18 24 19 59.0121 82.3031 2
-19 17 24 250.52 96.2488 2
-17 24 19 419.298 169.65 2
-19 16 24 87.7968 87.6628 2
-16 24 19 -175.282 154.4 2
-19 15 24 314.157 140.271 2
-15 24 19 274.725 121.724 2
-19 14 24 211.597 142.75 2
-14 24 19 135.105 125.455 2
-19 13 24 204.66 71.695 2
-13 24 19 711.204 234.535 2
-19 12 24 289.226 146.884 2
-19 11 24 649.984 185.79 2
-19 10 24 154.932 122.271 2
-19 9 24 1636.41 317.067 2
-19 8 24 492.596 142.133 2
-19 7 24 913.984 199.895 2
-19 6 24 344.856 178.94 2
-19 5 24 515.607 209.804 2
4 19 24 1839.05 278.032 2
-19 4 24 1666.94 285.357 2
3 19 24 567.115 181.328 2
-19 3 24 732.175 187.227 2
2 19 24 1327.75 236.762 2
-19 2 24 1166.73 233.984 2
1 19 24 816.717 209.044 2
-19 1 24 483.843 160.673 2
0 19 24 162.091 143.551 2
-19 0 24 435.055 149.959 2
-1 19 24 205.796 178.662 2
-19 -1 24 493.032 128.708 2
-2 19 24 1069.94 260.515 2
-19 -2 24 1450.56 267.516 2
2 24 19 1241.81 235.829 2
-3 19 24 204.942 163.771 2
-19 -3 24 606.016 184.92 2
3 24 19 604.566 167.891 2
-4 19 24 1173.65 283.842 2
-19 -4 24 1872.53 279.154 2
4 24 19 1730.9 273.297 2
-5 19 24 288.158 116.714 2
-6 19 24 364.771 152.94 2
-7 19 24 1105.16 267.55 2
-8 19 24 238.312 99.4741 2
-9 19 24 1324.55 264.296 2
-10 19 24 73.3704 116.553 2
-11 19 24 694.299 205.079 2
-12 19 24 392.115 166.552 2
-13 19 24 1109.68 247.681 2
-14 19 24 171.141 83.3012 2
-15 19 24 221.089 142.614 2
-19 24 15 112.004 140.524 2
-16 19 24 158.102 117.988 2
-19 24 16 -27.0121 92.3966 2
-17 19 24 355.49 140.181 2
-19 24 17 187.4 110.03 2
-18 19 24 116.454 118.236 2
-19 24 18 149.469 81.7549 2
-19 19 24 621.29 173.368 2
-19 24 19 631.236 183.561 2
-20 19 24 213.255 92.5767 2
-19 24 20 98.7388 78.122 2
-20 18 24 102.351 125.544 2
-18 24 20 228.594 116.961 2
-20 17 24 -51.0717 104.091 2
-17 24 20 98.4758 124.603 2
-20 16 24 99.6912 70.1547 2
-16 24 20 249.64 129.851 2
-20 15 24 626.933 186.344 2
-15 24 20 516.57 173.171 2
-20 14 24 2125.6 311.249 2
-14 24 20 1923.52 296.71 2
-20 13 24 1425.65 254.314 2
-13 24 20 1818.91 304.767 2
-12 24 20 277.576 150.845 2
-20 12 24 292.41 135.752 2
-11 24 20 214.059 145.221 2
-20 11 24 226.984 113.462 2
-10 24 20 601.829 195.256 2
-20 10 24 807.392 192.535 2
-20 9 24 2581.06 326.229 2
-9 24 20 2933.52 394.255 2
-8 24 20 438.545 179.749 2
-20 8 24 375.25 144.257 2
-20 7 24 1955.48 299.399 2
-20 6 24 23.3381 116.474 2
-20 5 24 1667.08 269.441 2
4 20 24 187.728 110.687 2
-20 4 24 40.0316 68.7967 2
3 20 24 3205.92 360.564 2
-20 3 24 3695.89 399.339 2
2 20 24 366.432 149.4 2
-2 24 20 107.653 93.9245 2
-20 2 24 340.244 105.947 2
1 20 24 338.759 141.178 2
-1 24 20 248.838 171.822 2
-20 1 24 51.2252 75.7531 2
0 20 24 65.3256 111.112 2
0 24 20 6.23168 84.0732 2
-20 0 24 -25.864 94.6848 2
1 24 20 151.504 106.874 2
-1 20 24 252.401 169.08 2
-20 -1 24 477.164 140.617 2
-2 20 24 307.108 175.893 2
2 24 20 544.901 170.342 2
-3 20 24 2878.38 397.652 2
3 24 20 4331.05 434.381 2
-4 20 24 54.8176 85.2865 2
4 24 20 227.965 114.387 2
-5 20 24 1734.79 318.794 2
-6 20 24 -79.4957 106.022 2
-7 20 24 2183.17 343.072 2
-8 20 24 555.535 160.177 2
-9 20 24 2913.07 389.196 2
-10 20 24 977.553 227.049 2
-11 20 24 225.892 155.178 2
-12 20 24 773.867 215.645 2
-13 20 24 1336.14 261.823 2
-14 20 24 2097.57 312.104 2
-15 20 24 504.69 191.898 2
-20 24 15 446.055 161.358 2
-16 20 24 270.534 141.428 2
-20 24 16 241.275 123.096 2
-17 20 24 103.933 88.9468 2
-20 24 17 -155.904 102.038 2
-18 20 24 98.3229 100.439 2
-20 24 18 481.681 188.998 2
-19 20 24 -133.391 131.264 2
-20 24 19 156.815 145.392 2
-20 20 24 69.8844 83.5107 2
-20 24 20 -4.04169 63.1582 2
-21 20 24 239.171 85.3834 2
-20 24 21 110.909 62.0562 2
-21 19 24 497.491 140.752 2
-19 24 21 203.612 106.341 2
-21 18 24 423.735 136.526 2
-18 24 21 270.599 153.662 2
-21 17 24 827.542 200.157 2
-17 24 21 751.001 191.267 2
-21 16 24 4.75005 67.4973 2
-16 24 21 -74.3822 75.1516 2
-15 24 21 166.681 140.449 2
-21 15 24 67.2875 106.326 2
-14 24 21 541.972 164.759 2
-21 14 24 203.093 140.09 2
-13 24 21 202.511 129.519 2
-21 13 24 196.165 123.617 2
-12 24 21 89.3169 115.124 2
-21 12 24 13.8463 83.8725 2
-11 24 21 1242.06 252.779 2
-21 11 24 323.162 225.799 2
-10 24 21 1161.62 233.97 2
-21 10 24 1277.06 223.208 2
-9 24 21 141.93 108.633 2
-21 9 24 258.772 125.885 2
-8 24 21 215.64 78.5872 2
-21 8 24 291.722 165.554 2
-7 24 21 153.618 89.6868 2
-21 7 24 415.172 139.985 2
-21 6 24 209.552 110.251 2
-6 24 21 84.176 89.3947 2
-5 24 21 1406.08 264.804 2
-21 5 24 1245.55 228.846 2
4 21 24 1063.4 206.309 2
-4 24 21 1094.06 241.933 2
-21 4 24 960.296 199.043 2
3 21 24 429.914 152.899 2
-3 24 21 258.179 132.874 2
-21 3 24 309.79 133.223 2
2 21 24 220.793 107.698 2
-2 24 21 465.043 146.014 2
1 21 24 542.616 149.474 2
-1 24 21 456.672 144.817 2
0 21 24 9.1088 85.3439 2
0 24 21 179.581 115.549 2
-1 21 24 492.652 173.662 2
1 24 21 372.055 130.033 2
-2 21 24 254.144 96.695 2
2 24 21 324.545 134.146 2
-3 21 24 672.373 193.95 2
3 24 21 274.638 97.6051 2
-4 21 24 757.546 213.175 2
4 24 21 988.466 181.83 2
-5 21 24 1306.3 259.35 2
-6 21 24 80.0892 107.36 2
-7 21 24 -11.886 114.444 2
-8 21 24 313.155 125.269 2
-9 21 24 122.753 125.659 2
-10 21 24 1495.4 293.801 2
-11 21 24 1441.8 279.007 2
-12 21 24 -233.245 145.203 2
-13 21 24 167.477 153.602 2
-14 21 24 632.475 178.87 2
-21 24 14 348.803 139.206 2
-15 21 24 311.455 141.256 2
-21 24 15 18.9226 71.6487 2
-16 21 24 146.895 111.805 2
-21 24 16 135.745 103.659 2
-17 21 24 855.068 216.231 2
-21 24 17 611.355 157.592 2
-18 21 24 98.6318 105.275 2
-21 24 18 192.869 117.829 2
-19 21 24 311.558 124.089 2
-21 24 19 240.343 105.58 2
-20 21 24 236.111 109.488 2
-21 24 20 175.556 88.3448 2
-21 24 21 578.987 163.15 2
-21 21 24 247.251 143.41 2
-21 24 22 211.548 97.4571 2
-22 21 24 51.6061 139.361 2
-20 24 22 65.6069 80.291 2
-22 20 24 -38.2328 53.114 2
-19 24 22 295.249 154.486 2
-22 19 24 43.6688 54.6573 2
-18 24 22 -144.22 94.7248 2
-22 18 24 89.1103 129.407 2
-17 24 22 73.3168 84.606 2
-22 17 24 26.421 59.7532 2
-16 24 22 1595.54 279.596 2
-22 16 24 1043.97 230.218 2
-15 24 22 1040.19 256.287 2
-22 15 24 344.761 145.532 2
-14 24 22 1173.43 251.696 2
-22 14 24 132.901 188.855 2
-13 24 22 -79.1771 81.189 2
-22 13 24 23.233 122.334 2
-12 24 22 1252.44 237.466 2
-22 12 24 1959.18 271.214 2
-22 11 24 2683.16 310.283 2
-11 24 22 2763.04 365.07 2
-22 10 24 124.826 86.6947 2
-10 24 22 -287.682 148.242 2
-9 24 22 175.407 123.519 2
-22 9 24 198.106 95.2813 2
-8 24 22 419.9 163.048 2
-22 8 24 465.624 154.248 2
-7 24 22 1262.66 271.843 2
-22 7 24 1214.27 234.942 2
-6 24 22 -74.7721 136.657 2
-5 24 22 2076.25 304.735 2
4 22 24 192.769 84.808 2
-4 24 22 447.098 143.556 2
3 22 24 619.7 187.636 2
-3 24 22 523.49 184.839 2
2 22 24 257.82 142.934 2
-2 24 22 -85.7295 131.486 2
1 22 24 192.252 118.816 2
-1 24 22 49.2062 93.0533 2
0 22 24 83.9557 102.092 2
0 24 22 228.761 104.117 2
-1 22 24 -10.1569 94.5754 2
1 24 22 99.9795 106.271 2
2 24 22 96.7325 101.63 2
-2 22 24 -19.5196 71.5753 2
3 24 22 353.536 150.676 2
-3 22 24 574.659 169.287 2
4 24 22 307.747 121.409 2
-4 22 24 264.836 129.816 2
-5 22 24 1870 302.066 2
-6 22 24 200.285 127.746 2
-7 22 24 1378.83 268.662 2
-8 22 24 48.8324 83.8083 2
-9 22 24 172.75 111.08 2
-10 22 24 166.639 135.973 2
-11 22 24 2583.1 356.137 2
-12 22 24 1261.35 237.162 2
-22 24 12 1303.57 227.778 2
-13 22 24 13.2549 88.1374 2
-22 24 13 189.565 126.304 2
-14 22 24 911.879 217.032 2
-22 24 14 1041.17 199.791 2
-15 22 24 1413.68 278.999 2
-22 24 15 339.116 114.514 2
-16 22 24 1293.93 262.597 2
-22 24 16 1603.19 257.679 2
-17 22 24 86.9921 107.942 2
-22 24 17 103.911 69.8903 2
-18 22 24 68.6008 72.419 2
-22 24 18 121.792 73.0932 2
-19 22 24 377.368 153.448 2
-22 24 19 133.008 75.2781 2
-20 22 24 -81.5256 73.1427 2
-22 24 20 118.77 81.2974 2
-22 24 21 464.861 142.773 2
-21 22 24 239.562 125.708 2
-20 24 23 71.4904 94.324 2
-23 20 24 2.94846 43.4965 2
-19 24 23 365.271 137.072 2
-23 19 24 2.77268 85.6109 2
-18 24 23 91.5711 108.651 2
-23 18 24 47.3786 90.4328 2
-17 24 23 382.833 156.715 2
-23 17 24 94.0637 138.295 2
-16 24 23 586.972 182.725 2
-23 16 24 147.223 135.193 2
-15 24 23 869.931 208.98 2
-23 15 24 50.0936 122.157 2
-14 24 23 -285 115.435 2
-23 14 24 -38.0989 65.6636 2
-13 24 23 317.759 131.72 2
-23 13 24 62.0731 145.795 2
-12 24 23 1265.06 258.366 2
-23 12 24 1250.22 205.429 2
-11 24 23 389.942 147.43 2
-23 11 24 334.059 92.4096 2
-10 24 23 476.166 183.813 2
-9 24 23 1198.62 238.265 2
-8 24 23 145.403 136.753 2
-7 24 23 431.43 169.385 2
-6 24 23 678.909 184.021 2
-5 24 23 152.244 117.474 2
-4 24 23 324.921 145.64 2
3 23 24 475.525 141.313 2
-3 24 23 378.839 178.816 2
2 23 24 151.248 123.281 2
-2 24 23 149.917 109.423 2
1 23 24 110.436 85.2981 2
-1 24 23 -18.5523 88.5508 2
0 23 24 114.572 96.7946 2
0 24 23 -18.3969 91.4183 2
1 24 23 94.8572 114.823 2
-1 23 24 5.91651 70.05 2
2 24 23 99.2592 96.8116 2
-2 23 24 251.209 141.857 2
3 24 23 465.83 162.201 2
-3 23 24 263.713 130.963 2
-4 23 24 421.271 152.774 2
-5 23 24 123.241 119.024 2
-6 23 24 658.231 182.374 2
-7 23 24 186.99 99.8511 2
-8 23 24 276.01 136.338 2
-9 23 24 919.348 230.618 2
-10 23 24 302.872 131.309 2
-11 23 24 358.342 139.194 2
-23 24 11 387.951 142.616 2
-12 23 24 1456.22 274.505 2
-23 24 12 1744.14 252.802 2
-13 23 24 693.57 171.041 2
-23 24 13 549.094 142.102 2
-14 23 24 -90.6028 113.566 2
-23 24 14 168.059 99.3366 2
-15 23 24 794.954 201.965 2
-23 24 15 607.399 148.29 2
-16 23 24 825.957 201.583 2
-23 24 16 865.051 194.791 2
-17 23 24 635.649 188.155 2
-23 24 17 498.41 132.695 2
-18 23 24 6.94057 67.7732 2
-23 24 18 111.395 80.4152 2
-19 23 24 720.58 158.828 2
-23 24 19 396.59 124.197 2
-20 23 24 49.0726 74.5181 2
-23 24 20 194.293 90.9318 2
0 24 24 198.313 114.342 2
1 24 24 161.373 120.805 2
-1 24 24 148.462 91.5313 2
2 24 24 76.3701 70.9365 2
-2 24 24 213.545 129.291 2
3 24 24 335.687 132.787 2
-3 24 24 174.795 102.253 2
-4 24 24 89.3992 104.017 2
-5 24 24 375.347 155.022 2
-6 24 24 -17.6136 96.0169 2
-7 24 24 260.682 160.825 2
-8 24 24 -25.3173 86.211 2
-9 24 24 935.675 215.738 2
-10 24 24 561.79 175.544 2
-11 24 24 68.7942 93.9151 2
-12 24 24 467.238 153.166 2
-13 24 24 1164.94 228.695 2
-14 24 24 1328.46 261.369 2
-15 24 24 35.7291 96.7108 2
-16 24 24 529.659 150.712 2
-17 24 24 21.346 74.7993 2
-18 24 24 107.577 104.645 2
-19 24 24 309.335 124.257 2
0 0 25 152.871 134.227 2
1 25 0 1499.54 361.105 1
0 -1 25 1616.48 272.052 2
1 0 25 1805.98 288.744 2
-1 0 25 2107.15 325 2
0 1 25 1785.53 280.109 2
0 25 -1 1509.91 362.944 1
1 -1 25 -28.4645 79.1911 2
1 25 -1 -54.498 129.564 1
-1 -1 25 -95.9569 89.1973 2
1 1 25 221.714 157.001 2
-1 1 25 140.115 111.782 2
2 25 1 455.398 204.13 1
2 -1 25 460.266 175.078 2
-1 -2 25 339.128 159.965 2
1 2 25 558.938 175.021 2
-2 1 25 544.524 171.786 2
1 25 -2 141.608 75.954 1
0 25 -2 86.544 97.8429 1
0 -2 25 -85.0072 81.7816 2
2 25 0 -80.3619 106.909 1
2 0 25 77.6466 110.823 2
-2 0 25 250.939 157.397 2
0 2 25 -60.9203 68.6188 2
2 25 -1 422.283 148.119 1
-1 25 -2 241.282 117.363 1
1 -2 25 479.644 148.055 2
-2 -1 25 450.216 169.903 2
2 1 25 577.146 172.719 2
-1 2 25 544.635 136.994 2
2 -2 25 180.168 117.237 2
-2 -2 25 63.9149 139.12 2
2 2 25 13.2613 78.9015 2
-2 2 25 127.817 122.895 2
2 25 -2 -12.1514 80.8334 1
3 -2 25 832.006 185.77 2
3 25 2 725.234 213.524 1
-2 -3 25 1186.97 264.575 2
2 25 -3 1005.42 296.758 1
2 3 25 1113.18 218.165 2
-3 2 25 1444.36 257.566 2
-1 -3 25 319.133 107.81 2
3 -1 25 367.734 116.497 2
-3 1 25 333.689 170.647 2
1 3 25 -6.8632 75.5851 2
3 25 1 150.463 76.8041 1
1 25 -3 205.395 113.311 1
0 -3 25 890 216.478 2
3 0 25 1086.85 219.603 2
0 25 -3 807.407 278.846 1
-3 0 25 850.052 185.964 2
0 3 25 996.635 221.931 2
3 25 0 927.677 297.987 1
3 25 -1 282.034 210.209 1
-1 25 -3 -102.421 161.598 1
1 -3 25 313.889 99.1717 2
3 1 25 93.1611 104.401 2
-3 -1 25 16.9246 121.548 2
-1 3 25 33.9638 94.666 2
3 25 -2 739.28 278.08 1
-2 25 -3 869.052 255.17 1
2 -3 25 1120.37 235.066 2
-3 -2 25 1171.43 221.787 2
3 2 25 1209.01 244.889 2
-2 3 25 1191.15 245.441 2
3 -3 25 820.286 208.993 2
-3 -3 25 687.758 183.165 2
3 3 25 786.495 220.08 2
3 25 -3 849.524 274.341 1
-3 3 25 712.738 194.369 2
4 -3 25 317.521 180.928 2
-3 -4 25 186.93 152.325 2
3 25 -4 430.059 242.77 1
3 4 25 385.24 144.027 2
-4 3 25 257.634 143.05 2
4 25 2 -16.1812 148.391 1
2 25 -4 359.279 224.717 1
4 -2 25 103.285 97.9116 2
-2 -4 25 -133.576 126.727 2
2 4 25 -2.67118 103.813 2
-4 2 25 293.667 141.058 2
1 25 -4 245.887 208.259 1
-1 -4 25 101.551 87.6924 2
4 -1 25 57.7414 82.0888 2
4 25 1 87.918 111.433 1
-4 1 25 -121.652 92.1408 2
1 4 25 -112.394 108.114 2
4 25 0 209.197 185.249 1
0 25 -4 441.294 224.089 1
0 -4 25 211.002 150.693 2
4 0 25 331.698 116.338 2
-4 0 25 219.189 139.692 2
0 4 25 143.96 117.807 2
-1 25 -4 28.6932 109.156 1
1 -4 25 157.604 156.164 2
4 1 25 106.628 129.639 2
4 25 -1 263.765 221.442 1
-4 -1 25 -141.817 98.8313 2
-1 4 25 68.8768 112.409 2
-2 25 -4 -79.7398 187.602 1
2 -4 25 -142.377 141.638 2
4 25 -2 -78.0383 91.5866 1
-4 -2 25 338.331 199.493 2
4 2 25 86.1267 169.119 2
-2 4 25 166.067 109.028 2
-3 25 -4 -40.2114 88.8197 1
4 25 -3 218.52 130.666 1
-4 -3 25 391.824 141.146 2
4 3 25 239.766 120.807 2
-3 4 25 317.153 119.844 2
3 -4 25 342.479 169.394 2
4 -4 25 151.856 126.278 2
-4 -4 25 125.648 101.193 2
4 25 -4 -17.0255 126.391 1
4 4 25 173.092 111.154 2
-4 4 25 258.282 126.498 2
5 -4 25 323.182 151.837 2
-4 -5 25 312.086 144.464 2
4 25 -5 348.031 116.787 1
4 5 25 238.821 96.965 2
-5 4 25 391.6 158.524 2
5 -3 25 307.473 142.578 2
3 25 -5 481.862 235.87 1
-3 -5 25 586.966 180.785 2
3 5 25 512.833 150.946 2
-5 3 25 545.383 151.318 2
5 25 2 1022.27 301.379 1
2 25 -5 823.147 295.034 1
5 -2 25 1155.56 225.128 2
-2 -5 25 790.748 189.398 2
-5 2 25 1148.78 230.12 2
2 5 25 1041.67 214.767 2
1 25 -5 251.965 182.336 1
5 25 1 30.7521 82.1896 1
-1 -5 25 22.9032 96.8386 2
5 -1 25 24.3853 65.8825 2
-5 1 25 124.791 74.5078 2
1 5 25 242.552 130.59 2
0 25 -5 2058.92 421.846 1
0 -5 25 3285.14 399.967 2
-5 0 25 2744.36 345.751 2
0 5 25 3040.39 366.819 2
5 25 0 2491.48 469.45 1
5 0 25 2446.27 325.053 2
-1 25 -5 122.35 125.386 1
1 -5 25 376.819 144.812 2
5 1 25 278.02 124.962 2
-5 -1 25 754.082 182.684 2
5 25 -1 417.657 255.779 1
-1 5 25 143.479 72.9414 2
2 -5 25 742.676 180.419 2
5 25 -2 642.651 249.882 1
2 5 -25 646.397 241.429 1
5 2 25 661.287 160.541 2
-5 -2 25 1030.2 218.614 2
-2 5 25 789.158 195.427 2
-2 25 -5 513.293 194.343 1
5 25 -3 182.12 145.227 1
3 -5 25 402.201 172.031 2
-5 -3 25 277.593 134.829 2
5 3 25 406.955 133.369 2
-3 25 -5 340.96 181.192 1
-3 5 25 325.915 125.308 2
5 25 -4 304.146 139.168 1
4 -5 25 313.015 142.521 2
-5 -4 25 562.58 197.867 2
5 4 25 260.232 119.844 2
-4 25 -5 46.6297 99.3877 1
-4 5 25 242.585 87.2247 2
-5 5 25 119.881 128.783 2
5 -5 25 205.507 156.86 2
-5 -5 25 196.658 108.032 2
5 25 -5 120.982 171.412 1
5 5 25 38.859 80.3901 2
-6 5 25 41.6998 115.327 2
6 -5 25 111.552 96.3095 2
-5 -6 25 177.499 111.9 2
5 25 -6 234.282 124.149 1
5 6 25 197.641 114.834 2
6 -4 25 374.293 147.522 2
4 25 -6 75.6109 197.268 1
-4 -6 25 444.424 161.641 2
4 6 25 190.039 90.9993 2
-6 4 25 263.775 113.117 2
3 25 -6 473.076 202.481 1
6 -3 25 506.554 140.488 2
-3 -6 25 532.597 179.766 2
3 6 25 494.673 141.657 2
-6 3 25 549.499 164.55 2
2 25 -6 218.357 142.487 1
6 -2 25 216.12 122.827 2
-2 -6 25 101.421 77.2313 2
-6 2 25 173.754 138.981 2
2 6 25 24.9328 74.7254 2
1 25 -6 962.572 313.417 1
-1 -6 25 1044.66 236.045 2
6 -1 25 791.966 192.24 2
-6 1 25 711.642 212.361 2
6 25 1 443.162 223.576 1
1 6 25 441.628 174.962 2
0 25 -6 126.341 158.88 1
6 0 25 72.2962 84.944 2
6 25 0 145.648 151.002 1
-6 0 25 -56.5665 106.048 2
0 -6 25 -126.325 135.919 2
0 6 25 55.7129 82.8935 2
6 25 -1 587.547 236.385 1
1 -6 25 771.269 214.746 2
6 1 25 777.196 198.484 2
-6 -1 25 630.334 196.689 2
-1 25 -6 742.961 266.317 1
-1 6 25 641.872 170.118 2
-2 6 25 40.4616 95.0175 2
2 -6 25 45.4411 115.511 2
6 2 25 45.4669 103.537 2
-6 -2 25 250.698 148.243 2
2 6 -25 340.924 211.191 1
6 25 -2 22.4688 108.574 1
-2 25 -6 -24.1448 130.297 1
-3 6 25 821.468 205.425 2
3 -6 25 713.055 202.99 2
6 25 -3 308.987 89.4205 1
-6 -3 25 640.646 186.438 2
6 3 25 460.92 166.113 2
-3 25 -6 504.484 214.471 1
3 6 -25 484.624 227.685 1
-4 6 25 317.679 158.282 2
6 25 -4 331.241 189.759 1
4 -6 25 403.282 166.06 2
-6 -4 25 411.251 148.926 2
-4 25 -6 171.719 114.804 1
6 4 25 250.432 94.4784 2
-5 6 25 369.912 158.773 2
5 -6 25 257.118 146.224 2
-6 -5 25 311.223 131.796 2
6 5 25 181.623 102.944 2
6 25 -5 362.803 200.036 1
-6 6 25 464.067 150.586 2
6 -6 25 749.273 196.798 2
-6 -6 25 671.023 186.42 2
6 25 -6 615.829 266.773 1
6 6 25 396.894 103.503 2
-7 6 25 325.503 162.548 2
7 -6 25 277.2 152.633 2
-6 -7 25 102.034 86.4304 2
6 25 -7 135.597 146.93 1
6 7 25 422.374 121.488 2
-7 5 25 301.193 112.304 2
7 -5 25 503.518 183.473 2
5 25 -7 460.412 224.078 1
-5 -7 25 520.195 169.166 2
5 7 25 524.425 153.787 2
4 25 -7 1631.79 335.886 1
7 -4 25 2010.31 304.308 2
-4 -7 25 2065.91 317.08 2
4 7 25 1853.43 271.171 2
-7 4 25 2068 318.686 2
3 25 -7 215.912 90.9921 1
7 -3 25 350.156 131.683 2
-3 -7 25 658.631 196.767 2
-7 3 25 375.421 156.162 2
3 7 25 413.325 154.636 2
2 25 -7 1126.1 356.383 1
7 -2 25 1274.28 243.931 2
-2 -7 25 1525.95 281.758 2
-7 2 25 1348.49 255.32 2
2 7 25 1372.14 237.769 2
1 25 -7 664.402 270.759 1
-1 -7 25 548.369 136.191 2
7 -1 25 741.911 215.323 2
7 25 1 786.232 286.75 1
-7 1 25 532.188 181.296 2
1 7 25 645.085 198.592 2
0 7 25 771.939 205.98 2
7 25 0 780.998 284.65 1
0 -7 25 675.961 177.285 2
7 0 25 636.947 181.551 2
-7 0 25 715.572 210.506 2
0 25 -7 753.362 292.696 1
-1 7 25 644.826 197.248 2
1 -7 25 473.126 167.962 2
7 25 -1 700.514 273.223 1
7 1 25 514.482 166.382 2
-7 -1 25 497.701 135.477 2
-1 25 -7 479.772 208.61 1
-2 7 25 1258.65 234.991 2
7 25 -2 1407.91 384.43 1
2 -7 25 1387.35 262.448 2
7 2 25 1129.75 214.595 2
-7 -2 25 1429.49 268.657 2
2 7 -25 1499.63 384.735 1
-2 25 -7 1296.25 361.716 1
-3 7 25 344.143 160.063 2
3 -7 25 318.375 146.712 2
7 3 25 301.293 140.58 2
-7 -3 25 138.162 98.1968 2
-3 25 -7 -58.7538 156.23 1
7 25 -3 169.318 177.493 1
3 7 -25 664.808 300.824 1
-4 7 25 1951.11 309.578 2
4 -7 25 2505.86 372.388 2
7 25 -4 1433.69 387.371 1
-4 25 -7 1118.19 301.659 1
-7 -4 25 2051.99 317.913 2
-5 7 25 281.946 143.748 2
7 25 -5 350.113 194.681 1
5 -7 25 419.533 164.97 2
-5 25 -7 243.125 168.69 1
-7 -5 25 457.636 161.128 2
7 25 -6 489.459 249.662 1
-6 7 25 269.244 145.822 2
6 -7 25 390.207 153.656 2
-7 -6 25 382.698 142.848 2
-7 7 25 156.157 178.733 2
7 -7 25 -78.2004 121.33 2
-7 -7 25 96.5059 94.852 2
7 25 -7 154.887 124.649 1
-8 7 25 121.755 125.18 2
-7 -8 25 1.66189 92.2589 2
7 25 -8 149.386 180.085 1
8 -7 25 155.475 135.161 2
-8 6 25 39.658 85.5453 2
8 -6 25 143.754 80.4801 2
-6 -8 25 208.181 114.427 2
6 25 -8 101.374 162.564 1
6 8 25 134.502 88.3404 2
-8 5 25 1418.64 277.209 2
5 25 -8 1090.43 342.882 1
-5 -8 25 1307.4 265.406 2
8 -5 25 991.047 191.554 2
5 8 25 1002.95 219.125 2
4 25 -8 461.665 249.966 1
-4 -8 25 385.114 103.192 2
8 -4 25 616.363 197.049 2
4 8 25 347.743 132.593 2
-8 4 25 284.757 107.871 2
3 25 -8 -123.58 147.76 1
-3 -8 25 -53.1736 99.1613 2
8 -3 25 -21.9839 102.231 2
-8 3 25 89.7869 107.954 2
3 8 25 16.1615 128.82 2
2 8 25 417.807 146.312 2
2 25 -8 384.701 215.153 1
-2 -8 25 619.404 165.408 2
-8 2 25 339.262 151.558 2
8 -2 25 402.355 177.462 2
1 8 25 1186.2 234.018 2
-1 -8 25 980.832 234.778 2
8 -1 25 1000.11 218.383 2
-8 1 25 1149.45 257.007 2
1 25 -8 891.892 251.785 1
0 8 25 904.225 199.676 2
8 25 0 459.997 245.605 1
0 -8 25 853.13 197.427 2
-8 0 25 729.754 193.456 2
0 25 -8 825.267 257.028 1
8 25 -1 920.505 256.93 1
-1 8 25 628.799 212.074 2
1 -8 25 996.968 222.508 2
1 8 -25 619.792 274.209 1
-1 25 -8 587.37 256.243 1
-8 -1 25 1093.49 241.301 2
-2 8 25 223.376 113.97 2
8 25 -2 401.136 147.347 1
2 -8 25 347.754 166.034 2
-2 25 -8 261.745 224.654 1
-8 -2 25 369.502 152.071 2
2 8 -25 119.223 121.51 1
8 25 -3 -130.231 119.832 1
-3 8 25 -27.027 100.308 2
3 -8 25 147.348 129.464 2
-3 25 -8 -186.556 202.742 1
-8 -3 25 132.136 104.471 2
3 8 -25 124.045 149.595 1
-4 8 25 279.856 177.833 2
4 -8 25 232.117 108.305 2
-4 25 -8 200.404 125.165 1
-8 -4 25 333.824 153.621 2
8 25 -4 433.175 177.38 1
4 8 -25 -79.3419 252.786 1
-5 8 25 1504.26 262.433 2
5 -8 25 1431.89 248.994 2
8 25 -5 1314.83 373.942 1
-5 25 -8 1346.88 348.697 1
-8 -5 25 1734.28 295.111 2
-6 8 25 89.8633 76.5289 2
8 25 -6 346.788 259.388 1
-6 25 -8 312.944 233.663 1
-8 -6 25 231.996 102.596 2
6 -8 25 14.8108 94.4514 2
8 25 -7 -81.2813 129.889 1
-7 8 25 -50.2595 90.318 2
7 -8 25 58.7429 96.4958 2
-8 -7 25 197.093 168.297 2
-8 8 25 417.288 181.453 2
-8 -8 25 435.716 163.013 2
8 25 -8 686.59 305.612 1
-9 8 25 1506.69 285.711 2
-8 -9 25 1351.48 275.256 2
8 25 -9 766.963 297.237 1
-9 7 25 1822.28 292.668 2
-7 -9 25 1602.88 295.999 2
7 25 -9 1620.26 399.469 1
6 9 25 1985.22 280.742 2
-9 6 25 2270.43 336.973 2
9 -6 25 2118.99 300.491 2
6 25 -9 2555.03 504.887 1
-6 -9 25 2223.65 326.889 2
5 25 -9 133.609 122.708 1
-5 -9 25 216.489 168.369 2
9 -5 25 0.41228 90.0503 2
5 9 25 102.444 102.05 2
-9 5 25 94.7174 76.9871 2
4 25 -9 204.164 106.002 1
9 -4 25 117.464 118.882 2
-4 -9 25 69.0915 101.586 2
-9 4 25 109.2 75.1626 2
4 9 25 37.8709 81.1107 2
3 9 25 192.476 126.519 2
3 25 -9 139.883 146.317 1
-3 -9 25 449.386 182.017 2
-9 3 25 118.75 86.1484 2
2 9 25 219.36 139.543 2
-2 -9 25 674.097 202.501 2
-9 2 25 562.195 202.134 2
2 25 -9 228.091 117.473 1
1 9 25 19.5433 89.8338 2
-1 -9 25 155.398 100.94 2
-9 1 25 318.828 143.017 2
1 25 -9 73.6298 103.155 1
0 9 25 229.039 143.843 2
0 -9 25 797.467 205.873 2
0 9 -25 207.252 113.296 1
0 25 -9 431.789 188.28 1
-9 0 25 508.966 153.729 2
-1 9 25 -7.88013 119.127 2
1 -9 25 305.967 159.871 2
-1 25 -9 343.19 173.029 1
1 9 -25 161.798 124.539 1
-9 -1 25 116.03 105.004 2
9 25 -1 -14.5584 105.852 1
-2 9 25 319.297 197.475 2
2 -9 25 589.444 179.04 2
-2 25 -9 144.849 79.7646 1
-9 -2 25 470.143 178.264 2
2 9 -25 840.975 315.045 1
9 25 -2 430.966 260.989 1
-3 9 25 41.4607 90.8768 2
9 25 -3 237.06 181.367 1
3 -9 25 249.917 140.358 2
-3 25 -9 86.0081 147.67 1
-9 -3 25 -4.39032 100.172 2
3 9 -25 -11.6404 109.498 1
4 9 -25 188.521 172.397 1
9 25 -4 311.387 242.222 1
-4 9 25 -58.4985 109.404 2
4 -9 25 70.8309 120.025 2
-4 25 -9 23.4998 119.87 1
5 9 -25 322.891 222.909 1
-5 9 25 407.089 174.96 2
-5 25 -9 461.429 275.614 1
5 -9 25 -44.2855 92.1308 2
-9 -5 25 -43.6725 109.504 2
9 25 -5 161.279 158.599 1
-6 9 25 2281.94 327.453 2
-9 -6 25 2401.13 356.431 2
-6 25 -9 1733.8 426.677 1
9 25 -6 2125.25 465.137 1
6 -9 25 1989.98 313.116 2
-7 9 25 1827.46 296.706 2
9 25 -7 1370.99 400.107 1
-9 -7 25 1637.06 278.595 2
-8 9 25 1649.47 283.687 2
9 25 -8 775.467 237.807 1
-9 -8 25 1288.37 267.281 2
9 25 -9 415.2 254.222 1
-9 9 25 430.414 181.276 2
-9 -9 25 425.698 157.525 2
-10 9 25 506.539 179.699 2
-9 -10 25 540.971 195.305 2
9 25 -10 241.48 158.994 1
-10 8 25 1622.27 271.306 2
-8 -10 25 1402.38 262.322 2
8 25 -10 1230.67 345.91 1
-10 7 25 3657.77 422.28 2
-7 -10 25 3674.8 424.669 2
7 25 -10 3433.82 584.134 1
-10 6 25 499.813 185.13 2
6 25 -10 345.963 94.308 1
-6 -10 25 644.726 205.703 2
5 25 -10 391.47 253.525 1
-5 -10 25 223.387 149.871 2
5 10 25 27.4131 83.0055 2
-10 5 25 11.0429 90.6515 2
4 25 -10 219.048 112.127 1
-4 -10 25 620.767 202.076 2
-10 4 25 561.573 210.513 2
4 10 25 289.518 115.185 2
3 25 -10 2285.04 496.203 1
3 10 25 1820.98 283.776 2
-3 -10 25 2004.58 316.961 2
-10 3 25 2026.44 319.342 2
2 10 25 1342.16 291.474 2
-2 -10 25 1918.38 308.496 2
-10 2 25 1675.9 288.322 2
2 25 -10 1565.37 438.638 1
1 10 25 -6.62454 75.8553 2
-1 -10 25 195.383 111.252 2
1 25 -10 359.994 204.335 1
-10 1 25 116.338 117.588 2
0 10 25 190.434 171.171 2
0 25 -10 393.267 189.826 1
0 10 -25 492.746 255.497 1
0 -10 25 391.037 155.327 2
-10 0 25 468.02 173.862 2
10 25 -1 283.58 156.957 1
-1 10 25 69.934 178.63 2
1 -10 25 235.174 114.564 2
-1 25 -10 -45.703 112.599 1
-10 -1 25 184.699 128.968 2
1 10 -25 145.691 149.408 1
-2 10 25 1777.56 312.112 2
2 -10 25 1618.88 300.157 2
10 25 -2 1633.48 372.19 1
-2 25 -10 1783.52 399.94 1
-10 -2 25 1849.9 302.999 2
2 10 -25 1811.94 411.367 1
-3 10 25 1707.94 311.92 2
3 -10 25 1701.59 288.049 2
-3 25 -10 1616.67 413.754 1
-10 -3 25 2126.21 323.615 2
10 25 -3 1930.27 439.618 1
3 10 -25 1423.62 355.548 1
4 10 -25 638.838 252.262 1
-4 10 25 494.878 174.45 2
4 -10 25 637.741 208.779 2
10 25 -4 317.479 200.8 1
-4 25 -10 196.236 135.375 1
-10 -4 25 500.048 176.807 2
10 25 -5 75.6936 137.071 1
5 10 -25 267.415 164.502 1
-5 10 25 327.398 128.311 2
-5 25 -10 102.062 119.156 1
-10 -5 25 292.444 141.855 2
-6 10 25 453.765 144.333 2
-6 25 -10 301.045 179.361 1
-10 -6 25 500.581 168.931 2
10 25 -6 672.868 282.102 1
-7 10 25 3720.5 422.652 2
-7 25 -10 2520.06 503.722 1
10 25 -7 3142.91 581.079 1
-10 -7 25 3863.89 435.727 2
-8 10 25 1415.04 267.396 2
10 25 -8 971.002 327.528 1
-10 -8 25 1425.55 265.594 2
-9 10 25 443.494 156.062 2
10 25 -9 355.453 247.357 1
-10 -9 25 40.8265 107.999 2
-10 10 25 2064.16 320.551 2
-10 -10 25 2113.81 319.735 2
-11 10 25 2927.45 386.25 2
-10 -11 25 2843.3 382.879 2
-9 -11 25 3474.39 414.653 2
-11 9 25 3843.99 441.022 2
-11 8 25 670.981 197.155 2
8 25 -11 231.153 181.866 1
-8 -11 25 389.935 171.373 2
-11 7 25 261.187 84.6795 2
-7 -11 25 408.952 193.409 2
7 25 -11 202.519 115.338 1
-11 6 25 1278.64 247.023 2
6 25 -11 922.518 285.57 1
-6 -11 25 1551.94 283.998 2
5 25 -11 850.858 281.139 1
-5 -11 25 740.437 194.813 2
5 11 25 1264.23 224.151 2
4 11 25 507.055 167.676 2
4 25 -11 913.689 354.699 1
-4 -11 25 1164.48 227.849 2
-11 4 25 861.276 211.83 2
3 11 25 415.989 126.03 2
-3 -11 25 533.81 175.428 2
-11 3 25 561.034 190.203 2
3 25 -11 545.237 274.507 1
2 11 25 13.0878 68.2343 2
-2 -11 25 216.262 137.767 2
2 25 -11 30.6934 222.845 1
-11 2 25 119.151 140.657 2
1 11 25 476.422 205.499 2
-1 -11 25 773.724 207.603 2
-1 11 -25 543.887 218.883 1
1 25 -11 444.625 254.406 1
-11 1 25 934.041 220.182 2
0 11 25 11.1381 74.954 2
0 -11 25 263.746 154.145 2
0 25 -11 -63.6856 144.304 1
0 11 -25 -58.3874 188.434 1
-11 0 25 -28.3855 80.403 2
-1 11 25 363.261 160.883 2
1 -11 25 736.776 215.96 2
-1 25 -11 681.173 307.126 1
-11 -1 25 572.201 165.673 2
1 11 -25 745.54 309.009 1
11 25 -2 -325.718 231.619 1
-2 11 25 52.385 112.48 2
2 -11 25 -154.607 128.439 2
-2 25 -11 -121.182 219.224 1
-11 -2 25 90.372 113.761 2
2 11 -25 121.556 154.957 1
3 11 -25 520.27 228.988 1
-3 11 25 406.752 211.653 2
-3 25 -11 563.67 232.266 1
3 -11 25 389.384 126.336 2
11 25 -3 597.197 274.37 1
-11 -3 25 400.333 166.811 2
4 11 -25 494.445 210.87 1
-4 11 25 601.606 181.167 2
-4 25 -11 583.064 264.598 1
-11 -4 25 775.102 201.994 2
11 25 -4 1179.2 389.117 1
5 11 -25 646.794 209.529 1
-5 11 25 1234.86 248.734 2
-5 25 -11 1014.61 292.311 1
11 25 -5 1095.74 348.019 1
-11 -5 25 1191.69 243.882 2
11 25 -6 1042.43 330.498 1
-6 11 25 907.119 225.774 2
6 11 -25 366.709 125.376 1
-6 25 -11 1070.26 326.703 1
-11 -6 25 960.781 223.182 2
-7 11 25 462.938 168.854 2
-7 25 -11 746.02 298.346 1
-11 -7 25 316.063 144.153 2
11 25 -7 361.706 216.865 1
-8 11 25 224.15 126.384 2
11 25 -8 38.9529 94.1639 1
-11 -9 25 3129.04 390.743 2
-9 11 25 4318.28 480.82 2
-11 -10 25 3283.07 401.383 2
-10 11 25 3713.2 436.419 2
-11 11 25 1893.89 321.188 2
-11 -11 25 2005.24 324.017 2
-11 -12 25 3237.47 400.798 2
-12 11 25 3362.93 413.708 2
-12 10 25 1416.22 278.161 2
-10 -12 25 1623.54 290.772 2
-12 9 25 5720.85 528.838 2
-9 -12 25 5524.27 524.689 2
-12 8 25 604.108 210.208 2
-8 -12 25 559.777 193.054 2
-12 7 25 1429.02 285.137 2
-7 -12 25 1506.91 290.565 2
-12 6 25 1797.82 310.048 2
6 25 -12 1845.82 424.02 1
-6 -12 25 1762.34 297.533 2
5 12 25 833.128 167.388 2
5 25 -12 934.145 305.097 1
-5 -12 25 1166.14 246.596 2
-12 5 25 976.103 229.92 2
4 25 -12 177.561 122.601 1
4 12 25 429.357 167.93 2
-4 -12 25 507.657 183.143 2
-12 4 25 444.888 148.978 2
3 12 25 410.076 138.831 2
-3 -12 25 496.995 187.666 2
3 25 -12 192.685 141.463 1
-12 3 25 456.898 146.924 2
2 12 25 156.637 121.813 2
-2 -12 25 295.199 146.18 2
-2 12 -25 144.4 183.861 1
2 25 -12 184.095 206.197 1
-12 2 25 221.29 94.4095 2
1 12 25 551.702 187.959 2
-1 -12 25 714.757 188.521 2
1 25 -12 797.302 290.721 1
-1 12 -25 813.814 306.85 1
-12 1 25 743.911 219.92 2
0 12 25 1245.82 297.101 2
0 -12 25 1498.27 275.13 2
0 25 -12 1469.03 389.989 1
-12 0 25 1367.65 277.075 2
0 12 -25 814.075 306.423 1
-1 12 25 367.853 211.166 2
-1 25 -12 295.784 159.59 1
-12 -1 25 640.274 197.099 2
1 12 -25 648.893 309.614 1
-2 12 25 66.2301 93.2723 2
-2 25 -12 188.556 190.674 1
-12 -2 25 333.074 128.041 2
2 12 -25 167.309 200.412 1
3 12 -25 306.506 161.474 1
-3 12 25 233.686 159.28 2
-3 25 -12 235.376 109.555 1
-12 -3 25 612.1 184.304 2
12 25 -3 762.596 342.218 1
4 12 -25 242.065 164.185 1
-4 12 25 485.696 194.328 2
-4 25 -12 -68.9844 158.622 1
-12 -4 25 599.641 180.247 2
12 25 -4 349.227 184.05 1
12 25 -5 700.556 262.951 1
-5 12 25 1124.4 241.15 2
5 12 -25 733.956 294.889 1
-5 25 -12 682.252 200.914 1
-12 -5 25 1058.87 221.985 2
-6 12 25 2184.39 342.545 2
-12 -6 25 2075.78 338.721 2
6 12 -25 1129.23 336.549 1
-6 25 -12 1755.43 422.969 1
12 25 -6 1863.6 484.192 1
-7 12 25 1391.8 265.241 2
-7 25 -12 1128.78 338.676 1
-12 -7 25 1426.29 281.611 2
-8 12 25 221.037 122.529 2
-12 -8 25 274.165 150.205 2
-12 -9 25 4876.91 485.366 2
-9 12 25 5575.6 527.115 2
-10 12 25 1645.39 290.371 2
-12 -10 25 1305.12 253.981 2
-12 -11 25 2840.69 381.879 2
-11 12 25 3431.12 416.925 2
-12 12 25 1600.51 309.545 2
-12 -12 25 1503.69 275.535 2
-13 12 25 352.888 116.743 2
-13 11 25 1874.79 324.773 2
-13 10 25 341.245 128.512 2
-13 9 25 1371.2 254.357 2
-9 -13 25 1335.13 249.765 2
-13 8 25 908.064 225.289 2
-8 -13 25 715.857 194.814 2
-13 7 25 2696 363.9 2
-7 -13 25 2708.98 353.68 2
-6 -13 25 576.228 169.582 2
-13 6 25 711.851 210.2 2
5 13 25 601.21 170.907 2
-5 -13 25 643.422 188.445 2
-13 5 25 914.745 217.198 2
4 13 25 742.083 192.636 2
-4 -13 25 926.835 242.143 2
-13 4 25 385.011 141.432 2
4 25 -13 716.541 295.136 1
3 13 25 618.905 177.111 2
-3 -13 25 751.535 221.346 2
-3 13 -25 243.831 122.256 1
3 25 -13 272.519 173.35 1
-13 3 25 849.598 222.362 2
2 13 25 708.724 189.559 2
-2 13 -25 683.341 315.54 1
2 25 -13 412.03 189.558 1
-13 2 25 569.664 183.775 2
1 13 25 239.279 155.296 2
1 25 -13 503.793 230.777 1
-13 1 25 347.511 118.266 2
-1 13 -25 478.584 243.182 1
0 13 25 81.9706 87.4605 2
0 25 -13 104.422 174.158 1
-13 0 25 -90.1398 147.164 2
0 13 -25 -53.6834 150.055 1
-1 13 25 274.613 165.287 2
-1 25 -13 347.139 206.616 1
-13 -1 25 421.395 165.632 2
1 13 -25 513.141 260.677 1
2 13 -25 673.452 268.276 1
-2 13 25 366.954 161.449 2
-2 25 -13 973.197 316.834 1
-13 -2 25 475.631 149.892 2
3 13 -25 673.482 221.607 1
-3 13 25 523.161 195.472 2
-13 -3 25 935.087 239.209 2
-3 25 -13 599.735 271.065 1
4 13 -25 -292.518 206.886 1
-4 13 25 446.715 203.445 2
-4 25 -13 -162.221 149.24 1
13 25 -4 351.299 180.038 1
-13 -4 25 252.746 159.523 2
-5 13 25 732.404 227.155 2
5 13 -25 655.157 308.471 1
-5 25 -13 760.911 265.188 1
-13 -5 25 777.362 218.491 2
-6 13 25 902.941 217.187 2
-13 -6 25 892.889 202.376 2
-13 -7 25 2644.59 369.819 2
-7 13 25 2824.09 377.339 2
-8 13 25 549.885 182.562 2
-13 -8 25 551.44 195.553 2
-9 13 25 1230.21 248.437 2
-13 -9 25 998.313 238.556 2
-10 13 25 99.671 111.48 2
-13 -10 25 130.672 77.8848 2
-11 13 25 1621.51 313.833 2
-13 -11 25 1536.67 272.983 2
-12 13 25 556.46 193.538 2
-13 -12 25 580.566 178.967 2
-13 13 25 78.9137 95.2114 2
-14 13 25 1489.08 274.394 2
-14 12 25 341.13 129.456 2
-14 11 25 1722.02 302.022 2
-14 10 25 548.376 174.445 2
-14 9 25 3291.75 410.78 2
-14 8 25 717.454 195.948 2
-14 7 25 1111.13 259.817 2
-14 6 25 244.122 123.808 2
5 14 25 330.38 134.763 2
-14 5 25 240.62 141.905 2
4 14 25 478.64 156.886 2
-14 4 25 70.1043 86.2945 2
3 14 25 713.683 196.939 2
-14 3 25 839.699 208.667 2
2 14 25 712.363 180.064 2
-14 2 25 539.466 180.466 2
1 14 25 943.737 257.5 2
-14 1 25 1240.88 267.459 2
0 14 25 33.7415 108.702 2
-14 0 25 260.609 143.405 2
0 14 -25 236.86 156.442 1
-1 14 25 963.756 245.38 2
-14 -1 25 1182.66 224.253 2
-2 14 25 506.14 204.563 2
-14 -2 25 696.279 211.616 2
-3 14 25 475.857 209.035 2
-14 -3 25 784.789 217.296 2
-4 14 25 226.064 131.167 2
-14 -4 25 393.095 164.819 2
-5 14 25 467.494 163.795 2
-14 -5 25 385.182 138.738 2
-6 14 25 382.748 168.303 2
-14 -6 25 168.271 71.2211 2
-7 14 25 952.828 244.252 2
-14 -7 25 901.884 222.495 2
-8 14 25 667.8 204.109 2
-14 -8 25 632.426 185.186 2
-9 14 25 4014.67 463.262 2
-14 -9 25 3269.41 391.664 2
-10 14 25 531.293 191.536 2
-14 -10 25 512.834 162.506 2
-11 14 25 2044.44 328.375 2
-14 -11 25 1895.74 310.39 2
-12 14 25 421.661 167.374 2
-13 14 25 1482.28 285.938 2
-14 14 25 1388.91 275.558 2
-15 14 25 709.501 193.311 2
-15 13 25 -100.926 90.4578 2
-15 12 25 702.562 194.291 2
-15 11 25 444.666 156.403 2
-15 10 25 82.1165 134.304 2
-15 9 25 583.173 181.511 2
-15 8 25 480.857 171.503 2
-15 7 25 576.847 194.632 2
-15 6 25 1020.74 239.726 2
5 15 25 554.97 162.184 2
-15 5 25 403.31 168.992 2
4 15 25 406.597 148.196 2
-15 4 25 259.528 127.734 2
3 15 25 511.937 136.316 2
-15 3 25 465.148 140.318 2
2 15 25 382.064 133.652 2
-15 2 25 900.477 241.534 2
1 15 25 511.222 169.654 2
-15 1 25 426.883 156.091 2
0 15 25 2083.18 356.247 2
-15 0 25 2169.86 327.844 2
-1 15 25 124.139 139.31 2
-15 -1 25 478.924 157.91 2
-2 15 25 457.913 189.93 2
-15 -2 25 431.212 155.201 2
-3 15 25 471.29 199.553 2
-15 -3 25 551.754 396.536 2
-4 15 25 36.5582 140.206 2
-15 -4 25 350.233 141.112 2
-5 15 25 526.715 187.077 2
-15 -5 25 426.257 155.081 2
-6 15 25 875.682 225.172 2
-15 -6 25 701.543 222.459 2
-7 15 25 488.333 177.756 2
-15 -7 25 428.006 169.765 2
-8 15 25 587.39 194.765 2
-15 -8 25 378.704 107.404 2
-9 15 25 673.458 219.461 2
-15 -9 25 572.026 173.989 2
-10 15 25 43.0804 120.467 2
-15 -10 25 5.13438 84.4974 2
-11 15 25 300.124 119.53 2
-15 -11 25 268.559 135.916 2
-12 15 25 722.547 204.344 2
-13 15 25 351.105 174.749 2
-14 15 25 480.039 144.72 2
-15 15 25 156.044 138.775 2
-16 15 25 200.583 114.974 2
-16 14 25 437.123 166.272 2
-16 13 25 609.167 187.97 2
-16 12 25 489.286 189.218 2
-16 11 25 1813.09 299.21 2
-16 10 25 1378.5 265.251 2
-16 9 25 1177.34 245.794 2
-16 8 25 388.473 167.595 2
-16 7 25 836.992 212.074 2
-16 6 25 1035.29 249.762 2
5 16 25 507.427 150.905 2
-16 5 25 345.752 154.716 2
4 16 25 20.2912 62.5364 2
-16 4 25 225.086 145.594 2
3 16 25 100.944 102.158 2
-16 3 25 39.2531 73.5763 2
2 16 25 305.043 117.053 2
-16 2 25 387.526 144.297 2
-16 1 25 2931.36 375.179 2
1 16 25 2410.1 358.261 2
0 16 25 105.938 127.827 2
-16 0 25 390.749 135.491 2
-16 -1 25 2857.21 373.065 2
-1 16 25 2645.67 390.259 2
-2 16 25 186.756 130.642 2
-16 -2 25 405.364 139.361 2
-3 16 25 -16.257 90.7608 2
-16 -3 25 37.3541 119.677 2
-4 16 25 -45.4638 120.234 2
-16 -4 25 125.536 138.625 2
-5 16 25 433.341 152.1 2
-16 -5 25 699.212 176.779 2
-6 16 25 840.554 229.212 2
-16 -6 25 556.88 166.688 2
-7 16 25 827.623 213.797 2
-16 -7 25 504.601 142.566 2
-8 16 25 261.793 139.792 2
-16 -8 25 322.013 112.501 2
-9 16 25 1430.68 286.825 2
-16 -9 25 1632.43 274.529 2
-10 16 25 1357.07 274.443 2
-16 -10 25 1161.24 235.05 2
-11 16 25 2390.01 346.53 2
-12 16 25 290.068 141.202 2
-13 16 25 785.625 199.27 2
-14 16 25 452.569 183.578 2
-15 16 25 321.906 126.265 2
-16 16 25 321.561 174.803 2
-17 16 25 592.77 175.171 2
-16 25 17 486.097 186.156 2
-17 15 25 98.2317 82.4991 2
-17 14 25 145.127 147.653 2
-17 13 25 590.867 194.628 2
-17 12 25 1514.69 263.367 2
-17 11 25 28.1764 75.2404 2
-17 10 25 400.88 168.484 2
-17 9 25 -56.263 78.9352 2
-17 8 25 3673 414.75 2
-17 7 25 -6.2192 110.622 2
-17 6 25 587.592 182.316 2
-17 5 25 871.566 201.771 2
4 17 25 1510.36 249.082 2
-17 4 25 1324.97 253.395 2
3 17 25 476.987 293.49 2
-17 3 25 440.883 152.746 2
-17 2 25 2680.44 347.927 2
2 17 25 2763.93 338.353 2
1 17 25 240.893 161.915 2
-17 1 25 439.035 165.974 2
0 17 25 17.6856 72.8884 2
-17 0 25 -15.8133 99.5558 2
-1 17 25 224.023 163.327 2
-17 -1 25 423.561 131.84 2
-17 -2 25 3029.09 371.182 2
-2 17 25 2828.99 390.416 2
-3 17 25 288.058 171.063 2
-17 -3 25 511.24 144.884 2
-4 17 25 879.132 281.614 2
-17 -4 25 973.863 204.719 2
-5 17 25 968.728 222.86 2
-17 -5 25 1094.63 236.348 2
-6 17 25 473.411 170.112 2
-17 -6 25 252.411 99.8149 2
-7 17 25 20.941 127.117 2
-17 -7 25 340.729 151.79 2
-17 -8 25 3323.34 370.739 2
-8 17 25 2968.58 383.946 2
-9 17 25 281.078 142.012 2
-17 -9 25 96.1141 79.185 2
-10 17 25 611.452 202.782 2
-11 17 25 29.3313 86.802 2
-12 17 25 1725.24 303.136 2
-13 17 25 509.401 197.344 2
-14 17 25 104.992 136.736 2
-15 17 25 113.732 120.108 2
-16 17 25 620.203 171.248 2
-17 17 25 535.135 178.893 2
-17 25 17 473.857 147.073 2
-18 17 25 0.2055 76.6623 2
-17 25 18 186.037 140.824 2
-18 16 25 257.33 138.066 2
-16 25 18 41.7464 94.0007 2
-18 15 25 118.373 105.83 2
-15 25 18 -91.1769 92.6766 2
-18 14 25 314.466 145.599 2
-18 13 25 -71.6035 106.014 2
-18 12 25 1927.75 387.148 2
-18 11 25 280.913 132.223 2
-18 10 25 488.155 152.778 2
-18 9 25 521.399 167.779 2
-18 8 25 1636.56 285.223 2
-18 7 25 214.627 145.594 2
-18 6 25 -72.8502 86.2577 2
-18 5 25 325.649 117.134 2
4 18 25 706.014 169.595 2
-18 4 25 620.241 163.124 2
3 18 25 2212.64 309.107 2
-18 3 25 2351.39 331.404 2
2 18 25 578.907 180.666 2
-18 2 25 340.237 137.766 2
1 18 25 1190.23 238.685 2
-18 1 25 1260.65 248.768 2
0 18 25 30.2172 72.4825 2
-18 0 25 266.222 128.833 2
-1 18 25 764.719 244.286 2
-18 -1 25 1108.81 213.242 2
-2 18 25 464.021 172.176 2
-18 -2 25 327.04 74.6754 2
-3 18 25 2342.3 337.651 2
-18 -3 25 2563.62 330.292 2
-4 18 25 648.504 186.345 2
-18 -4 25 925.986 196.157 2
4 25 18 673.72 168.036 2
-5 18 25 337.461 189.098 2
-18 -5 25 424.115 165.875 2
-6 18 25 -57.4631 112.768 2
-18 -6 25 -6.30013 67.6478 2
-7 18 25 351.911 149.027 2
-18 -7 25 305.982 123.272 2
-8 18 25 1241.26 270.744 2
-18 -8 25 1011.35 203.905 2
-9 18 25 539.326 191.243 2
-18 -9 25 282.325 115.696 2
-10 18 25 237.996 128.107 2
-11 18 25 340.226 161.445 2
-12 18 25 1589.67 279.106 2
-13 18 25 277.43 164.391 2
-14 18 25 558.447 183.082 2
-15 18 25 310.655 133.449 2
-16 18 25 3.04921 87.0108 2
-18 25 16 -67.4393 101.336 2
-17 18 25 -4.80896 89.1071 2
-18 25 17 -97.1509 83.9655 2
-18 18 25 -93.1038 81.644 2
-18 25 18 118.958 115.834 2
-19 18 25 266.369 134.848 2
-18 25 19 -77.8646 78.5719 2
-19 17 25 -256.469 140.273 2
-17 25 19 -23.0154 94.2814 2
-19 16 25 130.409 125.395 2
-16 25 19 -5.59223 82.6032 2
-19 15 25 1113.99 234.535 2
-15 25 19 1236.73 248.984 2
-19 14 25 976.489 210.932 2
-14 25 19 1439.1 282.688 2
-13 25 19 116.781 122.429 2
-19 13 25 -55.8362 105.08 2
-12 25 19 15.5365 98.3653 2
-19 12 25 224.475 149.099 2
-19 11 25 1599.7 272.775 2
-19 10 25 2486.84 332.081 2
-19 9 25 334.324 124.106 2
-19 8 25 802.211 224.794 2
-19 7 25 305.203 151.965 2
-19 6 25 2639.24 341.854 2
-19 5 25 211.986 109.202 2
-19 4 25 3078.86 382.664 2
4 19 25 3107.04 343.581 2
3 19 25 630.53 160.926 2
-19 3 25 713.059 170.348 2
2 19 25 456.936 152.642 2
-19 2 25 735.444 184.385 2
1 19 25 157.332 102.479 2
-19 1 25 62.7895 77.4788 2
0 19 25 2276.71 308.124 2
-19 0 25 2227.52 299.894 2
-1 19 25 151.753 155.98 2
-19 -1 25 70.4795 100.944 2
-2 19 25 312.203 133.112 2
-19 -2 25 328.675 126.986 2
2 25 19 456.014 155.924 2
-3 19 25 963.314 210.845 2
-19 -3 25 672.442 154.743 2
3 25 19 775.678 165.545 2
-19 -4 25 3037.54 356.797 2
-4 19 25 3787.63 459.231 2
4 25 19 2877.8 327.844 2
-5 19 25 533.148 184.409 2
-19 -5 25 430.507 175.428 2
-6 19 25 2544.25 355.741 2
-19 -6 25 2400.52 309.287 2
-7 19 25 -36.5963 99.2194 2
-8 19 25 649.338 187.133 2
-9 19 25 146.233 92.0461 2
-10 19 25 2387.65 336.748 2
-11 19 25 1794.29 295.421 2
-12 19 25 468.736 187.943 2
-13 19 25 -12.9211 75.4826 2
-14 19 25 1341.16 266.387 2
-15 19 25 1197.2 230.6 2
-19 25 15 1306.9 258.195 2
-16 19 25 112.145 95.3775 2
-19 25 16 215.765 133.937 2
-17 19 25 2.62112 74.4718 2
-19 25 17 139.776 104.364 2
-18 19 25 -1.52501 104.781 2
-19 25 18 105.062 102.135 2
-19 19 25 186.782 103.942 2
-19 25 19 213.653 116.981 2
-20 19 25 26.3779 66.0877 2
-19 25 20 88.4435 78.1524 2
-20 18 25 1017.1 220.785 2
-18 25 20 941.242 230.076 2
-20 17 25 -14.0536 90.4425 2
-17 25 20 64.9563 97.5497 2
-20 16 25 5864.11 553.842 2
-16 25 20 572.541 154.901 2
-15 25 20 -167.815 140.88 2
-20 15 25 12.1127 83.9163 2
-14 25 20 419.858 180.559 2
-20 14 25 78.5091 97.1894 2
-13 25 20 429.198 155.775 2
-20 13 25 80.9506 131.604 2
-12 25 20 311.091 164.095 2
-20 12 25 -12.3872 103.182 2
-11 25 20 206.85 140.944 2
-20 11 25 70.7027 123.134 2
-10 25 20 1447.97 258.9 2
-20 10 25 1340.26 243.034 2
-9 25 20 432.318 168.402 2
-20 9 25 231.339 168.178 2
-8 25 20 756.887 205.715 2
-20 8 25 468.537 131.754 2
-7 25 20 142.348 138.472 2
-20 7 25 344.712 171.653 2
-6 25 20 919.779 211.032 2
-20 6 25 1019.38 204.696 2
-20 5 25 1020.95 211.564 2
4 20 25 454.817 131.448 2
-4 25 20 698.431 222.637 2
-20 4 25 573.718 153.073 2
3 20 25 137.186 77.3476 2
-3 25 20 247.506 152.428 2
-20 3 25 119.03 105.749 2
2 20 25 346.389 118.927 2
-2 25 20 397.838 107.459 2
-20 2 25 397.839 149.646 2
1 20 25 1222.26 222.163 2
-1 25 20 1597.44 281.317 2
-20 1 25 1404.78 252.728 2
0 20 25 986.025 222.376 2
0 25 20 543.149 158.467 2
-20 0 25 472.823 144.727 2
-1 20 25 889.206 195.001 2
1 25 20 954.116 197.693 2
-20 -1 25 1233.84 220.957 2
-2 20 25 363.683 164.622 2
2 25 20 402.155 145.608 2
-20 -2 25 193.098 76.7809 2
-3 20 25 181.519 145.692 2
3 25 20 21.5309 76.8611 2
-4 20 25 712.316 195.527 2
4 25 20 709.788 156.943 2
-5 20 25 981.806 218.69 2
-6 20 25 988.827 218.854 2
-7 20 25 373.657 179.196 2
-8 20 25 833.512 201.291 2
-9 20 25 251.374 121.593 2
-10 20 25 1469.3 270.572 2
-11 20 25 226.942 139.846 2
-12 20 25 212.931 132.372 2
-13 20 25 215.181 111.274 2
-14 20 25 117.688 96.8618 2
-20 25 14 356.598 109.115 2
-15 20 25 105.458 94.4469 2
-20 25 15 97.0806 126.394 2
-16 20 25 423.905 133.962 2
-20 25 16 418.88 136.435 2
-17 20 25 38.2033 77.225 2
-20 25 17 95.3272 117.907 2
-18 20 25 925.948 216.748 2
-20 25 18 1082.86 218.363 2
-19 20 25 41.6863 87.8526 2
-20 25 19 -23.5904 77.5899 2
-20 25 20 216.638 121.479 2
-20 20 25 46.8259 79.663 2
-20 25 21 308.306 121.244 2
-21 20 25 302.035 150.192 2
-19 25 21 39.4208 76.9582 2
-21 19 25 236.94 115.298 2
-18 25 21 50.8959 99.6515 2
-21 18 25 28.7828 99.3784 2
-17 25 21 1375.24 256.568 2
-21 17 25 640.454 254.339 2
-16 25 21 470.119 152.326 2
-21 16 25 12.5147 98.5652 2
-15 25 21 191.882 165.752 2
-21 15 25 154.456 113.982 2
-14 25 21 78.7342 79.2276 2
-21 14 25 0.36453 63.8208 2
-21 13 25 2466.11 305.66 2
-13 25 21 2588.02 327.974 2
-12 25 21 1187.12 245.303 2
-21 12 25 258.315 211.575 2
-11 25 21 108.557 92.4013 2
-21 11 25 19.7957 91.5003 2
-10 25 21 984.22 229.295 2
-21 10 25 228.733 191.87 2
-9 25 21 396.02 163.943 2
-21 9 25 82.4584 143.377 2
-21 8 25 2446.73 319.534 2
-8 25 21 2823.65 368.847 2
-7 25 21 207.819 131.179 2
-21 7 25 333.384 109.786 2
-6 25 21 1477.2 271.515 2
-21 6 25 1577.07 257.898 2
-5 25 21 292.523 132.07 2
-21 5 25 229.958 128.511 2
4 21 25 990.492 201.147 2
-4 25 21 826.929 186.598 2
-21 4 25 1081.82 219.262 2
3 21 25 350.685 114.722 2
-3 25 21 271.892 132.95 2
-21 3 25 648.55 179.688 2
2 21 25 617.989 184.28 2
-2 25 21 749.349 192.176 2
-21 2 25 681.411 155.642 2
1 21 25 494.842 175.845 2
-1 25 21 530.435 189.116 2
0 21 25 144.855 95.5854 2
0 25 21 25.4859 107.548 2
-1 21 25 419.002 163.856 2
1 25 21 651.914 173.046 2
-2 21 25 842.301 210.44 2
2 25 21 870.779 199.971 2
-3 21 25 469.601 178.925 2
3 25 21 238.076 93.6031 2
-4 21 25 741.614 198.382 2
4 25 21 651.241 143.035 2
-5 21 25 490.182 179.337 2
-6 21 25 1788.69 293.664 2
-7 21 25 343.559 129.505 2
-8 21 25 2480.87 346.773 2
-9 21 25 453.502 163.177 2
-10 21 25 1188.04 231.579 2
-11 21 25 256.345 135.216 2
-12 21 25 1607.12 277.508 2
-13 21 25 2882.92 362.884 2
-21 25 13 2560.79 333.053 2
-14 21 25 -5.43887 107.135 2
-21 25 14 141.571 143.536 2
-15 21 25 554.248 196.426 2
-21 25 15 244.126 123.085 2
-16 21 25 180.273 128.632 2
-21 25 16 173.55 117.331 2
-17 21 25 901.698 227.4 2
-21 25 17 822.635 182.128 2
-18 21 25 23.3289 81.2528 2
-21 25 18 -13.7218 83.4761 2
-19 21 25 93.5775 112.388 2
-21 25 19 43.7596 74.4321 2
-21 25 20 399.652 156.214 2
-20 21 25 111.822 133.086 2
-21 25 21 256.936 110.579 2
-21 21 25 44.7768 125.957 2
-20 25 22 652.782 157.615 2
-22 20 25 47.0609 129.788 2
-19 25 22 30.1011 60.3998 2
-22 19 25 11.0089 50.4291 2
-18 25 22 70.0929 100.074 2
-22 18 25 44.9579 115.653 2
-17 25 22 231.029 144.5 2
-22 17 25 17.5793 74.0036 2
-16 25 22 1156.18 222.289 2
-22 16 25 203.661 196.425 2
-15 25 22 242.772 160.998 2
-22 15 25 2.40485 74.3147 2
-14 25 22 336.273 148.352 2
-22 14 25 70.9974 127.907 2
-13 25 22 442.893 146.578 2
-22 13 25 38.831 115.168 2
-12 25 22 833.207 204.129 2
-22 12 25 323.406 218.786 2
-11 25 22 342.279 146.597 2
-22 11 25 5.13894 94.7868 2
-10 25 22 82.5635 93.8952 2
-22 10 25 128.741 167.685 2
-9 25 22 554.705 186.267 2
-22 9 25 343.347 113.709 2
-8 25 22 717.001 166.137 2
-22 8 25 1168.19 230.667 2
-7 25 22 -22.8985 82.2385 2
-22 7 25 -5.122 77.8052 2
-22 6 25 430.067 128.394 2
-6 25 22 386.533 147.863 2
-5 25 22 257.65 124.054 2
-4 25 22 526.097 188.217 2
3 22 25 374.151 132.289 2
-3 25 22 334.378 169.739 2
2 22 25 321.984 131.414 2
-2 25 22 330.385 149.256 2
1 22 25 172.133 98.079 2
-1 25 22 158.434 111.082 2
0 22 25 224.568 100.729 2
0 25 22 70.2232 95.2443 2
-1 22 25 124.743 90.9189 2
1 25 22 215.149 124.939 2
-2 22 25 218.855 143.366 2
2 25 22 169.904 106.522 2
-3 22 25 265.681 125.814 2
3 25 22 424.325 141.329 2
-4 22 25 372.993 159.354 2
-5 22 25 205.827 141.715 2
-6 22 25 297.505 123.616 2
-7 22 25 313.913 154.585 2
-8 22 25 597.122 174.037 2
-9 22 25 499.98 164.315 2
-10 22 25 178.501 111.225 2
-11 22 25 337.282 132.162 2
-12 22 25 1194.91 249.256 2
-22 25 12 923.997 190.19 2
-13 22 25 697.342 187.447 2
-22 25 13 360.586 112.75 2
-14 22 25 -22.8946 104.878 2
-22 25 14 110.109 83.4927 2
-15 22 25 539.53 160.35 2
-22 25 15 -174.249 123.133 2
-16 22 25 1221.15 227.141 2
-22 25 16 1067.32 207.642 2
-17 22 25 41.44 89.9731 2
-22 25 17 41.3572 84.3291 2
-18 22 25 235.999 131.856 2
-22 25 18 166.282 98.695 2
-19 22 25 -12.0161 78.0273 2
-22 25 19 76.2903 93.7407 2
-22 25 20 357.293 113.369 2
-20 22 25 276.299 117.817 2
-19 25 23 8.02108 56.0074 2
-23 19 25 -2.0023 42.8222 2
-18 25 23 346.972 145.248 2
-23 18 25 84.1015 125.997 2
-17 25 23 110.594 108.282 2
-23 17 25 -19.2291 66.3348 2
-16 25 23 30.5506 99.7338 2
-23 16 25 41.7812 101.095 2
-15 25 23 2003.06 292.348 2
-23 15 25 2016.06 240.187 2
-14 25 23 615.297 169.512 2
-23 14 25 199.067 177.557 2
-13 25 23 249.243 91.6633 2
-23 13 25 31.9277 134.633 2
-12 25 23 874.204 218.358 2
-23 12 25 990.415 198.411 2
-11 25 23 772.368 194.643 2
-23 11 25 376.609 102.113 2
-10 25 23 895.016 198.31 2
-9 25 23 141.316 86.8951 2
-8 25 23 416.827 153.772 2
-7 25 23 -69.9518 99.7165 2
-6 25 23 394.839 148.691 2
-5 25 23 125.816 139.734 2
-4 25 23 673.566 199.364 2
3 23 25 121.584 77.6595 2
-3 25 23 75.8266 110.384 2
2 23 25 81.7956 60.1265 2
-2 25 23 158.374 111.502 2
1 23 25 106.525 130.812 2
-1 25 23 160.015 109.532 2
0 23 25 -44.8892 81.5804 2
0 25 23 65.0353 117.878 2
-1 23 25 111.279 134.659 2
1 25 23 239.876 144.727 2
-2 23 25 389.472 157.618 2
2 25 23 129.448 99.5786 2
3 25 23 31.8723 59.4314 2
-3 23 25 179.688 115.688 2
-4 23 25 480.626 175.039 2
-5 23 25 41.5556 89.0535 2
-6 23 25 537.821 145.622 2
-7 23 25 -45.4015 93.2418 2
-8 23 25 503.579 171.267 2
-9 23 25 351.525 149.595 2
-10 23 25 966.998 205.136 2
-23 25 10 798.953 181.808 2
-11 23 25 595.475 183.365 2
-23 25 11 563.972 151.176 2
-12 23 25 839.808 196.972 2
-23 25 12 986.3 197.884 2
-13 23 25 -23.3461 76.3267 2
-23 25 13 283.494 102.943 2
-14 23 25 484.909 163.206 2
-23 25 14 668.144 156.38 2
-15 23 25 1966.44 286.431 2
-23 25 15 2108.3 252.365 2
-16 23 25 73.9804 99.0596 2
-23 25 16 110.681 75.375 2
-17 23 25 133.636 93.9414 2
-23 25 17 108.602 87.4763 2
-18 23 25 516.216 157.527 2
-23 25 18 407.439 134.183 2
-19 23 25 125.589 99.0052 2
-23 25 19 -43.5612 59.902 2
-18 25 24 623.158 169.139 2
-17 25 24 74.9519 78.5738 2
-16 25 24 35.1049 82.4487 2
-15 25 24 125.175 85.5731 2
-14 25 24 402.639 137.691 2
-13 25 24 138.33 80.7487 2
-12 25 24 8.6555 71.6941 2
-11 25 24 540.576 163.206 2
-10 25 24 487.344 148.56 2
-9 25 24 24.5331 99.2583 2
-8 25 24 194.54 141.993 2
-7 25 24 -48.7867 101.41 2
-6 25 24 67.1525 84.5273 2
-5 25 24 138.473 119.781 2
-4 25 24 117.555 121.349 2
3 24 25 603.403 160.897 2
-3 25 24 377.757 137.069 2
2 24 25 26.9053 61.3439 2
-2 25 24 170.534 89.0113 2
1 24 25 202.764 106.828 2
-1 25 24 117.434 96.8165 2
0 24 25 5.34378 77.5468 2
0 25 24 43.8539 69.116 2
-1 24 25 229.325 115.763 2
1 25 24 296.294 103.478 2
2 25 24 -154.686 107.027 2
-2 24 25 62.1099 85.1727 2
3 25 24 433.67 140.556 2
-3 24 25 230.634 132.097 2
-4 24 25 90.2068 109.083 2
-5 24 25 2.1928 82.6813 2
-6 24 25 131.724 97.3482 2
-7 24 25 -15.2969 82.6347 2
-8 24 25 74.4766 99.5301 2
-9 24 25 -166.112 109.47 2
-10 24 25 334.74 139.576 2
-11 24 25 454.862 138.232 2
-12 24 25 57.3184 85.5094 2
-13 24 25 150.986 116.443 2
-14 24 25 435.558 146.505 2
-15 24 25 120.656 72.4974 2
-16 24 25 73.3855 66.8627 2
-17 24 25 211.238 124.048 2
-18 24 25 769.876 189.592 2
0 25 25 76.5066 76.9555 2
1 25 25 -10.1565 60.6785 2
-1 25 25 -36.5061 71.5843 2
2 25 25 -17.3033 72.6442 2
-2 25 25 200.212 90.1118 2
-3 25 25 5.63266 85.4468 2
-4 25 25 15.3502 64.4965 2
-5 25 25 488.301 176.045 2
-6 25 25 -111.284 125.265 2
-7 25 25 128.662 98.015 2
-8 25 25 -113.83 105.066 2
-9 25 25 82.0018 105.464 2
-10 25 25 -89.5431 106.674 2
-11 25 25 -23.6995 71.9647 2
-12 25 25 265.513 125.642 2
-13 25 25 918.885 199.018 2
-14 25 25 -30.9963 62.6427 2
-15 25 25 152.692 99.2455 2
-16 25 25 152.193 111.315 2
0 0 26 -54.8329 69.195 2
0 -1 26 -89.6822 123.843 2
1 0 26 112.17 86.3411 2
-1 0 26 1.34712 105.13 2
0 1 26 58.2326 107.327 2
1 -1 26 45.5238 73.7387 2
-1 -1 26 -56.3283 104.653 2
1 1 26 -160.27 107.995 2
-1 1 26 156.885 133.66 2
1 26 -2 228.2 145.565 1
2 -1 26 460.006 145.192 2
-1 -2 26 340.373 153.389 2
1 2 26 368.505 164.35 2
-2 1 26 337.921 140.695 2
0 -2 26 850.845 218.995 2
2 0 26 561.078 243.541 2
-2 0 26 363.98 121.115 2
0 2 26 799.235 242.438 2
2 26 -1 572.988 232.871 1
1 -2 26 974.584 253.995 2
-2 -1 26 521.122 168.447 2
2 1 26 225.602 124.826 2
-1 2 26 389.064 170.575 2
2 26 -2 761.08 273.58 1
2 -2 26 1098.35 231.197 2
-2 -2 26 1150.3 226.711 2
2 2 26 771.498 179.914 2
-2 2 26 1376.35 253.547 2
3 -2 26 97.5977 92.2612 2
-2 -3 26 23.633 86.7173 2
2 3 26 24.9184 95.6054 2
-3 2 26 122.545 135.294 2
2 26 -3 -12.4904 94.7545 1
-1 -3 26 222.827 84.013 2
3 -1 26 -0.21973 84.062 2
1 3 26 80.0931 79.6244 2
1 26 -3 177.932 118.559 1
0 -3 26 23.1091 75.9775 2
3 0 26 174.216 103.349 2
3 26 0 59.0973 109.874 1
0 26 -3 150.559 153.928 1
-3 0 26 121.528 91.2418 2
0 3 26 93.5978 129.713 2
1 -3 26 7.27503 75.0477 2
3 1 26 269.975 130.603 2
-3 -1 26 427.493 157.223 2
3 26 -1 196.197 76.3886 1
-1 3 26 344.617 153.271 2
3 26 -2 2.68851 98.0195 1
2 -3 26 352.253 130.402 2
-3 -2 26 69.3186 122.792 2
3 2 26 137.363 113.196 2
-2 3 26 -189.423 119.548 2
3 26 -3 -136.033 128.982 1
3 -3 26 -31.8174 81.0898 2
-3 -3 26 169.967 122.092 2
3 3 26 -61.3498 101.822 2
-3 3 26 184.668 129.138 2
4 -3 26 1271.86 224.594 2
-3 -4 26 1160.41 238.723 2
3 4 26 1264.48 221.762 2
3 26 -4 1197.34 327.001 1
-4 3 26 1577.87 283.601 2
4 -2 26 343.636 150.79 2
-2 -4 26 251.206 98.07 2
2 26 -4 -85.2559 107.676 1
2 4 26 156.295 109.751 2
-4 2 26 338.613 138.843 2
4 26 1 3.08002 163.151 1
1 26 -4 342.217 190.24 1
-1 -4 26 415.554 160.506 2
4 -1 26 331.357 134.582 2
-4 1 26 587.809 192.051 2
0 26 -4 131.123 122.854 1
0 -4 26 77.4741 102.561 2
4 26 0 198.026 130.973 1
4 0 26 12.5122 102.119 2
-4 0 26 108.28 97.2917 2
0 4 26 -83.5317 112.146 2
4 26 -1 95.945 134.223 1
-1 26 -4 328.722 123.212 1
1 -4 26 468.877 155.097 2
4 1 26 573.392 158.841 2
-4 -1 26 664.313 188.814 2
-1 4 26 521.858 170.98 2
2 -4 26 109.555 96.681 2
4 26 -2 -10.0688 114.532 1
-4 -2 26 246.349 92.9104 2
4 2 26 265.331 151.642 2
-2 4 26 58.8424 96.9391 2
4 26 -3 948.689 320.734 1
3 -4 26 1228.85 256.64 2
-4 -3 26 1390.16 265.716 2
4 3 26 1306.04 255.935 2
-3 4 26 1275.33 243.668 2
4 26 -4 1569.44 358.492 1
4 -4 26 2655.45 351.894 2
-4 -4 26 2479.31 350.876 2
4 4 26 2305.99 309.096 2
-4 4 26 2506.28 346.029 2
5 -4 26 103.954 103.416 2
-4 -5 26 -41.6497 103.38 2
4 5 26 103.957 104.256 2
4 26 -5 -37.969 138.368 1
-5 4 26 223.591 140.194 2
5 -3 26 193.239 105.913 2
-3 -5 26 483.615 175.873 2
3 26 -5 314.428 147.345 1
3 5 26 289.92 131.14 2
-5 3 26 485.605 197.21 2
2 26 -5 280.729 189.932 1
5 -2 26 470.41 166.74 2
-2 -5 26 254.384 120.921 2
-5 2 26 515.436 141.159 2
2 5 26 200.643 125.304 2
5 26 1 471.964 213.388 1
1 26 -5 216.391 97.0765 1
-1 -5 26 1047.82 240.045 2
5 -1 26 906.186 216.061 2
-5 1 26 688.185 198.064 2
1 5 26 828.608 197.633 2
0 26 -5 128.714 82.2377 1
0 -5 26 247.065 151.537 2
5 0 26 234.637 114.991 2
-5 0 26 229.12 130.392 2
0 5 26 156.42 106.945 2
5 26 0 280.453 209.945 1
-1 26 -5 661.63 241.432 1
5 26 -1 370.165 204.3 1
1 -5 26 542.037 130.418 2
5 1 26 756.461 179.542 2
-5 -1 26 510.955 160.502 2
-1 5 26 700.831 180.206 2
-2 26 -5 40.5778 172.972 1
2 -5 26 505.581 180.162 2
5 2 26 367.982 114.382 2
-5 -2 26 618.169 179.15 2
5 26 -2 15.0098 119.356 1
-2 5 26 305.027 123.098 2
3 -5 26 281.787 115.179 2
5 26 -3 218.346 160.086 1
-5 -3 26 449.366 204.142 2
5 3 26 329.969 136.345 2
-3 5 26 503.28 169.973 2
5 26 -4 205.351 221.216 1
4 -5 26 39.4485 96.6712 2
-5 -4 26 149.801 110.473 2
5 4 26 210.762 99.8083 2
-4 5 26 223.167 132.266 2
5 26 -5 411.282 233.255 1
5 -5 26 351.371 133.475 2
-5 -5 26 390.408 137.554 2
5 5 26 393.41 151.654 2
-5 5 26 326.291 156.22 2
6 -5 26 806.099 192.316 2
-5 -6 26 763.513 202.053 2
5 6 26 917.499 245.031 2
5 26 -6 578.356 285.058 1
-6 5 26 1050.08 233.713 2
6 -4 26 204.529 128.567 2
-4 -6 26 22.0584 79.7479 2
4 26 -6 110.717 143.114 1
4 6 26 0.82915 86.3529 2
-6 4 26 260.679 167.22 2
6 -3 26 179.553 117.295 2
3 26 -6 -46.3517 201.575 1
-3 -6 26 331.844 146.478 2
3 6 26 394.326 149.553 2
-6 3 26 261.841 157.042 2
2 26 -6 1082.42 342.336 1
6 -2 26 756.877 201.156 2
-2 -6 26 937.345 227.593 2
-6 2 26 882.319 200.227 2
2 6 26 860.954 220.706 2
1 26 -6 1699.77 401.044 1
-6 1 26 2033.5 328.992 2
-1 -6 26 2216.22 329.606 2
6 -1 26 1821.68 281.278 2
1 6 26 1757.9 290.363 2
0 26 -6 -12.4412 134.916 1
6 26 0 104.5 121.796 1
0 -6 26 110.567 87.4722 2
6 0 26 -5.47436 69.3059 2
-6 0 26 -64.9661 67.1136 2
0 6 26 270.053 137.777 2
-1 26 -6 1046.46 261.473 1
-6 -1 26 2326.26 356.524 2
1 -6 26 2365.3 333.707 2
6 1 26 1597.49 265.148 2
6 26 -1 1288.07 356.585 1
1 6 -26 1684.1 407.87 1
-1 6 26 1963.8 308.593 2
-2 26 -6 865.128 296.864 1
6 26 -2 1024.02 278.892 1
2 -6 26 1488.73 266.54 2
6 2 26 937.715 211.674 2
-6 -2 26 998.328 231.746 2
-2 6 26 751.606 239.719 2
3 -6 26 29.6012 95.5824 2
-6 -3 26 158.757 128.572 2
6 3 26 48.3931 79.0395 2
6 26 -3 -85.0365 188.999 1
-3 26 -6 -87.5442 177.251 1
-3 6 26 -29.6671 92.1973 2
4 -6 26 296.34 178.728 2
-6 -4 26 126.095 87.3439 2
6 4 26 110.573 127.405 2
-4 6 26 156.335 118.668 2
6 26 -5 457.836 139.484 1
5 -6 26 447.635 138.536 2
-6 -5 26 613.602 211.662 2
6 5 26 516.321 171.981 2
-5 6 26 851.154 227.271 2
6 26 -6 807.301 262.241 1
6 -6 26 976.043 214.945 2
-6 -6 26 952.19 226.916 2
6 6 26 1001.75 206.858 2
-6 6 26 821.769 204.067 2
7 -6 26 1021.92 214.259 2
-6 -7 26 1280.17 264.731 2
6 7 26 1148.89 217.7 2
6 26 -7 785.689 296.734 1
-7 6 26 1198.34 237.762 2
7 -5 26 -117.857 86.9328 2
-5 -7 26 157.193 146.031 2
5 26 -7 77.8218 211.677 1
5 7 26 190.893 180.218 2
-7 5 26 293.214 142.317 2
7 -4 26 633.278 202.819 2
-4 -7 26 450.978 165.532 2
4 26 -7 476.713 199.724 1
4 7 26 486.093 164.564 2
-7 4 26 513.633 203.487 2
3 26 -7 1173.36 325.671 1
7 -3 26 1114.07 250.033 2
-3 -7 26 1044.43 254.321 2
-7 3 26 991.031 234.798 2
3 7 26 1089.73 220.201 2
2 26 -7 573.372 243.935 1
7 -2 26 576.127 192.567 2
-2 -7 26 609.858 190.267 2
-7 2 26 551.064 185.042 2
2 7 26 615.162 209.84 2
1 26 -7 461.507 228.928 1
-1 -7 26 748.96 205.61 2
7 -1 26 472.658 169.562 2
-7 1 26 476.27 174.348 2
1 7 26 450.131 195.193 2
0 26 -7 686.867 298.107 1
0 -7 26 991.605 233.356 2
7 26 0 681.728 296.79 1
7 0 26 922.768 217.652 2
-7 0 26 944.237 223.172 2
0 7 26 429.985 198.174 2
-1 26 -7 134.76 129.142 1
7 26 -1 479.982 230.897 1
1 -7 26 242.551 90.9617 2
7 1 26 364.262 152.228 2
1 7 -26 456.701 217.634 1
-7 -1 26 753.213 223.975 2
-1 7 26 123.835 111.656 2
2 -7 26 614.177 189.51 2
7 26 -2 578.515 233.494 1
7 2 26 653.068 193.29 2
-7 -2 26 920.207 272.454 2
2 7 -26 699.924 295.258 1
-2 26 -7 447.031 220.65 1
-2 7 26 465.533 195.671 2
-3 7 26 757.984 222.734 2
7 26 -3 1120.75 346.423 1
3 -7 26 1077.8 279.588 2
7 3 26 1035.3 223.017 2
-7 -3 26 1265.73 267.511 2
-3 26 -7 810.279 271.798 1
-4 7 26 446.218 129.471 2
4 -7 26 619.089 199.141 2
-7 -4 26 562.67 179.001 2
7 4 26 213.51 89.6747 2
7 26 -4 582.766 205.139 1
-4 26 -7 373.137 225.308 1
-5 7 26 117.274 109.428 2
7 26 -5 210.458 157.572 1
5 -7 26 -232.261 121.937 2
-7 -5 26 59.7078 92.8946 2
-6 7 26 1318.26 267.054 2
7 26 -6 999.864 312.753 1
6 -7 26 1290.23 252.293 2
-7 -6 26 1572.01 299.696 2
-7 7 26 1467.77 274.234 2
7 26 -7 701.41 246.034 1
-7 -7 26 1110.05 246.016 2
7 -7 26 1259.53 246.305 2
8 -7 26 -41.0388 107.172 2
-7 -8 26 -122.872 106.04 2
7 26 -8 24.4835 186.809 1
8 -6 26 277.206 92.7687 2
-6 -8 26 284.029 108.28 2
6 26 -8 208.047 171.343 1
6 8 26 238.447 99.1133 2
-8 6 26 477.882 179.786 2
-5 -8 26 1762.66 314.739 2
5 26 -8 800.447 293.381 1
8 -5 26 1268.73 227.121 2
5 8 26 1361.32 238.922 2
-8 5 26 1586.3 278.94 2
4 26 -8 325.728 180.894 1
8 -4 26 461.474 165.647 2
-4 -8 26 404.504 158.234 2
4 8 26 249.598 148.344 2
-8 4 26 295.631 134.626 2
3 26 -8 1465.67 363.575 1
-8 3 26 2283.85 343.524 2
8 -3 26 2086.97 308.034 2
-3 -8 26 2676.93 373.085 2
3 8 26 2091.62 307.553 2
8 -2 26 210.866 65.2589 2
-2 -8 26 190.528 136.731 2
-8 2 26 382.616 166.151 2
2 8 26 56.5401 92.9413 2
1 26 -8 684.816 260.214 1
-1 -8 26 1125.66 262.186 2
8 -1 26 889.75 187.751 2
-8 1 26 1053.71 238.89 2
1 8 26 532.157 187.52 2
0 26 -8 -95.4591 210.672 1
0 -8 26 337.426 143.071 2
8 0 26 174.274 86.5148 2
0 8 -26 221.633 144.199 1
-8 0 26 220.002 132.345 2
0 8 26 25.6724 85.5118 2
-1 8 26 691.81 242.64 2
1 -8 26 873.49 215.708 2
-8 -1 26 923.351 231.79 2
1 8 -26 1086.41 344.077 1
8 26 -1 994.71 313.711 1
-1 26 -8 547.03 187.026 1
-2 8 26 68.5976 142.584 2
2 -8 26 264.722 148.329 2
-8 -2 26 308.451 142.071 2
-2 26 -8 151.695 180.641 1
2 8 -26 271.63 90.8007 1
8 26 -2 13.9176 113.205 1
-3 8 26 1774.59 324.506 2
3 -8 26 2197.49 369.749 2
8 26 -3 1427.02 368.11 1
-8 -3 26 2124.12 316.976 2
-3 26 -8 1712.29 412.18 1
8 26 -4 275.109 117.421 1
-4 8 26 308.082 176.038 2
4 -8 26 504.145 184.509 2
-8 -4 26 78.8973 85.1126 2
-4 26 -8 551.65 272.048 1
-5 8 26 1289.62 253.178 2
5 -8 26 1167.8 260.993 2
-8 -5 26 1345.45 269.942 2
8 26 -5 1408.18 417.666 1
-6 8 26 401.233 145.692 2
6 -8 26 528.916 190.412 2
8 26 -6 860.672 360.604 1
-8 -6 26 369.477 149.596 2
-7 8 26 33.0721 93.7251 2
8 26 -7 -191.134 198.336 1
7 -8 26 63.1387 113.284 2
-8 -7 26 119.125 139.21 2
-8 8 26 804.355 219.473 2
8 26 -8 629.198 220.162 1
-8 -8 26 828.517 222.681 2
-9 8 26 1862.94 308.305 2
-8 -9 26 1650 287.389 2
-9 7 26 -43.7891 114.187 2
-7 -9 26 120.041 104.224 2
7 26 -9 265.13 183.606 1
9 -6 26 858.33 222.511 2
-6 -9 26 731.528 198.297 2
6 26 -9 508.816 269.505 1
6 9 26 639.044 167.682 2
-9 6 26 856.896 223.163 2
9 -5 26 807.611 192.918 2
5 26 -9 711.564 276.472 1
-5 -9 26 751.903 201.252 2
5 9 26 695.164 199.656 2
-9 5 26 1000.98 228.501 2
4 26 -9 2341.5 491.229 1
4 9 26 2182.02 313.242 2
9 -4 26 2065.69 303.959 2
-4 -9 26 2408.42 336.32 2
-9 4 26 2577.5 356.443 2
3 26 -9 721.514 286.982 1
9 -3 26 361.879 100.287 2
-3 -9 26 510.683 195.373 2
-9 3 26 544.595 189.965 2
3 9 26 405.833 148.318 2
2 26 -9 985.779 275.922 1
-2 -9 26 1085.13 247.502 2
-9 2 26 1053.96 234.148 2
2 9 26 603.241 210.057 2
1 9 26 1603.55 311.325 2
1 26 -9 2312.88 482.524 1
-1 -9 26 2070.04 318.539 2
-9 1 26 1884.39 287.539 2
0 9 26 145.576 129.516 2
0 -9 26 280.226 160.47 2
0 9 -26 423.262 255.952 1
-9 0 26 493.372 175.61 2
0 26 -9 14.4687 82.3752 1
-1 9 26 1268.94 311.278 2
1 -9 26 2174.34 325.278 2
-9 -1 26 2164.21 317.754 2
1 9 -26 1610.9 445.285 1
9 26 -1 1737.3 413.738 1
-1 26 -9 1049.59 268.396 1
-2 9 26 965.514 226.587 2
2 -9 26 718.238 200.513 2
9 26 -2 768.009 293.33 1
-9 -2 26 1267.82 251.075 2
-2 26 -9 1031.9 311.682 1
2 9 -26 1410.29 407.591 1
-3 9 26 371.36 191.533 2
-9 -3 26 527.057 195.309 2
3 -9 26 549.845 190.888 2
-3 26 -9 412.108 240.692 1
9 26 -3 533.327 218.462 1
3 9 -26 381.41 211.227 1
4 -9 26 2128.97 358.545 2
-9 -4 26 2254.9 348.145 2
-4 9 26 2252.84 340.354 2
9 26 -4 1811.87 438.152 1
-4 26 -9 1559.9 372.487 1
9 26 -5 1000.53 351.045 1
-5 9 26 969.612 222.025 2
5 -9 26 513.102 188.433 2
-9 -5 26 791.322 200.913 2
-5 26 -9 612.521 239.59 1
-6 9 26 922.911 226.953 2
-9 -6 26 860.992 217.532 2
9 26 -6 876.477 349.985 1
-7 9 26 -22.8358 115.742 2
-9 -7 26 130.775 78.1311 2
-8 9 26 1985.51 323.062 2
-9 -8 26 1882.57 310.884 2
-9 9 26 1152.18 251.303 2
-9 -9 26 1301.15 268.939 2
-10 9 26 1702.06 287.867 2
-9 -10 26 1260.8 256.159 2
-10 8 26 1829.68 308.937 2
-8 -10 26 1603.68 299.876 2
-10 7 26 2344.79 348.736 2
-7 -10 26 2112.15 319.216 2
-6 -10 26 132.126 122.327 2
6 26 -10 282.545 239.468 1
6 10 26 287.336 143.001 2
-10 6 26 350.509 110.269 2
-5 -10 26 684.959 194.737 2
5 26 -10 676.633 280.981 1
5 10 26 787.169 192.596 2
-10 5 26 681.836 181.848 2
4 26 -10 90.2239 112.374 1
-4 -10 26 180.972 133.706 2
-10 4 26 18.185 80.1644 2
4 10 26 -58.0724 84.4867 2
3 26 -10 527.434 193.781 1
-3 -10 26 778.161 207.28 2
-10 3 26 626.247 190.549 2
3 10 26 530.206 162.553 2
2 10 26 689.654 219.249 2
2 26 -10 519.191 206.118 1
-2 -10 26 751.834 178.09 2
-10 2 26 1059.2 250.702 2
1 10 26 68.2158 106.985 2
-1 -10 26 394.63 172.758 2
-1 10 -26 -27.5929 177.251 1
-10 1 26 222.132 140.185 2
1 26 -10 280.99 93.8962 1
0 10 26 129.831 139.079 2
0 -10 26 320.871 127.666 2
-10 0 26 364.731 147.766 2
0 10 -26 100.641 96.2691 1
0 26 -10 110.143 125.655 1
-1 10 26 92.2441 115.015 2
1 -10 26 203.164 163.021 2
-10 -1 26 549.258 193.57 2
-1 26 -10 -5.06043 141.223 1
1 10 -26 155.888 146.53 1
-2 10 26 567.409 180.403 2
10 26 -2 310.487 183.911 1
2 -10 26 890.796 246.824 2
-2 26 -10 339.023 218.542 1
2 10 -26 405.972 242.462 1
3 10 -26 1181.3 352.159 1
-3 10 26 680.125 233.241 2
3 -10 26 751.188 191.628 2
10 26 -3 786.49 287.153 1
-3 26 -10 710.459 291.732 1
-10 -3 26 1092.47 252.226 2
-4 10 26 -9.69961 74.8391 2
4 10 -26 204.636 208.225 1
4 -10 26 6.65365 114.808 2
-4 26 -10 197.639 165.67 1
-10 -4 26 123.29 101.193 2
10 26 -4 -201.116 241.195 1
-5 10 26 560.279 155.287 2
10 26 -5 570.438 312.01 1
-5 26 -10 289.061 96.7658 1
-10 -5 26 657.89 193.353 2
-6 10 26 199.765 85.9571 2
10 26 -6 563.943 268.603 1
-10 -6 26 439.018 173.399 2
-7 10 26 2282.88 340.163 2
-10 -7 26 1994.85 320.61 2
-8 10 26 1446.44 284.64 2
-10 -8 26 1608.19 275.628 2
-9 10 26 1417.08 266.372 2
-10 -9 26 1413.54 269.725 2
-10 -10 26 2668.36 360.181 2
-10 10 26 3183.08 411.345 2
-11 10 26 869.715 218.777 2
-10 -11 26 821.167 203.496 2
-11 9 26 367.875 184.007 2
-9 -11 26 416.618 163.825 2
-8 -11 26 4187.2 454.146 2
-11 8 26 4319.98 475.248 2
-7 -11 26 2458.44 354.476 2
-11 7 26 2874.26 369.481 2
-6 -11 26 1795.94 304.988 2
-11 6 26 1716.8 291.292 2
-5 -11 26 416.129 185.212 2
5 11 26 387.337 126.833 2
-11 5 26 357.147 141.813 2
4 26 -11 249.171 158.121 1
-4 -11 26 308.628 129.174 2
-11 4 26 508.786 174.69 2
4 11 26 428.517 135.749 2
3 11 26 2044.77 294.522 2
3 26 -11 1260.55 321.043 1
-3 -11 26 2047.92 336.198 2
-11 3 26 1552.61 286.068 2
2 11 26 1151.59 214.628 2
-2 -11 26 1052.6 242.712 2
-2 11 -26 578.815 191.858 1
-11 2 26 1058.44 244.391 2
2 26 -11 1076.88 357.879 1
1 11 26 999.818 238.343 2
-1 -11 26 1735.7 303.517 2
-1 11 -26 989.433 295.657 1
-11 1 26 1641.25 286.257 2
1 26 -11 1165.09 360.903 1
0 11 26 20.8078 69.7176 2
0 -11 26 -132.69 132.514 2
-11 0 26 181.617 154.111 2
0 26 -11 -41.027 95.3482 1
0 11 -26 116.258 180.079 1
-1 11 26 1349.4 300.256 2
1 -11 26 1747.91 291.22 2
-1 26 -11 1309.77 374.177 1
-11 -1 26 2093.17 337.506 2
1 11 -26 1256.56 382.928 1
-2 11 26 794.379 223.226 2
2 -11 26 1272.61 294.992 2
-2 26 -11 1046.05 305.525 1
-11 -2 26 679.973 185.162 2
2 11 -26 826.945 332.205 1
3 11 -26 1689.93 441.869 1
-3 11 26 1774.91 316.613 2
11 26 -3 1157.57 369.076 1
-3 26 -11 1329.92 328.807 1
-11 -3 26 1922.31 313.783 2
-4 11 26 637.44 179.306 2
11 26 -4 545.204 269.674 1
-4 26 -11 -123.409 156.908 1
-11 -4 26 549.707 174.479 2
-5 11 26 217.931 151.55 2
-5 26 -11 303.103 169.863 1
-11 -5 26 193.296 138.104 2
-6 11 26 2134.24 323.259 2
-11 -6 26 1965.72 315.452 2
-7 11 26 3331.12 402.936 2
-11 -7 26 2878.19 364.684 2
-11 -8 26 4169.57 451.664 2
-8 11 26 4200.84 458.335 2
-9 11 26 542.602 159.453 2
-11 -9 26 297.622 130.327 2
-10 11 26 855.108 232.956 2
-11 -10 26 790.421 204.273 2
-11 11 26 890.173 197.684 2
-11 -11 26 1239.28 239.455 2
-11 -12 26 2772.55 368.892 2
-12 11 26 3133.13 393.982 2
-12 10 26 454.989 189.064 2
-10 -12 26 374.715 162.168 2
-12 9 26 478.142 173.911 2
-9 -12 26 540.077 199.024 2
-12 8 26 2996.4 393.958 2
-8 -12 26 2391.99 345.038 2
-7 -12 26 -45.8325 100.84 2
-12 7 26 265.901 150.756 2
-6 -12 26 267.911 138.716 2
-12 6 26 164.249 139.645 2
-5 -12 26 232.919 124.344 2
-12 5 26 620.602 190.84 2
5 12 26 353.298 122.735 2
-4 -12 26 785.047 204.318 2
-12 4 26 912.355 217.479 2
4 12 26 468.605 150.534 2
3 12 26 138.802 127.573 2
-3 -12 26 242.916 167.582 2
-12 3 26 202.948 140.124 2
2 12 26 114.254 157.164 2
-2 -12 26 222.548 145.158 2
-12 2 26 191.158 132.653 2
1 12 26 209.05 166.905 2
-1 -12 26 387.102 154.054 2
-12 1 26 507.595 181.505 2
-1 12 -26 -3.94276 204.548 1
1 26 -12 93.975 130.512 1
0 12 26 1026.32 260.315 2
0 -12 26 1648.1 295.619 2
-12 0 26 1702.67 296.267 2
0 26 -12 930.659 294.766 1
0 12 -26 1369.43 406.205 1
-1 12 26 156.315 119.571 2
-1 26 -12 -24.2043 78.3417 1
-12 -1 26 237.056 92.2 2
1 12 -26 140.321 154.613 1
2 12 -26 558.92 304.47 1
-2 12 26 83.016 109.401 2
-2 26 -12 209.709 127.22 1
-12 -2 26 241.451 125.891 2
3 12 -26 128.962 225.468 1
-3 12 26 171.233 158.899 2
-12 -3 26 124.055 102.412 2
-4 12 26 972.659 215.699 2
-12 -4 26 828.423 206.184 2
-5 12 26 424.931 160.956 2
-12 -5 26 294.699 132.582 2
-6 12 26 155.544 111.619 2
-12 -6 26 507.734 162.563 2
-7 12 26 44.8355 97.1146 2
-12 -7 26 -157.804 143.84 2
-8 12 26 2542.51 367.101 2
-12 -8 26 2398.41 355.154 2
-9 12 26 417.703 139.68 2
-12 -9 26 282.804 145.648 2
-10 12 26 435.198 176.723 2
-12 -10 26 105.633 86.1934 2
-11 12 26 2712.48 374.274 2
-12 -11 26 2411.68 346.505 2
-12 -12 26 2756.79 358.255 2
-12 12 26 3001.01 387.813 2
-13 12 26 512.06 161.334 2
-13 11 26 2446.17 354.484 2
-13 10 26 5219.11 525.438 2
-13 9 26 989.916 226.395 2
-13 8 26 159.035 115.704 2
-13 7 26 472.786 166.704 2
-13 6 26 1632.46 278.277 2
-13 5 26 493.165 179.272 2
5 13 26 774.271 202.488 2
4 13 26 136.722 100.175 2
-13 4 26 222.242 122.194 2
3 13 26 868.612 195.98 2
-13 3 26 884.365 217.932 2
2 13 26 141.982 81.6183 2
-13 2 26 357.494 149.604 2
1 13 26 569.149 177.804 2
-13 1 26 608.101 175.733 2
0 13 26 1020.71 261.026 2
-13 0 26 1207.25 237.35 2
-1 13 26 337.069 184.75 2
-13 -1 26 630.963 182.682 2
-2 13 26 131.2 159.817 2
-13 -2 26 358.643 145.766 2
-3 13 26 730.982 224.769 2
-13 -3 26 643.742 183.957 2
-4 13 26 794.881 223.817 2
-13 -4 26 338.727 143.973 2
-5 13 26 442.861 171.617 2
-13 -5 26 561.919 171.377 2
-6 13 26 1567.65 292.183 2
-13 -6 26 1444.78 263.221 2
-7 13 26 448.146 163.34 2
-13 -7 26 391.427 140.13 2
-8 13 26 73.3572 83.9771 2
-13 -8 26 115.744 134.134 2
-9 13 26 1521.81 284.9 2
-13 -9 26 1040.27 242.467 2
-13 -10 26 5092.94 473.198 2
-10 13 26 5593.73 531.794 2
-11 13 26 2586.54 360.774 2
-13 -11 26 1944.67 299.938 2
-12 13 26 491.269 168.651 2
-13 13 26 651.407 185.97 2
-14 13 26 1140.36 244.898 2
-14 12 26 95.505 107.712 2
-14 11 26 333.491 174.407 2
-14 10 26 1079.43 246.618 2
-14 9 26 764.289 197.822 2
-14 8 26 230.223 137.104 2
-14 7 26 122.983 107.59 2
-14 6 26 967.821 235.883 2
-14 5 26 393.127 142.577 2
5 14 26 305.614 108.918 2
4 14 26 1146.88 241.929 2
-14 4 26 1109.49 241.156 2
3 14 26 721.484 184.025 2
-14 3 26 1023.73 247.115 2
2 14 26 696.532 183.696 2
-14 2 26 1280.7 255.293 2
1 14 26 1176.51 235.246 2
-14 1 26 895.998 210.949 2
0 14 26 387.072 178.166 2
-14 0 26 527.535 169.598 2
-1 14 26 512.428 226.465 2
-14 -1 26 1100.53 245.761 2
-2 14 26 701.989 227.826 2
-14 -2 26 1206.55 253.01 2
-3 14 26 633.076 203.835 2
-14 -3 26 717.973 212.758 2
-4 14 26 758.267 197.686 2
-14 -4 26 832.414 225.046 2
-5 14 26 408.374 171.885 2
-14 -5 26 428.786 156.763 2
-6 14 26 873.239 228.271 2
-14 -6 26 678.484 199.263 2
-7 14 26 61.7808 83.0387 2
-14 -7 26 95.4965 115.503 2
-8 14 26 -21.3691 87.8862 2
-14 -8 26 251.457 131.666 2
-9 14 26 574.262 185.968 2
-14 -9 26 438.684 148.992 2
-10 14 26 1493.94 285.113 2
-14 -10 26 1281.39 240.105 2
-11 14 26 129.705 78.8496 2
-14 -11 26 348.69 128.8 2
-12 14 26 180.745 142.713 2
-13 14 26 1102.85 240.238 2
-14 14 26 86.9319 89.6862 2
-15 14 26 229.33 135.964 2
-15 13 26 1903.37 318.543 2
-15 12 26 2438.65 352.337 2
-15 11 26 51.1955 98.7917 2
-15 10 26 172.968 125.483 2
-15 9 26 662.456 177.494 2
-15 8 26 2342.39 335.708 2
-15 7 26 206.717 107.594 2
-15 6 26 68.0886 109.132 2
-15 5 26 432.015 182.595 2
5 15 26 476.918 146.308 2
4 15 26 318.424 123.497 2
-15 4 26 507.401 215.262 2
3 15 26 103.639 65.5279 2
-15 3 26 -16.8706 99.6 2
2 15 26 765.318 198.56 2
-15 2 26 659.734 199.728 2
1 15 26 196.08 134.58 2
-15 1 26 353.936 153.197 2
-15 0 26 2725.91 365.457 2
0 15 26 2353.48 380.276 2
-1 15 26 320.088 172.921 2
-15 -1 26 151.043 110.381 2
-2 15 26 419.195 178.643 2
-15 -2 26 992.334 237.662 2
-15 -3 26 203.864 140.441 2
-3 15 26 306.684 170.525 2
-4 15 26 131.086 111.252 2
-15 -4 26 354.77 118.885 2
-5 15 26 378.756 152.283 2
-15 -5 26 392.622 147.916 2
-6 15 26 132.572 114.482 2
-15 -6 26 294.686 132.108 2
-7 15 26 24.15 101.385 2
-15 -7 26 519.818 172.173 2
-8 15 26 2930.23 384.462 2
-15 -8 26 2296.87 313.324 2
-9 15 26 903.495 232.723 2
-15 -9 26 301.847 118.603 2
-10 15 26 70.3891 122.985 2
-15 -10 26 15.8542 88.823 2
-11 15 26 -23.9248 106.352 2
-12 15 26 2762.4 366.669 2
-13 15 26 1927.97 315.848 2
-14 15 26 408.489 162.725 2
-15 15 26 191.883 146.49 2
-16 15 26 107.202 94.7506 2
-16 14 26 98.1195 83.1349 2
-16 13 26 948.253 207.28 2
-16 12 26 251.819 138.497 2
-16 11 26 263.706 97.9734 2
-16 10 26 337.329 161.288 2
-16 9 26 199.345 113.971 2
-16 8 26 176.145 79.7529 2
-16 7 26 1048.9 236.208 2
-16 6 26 1387.23 275.769 2
5 16 26 1257.43 213.813 2
-16 5 26 1231.81 258.419 2
4 16 26 38.0644 69.9476 2
-16 4 26 145.16 82.7141 2
3 16 26 475.596 272.637 2
-16 3 26 93.1895 103.298 2
2 16 26 1362.54 242.414 2
-16 2 26 1357.8 262.346 2
1 16 26 2364.84 354.668 2
-16 1 26 2761.41 373.33 2
0 16 26 43.8648 82.6435 2
-16 0 26 135.812 88.0085 2
-16 -1 26 2385.33 336.339 2
-1 16 26 1998.77 359.439 2
-2 16 26 819.545 258.829 2
-16 -2 26 1253.93 256.002 2
-3 16 26 12.9045 97.2268 2
-16 -3 26 272.815 157.946 2
-4 16 26 -21.1909 119.347 2
-16 -4 26 69.878 80.1504 2
-5 16 26 1480.94 293.708 2
-16 -5 26 1147.55 239.116 2
-6 16 26 1278.96 250.353 2
-16 -6 26 984.792 206.716 2
-7 16 26 1305.62 256.001 2
-16 -7 26 1084.19 231.049 2
-8 16 26 -24.3498 83.4687 2
-16 -8 26 182.104 68.8424 2
-9 16 26 289.175 139.576 2
-16 -9 26 308.101 113.186 2
-10 16 26 208.621 108.686 2
-16 -10 26 74.1405 108.982 2
-11 16 26 350.97 138.462 2
-12 16 26 110.84 105.823 2
-13 16 26 1193.47 272.6 2
-14 16 26 158.397 156.02 2
-15 16 26 481.965 180.004 2
-16 16 26 217.502 139.674 2
-17 16 26 106.94 132.449 2
-16 26 17 20.9189 81.8566 2
-17 15 26 884.213 220.897 2
-17 14 26 755.075 233.748 2
-17 13 26 91.7765 85.9646 2
-17 12 26 -15.1582 82.6339 2
-17 11 26 844.418 206.294 2
-17 10 26 1986.8 317.083 2
-17 9 26 946.002 227.097 2
-17 8 26 210.556 169.485 2
-17 7 26 649.71 198.316 2
-17 6 26 -163.95 88.1471 2
-17 5 26 5.69658 86.0805 2
4 17 26 251.347 87.8031 2
-17 4 26 333.571 149.421 2
3 17 26 323.128 193.745 2
-17 3 26 114.26 99.9432 2
-17 2 26 3698.71 425.017 2
2 17 26 3693.26 400.903 2
1 17 26 570.436 178.959 2
-17 1 26 439.252 188.82 2
0 17 26 351 214.495 2
-17 0 26 598.789 177.581 2
-1 17 26 323.941 197.931 2
-17 -1 26 686.251 195.515 2
-2 17 26 3026.38 415.636 2
-17 -2 26 3788.61 416.344 2
-3 17 26 33.2537 75.5222 2
-17 -3 26 1.96206 103.118 2
-4 17 26 51.9004 88.7238 2
-17 -4 26 209.501 93.3227 2
-5 17 26 45.1267 133.688 2
-17 -5 26 -183.847 127.157 2
-6 17 26 180.001 120.009 2
-17 -6 26 -72.7763 110.764 2
-7 17 26 316.407 132.3 2
-17 -7 26 592.88 167.936 2
-8 17 26 166.083 127.383 2
-17 -8 26 344.878 152.575 2
-9 17 26 791.057 198.473 2
-17 -9 26 858.243 207.29 2
-10 17 26 2252.89 349.342 2
-11 17 26 1098.2 235.899 2
-12 17 26 -4.98535 104.889 2
-13 17 26 243.05 140.757 2
-14 17 26 722.962 193.624 2
-15 17 26 1074.14 223.376 2
-16 17 26 54.1989 93.1351 2
-17 17 26 131.172 105.64 2
-17 26 17 44.6685 81.2385 2
-18 17 26 244.405 120.181 2
-17 26 18 135.193 70.2521 2
-18 16 26 424.667 144.178 2
-16 26 18 552.313 168.424 2
-18 15 26 331.487 154.934 2
-15 26 18 286.068 156.764 2
-14 26 18 711.211 203.277 2
-18 14 26 442.7 157.743 2
-18 13 26 611.269 243.757 2
-18 12 26 215.788 86.42 2
-18 11 26 535.031 185.271 2
-18 10 26 495.052 160.032 2
-18 9 26 2052.34 315.539 2
-18 8 26 50.3051 87.4096 2
-18 7 26 1990.97 299.705 2
-18 6 26 222.191 109.468 2
-18 5 26 910.664 192.674 2
4 18 26 1416.03 269.413 2
-18 4 26 1644.52 291.344 2
3 18 26 2132.2 314.09 2
-18 3 26 1846.11 295.118 2
2 18 26 72.1387 71.0859 2
-18 2 26 423.891 155.849 2
1 18 26 693.659 187.352 2
-18 1 26 778.018 181.974 2
0 18 26 292.917 133.166 2
-18 0 26 396.943 149.495 2
-1 18 26 730.835 202.084 2
-18 -1 26 731.543 190.197 2
-2 18 26 217.817 137.147 2
-18 -2 26 329.457 177.242 2
-3 18 26 2019 328.18 2
-18 -3 26 1735.39 267.925 2
-4 18 26 1203.72 248.552 2
-18 -4 26 1242.23 228.674 2
4 26 18 758.922 154.42 2
-5 18 26 779.394 203.042 2
-18 -5 26 573.432 170.967 2
-6 18 26 11.8764 88.4466 2
-18 -6 26 202.444 165.836 2
-7 18 26 2288.84 339.321 2
-18 -7 26 1810.81 259.22 2
-8 18 26 180.183 142.775 2
-18 -8 26 92.4815 89.2948 2
-9 18 26 1987.48 323.593 2
-10 18 26 620.224 191.559 2
-11 18 26 793.142 202.964 2
-12 18 26 440.055 147.952 2
-13 18 26 652.113 193.927 2
-14 18 26 666.62 188.667 2
-15 18 26 389.622 150.462 2
-16 18 26 490.83 142.18 2
-18 26 16 554.758 164.3 2
-17 18 26 181.815 87.6344 2
-18 26 17 175.119 112.036 2
-18 18 26 342.742 150.464 2
-18 26 18 491.947 155.047 2
-18 26 19 123.531 89.6165 2
-19 18 26 81.4003 126.212 2
-17 26 19 631.719 166.616 2
-19 17 26 358.589 160.256 2
-16 26 19 149.95 135.795 2
-19 16 26 -16.4164 73.8554 2
-15 26 19 355.05 144.555 2
-19 15 26 134.423 81.7372 2
-14 26 19 -30.4236 80.465 2
-19 14 26 -33.0981 87.2645 2
-13 26 19 1015.33 235.118 2
-19 13 26 559.863 223.835 2
-12 26 19 376.309 152.598 2
-19 12 26 -0.61918 103.499 2
-11 26 19 1170.84 255.754 2
-19 11 26 236.971 195.109 2
-19 10 26 92.2173 113.015 2
-19 9 26 360.595 130.408 2
-19 8 26 281.632 147.759 2
-19 7 26 969.302 215.182 2
-19 6 26 340.439 144.82 2
-19 5 26 692.678 198.477 2
4 19 26 521.703 159.881 2
-19 4 26 477.273 149.619 2
3 19 26 -102.5 126.57 2
-19 3 26 -62.2069 81.2358 2
2 19 26 751.464 192.554 2
-19 2 26 756.278 200.347 2
1 19 26 54.2301 70.1211 2
-19 1 26 153.88 107.013 2
0 19 26 1253.95 244.056 2
-19 0 26 1444.87 250.802 2
-1 19 26 54.4229 76.7616 2
-19 -1 26 147.358 118.881 2
1 26 19 293.435 145.41 2
-2 19 26 625.001 166.828 2
-19 -2 26 557.563 150.627 2
2 26 19 642.382 173.503 2
-3 19 26 141.625 129.826 2
-19 -3 26 150.855 131.905 2
3 26 19 -84.0368 99.1927 2
-4 19 26 682.118 203.675 2
-19 -4 26 779.636 174.672 2
4 26 19 601.25 168.788 2
-5 19 26 703.293 188.913 2
-19 -5 26 681.429 171.61 2
-6 19 26 350.509 163.173 2
-19 -6 26 204.904 123.213 2
-7 19 26 1300.43 263.546 2
-19 -7 26 935.176 197.108 2
-8 19 26 111.2 107.32 2
-9 19 26 511.781 171.276 2
-10 19 26 77.3648 100.045 2
-11 19 26 654.898 182.052 2
-12 19 26 265.908 141.164 2
-13 19 26 821.81 193.748 2
-14 19 26 -94.4671 100.684 2
-15 19 26 89.8782 90.8463 2
-19 26 15 -22.6452 106.826 2
-16 19 26 154.022 125.038 2
-19 26 16 141.197 127.139 2
-17 19 26 633.446 175.622 2
-19 26 17 370.72 160.998 2
-18 19 26 -5.70329 85.2055 2
-19 26 18 4.62157 77.3182 2
-19 26 19 90.0243 79.8382 2
-19 19 26 34.6388 73.6177 2
-19 26 20 -40.1847 61.372 2
-20 19 26 -13.4816 61.4942 2
-18 26 20 277.953 116.325 2
-20 18 26 231.405 157.853 2
-17 26 20 283.359 141.797 2
-20 17 26 103.131 121.781 2
-16 26 20 759.061 194.406 2
-20 16 26 423.351 205.296 2
-15 26 20 171.101 97.0653 2
-20 15 26 73.5974 148.949 2
-20 14 26 1020.42 751.144 2
-14 26 20 886.128 215.917 2
-13 26 20 400.051 144.646 2
-20 13 26 98.1049 153.54 2
-12 26 20 1398.12 257.518 2
-20 12 26 233.899 229.675 2
-11 26 20 1562.44 273.139 2
-20 11 26 297.816 263.2 2
-10 26 20 176.006 117.494 2
-20 10 26 41.0174 107.019 2
-9 26 20 325.645 146.854 2
-20 9 26 802.75 301.863 2
-8 26 20 450.659 146.454 2
-20 8 26 612.222 189.064 2
-20 7 26 2591.54 330.243 2
-7 26 20 2586.31 362.402 2
-6 26 20 641.17 176.021 2
-20 6 26 447.711 145.247 2
-5 26 20 1377.91 256.21 2
-20 5 26 1279.1 239.329 2
4 20 26 534.307 154.576 2
-4 26 20 378.988 135.097 2
3 20 26 500.981 174.692 2
-3 26 20 419.668 166.979 2
-20 3 26 821.843 210.928 2
2 20 26 202.581 123.117 2
-2 26 20 286.237 148.477 2
-20 2 26 259.905 132.948 2
1 20 26 570.412 175.72 2
-1 26 20 714.513 212.349 2
-20 1 26 1105.75 221.629 2
0 20 26 1217.01 251.036 2
0 26 20 1443.62 263.673 2
-20 0 26 1613.66 256.617 2
-1 20 26 794.035 236.371 2
1 26 20 708.107 185.09 2
-20 -1 26 861.464 202.308 2
-2 20 26 411.837 158.293 2
2 26 20 135.52 83.2904 2
-20 -2 26 488.531 140.46 2
-3 20 26 611.417 194.112 2
3 26 20 534.368 141.695 2
-20 -3 26 211.875 107.384 2
-4 20 26 469.833 177.484 2
4 26 20 413.957 128.552 2
-5 20 26 1176.39 246.33 2
-6 20 26 706.855 208.723 2
-7 20 26 3431.3 399.284 2
-8 20 26 467.125 153.325 2
-9 20 26 356.761 169.962 2
-10 20 26 131.305 98.082 2
-11 20 26 1723.52 290.251 2
-12 20 26 1640.35 271.368 2
-13 20 26 269.548 124.941 2
-14 20 26 778.453 193.765 2
-20 26 14 920.972 215.331 2
-15 20 26 166.394 80.1186 2
-20 26 15 384.635 165.632 2
-16 20 26 833.734 199.108 2
-20 26 16 877.547 200.575 2
-17 20 26 98.6448 96.06 2
-20 26 17 -12.9173 88.9725 2
-18 20 26 240.232 139.059 2
-20 26 18 464.835 149.86 2
-20 26 19 12.3224 62.5225 2
-19 20 26 -27.1002 70.2735 2
-20 26 20 15.9084 68.0782 2
-20 20 26 6.68397 69.1673 2
-20 26 21 8.09958 51.4249 2
-21 20 26 28.8658 88.7376 2
-19 26 21 1339.03 220.867 2
-21 19 26 671.175 224.676 2
-18 26 21 -36.7308 93.913 2
-21 18 26 9.4002 102.638 2
-17 26 21 -22.0165 91.4757 2
-21 17 26 17.2278 57.5737 2
-16 26 21 204.423 133.912 2
-21 16 26 -17.3031 86.3754 2
-15 26 21 1239.59 244.34 2
-21 15 26 221.557 186.955 2
-14 26 21 -19.8992 78.6095 2
-21 14 26 -8.72842 66.9809 2
-13 26 21 -50.577 106.016 2
-21 13 26 23.9151 89.4625 2
-12 26 21 303.693 140.1 2
-21 12 26 39.9334 141.5 2
-11 26 21 798.945 208.829 2
-21 11 26 333.824 204.761 2
-10 26 21 339.561 157.003 2
-21 10 26 23.247 113.242 2
-9 26 21 1598.19 268.796 2
-21 9 26 1355.09 230.638 2
-8 26 21 108.816 79.2401 2
-21 8 26 4.92987 68.9919 2
-7 26 21 822.21 206.867 2
-21 7 26 628.165 170.764 2
-6 26 21 92.4306 106.916 2
-21 6 26 396.493 155.701 2
-5 26 21 260.948 134.93 2
-21 5 26 236.264 120.834 2
4 21 26 369.22 140.63 2
-4 26 21 590.791 181.861 2
-21 4 26 480.653 147.679 2
3 21 26 420.146 155.136 2
-3 26 21 359.868 134 2
-21 3 26 817.564 168.244 2
2 21 26 67.8908 64.0044 2
-21 2 26 100.04 62.9668 2
-2 26 21 210.514 132.911 2
1 21 26 436.733 148.291 2
-1 26 21 499.691 148.391 2
-21 1 26 541.739 146.182 2
0 21 26 319.871 128.113 2
0 26 21 622.001 173.506 2
-1 21 26 401.013 167.582 2
1 26 21 454.814 137.17 2
-2 21 26 254.004 134.211 2
2 26 21 123.47 74.204 2
-3 21 26 466.673 184.69 2
3 26 21 395.415 132.948 2
-4 21 26 514.833 165.897 2
-5 21 26 120.506 104.145 2
-6 21 26 103.424 95.0647 2
-7 21 26 476.536 149.513 2
-8 21 26 84.7543 72.6972 2
-9 21 26 1685.63 287.071 2
-10 21 26 -78.7021 93.6951 2
-11 21 26 742.413 193.05 2
-12 21 26 652.522 184.495 2
-13 21 26 -75.9254 73.0126 2
-21 26 13 17.7848 75.9081 2
-14 21 26 -28.576 84.6121 2
-21 26 14 182.952 132.377 2
-15 21 26 1120.71 218.127 2
-21 26 15 1037.58 202.407 2
-16 21 26 82.6691 82.2016 2
-21 26 16 69.3546 103.705 2
-17 21 26 169.41 115.212 2
-21 26 17 153.639 95.8209 2
-18 21 26 98.0536 106.46 2
-21 26 18 173.446 103.367 2
-21 26 19 1157.92 213.186 2
-19 21 26 912.604 229.696 2
-21 26 20 37.7656 55.5988 2
-20 21 26 17.5856 52.1873 2
-19 26 22 347.953 122.737 2
-22 19 26 156.581 124.395 2
-18 26 22 61.4266 93.9336 2
-22 18 26 78.3451 94.7114 2
-17 26 22 8.70493 78.098 2
-22 17 26 7.95802 60.0881 2
-16 26 22 885.725 194.35 2
-22 16 26 172.572 162.978 2
-15 26 22 229.253 115.021 2
-22 15 26 56.8088 122.752 2
-14 26 22 909.466 194.464 2
-22 14 26 260.4 198.885 2
-13 26 22 750.676 190.818 2
-22 13 26 214.595 198.423 2
-12 26 22 391.385 141.059 2
-22 12 26 40.1751 86.2771 2
-11 26 22 232.611 105.749 2
-22 11 26 1.50919 98.2896 2
-10 26 22 413.271 151.341 2
-22 10 26 179.472 84.2959 2
-9 26 22 2110.31 300.324 2
-22 9 26 1983.83 272.361 2
-8 26 22 341.944 135.665 2
-22 8 26 321.811 113.031 2
-7 26 22 811.487 192.967 2
-22 7 26 897.304 206.024 2
-6 26 22 212.234 124.618 2
-22 6 26 -20.9065 84.9281 2
-5 26 22 745.279 225.103 2
-22 5 26 685.219 180.254 2
-4 26 22 275.696 137.736 2
3 22 26 586.081 161.542 2
-3 26 22 319.474 124.024 2
2 22 26 695.788 170.136 2
-2 26 22 704.716 182.961 2
1 22 26 244.843 119.956 2
-1 26 22 290.502 127.267 2
0 22 26 -50.3028 97.5907 2
0 26 22 164.79 102.548 2
-1 22 26 158.994 118.8 2
1 26 22 190.607 109.167 2
-2 22 26 652.982 183.608 2
2 26 22 944.867 203.61 2
-3 22 26 386.037 150.578 2
3 26 22 703.803 175.902 2
-4 22 26 297.54 161.409 2
-5 22 26 685.704 191.287 2
-6 22 26 -130.555 93.5788 2
-7 22 26 876.427 197.927 2
-8 22 26 395.466 151.34 2
-9 22 26 1900.24 279.279 2
-10 22 26 453.223 175.31 2
-11 22 26 188.242 111.63 2
-12 22 26 560.619 168.741 2
-22 26 12 217.248 97.5445 2
-13 22 26 910.734 199.764 2
-22 26 13 949.249 209.639 2
-14 22 26 1176.17 231.99 2
-22 26 14 1060.91 233.309 2
-15 22 26 406.069 155.07 2
-22 26 15 157.355 87.7134 2
-16 22 26 433.365 146.792 2
-22 26 16 621.37 154.833 2
-17 22 26 36.8226 66.2184 2
-22 26 17 141.394 89.9171 2
-18 22 26 110.97 83.029 2
-22 26 18 70.2012 51.0557 2
-22 26 19 292.676 109.995 2
-19 22 26 104.899 118.899 2
-18 26 23 104.375 88.9985 2
-17 26 23 689.891 194.653 2
-23 17 26 181.402 134.437 2
-16 26 23 164.819 141.913 2
-23 16 26 -19.4786 81.1656 2
-15 26 23 157.906 103.571 2
-23 15 26 53.1123 81.1245 2
-14 26 23 118.536 111.635 2
-23 14 26 15.9895 128.787 2
-13 26 23 727.911 181.09 2
-23 13 26 243.987 187.379 2
-12 26 23 174.316 113.697 2
-23 12 26 16.3711 93.059 2
-11 26 23 273.311 111.816 2
-23 11 26 270.675 101.171 2
-10 26 23 274.409 128.159 2
-9 26 23 273.083 119.22 2
-8 26 23 162.596 116.589 2
-7 26 23 399.285 126.269 2
-6 26 23 126.842 112.915 2
-5 26 23 283.655 139.999 2
-4 26 23 6.4676 81.1417 2
3 23 26 76.4938 83.8524 2
-3 26 23 65.669 66.7685 2
2 23 26 623.934 163.783 2
-2 26 23 763.023 194.562 2
1 23 26 112.494 113.825 2
-1 26 23 -27.9673 119.507 2
0 23 26 166.352 171.792 2
0 26 23 331.561 113.617 2
-1 23 26 165.072 119.341 2
1 26 23 184.834 100.902 2
-2 23 26 748.152 194.241 2
2 26 23 496.767 136.484 2
-3 23 26 78.4227 76.0504 2
3 26 23 35.2028 76.0266 2
-4 23 26 232.81 147.768 2
-5 23 26 416.265 168.849 2
-6 23 26 -24.9947 98.9318 2
-7 23 26 510.462 162.349 2
-8 23 26 -122.426 88.3802 2
-9 23 26 390.53 128.888 2
-10 23 26 284.882 137.851 2
-23 26 10 223.138 110.172 2
-11 23 26 500.795 157.419 2
-23 26 11 369.345 128.198 2
-12 23 26 -15.3332 72.6402 2
-23 26 12 186.34 100.661 2
-13 23 26 766.892 189.756 2
-23 26 13 545.503 129.349 2
-14 23 26 293.637 130.18 2
-23 26 14 235.646 92.71 2
-15 23 26 141.56 101.131 2
-23 26 15 282.743 127.103 2
-16 23 26 63.9335 82.9448 2
-23 26 16 -2.95855 72.9204 2
-17 23 26 716.789 170.72 2
-23 26 17 517.407 130.561 2
-23 26 18 17.0191 54.7005 2
-18 23 26 23.5692 68.1403 2
-16 26 24 587.892 180.373 2
-15 26 24 53.9039 82.0235 2
-14 26 24 428.755 143.364 2
-13 26 24 8.0636 93.7828 2
-12 26 24 666.604 180.771 2
-11 26 24 839.624 190.413 2
-10 26 24 225.937 145.262 2
-9 26 24 -97.8001 94.7214 2
-8 26 24 136.742 73.577 2
-7 26 24 72.9506 97.9252 2
-6 26 24 280.705 134.044 2
-5 26 24 70.0425 102.346 2
-4 26 24 85.0217 98.735 2
-3 26 24 11.763 96.6397 2
2 24 26 -28.6874 84.6874 2
-2 26 24 49.1102 68.4249 2
1 24 26 138.316 71.1772 2
-1 26 24 71.2502 71.335 2
0 24 26 293.388 118.507 2
0 26 24 68.5757 63.32 2
-1 24 26 178.607 113.11 2
1 26 24 57.63 94.0447 2
-2 24 26 63.0656 74.3091 2
2 26 24 39.1955 51.7842 2
-3 24 26 84.1268 84.8941 2
-4 24 26 73.2118 109.132 2
-5 24 26 88.6802 87.3001 2
-6 24 26 468.937 154.336 2
-7 24 26 219.304 122.771 2
-8 24 26 133.888 121.882 2
-9 24 26 -152.093 90.3978 2
-10 24 26 147.778 105.66 2
-11 24 26 816.506 187.776 2
-12 24 26 642.014 166.326 2
-13 24 26 -24.3881 93.5947 2
-14 24 26 200.929 106.792 2
-15 24 26 52.6119 95.6759 2
-16 24 26 723.038 191.372 2
-15 26 25 255.04 116.434 2
-14 26 25 205.548 120.167 2
-13 26 25 59.2684 57.3977 2
-12 26 25 103.87 103.519 2
-11 26 25 60.142 86.7762 2
-10 26 25 115.48 90.7295 2
-9 26 25 22.2356 75.0123 2
-8 26 25 219.741 101.298 2
-7 26 25 145.175 136.782 2
-6 26 25 162.7 265.302 2
-5 26 25 -108.247 109.166 2
-4 26 25 179.818 90.4293 2
-3 26 25 32.498 75.9845 2
2 25 26 -21.2555 73.8349 2
-2 26 25 173.313 108.643 2
1 25 26 254.754 121.289 2
-1 26 25 55.2337 77.1132 2
0 25 26 688.36 155.768 2
0 26 25 498.588 143.653 2
1 26 25 270.971 115.17 2
-1 25 26 125.335 67.8287 2
2 26 25 26.8231 57.9799 2
-2 25 26 225.822 130.199 2
-3 25 26 -4.22373 79.9163 2
-4 25 26 305.635 122.015 2
-5 25 26 95.833 97.5443 2
-6 25 26 221.011 280.994 2
-7 25 26 106.283 88.4982 2
-8 25 26 36.1394 116.708 2
-9 25 26 182.949 111.249 2
-10 25 26 243.748 109.058 2
-11 25 26 74.9477 64.3961 2
-12 25 26 217.059 109.273 2
-13 25 26 168.529 99.0885 2
-14 25 26 93.0727 93.0574 2
-15 25 26 124.156 62.7525 2
0 26 26 -84.4805 78.3574 2
1 26 26 77.6145 85.2215 2
-1 26 26 12.7834 60.5947 2
2 26 26 -0.85174 72.5608 2
-2 26 26 16.267 60.4813 2
-3 26 26 37.1656 71.4453 2
-4 26 26 105.399 86.359 2
-5 26 26 509.047 162.929 2
-6 26 26 -18.5205 79.2444 2
-7 26 26 145.454 108.196 2
-8 26 26 87.9566 89.3664 2
-9 26 26 -17.3909 89.4162 2
-10 26 26 -21.8401 81.8701 2
-11 26 26 -27.2823 66.944 2
-12 26 26 91.5868 75.8369 2
-13 26 26 255.46 112.441 2
0 0 27 177.07 129.994 2
0 -1 27 5.12058 132.512 2
1 0 27 192.512 194.565 2
-1 0 27 78.9513 83.7992 2
0 1 27 124.427 121.803 2
1 -1 27 204.084 157.167 2
-1 -1 27 176.077 101.694 2
1 1 27 402.292 183.954 2
-1 1 27 63.1952 109.102 2
2 -1 27 100.861 76.6244 2
-1 -2 27 233.462 75.0709 2
1 2 27 11.9803 76.9688 2
-2 1 27 242.343 128.577 2
0 -2 27 85.1005 96.4147 2
2 0 27 24.7366 80.9927 2
-2 0 27 -10.7841 88.7106 2
0 2 27 -29.4506 112.023 2
1 -2 27 33.9635 82.4795 2
-2 -1 27 95.7982 77.3374 2
2 1 27 -2.70309 83.0971 2
-1 2 27 -56.2042 120.022 2
2 -2 27 -41.2752 105.954 2
-2 -2 27 170.263 111.045 2
2 2 27 73.5526 115.348 2
-2 2 27 -10.4499 97.5585 2
2 27 -3 142.934 238.607 1
3 -2 27 208.607 132.271 2
-2 -3 27 224.968 141.396 2
2 3 27 13.9989 75.1236 2
-3 2 27 -29.3054 78.4083 2
3 -1 27 75.8154 116.098 2
-1 -3 27 27.1007 90.8589 2
-3 1 27 33.8858 87.5758 2
1 3 27 76.4297 69.2082 2
0 -3 27 211.424 142.558 2
3 0 27 263.595 127.032 2
-3 0 27 87.9258 103.15 2
0 3 27 131.766 155.282 2
1 -3 27 209.643 144.259 2
3 1 27 14.2596 95.8482 2
-3 -1 27 5.94305 131.868 2
-1 3 27 75.9243 143.395 2
2 -3 27 -28.133 113.711 2
-3 -2 27 -55.2262 75.5914 2
3 2 27 -93.7466 109.761 2
3 27 -2 -202.439 217.418 1
-2 3 27 -19.2055 85.1251 2
3 -3 27 2953.31 379.926 2
-3 -3 27 3042.47 390.14 2
3 3 27 2276.45 351.481 2
-3 3 27 2834.35 373.495 2
3 27 -3 2394.71 490.929 1
3 27 -4 60.9313 151.983 1
4 -3 27 137.078 130.036 2
-3 -4 27 4.59775 94.9685 2
3 4 27 259.202 87.1564 2
2 27 -4 578.188 242.174 1
4 -2 27 509.537 164.938 2
-2 -4 27 638.23 177.122 2
2 4 27 209.039 137.486 2
-4 2 27 786.399 210.056 2
-1 -4 27 1025.47 229.085 2
4 -1 27 891.465 216.435 2
-4 1 27 778.928 196.25 2
1 4 27 717.372 189.532 2
1 27 -4 523.94 246.132 1
0 -4 27 177.578 139.026 2
4 0 27 84.8512 81.5644 2
-4 0 27 61.7952 107.636 2
0 4 27 207.915 172.275 2
4 27 -1 857.77 292.4 1
1 -4 27 782.645 226.269 2
4 1 27 1134.21 234.772 2
-4 -1 27 1327.32 269.369 2
-1 4 27 690.427 249.939 2
4 27 -2 751.234 288.662 1
2 -4 27 684.513 235.352 2
-4 -2 27 868.676 216.787 2
4 2 27 636.688 170.537 2
-2 4 27 955.86 201.567 2
3 -4 27 190.612 161.56 2
-4 -3 27 442.689 164.328 2
4 27 -3 455.135 224.045 1
4 3 27 219.087 131.788 2
-3 4 27 282.255 152.101 2
4 27 -4 -43.7434 95.8543 1
4 -4 27 -42.7075 79.4668 2
-4 -4 27 104.286 86.988 2
4 4 27 -23.8941 81.4375 2
-4 4 27 -219.539 138.389 2
4 27 -5 545.806 271.333 1
5 -4 27 1093.14 231.504 2
-4 -5 27 982.133 233.535 2
4 5 27 978.672 212.908 2
-5 4 27 670.119 176.564 2
5 -3 27 1405.35 254.966 2
-3 -5 27 1326.36 265.914 2
3 5 27 1374.33 242.618 2
-5 3 27 1519.14 275.454 2
3 27 -5 904.1 310.713 1
5 -2 27 825.692 206.368 2
-2 -5 27 640.467 198.294 2
2 27 -5 392.2 115.828 1
-5 2 27 507.716 144.554 2
2 5 27 287.777 158.138 2
-1 -5 27 846.298 231.519 2
5 -1 27 493.554 184.626 2
1 27 -5 254.106 152.674 1
-5 1 27 397.373 147.848 2
1 5 27 261.16 137.667 2
0 27 -5 262.33 196.115 1
0 -5 27 726.453 209.173 2
5 0 27 888.728 210.88 2
-5 0 27 1080.86 245.586 2
5 27 0 716.315 276.663 1
0 5 27 629.617 211.392 2
1 -5 27 664.309 189.235 2
5 1 27 528.188 171.808 2
-5 -1 27 500.799 149.458 2
5 27 -1 397.88 182.568 1
-1 5 27 430.586 193.469 2
5 27 -2 476.637 213.955 1
2 -5 27 678.357 201.793 2
5 2 27 786.349 201.468 2
-5 -2 27 501.722 150.613 2
-2 5 27 654.25 186.677 2
3 -5 27 1573.01 286.248 2
-5 -3 27 1684.93 288.737 2
5 3 27 1624.36 273.892 2
5 27 -3 1181.45 331.662 1
-3 5 27 1392.59 263.301 2
4 -5 27 650.962 207.803 2
5 27 -4 772.979 328.881 1
-5 -4 27 819.57 220.599 2
5 4 27 625.088 181.639 2
-4 5 27 601.656 200.272 2
5 27 -5 1096.13 351.165 1
5 -5 27 1626.55 285.666 2
-5 -5 27 1718.94 298.651 2
5 5 27 1281.16 246.802 2
-5 5 27 1539.02 282.42 2
5 27 -6 76.4951 150.178 1
6 -5 27 149.056 98.4395 2
-5 -6 27 8.6091 99.6754 2
5 6 27 216.193 119.3 2
-6 5 27 259.032 103.395 2
6 -4 27 606.546 168.177 2
-4 -6 27 358.772 166.054 2
4 6 27 451.633 155.348 2
-6 4 27 433.766 160.245 2
4 27 -6 412.703 229.531 1
-3 -6 27 167.761 137.045 2
6 -3 27 3.76242 83.5668 2
3 27 -6 211.645 275.261 1
3 6 27 39.4022 86.4287 2
-6 3 27 94.268 107.812 2
6 -2 27 550.006 183.855 2
-2 -6 27 504.296 178.742 2
2 27 -6 133.774 118.272 1
-6 2 27 612.216 168.994 2
2 6 27 281.14 174.22 2
1 27 -6 803.222 261.062 1
-1 -6 27 1549.29 283.322 2
6 -1 27 1707.06 287.91 2
-6 1 27 1657.51 289.984 2
1 6 27 1225.63 288.53 2
6 0 27 2198.31 319.389 2
0 -6 27 2227.3 334.783 2
6 27 0 996.65 315.086 1
0 27 -6 1389.96 355.179 1
-6 0 27 2152.2 323.554 2
0 6 27 1477.36 307.301 2
-1 27 -6 1189.36 329.018 1
6 27 -1 1013.85 310.895 1
1 -6 27 1635.32 283.78 2
6 1 27 1502.8 245.802 2
-6 -1 27 1523.53 266.085 2
-1 6 27 1375.66 280.382 2
2 -6 27 608.521 177.613 2
6 27 -2 297.184 148.728 1
6 2 27 518.449 157.818 2
-6 -2 27 485.176 173.858 2
-2 6 27 369.951 171.323 2
6 27 -3 137.224 226.621 1
3 -6 27 118.994 158.77 2
-6 -3 27 33.1008 78.0383 2
6 3 27 -7.97572 68.832 2
-3 6 27 5.15824 104.449 2
4 -6 27 200.568 142.197 2
-6 -4 27 332.745 150.47 2
6 4 27 309.051 130.994 2
6 27 -4 211.182 187.246 1
-4 6 27 662.151 202.917 2
5 -6 27 305.038 135.689 2
6 27 -5 13.2133 99.1502 1
-6 -5 27 185.035 118.903 2
6 5 27 152 91.9194 2
-5 6 27 40.2345 106.188 2
6 27 -6 -21.5858 82.8684 1
6 -6 27 192.978 125.143 2
-6 -6 27 57.5856 88.7554 2
6 6 27 142.189 116.252 2
-6 6 27 70.5401 89.4145 2
6 27 -7 629.883 305.224 1
7 -6 27 1208.81 248.494 2
-6 -7 27 1536.38 289.094 2
6 7 27 1265.65 238.628 2
-7 6 27 1439.85 265.78 2
7 -5 27 905.343 209.203 2
-5 -7 27 1067.26 243.745 2
5 7 27 1004.58 223.329 2
5 27 -7 694.452 309.548 1
-7 5 27 1064.76 258.731 2
7 -4 27 728.7 179.34 2
-4 -7 27 521.849 171.689 2
4 27 -7 392.139 240.396 1
4 7 27 651.917 179.185 2
-7 4 27 534.876 173.995 2
7 -3 27 1268.73 245.912 2
-3 -7 27 1388.5 282.683 2
3 27 -7 1081.12 338.026 1
3 7 27 1282.23 250.311 2
-7 3 27 1407.63 270.255 2
7 -2 27 3032.93 362.133 2
-2 -7 27 3538.65 424.806 2
-7 2 27 3562.02 433.297 2
2 7 27 3022.61 394.995 2
2 27 -7 2173.41 481.085 1
7 -1 27 185.124 136.368 2
1 27 -7 -21.5338 191.637 1
-1 -7 27 81.4084 114.771 2
-7 1 27 107.153 102.861 2
1 7 27 123.293 147.277 2
0 27 -7 774.497 332.678 1
0 -7 27 554.484 186.681 2
7 0 27 633.231 183.686 2
0 7 -27 238.866 127.835 1
-7 0 27 357.116 157.407 2
0 7 27 207.482 160.417 2
-1 27 -7 149.427 105.373 1
1 -7 27 57.0729 70.4283 2
7 1 27 189.405 102.359 2
-7 -1 27 308.891 139.688 2
-1 7 27 58.0091 86.8331 2
7 27 -1 37.218 149.564 1
-2 27 -7 1888.4 426.124 1
2 -7 27 2837.04 386.989 2
-2 7 27 2838.16 389.188 2
-7 -2 27 3154.52 398.062 2
7 2 27 2745.71 335.007 2
7 27 -2 2198.94 483.118 1
3 -7 27 1353.18 266.789 2
7 27 -3 955.021 345.577 1
7 3 27 1065.39 214.756 2
-7 -3 27 1131.33 238.519 2
-3 7 27 1492.72 290.088 2
7 27 -4 683.838 283.81 1
4 -7 27 540.473 199.208 2
-7 -4 27 839.479 216.272 2
7 4 27 330.347 131.072 2
-4 7 27 428.624 182.062 2
5 -7 27 828.14 215.583 2
-7 -5 27 965.35 238.01 2
7 5 27 797.676 177.7 2
7 27 -5 674.388 257.718 1
-5 7 27 780.203 205.983 2
6 -7 27 1306.45 240.816 2
-7 -6 27 1365.65 278.688 2
7 27 -6 933.778 341.11 1
-6 7 27 1430.47 277.782 2
7 -7 27 113.407 165.599 2
-7 -7 27 -98.1893 129.549 2
-7 7 27 -45.2416 94.4866 2
-7 -8 27 1617.33 311.397 2
-8 7 27 1764.56 305.002 2
8 -6 27 478.799 170.166 2
-6 -8 27 621.758 199.9 2
6 8 27 746.041 156.443 2
-8 6 27 912.47 220.436 2
8 -5 27 737.598 194.857 2
-5 -8 27 835.29 218.48 2
5 27 -8 701.319 237.663 1
5 8 27 974.952 219.136 2
-8 5 27 677.205 194.682 2
8 -4 27 1233.67 234.054 2
-4 -8 27 1468.15 275.203 2
4 27 -8 1179.41 365.496 1
4 8 27 1245.56 229.093 2
-8 4 27 1417.12 278.722 2
8 -3 27 1214.73 251.637 2
-3 -8 27 1287.66 258.784 2
3 27 -8 824.758 282.173 1
-8 3 27 1142.35 238.353 2
3 8 27 1340.61 246.681 2
2 27 -8 1627.47 432.967 1
8 -2 27 1739.29 270.118 2
-2 -8 27 1860.18 311.574 2
-8 2 27 1625.38 291.381 2
2 8 27 1989.96 298.97 2
1 27 -8 229.149 153.906 1
-1 -8 27 558.324 165.176 2
8 -1 27 484.444 161.759 2
-8 1 27 607.088 182.3 2
1 8 27 255.898 185.153 2
0 27 -8 896.681 287.751 1
0 -8 27 975.904 222.466 2
8 0 27 1068.49 221.558 2
-8 0 27 1106.8 256.676 2
0 8 -27 712.748 321.234 1
0 8 27 582.284 205.561 2
-1 27 -8 515.212 269.776 1
1 -8 27 541.363 168.829 2
-8 -1 27 520.384 194.397 2
1 8 -27 615.209 305.557 1
8 27 -1 605.408 319.069 1
-1 8 27 698.095 191.107 2
-2 27 -8 1696.77 420.725 1
2 -8 27 1403.89 279.192 2
8 27 -2 1405.49 367.114 1
-8 -2 27 1730.4 294.834 2
-2 8 27 1536.16 286.935 2
3 -8 27 1026.23 244.805 2
-8 -3 27 1168.78 252.424 2
8 27 -3 884.705 318.784 1
-3 8 27 1323.63 268.797 2
4 -8 27 1165.5 270.843 2
8 27 -4 964.059 337.141 1
-8 -4 27 1895.48 315.597 2
-4 8 27 1422.7 286.036 2
-5 8 27 763.099 219.133 2
8 27 -5 590.521 311.907 1
5 -8 27 673.812 204.659 2
-8 -5 27 807.244 213.794 2
-6 8 27 820.559 224.415 2
6 -8 27 560.403 187.559 2
-8 -6 27 478.562 155.571 2
-7 8 27 1556.16 290.412 2
-8 -7 27 1833.57 317.052 2
-8 8 27 165.535 97.545 2
-8 -8 27 144.564 103.425 2
-9 8 27 1003.79 242.214 2
-8 -9 27 1003.44 233.344 2
-7 -9 27 225.539 138.082 2
-9 7 27 23.4498 89.1844 2
-6 -9 27 143.04 120.116 2
6 9 27 455.319 166.817 2
-9 6 27 280.726 156.824 2
-5 -9 27 494.213 187.276 2
9 -5 27 426.631 148.487 2
5 9 27 536 158.317 2
-9 5 27 286.178 138.347 2
9 -4 27 2128.22 306.819 2
-4 -9 27 2398.59 395.68 2
4 9 27 2254.45 305.362 2
-9 4 27 2381.95 344.961 2
3 27 -9 -106.742 208.746 1
9 -3 27 205 118.669 2
-3 -9 27 168.094 135.566 2
-9 3 27 334.399 154.066 2
3 9 27 447.471 161.719 2
2 27 -9 -187.792 199.175 1
-2 -9 27 257.495 118.563 2
-9 2 27 78.3927 120.904 2
2 9 27 216.331 119.64 2
1 27 -9 479.023 233.605 1
-1 9 -27 469.553 270.661 1
-1 -9 27 536.117 170.475 2
-9 1 27 537.511 182.943 2
1 9 27 272.037 182.744 2
0 27 -9 1828.71 437.119 1
0 -9 27 3232.88 408.681 2
-9 0 27 2828 374.685 2
0 9 27 2007.59 337.466 2
0 9 -27 2753.38 553.171 1
-1 27 -9 597.556 207.122 1
1 -9 27 664.9 245.901 2
-9 -1 27 443.946 169.333 2
-1 9 27 240.929 132.533 2
-2 9 27 -0.93589 108.915 2
2 -9 27 237.691 128.871 2
9 27 -2 265.228 251.755 1
-9 -2 27 128.63 101.885 2
-2 27 -9 205.784 221.469 1
-3 9 27 125.713 158.874 2
3 -9 27 278.163 135.225 2
9 27 -3 237.632 203.929 1
-9 -3 27 248.271 136.848 2
-4 9 27 2171.11 335.592 2
4 -9 27 1847.31 338.229 2
-9 -4 27 2055.48 318.152 2
-5 9 27 523.377 182.68 2
5 -9 27 240.011 130.856 2
-9 -5 27 583.837 193.2 2
-6 9 27 326.68 128.934 2
-9 -6 27 198.072 140.645 2
-7 9 27 237.837 130.708 2
-9 -7 27 189.984 116.825 2
-8 9 27 1045.35 236.734 2
-9 -8 27 813.755 225.957 2
-9 9 27 2139.45 329.218 2
-9 -9 27 1898.77 311.268 2
-10 9 27 2418.41 352.53 2
-9 -10 27 1935.61 319.693 2
-8 -10 27 2525.32 368.579 2
-10 8 27 1867.35 313.951 2
-7 -10 27 78.9465 105.679 2
-10 7 27 -108.759 143.98 2
-6 -10 27 230.082 109.174 2
6 10 27 104.319 70.8259 2
-10 6 27 428.404 179.333 2
-5 -10 27 2520.22 351.135 2
5 10 27 2102.52 295.577 2
-10 5 27 2473.46 347.937 2
-4 -10 27 1169.35 252.925 2
-10 4 27 1141.74 240.383 2
4 10 27 1237.66 221.935 2
-3 -10 27 60.0454 95.5446 2
-10 3 27 237.436 106.564 2
3 10 27 194.81 107.711 2
-2 -10 27 1647.13 305.176 2
-10 2 27 1588.19 293.346 2
2 10 27 1551.09 276.134 2
-1 -10 27 651.184 191.637 2
-10 1 27 703.98 219.085 2
1 10 27 571.376 189.869 2
0 -10 27 5595.64 533.917 2
-10 0 27 5534.76 528.765 2
0 10 27 4527.85 493.587 2
-1 10 27 497.503 207.306 2
1 -10 27 813.323 237.075 2
-10 -1 27 675.503 194.255 2
-2 10 27 821.619 240.024 2
2 -10 27 1357.84 261.144 2
-10 -2 27 1438.4 276.994 2
-3 10 27 29.4988 110.175 2
3 -10 27 295.441 153.478 2
-10 -3 27 125.383 114.505 2
-4 10 27 1412.79 270.26 2
-10 -4 27 1320.22 277.29 2
-5 10 27 2049.78 314.503 2
-10 -5 27 2314.04 335.754 2
-6 10 27 364.898 149.907 2
-10 -6 27 110.901 133.699 2
-7 10 27 -115.52 87.4321 2
-10 -7 27 7.25719 77.0596 2
-8 10 27 2069.02 332.071 2
-10 -8 27 1949.21 312.29 2
-9 10 27 2517.43 381.248 2
-10 -9 27 2111.97 335.833 2
-10 10 27 34.7118 112.207 2
-10 -10 27 12.3361 77.0916 2
-11 10 27 167.338 103.328 2
-10 -11 27 206.223 114.746 2
-11 9 27 106.906 88.1291 2
-9 -11 27 38.8621 93.8994 2
-8 -11 27 1116.14 238.534 2
-11 8 27 1019.85 226.441 2
-7 -11 27 1492.47 286.944 2
-11 7 27 1475.26 283.038 2
-6 -11 27 212.587 155.722 2
-11 6 27 192.096 120.846 2
-5 -11 27 411.37 158.613 2
5 11 27 368.327 140.439 2
-11 5 27 548.368 209.942 2
-4 -11 27 256.043 115.098 2
-11 4 27 454.382 152.762 2
4 11 27 503.948 187.844 2
-3 -11 27 1001.19 258.73 2
-11 3 27 820.322 210.419 2
3 11 27 979.881 227.091 2
-2 -11 27 213.053 116.56 2
-11 2 27 183.949 72.731 2
2 11 27 32.2482 82.9836 2
1 11 27 954.266 264.849 2
-1 -11 27 1168 251.617 2
-11 1 27 877.786 216.191 2
0 11 27 228.874 157.825 2
0 -11 27 270.719 154.474 2
-11 0 27 163.783 118.035 2
-1 11 27 821.067 252.454 2
1 -11 27 1344.71 298.469 2
-11 -1 27 1115.59 246.297 2
-2 11 27 -1.87771 78.333 2
-11 -2 27 245.34 145.749 2
-3 11 27 414.663 238.421 2
-11 -3 27 955.476 204.259 2
-4 11 27 254.446 155.096 2
-11 -4 27 340.382 141.424 2
-5 11 27 298.954 156.759 2
-11 -5 27 377.675 160.709 2
-6 11 27 143.852 95.7906 2
-11 -6 27 120.915 128.472 2
-7 11 27 1254.15 238.679 2
-11 -7 27 1333.26 258.375 2
-8 11 27 824.213 234.054 2
-11 -8 27 851.418 204.155 2
-9 11 27 254.932 160.981 2
-11 -9 27 314.843 133.453 2
-10 11 27 11.2357 117.558 2
-11 -10 27 257.828 124.172 2
-11 11 27 2367.86 350.377 2
-11 -11 27 2584.41 349.531 2
-12 11 27 2294.83 355.25 2
-10 -12 27 3699.91 424.384 2
-12 10 27 3952.71 444.353 2
-9 -12 27 800.768 215.242 2
-12 9 27 1066.9 264.875 2
-8 -12 27 -38.7505 85.2666 2
-12 8 27 10.8531 98.547 2
-7 -12 27 3025.61 399.227 2
-12 7 27 2762.61 382.318 2
-6 -12 27 909.723 243.325 2
-12 6 27 798.88 214.449 2
-5 -12 27 521.274 186.218 2
-12 5 27 575.135 193.373 2
5 12 27 -16.465 94.1491 2
-4 -12 27 778.737 220.39 2
-12 4 27 607.333 151.902 2
4 12 27 1044.85 237.847 2
-3 -12 27 601.722 188.929 2
-12 3 27 599.732 192.696 2
3 12 27 470.105 167.244 2
-2 -12 27 1197.93 253.285 2
-12 2 27 1139.54 254.763 2
2 12 27 1126.32 227.694 2
1 12 27 236.131 167.966 2
-12 1 27 427.148 140.27 2
0 12 27 1279.36 290.638 2
-12 0 27 1647.88 289.951 2
-1 12 27 276.771 172.978 2
-12 -1 27 205.146 130.594 2
-2 12 27 527.855 181.286 2
-12 -2 27 939.161 219.629 2
-3 12 27 75.9426 99.4362 2
-12 -3 27 590.1 188.363 2
-4 12 27 1202.62 248.947 2
-12 -4 27 454.309 152.582 2
-5 12 27 77.4709 101.45 2
-12 -5 27 399.457 148.607 2
-6 12 27 1002.82 251.864 2
-12 -6 27 810.069 210.348 2
-7 12 27 3091.74 402.078 2
-12 -7 27 2427.96 350.877 2
-8 12 27 -133.508 161.632 2
-12 -8 27 -64.5391 124.743 2
-9 12 27 953.532 237.333 2
-12 -9 27 624.089 205.654 2
-12 -10 27 3164.55 389.501 2
-10 12 27 3601.16 428.665 2
-11 12 27 2039.39 342.802 2
-12 -11 27 1701.77 288.056 2
-12 12 27 256.03 165.782 2
-13 12 27 1738.59 302.16 2
-13 11 27 864.308 225.591 2
-13 10 27 564.014 204.688 2
-13 9 27 1117.68 231.938 2
-13 8 27 518.407 211.499 2
-13 7 27 166.938 132.275 2
-13 6 27 734.898 202.92 2
-13 5 27 762.839 203.563 2
5 13 27 811.545 159.739 2
-13 4 27 -38.9084 113.338 2
4 13 27 26.828 95.6485 2
-13 3 27 547.133 209.244 2
3 13 27 471.738 155.699 2
2 13 27 300.131 87.3897 2
-13 2 27 663.426 212.73 2
1 13 27 2024.02 310.456 2
-13 1 27 2072.51 332.355 2
0 13 27 888.808 248.961 2
-13 0 27 1106.69 238.787 2
-1 13 27 1088.19 271.828 2
-13 -1 27 2016.15 311.883 2
-2 13 27 221.198 133.956 2
-13 -2 27 356.574 161.488 2
-3 13 27 556.901 226.177 2
-13 -3 27 484.928 178.934 2
-4 13 27 -16.3488 98.5854 2
-13 -4 27 167.241 147.631 2
-5 13 27 634.338 186.607 2
-13 -5 27 787.419 228.667 2
-6 13 27 426.116 167.175 2
-13 -6 27 425.62 151.878 2
-7 13 27 53.0863 92.9693 2
-13 -7 27 60.6267 130.492 2
-8 13 27 165.565 123.455 2
-13 -8 27 205.808 103.919 2
-9 13 27 1166.61 246.797 2
-13 -9 27 1178.1 259.385 2
-10 13 27 174.724 136.996 2
-13 -10 27 -5.99945 123.148 2
-11 13 27 943.436 250.365 2
-13 -11 27 587.647 197.116 2
-12 13 27 1447.54 283.202 2
-13 13 27 708.252 204.883 2
-14 13 27 603.623 192.415 2
-14 12 27 1066.89 226.476 2
-14 11 27 3035.53 394.302 2
-14 10 27 53.5572 99.4148 2
-14 9 27 1121.09 245.885 2
-14 8 27 1244.94 257.157 2
-14 7 27 569.368 151.239 2
-14 6 27 706.245 213.083 2
-14 5 27 148.247 117.002 2
5 14 27 194.18 111.333 2
-14 4 27 49.0647 80.5142 2
4 14 27 -93.859 67.3247 2
-14 3 27 422.583 160.673 2
3 14 27 591.721 160.524 2
2 14 27 610.057 168.907 2
-14 2 27 940.903 230.893 2
1 14 27 1309.53 254.924 2
-14 1 27 1219.22 247.157 2
0 14 27 142.58 130.719 2
-14 0 27 90.2516 122.77 2
-1 14 27 1015.02 268.41 2
-14 -1 27 1276.96 282.006 2
-2 14 27 485.667 206.377 2
-14 -2 27 674.429 212.406 2
-3 14 27 310.792 156.284 2
-14 -3 27 821.92 220.652 2
-4 14 27 0.23958 82.123 2
-14 -4 27 165.253 76.3826 2
-5 14 27 78.409 114.824 2
-14 -5 27 275.03 103.891 2
-6 14 27 615.665 206.616 2
-14 -6 27 506.095 166.234 2
-7 14 27 552.099 201.711 2
-14 -7 27 837.965 216.495 2
-8 14 27 1267.11 273.421 2
-14 -8 27 1155.9 230.361 2
-9 14 27 947.359 226.835 2
-14 -9 27 625.585 164.089 2
-10 14 27 -19.9163 115.504 2
-14 -10 27 -31.8311 77.4257 2
-11 14 27 3099.18 401.818 2
-12 14 27 1073.36 239.169 2
-13 14 27 489.694 162.672 2
-14 14 27 1424 269.089 2
-15 14 27 468.313 162.8 2
-15 13 27 479.088 174.666 2
-15 12 27 190.207 143.389 2
-15 11 27 341.972 161.204 2
-15 10 27 685.152 201.528 2
-15 9 27 276.991 132.644 2
-15 8 27 697.349 180.906 2
-15 7 27 309.537 121.309 2
-15 6 27 119.404 91.9624 2
-15 5 27 42.718 78.901 2
5 15 27 276.374 120.69 2
-15 4 27 288.181 136.612 2
4 15 27 532.521 179.18 2
3 15 27 1535.42 263.441 2
-15 3 27 1553.99 272.071 2
2 15 27 1487.14 261.9 2
-15 2 27 1701.97 293.08 2
1 15 27 378.455 171.681 2
-15 1 27 527.835 176.733 2
0 15 27 -5.54719 108.789 2
-15 0 27 292.565 165.587 2
-1 15 27 174.16 119.173 2
-15 -1 27 402.001 164.226 2
-2 15 27 1063.5 232.445 2
-15 -2 27 1093.19 240.865 2
-3 15 27 1428.03 267.568 2
-15 -3 27 1178.9 231.679 2
-4 15 27 451.162 175.334 2
-15 -4 27 547.368 196.72 2
-5 15 27 -315.843 143.419 2
-15 -5 27 4.04603 86.779 2
-6 15 27 157.801 126.245 2
-15 -6 27 40.2262 108.569 2
-7 15 27 484.072 189.029 2
-15 -7 27 506.952 190.817 2
-8 15 27 483.046 178.929 2
-15 -8 27 758.02 243.934 2
-9 15 27 59.3152 90.8831 2
-15 -9 27 21.972 128.969 2
-10 15 27 657.155 203.593 2
-15 -10 27 337.664 127.3 2
-11 15 27 553.429 187.856 2
-12 15 27 208.778 131.131 2
-13 15 27 160.122 118.117 2
-14 15 27 365.784 136.561 2
-15 15 27 362.732 158.103 2
-16 15 27 249.52 131.992 2
-16 14 27 570.005 185.91 2
-16 13 27 1001.1 227.851 2
-16 12 27 1257.12 256.124 2
-16 11 27 602.01 203.827 2
-16 10 27 162.071 129.477 2
-16 9 27 1843.76 301.635 2
-16 8 27 168.327 124.445 2
-16 7 27 112.624 110.244 2
-16 6 27 768.631 211.634 2
-16 5 27 230.216 151.318 2
-16 4 27 329.373 144.458 2
4 16 27 159.894 104.851 2
3 16 27 1877.58 288.535 2
-16 3 27 2136.54 322.852 2
2 16 27 80.1162 82.4833 2
-16 2 27 -192.302 142.877 2
1 16 27 1612.23 273.69 2
-16 1 27 1797.23 299.769 2
0 16 27 458.828 198 2
-16 0 27 696.014 197.482 2
-1 16 27 1682.93 293.105 2
-16 -1 27 1508.3 274.593 2
-2 16 27 101.257 120.228 2
-16 -2 27 -93.3233 117.895 2
-3 16 27 1907.21 303.835 2
-16 -3 27 1846 302.093 2
-4 16 27 160.452 132.958 2
-16 -4 27 295.354 140.736 2
-5 16 27 219.721 133.718 2
-16 -5 27 381.817 216.656 2
-6 16 27 663.557 205.352 2
-16 -6 27 523.699 175.261 2
-7 16 27 332.104 128.847 2
-16 -7 27 135.872 88.6156 2
-8 16 27 450.277 179.492 2
-16 -8 27 143.401 109.848 2
-9 16 27 2059.44 334.255 2
-16 -9 27 1447.45 242.066 2
-10 16 27 195.872 107.299 2
-11 16 27 354.375 154.244 2
-12 16 27 1585.71 275.44 2
-13 16 27 1007.95 220.092 2
-14 16 27 845.236 232.241 2
-15 16 27 643.987 206.422 2
-16 16 27 -38.1614 106.947 2
-16 27 17 -39.3194 83.3317 2
-17 16 27 16.6009 69.5455 2
-15 27 17 719.926 196.805 2
-17 15 27 913.348 225.283 2
-17 14 27 278.468 153.847 2
-17 13 27 178.051 130.776 2
-17 12 27 116.162 72.9479 2
-17 11 27 344.997 132.978 2
-17 10 27 767.255 210.762 2
-17 9 27 26.5819 153.085 2
-17 8 27 -40.5659 81.8642 2
-17 7 27 125.516 105.629 2
-17 6 27 1133.83 247.247 2
-17 5 27 521.947 160.454 2
-17 4 27 1147.46 244.25 2
4 17 27 1132.41 218.125 2
3 17 27 619.719 153.31 2
-17 3 27 922.949 227.247 2
2 17 27 49.3556 74.1654 2
-17 2 27 179.348 125.559 2
1 17 27 153.775 106.173 2
-17 1 27 222.349 144.106 2
-17 0 27 2531.63 342.269 2
0 17 27 2712.13 347.966 2
-1 17 27 270.977 165.425 2
-17 -1 27 465.323 241.374 2
-2 17 27 96.5217 86.5001 2
-17 -2 27 46.5331 71.8373 2
-3 17 27 692.167 196.312 2
-17 -3 27 433.462 142.479 2
-4 17 27 1269.6 266.807 2
-17 -4 27 1302.41 240.351 2
-5 17 27 518.636 160.209 2
-17 -5 27 763.467 199.588 2
-6 17 27 1005 206.795 2
-17 -6 27 806.2 196.437 2
-7 17 27 64.4032 96.3511 2
-17 -7 27 -84.8186 123.975 2
-8 17 27 4.26511 105.224 2
-17 -8 27 189.84 133.565 2
-9 17 27 21.0231 98.4508 2
-17 -9 27 85.2311 103.564 2
-10 17 27 922.599 200.479 2
-11 17 27 525.469 182.847 2
-12 17 27 421.663 161.747 2
-13 17 27 15.6979 104.675 2
-14 17 27 476.498 149.118 2
-15 17 27 815.148 197.183 2
-16 17 27 190.92 115.317 2
-17 27 16 108.673 104.254 2
-17 17 27 -43.6255 80.6076 2
-17 27 17 250.617 142.014 2
-17 27 18 250.026 142.498 2
-18 17 27 63.3213 83.3344 2
-16 27 18 320.95 150.607 2
-18 16 27 47.1633 89.6629 2
-15 27 18 809.866 213.386 2
-18 15 27 253.187 103.182 2
-14 27 18 181.363 110.482 2
-18 14 27 135.506 127.021 2
-13 27 18 220.321 151.909 2
-18 13 27 15.7425 116.625 2
-18 12 27 318.079 196.206 2
-18 11 27 50.1464 199.932 2
-18 10 27 735.535 259.586 2
-18 9 27 -37.784 93.1609 2
-18 8 27 535.424 183.533 2
-18 7 27 244.023 144.156 2
-18 6 27 471.604 160.842 2
-18 5 27 721.523 200.886 2
-18 4 27 -14.3299 93.8736 2
4 18 27 38.6016 63.8882 2
3 18 27 252.997 129.597 2
-18 3 27 257.703 119.895 2
2 18 27 49.1929 90.7457 2
-18 2 27 -18.1033 76.7733 2
1 18 27 1070 210.036 2
-18 1 27 1295.76 239.329 2
0 18 27 308.581 111.486 2
-18 0 27 400.635 130.454 2
-1 18 27 1030.37 232.029 2
-18 -1 27 1114.5 218.29 2
-2 18 27 -9.22967 80.5503 2
-18 -2 27 30.839 86.6064 2
-3 18 27 189.271 94.7849 2
-18 -3 27 284.768 144.236 2
3 27 18 222.79 126.724 2
-4 18 27 39.2176 78.8833 2
-18 -4 27 40.0442 86.0181 2
4 27 18 19.2102 70.2207 2
-5 18 27 775.057 205.386 2
-18 -5 27 655.833 159.403 2
-6 18 27 640.953 207.967 2
-18 -6 27 591.419 142.64 2
-7 18 27 -176.399 136.142 2
-18 -7 27 -149.784 85.652 2
-8 18 27 331.058 130.983 2
-18 -8 27 335.555 125.155 2
-9 18 27 20.9917 100.685 2
-10 18 27 1222.92 250.036 2
-11 18 27 909.482 194.098 2
-12 18 27 789.565 206.179 2
-13 18 27 11.7382 79.8513 2
-14 18 27 326.476 160.419 2
-15 18 27 479.722 152.194 2
-18 27 15 830.768 204.332 2
-16 18 27 56.2902 88.0593 2
-18 27 16 190.721 134.03 2
-17 18 27 64.9628 88.8774 2
-18 27 17 220.121 118.445 2
-18 27 18 292.009 155.834 2
-18 18 27 225.846 124.953 2
-18 27 19 155.303 118.329 2
-19 18 27 8.93834 92.0133 2
-17 27 19 993.859 217.256 2
-19 17 27 249.865 196.582 2
-16 27 19 350.748 155.893 2
-19 16 27 110.843 144.947 2
-15 27 19 56.5938 107.218 2
-19 15 27 -13.3077 83.4695 2
-14 27 19 -20.4194 89.7936 2
-19 14 27 37.0138 120.577 2
-13 27 19 1288.01 243.106 2
-19 13 27 596.085 271.757 2
-12 27 19 688.766 192.018 2
-19 12 27 215.012 192.731 2
-11 27 19 -75.0291 101.62 2
-19 11 27 -7.39126 69.4427 2
-10 27 19 514.328 166.429 2
-19 10 27 61.6929 201.108 2
-19 9 27 -5.109 69.9314 2
-19 8 27 1100.04 300.014 2
-19 7 27 383.133 174.404 2
-19 6 27 293.806 129.589 2
-19 5 27 467.545 169.407 2
-19 4 27 1887.34 282.237 2
4 19 27 1276.06 211.802 2
3 19 27 753.497 181.689 2
-19 3 27 590.288 147.172 2
2 19 27 796.899 207.89 2
-19 2 27 1131.28 229.274 2
1 19 27 985.185 215.918 2
-19 1 27 1000.7 212.525 2
0 19 27 211.655 111.492 2
-19 0 27 261.319 101.297 2
0 27 19 40.8919 91.6455 2
-1 19 27 719.698 203.927 2
-19 -1 27 1011.32 201.648 2
1 27 19 856.057 229.776 2
-2 19 27 1116.44 238.966 2
-19 -2 27 1489.41 249.751 2
2 27 19 743.589 168.541 2
-3 19 27 507.737 174.82 2
-19 -3 27 567.661 170.935 2
3 27 19 501.354 174.84 2
-4 19 27 1138.84 228.811 2
-19 -4 27 1157.39 221.827 2
4 27 19 945.034 188.565 2
-5 19 27 313.227 112.291 2
-19 -5 27 564.802 172.914 2
-6 19 27 357.174 156.879 2
-19 -6 27 216.438 93.0584 2
-7 19 27 813.532 214.834 2
-19 -7 27 480.983 117.74 2
-8 19 27 2844.73 361.276 2
-9 19 27 280.754 142.166 2
-10 19 27 645.106 172.375 2
-11 19 27 165.192 106.767 2
-12 19 27 1011.01 220.506 2
-13 19 27 1879.83 290.173 2
-14 19 27 65.6227 91.8495 2
-15 19 27 -69.9956 102.715 2
-19 27 15 -46.8157 92.2323 2
-16 19 27 119.117 84.9938 2
-19 27 16 100.161 78.6305 2
-17 19 27 778.715 219.206 2
-19 27 17 749.254 207.74 2
-19 27 18 -59.6187 67.3372 2
-18 19 27 -3.93371 65.8114 2
-19 27 19 13.7319 65.3875 2
-19 19 27 28.3561 88.1657 2
-19 27 20 192.003 100.894 2
-20 19 27 -9.4048 57.2495 2
-18 27 20 505.681 166.513 2
-20 18 27 65.4225 146.327 2
-17 27 20 71.6226 67.5341 2
-20 17 27 89.2239 98.9447 2
-16 27 20 502.323 153.851 2
-20 16 27 93.474 151.545 2
-15 27 20 115.843 102.946 2
-20 15 27 27.0802 121.608 2
-14 27 20 1355.67 247.262 2
-20 14 27 112.651 204.734 2
-13 27 20 236.134 124.71 2
-20 13 27 12.9112 74.9074 2
-12 27 20 903.664 211.007 2
-20 12 27 147.322 196.01 2
-11 27 20 416.64 176.883 2
-20 11 27 -29.2092 87.4317 2
-10 27 20 415.809 138.716 2
-20 10 27 68.4799 146.456 2
-9 27 20 -51.4785 94.4771 2
-20 9 27 14.0523 120.631 2
-8 27 20 2050.06 306.202 2
-20 8 27 574.047 264.211 2
-7 27 20 179.032 120.041 2
-20 7 27 12.3184 123.676 2
-6 27 20 436.838 153.86 2
-20 6 27 23.3233 86.5722 2
-5 27 20 81.0597 117.211 2
-20 5 27 26.318 103.423 2
-4 27 20 68.7437 89.8787 2
-20 4 27 195.572 112.654 2
4 20 27 215.706 97.7298 2
3 20 27 237.201 101.804 2
-3 27 20 490.446 194.51 2
-20 3 27 634.973 187.958 2
2 20 27 345.265 137.049 2
-2 27 20 333.513 147.937 2
-20 2 27 302.647 118.104 2
1 20 27 177.856 120.22 2
-1 27 20 282.474 124.849 2
-20 1 27 373.966 138.732 2
0 20 27 79.2644 143.212 2
0 27 20 98.2903 98.4534 2
-20 0 27 61.7304 64.1459 2
-1 20 27 80.6715 98.4058 2
1 27 20 -85.7655 100.138 2
-20 -1 27 115.49 80.5308 2
2 27 20 211.292 114.342 2
-20 -2 27 191.001 106.189 2
-3 20 27 394.313 178.453 2
3 27 20 415.332 141.651 2
-20 -3 27 534.9 152.677 2
-4 20 27 137.052 121.414 2
-5 20 27 80.1971 95.342 2
-6 20 27 597.004 187.986 2
-7 20 27 338.098 158.656 2
-8 20 27 1795.63 282.049 2
-9 20 27 328.969 147.804 2
-10 20 27 259.69 112.484 2
-11 20 27 282.054 134.088 2
-12 20 27 886.838 208.795 2
-13 20 27 491.264 169.482 2
-14 20 27 960.011 207.755 2
-20 27 14 1380.8 248.098 2
-15 20 27 168.495 103.543 2
-20 27 15 101.316 99.7609 2
-16 20 27 652.434 175.876 2
-20 27 16 503.273 157.462 2
-17 20 27 137.921 114.532 2
-20 27 17 94.2114 90.7232 2
-20 27 18 265.835 122.068 2
-18 20 27 181.196 132.517 2
-20 27 19 59.6756 62.1399 2
-19 20 27 -3.7619 56.1347 2
-20 27 20 790.258 160.508 2
-20 20 27 305.056 185.773 2
-19 27 21 229.942 108.317 2
-21 19 27 49.2426 80.7701 2
-18 27 21 431.246 139.677 2
-21 18 27 418.864 181.573 2
-17 27 21 187.106 110.382 2
-21 17 27 12.4374 56.6755 2
-16 27 21 76.2011 76.0421 2
-21 16 27 41.0392 97.1641 2
-21 15 27 794.651 265.993 2
-15 27 21 1423.23 240.676 2
-14 27 21 328.164 151.984 2
-21 14 27 40.265 110.654 2
-13 27 21 227.566 107.269 2
-21 13 27 32.844 86.2323 2
-12 27 21 627.511 181.149 2
-21 12 27 54.938 131.639 2
-11 27 21 493.812 154.459 2
-21 11 27 186.364 179.85 2
-10 27 21 1553.14 263.769 2
-21 10 27 367.67 233.569 2
-9 27 21 404.46 143.149 2
-21 9 27 33.9576 129.088 2
-8 27 21 96.7051 111.554 2
-21 8 27 -13.1772 73.8423 2
-7 27 21 352.333 145.479 2
-21 7 27 275.29 119.384 2
-21 6 27 2564.92 305.442 2
-6 27 21 2129.48 299.494 2
-5 27 21 775.565 217.965 2
-21 5 27 977.713 201.633 2
-4 27 21 241.144 157.867 2
-21 4 27 373.094 138.772 2
3 21 27 468.56 149.593 2
-3 27 21 649.024 186.185 2
-21 3 27 655.184 176.063 2
2 21 27 291.274 108.522 2
-2 27 21 331.452 139.887 2
1 21 27 527.127 157.969 2
-1 27 21 1001.65 211.753 2
-21 1 27 846.066 194.217 2
0 21 27 285.296 128.571 2
0 27 21 81.3575 72.2548 2
-1 21 27 754.065 186.087 2
1 27 21 736.577 177.432 2
-2 21 27 621.994 169.232 2
2 27 21 382.657 131.557 2
-3 21 27 408.081 164.19 2
3 27 21 446.468 150.711 2
-4 21 27 201.483 116.249 2
-5 21 27 1073.22 223.499 2
-6 21 27 2539.58 337.524 2
-7 21 27 470.408 164.706 2
-8 21 27 209.246 119.669 2
-9 21 27 324.286 148.445 2
-10 21 27 1323.91 235.187 2
-11 21 27 392.572 141.629 2
-12 21 27 604.952 177.832 2
-21 27 12 382.284 147.518 2
-13 21 27 -132.022 102.271 2
-21 27 13 239.084 114.301 2
-14 21 27 343.413 144.243 2
-21 27 14 310.492 119.575 2
-15 21 27 1853.08 272.001 2
-21 27 15 1246.27 221.221 2
-16 21 27 212.056 105.003 2
-21 27 16 225.053 112.162 2
-21 27 17 34.2331 77.2881 2
-17 21 27 -49.2467 63.1254 2
-21 27 18 474.222 133.016 2
-18 21 27 201.416 138.558 2
-21 27 19 115.674 82.9581 2
-19 21 27 36.4542 104.492 2
-17 27 22 35.4036 85.4121 2
-22 17 27 26.6777 65.7504 2
-16 27 22 414.052 151.794 2
-22 16 27 142.722 128.807 2
-15 27 22 16.3793 67.1923 2
-22 15 27 7.23459 110.242 2
-14 27 22 175.99 123.386 2
-22 14 27 -2.39294 69.3169 2
-13 27 22 140.302 115.312 2
-22 13 27 -32.7363 61.957 2
-12 27 22 473.823 152.007 2
-22 12 27 135.24 159.539 2
-11 27 22 29.1232 88.8369 2
-22 11 27 81.9795 98.4622 2
-10 27 22 1248.35 224.136 2
-22 10 27 309.017 210.121 2
-9 27 22 128.076 90.879 2
-22 9 27 7.12783 102.188 2
-8 27 22 79.6908 115.148 2
-22 8 27 243.904 115.838 2
-7 27 22 -28.6123 81.7508 2
-22 7 27 41.8569 97.0708 2
-6 27 22 1036.08 219.297 2
-22 6 27 920.765 187.644 2
-5 27 22 7.27156 83.3177 2
-22 5 27 108.786 101.379 2
-4 27 22 129.976 91.601 2
3 22 27 852.443 190.778 2
-3 27 22 844.291 190.515 2
2 22 27 116.872 121.269 2
-2 27 22 -37.4064 94.5654 2
1 22 27 363.965 126.135 2
-1 27 22 410.686 142.277 2
0 22 27 160.678 130.465 2
0 27 22 306.365 125.001 2
-1 22 27 200.257 95.788 2
1 27 22 278.332 98.8793 2
-2 22 27 59.1054 113.889 2
2 27 22 41.3486 70.6286 2
-3 22 27 883.532 205.43 2
3 27 22 389.823 110.437 2
-4 22 27 139.745 67.4702 2
-5 22 27 20.1305 86.9523 2
-6 22 27 665.111 162.259 2
-7 22 27 -190.906 139.701 2
-8 22 27 311.438 133.424 2
-9 22 27 143.324 121.285 2
-10 22 27 1232.48 217.788 2
-11 22 27 101.875 82.4092 2
-22 27 11 393.505 147.04 2
-12 22 27 405.657 141.766 2
-22 27 12 469.329 146.022 2
-13 22 27 -59.2882 85.8156 2
-22 27 13 -95.7111 79.6936 2
-14 22 27 262.892 114.797 2
-22 27 14 236.481 116.534 2
-15 22 27 -87.2437 93.6128 2
-22 27 15 58.3856 79.5935 2
-16 22 27 210.634 141.205 2
-22 27 16 490.184 145.81 2
-22 27 17 21.4645 60.7945 2
-17 22 27 25.0986 102.168 2
-16 27 23 159.859 105.236 2
-15 27 23 234.851 137.815 2
-23 15 27 -2.68189 59.4355 2
-14 27 23 257.608 130.444 2
-23 14 27 57.7516 95.7271 2
-13 27 23 294.331 126.12 2
-23 13 27 88.8914 144.29 2
-12 27 23 665.723 186.258 2
-23 12 27 79.7354 129.573 2
-11 27 23 233.278 110.978 2
-10 27 23 307.024 135.416 2
-9 27 23 335.637 130.53 2
-8 27 23 515.262 146.506 2
-7 27 23 57.9924 75.2233 2
-6 27 23 70.0074 79.0168 2
-5 27 23 398.203 185.209 2
-4 27 23 169.93 128.244 2
-3 27 23 614.232 162.441 2
2 23 27 -0.45234 60.3036 2
-2 27 23 -48.5099 78.6337 2
1 23 27 379.365 132.676 2
-1 27 23 365.259 126.757 2
0 23 27 120.034 81.8413 2
0 27 23 211.75 94.4782 2
-1 23 27 573.971 166.256 2
1 27 23 485.612 145.357 2
-2 23 27 3.89919 71.4749 2
2 27 23 25.0993 77.3796 2
-3 23 27 398.853 167.828 2
-4 23 27 122.512 98.9372 2
-5 23 27 487.303 161.349 2
-6 23 27 56.3713 67.5594 2
-7 23 27 -25.3021 76.3529 2
-8 23 27 615.784 167.24 2
-9 23 27 183.519 80.4332 2
-23 27 9 327.676 109.944 2
-10 23 27 163.786 95.9791 2
-23 27 10 226.457 146.26 2
-11 23 27 134.613 97.4498 2
-23 27 11 175.968 79.9015 2
-12 23 27 487.053 149.71 2
-23 27 12 515.104 140.715 2
-13 23 27 675.789 168.564 2
-23 27 13 676.304 157.094 2
-14 23 27 56.4892 65.9607 2
-23 27 14 80.9971 63.5668 2
-15 23 27 191.289 107.674 2
-23 27 15 68.8764 61.2481 2
-16 23 27 179.322 115.58 2
-23 27 16 184.359 91.2039 2
-15 27 24 217.3 112.275 2
-14 27 24 207.615 102.168 2
-13 27 24 138.381 83.1456 2
-12 27 24 253.191 118.369 2
-11 27 24 -67.2318 106.753 2
-10 27 24 13.9596 65.9571 2
-9 27 24 71.7364 81.669 2
-8 27 24 216.941 97.5114 2
-7 27 24 55.8464 101.269 2
-6 27 24 414.063 216.738 2
-5 27 24 314.51 131.845 2
-4 27 24 108.465 106.342 2
-3 27 24 323.816 112.653 2
2 24 27 -23.3133 70.2687 2
-2 27 24 318.755 141.854 2
1 24 27 537.971 177.127 2
-1 27 24 727.3 161.563 2
0 24 27 41.0814 64.031 2
0 27 24 109.501 83.311 2
-1 24 27 679.196 175.127 2
1 27 24 562.308 146.6 2
-2 24 27 34.5752 103.598 2
2 27 24 218.311 98.3439 2
-3 24 27 302.256 128.385 2
-4 24 27 115.583 69.4308 2
-5 24 27 481.481 152.156 2
-6 24 27 330.365 145.363 2
-7 24 27 61.0536 102.113 2
-8 24 27 221.071 110.366 2
-9 24 27 255.915 134.26 2
-10 24 27 92.2144 75.8695 2
-11 24 27 17.9413 86.3743 2
-12 24 27 324.204 122.605 2
-13 24 27 -74.774 96.2011 2
-14 24 27 80.4806 91.3079 2
-15 24 27 235.728 118.938 2
-13 27 25 238.361 110.161 2
-12 27 25 22.5354 57.5917 2
-11 27 25 -75.9479 66.9032 2
-10 27 25 56.21 81.232 2
-9 27 25 -107.344 87.5577 2
-8 27 25 139.908 103.654 2
-7 27 25 44.3612 82.0604 2
-6 27 25 29.6154 93.4648 2
-5 27 25 36.2411 86.2137 2
-4 27 25 532.741 150.359 2
-3 27 25 88.6635 96.5466 2
-2 27 25 -19.4102 72.6158 2
2 25 27 -21.0804 74.1755 2
1 25 27 15.1005 95.8616 2
-1 27 25 56.2619 53.1639 2
0 25 27 59.8101 70.8287 2
0 27 25 -199.385 100.452 2
-1 25 27 240.793 127.834 2
1 27 25 219.776 113.41 2
-2 25 27 -45.8678 73.9154 2
-3 25 27 93.3071 73.741 2
-4 25 27 582.895 176.58 2
-5 25 27 173.532 101.22 2
-6 25 27 -56.4362 88.1007 2
-7 25 27 213.458 107.352 2
-8 25 27 125.066 108.532 2
-9 25 27 22.905 75.2162 2
-10 25 27 116.306 83.6889 2
-11 25 27 -60.185 100.128 2
-12 25 27 -39.4602 88.6998 2
-13 25 27 209.506 101.084 2
-11 27 26 27.7867 71.6377 2
-10 27 26 0.2787 71.8671 2
-9 27 26 18.9529 63.894 2
-8 27 26 1.88101 56.4935 2
-7 27 26 60.9464 84.2888 2
-6 27 26 200.723 136.786 2
-5 27 26 6.08116 64.4876 2
-4 27 26 92.1772 106.318 2
-3 27 26 165.994 111.417 2
-2 27 26 88.9447 94.4985 2
-1 27 26 265.198 123.575 2
1 26 27 21.702 75.9354 2
0 26 27 5.55173 68.8153 2
0 27 26 -11.6352 47.764 2
1 27 26 20.4316 102.278 2
-1 26 27 121.621 96.1402 2
-2 26 27 -13.5761 64.1729 2
-3 26 27 64.6689 64.1877 2
-4 26 27 9.03162 83.3831 2
-5 26 27 63.6949 61.5744 2
-6 26 27 191.81 108.847 2
-7 26 27 112.83 103.357 2
-8 26 27 43.7021 58.9941 2
-9 26 27 64.471 102.046 2
-10 26 27 79.9482 74.2406 2
-11 26 27 7.43923 57.1463 2
0 27 27 17430 598.107 2
-1 27 27 -13.5665 58.644 2
-2 27 27 51.5966 136.064 2
-3 27 27 36.1606 70.6847 2
-4 27 27 -3.44027 58.8434 2
-5 27 27 80.0927 101.532 2
-6 27 27 675.722 181.741 2
-7 27 27 67.8811 67.0454 2
-8 27 27 6.06707 74.8194 2
0 0 28 106.154 87.4336 2
0 -1 28 546.067 228.905 2
1 0 28 571.786 206.503 2
-1 0 28 340.543 172.283 2
0 1 28 598.757 222.685 2
1 -1 28 -13.9643 108.588 2
-1 -1 28 -11.5577 85.833 2
1 1 28 68.482 75.652 2
-1 1 28 -31.6722 83.3543 2
2 -1 28 265.785 163.719 2
-1 -2 28 329.474 142.968 2
1 2 28 179.028 105.677 2
-2 1 28 350.936 159.838 2
0 -2 28 -55.9911 125.29 2
2 0 28 -33.0239 119.436 2
-2 0 28 58.6055 96.921 2
0 2 28 130.694 131.361 2
1 -2 28 107.669 143.437 2
-2 -1 28 378.118 155.471 2
2 1 28 192.411 136.362 2
-1 2 28 302.226 183.588 2
2 -2 28 16.9741 83.2082 2
-2 -2 28 68.6922 104.003 2
2 2 28 44.7348 121.792 2
-2 2 28 104.6 104.621 2
3 -2 28 86.8724 135.924 2
-2 -3 28 191.686 101.054 2
2 3 28 147.81 123.318 2
-3 2 28 133.747 116.422 2
3 -1 28 -15.2643 105.992 2
-1 -3 28 205.191 130.647 2
-3 1 28 192.792 83.0029 2
1 3 28 45.2219 88.1462 2
0 -3 28 428.765 205.32 2
3 0 28 1087.96 252.646 2
-3 0 28 1057.97 240.68 2
0 3 28 961.581 262.327 2
1 -3 28 200.123 150.293 2
3 1 28 133.158 111.805 2
-3 -1 28 196.196 123.257 2
-1 3 28 132.016 136.054 2
2 -3 28 27.523 116.78 2
-3 -2 28 112.868 99.6778 2
3 2 28 169.775 81.8676 2
-2 3 28 268.826 117.699 2
3 -3 28 -59.0809 118.67 2
-3 -3 28 -30.5267 80.1898 2
3 3 28 268.991 144.888 2
-3 3 28 2.40136 70.526 2
4 -3 28 98.0626 126.123 2
-3 -4 28 3.95445 130.678 2
3 4 28 9.15732 114.078 2
-4 3 28 12.5941 98.5994 2
4 -2 28 2719.4 353.637 2
-2 -4 28 3127.82 393.237 2
2 4 28 3376.58 409.643 2
-4 2 28 3365.96 408.255 2
-1 -4 28 169.784 104.751 2
4 -1 28 323.889 143.18 2
-4 1 28 118.195 120.252 2
1 4 28 309.214 173.296 2
0 -4 28 160.138 152.41 2
4 0 28 -162.538 114.526 2
-4 0 28 105.234 113.85 2
0 4 28 82.8953 113.622 2
1 -4 28 69.4112 123.155 2
4 1 28 128.402 118.361 2
-4 -1 28 103.218 111.543 2
-1 4 28 112.191 151.068 2
2 -4 28 2628.48 353.913 2
-4 -2 28 2926.27 392.011 2
4 2 28 2995.54 358.592 2
-2 4 28 2748.27 397.866 2
3 -4 28 15.8109 105.975 2
-4 -3 28 72.3717 93.7047 2
4 3 28 31.2193 104.977 2
-3 4 28 -92.8744 121.801 2
4 -4 28 -62.4083 125.443 2
-4 -4 28 127.158 139.172 2
4 28 -4 392.021 231.729 1
4 4 28 -149.727 152.58 2
-4 4 28 23.6722 103.122 2
4 28 -5 509.37 213.399 1
5 -4 28 553.881 177.446 2
-4 -5 28 750.018 192.919 2
4 5 28 255.114 95.7455 2
-5 4 28 404.598 148.789 2
3 28 -5 219.9 120.051 1
5 -3 28 464.368 152.158 2
-3 -5 28 270.062 96.9461 2
3 5 28 568.086 171.679 2
-5 3 28 187.695 145.379 2
5 -2 28 649.947 177.623 2
-2 -5 28 757.725 198.049 2
2 5 28 615.581 211.551 2
-5 2 28 635.479 158.079 2
-1 -5 28 974.312 246.37 2
5 -1 28 537.322 176.74 2
-5 1 28 462.224 169.801 2
1 5 28 395.656 171.995 2
0 -5 28 1760.67 333.445 2
5 0 28 1417.36 253.988 2
-5 0 28 1754.12 307.759 2
0 5 28 905.66 230.414 2
1 -5 28 623.022 169.895 2
5 1 28 690.549 193.696 2
-5 -1 28 662.687 193.973 2
-1 5 28 381.792 186.714 2
2 -5 28 866.313 215.843 2
5 2 28 933.267 239.627 2
-5 -2 28 886.391 218.627 2
-2 5 28 808.984 266.943 2
5 28 -3 792.643 275.17 1
3 -5 28 492.093 178.868 2
-5 -3 28 521.641 177.504 2
5 3 28 369.627 122.014 2
-3 5 28 653.345 210.4 2
4 -5 28 970.528 242.718 2
-5 -4 28 508.13 175.706 2
5 4 28 703.995 185.721 2
-4 5 28 788.391 201.802 2
5 28 -4 495.117 171.071 1
5 -5 28 175.806 125.525 2
-5 -5 28 397.621 156.988 2
5 5 28 176.398 84.8674 2
-5 5 28 369.859 152.943 2
6 -5 28 559.634 171.193 2
-5 -6 28 562.788 181.636 2
5 6 28 136.889 74.2431 2
-6 5 28 396.588 160.099 2
-4 -6 28 4564.48 481.776 2
4 6 28 3917.8 413.453 2
-6 4 28 3947.06 447.655 2
6 -4 28 4182.54 455.878 2
6 -3 28 2029.56 304.718 2
-3 -6 28 1938.52 344.097 2
3 6 28 2052.75 300.114 2
-6 3 28 1969.85 338.793 2
6 -2 28 245.727 163.508 2
-2 -6 28 252.088 158.907 2
-6 2 28 277.01 145.032 2
2 6 28 -29.3285 97.6502 2
2 28 -6 -188.253 178.654 1
-1 -6 28 912.678 243.862 2
6 -1 28 432.506 156.783 2
-6 1 28 693.366 185.996 2
1 6 28 317.059 191.221 2
6 0 28 273.476 140.71 2
-6 0 28 162.714 127.015 2
0 -6 28 264.706 140.654 2
0 6 28 408.283 183.62 2
1 -6 28 660.115 217.443 2
6 1 28 495.332 146.565 2
-6 -1 28 649.159 172.171 2
-1 6 28 377.306 176.21 2
6 28 -2 -26.3427 78.0035 1
2 -6 28 201.595 141.859 2
6 2 28 19.7277 68.9995 2
-6 -2 28 5.69879 115.181 2
-2 6 28 0.70956 93.7769 2
3 -6 28 2608.91 536.815 2
-6 -3 28 2532.57 368.26 2
6 3 28 1898.89 285.872 2
-3 6 28 2111.61 324.468 2
4 -6 28 3670.49 427.048 2
-6 -4 28 4096.33 463.694 2
6 4 28 3330.54 383.594 2
-4 6 28 3760.81 437.261 2
5 -6 28 533.312 222.865 2
-6 -5 28 269.163 150.56 2
6 5 28 55.8236 120.139 2
-5 6 28 354.574 137.39 2
6 -6 28 101.203 114.132 2
-6 -6 28 6.97262 96.0587 2
6 6 28 175.112 108.84 2
-6 6 28 222.499 126.924 2
7 -6 28 206.081 101.119 2
-6 -7 28 43.56 115.262 2
6 7 28 280.341 170.423 2
-7 6 28 238.699 132.227 2
7 -5 28 776.921 167.272 2
-5 -7 28 779.343 223.601 2
5 7 28 1164.63 237.528 2
-7 5 28 916.25 220.302 2
7 -4 28 587.972 171.878 2
-4 -7 28 422.85 166.391 2
4 7 28 536.578 156.139 2
-7 4 28 270.602 133.792 2
7 -3 28 490.005 131.991 2
-3 -7 28 702.702 217.234 2
3 7 28 488.169 168.132 2
-7 3 28 620.275 206.243 2
7 -2 28 470.295 172.199 2
-2 -7 28 238.907 132.502 2
-7 2 28 297.782 119.936 2
2 7 28 265.442 129.02 2
-1 -7 28 1920.64 310.543 2
7 -1 28 1900.49 292.059 2
-7 1 28 1970.01 317.802 2
1 7 28 1510.03 308.202 2
0 -7 28 3160.79 405.979 2
7 0 28 2740.1 370.116 2
-7 0 28 2899.19 385.368 2
0 7 28 3698.31 543.047 2
1 -7 28 1923.26 318.412 2
7 1 28 1800.91 277.304 2
-7 -1 28 2435 357.258 2
-1 7 28 1756.87 323.805 2
2 -7 28 382.561 192.199 2
7 2 28 218.059 102.897 2
-7 -2 28 306.114 151.294 2
-2 7 28 257.355 119.368 2
3 -7 28 134.537 85.8237 2
7 3 28 60.1975 89.2628 2
-7 -3 28 157.704 124.386 2
-3 7 28 211.689 112.126 2
4 -7 28 404.812 190.033 2
-7 -4 28 560.053 182.421 2
7 4 28 578.696 178.911 2
-4 7 28 629.117 198.389 2
5 -7 28 1126.29 240.774 2
-7 -5 28 1059.34 264.791 2
7 5 28 1092.36 229.209 2
-5 7 28 1281.77 261.797 2
6 -7 28 284.705 132.049 2
-7 -6 28 212.113 157.21 2
-6 7 28 138.985 120.868 2
-7 -7 28 659.15 193.281 2
-7 7 28 438.954 175.429 2
-7 -8 28 814.239 237.859 2
-8 7 28 880.302 248.002 2
-6 -8 28 1883.06 343.99 2
6 8 28 1367.78 227.68 2
-8 6 28 1772.48 304.783 2
8 -5 28 1625.68 270.553 2
-5 -8 28 1361.08 259.733 2
5 8 28 1637.12 276.706 2
-8 5 28 1340.45 272.772 2
8 -4 28 139.609 93.855 2
4 8 28 0.85183 99.5047 2
-8 4 28 212.532 126.043 2
-3 -8 28 872.551 229.054 2
8 -3 28 930.654 205.793 2
-8 3 28 1061.02 231.307 2
3 8 28 1006.89 239.273 2
2 8 28 2288.84 323.872 2
8 -2 28 2040.47 294.773 2
-2 -8 28 2282.88 336.522 2
-8 2 28 2221.17 340.727 2
-1 -8 28 2287.75 355.187 2
8 -1 28 2026.37 287.479 2
-8 1 28 1874.55 302.522 2
1 8 28 1224.99 292.798 2
0 -8 28 120.195 151.342 2
8 0 28 319.816 158.113 2
-8 0 28 214.024 136.639 2
0 8 28 80.826 146.2 2
1 -8 28 2356.41 346.076 2
8 1 28 1702.36 279.731 2
-8 -1 28 2150.53 337.653 2
-1 8 28 1265.51 296.894 2
2 -8 28 1724.56 312.293 2
-8 -2 28 2252.55 339.632 2
-2 8 28 1556.46 292.436 2
3 -8 28 562.197 187.285 2
-8 -3 28 764.618 201.382 2
-3 8 28 757.98 202.775 2
4 -8 28 95.1453 116.196 2
-8 -4 28 48.3585 115.974 2
-4 8 28 72.8588 124.071 2
5 -8 28 1154.64 244.01 2
-8 -5 28 1392.44 280.483 2
-5 8 28 1314.15 259.005 2
-8 -6 28 1639.72 309.11 2
-6 8 28 1764.55 303.624 2
-8 -7 28 1102.81 246.911 2
-7 8 28 802.328 214.533 2
-8 -8 28 423.973 164.438 2
-8 8 28 367.185 182.417 2
-8 -9 28 112.44 125.342 2
-9 8 28 300.929 120.88 2
-7 -9 28 647.771 206.111 2
-9 7 28 927.61 240.341 2
-6 -9 28 1274.18 269.209 2
6 9 28 1438.51 250.49 2
-9 6 28 1282.88 270.285 2
-5 -9 28 -27.0967 91.9267 2
-9 5 28 132.181 76.6345 2
9 -4 28 129.3 106.106 2
-4 -9 28 -40.3447 93.193 2
4 9 28 -98.3555 106.023 2
9 -3 28 2515.31 335.092 2
-3 -9 28 2757.46 381.516 2
-9 3 28 3040.42 393.963 2
3 9 28 2813.88 365.354 2
-2 -9 28 1148.53 269.134 2
-9 2 28 1221.22 265.234 2
2 9 28 984.285 215.556 2
-1 -9 28 1804.62 303.767 2
-9 1 28 1804.48 307.213 2
1 9 28 1933.2 301.474 2
0 -9 28 272.133 130.779 2
-9 0 28 190.087 131.609 2
0 9 28 131.664 131.242 2
1 -9 28 1760.57 316.858 2
-9 -1 28 1760.28 310.039 2
-1 9 28 966.871 291.875 2
2 -9 28 861.236 208.067 2
-9 -2 28 758.025 205.782 2
-2 9 28 497.708 224.248 2
3 -9 28 2594.11 388.818 2
-9 -3 28 3279.07 412.885 2
-3 9 28 2681.64 391.633 2
4 -9 28 -63.9953 91.2356 2
-9 -4 28 -102.951 113.316 2
-4 9 28 148.986 75.9794 2
-9 -5 28 371.78 173.529 2
-5 9 28 525.092 198.974 2
-9 -6 28 1315.82 252.776 2
-6 9 28 1750.04 290.693 2
-9 -7 28 506.643 181.716 2
-7 9 28 756.622 204.332 2
-9 -8 28 52.0258 115.572 2
-8 9 28 149.597 101.063 2
-9 -9 28 2961.91 395.085 2
-9 9 28 3342.7 414.625 2
-9 -10 28 718.568 196.992 2
-10 9 28 1027.84 253.55 2
-8 -10 28 149.77 127.839 2
-10 8 28 19.3459 82.029 2
-7 -10 28 -29.5286 113.373 2
-10 7 28 115.178 139.249 2
-6 -10 28 831.423 227.111 2
6 10 28 829.675 199.948 2
-10 6 28 520.945 171.585 2
-5 -10 28 1126.66 235.452 2
5 10 28 1091.92 196.797 2
-10 5 28 1172.8 266.901 2
-4 -10 28 972.438 232.618 2
-10 4 28 990.387 240.717 2
4 10 28 850.889 186.829 2
-3 -10 28 911.353 227.76 2
-10 3 28 780.806 210.879 2
3 10 28 610.301 157.003 2
-2 -10 28 174.316 120.568 2
-10 2 28 -66.9967 107.964 2
2 10 28 163.111 118.664 2
-1 -10 28 1504.02 292.787 2
-10 1 28 1541.2 290.853 2
1 10 28 1243.99 240.518 2
0 10 28 1756.51 354 2
0 -10 28 2410.62 347.949 2
-10 0 28 2077.36 319.498 2
1 -10 28 1280.2 262.209 2
-10 -1 28 1203.34 257.625 2
-1 10 28 698.94 205.354 2
2 -10 28 107.892 101.982 2
-10 -2 28 206.726 139.794 2
-2 10 28 69.4383 131.488 2
-10 -3 28 866.842 209.75 2
-3 10 28 668.721 223.11 2
-10 -4 28 795.046 202.8 2
-4 10 28 641.229 169.817 2
-5 10 28 1189.34 251.754 2
-10 -5 28 1159.92 245.418 2
-6 10 28 696.764 196.991 2
-10 -6 28 729.929 188.716 2
-7 10 28 -56.9685 93.2676 2
-10 -7 28 81.9718 133.533 2
-8 10 28 -114.995 129.804 2
-10 -8 28 95.2647 116.787 2
-10 -9 28 983.348 241.065 2
-9 10 28 838.915 217.99 2
-10 -10 28 653.184 185.851 2
-10 10 28 376.423 163.466 2
-10 -11 28 1887.62 297.652 2
-11 10 28 1896.74 311.203 2
-9 -11 28 2375.5 338.252 2
-11 9 28 2578.89 357.243 2
-8 -11 28 829.369 197.067 2
-11 8 28 1077.42 237.378 2
-7 -11 28 1340.04 273.914 2
-11 7 28 1179.1 240.353 2
-6 -11 28 391.153 155.472 2
-11 6 28 620.238 202.546 2
-5 -11 28 409.493 167.915 2
5 11 28 488.298 161.065 2
-11 5 28 260.892 107.075 2
-4 -11 28 1336.66 277.591 2
-11 4 28 1412.41 266.857 2
4 11 28 1459.14 243.119 2
-3 -11 28 684.041 207.097 2
-11 3 28 578.688 171.232 2
3 11 28 524.105 145.513 2
-2 -11 28 74.2492 131.842 2
-11 2 28 211.94 144.487 2
2 11 28 -193.341 127.539 2
-11 1 28 2918.27 386.011 2
-1 -11 28 2426.48 355.008 2
1 11 28 2066.08 315.927 2
0 -11 28 378.22 148.534 2
-11 0 28 774.61 209.002 2
0 11 28 481.479 178.067 2
-1 11 28 2355.28 364.485 2
-11 -1 28 2522.91 349.165 2
-11 -2 28 136.671 112.432 2
-2 11 28 5.18409 102.608 2
-3 11 28 437.452 187.997 2
-11 -3 28 577.6 181.929 2
-4 11 28 1394.25 256.77 2
-11 -4 28 1674.03 305.142 2
-5 11 28 415.715 174.429 2
-11 -5 28 252.317 122.42 2
-6 11 28 624.733 201.776 2
-11 -6 28 363.283 155.43 2
-7 11 28 1181.2 261.434 2
-11 -7 28 1071.17 250.292 2
-8 11 28 1098.55 237.56 2
-11 -8 28 1194.92 243.436 2
-9 11 28 2441.89 352.811 2
-11 -9 28 2278.99 333.295 2
-10 11 28 2041.78 329.442 2
-11 -10 28 1866.14 308.539 2
-11 11 28 1362.2 275.851 2
-11 -11 28 1180.14 237.578 2
-12 11 28 384.255 166.742 2
-12 10 28 1742.91 281.758 2
-12 9 28 835.962 238.55 2
-8 -12 28 452.62 187.887 2
-12 8 28 647.063 195.259 2
-7 -12 28 64.7985 105.951 2
-12 7 28 -43.3056 90.0909 2
-6 -12 28 124.933 93.6483 2
-12 6 28 303.075 160.374 2
-5 -12 28 49.2146 97.9472 2
-12 5 28 -46.4643 113.98 2
5 12 28 -0.98026 119.635 2
-4 -12 28 133.047 125.43 2
-12 4 28 310.59 128.526 2
4 12 28 245.152 110.008 2
-12 3 28 248.319 133.448 2
3 12 28 570.57 178.499 2
2 12 28 2696.09 341.789 2
-12 2 28 2662.42 370.557 2
-12 1 28 582.656 208.728 2
1 12 28 60.4249 96.3374 2
-12 0 28 147.045 87.1095 2
0 12 28 -54.7452 134.985 2
-1 12 28 60.6496 111.37 2
-12 -1 28 335.393 142.248 2
-12 -2 28 2815.58 381.314 2
-2 12 28 2234.76 356.074 2
-3 12 28 130.396 160.554 2
-12 -3 28 13.4861 118.67 2
-4 12 28 428.315 147.337 2
-12 -4 28 407.11 160.615 2
-5 12 28 195.638 151.307 2
-12 -5 28 76.6717 90.1661 2
-6 12 28 78.3513 84.6095 2
-12 -6 28 445.216 152.746 2
-7 12 28 310.001 160.202 2
-12 -7 28 72.2939 100.292 2
-8 12 28 447.668 176.035 2
-12 -8 28 484.47 145.209 2
-9 12 28 479.176 182.353 2
-12 -9 28 474.499 168.768 2
-10 12 28 1548.03 285.083 2
-12 -10 28 1288.51 255.866 2
-11 12 28 385.426 171.668 2
-12 -11 28 378.957 162.972 2
-12 12 28 174.725 136.301 2
-13 12 28 1867.87 307.715 2
-13 11 28 202.238 86.1114 2
-13 10 28 784.842 211.053 2
-13 9 28 1035.16 249.352 2
-13 8 28 1781.22 295.147 2
-13 7 28 491.675 187.871 2
-13 6 28 283.805 169.767 2
-13 5 28 -25.8562 103.25 2
5 13 28 60.1607 96.9839 2
-13 4 28 73.0252 78.5855 2
4 13 28 358.81 145.275 2
-13 3 28 612.366 193.066 2
3 13 28 689.693 173.392 2
-13 2 28 382.755 195.046 2
2 13 28 368.76 143.909 2
-13 1 28 965.058 222.962 2
1 13 28 937.392 272.34 2
0 13 28 1120.95 244.418 2
-13 0 28 786.014 188.937 2
-1 13 28 774.218 188.855 2
-13 -1 28 863.607 214.929 2
-2 13 28 300.727 151.505 2
-13 -2 28 405.234 151.793 2
-3 13 28 390.013 132.791 2
-13 -3 28 732.397 190.07 2
-4 13 28 248.55 144.256 2
-13 -4 28 35.5599 118.206 2
-5 13 28 35.0353 87.8178 2
-13 -5 28 -17.5151 92.1356 2
-6 13 28 161.129 118.478 2
-13 -6 28 252.745 146.385 2
-7 13 28 568.438 183.607 2
-13 -7 28 598.581 182.43 2
-8 13 28 1619.34 285.963 2
-13 -8 28 1913.09 306.193 2
-9 13 28 918.812 212.825 2
-13 -9 28 914.053 236.577 2
-10 13 28 570.361 181.165 2
-13 -10 28 424.239 135.923 2
-11 13 28 307.808 153.94 2
-12 13 28 1254.78 261.699 2
-13 13 28 2265.81 325.296 2
-14 13 28 529.965 178.034 2
-14 12 28 1056.31 239.977 2
-14 11 28 835.161 206.134 2
-14 10 28 271.686 129.552 2
-14 9 28 158.773 118.294 2
-14 8 28 133.627 89.2948 2
-14 7 28 72.9689 112.161 2
-14 6 28 217.999 103.866 2
-14 5 28 391.327 153.794 2
5 14 28 304.729 133.086 2
-14 4 28 598.212 191.075 2
4 14 28 502.811 144.789 2
-14 3 28 -24.965 82.7182 2
3 14 28 80.2378 78.1353 2
-14 2 28 -209.421 166.027 2
2 14 28 93.6254 116.185 2
-14 1 28 810.686 214.719 2
1 14 28 345.655 159.407 2
0 14 28 2110.39 305.505 2
-14 0 28 2112.64 324.088 2
-1 14 28 694.825 192.618 2
-14 -1 28 884.804 215.586 2
-2 14 28 75.3564 104.714 2
-14 -2 28 105.011 130.665 2
-3 14 28 307.114 135.683 2
-14 -3 28 95.6784 99.0992 2
-4 14 28 406.811 159.709 2
-14 -4 28 692.519 188.366 2
-5 14 28 249.943 132.711 2
-14 -5 28 184.127 84.2574 2
-6 14 28 292.44 175.446 2
-14 -6 28 448.998 198.385 2
-7 14 28 52.0026 106.791 2
-14 -7 28 -59.2687 95.768 2
-8 14 28 146.691 80.4044 2
-14 -8 28 165.02 76.0729 2
-9 14 28 309.236 134.015 2
-14 -9 28 238.531 148.749 2
-10 14 28 224.839 143.651 2
-14 -10 28 70.6146 87.4767 2
-11 14 28 600.932 181.474 2
-12 14 28 703.986 187.312 2
-13 14 28 291.21 137.513 2
-14 14 28 26.461 108.125 2
-15 14 28 1446.02 257.723 2
-15 13 28 282.06 141.372 2
-15 12 28 408.775 165.934 2
-15 11 28 1161.84 250.859 2
-15 10 28 1530.44 281.987 2
-15 9 28 -8.54718 77.8724 2
-15 8 28 235.94 146.423 2
-15 7 28 117.426 123.573 2
-15 6 28 -44.8227 103.212 2
-15 5 28 303.708 171.51 2
5 15 28 211.35 100.05 2
-15 4 28 43.686 117.285 2
4 15 28 -212.948 100.685 2
-15 3 28 480.916 177.031 2
3 15 28 330.817 122.086 2
-15 2 28 2349.11 335.583 2
2 15 28 2068.55 293.559 2
1 15 28 932.837 193.892 2
-15 1 28 662.064 194.278 2
0 15 28 356.538 132.79 2
-15 0 28 256.702 155.966 2
-1 15 28 729.405 195.851 2
-15 -1 28 558.219 171.261 2
-2 15 28 2501.31 351.801 2
-15 -2 28 1900.15 294.37 2
-3 15 28 320.596 135.92 2
-15 -3 28 532.98 160.155 2
-4 15 28 120.199 112.58 2
-15 -4 28 12.9753 95.0454 2
-5 15 28 444.68 178.387 2
-15 -5 28 228.521 150.922 2
-6 15 28 64.6092 124.74 2
-15 -6 28 90.8463 77.7055 2
-7 15 28 81.2925 85.0946 2
-15 -7 28 -20.1285 69.479 2
-8 15 28 218.154 125.149 2
-15 -8 28 -1.25803 126.141 2
-9 15 28 137.481 95.6794 2
-15 -9 28 15.7788 77.4354 2
-10 15 28 1571.77 275.478 2
-11 15 28 1184.72 237.255 2
-12 15 28 352.987 118.978 2
-13 15 28 145.324 97.92 2
-14 15 28 1433.09 263.077 2
-15 15 28 603.845 175.801 2
-16 15 28 78.7116 124.312 2
-16 14 28 124.468 118.724 2
-16 13 28 112.209 80.7365 2
-16 12 28 407.365 145.523 2
-16 11 28 94.9914 114.402 2
-16 10 28 48.2326 114.697 2
-16 9 28 98.809 95.6116 2
-16 8 28 279.572 132.088 2
-16 7 28 253.977 166.765 2
-16 6 28 256.328 153.587 2
-16 5 28 59.3295 112.118 2
-16 4 28 476.569 168.241 2
4 16 28 242.025 107.899 2
-16 3 28 861.03 210.854 2
3 16 28 846.898 195.841 2
-16 2 28 -52.0958 118.512 2
2 16 28 155.716 139.166 2
1 16 28 976.637 208.451 2
-16 1 28 690.317 201.162 2
0 16 28 91.1977 93.2606 2
-16 0 28 54.5443 75.7755 2
-1 16 28 588.618 170.678 2
-16 -1 28 793.8 218.326 2
-2 16 28 262.427 141.735 2
-16 -2 28 196.671 132.105 2
-3 16 28 722.489 196.483 2
-16 -3 28 599.252 172.637 2
-4 16 28 359.885 172.481 2
-16 -4 28 345.632 124.206 2
-5 16 28 21.5737 85.1532 2
-16 -5 28 -36.5908 111.73 2
-6 16 28 177.471 93.902 2
-16 -6 28 214.307 105.512 2
-7 16 28 266.566 136.935 2
-16 -7 28 251.712 120.028 2
-8 16 28 126.642 147.025 2
-16 -8 28 423.849 216.453 2
-9 16 28 85.9797 101.333 2
-16 -9 28 -43.0226 107.742 2
-10 16 28 83.9353 117.027 2
-11 16 28 373.98 162.295 2
-12 16 28 558.674 167.116 2
-13 16 28 269.05 127.847 2
-14 16 28 359.011 137.718 2
-15 16 28 -130.203 129.031 2
-16 28 16 860.383 211.267 2
-16 16 28 569.01 195.121 2
-16 28 17 641.589 160.674 2
-17 16 28 360.596 172.364 2
-15 28 17 280.691 133.034 2
-17 15 28 67.2469 117.051 2
-17 14 28 34.413 142.565 2
-17 13 28 736.373 222.045 2
-17 12 28 150.315 214.76 2
-17 11 28 421.419 215.851 2
-17 10 28 242.696 168.105 2
-17 9 28 123.336 162.18 2
-17 8 28 121.316 97.1153 2
-17 7 28 526.23 168.986 2
-17 6 28 44.1202 99.7556 2
-17 5 28 -69.3331 92.7253 2
-17 4 28 489.855 141.904 2
4 17 28 1148.61 216.4 2
-17 3 28 268.775 128.045 2
3 17 28 -26.5116 69.9555 2
-17 2 28 9.86076 103.877 2
2 17 28 -73.0653 86.0769 2
1 17 28 592.464 186.885 2
-17 1 28 839.949 214.553 2
0 17 28 2091.08 315.29 2
-17 0 28 2518.8 341.358 2
-1 17 28 513.73 183.089 2
-17 -1 28 632.318 163.553 2
-2 17 28 123.476 91.2143 2
-17 -2 28 165.44 129.316 2
-3 17 28 306.358 157.665 2
-17 -3 28 92.4219 86.0093 2
-4 17 28 883.825 208.084 2
-17 -4 28 960.383 209.762 2
4 28 17 554.164 136.007 2
-5 17 28 179.995 107.42 2
-17 -5 28 307.08 189.148 2
-6 17 28 -104.96 120.681 2
-17 -6 28 174.774 109.604 2
-7 17 28 629.082 184.126 2
-17 -7 28 305.068 110.537 2
-8 17 28 53.9675 91.4298 2
-17 -8 28 37.5267 121.229 2
-9 17 28 56.6177 101.549 2
-10 17 28 409.394 145.804 2
-11 17 28 911.878 213.69 2
-12 17 28 1484.08 263.993 2
-13 17 28 1157.8 233.4 2
-14 17 28 267.428 131.78 2
-15 17 28 217.733 128.504 2
-17 28 16 530.241 161.122 2
-16 17 28 513.627 168.865 2
-17 28 17 18.3531 87.9293 2
-17 17 28 -22.201 72.548 2
-17 28 18 147.642 115.257 2
-18 17 28 26.5421 112.226 2
-16 28 18 172.086 98.5556 2
-18 16 28 23.9447 128.745 2
-15 28 18 164.636 110.311 2
-18 15 28 18.3482 105.616 2
-14 28 18 491.531 148.001 2
-18 14 28 44.6889 159.878 2
-13 28 18 507.439 170.972 2
-18 13 28 63.0527 153.033 2
-12 28 18 612.145 213.555 2
-18 12 28 89.5438 116.087 2
-18 11 28 41.579 139.15 2
-18 10 28 6.73231 121.678 2
-18 9 28 51.4056 156.66 2
-18 8 28 16.243 117.849 2
-18 7 28 146.417 182.043 2
-18 6 28 312.928 188.375 2
-18 5 28 1387.38 261.816 2
-18 4 28 530.484 195.409 2
4 18 28 342.351 127.557 2
-18 3 28 517.415 159.548 2
3 18 28 322.438 128.022 2
-18 2 28 898.234 199.776 2
2 18 28 500.372 137.477 2
1 18 28 472.699 174.862 2
-18 1 28 736.326 175.899 2
0 18 28 544.227 183.239 2
-18 0 28 561.079 161.968 2
-1 18 28 286.805 135.238 2
-18 -1 28 1086.67 218.364 2
-2 18 28 702.66 194.219 2
-18 -2 28 590.122 167.845 2
2 28 18 675.796 181.947 2
-3 18 28 425.592 151.857 2
-18 -3 28 462.09 145.714 2
3 28 18 472.515 156.509 2
-4 18 28 364.452 135.878 2
-18 -4 28 229.466 105.672 2
-5 18 28 1430.08 262.91 2
-18 -5 28 938.034 198.845 2
-6 18 28 471.377 150.631 2
-18 -6 28 313.237 129.652 2
-7 18 28 659.774 176.965 2
-18 -7 28 312.39 123.233 2
-8 18 28 232.965 156.297 2
-9 18 28 655.671 176.352 2
-10 18 28 469.685 169.145 2
-11 18 28 214.274 123.997 2
-12 18 28 206.513 142.057 2
-13 18 28 198.206 114.207 2
-14 18 28 747.8 217.017 2
-15 18 28 262.411 135.048 2
-18 28 15 320.034 145.459 2
-18 28 16 341.609 151.283 2
-16 18 28 309.291 158.527 2
-18 28 17 -37.0416 82.3047 2
-17 18 28 -19.4301 76.3738 2
-18 28 18 383.704 152.843 2
-18 18 28 226.552 193.702 2
-18 28 19 165.564 123.518 2
-19 18 28 12.2636 63.7899 2
-17 28 19 208.172 122.064 2
-19 17 28 130.236 125.706 2
-16 28 19 147.423 89.5282 2
-19 16 28 12.7599 92.6488 2
-15 28 19 745.421 194.582 2
-19 15 28 68.9861 158.537 2
-14 28 19 543.8 184.125 2
-19 14 28 66.0154 161.099 2
-13 28 19 827.829 199.044 2
-19 13 28 135.514 154.563 2
-12 28 19 95.4836 82.7286 2
-19 12 28 -3.70749 95.0482 2
-11 28 19 823.761 213.615 2
-19 11 28 119.555 187.976 2
-10 28 19 282.376 113.806 2
-19 10 28 160.03 140.948 2
-9 28 19 1559.16 270.028 2
-19 9 28 463.769 252.655 2
-8 28 19 445.068 160.891 2
-19 8 28 60.4074 94.0937 2
-19 7 28 -10.136 83.6863 2
-19 6 28 21.9967 130.543 2
-19 5 28 168.424 147.863 2
-19 4 28 79.5281 138.364 2
4 19 28 325.249 131.285 2
-19 3 28 1079.11 312.408 2
3 19 28 12.9251 68.7767 2
-2 28 19 104.915 113.386 2
2 19 28 163.361 118.132 2
1 19 28 93.7612 122.755 2
-19 1 28 246.809 140.329 2
-1 28 19 211.776 97.8438 2
0 19 28 124.537 121.11 2
-19 0 28 309.494 126.469 2
0 28 19 234.868 81.4725 2
-1 19 28 115.972 110.047 2
-19 -1 28 118.639 104.557 2
1 28 19 97.476 67.9847 2
-2 19 28 241.754 119.516 2
-19 -2 28 264.507 111.002 2
2 28 19 267.933 110.353 2
-3 19 28 37.2877 88.618 2
-19 -3 28 15.4535 83.5778 2
3 28 19 178.524 77.0406 2
-4 19 28 380.386 157.825 2
-19 -4 28 183.216 106.706 2
-5 19 28 428.015 157.483 2
-19 -5 28 598.831 155.704 2
-6 19 28 -34.3272 85.9503 2
-19 -6 28 231.655 144.108 2
-7 19 28 333.546 160.042 2
-19 -7 28 -39.3312 84.537 2
-8 19 28 84.8674 100.145 2
-9 19 28 1665.22 265.077 2
-10 19 28 360.22 136.034 2
-11 19 28 928.216 215.858 2
-12 19 28 81.9017 81.288 2
-13 19 28 636.774 176.875 2
-14 19 28 545.694 185.387 2
-19 28 14 729.834 186.798 2
-15 19 28 439.823 154.524 2
-19 28 15 383.753 165.885 2
-19 28 16 -60.5875 67.1862 2
-16 19 28 41.2555 85.4361 2
-19 28 17 303.179 146.914 2
-17 19 28 156.646 210.432 2
-19 28 18 331.894 126.024 2
-18 19 28 30.2426 129.672 2
-19 28 19 857.269 187.22 2
-19 19 28 140.436 163.291 2
-18 28 20 5.68564 74.0188 2
-20 18 28 54.478 115.698 2
-17 28 20 87.1788 72.4061 2
-20 17 28 20.3074 85.2041 2
-16 28 20 634.703 162.978 2
-20 16 28 318.261 197.979 2
-15 28 20 379.165 144.37 2
-20 15 28 144.9 164.86 2
-14 28 20 185.177 89.6087 2
-20 14 28 115.929 133.727 2
-13 28 20 -52.0923 88.0784 2
-20 13 28 26.4953 62.3382 2
-12 28 20 393.408 158.63 2
-20 12 28 84.8484 178.863 2
-11 28 20 788.561 193.114 2
-20 11 28 129.938 166.893 2
-10 28 20 468.135 167.195 2
-20 10 28 101.299 135.021 2
-9 28 20 1042.75 207.734 2
-20 9 28 290.735 192.721 2
-8 28 20 728.8 195.666 2
-20 8 28 153.693 191.816 2
-7 28 20 279.274 138.804 2
-20 7 28 48.9251 153.064 2
-6 28 20 231.042 115.712 2
-20 6 28 43.6288 120.589 2
-5 28 20 287.756 130.596 2
-20 5 28 74.0588 174.149 2
-4 28 20 1419.54 265.83 2
-20 4 28 1229.92 213.563 2
-3 28 20 740.336 195.658 2
-20 3 28 1112.73 216.541 2
3 20 28 612.431 165.592 2
-2 28 20 1379.49 244.234 2
-20 2 28 1858.36 272.501 2
2 20 28 1584.09 246.89 2
1 20 28 60.7976 76.973 2
-1 28 20 157.297 63.553 2
-20 1 28 299.408 109.095 2
0 20 28 294.101 158.173 2
0 28 20 159.441 94.9683 2
-20 0 28 415.275 145.342 2
-1 20 28 113.34 107.544 2
1 28 20 199.978 99.0159 2
-20 -1 28 4.46269 75.7024 2
-2 20 28 1324.89 237.549 2
2 28 20 1413.89 235.701 2
-20 -2 28 1341.83 212.876 2
-3 20 28 1050.38 223.15 2
3 28 20 532.571 154.363 2
-20 -3 28 732.132 149.028 2
-4 20 28 1155.78 240.26 2
-20 -4 28 1264.57 208.394 2
-5 20 28 373.476 136.853 2
-6 20 28 80.57 79.5153 2
-7 20 28 788.024 183.36 2
-8 20 28 1132.33 231.71 2
-9 20 28 857.933 193.9 2
-10 20 28 391.597 151.147 2
-11 20 28 773.147 189.292 2
-12 20 28 524.626 168.3 2
-13 20 28 120.122 100.08 2
-20 28 13 96.9208 89.3342 2
-14 20 28 482.123 145.614 2
-20 28 14 247.809 140.215 2
-15 20 28 378.714 138.326 2
-20 28 15 391.803 142.168 2
-20 28 16 632.352 176.612 2
-16 20 28 660.579 175.732 2
-20 28 17 30.1947 86.9502 2
-17 20 28 30.6342 86.6792 2
-20 28 18 89.4465 89.1622 2
-18 20 28 -20.4581 64.8874 2
-17 28 21 665.831 165.443 2
-21 17 28 145.107 133.862 2
-16 28 21 95.421 78.3925 2
-21 16 28 68.8458 95.4822 2
-15 28 21 435.467 153.929 2
-21 15 28 71.8662 103.373 2
-14 28 21 54.4862 84.0147 2
-21 14 28 -3.90435 60.4045 2
-13 28 21 1394.1 244.559 2
-21 13 28 409.136 227.521 2
-12 28 21 191.444 97.5927 2
-21 12 28 47.4897 128.929 2
-11 28 21 958.446 204.426 2
-21 11 28 223.795 193.93 2
-10 28 21 151.847 97.6628 2
-21 10 28 -8.8637 105.237 2
-9 28 21 510.902 155.074 2
-21 9 28 50.8136 137.577 2
-8 28 21 77.1069 91.4884 2
-21 8 28 5.42142 66.8758 2
-7 28 21 1302.01 231.385 2
-21 7 28 1671.3 243.07 2
-6 28 21 -68.2574 91.2069 2
-21 6 28 37.171 111.393 2
-5 28 21 237.366 147.106 2
-21 5 28 493.539 148.517 2
-4 28 21 152.738 106.064 2
-21 4 28 373.526 150.947 2
-3 28 21 80.8291 73.0602 2
-21 3 28 39.7412 131.946 2
3 21 28 -3.1853 63.2458 2
-2 28 21 337.482 147.233 2
-21 2 28 719.377 193.89 2
2 21 28 597.887 171.742 2
1 21 28 53.2866 91.8021 2
-21 1 28 54.5047 76.8262 2
0 21 28 -82.9578 82.0857 2
0 28 21 87.5057 90.0679 2
-1 21 28 664.328 332.32 2
1 28 21 248.372 111.633 2
-2 21 28 414.01 140.683 2
2 28 21 289.446 118.506 2
-3 21 28 -26.6497 69.5249 2
3 28 21 -153.044 96.1583 2
-4 21 28 331.224 140.264 2
-5 21 28 442.635 173.164 2
-6 21 28 -125.637 108.015 2
-7 21 28 1115.38 218.871 2
-8 21 28 129.398 108.004 2
-9 21 28 305.459 143.292 2
-10 21 28 66.7815 74.879 2
-11 21 28 1111.02 204.883 2
-12 21 28 89.0373 104.905 2
-21 28 12 235.701 113.751 2
-13 21 28 1027.46 197.185 2
-21 28 13 921.984 199.838 2
-14 21 28 -11.3041 74.4533 2
-21 28 14 -16.2715 58.4789 2
-21 28 15 233.386 121.336 2
-15 21 28 135.42 117.157 2
-21 28 16 45.3878 58.3588 2
-16 21 28 169.366 143.944 2
-21 28 17 636.201 145.99 2
-17 21 28 150.783 171.544 2
-16 28 22 164.385 90.359 2
-22 16 28 124.722 96.9917 2
-15 28 22 49.6999 86.2162 2
-22 15 28 18.2565 44.4099 2
-14 28 22 674.188 195.889 2
-22 14 28 81.5988 95.728 2
-13 28 22 425.758 149.403 2
-22 13 28 84.2929 123.519 2
-12 28 22 506.717 155.971 2
-22 12 28 104.321 137.509 2
-11 28 22 520.691 148.033 2
-22 11 28 59.3924 129.446 2
-10 28 22 366.395 142.593 2
-22 10 28 61.7573 108.511 2
-9 28 22 531.524 147.718 2
-22 9 28 186.776 162.349 2
-8 28 22 541.029 162.235 2
-22 8 28 45.3682 93.2346 2
-7 28 22 536.374 170.558 2
-22 7 28 572.811 137.646 2
-6 28 22 536.569 165.384 2
-22 6 28 758.123 144.518 2
-5 28 22 274.363 131.899 2
-22 5 28 669.313 173.306 2
-4 28 22 725.654 205.193 2
-3 28 22 252.966 125.12 2
-2 28 22 126.006 105.258 2
2 22 28 48.0196 109.751 2
1 22 28 53.2634 104.966 2
-1 28 22 294.98 124.634 2
0 22 28 1396.48 251.697 2
0 28 22 1623.98 240.396 2
-1 22 28 171.148 115.273 2
1 28 22 155.456 109.611 2
-2 22 28 337.872 144.529 2
2 28 22 145.853 77.6455 2
-3 22 28 432.928 170.347 2
-4 22 28 593.223 176.666 2
-5 22 28 373.24 144.995 2
-6 22 28 817.78 199.231 2
-7 22 28 547.567 159.59 2
-8 22 28 425.75 134.307 2
-9 22 28 629.186 161.245 2
-10 22 28 171.124 91.0873 2
-22 28 10 80.3524 76.3519 2
-11 22 28 480.795 135.967 2
-22 28 11 479.559 125.93 2
-12 22 28 347.265 119.722 2
-22 28 12 191.074 74.4785 2
-13 22 28 168.511 95.83 2
-22 28 13 318.469 106.729 2
-14 22 28 277.909 126.717 2
-22 28 14 434.03 133.837 2
-22 28 15 37.1047 71.8046 2
-15 22 28 -2.21635 63.7989 2
-22 28 16 324.034 112.523 2
-16 22 28 136.693 112.719 2
-14 28 23 13.2661 59.7125 2
-13 28 23 260.44 128.619 2
-12 28 23 15.9535 65.8114 2
-11 28 23 286.578 127.182 2
-10 28 23 -165.359 100.777 2
-9 28 23 463.849 131.45 2
-8 28 23 83.0821 95.9077 2
-7 28 23 206.303 130.703 2
-6 28 23 208.094 149.58 2
-5 28 23 42.438 83.5901 2
-4 28 23 95.0133 93.1267 2
-3 28 23 279.084 106.625 2
-2 28 23 799.049 181.273 2
2 23 28 54.7194 136.534 2
-1 28 23 -3.40304 58.4271 2
1 23 28 -8.9709 68.1341 2
0 23 28 434.767 222.973 2
0 28 23 1723.39 248.141 2
-1 23 28 -3.32984 60.3831 2
1 28 23 91.5874 77.7401 2
-2 23 28 945.784 195.305 2
2 28 23 701.465 148.125 2
-3 23 28 295.105 139.121 2
-4 23 28 358.571 122.124 2
-5 23 28 18.0967 79.6501 2
-6 23 28 263.643 152.412 2
-7 23 28 311.732 154.092 2
-8 23 28 -161.676 96.1729 2
-9 23 28 504.916 159.544 2
-23 28 9 47.0844 70.9713 2
-10 23 28 128.566 103.887 2
-23 28 10 240.751 114.739 2
-11 23 28 188.679 109.11 2
-23 28 11 262.033 98.6286 2
-12 23 28 118.753 106.692 2
-23 28 12 -1.83173 65.4769 2
-13 23 28 4.23055 72.1391 2
-23 28 13 20.4712 62.2797 2
-23 28 14 67.2158 56.6519 2
-14 23 28 5.4504 61.4028 2
-13 28 24 -80.411 69.5797 2
-12 28 24 194.084 109.878 2
-11 28 24 202.495 125.287 2
-10 28 24 -33.148 77.694 2
-9 28 24 167.474 120.262 2
-8 28 24 278.971 145.746 2
-7 28 24 495.56 160.124 2
-6 28 24 60.2652 98.2836 2
-5 28 24 124.683 93.5549 2
-4 28 24 399.365 141.284 2
-3 28 24 334.76 136.435 2
-2 28 24 843.546 188.589 2
2 24 28 191.236 150.708 2
-1 28 24 72.756 76.0267 2
1 24 28 -4.95166 61.1028 2
0 28 24 23.8716 68.4389 2
0 24 28 0.96795 80.3551 2
-1 24 28 3.04244 74.9197 2
1 28 24 -21.8278 84.15 2
-2 24 28 87.4604 174.628 2
-3 24 28 323.842 145.042 2
-4 24 28 226.275 110.238 2
-5 24 28 416.418 146.625 2
-6 24 28 61.0323 96.9319 2
-7 24 28 559.161 140.048 2
-8 24 28 28.1278 81.6198 2
-9 24 28 3.60328 68.8748 2
-10 24 28 126.5 97.8725 2
-11 24 28 46.8503 87.511 2
-12 24 28 -68.1827 82.9633 2
-13 24 28 -49.0533 85.5365 2
-11 28 25 25.9904 69.0719 2
-10 28 25 -119.399 77.0463 2
-9 28 25 55.2194 85.137 2
-8 28 25 86.1054 104.692 2
-7 28 25 -135.456 82.1455 2
-6 28 25 -5.90794 59.6681 2
-5 28 25 517.878 153.232 2
-4 28 25 613.56 169.994 2
-3 28 25 87.4692 82.4992 2
-2 28 25 405.867 137.951 2
-1 28 25 39.3774 82.8366 2
1 25 28 24.2158 79.593 2
0 28 25 259.167 126.368 2
0 25 28 40.4061 109.548 2
1 28 25 159.026 87.5719 2
-1 25 28 -7.52943 79.6152 2
-2 25 28 30.4791 124.207 2
-3 25 28 25.3226 108.697 2
-4 25 28 213.43 130.293 2
-5 25 28 212.519 139.71 2
-6 25 28 29.0345 65.1705 2
-7 25 28 55.3932 88.19 2
-8 25 28 92.515 88.9251 2
-9 25 28 102.555 99.6668 2
-10 25 28 74.7653 84.8161 2
-11 25 28 34.2823 73.9168 2
-8 28 26 49.5202 75.5902 2
-7 28 26 260.196 115.632 2
-6 28 26 49.4789 72.3046 2
-5 28 26 104.312 89.6072 2
-4 28 26 102.527 99.7068 2
-3 28 26 387.651 138.337 2
-2 28 26 39.695 74.0994 2
-1 28 26 18.5517 52.6977 2
0 26 28 17653.5 601.754 2
0 28 26 17150.2 589.685 2
-1 26 28 42.1452 74.5102 2
-2 26 28 -11.6722 71.9049 2
-3 26 28 18.6999 116.337 2
-4 26 28 -5.73218 60.1515 2
-5 26 28 181.975 118.366 2
-6 26 28 5.73721 62.1892 2
-7 26 28 216.973 127.447 2
-8 26 28 54.4306 92.3936 2
-4 28 27 5.90299 51.8095 2
-3 28 27 45.4837 97.7286 2
-2 28 27 -6.22322 61.5455 2
-1 28 27 7.49084 51.2897 2
-1 27 28 15.8166 42.2623 2
-2 27 28 8.37203 62.2417 2
-3 27 28 13.8862 74.7259 2
-4 27 28 18.6632 83.4057 2
0 0 29 -18.805 92.7374 2
0 -1 29 899.489 221.171 2
1 0 29 1050.27 249.646 2
-1 0 29 757.501 201.163 2
0 1 29 817.646 217.453 2
1 -1 29 0.47979 128.692 2
-1 -1 29 173.45 122.27 2
1 1 29 231.767 144.376 2
-1 1 29 84.1152 83.0992 2
2 -1 29 780.49 232.539 2
-1 -2 29 1764.65 316.27 2
1 2 29 1092.77 285.138 2
-2 1 29 1383.06 269.096 2
0 -2 29 67.6923 115.048 2
2 0 29 112.25 122.07 2
-2 0 29 -72.1299 78.0047 2
0 2 29 75.4579 154.854 2
1 -2 29 1106.82 285.911 2
-2 -1 29 1408.94 273.866 2
2 1 29 1220.59 280.969 2
-1 2 29 1201.18 278.044 2
2 -2 29 270.749 165.7 2
-2 -2 29 665.315 186.534 2
2 2 29 229.043 160.824 2
-2 2 29 590.519 181.44 2
3 -2 29 264.206 139.791 2
-2 -3 29 447.169 172.767 2
2 3 29 214.023 148.128 2
-3 2 29 556.138 216.081 2
3 -1 29 122.973 119.277 2
-1 -3 29 577.745 197.305 2
-3 1 29 728.047 224.163 2
1 3 29 194.097 134.208 2
0 -3 29 183.639 99.4631 2
3 0 29 289.297 118.153 2
-3 0 29 321.266 174.808 2
0 3 29 225.153 180.367 2
1 -3 29 172.71 160.823 2
3 1 29 355.211 141.328 2
-3 -1 29 534.888 193.164 2
-1 3 29 46.9919 120.116 2
2 -3 29 178.4 117.781 2
3 2 29 182.425 125.292 2
-2 3 29 373.953 123.025 2
3 -3 29 1436.3 273.714 2
-3 -3 29 1140.12 254.793 2
3 3 29 1722.32 293.752 2
-3 3 29 1827.03 314.338 2
4 -3 29 117.206 153.212 2
-3 -4 29 146.518 140.614 2
3 4 29 277.43 123.776 2
-4 3 29 243.535 96.7336 2
4 -2 29 68.2215 101.232 2
2 4 29 158.09 146.552 2
-4 2 29 18.7231 96.0965 2
-1 -4 29 1203.1 243.963 2
4 -1 29 1091.28 230.818 2
-4 1 29 1200.6 275.12 2
1 4 29 437.477 179.646 2
0 -4 29 1060.11 235.897 2
4 0 29 1201.13 245.839 2
-4 0 29 1195.45 253.311 2
0 4 29 1329.09 290.461 2
1 -4 29 934.059 227.957 2
4 1 29 930.473 216.545 2
-4 -1 29 1055.8 242.16 2
-1 4 29 674.342 241.414 2
2 -4 29 150.793 108.838 2
4 2 29 33.5627 86.2034 2
-4 -2 29 274.191 137.221 2
-2 4 29 307.31 137.628 2
3 -4 29 231.708 128.443 2
-4 -3 29 337.003 183.711 2
4 3 29 316.793 180.781 2
-3 4 29 548.831 183.969 2
4 -4 29 573.516 179.4 2
-4 -4 29 664.823 210.082 2
4 4 29 668.532 189.884 2
-4 4 29 724.718 205.272 2
5 -4 29 845.938 222.724 2
-4 -5 29 838.396 218.611 2
4 5 29 819.965 219.876 2
-5 4 29 917.649 223.38 2
5 -3 29 2039.76 314.044 2
-3 -5 29 2304.49 343.764 2
3 5 29 2062.7 308.705 2
-5 3 29 2390.78 355.342 2
5 -2 29 382.812 159.165 2
-2 -5 29 335.108 158.592 2
2 5 29 447.632 158.341 2
-5 2 29 215.004 134.406 2
-1 -5 29 545.021 178.832 2
5 -1 29 373.775 172.046 2
-5 1 29 644.343 206.379 2
1 5 29 504.825 188.334 2
0 -5 29 -46.2539 135.564 2
5 0 29 31.5749 121.007 2
-5 0 29 -5.98131 84.1633 2
0 5 29 4.22658 70.6334 2
1 -5 29 582.072 190.509 2
5 1 29 527.591 183.59 2
-5 -1 29 413.37 126.195 2
-1 5 29 65.1068 102.799 2
2 -5 29 680.816 207.19 2
5 2 29 348.181 146.88 2
-5 -2 29 546.907 185.648 2
-2 5 29 564.275 203.929 2
5 3 29 2230.35 329.246 2
-3 5 29 2373.67 350.764 2
3 -5 29 2075.77 327.482 2
-5 -3 29 2008.49 314.336 2
4 -5 29 988.829 231.803 2
-5 -4 29 1016.69 235.275 2
5 4 29 906.025 189.296 2
-4 5 29 816.662 220.839 2
5 -5 29 3272.18 391.86 2
-5 -5 29 3623.29 436.967 2
5 5 29 3674.59 399.053 2
-5 5 29 3587.41 421.531 2
6 -5 29 323.052 153.478 2
-5 -6 29 322.801 176.376 2
5 6 29 670.33 185.278 2
-6 5 29 383.912 175.432 2
6 -4 29 266.341 151.77 2
-4 -6 29 -105.077 110.625 2
4 6 29 69.1991 102.391 2
-6 4 29 382.146 189.24 2
6 -3 29 298.531 161.812 2
-3 -6 29 199.702 121.023 2
3 6 29 465.581 146.176 2
-6 3 29 558.244 190.163 2
6 -2 29 1188.36 251.681 2
-2 -6 29 1467.89 279.495 2
-6 2 29 1319.91 279.651 2
2 6 29 1463.6 272.988 2
-1 -6 29 793.523 215.117 2
6 -1 29 803.715 212.487 2
-6 1 29 600.494 191.009 2
1 6 29 618.591 238.99 2
0 -6 29 1482.92 276.238 2
6 0 29 1521.86 268.328 2
-6 0 29 1628.23 307.561 2
0 6 29 990.321 274.974 2
1 -6 29 718.339 199.254 2
6 1 29 779.041 216.503 2
-6 -1 29 814.277 213.568 2
-1 6 29 214.697 197.571 2
2 -6 29 1279.72 262.799 2
6 2 29 1449.94 259.246 2
-6 -2 29 1672.84 301.385 2
-2 6 29 1527.6 304.081 2
3 -6 29 214.967 144.162 2
6 3 29 653.422 203.793 2
-6 -3 29 570.785 190.776 2
-3 6 29 348.821 127.748 2
4 -6 29 154.417 97.4523 2
-6 -4 29 226.027 145.66 2
6 4 29 164.196 88.162 2
-4 6 29 170.729 102.834 2
5 -6 29 474.427 158.748 2
-6 -5 29 481.376 186.269 2
6 5 29 302.563 121.293 2
-5 6 29 153.092 112.288 2
6 -6 29 175.991 115.838 2
-6 -6 29 30.4329 82.6717 2
6 6 29 252.527 123.713 2
-6 6 29 5.91958 85.2784 2
7 -6 29 206.956 109.68 2
-6 -7 29 220.25 111.413 2
6 7 29 185.918 75.8797 2
-7 6 29 102.431 113.917 2
7 -5 29 1910.31 300.1 2
-5 -7 29 2085.77 336.352 2
5 7 29 1875.09 280.704 2
-7 5 29 2020.32 321.73 2
7 -4 29 1760.23 287.409 2
-4 -7 29 1688.65 300.889 2
4 7 29 2073.33 307.526 2
-7 4 29 2011.91 309.95 2
7 -3 29 1729.49 287.955 2
-3 -7 29 1929.91 325.283 2
3 7 29 1947.46 309.351 2
-7 3 29 1963.56 332.12 2
7 -2 29 214.514 128.72 2
-2 -7 29 212.824 140.684 2
-7 2 29 148.2 131.052 2
2 7 29 110.191 98.3168 2
-1 -7 29 740.837 243.314 2
7 -1 29 1036.56 230.732 2
-7 1 29 1043.35 232.263 2
1 7 29 790.565 258.774 2
0 -7 29 2367.31 359.803 2
7 0 29 2161.02 307.324 2
-7 0 29 2110.81 334.467 2
0 7 29 1864.35 338.175 2
1 -7 29 862.739 225.256 2
7 1 29 758.41 196.922 2
-7 -1 29 701.159 200.83 2
-1 7 29 304.707 191.022 2
2 -7 29 203.333 142.231 2
7 2 29 261.031 121.736 2
-7 -2 29 51.4991 85.2056 2
-2 7 29 142.995 117.32 2
3 -7 29 1600.16 314.866 2
7 3 29 1627.94 262.11 2
-7 -3 29 1743.24 300.878 2
-3 7 29 1821.09 296.042 2
4 -7 29 1705.53 298.955 2
-7 -4 29 1940.19 325.225 2
7 4 29 1468.17 230.573 2
-4 7 29 1838.04 298.441 2
5 -7 29 2060.63 315.17 2
-7 -5 29 1957.58 319.555 2
7 5 29 1757.06 270.648 2
-5 7 29 2012.23 332.157 2
6 -7 29 366.085 155.303 2
-7 -6 29 217.294 171.275 2
-6 7 29 -32.4893 108.813 2
-7 -7 29 2279.09 360.25 2
-7 7 29 2185.15 331.805 2
-7 -8 29 732.324 201.904 2
-8 7 29 606.179 181.475 2
-6 -8 29 1214.61 259.288 2
6 8 29 1050.57 216.917 2
-8 6 29 1288.85 265.767 2
8 -5 29 453.442 185.039 2
-5 -8 29 655.995 216.083 2
5 8 29 492.403 157.842 2
-8 5 29 420.024 175.505 2
8 -4 29 384.045 169.055 2
-4 -8 29 477.351 158.401 2
4 8 29 392.141 112.329 2
-8 4 29 483.054 165.868 2
8 -3 29 340.305 148.144 2
-3 -8 29 307.058 166.077 2
-8 3 29 224.997 129.642 2
3 8 29 442.141 174.625 2
8 -2 29 979.263 220.206 2
-2 -8 29 1450.28 275.775 2
-8 2 29 1776.59 317.233 2
2 8 29 1378.97 248.589 2
-1 -8 29 256.966 129.622 2
8 -1 29 317.202 98.6902 2
-8 1 29 353.944 152.272 2
1 8 29 178.993 203.236 2
0 -8 29 591.557 170.676 2
8 0 29 536.068 155.823 2
-8 0 29 750.605 202.026 2
0 8 29 548.833 206.871 2
1 -8 29 331.42 139.188 2
8 1 29 295.922 120.772 2
-8 -1 29 478.807 186.858 2
-1 8 29 714.413 194.054 2
2 -8 29 1484.51 288.347 2
-8 -2 29 1084.69 241.255 2
-2 8 29 1379.94 302 2
3 -8 29 -90.121 73.9969 2
-8 -3 29 64.753 95.6187 2
-3 8 29 198.379 140.945 2
4 -8 29 480.22 173.53 2
-8 -4 29 592.918 200.265 2
-4 8 29 441.176 161.218 2
5 -8 29 420.748 163.222 2
-8 -5 29 23.0447 95.6616 2
-5 8 29 283.682 116.807 2
-8 -6 29 1103.43 238.062 2
-6 8 29 1078.84 242.15 2
-8 -7 29 578.875 202.633 2
-7 8 29 517.05 175.92 2
-8 -8 29 1292.43 271.596 2
-8 8 29 1426.35 267.674 2
-8 -9 29 386.477 130.65 2
-9 8 29 450.164 143.182 2
-7 -9 29 211.788 155.436 2
-9 7 29 78.5363 127.886 2
-6 -9 29 1551.1 283.202 2
6 9 29 1696.77 271.615 2
-9 6 29 1724.29 297.666 2
-5 -9 29 1136.58 261.991 2
5 9 29 1205.58 227.722 2
-9 5 29 1054.45 236.306 2
-4 -9 29 55.6615 78.7191 2
4 9 29 303.851 151.672 2
-9 4 29 384.618 165.422 2
9 -3 29 1213.12 220.591 2
-3 -9 29 1225.93 264.382 2
-9 3 29 1103.19 245.721 2
3 9 29 1414.92 271.474 2
-2 -9 29 2678.2 379.204 2
-9 2 29 2256.64 331.938 2
2 9 29 2015.04 301.528 2
-1 -9 29 967.142 251.269 2
-9 1 29 1133.17 240.626 2
1 9 29 897.532 235.888 2
0 -9 29 585.412 172.636 2
-9 0 29 741.378 220.038 2
0 9 29 547.592 158.467 2
1 -9 29 759.732 213.187 2
-9 -1 29 553.741 135.712 2
-1 9 29 704.29 197.133 2
2 -9 29 2139.04 324.759 2
-9 -2 29 2447.15 366.475 2
-2 9 29 2113.21 330.782 2
3 -9 29 1127.11 227.1 2
-9 -3 29 1101.74 254.653 2
-3 9 29 815.602 226.903 2
-9 -4 29 227.168 75.9573 2
-4 9 29 302.127 144.966 2
-9 -5 29 1114.62 261.373 2
-5 9 29 1291.82 272.65 2
-9 -6 29 2053.54 324.409 2
-6 9 29 1902.65 314.321 2
-9 -7 29 33.9488 104.164 2
-7 9 29 158.627 133.555 2
-9 -8 29 464.392 147.576 2
-8 9 29 554.86 190.242 2
-9 -9 29 732.9 215.509 2
-9 9 29 643.937 194.09 2
-9 -10 29 340.304 161.755 2
-10 9 29 359.146 179.561 2
-8 -10 29 386.628 154.842 2
-10 8 29 92.9409 92.789 2
-7 -10 29 461.504 161.814 2
-10 7 29 790.958 224.677 2
-6 -10 29 875.329 241.024 2
6 10 29 815.205 194.712 2
-10 6 29 1077.52 236.702 2
-5 -10 29 1050.34 249.292 2
5 10 29 1417.8 247.258 2
-10 5 29 1494.36 274.068 2
-4 -10 29 749.778 192.371 2
-10 4 29 627.275 203.917 2
4 10 29 293.842 135.56 2
-3 -10 29 372.264 172.113 2
-10 3 29 460.569 155.484 2
3 10 29 429.661 125.839 2
-2 -10 29 912.168 227.511 2
-10 2 29 997.086 247.47 2
2 10 29 1540.17 301.457 2
-1 -10 29 58.2132 84.8409 2
-10 1 29 -168.846 141.163 2
1 10 29 -27.4387 76.3884 2
0 -10 29 3471.35 423.266 2
-10 0 29 3412.13 425.35 2
0 10 29 3198.9 385.024 2
1 -10 29 179.372 112.962 2
-10 -1 29 94.0541 88.1397 2
-1 10 29 316.491 169.65 2
-10 -2 29 1156.6 253.648 2
-2 10 29 815.846 177.17 2
-10 -3 29 422.534 146.317 2
-3 10 29 293.678 193.07 2
-10 -4 29 494.702 151.202 2
-4 10 29 388.691 164.145 2
-10 -5 29 1476.05 265.888 2
-5 10 29 1329.18 280.604 2
-10 -6 29 834.53 237.856 2
-6 10 29 910.256 232.467 2
-10 -7 29 594.005 183.372 2
-7 10 29 694.802 208.012 2
-10 -8 29 101.135 108.031 2
-8 10 29 531.715 195.512 2
-10 -9 29 339.581 123.79 2
-9 10 29 338.089 148.198 2
-10 10 29 2700.03 380.219 2
-10 -10 29 2081.45 318.942 2
-10 -11 29 508.355 181.255 2
-11 10 29 479.794 156.788 2
-9 -11 29 491.855 164.754 2
-11 9 29 565.037 190.659 2
-8 -11 29 23.8556 85.2545 2
-11 8 29 90.435 127.626 2
-7 -11 29 411.977 177.927 2
-11 7 29 238.151 87.1888 2
-6 -11 29 7.43867 110.558 2
-11 6 29 3.42533 114.609 2
-5 -11 29 311.372 139.235 2
5 11 29 223.154 111.137 2
-4 -11 29 1158.21 242.569 2
-11 4 29 1272.39 272.178 2
4 11 29 1433.02 286.194 2
-3 -11 29 704.011 196.344 2
-11 3 29 1252.81 265.874 2
3 11 29 924.683 235.552 2
-2 -11 29 573.679 192.306 2
-11 2 29 434.635 186.785 2
2 11 29 596.404 192.738 2
-11 1 29 1105.14 236.163 2
1 11 29 1333.09 262.961 2
-11 0 29 604.093 171.664 2
0 11 29 916.252 224.013 2
-11 -1 29 1450.43 274.475 2
-1 11 29 1196.72 237.886 2
-11 -2 29 547.403 155.587 2
-2 11 29 888.864 190.27 2
-11 -3 29 615.64 178.435 2
-3 11 29 1094.17 240.359 2
-11 -4 29 1013.3 226.875 2
-4 11 29 933.161 248.076 2
-11 -5 29 482.282 195.018 2
-5 11 29 367.506 159.969 2
-11 -6 29 85.8781 91.5658 2
-6 11 29 208.642 109.062 2
-11 -7 29 462.863 151.899 2
-7 11 29 651.694 172.22 2
-11 -8 29 87.9639 105.491 2
-8 11 29 100.367 83.0724 2
-11 -9 29 544.441 169.447 2
-9 11 29 542.346 176.621 2
-11 -10 29 383.978 132.422 2
-10 11 29 433.058 153.232 2
-11 11 29 220.828 129.588 2
-12 11 29 2421.24 351.017 2
-12 10 29 328.043 139.387 2
-12 9 29 565.602 177.615 2
-12 8 29 886.338 245.402 2
-12 7 29 -43.6295 75.5084 2
-12 6 29 127.153 101.121 2
5 12 29 414.027 153.634 2
-12 5 29 649.35 220.065 2
-12 4 29 248.897 137.39 2
4 12 29 496.307 154.241 2
-12 3 29 631.152 183.752 2
3 12 29 565.509 163.443 2
-12 2 29 1695.7 292.025 2
2 12 29 1449.07 249.112 2
-12 1 29 202.357 143.475 2
1 12 29 200.064 141.234 2
-12 0 29 109.329 103.402 2
0 12 29 275.085 113.758 2
-12 -1 29 202.058 118.429 2
-1 12 29 137.419 97.1367 2
-12 -2 29 1362 262.159 2
-2 12 29 1238.94 242.934 2
-12 -3 29 685.344 206.374 2
-3 12 29 921.841 240.169 2
-12 -4 29 546.682 176.756 2
-4 12 29 793.816 224.229 2
-12 -5 29 571.949 191.558 2
-5 12 29 314.513 130.094 2
-12 -6 29 222.615 83.3931 2
-6 12 29 350.566 163.435 2
-12 -7 29 162.176 132.39 2
-7 12 29 82.1469 118.077 2
-12 -8 29 1024.27 242.402 2
-8 12 29 1019.09 231.29 2
-12 -9 29 309.667 139.066 2
-9 12 29 57.0023 100.87 2
-12 -10 29 182.875 130.552 2
-10 12 29 469.657 151.483 2
-11 12 29 1793.39 299.092 2
-12 12 29 2848.81 371.881 2
-13 12 29 803.363 211.331 2
-13 11 29 252.307 135.35 2
-13 10 29 1019.93 248.993 2
-13 9 29 375.325 155.15 2
-13 8 29 82.019 89.0072 2
-13 7 29 -81.7192 124.706 2
-13 6 29 -125.097 119.179 2
-13 5 29 359.173 143.775 2
5 13 29 837.227 187.884 2
-13 4 29 347.253 151.662 2
4 13 29 625.281 168.904 2
-13 3 29 722.575 169.628 2
3 13 29 771.62 195.815 2
-13 2 29 310.087 166.597 2
2 13 29 142.05 103.599 2
-13 1 29 811.04 204.95 2
1 13 29 605.869 166.82 2
-13 0 29 1060.22 240.27 2
0 13 29 930.551 206.453 2
-13 -1 29 466.712 166.369 2
-1 13 29 652.022 162.771 2
-13 -2 29 313.575 142.224 2
-2 13 29 162.363 132.567 2
-13 -3 29 948.651 225.987 2
-3 13 29 640.123 171.129 2
-13 -4 29 696.869 198.484 2
-4 13 29 779.034 204.612 2
-5 13 29 470.401 168.426 2
-13 -5 29 713.002 207.85 2
-6 13 29 -128.876 111.007 2
-13 -6 29 191.547 98.1223 2
-7 13 29 19.1046 82.4821 2
-13 -7 29 -74.2406 92.1802 2
-8 13 29 -10.9744 102.584 2
-13 -8 29 87.971 126.797 2
-9 13 29 109.266 104.419 2
-13 -9 29 332.692 147.271 2
-13 -10 29 580.507 165.803 2
-10 13 29 807.501 206.636 2
-11 13 29 355.747 167.277 2
-12 13 29 277.634 145.402 2
-13 13 29 825.004 217.539 2
-14 13 29 1532.11 273.229 2
-14 12 29 853.369 201.458 2
-14 11 29 96.8197 102.224 2
-14 10 29 204.155 123.666 2
-14 9 29 1208.99 247.086 2
-14 8 29 -250.632 148.309 2
-14 7 29 -128.754 87.933 2
-14 6 29 -33.6423 81.0657 2
-14 5 29 633.509 205.63 2
5 14 29 478.688 138 2
-14 4 29 447.706 171.03 2
4 14 29 523.004 161.483 2
-14 3 29 79.8135 95.6135 2
3 14 29 227.017 92.1869 2
-14 2 29 -55.505 143.704 2
2 14 29 67.8241 68.5541 2
-14 1 29 1074.44 240.742 2
1 14 29 1245.93 235.585 2
-14 0 29 2927.88 391.567 2
0 14 29 2610.81 337.432 2
-14 -1 29 1247.08 260.369 2
-1 14 29 969.312 223.386 2
-14 -2 29 71.0422 88.6865 2
-2 14 29 153.13 114.635 2
-3 14 29 180.832 112.957 2
-14 -3 29 161.78 121.266 2
-4 14 29 449.397 147.207 2
-14 -4 29 618.599 213.05 2
-5 14 29 408.128 171.613 2
-14 -5 29 560.357 192.974 2
-6 14 29 57.2885 99.5263 2
-14 -6 29 -64.69 84.998 2
-7 14 29 -50.8223 114.872 2
-14 -7 29 19.3799 85.4176 2
-8 14 29 349.569 162.417 2
-14 -8 29 47.8605 82.2685 2
-9 14 29 943.423 204.374 2
-14 -9 29 611.837 166.869 2
-10 14 29 199.027 87.1789 2
-11 14 29 172 149.328 2
-12 14 29 883.796 217.149 2
-13 14 29 1980.81 303.292 2
-14 14 29 883.496 198.056 2
-15 14 29 69.4442 88.4457 2
-15 13 29 418.086 159.268 2
-15 12 29 495.538 167.347 2
-15 11 29 732.354 221.8 2
-15 10 29 185.951 140.913 2
-15 9 29 512.235 167.582 2
-15 8 29 330.147 143.299 2
-15 7 29 52.1589 72.8328 2
-15 6 29 145.712 133.87 2
-15 5 29 226.533 130.811 2
-15 4 29 207.352 125.316 2
4 15 29 71.4128 65.0393 2
-15 3 29 176.884 110.874 2
3 15 29 153.009 107.527 2
-15 2 29 220.621 133.269 2
2 15 29 722.671 188.593 2
-15 1 29 217.902 77.0459 2
1 15 29 286.975 133.401 2
-15 0 29 -2.03704 99.7599 2
0 15 29 410.939 154.068 2
-15 -1 29 428.57 187.984 2
-1 15 29 315.071 138.258 2
-2 15 29 523.467 167.211 2
-15 -2 29 433.363 177.679 2
-3 15 29 239.609 117.233 2
-15 -3 29 212.361 101.107 2
-4 15 29 34.0639 101.555 2
-15 -4 29 137.616 99.6743 2
-5 15 29 132.215 82.0666 2
-15 -5 29 167.381 129.147 2
-6 15 29 138.692 141.774 2
-15 -6 29 163.794 126.545 2
-7 15 29 135.47 104.059 2
-15 -7 29 28.8943 78.2244 2
-8 15 29 102.937 99.273 2
-15 -8 29 113.094 150.344 2
-9 15 29 -112.583 127.445 2
-15 -9 29 34.7356 104.937 2
-10 15 29 -39.4027 139.955 2
-11 15 29 1120.14 243.1 2
-12 15 29 434.111 139.538 2
-13 15 29 92.6947 90.4981 2
-14 15 29 356.976 159.376 2
-15 15 29 55.701 90.3828 2
-16 15 29 21.4389 162.21 2
-16 14 29 113.3 125.856 2
-16 13 29 31.5996 112.271 2
-16 12 29 177.068 121.957 2
-16 11 29 1851.01 283.876 2
-16 10 29 385.537 219.301 2
-16 9 29 4.53136 99.6565 2
-16 8 29 600.484 237.689 2
-16 7 29 -23.4673 85.3167 2
-16 6 29 223.616 138.285 2
-16 5 29 182.292 107.027 2
-16 4 29 99.6081 73.5848 2
4 16 29 34.4193 60.8559 2
-16 3 29 1756.83 319.704 2
3 16 29 1320.73 244.852 2
-16 2 29 947.673 220.257 2
2 16 29 763.89 208.357 2
-16 1 29 1846.4 324.518 2
1 16 29 840.478 209.712 2
-16 0 29 890.644 208.155 2
0 16 29 917.242 214.003 2
-16 -1 29 1019.91 215.798 2
-1 16 29 957.145 208.259 2
-2 16 29 661.577 215.479 2
-16 -2 29 1106.44 242.875 2
-3 16 29 1259.97 244.017 2
-16 -3 29 1193.25 240.359 2
-4 16 29 -15.9759 77.3436 2
-16 -4 29 -80.1632 100.867 2
-5 16 29 315.046 137.133 2
-16 -5 29 188.962 108.361 2
-6 16 29 366.894 171.761 2
-16 -6 29 123.79 110.652 2
-7 16 29 377.06 160.601 2
-16 -7 29 80.0391 122.647 2
-8 16 29 280.017 114.689 2
-16 -8 29 39.1431 85.4076 2
-9 16 29 83.2262 83.9436 2
-10 16 29 888.033 214.442 2
-11 16 29 1324.51 245.696 2
-12 16 29 270.71 136.708 2
-13 16 29 -37.0798 90.4616 2
-14 16 29 202.256 104.107 2
-15 16 29 291.632 179.564 2
-16 29 16 51.2026 77.5354 2
-16 16 29 -13.8827 72.1314 2
-16 29 17 301.616 114.951 2
-17 16 29 46.9245 108.926 2
-15 29 17 160.249 106.611 2
-17 15 29 52.3657 126.303 2
-14 29 17 79.9514 78.839 2
-17 14 29 -14.4838 72.5409 2
-17 13 29 45.3581 231.668 2
-17 12 29 -67.8203 139.906 2
-17 11 29 30.6489 103.078 2
-17 10 29 47.7006 132.956 2
-17 9 29 199.854 195.563 2
-17 8 29 177.523 152.712 2
-17 7 29 505.872 218.804 2
-17 6 29 94.6973 150.435 2
-17 5 29 166.117 147.269 2
-17 4 29 112.207 119.994 2
4 17 29 106.431 99.0686 2
-17 3 29 767.135 230.127 2
3 17 29 725.604 184.496 2
-17 2 29 608.646 192.168 2
2 17 29 576.401 157.526 2
-17 1 29 161.743 90.5324 2
1 17 29 136.916 101.21 2
-17 0 29 172.477 150.371 2
0 17 29 71.1628 95.8764 2
-1 17 29 74.4956 104.256 2
-17 -1 29 88.7019 157.062 2
-2 17 29 301.848 129.815 2
-17 -2 29 305.131 118.249 2
-3 17 29 666.25 218.322 2
-17 -3 29 381.175 180.312 2
-4 17 29 310.735 147.213 2
-17 -4 29 35.8839 91.185 2
-5 17 29 -145.862 117.941 2
-17 -5 29 513.327 268.444 2
-6 17 29 490.492 163.978 2
-17 -6 29 128.647 161.077 2
-7 17 29 630.321 184.361 2
-17 -7 29 52.9197 161.715 2
-8 17 29 381.298 147.383 2
-17 -8 29 75.122 107.254 2
-9 17 29 661.571 176.872 2
-10 17 29 758.008 191.598 2
-11 17 29 190.463 127.548 2
-12 17 29 -122.699 115.323 2
-13 17 29 243.065 113.886 2
-14 17 29 12.521 85.9084 2
-17 29 15 173.629 129.449 2
-15 17 29 185.587 126.91 2
-17 29 16 373.703 156.891 2
-16 17 29 -6.46262 98.414 2
-17 29 17 216.72 112.322 2
-17 17 29 58.6 154.608 2
-17 29 18 408.389 154.882 2
-18 17 29 36.03 131.024 2
-16 29 18 -116.646 101.777 2
-18 16 29 3.99508 90.47 2
-15 29 18 -34.031 85.7046 2
-18 15 29 1.6728 79.3722 2
-14 29 18 1189.04 236.07 2
-18 14 29 205.281 197.463 2
-13 29 18 1565.58 255.718 2
-18 13 29 259.68 233.561 2
-12 29 18 415.76 143.93 2
-18 12 29 132.983 144.828 2
-11 29 18 59.5483 100.832 2
-18 11 29 17.4491 83.2264 2
-18 10 29 103.836 185.822 2
-18 9 29 95.6234 187.124 2
-18 8 29 87.8099 214.681 2
-18 7 29 2.00359 81.1677 2
-18 6 29 68.32 138.356 2
-18 5 29 -49.4101 116.864 2
-18 4 29 65.8142 158.891 2
4 18 29 158.096 85.9196 2
-18 3 29 76.8684 153.434 2
3 18 29 304.363 142.929 2
-18 2 29 5.2399 104.642 2
2 18 29 79.8277 90.0039 2
-18 1 29 111.845 145.395 2
1 18 29 437.795 162.481 2
-18 0 29 320.457 218.769 2
0 18 29 999.644 217.954 2
-1 18 29 310.243 157.894 2
-18 -1 29 130.897 175.018 2
1 29 18 524.271 182.163 2
-2 18 29 326.798 145.373 2
-18 -2 29 45.7755 121.183 2
2 29 18 293.176 133.508 2
-3 18 29 216.41 177.991 2
-18 -3 29 53.9271 149.565 2
3 29 18 199.414 110.175 2
-4 18 29 73.1429 76.7971 2
-18 -4 29 170.348 160.591 2
-5 18 29 782.31 249.927 2
-18 -5 29 -43.7202 102.135 2
-6 18 29 180.158 120.008 2
-18 -6 29 59.819 178.548 2
-7 18 29 230.793 124.387 2
-18 -7 29 27.8626 86.7498 2
-8 18 29 803.938 195.098 2
-9 18 29 853.979 202.594 2
-10 18 29 584.605 161.568 2
-11 18 29 96.827 105.078 2
-12 18 29 1495.68 274.963 2
-13 18 29 1082.09 218.375 2
-18 29 14 805.749 190.621 2
-14 18 29 1241.89 244.542 2
-18 29 15 30.9821 98.8874 2
-15 18 29 20.183 82.9792 2
-18 29 16 127.64 96.1453 2
-16 18 29 117.976 126.183 2
-18 29 17 270.773 145.918 2
-17 18 29 99.5188 152.197 2
-18 29 18 61.7593 70.5483 2
-18 18 29 7.24134 90.6868 2
-18 29 19 532.873 150.945 2
-19 18 29 177.23 147.286 2
-17 29 19 148.502 94.6278 2
-19 17 29 62.727 116.28 2
-16 29 19 194.072 106.7 2
-19 16 29 19.3163 97.7835 2
-15 29 19 478.725 149.068 2
-19 15 29 233.893 164.763 2
-14 29 19 191.471 112.336 2
-19 14 29 79.6521 125.469 2
-13 29 19 12.9948 76.8407 2
-19 13 29 38.6183 85.4347 2
-12 29 19 556.211 170.634 2
-19 12 29 45.0547 147.692 2
-11 29 19 921.764 194.461 2
-19 11 29 428.443 250.462 2
-10 29 19 254.96 123.618 2
-19 10 29 35.7921 156.922 2
-9 29 19 240.868 115.527 2
-19 9 29 -1.10338 125.699 2
-19 8 29 15099.8 741.339 2
-8 29 19 37.172 98.044 2
-7 29 19 587.89 192.628 2
-19 7 29 69.583 107.115 2
-6 29 19 650.428 154.533 2
-19 6 29 133.763 190.823 2
-5 29 19 1247.6 245.144 2
-19 5 29 289.613 255.165 2
-4 29 19 126.576 77.7451 2
-19 4 29 6.85857 126.224 2
-3 29 19 183.433 104.544 2
-19 3 29 39.7451 130.961 2
3 19 29 234.664 109.534 2
-19 2 29 97.5572 140.608 2
-2 29 19 476.251 160.415 2
2 19 29 331.513 110.313 2
-1 29 19 681.459 177.726 2
1 19 29 1017.38 217.623 2
-19 0 29 91.441 112.383 2
0 29 19 194.657 109.905 2
-1 19 29 742.13 212.818 2
-19 -1 29 296.073 214.33 2
1 29 19 1045.85 208.098 2
-2 19 29 344.81 142.113 2
-19 -2 29 88.0928 174.876 2
2 29 19 169.148 97.2638 2
-3 19 29 124.24 123.96 2
-19 -3 29 94.387 140.86 2
3 29 19 208.338 106.521 2
-4 19 29 136.852 107.228 2
-19 -4 29 35.5238 127.945 2
-5 19 29 1070.12 236.17 2
-19 -5 29 553.007 224.472 2
-6 19 29 628.502 176.12 2
-19 -6 29 136.024 174.896 2
-7 19 29 395.762 140.36 2
-8 19 29 22.612 111.758 2
-9 19 29 349.829 140.543 2
-10 19 29 375.816 145.088 2
-11 19 29 1025.19 221.942 2
-12 19 29 661.805 169.768 2
-13 19 29 189.813 103.355 2
-19 29 14 97.441 109.797 2
-14 19 29 466.323 181.104 2
-19 29 15 463.197 152.042 2
-15 19 29 621.818 194.117 2
-19 29 16 91.7451 90.9804 2
-16 19 29 31.1517 107.674 2
-19 29 17 88.7401 79.0053 2
-17 19 29 32.6329 106.652 2
-19 29 18 474.145 148.864 2
-18 19 29 59.9523 131.473 2
-17 29 20 79.8163 62.522 2
-20 17 29 37.3206 89.4734 2
-16 29 20 692.911 180.849 2
-20 16 29 346.782 173.938 2
-15 29 20 676.935 179.832 2
-20 15 29 164.258 151.275 2
-14 29 20 -165.864 94.4021 2
-20 14 29 -19.3046 90.1479 2
-13 29 20 78.3565 101.335 2
-20 13 29 -12.501 77.8331 2
-12 29 20 884.377 202.662 2
-20 12 29 294.648 178.715 2
-11 29 20 432.172 143.076 2
-20 11 29 143.011 151.056 2
-10 29 20 968.241 200.197 2
-20 10 29 143.259 154.518 2
-9 29 20 73.6197 105.697 2
-20 9 29 17.1593 61.2789 2
-8 29 20 392.031 112.238 2
-20 8 29 98.999 156.496 2
-7 29 20 -38.8517 69.3897 2
-20 7 29 25.1416 111.145 2
-6 29 20 564.222 167.582 2
-20 6 29 55.5409 136.204 2
-5 29 20 118.534 119.697 2
-20 5 29 -19.9437 80.5139 2
-4 29 20 45.2175 72.9536 2
-20 4 29 -12.5254 84.6515 2
-3 29 20 35.3951 94.1813 2
-20 3 29 73.1662 135.514 2
3 20 29 20.6859 70.2723 2
-2 29 20 124.023 89.1456 2
-20 2 29 16.4221 81.8881 2
2 20 29 81.7182 102.325 2
-1 29 20 392.259 153.258 2
-20 1 29 621.889 170.728 2
1 20 29 638.88 159.228 2
0 29 20 384.59 120.411 2
-20 0 29 35.9777 83.9969 2
0 20 29 441.122 153.583 2
1 29 20 421.247 127.889 2
-20 -1 29 50.6277 83.3516 2
-1 20 29 339.054 144.64 2
-2 20 29 -25.3856 77.3467 2
2 29 20 29.3229 57.3944 2
-20 -2 29 180.158 99.5802 2
-3 20 29 183.027 126.693 2
3 29 20 160.697 81.0605 2
-20 -3 29 153.118 121.851 2
-4 20 29 111.686 119.08 2
-20 -4 29 53.6713 86.9873 2
-5 20 29 22.3066 104.728 2
-6 20 29 590.573 171.64 2
-7 20 29 136.407 88.7744 2
-8 20 29 322.234 123.796 2
-9 20 29 21.3082 80.4446 2
-10 20 29 864.981 200.222 2
-11 20 29 276.807 124.524 2
-12 20 29 882.539 191.327 2
-20 29 12 717.558 180.535 2
-20 29 13 48.3161 87.3527 2
-13 20 29 -125.584 114.629 2
-20 29 14 60.7975 91.4845 2
-14 20 29 -4.5856 68.972 2
-20 29 15 407.862 136.802 2
-15 20 29 502.467 171.034 2
-20 29 16 751.041 167.74 2
-16 20 29 343.532 188.845 2
-20 29 17 132.584 101.08 2
-17 20 29 -6.9327 74.9062 2
-15 29 21 253.95 120.364 2
-21 15 29 30.109 88.298 2
-14 29 21 510.232 149.619 2
-21 14 29 92.1478 134.721 2
-13 29 21 255.375 102.064 2
-21 13 29 40.5265 88.9787 2
-12 29 21 106.009 79.7643 2
-21 12 29 36.1528 89.0432 2
-11 29 21 56.7886 79.3552 2
-21 11 29 -48.7052 106.986 2
-10 29 21 748.41 168.058 2
-21 10 29 105.606 161.288 2
-9 29 21 711.019 169.845 2
-21 9 29 154.097 169.004 2
-8 29 21 884.071 191.593 2
-21 8 29 171.249 162.212 2
-7 29 21 638.072 161.909 2
-21 7 29 226.601 161.455 2
-6 29 21 -13.5113 97.496 2
-21 6 29 55.0556 106.905 2
-5 29 21 198.44 116.535 2
-21 5 29 -9.28311 61.2572 2
-4 29 21 913.899 199.71 2
-21 4 29 751.874 159.108 2
-3 29 21 944.216 194.03 2
-21 3 29 1420.07 228.315 2
-2 29 21 69.4556 89.1034 2
-21 2 29 -177.556 123.428 2
2 21 29 12.4435 82.5666 2
-1 29 21 1133.99 210.698 2
-21 1 29 1269.14 207.991 2
0 29 21 92.6815 79.3712 2
-21 0 29 200.654 102.196 2
0 21 29 77.3148 90.5034 2
1 29 21 1143.18 203.203 2
-1 21 29 1055.83 211.991 2
-2 21 29 84.52 137.278 2
2 29 21 -12.175 61.8647 2
-3 21 29 936.464 220.522 2
-4 21 29 563.256 205.038 2
-5 21 29 264.777 148.492 2
-6 21 29 26.134 92.3052 2
-7 21 29 764.364 192.315 2
-8 21 29 941.382 183.047 2
-9 21 29 667.808 161.806 2
-10 21 29 649.046 159.461 2
-11 21 29 -117.398 73.8612 2
-21 29 11 132.599 99.4609 2
-21 29 12 267.509 101.022 2
-12 21 29 -33.7582 67.7568 2
-21 29 13 283.071 129.926 2
-13 21 29 135.228 93.9564 2
-21 29 14 212.864 98.8537 2
-14 21 29 264.053 128.352 2
-21 29 15 140.993 98.9071 2
-15 21 29 17.7543 89.9638 2
-14 29 22 709.436 203.897 2
-22 14 29 121.731 113.021 2
-13 29 22 -1.90523 70.886 2
-22 13 29 24.5011 54.2883 2
-12 29 22 69.9069 96.5637 2
-22 12 29 8.86193 69.8917 2
-11 29 22 137.683 87.0901 2
-22 11 29 -13.9244 70.1638 2
-10 29 22 514.536 149.796 2
-22 10 29 15.066 87.0365 2
-9 29 22 18.064 75.3897 2
-22 9 29 21.3952 59.337 2
-8 29 22 534.657 150.638 2
-22 8 29 56.8259 154.44 2
-7 29 22 69.7592 68.5313 2
-22 7 29 18.7846 87.3207 2
-6 29 22 51.4863 92.5521 2
-22 6 29 178.956 95.9584 2
-5 29 22 230.799 113.865 2
-22 5 29 67.4063 111.741 2
-4 29 22 256.361 120.393 2
-3 29 22 605.817 180.61 2
-2 29 22 152.378 102.882 2
2 22 29 47.4859 120.055 2
-1 29 22 593.13 146.477 2
1 22 29 80.6052 145.652 2
0 29 22 235.873 137.401 2
0 22 29 1.04835 73.7808 2
1 29 22 631.569 145.788 2
-1 22 29 204.921 160.975 2
2 29 22 120.663 75.7863 2
-2 22 29 6.12888 97.866 2
-3 22 29 690.463 181.068 2
-4 22 29 209.172 116.258 2
-5 22 29 109 113.853 2
-6 22 29 81.183 108.924 2
-7 22 29 145.305 107.485 2
-8 22 29 383.314 134.622 2
-9 22 29 25.5888 84.6294 2
-10 22 29 311.138 118.222 2
-22 29 10 314.622 114.512 2
-11 22 29 -30.9305 85.3847 2
-22 29 11 322.767 109.265 2
-22 29 12 18.6595 71.6747 2
-12 22 29 106.354 101.256 2
-22 29 13 190.175 104.554 2
-13 22 29 135.86 94.3351 2
-22 29 14 391.317 106.752 2
-14 22 29 503.161 177.442 2
-12 29 23 246.301 127.699 2
-11 29 23 30.9668 80.0315 2
-10 29 23 167.1 88.5908 2
-9 29 23 27.7069 75.1881 2
-8 29 23 443.259 152.743 2
-7 29 23 553.125 169.549 2
-6 29 23 146.604 100.583 2
-5 29 23 298.567 112.537 2
-4 29 23 588.472 155.057 2
-3 29 23 155.626 104.62 2
-2 29 23 208.734 106.735 2
2 23 29 74.0558 121.419 2
-1 29 23 580.965 155.084 2
1 23 29 128.444 124.332 2
0 29 23 103.203 95.3595 2
0 23 29 16.4696 88.0092 2
1 29 23 537.633 125.168 2
-1 23 29 70.4953 152.932 2
-2 23 29 61.3166 147.954 2
-3 23 29 65.2155 127.53 2
-4 23 29 134.167 116.205 2
-5 23 29 251.809 129.1 2
-6 23 29 508.565 161.775 2
-7 23 29 258.235 120.137 2
-8 23 29 351.703 143.26 2
-9 23 29 133.113 110.384 2
-23 29 9 139.833 71.2518 2
-10 23 29 126.665 105.104 2
-23 29 10 114.537 86.2317 2
-23 29 11 149.529 93.6376 2
-11 23 29 140.856 92.2746 2
-12 23 29 297.642 120.66 2
-10 29 24 0.80969 61.6609 2
-9 29 24 -10.0863 55.8257 2
-8 29 24 68.7537 88.1969 2
-7 29 24 172.48 94.041 2
-6 29 24 360.007 147.184 2
-5 29 24 474.931 151.573 2
-4 29 24 440.413 150.553 2
-3 29 24 369.616 125.612 2
-2 29 24 25.505 50.4371 2
-1 29 24 1112.65 208.301 2
1 24 29 286.632 175.786 2
0 29 24 138.547 109.493 2
0 24 29 2.90584 77.7948 2
1 29 24 979.771 157.639 2
-1 24 29 158.147 181.821 2
-2 24 29 23.7959 79.6062 2
-3 24 29 11.0502 129.798 2
-4 24 29 166.71 124.8 2
-5 24 29 285.739 144.887 2
-6 24 29 144.045 123.85 2
-7 24 29 110.319 108.559 2
-8 24 29 -15.9707 76.6286 2
-9 24 29 40.2392 62.3247 2
-10 24 29 64.3849 92.63 2
-8 29 25 19.9724 91.5625 2
-7 29 25 99.5003 97.3625 2
-6 29 25 793.374 189.518 2
-5 29 25 40.099 78.8603 2
-4 29 25 -1.97761 54.7161 2
-3 29 25 149.467 116.308 2
-2 29 25 460.605 137.928 2
-1 29 25 244.065 119.279 2
0 29 25 97.4234 76.5642 2
0 25 29 11.1439 71.9997 2
-1 25 29 122.194 121.814 2
-2 25 29 103.485 126.041 2
-3 25 29 15.4352 91.0778 2
-4 25 29 -14.109 79.8412 2
-5 25 29 1.28022 57.2235 2
-6 25 29 788.529 196.462 2
-7 25 29 46.084 83.8956 2
-8 25 29 18.7309 67.9914 2
-3 29 26 285.051 112.857 2
-2 29 26 15.2709 80.8091 2
-1 29 26 51.0991 78.42 2
-1 26 29 96.5206 94.7829 2
-2 26 29 -15.5087 52.0235 2
-3 26 29 90.8374 120.003 2
0 0 30 83.3198 124.57 2
0 -1 30 2345.47 380.664 2
1 0 30 1782.56 363.981 2
-1 0 30 2274.26 338.595 2
0 1 30 2267.89 336.598 2
1 -1 30 -44.4958 92.8039 2
-1 -1 30 223.37 167.293 2
1 1 30 31.7006 109.49 2
-1 1 30 97.5122 82.835 2
2 -1 30 682.978 227.079 2
-1 -2 30 1191.29 247.36 2
1 2 30 726.901 231.711 2
-2 1 30 1198.61 255.008 2
0 -2 30 284.586 156.855 2
2 0 30 144.081 96.8733 2
-2 0 30 398.098 185.852 2
0 2 30 38.3997 126.53 2
1 -2 30 703.7 223.38 2
2 1 30 728.004 247.318 2
-2 -1 30 1174.07 237.378 2
-1 2 30 1134.94 236.609 2
2 -2 30 908.598 196.819 2
-2 -2 30 863.266 233.753 2
2 2 30 563.342 237.761 2
-2 2 30 1087.94 246.637 2
3 -2 30 1685.98 285.023 2
-2 -3 30 2196.75 341.635 2
2 3 30 1403.06 307.454 2
-3 2 30 2143.54 341.589 2
3 -1 30 1621.01 323.836 2
-1 -3 30 2090.48 326.49 2
-3 1 30 2135.42 343.535 2
1 3 30 1299.1 314.971 2
0 -3 30 927.041 236.574 2
3 0 30 1319.2 274.001 2
-3 0 30 1100.98 231.911 2
0 3 30 911.483 278.822 2
3 1 30 2223.13 338.881 2
1 -3 30 2040.48 307.734 2
-3 -1 30 1823.22 317.467 2
-1 3 30 1880.43 364.454 2
-3 -2 30 2319.55 370.385 2
2 -3 30 2023.62 307.347 2
3 2 30 2059.45 325.679 2
-2 3 30 1864.28 316.449 2
3 -3 30 430.27 157.017 2
-3 -3 30 378.536 152.713 2
3 3 30 403.65 170.509 2
-3 3 30 497.457 168.406 2
4 -3 30 35.799 84.6273 2
-3 -4 30 113.91 129.588 2
3 4 30 14.2059 100.309 2
-4 3 30 8.64336 98.6121 2
4 -2 30 166.07 89.5344 2
-2 -4 30 77.473 109.228 2
2 4 30 142.59 123.52 2
-4 2 30 171.088 140.135 2
-1 -4 30 524.289 202.191 2
4 -1 30 416.975 167.199 2
-4 1 30 276.634 162.298 2
1 4 30 409.043 158.227 2
0 -4 30 166.079 127.231 2
4 0 30 7.96582 126.792 2
-4 0 30 -23.6776 84.5372 2
0 4 30 25.8515 93.1365 2
1 -4 30 492.813 173.055 2
4 1 30 201.554 100.831 2
-4 -1 30 314.132 154.132 2
-1 4 30 233.666 184.722 2
2 -4 30 -63.0027 132.366 2
4 2 30 131.1 124.146 2
-4 -2 30 -0.25001 101.877 2
-2 4 30 214.834 146.364 2
3 -4 30 13.9202 108.124 2
-4 -3 30 111.769 100.376 2
4 3 30 -39.8258 79.4386 2
-3 4 30 34.7167 95.4909 2
4 -4 30 6265.43 535.363 2
-4 -4 30 6360.56 575.268 2
4 4 30 6219.77 524.134 2
-4 4 30 6897.55 584.603 2
5 -4 30 561.677 163.636 2
-4 -5 30 535.298 211.032 2
4 5 30 324.535 123.37 2
-5 4 30 619.396 217.774 2
5 -3 30 2345.23 333.55 2
-3 -5 30 2039.93 325.748 2
3 5 30 1860.94 295.868 2
-5 3 30 1869.47 308.41 2
5 -2 30 738.79 199.203 2
-2 -5 30 759.907 210.756 2
2 5 30 436.174 167.809 2
-5 2 30 559.136 198.154 2
-1 -5 30 1582.21 292.011 2
5 -1 30 1686.62 285.842 2
-5 1 30 1766.18 317.751 2
1 5 30 1881.45 297.526 2
0 -5 30 1408.42 279.441 2
5 0 30 1686.98 294.337 2
-5 0 30 1641.71 294.293 2
0 5 30 1629.98 293.565 2
1 -5 30 1721.31 311.711 2
5 1 30 1660.1 278.763 2
-5 -1 30 1874.71 330.25 2
-1 5 30 1777.63 296.914 2
2 -5 30 676.558 210.805 2
5 2 30 406.75 163.566 2
-5 -2 30 541.311 194.476 2
-2 5 30 488.043 184.598 2
3 -5 30 2442.04 363.56 2
-5 -3 30 2555.72 364.843 2
5 3 30 2001.83 293.172 2
-3 5 30 1899.89 287.912 2
4 -5 30 433.93 128.723 2
-5 -4 30 960.641 229.275 2
5 4 30 654.794 179.803 2
-4 5 30 530.082 183.43 2
5 -5 30 527.355 180.298 2
-5 -5 30 16.4254 112.096 2
5 5 30 329.521 133.844 2
-5 5 30 179.083 106.719 2
6 -5 30 771.358 201.464 2
-5 -6 30 829.854 207.542 2
5 6 30 564.112 158.517 2
-6 5 30 631.83 189.677 2
6 -4 30 -4.40692 73.2209 2
-4 -6 30 -130.913 134.807 2
4 6 30 110.656 91.6459 2
-6 4 30 -67.1479 99.5042 2
6 -3 30 -66.1474 117.04 2
-3 -6 30 129.634 162.912 2
3 6 30 87.2292 100.477 2
-6 3 30 177.237 124.147 2
6 -2 30 2211.83 332.409 2
2 6 30 2227.05 343.508 2
-2 -6 30 2322.54 342.141 2
-6 2 30 2338.56 346.72 2
-1 -6 30 574.107 174.1 2
6 -1 30 517.704 188.072 2
-6 1 30 301.722 133.373 2
1 6 30 632.417 216.703 2
0 -6 30 -98.4479 98.9014 2
6 0 30 96.1022 100.293 2
-6 0 30 176.094 126.711 2
0 6 30 -24.7697 91.2736 2
1 -6 30 440.302 145.579 2
-6 -1 30 727.18 203.485 2
-1 6 30 489.442 157.03 2
6 2 30 3197 362.565 2
-6 -2 30 2965.99 403.38 2
-2 6 30 2943.83 387.791 2
2 -6 30 2176.61 333.311 2
3 -6 30 3.77655 80.2285 2
6 3 30 39.4991 94.2649 2
-6 -3 30 123.104 133.956 2
-3 6 30 12.0953 104.363 2
4 -6 30 -84.1087 103.144 2
-6 -4 30 35.1247 112.076 2
6 4 30 -33.418 65.6909 2
-4 6 30 10.2231 97.2483 2
5 -6 30 557.417 208.161 2
-6 -5 30 950.586 236.317 2
6 5 30 1020.23 227.877 2
-5 6 30 668.745 181.17 2
6 -6 30 3891.36 410.61 2
-6 -6 30 3936.66 449.126 2
6 6 30 3834.58 385.4 2
-6 6 30 4238.41 459.475 2
-6 -7 30 158.197 129.504 2
6 7 30 543.476 146.122 2
-7 6 30 655.047 205.419 2
7 -5 30 329.869 129.207 2
-5 -7 30 282.967 165.16 2
5 7 30 126.53 63.662 2
-7 5 30 404.738 159.153 2
7 -4 30 8.74609 83.1717 2
-4 -7 30 190.808 122.014 2
4 7 30 -9.1584 94.1762 2
-7 4 30 52.3042 117.753 2
7 -3 30 573.396 157.758 2
-3 -7 30 356.873 119.068 2
3 7 30 679.277 183.719 2
-7 3 30 753.419 205.718 2
7 -2 30 142.605 68.254 2
-2 -7 30 307.019 129.708 2
-7 2 30 333.176 137.673 2
-1 -7 30 1280.34 256.468 2
7 -1 30 1428.41 267.517 2
-7 1 30 1244.6 276.567 2
1 7 30 1345.19 264.152 2
0 -7 30 153.854 114.432 2
7 0 30 113.904 77.0029 2
-7 0 30 223.504 126.862 2
0 7 30 220.737 140.747 2
1 -7 30 1118.74 233.442 2
7 1 30 1102.14 218.043 2
-7 -1 30 1437.34 289.138 2
-1 7 30 1544.69 287.426 2
2 -7 30 337.853 129.885 2
7 2 30 753.031 206.192 2
-7 -2 30 566.943 181.375 2
-2 7 30 305.657 139.988 2
3 -7 30 179.101 112.189 2
7 3 30 282.74 125.466 2
-7 -3 30 712.661 183.323 2
-3 7 30 456.064 174.855 2
4 -7 30 -35.6423 102.683 2
-7 -4 30 66.9626 86.8408 2
7 4 30 -226.832 162.756 2
5 -7 30 270.558 121.235 2
-7 -5 30 3.70191 93.0969 2
7 5 30 313.553 116.965 2
-5 7 30 209.075 147.633 2
-7 -6 30 534.321 177.481 2
-6 7 30 761.463 215.34 2
-7 -7 30 333.698 143.135 2
-7 7 30 -87.4216 128.422 2
-7 -8 30 217.012 107.027 2
-8 7 30 616.928 206.53 2
-6 -8 30 136.811 123.399 2
6 8 30 489.212 143.896 2
-8 6 30 365.839 150.481 2
-5 -8 30 295.336 141.811 2
-8 5 30 128.833 127.76 2
-4 -8 30 3228.16 420.732 2
4 8 30 3141.37 363.747 2
-8 4 30 3047.19 391.102 2
8 -3 30 1919.88 301.021 2
-3 -8 30 2411.74 357.016 2
-8 3 30 2310.74 343.946 2
3 8 30 1985.12 295.713 2
8 -2 30 17.0569 75.8442 2
-2 -8 30 203.829 96.0136 2
-8 2 30 18.6273 95.8066 2
2 8 30 -92.4083 110.292 2
-1 -8 30 816.485 214.891 2
8 -1 30 464.827 144.22 2
-8 1 30 536.152 213.319 2
1 8 30 841.945 214.519 2
0 -8 30 1255.96 276.612 2
8 0 30 489.91 120.56 2
-8 0 30 834.262 211.399 2
0 8 30 1119.15 240.746 2
1 -8 30 412.267 139.344 2
8 1 30 503.755 147.852 2
-8 -1 30 549.197 181.334 2
-1 8 30 672.171 196.058 2
2 -8 30 91.0114 77.309 2
-8 -2 30 77.3814 100.116 2
-2 8 30 114.026 119.057 2
3 -8 30 1907.54 285.517 2
-8 -3 30 2355.72 355.496 2
-3 8 30 1994.35 335.113 2
4 -8 30 2995.72 363.852 2
-8 -4 30 3412.71 420.327 2
-4 8 30 3498.26 431.792 2
-8 -5 30 404.633 162.967 2
-5 8 30 119.126 153.403 2
-8 -6 30 471.508 187.918 2
-6 8 30 230.914 149.601 2
-8 -7 30 357.147 132.939 2
-7 8 30 245.772 126.494 2
-8 -8 30 949.325 231.42 2
-8 8 30 679.682 207.32 2
-8 -9 30 261.968 139.869 2
-9 8 30 434.161 150.511 2
-7 -9 30 1042.59 218.37 2
-9 7 30 1179.29 261.249 2
-6 -9 30 491.336 179.022 2
6 9 30 533.021 176.46 2
-9 6 30 467.108 147.413 2
-5 -9 30 80.3079 114.744 2
5 9 30 359.738 138.62 2
-9 5 30 489.004 155.179 2
-4 -9 30 957.396 230.949 2
4 9 30 1097.63 221.85 2
-9 4 30 1185.58 258.379 2
-3 -9 30 323.81 138.449 2
-9 3 30 310.636 186.892 2
3 9 30 145.577 71.1551 2
-2 -9 30 91.7845 139.629 2
-9 2 30 334.96 180.787 2
2 9 30 -5.67302 118.5 2
-1 -9 30 1017.98 235.689 2
-9 1 30 1049.14 262.273 2
1 9 30 1268.5 257.035 2
0 -9 30 -228.407 140.395 2
-9 0 30 -55.8814 77.5467 2
0 9 30 67.3707 86.5922 2
1 -9 30 1443.21 288.284 2
-9 -1 30 878.914 216.923 2
-1 9 30 1178.78 251.364 2
2 -9 30 -176.614 108.414 2
-9 -2 30 -96.0377 131.018 2
-2 9 30 -90.0523 78.83 2
-9 -3 30 -83.3323 91.6554 2
-3 9 30 -45.6504 84.8632 2
-9 -4 30 1177.77 247.91 2
-4 9 30 1159.27 254.408 2
-9 -5 30 596.596 204.417 2
-5 9 30 292.68 143.759 2
-9 -6 30 355.299 143.722 2
-6 9 30 460.759 170.067 2
-9 -7 30 966.841 236.555 2
-7 9 30 1240.42 253.977 2
-9 -8 30 617.222 210.032 2
-8 9 30 450.232 172.653 2
-9 -9 30 183.973 136.96 2
-9 9 30 26.8809 108.954 2
-9 -10 30 179.188 97.4152 2
-10 9 30 357.402 143.699 2
-8 -10 30 689.639 194.874 2
-10 8 30 596.254 193.833 2
-7 -10 30 146.102 102.83 2
-10 7 30 257.767 135.607 2
-6 -10 30 1247.37 255.998 2
-10 6 30 1239.65 258.11 2
-5 -10 30 505.019 182.15 2
5 10 30 851.865 238.528 2
-10 5 30 478.319 166.734 2
-4 -10 30 409.011 168.041 2
4 10 30 387.449 129.05 2
-10 4 30 647.518 204.334 2
-3 -10 30 1851.61 324.198 2
-10 3 30 1529.83 289.732 2
3 10 30 1613.43 265.07 2
-2 -10 30 1254.32 260.125 2
-10 2 30 1322.91 270.714 2
2 10 30 931.271 206.885 2
-1 -10 30 842.075 230.364 2
-10 1 30 1038.86 241.719 2
1 10 30 972.799 224.903 2
0 -10 30 -83.1508 109.324 2
-10 0 30 19.8337 99.275 2
0 10 30 -162.343 121.771 2
-10 -1 30 774.457 211.586 2
-1 10 30 765.637 193.192 2
-10 -2 30 1213.43 249.861 2
-2 10 30 1043.99 224.139 2
-10 -3 30 1578.69 287.762 2
-3 10 30 1783.38 307.772 2
-10 -4 30 231.432 112.583 2
-4 10 30 340.875 156.998 2
-10 -5 30 480.716 160.855 2
-5 10 30 592.016 195.87 2
-10 -6 30 1045.7 238.699 2
-6 10 30 1176.59 250.382 2
-10 -7 30 229.352 144.344 2
-7 10 30 -195.675 118.828 2
-10 -8 30 570.508 172.465 2
-8 10 30 671.012 193.713 2
-10 -9 30 231.435 98.5006 2
-9 10 30 243.237 136.617 2
-10 -10 30 -152.078 136.246 2
-10 10 30 -4.71243 107.319 2
-11 10 30 500.554 179.822 2
-11 9 30 1884.59 307.159 2
-11 8 30 143.851 124.066 2
-7 -11 30 121.263 94.9256 2
-11 7 30 -164.674 127.595 2
-6 -11 30 439.711 148.259 2
-11 6 30 413.098 188.893 2
-5 -11 30 -3.2962 93.0068 2
5 11 30 72.7644 90.6291 2
-11 5 30 159.512 154.911 2
-11 4 30 329.409 157.981 2
4 11 30 356.53 133.601 2
-11 3 30 387.636 154.031 2
3 11 30 394.995 149.116 2
-11 2 30 332.547 151.113 2
2 11 30 65.2085 105.135 2
-11 1 30 684.296 175.965 2
1 11 30 626.818 189.506 2
-11 0 30 260.267 141.246 2
0 11 30 565.41 177.182 2
-11 -1 30 703.54 218.984 2
-1 11 30 748.693 184.509 2
-11 -2 30 415.579 154.739 2
-2 11 30 156.713 72.7243 2
-11 -3 30 533.161 188.856 2
-3 11 30 499.555 184.65 2
-11 -4 30 221.518 116.149 2
-4 11 30 261.068 149.841 2
-11 -5 30 -58.0617 89.3689 2
-5 11 30 269.376 132.793 2
-11 -6 30 450.165 169.77 2
-6 11 30 658.154 198.238 2
-11 -7 30 12.0908 85.2797 2
-7 11 30 -131.521 119.957 2
-11 -8 30 40.3465 73.3577 2
-8 11 30 68.3492 88.6599 2
-11 -9 30 1791.61 292.709 2
-9 11 30 1929.36 303.398 2
-11 -10 30 174.215 125.058 2
-10 11 30 116.828 93.649 2
-11 11 30 475.165 191.054 2
-12 11 30 939.598 222.241 2
-12 10 30 354.469 160.404 2
-12 9 30 594.92 203.726 2
-12 8 30 403.31 162.405 2
-12 7 30 14.8114 122.17 2
-12 6 30 465.341 164.57 2
5 12 30 312.666 120.223 2
-12 5 30 417.473 168.647 2
-12 4 30 1056.88 253.232 2
4 12 30 987.947 205.545 2
-12 3 30 305.171 136.408 2
3 12 30 140.006 86.6172 2
-12 2 30 155.469 123.624 2
2 12 30 481.537 135.175 2
-12 1 30 1073.65 235.156 2
1 12 30 1176.31 254.222 2
-12 0 30 1016.84 230.37 2
0 12 30 756.212 180.477 2
-12 -1 30 1017.33 228.138 2
-1 12 30 1062.35 234.395 2
-12 -2 30 264.768 106.839 2
-2 12 30 468.207 179.191 2
-12 -3 30 180.546 135.65 2
-3 12 30 576.955 197.227 2
-12 -4 30 1314.49 271.074 2
-4 12 30 1375.09 263.141 2
-12 -5 30 256.397 126.302 2
-5 12 30 451.07 180.675 2
-12 -6 30 506.888 169.002 2
-6 12 30 276.284 154.513 2
-12 -7 30 312.678 153.537 2
-7 12 30 146.903 121.959 2
-12 -8 30 288.313 163.027 2
-8 12 30 427.99 169.993 2
-12 -9 30 22.3489 124.838 2
-9 12 30 398.635 174.512 2
-12 -10 30 19.1044 90.3693 2
-10 12 30 22.23 109.35 2
-11 12 30 399.651 146.529 2
-12 12 30 600.069 209.132 2
-13 12 30 316.706 120.284 2
-13 11 30 952.003 218.09 2
-13 10 30 551.75 181.81 2
-13 9 30 -77.2246 124.763 2
-13 8 30 390.111 184.089 2
-13 7 30 -4.84211 83.5504 2
-13 6 30 401.1 156.026 2
-13 5 30 73.6663 103.237 2
5 13 30 153.446 96.8459 2
-13 4 30 934.308 224.729 2
4 13 30 559.177 140.611 2
-13 3 30 675.129 194.817 2
3 13 30 394.442 130.027 2
-13 2 30 1197.05 251.446 2
2 13 30 913.55 196.074 2
-13 1 30 763.197 209.526 2
1 13 30 659.008 193.941 2
-13 0 30 27.4463 91.7425 2
0 13 30 -11.0707 93.1468 2
-13 -1 30 601.232 163.888 2
-1 13 30 772.827 187.702 2
-13 -2 30 1228.92 230.501 2
-2 13 30 1097.17 230.262 2
-13 -3 30 490.615 164.904 2
-3 13 30 668.993 178.033 2
-13 -4 30 817.061 185.9 2
-4 13 30 1001.51 219.705 2
-13 -5 30 120.452 126.596 2
-5 13 30 331.465 120.26 2
-13 -6 30 178.966 126.828 2
-6 13 30 302.499 173.28 2
-13 -7 30 63.1286 99.2262 2
-7 13 30 69.7373 79.716 2
-13 -8 30 96.7816 136.842 2
-8 13 30 141.07 100.819 2
-13 -9 30 1.22925 106.298 2
-9 13 30 31.4168 86.8974 2
-10 13 30 536.108 194.156 2
-11 13 30 1132.65 235.851 2
-12 13 30 467.716 167.721 2
-13 13 30 -62.4331 83.7481 2
-14 13 30 644.117 185.033 2
-14 12 30 422.508 168.494 2
-14 11 30 589.393 194.341 2
-14 10 30 321.791 136.091 2
-14 9 30 65.9493 86.9909 2
-14 8 30 90.9722 91.7328 2
-14 7 30 29.453 82.5871 2
-14 6 30 426.321 181.792 2
-14 5 30 83.4687 94.9767 2
-14 4 30 247.72 132.295 2
4 14 30 44.655 66.5325 2
-14 3 30 676.276 169.493 2
3 14 30 608.304 197.526 2
-14 2 30 253.606 122.291 2
2 14 30 398.712 178.916 2
-14 1 30 19.3224 112.525 2
1 14 30 2.83021 75.1615 2
-14 0 30 352.21 152.819 2
0 14 30 61.0862 113.562 2
-14 -1 30 -96.714 150.81 2
-1 14 30 186.568 135.625 2
-14 -2 30 362.591 156.328 2
-2 14 30 275.951 146.302 2
-14 -3 30 927.916 230.027 2
-3 14 30 919.275 212.863 2
-14 -4 30 121.739 101.124 2
-4 14 30 216.305 141.324 2
-14 -5 30 104.476 94.4908 2
-5 14 30 194.854 125.24 2
-14 -6 30 113.545 153.551 2
-6 14 30 341.052 128.999 2
-14 -7 30 -40.1955 104.551 2
-7 14 30 172.932 104.897 2
-14 -8 30 11.2639 78.4044 2
-8 14 30 264.349 149.804 2
-14 -9 30 29.179 128.747 2
-9 14 30 13.8143 87.632 2
-10 14 30 131.828 94.3631 2
-11 14 30 468.67 167.825 2
-12 14 30 406.228 167.973 2
-13 14 30 455.439 129.537 2
-14 14 30 132.456 75.4796 2
-15 14 30 163.16 130.494 2
-15 13 30 244.887 170.483 2
-15 12 30 381.002 151.382 2
-15 11 30 154.053 106.534 2
-15 10 30 1439.69 278.755 2
-15 9 30 342.159 141.143 2
-15 8 30 81.1902 97.6193 2
-15 7 30 123.716 140.128 2
-15 6 30 185.395 131.592 2
-15 5 30 250.926 161.399 2
-15 4 30 1260.59 256.846 2
4 15 30 1268.16 222.307 2
-15 3 30 224.288 98.0392 2
3 15 30 145.665 87.2369 2
-15 2 30 270.525 123.643 2
2 15 30 27.2692 62.6855 2
-15 1 30 1308 251.567 2
1 15 30 997.798 235.065 2
-15 0 30 1723.32 276.874 2
0 15 30 1859.44 301.629 2
-15 -1 30 1404.4 260.492 2
-1 15 30 934.043 236.871 2
-15 -2 30 91.1049 101.143 2
-2 15 30 68.6663 129.675 2
-15 -3 30 185.051 115.703 2
-3 15 30 290.745 113.518 2
-15 -4 30 823.193 236.541 2
-4 15 30 1565.6 265.425 2
-15 -5 30 102.143 142.118 2
-5 15 30 551.8 171.758 2
-15 -6 30 -2.61729 81.5998 2
-6 15 30 -131.746 109.032 2
-15 -7 30 -27.1079 99.9767 2
-7 15 30 38.7093 97.1206 2
-15 -8 30 4.78144 86.059 2
-8 15 30 -65.2756 76.1727 2
-9 15 30 220.863 112.755 2
-10 15 30 1683.67 282.5 2
-11 15 30 19.7929 95.0989 2
-12 15 30 351.319 147.881 2
-13 15 30 589.828 170.939 2
-14 15 30 174.627 112.899 2
-15 15 30 3422.3 356.055 2
-15 30 16 120.064 88.0709 2
-16 15 30 21.3304 90.9627 2
-16 14 30 48.3041 104.074 2
-16 13 30 22.7409 82.3602 2
-16 12 30 111.947 127.395 2
-16 11 30 23.7267 130.127 2
-16 10 30 368.665 226.133 2
-16 9 30 67.0098 117.822 2
-16 8 30 -10.9981 125.688 2
-16 7 30 60.9543 125.063 2
-16 6 30 34.6567 72.6031 2
-16 5 30 47.3217 133.236 2
-16 4 30 14.4528 161.587 2
4 16 30 766.419 175.616 2
-16 3 30 4.46635 74.8507 2
3 16 30 -64.5729 72.8701 2
-16 2 30 -40.3307 108.365 2
2 16 30 -31.1547 61.6715 2
-16 1 30 152.039 130.629 2
1 16 30 61.4917 68.6912 2
-16 0 30 -11.5381 101.378 2
0 16 30 -71.0757 65.6329 2
-16 -1 30 17.4619 101.025 2
-1 16 30 210.055 120.98 2
-16 -2 30 -6.779 111.916 2
-2 16 30 145.027 154.438 2
-16 -3 30 -45.174 95.7848 2
-3 16 30 134.149 129.387 2
-16 -4 30 256.799 214.393 2
-4 16 30 834.577 245.254 2
-16 -5 30 -46.2723 88.8765 2
-5 16 30 269.772 150.339 2
-16 -6 30 26.6723 132.853 2
-6 16 30 276.661 133.831 2
-16 -7 30 25.9652 83.8326 2
-7 16 30 104.669 126.582 2
-16 -8 30 -8.6377 62.9226 2
-8 16 30 -61.8739 100.536 2
-9 16 30 176.298 100.63 2
-10 16 30 765.392 185.314 2
-11 16 30 258.258 123.786 2
-12 16 30 -13.7094 76.0635 2
-13 16 30 753.058 186.007 2
-14 16 30 149.309 106.605 2
-16 30 15 33.2387 77.7683 2
-15 16 30 50.3775 120.263 2
-16 30 16 -3.58859 65.3782 2
-16 16 30 17.5549 65.0768 2
-16 30 17 73.5889 96.895 2
-17 16 30 77.4682 147.249 2
-15 30 17 64.0214 99.8543 2
-17 15 30 -6.73891 95.4206 2
-14 30 17 436.199 145.515 2
-17 14 30 81.8833 116.759 2
-13 30 17 341.47 159.331 2
-17 13 30 48.4249 121.972 2
-17 12 30 231.686 214.002 2
-17 11 30 45.6476 107.996 2
-17 10 30 43.9536 124.652 2
-17 9 30 129.808 145.864 2
-17 8 30 140.553 159.516 2
-17 7 30 68.8211 135.281 2
-17 6 30 58.0418 103.996 2
-17 5 30 61.3244 130.78 2
-17 4 30 25.1707 141.296 2
4 17 30 390.133 140.425 2
-17 3 30 66.2975 179.433 2
3 17 30 456.131 133.574 2
-17 2 30 139.96 188.598 2
2 17 30 647.494 191.077 2
-17 1 30 177.839 172.189 2
1 17 30 1228.12 224.77 2
-17 0 30 16.9599 113.402 2
0 17 30 220.907 115.708 2
-17 -1 30 245.242 213.461 2
-1 17 30 665.305 190.228 2
-17 -2 30 268.617 208.244 2
2 30 17 874.024 186.641 2
-2 17 30 772.577 180.36 2
-17 -3 30 148.014 166.134 2
3 30 17 449.064 122.87 2
-3 17 30 566.842 181.841 2
-17 -4 30 -16.891 80.7332 2
-4 17 30 -21.1905 108.967 2
-17 -5 30 78.6045 90.463 2
-5 17 30 39.8718 81.7715 2
-17 -6 30 65.4589 142.055 2
-6 17 30 583.221 159.407 2
-17 -7 30 26.4582 104.692 2
-7 17 30 343.87 109.071 2
-8 17 30 314.35 135.628 2
-9 17 30 879.18 197.93 2
-10 17 30 7.79726 67.4612 2
-11 17 30 517.528 161.123 2
-12 17 30 978.051 202.823 2
-13 17 30 444.15 168.051 2
-14 17 30 542.972 153.728 2
-17 30 15 -48.7271 100.24 2
-15 17 30 -16.1628 77.7452 2
-17 30 16 133.115 102.993 2
-16 17 30 -1.42769 82.8468 2
-17 30 17 63.0431 65.8165 2
-17 17 30 2.35911 61.9656 2
-17 30 18 228.236 95.2032 2
-18 17 30 104.179 130.337 2
-16 30 18 280.574 107.286 2
-18 16 30 99.9701 185.465 2
-15 30 18 250.703 129.437 2
-18 15 30 25.2119 121.044 2
-14 30 18 190.372 127.537 2
-18 14 30 16.093 79.5555 2
-13 30 18 12.5464 70.8157 2
-18 13 30 65.5762 117.247 2
-12 30 18 359.176 153.453 2
-18 12 30 110.362 164.755 2
-11 30 18 421.424 147.062 2
-18 11 30 96.6131 133.648 2
-10 30 18 167.463 114.233 2
-18 10 30 9.54893 123.557 2
-9 30 18 363.748 140.264 2
-18 9 30 21.1178 63.8412 2
-18 8 30 112.255 207.899 2
-18 7 30 49.609 121.641 2
-18 6 30 63.5937 146.582 2
-18 5 30 7.26741 74.6686 2
-18 4 30 121.598 170.355 2
-18 3 30 14.7392 66.1436 2
3 18 30 87.4771 95.1049 2
-18 2 30 156.768 164.278 2
2 18 30 270.172 110.698 2
-18 1 30 49.0557 154.861 2
1 18 30 120.5 85.1887 2
-18 0 30 47.4217 143.594 2
0 30 18 251.722 132.924 2
0 18 30 297.061 141.64 2
-18 -1 30 59.0257 168.177 2
1 30 18 168.646 83.9692 2
-1 18 30 205.591 121.664 2
-18 -2 30 131.5 171.063 2
2 30 18 402.292 134.254 2
-18 -3 30 -48.4071 64.5854 2
3 30 18 67.312 69.6446 2
-3 18 30 -11.3746 99.6536 2
-18 -4 30 65.8849 150.156 2
-4 18 30 353.854 156.665 2
-18 -5 30 31.7198 100.925 2
-5 18 30 1.57813 83.9896 2
-18 -6 30 26.9665 124.812 2
-6 18 30 262.253 116.406 2
-7 18 30 393.449 159.542 2
-8 18 30 1770.84 308.851 2
-9 18 30 280.729 140.09 2
-10 18 30 -30.7931 79.4203 2
-11 18 30 581.507 167.443 2
-12 18 30 789.949 189.219 2
-13 18 30 178.62 108.071 2
-18 30 14 57.9793 74.2801 2
-14 18 30 -6.54335 63.0797 2
-18 30 15 129.506 112.884 2
-15 18 30 48.504 148.022 2
-18 30 16 304.82 155.834 2
-16 18 30 144.07 162.65 2
-17 18 30 267.721 272.501 2
-18 30 17 91.6804 82.5988 2
-16 30 19 425.347 149.53 2
-19 16 30 180.343 152.713 2
-15 30 19 371.287 142.33 2
-19 15 30 16.9519 72.0583 2
-14 30 19 495.97 175.41 2
-19 14 30 135.93 141.962 2
-13 30 19 560.964 158.099 2
-19 13 30 120.854 149.03 2
-12 30 19 126.62 88.9105 2
-19 12 30 25.112 94.491 2
-11 30 19 709.815 166.88 2
-19 11 30 132.302 171.127 2
-10 30 19 912.357 199.442 2
-19 10 30 121.49 151.338 2
-9 30 19 379.548 139.16 2
-19 9 30 44.3867 99.7229 2
-8 30 19 166.677 115.117 2
-19 8 30 31.0677 94.5039 2
-7 30 19 1051.96 207.708 2
-19 7 30 178.678 199.218 2
-6 30 19 49.5328 97.3146 2
-19 6 30 -78.9388 115.479 2
-5 30 19 57.2442 104.42 2
-19 5 30 32.4318 63.085 2
-4 30 19 -8.17263 107.293 2
-19 4 30 7.49313 105.062 2
-3 30 19 146.84 110.622 2
-19 3 30 11.7582 102.315 2
3 19 30 15.5487 78.3335 2
-19 2 30 133.641 178.572 2
-2 30 19 666.663 155.305 2
2 19 30 183.5 146.701 2
-19 1 30 61.8248 113.815 2
-1 30 19 191.355 77.3186 2
-19 0 30 30.3719 83.7254 2
0 30 19 91.5183 91.5928 2
0 19 30 208.746 96.2644 2
-19 -1 30 19.9989 132.124 2
1 30 19 354.003 137.346 2
-1 19 30 298.78 94.6395 2
-19 -2 30 168.173 194.925 2
2 30 19 596.265 158.198 2
-2 19 30 653.475 193.382 2
-19 -3 30 31.7361 132.847 2
-3 19 30 103.828 124.292 2
-19 -4 30 26.0948 105.431 2
-4 19 30 -102.027 133.333 2
-19 -5 30 5.54764 72.7371 2
-5 19 30 47.5476 122.567 2
-6 19 30 66.6151 118.018 2
-7 19 30 1211.65 230.917 2
-8 19 30 -120.215 108.74 2
-9 19 30 383.071 147.654 2
-10 19 30 737.104 173.964 2
-11 19 30 764.291 193.134 2
-12 19 30 181.583 102.628 2
-19 30 13 387.39 157.765 2
-13 19 30 442.725 135.571 2
-19 30 14 281.016 113.223 2
-14 19 30 326.454 164.992 2
-19 30 15 143.937 91.9234 2
-15 19 30 65.6713 104.565 2
-19 30 16 560.199 159.997 2
-16 19 30 85.8372 117.62 2
-15 30 20 105.464 85.8299 2
-20 15 30 -7.78215 74.8556 2
-14 30 20 393.6 158.976 2
-20 14 30 111.34 114.543 2
-13 30 20 414.717 144.358 2
-20 13 30 146.97 131.094 2
-12 30 20 88.8001 78.545 2
-20 12 30 107.622 122.951 2
-11 30 20 191.037 113.209 2
-20 11 30 64.0008 92.243 2
-10 30 20 654.976 162.788 2
-20 10 30 140.443 156.777 2
-9 30 20 291.522 111.485 2
-20 9 30 12.9173 71.4792 2
-8 30 20 526.779 150.57 2
-20 8 30 74.8207 103.348 2
-7 30 20 200.669 136.128 2
-20 7 30 41.1302 127.365 2
-6 30 20 1171.13 225.794 2
-20 6 30 508.169 241.812 2
-5 30 20 238.071 125.29 2
-20 5 30 176.771 136.493 2
-4 30 20 278.92 157.074 2
-20 4 30 76.9107 116.877 2
-3 30 20 273.488 128.502 2
-20 3 30 125.798 139.91 2
-2 30 20 456.51 141.257 2
-20 2 30 57.3663 146.14 2
2 20 30 89.7313 144.409 2
-1 30 20 62.4965 71.5905 2
-20 1 30 14.2299 109.844 2
1 20 30 -28.2575 67.9521 2
0 30 20 626.482 153.77 2
-20 0 30 135.651 177.343 2
0 20 30 154.91 162.502 2
1 30 20 187.685 110.707 2
-20 -1 30 0.30902 61.596 2
-1 20 30 59.1161 110.625 2
2 30 20 219.256 97.6161 2
-20 -2 30 138.096 139.863 2
-20 -3 30 77.644 133.804 2
-3 20 30 107.094 101.185 2
-20 -4 30 86.1249 108.443 2
-4 20 30 282.126 142.667 2
-5 20 30 350.296 159.567 2
-6 20 30 1130.91 219.165 2
-7 20 30 48.0686 79.1148 2
-8 20 30 586.581 163.64 2
-9 20 30 242.74 107.453 2
-10 20 30 696.562 159.015 2
-11 20 30 323.031 230.497 2
-20 30 12 65.6433 85.794 2
-12 20 30 73.5118 85.815 2
-20 30 13 465.742 152.528 2
-13 20 30 534.85 164.289 2
-20 30 14 392.787 129.192 2
-14 20 30 103.095 141.016 2
-20 30 15 -25.7327 60.5208 2
-15 20 30 -4.95555 97.9947 2
-13 30 21 173.235 86.4741 2
-21 13 30 83.4622 96.5263 2
-12 30 21 524.568 153.134 2
-21 12 30 99.6458 109.737 2
-11 30 21 495.976 160.28 2
-21 11 30 125.757 131.267 2
-10 30 21 -13.4214 73.0908 2
-21 10 30 -8.60315 60.0587 2
-9 30 21 728.272 183.906 2
-21 9 30 227.649 164.543 2
-8 30 21 197.494 128.691 2
-21 8 30 124.651 131.221 2
-7 30 21 35.3862 67.1916 2
-21 7 30 10.6069 78.3921 2
-6 30 21 399.125 139.501 2
-21 6 30 7.81657 113.02 2
-5 30 21 132.364 70.2905 2
-21 5 30 50.4961 63.2012 2
-4 30 21 193.78 113.717 2
-21 4 30 70.7082 110.393 2
-3 30 21 220.254 107.88 2
-21 3 30 38.816 104.371 2
-2 30 21 289.627 128.485 2
-21 2 30 99.4644 146.871 2
2 21 30 88.1032 112.576 2
-1 30 21 242.082 109.201 2
-21 1 30 58.3102 119.213 2
1 21 30 9.57802 69.9463 2
0 30 21 942.528 179.243 2
0 21 30 160.154 181.21 2
1 30 21 87.6596 65.5331 2
-1 21 30 60.9422 118.227 2
2 30 21 111.555 72.0052 2
-2 21 30 75.464 165.154 2
-3 21 30 225.017 99.958 2
-4 21 30 -11.5011 89.2259 2
-5 21 30 187.678 95.5679 2
-6 21 30 219.561 115.063 2
-7 21 30 126.578 106.864 2
-8 21 30 151.494 97.3507 2
-9 21 30 604.636 179.484 2
-21 30 10 -44.6431 62.0965 2
-10 21 30 -4.46137 65.3829 2
-21 30 11 481.687 152.747 2
-11 21 30 241.354 109.033 2
-21 30 12 384.208 125.364 2
-12 21 30 505.857 152.893 2
-21 30 13 178.351 81.7128 2
-13 21 30 478.896 148.642 2
-12 30 22 -35.0861 64.4546 2
-22 12 30 4.69973 40.2814 2
-11 30 22 562.009 158.438 2
-22 11 30 61.7931 99.6314 2
-10 30 22 371.851 137.47 2
-22 10 30 141.617 101.861 2
-9 30 22 18.6612 82.7709 2
-22 9 30 0.46852 51.42 2
-8 30 22 314.413 150.372 2
-22 8 30 46.0519 115.267 2
-7 30 22 745.457 178.529 2
-22 7 30 74.4673 122.69 2
-6 30 22 141.647 107.303 2
-5 30 22 -40.9569 67.7048 2
-4 30 22 490.626 173.204 2
-3 30 22 176.435 99.1448 2
-2 30 22 345.092 126.819 2
-1 30 22 69.4217 90.9913 2
1 22 30 21.4057 98.9103 2
0 30 22 287.647 117.483 2
0 22 30 19.1377 72.1501 2
1 30 22 228.775 107.045 2
-1 22 30 28.9956 72.8516 2
-2 22 30 214.568 179.917 2
-3 22 30 36.7854 127.895 2
-4 22 30 271.132 185.951 2
-5 22 30 -18.7372 64.5109 2
-6 22 30 25.6206 70.8878 2
-7 22 30 591.078 193.279 2
-8 22 30 223.523 127.303 2
-22 30 9 172.53 103.212 2
-9 22 30 28.1007 82.5342 2
-22 30 10 286.016 113.575 2
-10 22 30 383.518 139.208 2
-22 30 11 364.345 121.18 2
-11 22 30 512.771 143.534 2
-22 30 12 59.3219 57.115 2
-12 22 30 38.8364 73.6486 2
-10 30 23 137.223 111.004 2
-9 30 23 -1.07483 57.4409 2
-8 30 23 21.8507 64.4698 2
-7 30 23 252.814 131.883 2
-6 30 23 14.1724 77.9751 2
-5 30 23 267 127.99 2
-4 30 23 1098.24 234.801 2
-3 30 23 -38.0692 63.5059 2
-2 30 23 1142.64 189.83 2
-1 30 23 125.149 94.0855 2
1 23 30 56.1666 72.6881 2
0 30 23 507.02 136.997 2
0 23 30 180.637 169.644 2
1 30 23 43.7096 62.1194 2
-1 23 30 -11.5185 74.5974 2
-2 23 30 305.557 176.88 2
-3 23 30 -4.3223 54.7218 2
-4 23 30 532.961 233.603 2
-5 23 30 359.295 167.643 2
-6 23 30 34.6532 85.0908 2
-7 23 30 136.91 100.461 2
-8 23 30 132.508 123.558 2
-9 23 30 -19.2765 57.9282 2
-10 23 30 210.663 108.613 2
-7 30 24 134.898 110.133 2
-6 30 24 137.525 100.075 2
-5 30 24 745.27 174.695 2
-4 30 24 -5.75546 57.9773 2
-3 30 24 -6.63145 70.9152 2
-2 30 24 -419.36 104.425 2
-1 30 24 202.072 97.6959 2
0 30 24 93.995 66.6214 2
0 24 30 171.842 115.53 2
-1 24 30 139.399 114.652 2
-2 24 30 32.0367 82.7982 2
-3 24 30 -28.5302 73.1704 2
-4 24 30 28.984 64.5499 2
-5 24 30 320.469 180.146 2
-6 24 30 3.78414 54.4527 2
-7 24 30 93.5249 87.677 2
-2 30 25 390.713 128.344 2
-1 30 25 2.3887 63.7253 2
-1 25 30 19.5128 59.4319 2
-2 25 30 115.041 124.335 2
0 0 31 77.567 117.437 2
-1 0 31 2880.02 378.112 2
0 1 31 3034.15 387.242 2
1 0 31 2972.72 388.556 2
0 -1 31 2565.67 349.399 2
1 -1 31 199.112 145.875 2
-1 -1 31 72.509 114.845 2
1 1 31 -41.7815 98.2575 2
-1 1 31 -3.62864 120.565 2
2 -1 31 1836.29 302.608 2
-1 -2 31 1944.07 311.846 2
1 2 31 1705.08 271.403 2
-2 1 31 1935.24 317.029 2
0 -2 31 1451 260.246 2
2 0 31 1526.68 284.354 2
-2 0 31 1397.82 278.879 2
0 2 31 1452.58 284.407 2
1 -2 31 1698.14 294.769 2
2 1 31 2010.35 338.307 2
-2 -1 31 2252.96 354.656 2
-1 2 31 2050.67 312.873 2
2 -2 31 874.111 208.915 2
-2 -2 31 621.559 214.959 2
2 2 31 634.527 185.208 2
-2 2 31 856.461 223.648 2
3 -2 31 1865.13 290.639 2
-2 -3 31 2487.25 360.178 2
2 3 31 2100.2 322.201 2
-3 2 31 1982.01 321.499 2
3 -1 31 85.2622 81.1122 2
-1 -3 31 349.667 183.436 2
-3 1 31 380.255 194.379 2
1 3 31 361.19 157.96 2
0 -3 31 441.747 170.707 2
3 0 31 617.246 228.386 2
-3 0 31 492.58 167.841 2
0 3 31 689.087 225.614 2
1 -3 31 141.331 99.1657 2
3 1 31 278.238 150.218 2
-3 -1 31 166.137 155.927 2
-1 3 31 278.15 102.786 2
2 -3 31 2190.19 333.547 2
-3 -2 31 1926.68 315.696 2
3 2 31 2114.07 310.047 2
-2 3 31 2217.58 341.74 2
3 -3 31 2672.52 362.236 2
-3 -3 31 2788.25 377.147 2
3 3 31 2952.43 363.42 2
-3 3 31 2806.3 377.095 2
4 -3 31 511.627 203.436 2
-3 -4 31 597.398 203.021 2
3 4 31 357.116 169.787 2
-4 3 31 251.966 149.159 2
4 -2 31 3068.62 378.775 2
-2 -4 31 3206.4 406.303 2
2 4 31 3390.02 402.009 2
-4 2 31 3099.93 389.67 2
1 4 31 2534.2 353.451 2
4 -1 31 2021.63 310.123 2
-1 -4 31 2132.46 330.911 2
-4 1 31 2606.77 357.397 2
0 -4 31 970.109 226.232 2
4 0 31 691.04 183.374 2
-4 0 31 746.767 207.082 2
0 4 31 1024.45 242.586 2
-1 4 31 2646.69 363.346 2
1 -4 31 2013.21 320.359 2
4 1 31 2322.35 327.83 2
-4 -1 31 2612.84 361.104 2
2 -4 31 3267.29 400.765 2
4 2 31 2872.4 362.591 2
-4 -2 31 3263.06 407.641 2
-2 4 31 3204.93 397.301 2
3 -4 31 392.376 160.142 2
-4 -3 31 670.81 206.96 2
4 3 31 479.067 147.956 2
-3 4 31 286.363 155.716 2
4 -4 31 382.464 183.853 2
-4 -4 31 451.025 191.807 2
4 4 31 641.372 180.3 2
-4 4 31 545.945 174.028 2
5 -4 31 110.842 140.97 2
-4 -5 31 -93.3012 137.659 2
4 5 31 14.0992 84.966 2
-5 4 31 44.9388 118.11 2
5 -3 31 1315.52 254.455 2
-3 -5 31 1622.05 296.259 2
3 5 31 1762.79 290.092 2
-5 3 31 1919.53 314.769 2
5 -2 31 95.1287 83.1916 2
-2 -5 31 273.25 131.861 2
2 5 31 315.134 143.905 2
-5 2 31 439.646 174.859 2
-1 -5 31 1027.96 252.476 2
5 -1 31 886.291 216.237 2
-5 1 31 906.565 229.469 2
1 5 31 843.706 193.215 2
0 -5 31 351.049 164.5 2
5 0 31 433.951 157.994 2
-5 0 31 547.523 186.891 2
0 5 31 532.547 166.644 2
1 -5 31 975.341 227 2
5 1 31 507.753 164.425 2
-5 -1 31 685.73 204.481 2
-1 5 31 616.305 182.208 2
2 -5 31 394.271 178.993 2
5 2 31 329.342 134.416 2
-5 -2 31 392.405 169.301 2
-2 5 31 427.678 182.713 2
3 -5 31 1620.68 284.559 2
-5 -3 31 1468.17 284.543 2
5 3 31 1860.65 280.808 2
-3 5 31 1738.34 303.462 2
4 -5 31 144.407 86.227 2
-5 -4 31 -67.5291 121.944 2
5 4 31 -78.5346 117.1 2
-4 5 31 264.561 169.167 2
5 -5 31 2693.4 355.887 2
-5 -5 31 3269.49 401.955 2
5 5 31 2770.76 345.119 2
-5 5 31 2795.09 375.585 2
6 -5 31 56.4016 74.2374 2
-5 -6 31 210.122 150.773 2
5 6 31 146.802 122.726 2
-6 5 31 342.548 166.457 2
6 -4 31 635.768 181.116 2
-4 -6 31 746.883 219.196 2
4 6 31 839.459 218.173 2
-6 4 31 492.917 181.407 2
6 -3 31 236.889 133.007 2
-3 -6 31 300.031 159.405 2
3 6 31 228.802 122.839 2
-6 3 31 210.939 121.821 2
6 -2 31 483.799 175.437 2
-2 -6 31 838.491 212.407 2
-6 2 31 592.443 191.159 2
2 6 31 650.408 184.252 2
-1 -6 31 620.984 197.734 2
6 -1 31 679.48 199.176 2
-6 1 31 524.955 206.591 2
1 6 31 768.239 185.051 2
0 -6 31 3920.18 443.261 2
6 0 31 4044.67 412.99 2
-6 0 31 4858.3 502.385 2
0 6 31 4490.28 463.09 2
1 -6 31 719.706 208.359 2
6 1 31 489.767 155.168 2
-6 -1 31 698.863 179.204 2
-1 6 31 781.798 221.122 2
2 -6 31 833.838 206.819 2
6 2 31 771.363 216.634 2
-6 -2 31 760.664 214.086 2
-2 6 31 800.467 234.696 2
3 -6 31 194.021 122.815 2
6 3 31 256.341 77.7546 2
-6 -3 31 127.794 96.4653 2
-3 6 31 325.63 145.674 2
4 -6 31 362.261 137.851 2
-6 -4 31 629.1 218.899 2
6 4 31 391.46 140.911 2
-4 6 31 589.779 191.524 2
5 -6 31 431.149 170.267 2
-6 -5 31 258.471 126.411 2
6 5 31 146.078 100.58 2
-5 6 31 254.715 119.084 2
-6 -6 31 -41.5021 109.284 2
6 6 31 406.024 175.014 2
-6 6 31 155.597 141.382 2
-6 -7 31 301.398 185.835 2
6 7 31 117.115 96.5299 2
-7 6 31 422.531 176.233 2
-7 5 31 2449.74 367.948 2
-5 -7 31 2105.43 327.553 2
5 7 31 1925.23 276.039 2
7 -4 31 234.572 109.261 2
-4 -7 31 180.237 116.595 2
4 7 31 221.933 94.6558 2
-7 4 31 510.831 174.038 2
7 -3 31 1661.54 269.909 2
-3 -7 31 1739.54 284.882 2
3 7 31 1602.1 289.811 2
-7 3 31 1805.5 296.489 2
7 -2 31 475.229 161.239 2
-2 -7 31 554.108 180.532 2
-7 2 31 509.802 144.188 2
2 7 31 790.373 210.559 2
-1 -7 31 11.5267 106.131 2
7 -1 31 180.787 155.091 2
-7 1 31 115.449 112.35 2
1 7 31 11.8658 107.155 2
0 -7 31 277.767 145.634 2
7 0 31 300.079 134.364 2
-7 0 31 25.8285 84.7843 2
0 7 31 108.535 87.8804 2
1 -7 31 315.101 186.147 2
7 1 31 134.189 89.9277 2
-7 -1 31 43.5148 96.4126 2
-1 7 31 149.286 125.293 2
2 -7 31 635.915 186.98 2
7 2 31 375.682 123.725 2
-7 -2 31 553.944 171.823 2
-2 7 31 400.815 148.492 2
3 -7 31 1846.51 280.893 2
7 3 31 1731.96 272.245 2
-7 -3 31 1653.1 289.703 2
-3 7 31 2028.9 326.675 2
4 -7 31 558.046 177.68 2
7 4 31 196.159 146.815 2
-7 -4 31 264.403 137.59 2
-4 7 31 618.088 203.501 2
-7 -5 31 1845.07 295.437 2
-5 7 31 2080.28 316.075 2
-7 -6 31 93.5419 128.124 2
-6 7 31 237.463 154.759 2
-7 -7 31 1567.17 276.962 2
-7 7 31 1678.91 305.321 2
-7 -8 31 601.223 184.238 2
-8 7 31 623.769 167.065 2
-6 -8 31 68.1157 118.055 2
6 8 31 170.25 88.7514 2
-5 -8 31 -140.133 121.181 2
5 8 31 158.581 116.085 2
-8 5 31 79.8573 103.401 2
-4 -8 31 369.801 182.469 2
4 8 31 6.10547 71.0456 2
-8 4 31 257.506 149.782 2
8 -3 31 361.298 149.762 2
-3 -8 31 66.9633 76.155 2
3 8 31 291.855 130.931 2
-8 3 31 206.047 143.05 2
8 -2 31 1020.48 181.411 2
-2 -8 31 387.541 143.476 2
-8 2 31 617.199 208.784 2
2 8 31 594.242 183.938 2
-1 -8 31 280.068 133.315 2
8 -1 31 225.278 130.297 2
-8 1 31 207.824 125.1 2
1 8 31 223.786 111.413 2
0 -8 31 216.465 144.061 2
8 0 31 295.66 122.9 2
-8 0 31 200.938 83.4517 2
0 8 31 256.546 114.914 2
1 -8 31 190.776 142.873 2
-8 -1 31 123.053 142.8 2
-1 8 31 250.786 149.404 2
2 -8 31 670.707 194.378 2
-8 -2 31 768.301 207.427 2
-2 8 31 686.272 200.141 2
-8 -3 31 144.894 109.992 2
-3 8 31 415.771 142.028 2
-8 -4 31 476.093 176.64 2
-4 8 31 240.581 143.728 2
-8 -5 31 2.86532 107.441 2
-5 8 31 175.965 121.239 2
-8 -6 31 408.291 184.332 2
-6 8 31 19.4914 109.171 2
-8 -7 31 786.184 220.893 2
-7 8 31 569.927 186.591 2
-8 -8 31 830.864 200.862 2
-8 8 31 1235.68 254.745 2
-8 -9 31 114.362 92.4671 2
-9 8 31 13.8373 124.34 2
-7 -9 31 2296.53 344.647 2
-9 7 31 1939.44 300.318 2
-6 -9 31 560.633 201.896 2
-9 6 31 928.965 231.814 2
-5 -9 31 395.657 152.556 2
5 9 31 387.067 153.073 2
-9 5 31 399.197 155.21 2
-4 -9 31 940.795 223.977 2
4 9 31 887.227 209.126 2
-9 4 31 1109.69 248.734 2
-3 -9 31 1402.11 265.235 2
-9 3 31 1322.86 275.4 2
3 9 31 1456.33 258.064 2
-2 -9 31 32.1378 79.0137 2
-9 2 31 50.1761 119.52 2
2 9 31 322.32 138.472 2
-1 -9 31 257.393 143.401 2
-9 1 31 292.602 163.671 2
1 9 31 92.6579 127.915 2
0 -9 31 1467.4 272.746 2
-9 0 31 1606.6 298.176 2
0 9 31 1476.05 276.785 2
-9 -1 31 19.1097 96.4488 2
-1 9 31 273.831 154.995 2
-9 -2 31 172.386 124.458 2
-2 9 31 175.918 102.838 2
-9 -3 31 1456.78 267.657 2
-3 9 31 1317.3 251.692 2
-9 -4 31 1343.45 267.024 2
-4 9 31 1185.63 248.931 2
-9 -5 31 407.947 124.977 2
-5 9 31 544.885 148.192 2
-9 -6 31 896.401 207.883 2
-6 9 31 850.387 209.326 2
-9 -7 31 2033.3 304.258 2
-7 9 31 2057.05 324.759 2
-9 -8 31 221.834 102.363 2
-8 9 31 162.687 103.189 2
-9 -9 31 205.37 137.079 2
-9 9 31 229.938 134.437 2
-9 -10 31 329.284 138.176 2
-10 9 31 913.912 211.252 2
-8 -10 31 885.836 217.546 2
-10 8 31 1236.72 249.07 2
-7 -10 31 318.982 157.486 2
-10 7 31 256.124 144.092 2
-6 -10 31 586.563 192.698 2
-10 6 31 438.728 148.096 2
-5 -10 31 154.582 110.355 2
5 10 31 146.486 60.6037 2
-10 5 31 233.224 112.457 2
-4 -10 31 155.634 132.641 2
4 10 31 234.526 134.942 2
-10 4 31 265.381 150.972 2
-3 -10 31 724.006 202.075 2
-10 3 31 444.296 171.901 2
3 10 31 954.342 210.534 2
-10 2 31 315.892 151.949 2
2 10 31 234.648 86.5289 2
-10 1 31 43.3664 92.684 2
1 10 31 31.3934 97.8742 2
-10 0 31 254.333 108.358 2
0 10 31 398.964 174.383 2
-10 -1 31 307.488 166.036 2
-1 10 31 43.3232 101.673 2
-10 -2 31 137.678 120.655 2
-2 10 31 280.282 132.519 2
-10 -3 31 907.229 209.085 2
-3 10 31 768.131 196.266 2
-10 -4 31 721.719 211.139 2
-4 10 31 49.6385 93.0877 2
-10 -5 31 322.971 123.403 2
-5 10 31 364.834 158.667 2
-10 -6 31 290.252 128.291 2
-6 10 31 370.888 124.869 2
-10 -7 31 361.774 180.758 2
-7 10 31 339.952 157.172 2
-10 -8 31 1096.99 222.365 2
-8 10 31 1076.07 256.629 2
-10 -9 31 458.545 159.97 2
-9 10 31 545.28 178.61 2
-10 10 31 401.238 156.155 2
-11 10 31 194.375 129.009 2
-11 9 31 513.719 173.221 2
-11 8 31 460.237 162.662 2
-11 7 31 276.591 125.265 2
-11 6 31 220.508 99.6458 2
-11 5 31 2269.35 350.157 2
5 11 31 1574 244.218 2
-11 4 31 171.203 123.552 2
4 11 31 39.7794 62.5966 2
-11 3 31 -143.035 122.645 2
3 11 31 92.5286 101.22 2
-11 2 31 1263.08 258.325 2
2 11 31 958.029 233.249 2
-11 1 31 354.822 164.959 2
1 11 31 405.315 160.66 2
-11 0 31 1197.08 250.474 2
0 11 31 1427.19 276.375 2
-11 -1 31 978.041 242.438 2
-1 11 31 516.675 165.561 2
-11 -2 31 1417.16 267.574 2
-2 11 31 1085.12 226.876 2
-11 -3 31 68.1462 86.519 2
-3 11 31 81.396 117.229 2
-11 -4 31 157.575 123.582 2
-4 11 31 126.36 77.6318 2
-11 -5 31 2049.87 322.924 2
-5 11 31 2004.17 314.636 2
-11 -6 31 396.616 149.659 2
-6 11 31 435.237 159.987 2
-11 -7 31 147.963 136.432 2
-7 11 31 63.3808 85.0578 2
-11 -8 31 647.093 183.245 2
-8 11 31 784.206 198.386 2
-11 -9 31 307.089 155.074 2
-9 11 31 396.237 165.117 2
-10 11 31 165.478 113.385 2
-11 11 31 71.1804 126.219 2
-12 11 31 365.276 151.544 2
-12 10 31 388 151.06 2
-12 9 31 336.265 130.062 2
-12 8 31 134.377 81.7286 2
-12 7 31 98.8071 99.1499 2
-12 6 31 -34.2519 73.4137 2
5 12 31 722.099 141.429 2
-12 5 31 680.706 182.334 2
-12 4 31 -36.4823 91.5225 2
4 12 31 -10.0812 102.749 2
-12 3 31 27.7473 95.7749 2
3 12 31 17.5858 73.6505 2
-12 2 31 443.943 169.562 2
2 12 31 300.505 126.123 2
-12 1 31 853.342 224.992 2
1 12 31 753.61 191.056 2
-12 0 31 373.275 166.075 2
0 12 31 83.5841 122.702 2
-12 -1 31 851.456 222.242 2
-1 12 31 530.767 188.04 2
-12 -2 31 445.192 158.283 2
-2 12 31 319.063 137.057 2
-12 -3 31 51.3708 101.509 2
-3 12 31 203.387 133.559 2
-12 -4 31 254.402 146.011 2
-4 12 31 -94.6407 100.662 2
-12 -5 31 1071.91 240.087 2
-5 12 31 999.423 227.705 2
-12 -6 31 11.8845 84.4929 2
-6 12 31 225.786 147.234 2
-12 -7 31 35.9972 127.342 2
-7 12 31 44.7463 84.9272 2
-12 -8 31 28.7627 91.0157 2
-8 12 31 160.006 118.615 2
-12 -9 31 -4.23781 88.3552 2
-9 12 31 129.54 138.202 2
-10 12 31 589.771 176.433 2
-11 12 31 137.499 133.448 2
-12 12 31 140.312 114.882 2
-13 12 31 354.843 138.451 2
-13 11 31 233.004 137.14 2
-13 10 31 -61.1018 95.6993 2
-13 9 31 291.794 141.793 2
-13 8 31 135.27 129.594 2
-13 7 31 532.923 166.833 2
-13 6 31 55.5122 106.249 2
-13 5 31 187.917 142.844 2
-13 4 31 159.828 133.275 2
4 13 31 186.761 121.719 2
-13 3 31 1176.59 234.334 2
3 13 31 1210.51 235.453 2
-13 2 31 916.299 210.48 2
2 13 31 616.881 176.768 2
-13 1 31 306.567 147.181 2
1 13 31 406.082 143.811 2
-13 0 31 393.995 154.601 2
0 13 31 375.859 110.912 2
-13 -1 31 244.709 94.6493 2
-1 13 31 154.622 121.531 2
-13 -2 31 1047.21 233.677 2
-2 13 31 488.144 181.667 2
-13 -3 31 1016.27 264.716 2
-3 13 31 1333.05 254.173 2
-13 -4 31 -23.2998 98.9565 2
-4 13 31 265.576 130.061 2
-13 -5 31 371.41 207.895 2
-5 13 31 -131.616 118.783 2
-13 -6 31 23.1299 97.5277 2
-6 13 31 354.956 160.919 2
-13 -7 31 14.4708 131.053 2
-7 13 31 435.987 153.537 2
-13 -8 31 39.7642 100.346 2
-8 13 31 95.8384 112.989 2
-9 13 31 221.492 118.485 2
-10 13 31 -7.6516 93.2255 2
-11 13 31 281.882 181.232 2
-12 13 31 202.532 86.2503 2
-13 13 31 -59.3135 94.7752 2
-14 13 31 554.239 192.519 2
-14 12 31 241.751 126.301 2
-14 11 31 682.564 205.343 2
-14 10 31 331.181 142.424 2
-14 9 31 248.761 107.884 2
-14 8 31 -39.8521 120.869 2
-14 7 31 156.084 117.749 2
-14 6 31 88.1097 113.644 2
-14 5 31 304.582 149.576 2
-14 4 31 56.1244 87.3753 2
4 14 31 246.404 129.129 2
-14 3 31 1456.12 262.158 2
3 14 31 1245.72 238.304 2
-14 2 31 781.342 222.676 2
2 14 31 477.879 175.494 2
-14 1 31 605.91 198.198 2
1 14 31 546.865 168.045 2
-14 0 31 911.699 213.086 2
0 14 31 506.534 211.058 2
-14 -1 31 1123.26 275.523 2
-1 14 31 371.958 179.39 2
-14 -2 31 182.044 159.249 2
-2 14 31 482.436 158.429 2
-14 -3 31 447.946 265.807 2
-3 14 31 1564.41 281.56 2
-14 -4 31 83.2236 175.904 2
-4 14 31 366.51 156.53 2
-14 -5 31 23.8494 143.607 2
-5 14 31 461.086 174.244 2
-14 -6 31 85.9782 147.942 2
-6 14 31 175.376 112.852 2
-14 -7 31 66.7917 133.106 2
-7 14 31 273.297 119.593 2
-14 -8 31 5.87179 72.1894 2
-8 14 31 -40.0899 114.858 2
-9 14 31 682.782 185.09 2
-10 14 31 290.352 139.12 2
-11 14 31 214.873 133.384 2
-12 14 31 139.802 135.978 2
-13 14 31 230.137 136.212 2
-14 14 31 119.377 111.794 2
-15 14 31 0.52821 91.9215 2
-15 13 31 54.1737 140.755 2
-15 12 31 27.4938 100.695 2
-15 11 31 84.5378 130.668 2
-15 10 31 132.355 137.977 2
-15 9 31 50.076 163.534 2
-15 8 31 15.7153 107.426 2
-15 7 31 310.777 138.247 2
-15 6 31 158.824 149.464 2
-15 5 31 64.4337 140.738 2
-15 4 31 77.7853 141.41 2
4 15 31 280.507 104.812 2
-15 3 31 55.0349 89.4215 2
3 15 31 -6.1252 79.04 2
-15 2 31 90.8035 115.636 2
2 15 31 158.092 116.692 2
-15 1 31 34.4007 155.246 2
1 15 31 458.09 158.158 2
-15 0 31 41.9071 153.638 2
0 15 31 312.373 167.91 2
-15 -1 31 84.304 175.313 2
-1 15 31 252.553 144.353 2
-15 -2 31 124.817 147.187 2
-2 15 31 127.687 121.309 2
-15 -3 31 25.5871 95.8775 2
-3 15 31 103.05 119.384 2
-15 -4 31 85.1736 136.15 2
-4 15 31 168.619 120.217 2
-15 -5 31 56.4761 179.076 2
-5 15 31 320.986 124.246 2
-15 -6 31 46.229 144.72 2
-6 15 31 362.598 136.59 2
-15 -7 31 55.5078 161.829 2
-7 15 31 610.03 173.316 2
-8 15 31 39.7039 77.5063 2
-9 15 31 497.973 169.815 2
-10 15 31 186.868 93.2677 2
-11 15 31 192.059 120.342 2
-12 15 31 163.219 111.25 2
-13 15 31 246.246 121.142 2
-14 15 31 -24.4289 85.6323 2
-15 31 15 228.996 114.951 2
-15 15 31 14.6937 62.7689 2
-15 31 16 -11.719 64.9134 2
-16 15 31 -5.72247 66.511 2
-14 31 16 285.429 147.87 2
-16 14 31 -21.115 94.4945 2
-16 13 31 94.8457 159.962 2
-16 12 31 39.3184 95.8973 2
-16 11 31 220.367 152.41 2
-16 10 31 58.2164 169.709 2
-16 9 31 37.6601 119.82 2
-16 8 31 61.1163 106.033 2
-16 7 31 103.198 152.134 2
-16 6 31 105.118 119.226 2
-16 5 31 103.514 127.152 2
-16 4 31 171.23 206.57 2
4 16 31 57.832 129.702 2
-16 3 31 7.85668 91.3055 2
3 16 31 142.058 103.465 2
-16 2 31 69.5941 147.216 2
2 16 31 478.813 164.023 2
-16 1 31 425.445 227.444 2
1 16 31 492.407 156.503 2
-16 0 31 213.899 211.885 2
0 16 31 857.158 192.794 2
-16 -1 31 131.68 162.912 2
-1 16 31 742.679 214.484 2
-16 -2 31 120.294 175.065 2
-2 16 31 264.591 143.995 2
-16 -3 31 49.2705 145.148 2
3 31 16 -38.9921 62.4171 2
-3 16 31 109.236 111.834 2
-16 -4 31 104.118 152.233 2
-4 16 31 407.303 149.55 2
-16 -5 31 38.9551 126.157 2
-5 16 31 415.296 141.876 2
-16 -6 31 1.06794 101.179 2
-6 16 31 -80.5896 79.5629 2
-16 -7 31 106.394 129.56 2
-7 16 31 534.211 168.325 2
-8 16 31 274.582 248.871 2
-9 16 31 95.8603 112.349 2
-10 16 31 406.972 129.622 2
-11 16 31 679.933 174.899 2
-12 16 31 232.745 131.528 2
-13 16 31 585.732 181.294 2
-14 16 31 204.108 107.266 2
-16 31 15 -24.9293 96.5219 2
-15 16 31 20.8632 88.0848 2
-16 31 16 -75.022 100.94 2
-16 16 31 34.3776 126.501 2
-16 31 17 31.5924 66.1646 2
-17 16 31 -14.0849 70.7886 2
-15 31 17 196.959 121.755 2
-17 15 31 1.18275 58.785 2
-14 31 17 495.965 155.876 2
-17 14 31 70.3549 119.79 2
-13 31 17 -28.9043 93.9602 2
-17 13 31 10.0381 96.6177 2
-12 31 17 228.64 114.016 2
-17 12 31 54.0944 119.323 2
-11 31 17 461.673 126.879 2
-17 11 31 67.5875 152.521 2
-17 10 31 -14.5557 90.5219 2
-17 9 31 25.3926 118.975 2
-17 8 31 54.0643 116.881 2
-17 7 31 60.9447 157.403 2
-17 6 31 -3.02366 73.3779 2
-17 5 31 55.5026 150.362 2
-17 4 31 2.85879 94.208 2
-17 3 31 51.3075 146.362 2
3 17 31 68.8593 107.003 2
-17 2 31 143.147 165.287 2
2 17 31 138.773 96.5794 2
-17 1 31 33.8333 85.067 2
1 17 31 -3.01997 67.9609 2
-17 0 31 51.6897 90.5738 2
0 17 31 -180.169 113.453 2
-17 -1 31 -7.03271 81.4057 2
1 31 17 114.686 117.592 2
-1 17 31 96.0229 102.073 2
-17 -2 31 -1.82303 114.381 2
2 31 17 172.289 128.607 2
-2 17 31 237.336 120.865 2
-17 -3 31 44.7165 85.9756 2
3 31 17 -25.3707 68.5367 2
-3 17 31 12.5418 81.8062 2
-17 -4 31 16.7761 124.448 2
-4 17 31 70.5814 84.544 2
-17 -5 31 41.87 139.127 2
-5 17 31 255.437 155.59 2
-17 -6 31 -13.3761 77.2962 2
-6 17 31 -33.9504 91.1673 2
-7 17 31 326.951 112.488 2
-8 17 31 37.0566 79.8805 2
-9 17 31 372.99 135.999 2
-10 17 31 380.046 152.636 2
-11 17 31 554.352 175.598 2
-12 17 31 227.189 120.586 2
-13 17 31 59.7836 67.9997 2
-17 31 14 212.84 112.073 2
-14 17 31 133.37 104.764 2
-17 31 15 122.843 96.8154 2
-15 17 31 91.2427 119.979 2
-17 31 16 -150.815 110.107 2
-16 17 31 14.3102 88.0808 2
-15 31 18 598.786 152.51 2
-18 15 31 145.398 158.872 2
-14 31 18 118.795 114.184 2
-18 14 31 7.2741 58.5288 2
-13 31 18 223.68 115.129 2
-18 13 31 49.7518 132.356 2
-12 31 18 674.643 175.806 2
-18 12 31 179.791 193.111 2
-11 31 18 412.723 140.692 2
-18 11 31 159.965 161.172 2
-10 31 18 105.283 70.1073 2
-18 10 31 37.5517 108.158 2
-9 31 18 770.065 167.273 2
-18 9 31 153.208 156.361 2
-8 31 18 638.178 159.739 2
-18 8 31 95.001 137.636 2
-7 31 18 109.451 105.844 2
-18 7 31 -20.2826 84.1781 2
-6 31 18 424.956 151.853 2
-18 6 31 115.845 149.781 2
-18 5 31 93.3967 145.54 2
-5 31 18 57.7562 77.5546 2
-18 4 31 21.7592 69.4264 2
-4 31 18 -22.9692 96.4423 2
-18 3 31 242.537 203.185 2
-3 31 18 313.006 143.001 2
3 18 31 91.3659 125.674 2
-18 2 31 122.506 151.69 2
2 18 31 91.6098 126.349 2
-18 1 31 26.6072 98.6471 2
-1 31 18 60.9662 55.432 2
1 18 31 152.403 118.707 2
-18 0 31 134.252 153.611 2
0 31 18 660.644 156.229 2
0 18 31 524.94 172.389 2
-18 -1 31 -29.3962 70.3158 2
1 31 18 278.471 109.432 2
-1 18 31 308.004 124.111 2
-18 -2 31 121.689 145.819 2
2 31 18 309.127 124.646 2
-18 -3 31 63.8383 138.112 2
-3 18 31 144.164 131.921 2
-18 -4 31 40.1688 103.284 2
-4 18 31 -89.0197 117.398 2
-18 -5 31 15.5855 89.9838 2
-5 18 31 59.3518 103.288 2
-6 18 31 445.165 158.864 2
-7 18 31 -149.819 116.713 2
-8 18 31 737.81 175.163 2
-9 18 31 931.351 201.116 2
-10 18 31 393.335 140.823 2
-11 18 31 471.271 157.995 2
-12 18 31 539.828 190.957 2
-18 31 13 40.3116 58.1684 2
-13 18 31 64.5954 75.8272 2
-18 31 14 40.0124 82.4495 2
-14 18 31 -12.8006 64.0343 2
-18 31 15 670.485 163.795 2
-15 18 31 103.122 153.58 2
-14 31 19 339.398 132.308 2
-19 14 31 80.9356 130.097 2
-13 31 19 146.742 104.098 2
-19 13 31 37.3912 98.1193 2
-12 31 19 -57.4294 87.6199 2
-19 12 31 73.1268 102.342 2
-11 31 19 63.086 66.7745 2
-19 11 31 -12.325 84.8442 2
-10 31 19 445.128 151.448 2
-19 10 31 52.8465 129.674 2
-9 31 19 849.391 164.566 2
-19 9 31 232.235 196.178 2
-8 31 19 -24.0668 74.9412 2
-19 8 31 5.07163 87.648 2
-7 31 19 270.269 141.975 2
-19 7 31 154.162 158.725 2
-6 31 19 -14.3561 67.7358 2
-19 6 31 31.719 98.1413 2
-5 31 19 390.552 147.117 2
-19 5 31 122.714 142.847 2
-4 31 19 122.346 91.9837 2
-19 4 31 129.564 113.432 2
-3 31 19 672.904 174.796 2
-19 3 31 138.857 169.794 2
-2 31 19 129.909 112.357 2
-19 2 31 4.56564 66.0139 2
2 19 31 42.4175 59.2287 2
-19 1 31 15.0295 64.0739 2
-1 31 19 188.644 100.045 2
1 19 31 -1.90654 67.0733 2
-19 0 31 39.8831 91.364 2
0 31 19 142.549 97.1245 2
0 19 31 69.5667 137.43 2
1 31 19 210.2 114.95 2
-19 -1 31 36.9923 76.5163 2
-1 19 31 80.3546 121.495 2
2 31 19 35.0205 71.3392 2
-19 -2 31 -22.0676 95.2793 2
-2 19 31 -20.5231 102.665 2
-19 -3 31 72.2349 140.444 2
-3 19 31 513.207 161.781 2
-19 -4 31 43.5475 95.2754 2
-4 19 31 123.381 87.7494 2
-5 19 31 285.935 140.38 2
-6 19 31 18.4625 66.7498 2
-7 19 31 548.581 155.681 2
-8 19 31 7.85063 93.4232 2
-9 19 31 1189.51 216.299 2
-10 19 31 582.053 160.64 2
-11 19 31 31.6942 78.2792 2
-19 31 12 17.8609 69.9772 2
-12 19 31 -20.071 89.3006 2
-19 31 13 85.589 94.4768 2
-13 19 31 59.4153 70.4837 2
-19 31 14 417.465 119.731 2
-14 19 31 125.15 157.584 2
-13 31 20 635.675 158.198 2
-20 13 31 110.562 99.8642 2
-12 31 20 76.044 87.0244 2
-20 12 31 44.1325 96.4192 2
-11 31 20 144.782 94.8767 2
-20 11 31 97.168 109.841 2
-10 31 20 545.71 152.153 2
-20 10 31 181.511 162.462 2
-9 31 20 87.2917 95.3324 2
-20 9 31 27.1457 111.557 2
-8 31 20 520.184 160.139 2
-20 8 31 256.652 170.767 2
-7 31 20 109.644 103.659 2
-20 7 31 33.1747 101.6 2
-6 31 20 178.06 102.223 2
-20 6 31 30.213 85.8059 2
-5 31 20 -54.8313 86.0028 2
-20 5 31 33.6581 107.826 2
-4 31 20 114.584 89.9789 2
-20 4 31 49.541 119.773 2
-3 31 20 411.293 150.642 2
-20 3 31 54.29 137.129 2
-2 31 20 210.257 95.259 2
-20 2 31 8.78926 95.624 2
2 20 31 51.9331 105.908 2
-1 31 20 212.511 115.133 2
-20 1 31 92.1071 141.374 2
1 20 31 96.8302 111.485 2
0 31 20 -16.7811 83.807 2
-20 0 31 -14.6684 52.4976 2
0 20 31 48.1419 89.0063 2
1 31 20 223.254 95.2752 2
-20 -1 31 0.13925 52.7651 2
-1 20 31 84.8442 107.6 2
-20 -2 31 29.2749 89.2538 2
-2 20 31 71.036 119.981 2
-20 -3 31 163.069 138.27 2
-3 20 31 222.175 158.439 2
-4 20 31 137.447 114.894 2
-5 20 31 -27.5188 69.0189 2
-6 20 31 202.1 102.531 2
-7 20 31 75.0867 84.1473 2
-8 20 31 516.173 145.47 2
-9 20 31 172.502 94.9454 2
-10 20 31 466.854 148.666 2
-20 31 11 295.037 129.721 2
-11 20 31 164.17 115.736 2
-20 31 12 202.361 109.54 2
-12 20 31 103.089 82.9503 2
-20 31 13 542.363 137.3 2
-13 20 31 442.167 141.766 2
-11 31 21 144.035 88.5595 2
-21 11 31 97.1433 97.2158 2
-10 31 21 -37.3803 83.6757 2
-21 10 31 -26.9021 79.9705 2
-9 31 21 126.348 96.2223 2
-21 9 31 27.4014 59.0819 2
-8 31 21 180.796 93.5605 2
-21 8 31 48.4236 102.518 2
-7 31 21 798.7 196.352 2
-21 7 31 265.297 178.57 2
-6 31 21 171.473 116.065 2
-21 6 31 -9.96254 66.7344 2
-5 31 21 387.617 151.27 2
-21 5 31 90.9856 138.543 2
-4 31 21 68.5431 85.0329 2
-21 4 31 13.0179 79.541 2
-3 31 21 65.9553 82.3893 2
-21 3 31 -11.2971 82.2301 2
-2 31 21 193.014 94.3717 2
-21 2 31 70.4119 86.9602 2
-1 31 21 371.192 127.29 2
-21 1 31 57.8905 134.195 2
1 21 31 230.353 151.304 2
0 31 21 34.4057 55.2195 2
0 21 31 91.5119 115.649 2
1 31 21 440.183 112.753 2
-1 21 31 219.05 154.428 2
-2 21 31 38.7532 89.9163 2
-3 21 31 58.4891 105.779 2
-4 21 31 147.966 119.878 2
-5 21 31 409.127 172.494 2
-6 21 31 50.3754 99.184 2
-7 21 31 603.887 200.609 2
-8 21 31 147.147 135.583 2
-21 31 9 137.973 113.546 2
-9 21 31 -52.6447 97.8207 2
-21 31 10 107.285 87.7559 2
-10 21 31 8.34726 66.665 2
-21 31 11 350.386 107.374 2
-11 21 31 123.141 95.4507 2
-9 31 22 90.9425 109.371 2
-8 31 22 -0.92092 55.0072 2
-7 31 22 118.594 91.3778 2
-6 31 22 190.742 105.021 2
-5 31 22 737.345 166.678 2
-4 31 22 164.441 106.87 2
-3 31 22 117.288 90.7626 2
-2 31 22 57.7559 74.9604 2
-1 31 22 1072.15 186.49 2
1 22 31 147.776 103.781 2
0 31 22 150.783 88.9281 2
0 22 31 53.4629 76.2142 2
-1 22 31 395.296 214.896 2
-2 22 31 -47.1886 72.7185 2
-3 22 31 80.1095 98.8624 2
-4 22 31 95.8334 101.969 2
-5 22 31 493.76 168.704 2
-6 22 31 210.269 120.637 2
-7 22 31 236.36 101.864 2
-22 31 8 8.2754 61.047 2
-8 22 31 76.3506 83.6748 2
-22 31 9 47.9345 54.925 2
-9 22 31 124.016 111.254 2
-6 31 23 536.155 143.909 2
-5 31 23 44.9883 74.7292 2
-4 31 23 124.234 86.2114 2
-3 31 23 84.1256 83.5989 2
-2 31 23 205.671 107.462 2
-1 31 23 97.6088 57.7362 2
0 31 23 8.49104 27.7525 2
0 23 31 -20.4759 34.7853 2
-1 23 31 61.5011 93.8872 2
-2 23 31 67.2993 120.662 2
-3 23 31 110.099 93.3575 2
-4 23 31 16.3796 96.6311 2
-5 23 31 168.958 88.2412 2
-6 23 31 530.94 128.222 2
0 0 32 631.504 195.237 2
-1 0 32 2573.96 353.625 2
0 1 32 2728.56 363.487 2
0 -1 32 2407.19 325.888 2
1 0 32 2390.19 324.663 2
1 -1 32 915.45 213.744 2
-1 -1 32 649.791 201.015 2
1 1 32 895.46 210.912 2
-1 1 32 1146.28 251.921 2
2 -1 32 2968.01 373.194 2
1 2 32 2783.65 370.922 2
-1 -2 32 2316.75 336.993 2
-2 1 32 2334.04 354.741 2
0 -2 32 -137.154 122.374 2
2 0 32 -125.742 79.6504 2
-2 0 32 70.3707 91.2121 2
0 2 32 87.1854 140.322 2
1 -2 32 2399.71 348.611 2
2 1 32 2599.52 356.331 2
-2 -1 32 2629.73 353.135 2
-1 2 32 2415.33 336.13 2
2 -2 32 272.02 179.776 2
-2 -2 32 192.763 120.319 2
2 2 32 341.982 135.994 2
-2 2 32 122.24 115.203 2
3 -2 32 1394.01 262.267 2
-2 -3 32 682 193.376 2
2 3 32 1096.86 247.086 2
-3 2 32 1063.22 225.105 2
3 -1 32 1036.64 228.758 2
-1 -3 32 965.676 248.398 2
1 3 32 979.946 223.294 2
-3 1 32 1000.93 234.462 2
0 3 32 2590.01 357.605 2
0 -3 32 2382.56 336.497 2
3 0 32 2204.02 319.268 2
-3 0 32 2512.77 355.94 2
1 -3 32 683.677 206.62 2
3 1 32 1007.48 228.833 2
-3 -1 32 939.87 215.817 2
-1 3 32 741.824 182.444 2
2 -3 32 1188.84 258.863 2
-3 -2 32 925.059 203.842 2
3 2 32 912.257 214.136 2
-2 3 32 1089.35 237.61 2
3 -3 32 1894.97 304.61 2
-3 -3 32 1755.34 286.938 2
3 3 32 1753.5 286.818 2
-3 3 32 2008.05 331.121 2
4 -3 32 1594.11 274.243 2
-3 -4 32 1580.87 279.656 2
3 4 32 1379.44 264.555 2
-4 3 32 1963.14 319.435 2
4 -2 32 1500.36 260.967 2
-2 -4 32 1593.74 265.391 2
2 4 32 1494.7 253.775 2
-4 2 32 1651.11 296.143 2
4 -1 32 594.053 153.744 2
-1 -4 32 650.691 190.507 2
-4 1 32 620.336 195.42 2
1 4 32 513.069 163.973 2
0 -4 32 50.6493 92.3073 2
4 0 32 66.7842 93.9987 2
-4 0 32 237.998 153.394 2
0 4 32 38.2443 81.6895 2
1 -4 32 776.222 211.605 2
4 1 32 556.845 153.788 2
-4 -1 32 515.145 181.657 2
-1 4 32 760.24 221.952 2
2 -4 32 1496.49 258.647 2
4 2 32 1261.06 231.641 2
-4 -2 32 1378.23 261.076 2
-2 4 32 1426.6 281.353 2
3 -4 32 1273.88 250.597 2
-4 -3 32 1555.34 281 2
4 3 32 1308.87 240.629 2
-3 4 32 1267.99 248.102 2
4 -4 32 216.562 129.724 2
-4 -4 32 7.16724 82.4172 2
4 4 32 20.8501 78.4554 2
-4 4 32 184.649 75.2284 2
5 -4 32 67.5771 75.9926 2
-4 -5 32 28.9535 100.027 2
4 5 32 103.769 77.2223 2
-5 4 32 164.846 116.242 2
5 -3 32 563.103 199.742 2
-3 -5 32 101.375 85.6103 2
3 5 32 625.871 181.947 2
-5 3 32 240.861 108.858 2
5 -2 32 997.745 218.788 2
-2 -5 32 933.384 223.51 2
2 5 32 850.518 199.79 2
-5 2 32 592.429 175.202 2
5 -1 32 1899 312.115 2
-1 -5 32 1857.25 313.947 2
-5 1 32 2232.06 351.671 2
1 5 32 1717.62 272.774 2
0 -5 32 969.73 235.456 2
5 0 32 1006.91 231.66 2
-5 0 32 1194.35 258.415 2
0 5 32 939.178 213.374 2
1 -5 32 1920.22 305.112 2
5 1 32 1745.03 286.342 2
-5 -1 32 2433.63 349.022 2
-1 5 32 2325.76 337.959 2
2 -5 32 823.983 190.939 2
5 2 32 816.516 199.239 2
-5 -2 32 865.183 213.119 2
-2 5 32 1026.47 227.291 2
3 -5 32 276.773 126.996 2
-5 -3 32 376.137 134.378 2
5 3 32 336.938 117.407 2
-3 5 32 419.936 155.225 2
4 -5 32 375.19 170.388 2
-5 -4 32 285.404 135.654 2
5 4 32 218.845 137.18 2
-4 5 32 233.493 153.471 2
5 -5 32 616.64 184.787 2
-5 -5 32 576.913 170.851 2
5 5 32 529.97 165.437 2
-5 5 32 517.372 150.319 2
-5 -6 32 410.007 149.995 2
5 6 32 325.32 151.191 2
-6 5 32 427.388 174.759 2
6 -4 32 3367.63 371.227 2
-4 -6 32 3869.95 425.229 2
4 6 32 3410.05 375.4 2
-6 4 32 4091.14 446.684 2
6 -3 32 196.71 81.9293 2
-3 -6 32 432.551 165.039 2
3 6 32 303.779 140.308 2
-6 3 32 255.201 155.792 2
6 -2 32 314.97 201.397 2
-2 -6 32 334.333 148.947 2
-6 2 32 222.76 131.738 2
2 6 32 264.875 139.013 2
-1 -6 32 95.5394 75.8307 2
6 -1 32 117.72 168.693 2
-6 1 32 92.3856 101.099 2
1 6 32 105.415 136.617 2
0 -6 32 119.756 107.503 2
6 0 32 149.277 109.864 2
-6 0 32 498.826 195.212 2
0 6 32 167.354 136.559 2
1 -6 32 108.108 103.689 2
6 1 32 219.3 126.802 2
-6 -1 32 61.9928 110.97 2
-1 6 32 43.0465 97.0336 2
2 -6 32 156.669 123.491 2
6 2 32 149.633 127.296 2
-6 -2 32 253.702 128.69 2
-2 6 32 89.3789 90.9393 2
3 -6 32 176.71 121.756 2
6 3 32 252.338 112.509 2
-6 -3 32 151.833 132.027 2
-3 6 32 467.693 180.002 2
4 -6 32 3738.58 404.071 2
-6 -4 32 3454.78 418.943 2
6 4 32 3525.48 359.862 2
-4 6 32 4119.82 440.832 2
-6 -5 32 467.687 161.942 2
6 5 32 321.378 139.275 2
-5 6 32 549.828 184.21 2
-6 -6 32 76.1984 89.2246 2
6 6 32 67.5839 89.2331 2
-6 6 32 -55.5995 80.1916 2
-6 -7 32 532.102 176.396 2
6 7 32 412.859 147.493 2
-7 6 32 312.589 156.728 2
-5 -7 32 93.9945 92.8231 2
5 7 32 -47.1309 111.007 2
-7 5 32 199.125 115.971 2
-4 -7 32 92.4323 106.598 2
4 7 32 56.7264 67.623 2
-7 4 32 117.099 83.6787 2
7 -3 32 464.21 157.626 2
-3 -7 32 377.165 145.744 2
3 7 32 231.712 135.198 2
-7 3 32 123.225 79.3012 2
7 -2 32 257.69 103.643 2
-2 -7 32 104.61 86.9884 2
-7 2 32 31.5316 100.421 2
2 7 32 277.484 112.373 2
7 -1 32 959.992 195.851 2
-1 -7 32 1048.49 237.826 2
-7 1 32 1276.1 273.403 2
1 7 32 1281.58 260.375 2
0 -7 32 237.164 153.121 2
7 0 32 282.125 121.84 2
-7 0 32 253.93 126.525 2
0 7 32 73.0488 102.533 2
1 -7 32 1392.08 265.658 2
7 1 32 1090.14 210.381 2
-7 -1 32 1398.1 281.054 2
-1 7 32 1152.35 249.122 2
2 -7 32 335.056 140.58 2
7 2 32 29.8324 94.4307 2
-7 -2 32 159.394 95.3088 2
-2 7 32 355.286 146.485 2
3 -7 32 343.597 108.243 2
7 3 32 183.751 88.5121 2
-7 -3 32 432.398 166.319 2
-3 7 32 305.511 136.231 2
7 4 32 -3.45069 74.952 2
-7 -4 32 -22.0743 106.484 2
-4 7 32 148.491 143.309 2
-7 -5 32 138.668 97.4698 2
-5 7 32 89.8609 113.78 2
-7 -6 32 572.33 188.457 2
-6 7 32 514.309 161.593 2
-7 -7 32 776.422 200.546 2
-7 7 32 790.757 177.527 2
-7 -8 32 495.25 149.57 2
-8 7 32 538.702 195.081 2
-6 -8 32 3314.44 392.368 2
6 8 32 2783.05 321.591 2
-8 6 32 3336.57 400.598 2
-5 -8 32 534.907 173.64 2
5 8 32 534.403 151.011 2
-8 5 32 518.839 176.997 2
-4 -8 32 -35.0348 84.9663 2
4 8 32 -70.6271 112.692 2
-8 4 32 20.7055 103.754 2
-3 -8 32 126.514 104.57 2
3 8 32 69.4644 102.892 2
-8 3 32 83.029 122.101 2
-2 -8 32 428.872 125.287 2
-8 2 32 946.625 216.664 2
2 8 32 647.215 198.254 2
8 -1 32 217.039 133.651 2
-1 -8 32 251.169 123.028 2
-8 1 32 329.904 136.106 2
1 8 32 325.754 130.341 2
0 -8 32 -111.753 106.738 2
8 0 32 295.303 137.446 2
-8 0 32 -16.3701 114.284 2
0 8 32 133.114 133.835 2
1 -8 32 364.66 146.848 2
-8 -1 32 201.492 144.664 2
-1 8 32 229.064 109.546 2
-8 -2 32 679.786 185.365 2
-2 8 32 679.419 186.543 2
-8 -3 32 57.0741 76.2393 2
-3 8 32 225.681 130.77 2
-8 -4 32 19.9516 84.8091 2
-4 8 32 -61.6592 107.226 2
-8 -5 32 507.867 164.691 2
-5 8 32 664.673 181.255 2
-8 -6 32 2723.15 362.451 2
-6 8 32 3103.48 384.491 2
-8 -7 32 419.352 162.489 2
-7 8 32 363.736 130.019 2
-8 -8 32 112.413 78.9916 2
-8 8 32 270.365 122.429 2
-8 -9 32 481.2 150.652 2
-9 8 32 610.466 181.881 2
-7 -9 32 185.155 106.207 2
-9 7 32 9.32585 94.43 2
-6 -9 32 37.8351 92.0003 2
-9 6 32 11.4848 98.6529 2
-5 -9 32 493.696 158.431 2
5 9 32 364.057 136.353 2
-9 5 32 442.626 160.466 2
-4 -9 32 274.679 159.873 2
4 9 32 284.482 142.69 2
-9 4 32 471.316 150.144 2
-3 -9 32 99.9359 95.3864 2
-9 3 32 32.289 110.691 2
3 9 32 180.408 146.577 2
-2 -9 32 325.377 143.036 2
-9 2 32 239.086 148.021 2
2 9 32 31.3325 98.8545 2
-9 1 32 -34.4769 91.3823 2
1 9 32 -74.2385 99.5559 2
-9 0 32 155.805 144.775 2
0 9 32 -36.1374 86.7164 2
-9 -1 32 7.7066 108.316 2
-1 9 32 7.83811 93.6689 2
-9 -2 32 322.25 142.682 2
-2 9 32 148.375 108.532 2
-9 -3 32 529.956 198.249 2
-3 9 32 278.101 164.494 2
-9 -4 32 352.464 155.699 2
-4 9 32 411.555 171.677 2
-9 -5 32 384.962 148.687 2
-5 9 32 322.874 141.267 2
-9 -6 32 -119.856 116.926 2
-6 9 32 -40.7067 107.958 2
-9 -7 32 146.329 125.387 2
-7 9 32 118.125 100.077 2
-9 -8 32 460.537 186.229 2
-8 9 32 503.047 192.891 2
-9 -9 32 1492.75 270.228 2
-9 9 32 1377.15 250.431 2
-10 9 32 694.372 211.417 2
-10 8 32 1738.82 292.419 2
-10 7 32 1140.21 237.288 2
-10 6 32 -73.7937 104.39 2
5 10 32 -19.0096 57.4072 2
-10 5 32 -117.038 122.114 2
4 10 32 1359.53 269.393 2
-10 4 32 2076.5 323.958 2
-10 3 32 403.314 151.83 2
3 10 32 186.853 111.948 2
-10 2 32 924.285 230.727 2
2 10 32 538.761 178.909 2
-10 1 32 953.396 215.309 2
1 10 32 1323.13 260.92 2
-10 0 32 116.823 105.072 2
0 10 32 203.432 147.933 2
-10 -1 32 929.466 192.797 2
-1 10 32 864.117 236.108 2
-10 -2 32 444.835 158.681 2
-2 10 32 450.404 172.879 2
-10 -3 32 267.436 152.542 2
-3 10 32 236.88 99.3784 2
-10 -4 32 1855.05 295.098 2
-4 10 32 2098.07 317.323 2
-10 -5 32 96.2383 125.207 2
-5 10 32 -70.1337 94.6848 2
-10 -6 32 243.858 134.947 2
-6 10 32 178.635 113.083 2
-10 -7 32 1017.7 223.516 2
-7 10 32 1110.7 224.491 2
-10 -8 32 1199.63 251.468 2
-8 10 32 1645.85 280.52 2
-10 -9 32 519.542 185.919 2
-9 10 32 601.435 186.642 2
-10 10 32 7.92559 109.151 2
-11 10 32 37.0234 105.924 2
-11 9 32 147.25 112.663 2
-11 8 32 151.042 85.0783 2
-11 7 32 584.561 175.168 2
-11 6 32 476.666 189.517 2
5 11 32 88.0663 81.6248 2
-11 5 32 186.757 151.963 2
4 11 32 504.044 159.762 2
-11 4 32 747.447 216.955 2
-11 3 32 337.85 149.941 2
3 11 32 208.704 111.068 2
-11 2 32 208.068 142.42 2
2 11 32 231.371 121.84 2
-11 1 32 481.435 184.436 2
1 11 32 238.144 143.452 2
-11 0 32 309.478 112.799 2
0 11 32 336.405 172.582 2
-11 -1 32 256.234 150.566 2
-1 11 32 101.673 120.406 2
-11 -2 32 446.937 155.91 2
-2 11 32 526.398 194.601 2
-11 -3 32 -30.4513 100.491 2
-3 11 32 310.239 137.321 2
-11 -4 32 351.09 149.725 2
-4 11 32 344.718 154.299 2
-11 -5 32 139.889 128.629 2
-5 11 32 35.6364 79.2032 2
-11 -6 32 239.188 124.171 2
-6 11 32 363.194 142.301 2
-11 -7 32 319.992 161.149 2
-7 11 32 605.964 158.49 2
-11 -8 32 324.519 161.219 2
-8 11 32 176.277 106.018 2
-9 11 32 163.583 161.384 2
-10 11 32 -68.5335 98.5396 2
-11 11 32 664.794 203.2 2
-12 11 32 461.938 166.847 2
-12 10 32 200.45 119.441 2
-12 9 32 364.458 132.798 2
-12 8 32 -102.545 107.729 2
-12 7 32 -39.9937 105.22 2
-12 6 32 1190.4 240.3 2
-12 5 32 402.927 151.443 2
-12 4 32 900.278 231.07 2
4 12 32 439.203 152.851 2
-12 3 32 1268.84 253.563 2
3 12 32 781.554 200.238 2
-12 2 32 477.606 170.854 2
2 12 32 311.061 109.806 2
-12 1 32 918.409 196.12 2
1 12 32 894.308 205.077 2
-12 0 32 444.684 155.425 2
0 12 32 576.451 169.129 2
-12 -1 32 892.546 193.882 2
-1 12 32 425.336 201.475 2
-12 -2 32 471.537 163.328 2
-2 12 32 465.906 168.726 2
-12 -3 32 1029.48 227.904 2
-3 12 32 676.458 207.433 2
-12 -4 32 385.735 156.817 2
-4 12 32 1408.25 252.223 2
-12 -5 32 119.188 120.809 2
-5 12 32 178.767 118.561 2
-12 -6 32 1036.04 271.53 2
-6 12 32 1662.95 275.125 2
-12 -7 32 99.2606 117.285 2
-7 12 32 35.1624 112.225 2
-12 -8 32 29.9164 85.9442 2
-8 12 32 159.6 142.105 2
-9 12 32 154.975 87.4404 2
-10 12 32 63.0393 102.359 2
-11 12 32 569.424 176.207 2
-12 12 32 282.087 119.701 2
-13 12 32 341.261 127.322 2
-13 11 32 134.485 112.711 2
-13 10 32 838.448 204.965 2
-13 9 32 17.4458 97.3528 2
-13 8 32 172.821 131.479 2
-13 7 32 70.2319 73.8465 2
-13 6 32 37.1701 82.1635 2
-13 5 32 103.973 111.742 2
-13 4 32 947.262 231.255 2
4 13 32 615.713 179.001 2
-13 3 32 459.732 164.6 2
3 13 32 486.199 141.937 2
-13 2 32 324.667 113.73 2
2 13 32 213.939 144.021 2
-13 1 32 903.92 208.953 2
1 13 32 453.009 146.907 2
-13 0 32 855.339 219.53 2
0 13 32 785.2 198.316 2
-13 -1 32 549.204 180.273 2
-1 13 32 379.733 149.532 2
-13 -2 32 409.625 164.767 2
-2 13 32 430.138 172.11 2
-13 -3 32 313.436 151.556 2
-3 13 32 222.361 135.147 2
-13 -4 32 326.84 212.518 2
-4 13 32 801.361 216.28 2
-13 -5 32 25.4009 118.341 2
-5 13 32 -10.534 88.401 2
-13 -6 32 35.2129 90.4695 2
-6 13 32 6.414 105.374 2
-13 -7 32 -13.166 96.7705 2
-7 13 32 158.897 123.545 2
-13 -8 32 84.7897 115.179 2
-8 13 32 286.238 145.696 2
-9 13 32 25.8786 78.4608 2
-10 13 32 502.544 175.693 2
-11 13 32 207.195 118.417 2
-12 13 32 -51.2182 77.3307 2
-13 13 32 135.189 108.433 2
-14 13 32 -81.2679 134.782 2
-14 12 32 148.986 113.974 2
-14 11 32 113.854 101.11 2
-14 10 32 249.248 122.918 2
-14 9 32 113.4 123.865 2
-14 8 32 612.452 179.683 2
-14 7 32 446.298 159.04 2
-14 6 32 252.601 130.16 2
-14 5 32 669.645 186.448 2
-14 4 32 638.216 191.188 2
4 14 32 715.958 183.227 2
-14 3 32 -43.6528 100.639 2
3 14 32 -11.518 69.1008 2
-14 2 32 561.126 206.462 2
2 14 32 863.639 183.846 2
-14 1 32 464.493 234.514 2
1 14 32 1476.35 238.685 2
0 14 32 2117.75 332.65 2
-14 0 32 86.1052 146.823 2
-14 -1 32 179.668 189.291 2
-1 14 32 1113.07 218.379 2
-14 -2 32 231.173 200.922 2
-2 14 32 801.524 204.104 2
-14 -3 32 -5.55112 108.635 2
-3 14 32 54.272 81.4086 2
-14 -4 32 281.915 203.73 2
-4 14 32 817.045 200.146 2
-14 -5 32 260.337 164.133 2
-5 14 32 833.898 209.634 2
-14 -6 32 10.4276 105.089 2
-6 14 32 66.0356 97.6272 2
-14 -7 32 108.528 185.055 2
-7 14 32 623.872 180.881 2
-8 14 32 642.889 179.462 2
-9 14 32 348.661 135.318 2
-10 14 32 529.723 170.381 2
-11 14 32 205.583 118.38 2
-12 14 32 296.379 141.824 2
-13 14 32 54.9133 92.249 2
-14 14 32 -3.031 80.1432 2
-14 32 15 -51.7498 94.6899 2
-15 14 32 34.6055 90.7478 2
-15 13 32 -10.9765 89.202 2
-15 12 32 31.9437 131.965 2
-15 11 32 -9.80446 82.8001 2
-15 10 32 82.6073 162.244 2
-15 9 32 23.9275 110.135 2
-15 8 32 86.2507 161.72 2
-15 7 32 85.5614 193.027 2
-15 6 32 116.35 206.263 2
-15 5 32 16.1481 105.495 2
-15 4 32 63.4833 137.054 2
-15 3 32 41.3913 169.258 2
3 15 32 88.8881 135.941 2
-15 2 32 186.425 229.593 2
2 15 32 986.717 189.45 2
-15 1 32 311.658 182.689 2
1 15 32 721.722 170.805 2
-15 0 32 214.065 157.524 2
0 15 32 224.84 141.441 2
-15 -1 32 453.997 214.766 2
-1 15 32 523.814 184.434 2
-15 -2 32 68.8837 168.411 2
-2 15 32 959.585 221.586 2
-15 -3 32 50.0882 133.907 2
-3 15 32 413.368 161.17 2
-15 -4 32 7.1999 75.6985 2
-4 15 32 45.5091 106.324 2
-15 -5 32 -8.11351 114.516 2
-5 15 32 24.456 69.6332 2
-15 -6 32 157.99 200.173 2
-6 15 32 1061.47 219.435 2
-15 -7 32 94.6969 152.846 2
-7 15 32 1001.61 205.531 2
-8 15 32 912.586 195.71 2
-9 15 32 148.238 108.242 2
-10 15 32 520.261 151.213 2
-11 15 32 94.2421 92.0076 2
-12 15 32 153.075 115.541 2
-13 15 32 99.7471 64.1709 2
-14 15 32 29.1044 65.4142 2
-15 32 15 180.617 113.738 2
-15 15 32 30.2074 81.6354 2
-15 32 16 248.907 130.414 2
-16 15 32 -10.1773 67.5717 2
-14 32 16 159.35 107.058 2
-16 14 32 32.0669 114.625 2
-13 32 16 221.751 120.858 2
-16 13 32 54.8913 122.15 2
-12 32 16 130.164 125.826 2
-16 12 32 0.97503 78.1617 2
-16 11 32 2.18664 89.1993 2
-16 10 32 -1.21186 79.3319 2
-16 9 32 16.28 98.856 2
-16 8 32 84.6047 109.086 2
-16 7 32 36.9897 117.16 2
-16 6 32 40.7911 110.056 2
-16 5 32 115.825 133.344 2
-16 4 32 39.2102 117.245 2
-16 3 32 156.929 149.503 2
3 16 32 47.4291 138.569 2
-16 2 32 19.1264 114.97 2
2 16 32 -22.9003 70.4546 2
-16 1 32 63.9861 106.101 2
1 16 32 6.15925 73.6477 2
-16 0 32 39.5936 129.767 2
0 16 32 300.072 158.265 2
-16 -1 32 71.3337 175.989 2
-1 16 32 -30.748 73.8021 2
-16 -2 32 5.40877 145.011 2
2 32 16 109.985 78.6675 2
-2 16 32 28.6274 86.3624 2
-16 -3 32 155.399 176.908 2
3 32 16 197.022 87.2798 2
-3 16 32 475.244 174.258 2
-16 -4 32 94.806 155.325 2
-4 16 32 -14.2839 66.2291 2
-16 -5 32 52.7605 127.493 2
-5 16 32 449.501 161.844 2
-16 -6 32 81.6096 132.312 2
-6 16 32 326.375 132.242 2
-7 16 32 147.478 85.0331 2
-8 16 32 466.284 142.697 2
-9 16 32 -85.8834 88.9053 2
-10 16 32 -34.9117 67.7627 2
-11 16 32 251.233 132.157 2
-12 16 32 208.012 132.628 2
-13 16 32 327.721 145.46 2
-16 32 14 34.6703 61.3776 2
-14 16 32 -7.14573 72.3925 2
-16 32 15 134.797 100.756 2
-15 16 32 35.2402 106.991 2
-14 32 17 158.76 109.599 2
-17 14 32 2.20086 67.542 2
-13 32 17 365.909 144.088 2
-17 13 32 81.1648 126.995 2
-12 32 17 27.3734 104.253 2
-17 12 32 78.1803 128.436 2
-11 32 17 488.086 147.95 2
-17 11 32 133.463 138.93 2
-10 32 17 759.212 169.849 2
-17 10 32 166.581 157.332 2
-9 32 17 687.872 162.61 2
-17 9 32 56.179 148.806 2
-8 32 17 580.314 153.072 2
-17 8 32 227.335 184.291 2
-17 7 32 46.5687 119.965 2
-17 6 32 11.475 111.043 2
-17 5 32 35.3977 118.204 2
-17 4 32 -18.6657 101.227 2
-17 3 32 10.7467 72.3523 2
3 17 32 9.99156 56.1973 2
-17 2 32 99.0856 150.826 2
-2 32 17 336.212 135.729 2
2 17 32 150.131 159.065 2
-17 1 32 49.2183 168.618 2
-1 32 17 393.513 112.928 2
1 17 32 148.781 159.476 2
-17 0 32 16.4247 105.118 2
0 32 17 206.671 102.707 2
0 17 32 72.4227 109.531 2
-17 -1 32 37.2001 148.43 2
1 32 17 494.177 138.123 2
-1 17 32 341.902 148.556 2
-17 -2 32 73.2812 156.834 2
2 32 17 52.6155 76.8813 2
-2 17 32 163.401 140.908 2
-17 -3 32 4.10119 83.0962 2
-3 17 32 9.44269 79.0843 2
-17 -4 32 173.198 141.506 2
-4 17 32 503.229 173.363 2
-5 17 32 2060.15 315.528 2
-17 -5 32 103.873 159.419 2
-6 17 32 68.9129 106.599 2
-7 17 32 171.876 99.3524 2
-8 17 32 462.755 144.382 2
-9 17 32 595.115 171.134 2
-10 17 32 483.969 156.788 2
-11 17 32 250.182 129.592 2
-12 17 32 -26.8706 66.6198 2
-17 32 13 268.196 121.856 2
-13 17 32 266.669 136.465 2
-17 32 14 2005.59 273.196 2
-14 17 32 94.4907 111.433 2
-13 32 18 416.052 141.15 2
-18 13 32 126.339 125.9 2
-12 32 18 170.534 100.866 2
-18 12 32 117.453 129.034 2
-11 32 18 280.8 111.136 2
-18 11 32 138.314 146.493 2
-10 32 18 634.555 157.079 2
-18 10 32 106.245 144.86 2
-9 32 18 66.1595 83.0871 2
-18 9 32 21.8449 87.3988 2
-8 32 18 -124.678 99.9479 2
-18 8 32 3.43616 100.631 2
-7 32 18 -78.8533 85.8531 2
-18 7 32 10.1696 67.8574 2
-6 32 18 300.825 134.903 2
-18 6 32 145.45 158.359 2
-5 32 18 316.215 134.801 2
-18 5 32 -7.13682 81.5246 2
-18 4 32 -17.7579 64.2819 2
-4 32 18 63.0465 63.7592 2
-18 3 32 8.63216 78.768 2
-3 32 18 210.942 86.7078 2
-18 2 32 46.0802 116.545 2
-2 32 18 -59.9827 84.7747 2
2 18 32 -28.3003 46.9923 2
-18 1 32 112.374 108.096 2
-1 32 18 174.286 98.5548 2
1 18 32 23.8969 113.128 2
-18 0 32 -26.101 67.2003 2
0 32 18 51.7204 81.1119 2
0 18 32 37.0378 93.6181 2
-18 -1 32 131.381 162.696 2
1 32 18 122.03 88.7795 2
-1 18 32 32.0096 99.5436 2
-18 -2 32 32.5018 100.089 2
2 32 18 -21.9525 46.6824 2
-2 18 32 49.5916 81.356 2
-18 -3 32 57.4188 111.981 2
-3 18 32 169.859 116.926 2
-18 -4 32 57.4901 106.983 2
-4 18 32 96.557 113.432 2
-5 18 32 96.769 71.7933 2
-6 18 32 361.481 168.495 2
-7 18 32 89.9701 92.8208 2
-8 18 32 182.973 93.3539 2
-9 18 32 260.443 124.358 2
-10 18 32 433.253 154.334 2
-11 18 32 230.84 114.922 2
-18 32 12 71.0685 89.7824 2
-12 18 32 43.4949 88.0337 2
-18 32 13 317.227 140.449 2
-13 18 32 497.372 174.187 2
-12 32 19 550.349 151.78 2
-19 12 32 176.135 152.649 2
-11 32 19 293.746 117.383 2
-19 11 32 63.1328 105.708 2
-10 32 19 298.583 143.59 2
-19 10 32 25.1113 80.3618 2
-9 32 19 299.771 158.139 2
-19 9 32 115.688 132.781 2
-8 32 19 344.937 129.748 2
-19 8 32 91.7542 127.723 2
-7 32 19 67.4144 79.5575 2
-19 7 32 0.28814 66.0525 2
-6 32 19 424.335 153.569 2
-19 6 32 4.67286 65.8242 2
-5 32 19 176.382 117.841 2
-19 5 32 89.3881 122.349 2
-4 32 19 172.042 108.767 2
-19 4 32 18.9201 85.8854 2
-3 32 19 73.9863 57.8114 2
-19 3 32 41.801 115.715 2
-2 32 19 64.1249 86.1363 2
-19 2 32 8.81791 58.3112 2
2 19 32 -20.8153 50.3623 2
-1 32 19 108.59 103.022 2
-19 1 32 -3.49299 93.4783 2
1 19 32 90.4525 95.8908 2
0 32 19 301.269 118.695 2
-19 0 32 92.9191 157.317 2
0 19 32 248.09 156.135 2
1 32 19 66.8044 69.4634 2
-19 -1 32 84.0211 128.395 2
-1 19 32 7.85193 73.0966 2
-19 -2 32 -20.0114 68.2031 2
-2 19 32 -5.60753 85.5453 2
-19 -3 32 74.2257 119.734 2
-3 19 32 156.245 101.356 2
-4 19 32 39.8732 80.1371 2
-5 19 32 278.221 131.685 2
-6 19 32 179.654 119.014 2
-7 19 32 326.427 147.847 2
-8 19 32 290.679 129.961 2
-9 19 32 385.221 153.978 2
-10 19 32 62.8087 88.0754 2
-19 32 11 235.524 100.292 2
-11 19 32 264.864 127.096 2
-19 32 12 626.083 152.827 2
-12 19 32 457.188 133.314 2
-10 32 20 182.836 111.26 2
-20 10 32 34.9233 96.7329 2
-9 32 20 19.034 83.8349 2
-20 9 32 46.6225 94.2637 2
-8 32 20 574.304 170.118 2
-20 8 32 75.6336 140.549 2
-7 32 20 24.7751 56.3484 2
-20 7 32 34.603 87.5463 2
-6 32 20 130.951 116.524 2
-20 6 32 10.1699 72.6111 2
-5 32 20 27.061 75.0698 2
-20 5 32 14.4257 71.2988 2
-4 32 20 372.081 127.821 2
-20 4 32 65.6167 131.73 2
-3 32 20 61.3507 51.8755 2
-20 3 32 22.01 97.4184 2
-2 32 20 141.852 88.8505 2
-20 2 32 10.083 86.0712 2
-1 32 20 38.0995 60.3088 2
-20 1 32 9.94721 55.6437 2
1 20 32 29.6488 88.6355 2
0 32 20 14.2371 44.7225 2
-20 0 32 53.0131 93.8547 2
0 20 32 -39.3391 71.9534 2
1 32 20 35.956 66.6144 2
-20 -1 32 -39.3736 92.0576 2
-1 20 32 34.8935 85.0137 2
-20 -2 32 33.4304 88.4797 2
-2 20 32 44.105 92.1651 2
-3 20 32 179.196 144.763 2
-4 20 32 557.648 153.485 2
-5 20 32 37.7985 77.2997 2
-6 20 32 73.733 112.411 2
-7 20 32 5.87136 71.8223 2
-8 20 32 428.338 158.467 2
-9 20 32 232.944 134.031 2
-20 32 10 109.5 86.6657 2
-10 20 32 178.891 99.8904 2
-8 32 21 188.912 110.229 2
-21 8 32 -6.81191 63.9909 2
-7 32 21 255.592 138.956 2
-21 7 32 1.06124 66.9695 2
-6 32 21 130.132 102.026 2
-21 6 32 -15.252 63.3204 2
-5 32 21 25.2051 59.1597 2
-21 5 32 -19.0298 57.477 2
-4 32 21 471.2 147.334 2
-21 4 32 165.042 127.323 2
-3 32 21 39.6991 64.0217 2
-21 3 32 3.27738 81.5036 2
-2 32 21 601.376 143.933 2
-1 32 21 101.367 86.8059 2
1 21 32 -21.2389 34.1795 2
0 32 21 31.4881 59.0683 2
0 21 32 98.8512 85.3941 2
-1 21 32 28.6397 78.0131 2
-2 21 32 174.294 136.819 2
-3 21 32 15.8957 67.5816 2
-4 21 32 718.112 164.995 2
-5 21 32 197.523 107.232 2
-6 21 32 213.56 110.507 2
-7 21 32 455.758 143.641 2
-21 32 8 146.198 96.6608 2
-8 21 32 144.384 98.4487 2
-4 32 22 13.9635 49.6459 2
-3 32 22 -27.497 47.2835 2
-2 32 22 57.6821 74.3024 2
-1 32 22 82.4837 63.0922 2
0 22 32 -11.6668 33.9969 2
-1 22 32 64.4553 94.6643 2
-2 22 32 36.6314 69.3248 2
-3 22 32 27.4716 60.4799 2
-4 22 32 68.9245 80.7127 2
0 0 33 59.0639 89.6219 2
0 -1 33 1171.32 233.263 2
1 0 33 1301.45 256.5 2
-1 0 33 984.444 211.663 2
0 1 33 1083.51 212.592 2
1 -1 33 333.847 178.526 2
-1 -1 33 123.171 82.4046 2
1 1 33 292.65 115.164 2
-1 1 33 385.002 139.695 2
2 -1 33 2436.79 335.624 2
1 2 33 2586.25 346.084 2
-2 1 33 2674.46 353.003 2
-1 -2 33 2527.37 343.721 2
0 -2 33 259.168 107.349 2
2 0 33 350.017 129.265 2
-2 0 33 529.163 196.819 2
0 2 33 402.013 157.093 2
2 1 33 2331.7 333.772 2
-1 2 33 2644.06 361.503 2
1 -2 33 2245.05 318.32 2
-2 -1 33 2224.51 328.372 2
2 -2 33 933.641 209.591 2
-2 -2 33 1515.73 290.439 2
2 2 33 1247.25 230.344 2
-2 2 33 1229.03 237.584 2
3 -2 33 170.942 98.872 2
-2 -3 33 172.652 157.5 2
2 3 33 113.487 90.5192 2
-3 2 33 206.163 140.874 2
3 -1 33 130.949 107.255 2
-1 -3 33 214.465 120.539 2
1 3 33 -117.832 95.5091 2
-3 1 33 228.301 147.158 2
0 -3 33 2480.87 341.828 2
3 0 33 2625.79 335.715 2
-3 0 33 2841.89 370.051 2
0 3 33 2637.23 356.73 2
1 -3 33 -35.9446 76.8161 2
3 1 33 69.0819 74.6435 2
-3 -1 33 376.013 147.839 2
-1 3 33 300.248 135.283 2
2 -3 33 -127.137 115.403 2
-3 -2 33 -195.228 143.284 2
3 2 33 89.0059 105.455 2
-2 3 33 56.919 79.111 2
3 -3 33 541.057 166.611 2
-3 -3 33 442.524 173.61 2
3 3 33 559.91 200.301 2
-3 3 33 337.866 143.433 2
4 -3 33 2002.07 288.964 2
-3 -4 33 1653.58 279.824 2
3 4 33 1684.32 271.618 2
-4 3 33 2071.79 332.433 2
4 -2 33 572.537 150.327 2
-2 -4 33 464.18 162.553 2
2 4 33 621.614 191.141 2
-4 2 33 710.863 199.928 2
4 -1 33 241.5 107.219 2
-1 -4 33 226.667 131.74 2
-4 1 33 186.778 92.8076 2
1 4 33 245.415 124.971 2
0 -4 33 1587.56 272.291 2
4 0 33 1896.65 283.537 2
-4 0 33 1778.38 290.343 2
0 4 33 1639.37 283.056 2
1 -4 33 162.712 98.4833 2
4 1 33 9.79293 71.8811 2
-4 -1 33 360.65 153.72 2
-1 4 33 164.274 102.146 2
2 -4 33 1104.35 218.563 2
4 2 33 788.331 187.408 2
-4 -2 33 866.996 227.887 2
-2 4 33 509.163 156.058 2
3 -4 33 2098.52 318.551 2
-4 -3 33 2188.96 327.844 2
4 3 33 1577.18 279.377 2
-3 4 33 2329.65 317.531 2
4 -4 33 682.262 182.485 2
-4 -4 33 933.233 223.723 2
4 4 33 511.499 187.82 2
-4 4 33 860.049 208.516 2
5 -4 33 144.663 109.015 2
-4 -5 33 176.34 117.174 2
4 5 33 178.306 107.419 2
-5 4 33 293.343 123.461 2
5 -3 33 991.49 211.033 2
-3 -5 33 1023.66 232.499 2
3 5 33 827.447 226.067 2
-5 3 33 1008.27 233.464 2
5 -2 33 821.405 209.565 2
-2 -5 33 1498.03 287.096 2
2 5 33 1282.68 247.861 2
-5 2 33 1431.12 274.423 2
5 -1 33 -200.589 108.803 2
-1 -5 33 -2.69481 77.2457 2
-5 1 33 229.669 149.64 2
1 5 33 159.358 134.461 2
0 -5 33 100.288 89.5949 2
5 0 33 5.73483 81.2703 2
-5 0 33 -43.834 92.5068 2
0 5 33 -49.1344 95.8025 2
1 -5 33 74.1734 77.128 2
5 1 33 81.2461 86.3431 2
-5 -1 33 -0.92608 105.175 2
-1 5 33 -119.506 115.138 2
2 -5 33 1400.38 257.413 2
5 2 33 777.855 201.616 2
-5 -2 33 1581.77 285.609 2
-2 5 33 1430.18 259.255 2
3 -5 33 1127.31 242.643 2
5 3 33 628.014 186.9 2
-5 -3 33 1103.51 239.196 2
-3 5 33 987.904 221.744 2
4 -5 33 341.747 168.341 2
-5 -4 33 -6.37344 84.3681 2
5 4 33 179.001 112.373 2
-4 5 33 175.807 114.762 2
-5 -5 33 554.301 167.528 2
5 5 33 480.893 141.104 2
-5 5 33 603.786 177.07 2
-5 -6 33 262.584 135.506 2
5 6 33 577.24 181.728 2
-6 5 33 598.129 172.296 2
-4 -6 33 67.2678 87.4174 2
4 6 33 -50.6395 117.335 2
-6 4 33 317.086 136.011 2
6 -3 33 1.52854 68.6423 2
-3 -6 33 -60.6712 114.314 2
3 6 33 88.2581 105.129 2
-6 3 33 -38.5559 96.6776 2
6 -2 33 761.589 210.136 2
-2 -6 33 830.353 221.338 2
2 6 33 892.371 233.51 2
-6 2 33 879.281 212.851 2
6 -1 33 60.7734 83.3201 2
-1 -6 33 159.639 104.633 2
-6 1 33 267.087 162.663 2
1 6 33 186.011 122.199 2
0 -6 33 779.787 190.496 2
6 0 33 716.297 170.484 2
-6 0 33 848.642 217.648 2
0 6 33 773.997 215.103 2
1 -6 33 125.288 109.734 2
6 1 33 163.558 117.838 2
-6 -1 33 -48.3511 101.755 2
-1 6 33 282.701 156.948 2
2 -6 33 991.034 207.004 2
6 2 33 1211.92 225.861 2
-6 -2 33 1163.25 239.999 2
-2 6 33 1217.24 246.494 2
3 -6 33 -43.3102 81.949 2
6 3 33 7.47688 94.2756 2
-6 -3 33 -13.4394 73.4656 2
-3 6 33 -92.2231 116.579 2
-6 -4 33 59.4038 80.4531 2
6 4 33 66.824 104.325 2
-4 6 33 -27.3458 92.2776 2
-6 -5 33 711.769 200.791 2
6 5 33 405.164 108.556 2
-5 6 33 361.967 156.297 2
-6 -6 33 74.1798 73.2336 2
6 6 33 207.029 101.616 2
-6 6 33 272.332 126.73 2
-6 -7 33 451.632 168.247 2
6 7 33 277.696 89.233 2
-5 -7 33 1246.48 250.795 2
5 7 33 1461.77 240.732 2
-7 5 33 1439.78 270.998 2
-4 -7 33 452.307 145.065 2
4 7 33 321.28 122.993 2
-7 4 33 304.012 160.917 2
-3 -7 33 542.239 178.633 2
3 7 33 231.515 165.777 2
-7 3 33 268.342 121.127 2
7 -2 33 65.7382 92.7438 2
-2 -7 33 92.2307 88.5163 2
-7 2 33 58.3703 88.4946 2
2 7 33 199.419 122.22 2
7 -1 33 221.051 129.331 2
-1 -7 33 230.837 129.008 2
-7 1 33 331.928 155.758 2
1 7 33 58.5283 77.9768 2
0 -7 33 -115.461 115.288 2
7 0 33 -9.28486 57.0337 2
-7 0 33 -126.612 101.328 2
0 7 33 -22.3405 84.5488 2
1 -7 33 351.35 129.424 2
7 1 33 253.394 99.2933 2
-7 -1 33 287.346 146.292 2
-1 7 33 222.451 141.445 2
7 2 33 167.32 93.2256 2
-7 -2 33 34.9716 91.1927 2
-2 7 33 -27.8679 72.7692 2
7 3 33 529.656 164.589 2
-7 -3 33 574.215 187.619 2
-3 7 33 668.08 175.123 2
-7 -4 33 425.256 171.609 2
-4 7 33 477.754 157.927 2
-7 -5 33 1610.1 280.66 2
-5 7 33 1710.71 283.333 2
-7 -6 33 633.286 171.949 2
-6 7 33 561.865 172.519 2
-7 -7 33 782.734 198.158 2
-7 7 33 744.555 190.459 2
-7 -8 33 135.218 117.588 2
-8 7 33 179.192 130.897 2
-6 -8 33 387.948 154.145 2
-8 6 33 284.624 145.45 2
-5 -8 33 887.289 222.016 2
5 8 33 782.23 189.032 2
-8 5 33 521.654 179.636 2
-4 -8 33 136.344 80.7267 2
4 8 33 83.2267 115.09 2
-8 4 33 175.153 100.346 2
-3 -8 33 106.01 91.1607 2
3 8 33 14.7679 69.5951 2
-8 3 33 -110.784 123.391 2
-2 -8 33 138.623 132.489 2
-8 2 33 -38.5037 77.4866 2
2 8 33 -67.9275 110.556 2
-1 -8 33 137.273 116.927 2
-8 1 33 -11.3296 80.9168 2
1 8 33 98.9453 118.886 2
-8 0 33 184.498 114.829 2
0 8 33 157.151 136.663 2
-8 -1 33 -54.5839 88.9158 2
-1 8 33 564.506 182.313 2
-8 -2 33 -132.941 110.785 2
-2 8 33 -172.259 119.392 2
-8 -3 33 -160.387 102.75 2
-3 8 33 -97.8598 111.007 2
-8 -4 33 -43.3779 84.8166 2
-4 8 33 -73.995 98.0163 2
-8 -5 33 647.057 180.758 2
-5 8 33 624.311 173.428 2
-8 -6 33 199.186 92.9718 2
-6 8 33 202.755 103.603 2
-8 -7 33 235.136 111.028 2
-7 8 33 231.264 117.673 2
-8 -8 33 770.84 206.075 2
-8 8 33 944.082 212.188 2
-9 8 33 936.979 217.203 2
-9 7 33 994.898 216.119 2
-9 6 33 245.809 108.804 2
5 9 33 1125.5 217.982 2
-9 5 33 1120.6 225.89 2
4 9 33 189.931 125.116 2
-9 4 33 432.771 179.226 2
3 9 33 233.883 127.999 2
-9 3 33 314.361 163.129 2
-9 2 33 238.89 116.916 2
2 9 33 273.743 121.67 2
-9 1 33 183.866 121.504 2
1 9 33 177.389 96.9015 2
-9 0 33 211.736 142.385 2
0 9 33 97.0882 100.026 2
-9 -1 33 358.819 182.091 2
-1 9 33 171.718 126.009 2
-9 -2 33 569.383 192.096 2
-2 9 33 213.063 129.949 2
-9 -3 33 420.129 151.81 2
-3 9 33 688.919 199.54 2
-9 -4 33 201.8 126.865 2
-4 9 33 227.229 100.502 2
-9 -5 33 1140.07 226.959 2
-5 9 33 1133.45 236.44 2
-9 -6 33 251.253 139.108 2
-6 9 33 128.131 83.285 2
-9 -7 33 553.559 170.749 2
-7 9 33 755.006 181.817 2
-9 -8 33 442.518 161.394 2
-8 9 33 620.037 156.098 2
-9 9 33 523.398 174.829 2
-10 9 33 335.642 134.936 2
-10 8 33 288.611 126.285 2
-10 7 33 579.56 201.116 2
-10 6 33 243.245 124.985 2
5 10 33 -77.4096 102.269 2
-10 5 33 182.747 128.9 2
4 10 33 101.64 83.5437 2
-10 4 33 330.44 133.04 2
-10 3 33 237.396 125.239 2
3 10 33 -96.5973 120.581 2
-10 2 33 270.001 128.213 2
2 10 33 166.525 93.3638 2
-10 1 33 393.19 175.054 2
1 10 33 47.6683 98.1463 2
-10 0 33 -68.8567 86.493 2
0 10 33 -9.47862 72.5518 2
-10 -1 33 106.516 89.4103 2
-1 10 33 43.3523 80.0792 2
-10 -2 33 289.762 112.177 2
-2 10 33 263.179 150.447 2
-10 -3 33 285.445 140.238 2
-3 10 33 -13.0482 106.252 2
-10 -4 33 250.186 152.18 2
-4 10 33 330.106 134.548 2
-10 -5 33 263.87 137.427 2
-5 10 33 -65.2596 128.841 2
-10 -6 33 142.134 115.522 2
-6 10 33 455.903 168.78 2
-10 -7 33 342.453 147.631 2
-7 10 33 376.493 171.604 2
-10 -8 33 140.123 112.627 2
-8 10 33 146.435 104.029 2
-9 10 33 434.146 154.896 2
-10 10 33 709.813 192.767 2
-11 10 33 445.017 139.228 2
-11 9 33 528.686 174.89 2
-11 8 33 629.59 206.312 2
-11 7 33 1110.27 236.513 2
-11 6 33 606.216 189.927 2
-11 5 33 553.585 178.191 2
4 11 33 640.949 173.84 2
-11 4 33 744.014 199.828 2
-11 3 33 1519.05 264.683 2
3 11 33 835.109 197.44 2
-11 2 33 415.834 160.944 2
2 11 33 432.081 146.845 2
-11 1 33 262.494 134.843 2
1 11 33 172.401 155.582 2
-11 0 33 1317.08 250.087 2
0 11 33 793.639 233.553 2
-11 -1 33 337.117 137.182 2
-1 11 33 29.3907 109.004 2
-11 -2 33 417.409 159.913 2
-2 11 33 252.122 146.902 2
-11 -3 33 1317.16 246.262 2
-3 11 33 958.71 227.105 2
-11 -4 33 335.81 167.229 2
-4 11 33 710.697 188.747 2
-11 -5 33 402.07 184.445 2
-5 11 33 360.321 150.624 2
-11 -6 33 387.798 165.429 2
-6 11 33 385.778 136.596 2
-11 -7 33 670.165 217.547 2
-7 11 33 1094.04 235.644 2
-11 -8 33 144.521 154.415 2
-8 11 33 349.152 143.602 2
-9 11 33 290.993 131.044 2
-10 11 33 360.362 158.418 2
-11 11 33 20.5848 91.414 2
-12 11 33 317.517 137.82 2
-12 10 33 62.0968 173.885 2
-12 9 33 344.348 147.548 2
-12 8 33 126.496 104.265 2
-12 7 33 111.371 96.8426 2
-12 6 33 -15.9007 81.9889 2
-12 5 33 -82.2868 138.324 2
4 12 33 -2.48425 113.361 2
-12 4 33 286.365 95.2872 2
-12 3 33 677.549 201.096 2
3 12 33 588.618 139.417 2
-12 2 33 297.277 145.774 2
2 12 33 90.9214 94.4045 2
-12 1 33 366.897 153.555 2
1 12 33 301.048 103.601 2
-12 0 33 1187.58 239.272 2
0 12 33 884.145 195.326 2
-12 -1 33 403.829 167.856 2
-1 12 33 369.892 150.579 2
-12 -2 33 141.739 145.939 2
-2 12 33 140.088 95.2961 2
-12 -3 33 542.107 204.169 2
-3 12 33 397.192 173.713 2
-12 -4 33 170.003 142.329 2
-4 12 33 525.99 180.265 2
-12 -5 33 12.7915 83.6685 2
-5 12 33 -1.78794 97.1262 2
-12 -6 33 20.2784 93.7697 2
-6 12 33 150.053 132.843 2
-12 -7 33 -24.0133 133.71 2
-7 12 33 104.466 99.4505 2
-8 12 33 430.332 145.995 2
-9 12 33 686.266 185.886 2
-10 12 33 -20.8417 84.2139 2
-11 12 33 154.953 108.998 2
-12 12 33 120.92 117.54 2
-13 12 33 -187.248 128.334 2
-13 11 33 637.836 186.366 2
-13 10 33 178.505 108.83 2
-13 9 33 350.597 157.162 2
-13 8 33 445.375 145.55 2
-13 7 33 478.996 142.933 2
-13 6 33 676.718 213.455 2
-13 5 33 1845.08 304.304 2
-13 4 33 330.052 132.116 2
4 13 33 120.879 166.675 2
-13 3 33 322.753 126.946 2
3 13 33 29.9421 74.1011 2
-13 2 33 1084.57 237.66 2
2 13 33 1204 226.426 2
-13 1 33 726.03 178.554 2
1 13 33 445.679 188.838 2
-13 0 33 196.495 136.971 2
0 13 33 329.724 142.214 2
-13 -1 33 326.911 212.138 2
-1 13 33 792.975 211.12 2
-13 -2 33 587.73 250.573 2
-2 13 33 1362.92 254.849 2
-13 -3 33 46.6482 129.01 2
-3 13 33 204.758 90.8548 2
-13 -4 33 98.4571 132.238 2
-4 13 33 341.222 150.355 2
-13 -5 33 518.624 281.581 2
-5 13 33 1710.73 282.831 2
-13 -6 33 280.211 243.528 2
-6 13 33 321.361 135.513 2
-13 -7 33 94.0562 136.778 2
-7 13 33 192.754 100.945 2
-8 13 33 226.173 110.467 2
-9 13 33 233.916 113.876 2
-10 13 33 336.833 154.678 2
-11 13 33 288.432 138.476 2
-12 13 33 67.6058 81.8176 2
-13 13 33 290.678 142.499 2
-14 13 33 125.878 123.595 2
-14 12 33 70.5748 136.271 2
-14 11 33 217.62 166.48 2
-14 10 33 109.44 126.571 2
-14 9 33 266.543 120.533 2
-14 8 33 -34.1479 71.0053 2
-14 7 33 215.392 177.494 2
-14 6 33 396.547 140.501 2
-14 5 33 328.472 179.536 2
-14 4 33 91.3345 127.718 2
-14 3 33 14.4408 114.919 2
3 14 33 9.91285 70.362 2
-14 2 33 198.219 196.736 2
2 14 33 171.989 194.474 2
-14 1 33 191.036 196.73 2
1 14 33 816.804 196.784 2
-14 0 33 8.95756 87.3855 2
0 14 33 -26.2188 89.3676 2
-14 -1 33 97.414 162.261 2
-1 14 33 652.33 198.673 2
-14 -2 33 821.372 306.955 2
-2 14 33 853.301 205.851 2
-14 -3 33 30.2694 111.428 2
-3 14 33 99.3493 109.868 2
-14 -4 33 8.44783 92.5425 2
-4 14 33 156.312 123.334 2
-14 -5 33 202.809 190.797 2
-5 14 33 584.601 197.87 2
-14 -6 33 55.8916 138.207 2
-6 14 33 497.611 149.793 2
-7 14 33 737.957 189.664 2
-8 14 33 191.099 88.8972 2
-9 14 33 362.665 128.117 2
-10 14 33 85.9891 88.0302 2
-11 14 33 772.691 209.128 2
-12 14 33 72.089 112.54 2
-13 14 33 85.3054 94.7825 2
-14 14 33 39.59 109.377 2
-14 33 15 38.4449 76.9695 2
-15 14 33 28.0991 111.021 2
-13 33 15 -16.6014 77.4846 2
-15 13 33 3.27354 86.1885 2
-15 12 33 23.2916 113.593 2
-15 11 33 -34.3436 98.4445 2
-15 10 33 60.9829 119.481 2
-15 9 33 53.5704 162.029 2
-15 8 33 2.44071 84.8681 2
-15 7 33 123.963 163.151 2
-15 6 33 270.782 184.809 2
-15 5 33 13.6029 89.3077 2
-15 4 33 226.734 167.868 2
-15 3 33 201.249 172.411 2
3 15 33 27.4918 140.395 2
-15 2 33 39.4707 122.406 2
2 15 33 34.9138 136.856 2
-15 1 33 118.441 150.518 2
1 15 33 67.6383 120.433 2
-15 0 33 195.054 205.715 2
0 15 33 380.297 147.541 2
-15 -1 33 -15.9015 99.3929 2
-1 15 33 162.566 116.015 2
-15 -2 33 50.7198 118.255 2
-2 15 33 261.949 137.658 2
-15 -3 33 15.905 141.742 2
-3 15 33 441.522 167.79 2
-15 -4 33 169.845 172.26 2
-4 15 33 588.263 199.618 2
-15 -5 33 -0.32929 97.1289 2
-5 15 33 26.3699 83.9546 2
-15 -6 33 76.0689 140.997 2
-6 15 33 546.641 154.74 2
-7 15 33 432.317 137.074 2
-8 15 33 183.443 114.027 2
-9 15 33 155.851 99.1778 2
-10 15 33 -69.0574 93.1757 2
-11 15 33 155.015 113.444 2
-12 15 33 133.949 105.403 2
-13 15 33 132.51 108.498 2
-15 33 14 138.812 117.189 2
-14 15 33 14.1061 105.709 2
-13 33 16 155.77 116.681 2
-16 13 33 58.9242 122.042 2
-12 33 16 336.118 134.745 2
-16 12 33 106.433 146.934 2
-11 33 16 -24.1682 68.3028 2
-16 11 33 31.9193 106.092 2
-10 33 16 5.3154 81.0371 2
-16 10 33 53.2719 114.686 2
-16 9 33 356.455 226.19 2
-16 8 33 280.393 204.989 2
-16 7 33 16.1677 92.9669 2
-16 6 33 130.46 143.272 2
-16 5 33 92.714 119.801 2
-16 4 33 -21.6329 85.2896 2
-16 3 33 137.243 169.623 2
3 16 33 33.7213 127.02 2
-16 2 33 59.5693 72.0185 2
2 16 33 -0.27399 66.5542 2
-16 1 33 68.9856 109.422 2
1 16 33 -11.1827 57.8819 2
-16 0 33 210.417 191.466 2
0 33 16 538.663 143.586 2
0 16 33 165.972 173.459 2
-16 -1 33 52.9796 106.684 2
1 33 16 82.0241 59.5632 2
-1 16 33 79.5676 95.4433 2
-16 -2 33 112.717 140.701 2
2 33 16 27.2842 62.3262 2
-2 16 33 67.2232 82.4485 2
-16 -3 33 128.986 156.736 2
-3 16 33 725.995 186.848 2
-16 -4 33 13.8033 71.2179 2
-4 16 33 75.459 95.7034 2
-16 -5 33 72.9868 112.025 2
-5 16 33 102.449 104.278 2
-6 16 33 288.963 129.514 2
-7 16 33 258.614 116.001 2
-8 16 33 854.643 184.085 2
-9 16 33 1484.91 254.634 2
-10 16 33 214.851 120.893 2
-11 16 33 184.516 107.945 2
-12 16 33 336.344 139.301 2
-16 33 13 312.364 117.677 2
-13 16 33 311.565 128.199 2
-12 33 17 377.206 121.695 2
-17 12 33 78.6466 116.735 2
-11 33 17 -20.6094 63.0939 2
-17 11 33 3.32367 83.2875 2
-10 33 17 73.5197 97.944 2
-17 10 33 33.4526 155.034 2
-9 33 17 86.8185 109.292 2
-17 9 33 23.8318 126.47 2
-8 33 17 213.677 126.758 2
-17 8 33 23.6691 128.677 2
-17 7 33 36.0408 92.1156 2
-7 33 17 168.054 111.27 2
-17 6 33 57.2755 134.004 2
-6 33 17 282.677 125.512 2
-17 5 33 27.2569 98.7168 2
-5 33 17 -1.81903 73.1807 2
-17 4 33 117.135 169.903 2
-4 33 17 498.31 160.964 2
-17 3 33 -8.77553 60.5773 2
-3 33 17 50.4682 58.5652 2
-17 2 33 377.189 185.672 2
-2 33 17 404.545 153.41 2
2 17 33 207.15 146.064 2
-17 1 33 68.956 87.5467 2
-1 33 17 68.4463 92.7529 2
1 17 33 68.0861 105.469 2
-17 0 33 20.0275 91.6401 2
0 33 17 -27.6318 80.7178 2
0 17 33 7.49702 76.9209 2
-17 -1 33 19.4128 85.1029 2
1 33 17 38.74 68.781 2
-1 17 33 45.363 85.0963 2
-17 -2 33 77.3465 128.448 2
2 33 17 445.782 119.821 2
-2 17 33 300.726 123.322 2
-17 -3 33 -1.17982 79.6174 2
-3 17 33 257.878 129.372 2
-17 -4 33 191.697 151.363 2
-4 17 33 383.073 160.365 2
-5 17 33 37.1152 58.231 2
-6 17 33 284.158 134.133 2
-7 17 33 191.41 135.184 2
-8 17 33 385.035 136.328 2
-9 17 33 135.4 119.008 2
-10 17 33 55.9321 78.144 2
-11 17 33 17.661 65.8272 2
-17 33 12 187.233 113.343 2
-12 17 33 405.327 135.993 2
-10 33 18 480.246 159.965 2
-18 10 33 228.162 161.026 2
-9 33 18 42.1785 82.5111 2
-18 9 33 6.1731 86.8212 2
-8 33 18 175.169 101.852 2
-18 8 33 2.20733 63.188 2
-7 33 18 370.092 155.955 2
-18 7 33 116.552 141.564 2
-6 33 18 38.1596 62.4594 2
-18 6 33 112.787 108.726 2
-5 33 18 128.731 109.727 2
-18 5 33 62.0324 109.325 2
-18 4 33 130.987 138.808 2
-4 33 18 217.074 114.628 2
-18 3 33 33.0407 125.853 2
-3 33 18 25.8333 70.9036 2
-18 2 33 -13.0532 79.6781 2
-2 33 18 -141.958 77.2663 2
2 18 33 92.5439 81.7719 2
-18 1 33 97.8012 134.093 2
-1 33 18 113.503 96.0611 2
1 18 33 87.5261 108.133 2
-18 0 33 3.97269 56.4296 2
0 33 18 58.1516 80.8834 2
0 18 33 25.0586 90.6577 2
1 33 18 177.462 77.9866 2
-18 -1 33 76.9968 124.151 2
-1 18 33 76.1666 126.058 2
-18 -2 33 -23.669 77.4705 2
-2 18 33 1.40875 54.9168 2
-18 -3 33 35.9749 90.7481 2
-3 18 33 49.2539 92.378 2
-4 18 33 91.5688 85.1447 2
-5 18 33 40.2883 100.109 2
-6 18 33 130.374 106.987 2
-7 18 33 488.164 149.092 2
-8 18 33 105.578 98.0153 2
-9 18 33 -16.0348 59.7388 2
-10 18 33 789.811 183.011 2
-9 33 19 50.6289 88.702 2
-19 9 33 0.7086 57.0239 2
-8 33 19 103.947 86.3868 2
-19 8 33 46.3334 90.0424 2
-7 33 19 117.316 94.4576 2
-19 7 33 104.44 105.092 2
-6 33 19 295.366 118.493 2
-19 6 33 200.003 146.654 2
-5 33 19 110.689 96.0622 2
-19 5 33 41.0374 82.7401 2
-4 33 19 147.161 100.426 2
-19 4 33 -28.0857 75.8471 2
-3 33 19 -28.1662 63.9802 2
-19 3 33 6.99088 59.6664 2
-2 33 19 181.91 99.3715 2
-19 2 33 34.4957 64.4256 2
-1 33 19 28.2685 49.0764 2
-19 1 33 -17.187 70.8416 2
1 19 33 5.32793 46.2957 2
0 33 19 115.267 83.2834 2
-19 0 33 19.015 100.954 2
0 19 33 74.4741 89.4706 2
1 33 19 -22.9463 45.4478 2
-19 -1 33 -20.2964 70.495 2
-1 19 33 13.4656 83.6915 2
-19 -2 33 -48.1187 62.3826 2
-2 19 33 54.9958 107.242 2
-3 19 33 8.51042 70.2038 2
-4 19 33 22.482 60.9716 2
-5 19 33 82.4678 93.0037 2
-6 19 33 150.178 110.996 2
-7 19 33 128.172 120.937 2
-8 19 33 -34.3602 86.9653 2
-9 19 33 82.4752 97.9368 2
-6 33 20 174.901 109.017 2
-20 6 33 31.3404 92.5745 2
-5 33 20 297.778 118.347 2
-20 5 33 23.1932 83.5887 2
-4 33 20 -42.0799 68.8505 2
-20 4 33 10.7223 69.2011 2
-3 33 20 -4.36637 48.419 2
-20 3 33 -1.54569 63.5532 2
-2 33 20 26.2103 59.7796 2
-20 2 33 44.529 71.8913 2
-1 33 20 308.887 108.978 2
-20 1 33 27.2664 91.0535 2
0 33 20 23.5798 38.6874 2
-20 0 33 8.74425 69.2726 2
0 20 33 30.9403 69.0091 2
-1 20 33 133.246 114.446 2
-2 20 33 -15.1338 70.1134 2
-3 20 33 75.4625 108.366 2
-4 20 33 114.181 68.1219 2
-5 20 33 337.315 110.75 2
-6 20 33 353.354 121.864 2
-1 33 21 40.7582 52.1117 2
-1 21 33 54.3704 82.7731 2
0 0 34 13.4145 85.0557 2
0 -1 34 978.324 231.27 2
1 0 34 696.893 208.142 2
-1 0 34 828.547 184.317 2
0 1 34 554.326 184.542 2
1 -1 34 -33.0891 102.282 2
-1 -1 34 88.3483 109.598 2
1 1 34 226.338 167.546 2
-1 1 34 464.007 151.864 2
2 -1 34 1232.85 240.758 2
-1 -2 34 1269.67 248.608 2
1 2 34 1725.24 312.017 2
-2 1 34 1170.7 239.998 2
0 -2 34 190.745 98.9561 2
2 0 34 232.909 128.152 2
-2 0 34 40.9841 83.9384 2
0 2 34 113.316 131.404 2
1 -2 34 1095.67 235.785 2
2 1 34 1214.06 235.633 2
-2 -1 34 1657.96 284.932 2
-1 2 34 1325.08 236.069 2
-2 -2 34 -67.3912 101.551 2
2 2 34 41.1537 83.8344 2
-2 2 34 64.5813 85.1431 2
3 -2 34 894.821 221.58 2
-2 -3 34 1083.59 221.257 2
2 3 34 569.021 208.038 2
-3 2 34 1056.94 243.979 2
3 -1 34 1512.91 270.598 2
-1 -3 34 1713.38 280.442 2
1 3 34 1515.61 284.399 2
-3 1 34 1837.61 284.538 2
0 -3 34 862.356 206.327 2
3 0 34 757.568 195.249 2
-3 0 34 911.796 229.102 2
0 3 34 664.016 181.853 2
1 -3 34 1885.76 315.263 2
3 1 34 1199.72 257.091 2
-3 -1 34 1819.54 296.272 2
-1 3 34 1795.98 292.764 2
2 -3 34 682.826 241.829 2
-3 -2 34 738.781 179.702 2
3 2 34 862.425 222.85 2
-2 3 34 1084.63 220.145 2
3 -3 34 -15.4958 96.2277 2
-3 -3 34 19.3191 83.3083 2
3 3 34 -36.9327 89.3066 2
-3 3 34 120.204 96.5786 2
4 -3 34 606.675 195.233 2
-3 -4 34 728.229 190.717 2
3 4 34 963.323 227.48 2
-4 3 34 1117.27 231.514 2
4 -2 34 -5.38649 76.1748 2
-2 -4 34 4.50634 103.889 2
2 4 34 -18.5424 79.7992 2
-4 2 34 59.3224 97.1449 2
4 -1 34 1033.51 228.036 2
-1 -4 34 1091.36 233.509 2
-4 1 34 1207.75 254.879 2
1 4 34 1367.73 259.808 2
0 -4 34 -14.9445 98.5822 2
4 0 34 26.9863 90.233 2
-4 0 34 -55.9899 102.883 2
0 4 34 -28.3987 83.8774 2
1 -4 34 1420.27 252.543 2
4 1 34 1526.06 269.066 2
-4 -1 34 1595.14 273.074 2
-1 4 34 1230.85 225.006 2
2 -4 34 75.8926 75.8211 2
4 2 34 273.773 156.757 2
-4 -2 34 157.9 95.0278 2
-2 4 34 43.9573 124.107 2
3 -4 34 443.232 201.067 2
-4 -3 34 752.324 191.777 2
4 3 34 738.721 185.315 2
-3 4 34 924.511 216.398 2
4 -4 34 34.8679 102.547 2
-4 -4 34 227.75 118.883 2
4 4 34 210.919 112.666 2
-4 4 34 314.576 144.876 2
-4 -5 34 1009.96 219.847 2
4 5 34 831.531 175.959 2
-5 4 34 710.531 188.896 2
5 -3 34 396.477 174.2 2
-3 -5 34 562.828 161.837 2
3 5 34 486.569 200.652 2
-5 3 34 913.892 228.538 2
5 -2 34 275.567 140.425 2
-2 -5 34 484.835 164.728 2
2 5 34 123.172 96.6074 2
-5 2 34 541.073 185.506 2
5 -1 34 270.977 132.488 2
-1 -5 34 714.585 190.373 2
-5 1 34 743.669 209.856 2
1 5 34 545.263 189.224 2
5 0 34 150.465 109.635 2
-5 0 34 311.775 129.91 2
0 5 34 29.6504 81.5002 2
1 -5 34 520.632 150.682 2
5 1 34 338.298 133.012 2
-1 5 34 230.578 120.245 2
2 -5 34 236.876 117.174 2
5 2 34 355.496 123.034 2
-5 -2 34 321.665 144.592 2
-2 5 34 299.834 111.089 2
5 3 34 899.543 205.457 2
-5 -3 34 1041.67 235.689 2
-3 5 34 833.448 221.414 2
-5 -4 34 976.928 213.884 2
5 4 34 649.607 163.67 2
-4 5 34 1074.19 232.475 2
-5 -5 34 69.2474 89.0057 2
5 5 34 -22.4548 65.6436 2
-5 5 34 201.264 111.238 2
-5 -6 34 406.792 152.725 2
5 6 34 455.577 140.488 2
-6 5 34 705.063 203.301 2
-4 -6 34 267.934 149.215 2
4 6 34 10.1714 62.4949 2
-6 4 34 327.643 129.896 2
-3 -6 34 706.377 169.979 2
3 6 34 623.166 174.603 2
-6 3 34 749.276 172.037 2
-2 -6 34 182.493 121.944 2
2 6 34 193.393 139.137 2
-6 2 34 308.315 114.802 2
6 -1 34 387.024 144.405 2
-6 1 34 555.698 165.339 2
1 6 34 138.718 110.951 2
6 0 34 247.922 129.951 2
-6 0 34 111.285 116.813 2
0 6 34 -4.83039 81.4914 2
1 -6 34 575.64 183.536 2
6 1 34 251.327 119.847 2
-6 -1 34 546.086 167.163 2
-1 6 34 456.362 191.073 2
6 2 34 5.42248 95.6753 2
-6 -2 34 190.256 113.965 2
-2 6 34 120.264 116.442 2
6 3 34 720.667 177.927 2
-6 -3 34 848.884 195.439 2
-3 6 34 948.684 218.474 2
6 4 34 199.45 70.3909 2
-6 -4 34 340.013 141.907 2
-4 6 34 133.749 94.2807 2
-6 -5 34 672.749 180.1 2
6 5 34 620.416 146.731 2
-5 6 34 706.602 193.057 2
-6 -6 34 784.048 191.229 2
-6 6 34 781.375 176.217 2
-6 -7 34 781.575 205.5 2
-7 6 34 939.973 225.862 2
-5 -7 34 257.789 147.177 2
5 7 34 167.299 121.625 2
-7 5 34 196.364 123.345 2
-4 -7 34 428.776 125.578 2
4 7 34 332.052 113.008 2
-7 4 34 583.289 182.769 2
-3 -7 34 -22.7155 93.552 2
3 7 34 37.4669 101.437 2
-7 3 34 -47.4981 108.678 2
-2 -7 34 -13.205 90.7613 2
-7 2 34 310.094 135.969 2
2 7 34 178.155 107.848 2
-1 -7 34 276.023 141.065 2
-7 1 34 278.984 97.4304 2
1 7 34 10.9725 85.8937 2
7 0 34 82.0823 80.1409 2
-7 0 34 36.6456 80.2908 2
0 7 34 19.9441 92.0634 2
7 1 34 61.2765 72.1899 2
-7 -1 34 178.49 120.899 2
-1 7 34 78.5396 137.926 2
7 2 34 169.541 113.289 2
-7 -2 34 94.1619 100.021 2
-2 7 34 198.199 137.246 2
-7 -3 34 77.2932 90.8861 2
-3 7 34 -1.23968 88.7548 2
-7 -4 34 266.258 117.766 2
-4 7 34 280.356 125.533 2
-7 -5 34 13.8149 99.5632 2
-5 7 34 45.1627 72.8047 2
-7 -6 34 1145.32 249.502 2
-6 7 34 843.431 207.727 2
-7 -7 34 152.51 103.902 2
-7 7 34 37.5291 98.7919 2
-8 7 34 688.812 157.88 2
-8 6 34 147.603 112.323 2
5 8 34 23.4042 153.243 2
-8 5 34 623.75 190.186 2
4 8 34 364.086 147.157 2
-8 4 34 910.112 224.774 2
3 8 34 -86.2384 93.0624 2
-8 3 34 -3.18273 114.209 2
-8 2 34 80.6682 105.594 2
2 8 34 2.36298 101.355 2
1 8 34 618.929 324.463 2
-8 1 34 135.303 111.312 2
-8 0 34 149.91 116.415 2
0 8 34 45.5657 102.487 2
-8 -1 34 8.25833 94.7441 2
-1 8 34 79.6508 96.6251 2
-8 -2 34 -61.8459 87.4911 2
-2 8 34 -44.312 106.278 2
-8 -3 34 47.3063 82.6835 2
-3 8 34 -58.5584 114.773 2
-8 -4 34 696.162 212.758 2
-4 8 34 901.997 215.568 2
-8 -5 34 458.798 168.798 2
-5 8 34 642.471 184.625 2
-8 -6 34 96.7863 87.6127 2
-6 8 34 2.2434 106.146 2
-8 -7 34 517.933 164.555 2
-7 8 34 919.523 198.422 2
-8 8 34 763.491 174.444 2
-9 8 34 476.625 148.928 2
-9 7 34 857.438 200.369 2
-9 6 34 227.32 133.031 2
5 9 34 34.4708 103.761 2
-9 5 34 114.944 101.853 2
4 9 34 21.0397 145.497 2
-9 4 34 -105.242 111.243 2
3 9 34 133.281 124.523 2
-9 3 34 244.6 162.077 2
-9 2 34 290.452 133.979 2
2 9 34 83.744 64.0652 2
-9 1 34 -4.39677 100.712 2
1 9 34 194.929 104.372 2
-9 0 34 144.066 139.83 2
0 9 34 73.5298 82.9264 2
-9 -1 34 85.8068 109.528 2
-1 9 34 75.9515 103.919 2
-9 -2 34 130.121 105.406 2
-2 9 34 8.80998 82.5264 2
-9 -3 34 89.5724 72.7502 2
-3 9 34 126.538 114.983 2
-9 -4 34 -29.1876 75.6773 2
-4 9 34 203.41 121.974 2
-9 -5 34 110.181 104.786 2
-5 9 34 305.255 132.325 2
-9 -6 34 104.12 102.175 2
-6 9 34 80.6285 71.0309 2
-9 -7 34 728.268 191.937 2
-7 9 34 713.247 184.146 2
-8 9 34 524.101 162.388 2
-9 9 34 279.78 124.098 2
-10 9 34 404.779 145.944 2
-10 8 34 213.434 118.44 2
-10 7 34 122.613 95.72 2
-10 6 34 1426.82 276.447 2
-10 5 34 479.298 161.094 2
4 10 34 6.87155 92.2066 2
-10 4 34 234.07 119.236 2
-10 3 34 437.642 149.969 2
3 10 34 151 129.757 2
-10 2 34 187.401 123.637 2
2 10 34 167.582 132.031 2
-10 1 34 83.7069 101.33 2
1 10 34 160.491 112.716 2
-10 0 34 247.231 140.631 2
0 10 34 467.251 146.048 2
-10 -1 34 100.378 100.228 2
-1 10 34 105.49 99.8392 2
-10 -2 34 263.419 131.659 2
-2 10 34 261.804 118.509 2
-10 -3 34 153.82 140.923 2
-3 10 34 152.449 141.1 2
-10 -4 34 265.606 142.326 2
-4 10 34 191.507 107.898 2
-10 -5 34 262.756 119.211 2
-5 10 34 725.065 186.654 2
-10 -6 34 789.81 229.198 2
-6 10 34 782.475 182 2
-10 -7 34 248.669 117.476 2
-7 10 34 86.5863 91.9792 2
-8 10 34 181.286 95.9022 2
-9 10 34 254.184 97.4248 2
-10 10 34 227.113 141.941 2
-11 10 34 504.652 161.309 2
-11 9 34 154.067 115.213 2
-11 8 34 -5.06977 81.2499 2
-11 7 34 336.201 109.719 2
-11 6 34 -1.74625 76.7691 2
-11 5 34 231.696 124.879 2
4 11 34 -15.6709 96.0877 2
-11 4 34 267.999 113.801 2
-11 3 34 856.418 219.257 2
3 11 34 45.7204 207.01 2
-11 2 34 134.444 99.6087 2
2 11 34 331.262 142.294 2
-11 1 34 541.782 167.797 2
1 11 34 171.678 129.603 2
-11 0 34 125.41 128.01 2
0 11 34 -10.3929 77.4706 2
-11 -1 34 323.76 143.742 2
-1 11 34 184.625 120.959 2
-11 -2 34 227.475 151.442 2
-2 11 34 391.652 168.526 2
-11 -3 34 1240.37 283.739 2
-3 11 34 1095.41 239.456 2
-11 -4 34 107.11 121.391 2
-4 11 34 143.638 123.737 2
-11 -5 34 173.734 129.812 2
-5 11 34 307.439 147.308 2
-11 -6 34 90.5632 127.328 2
-6 11 34 126.155 107.661 2
-11 -7 34 59.9634 83.0814 2
-7 11 34 126.121 88.5103 2
-8 11 34 162.541 123.724 2
-9 11 34 149.127 101.773 2
-10 11 34 426.528 140.79 2
-11 11 34 17.3497 83.3904 2
-12 11 34 85.4559 95.4791 2
-12 10 34 337.517 132.173 2
-12 9 34 461.472 155.886 2
-12 8 34 1102.72 216.424 2
-12 7 34 697.336 197.984 2
-12 6 34 104.443 100.535 2
-12 5 34 177.405 120.148 2
4 12 34 140.27 172.963 2
-12 4 34 1295.34 240.143 2
-12 3 34 67.1308 79.5747 2
3 12 34 -21.918 92.6237 2
-12 2 34 831.986 207.509 2
2 12 34 36.7555 179.458 2
-12 1 34 983.728 227.085 2
1 12 34 856.295 198.581 2
-12 0 34 49.9131 68.9008 2
0 12 34 184.125 113.252 2
-12 -1 34 801.59 186.334 2
-1 12 34 845.368 210.17 2
-12 -2 34 780.056 220.766 2
-2 12 34 812.04 194.154 2
-12 -3 34 164.241 135.985 2
-3 12 34 245.451 147.026 2
-12 -4 34 354.484 198.322 2
-4 12 34 1079.05 219.01 2
-12 -5 34 93.4212 152.515 2
-5 12 34 347.732 138.296 2
-12 -6 34 46.5869 129.082 2
-6 12 34 26.2974 78.8015 2
-7 12 34 625.46 152.076 2
-8 12 34 1116.66 216.792 2
-9 12 34 291.009 136.91 2
-10 12 34 318.551 134.772 2
-11 12 34 38.7766 86.5586 2
-12 12 34 -15.6431 69.1137 2
-13 12 34 166.795 102.483 2
-13 11 34 248.732 133.09 2
-13 10 34 384.511 162.174 2
-13 9 34 26.5889 81.9872 2
-13 8 34 353.15 151.458 2
-13 7 34 84.4678 104.913 2
-13 6 34 636.991 185.731 2
-13 5 34 333.265 155.915 2
-13 4 34 1970.1 377.587 2
-13 3 34 28.9815 91.6076 2
3 13 34 15.7682 74.6661 2
-13 2 34 447.817 143.588 2
2 13 34 142.835 146.687 2
-13 1 34 751.815 212.162 2
1 13 34 233.169 204.406 2
-13 0 34 22.3509 87.6202 2
0 13 34 125.307 111.182 2
-13 -1 34 158.88 204.225 2
-1 13 34 568.346 185.54 2
-13 -2 34 76.2075 142.081 2
-2 13 34 383.102 170.788 2
-13 -3 34 24.1627 104.091 2
-3 13 34 76.2188 61.63 2
-13 -4 34 72.3909 90.5172 2
-4 13 34 139.695 113.149 2
-13 -5 34 199.227 161.538 2
-5 13 34 457.278 149.613 2
-13 -6 34 367.326 195.227 2
-6 13 34 729.107 180.995 2
-7 13 34 117.226 84.1054 2
-8 13 34 454.106 154.483 2
-9 13 34 9.48832 79.7333 2
-10 13 34 232.776 127.114 2
-11 13 34 147.86 78.4371 2
-12 13 34 137.963 90.0004 2
-13 13 34 106.25 131.125 2
-13 34 14 415.745 143.768 2
-14 13 34 48.9009 111.862 2
-14 12 34 105.525 137.992 2
-14 11 34 8.81663 91.4985 2
-14 10 34 23.4345 130.093 2
-14 9 34 27.3788 82.5063 2
-14 8 34 78.024 129.722 2
-14 7 34 83.9812 106.039 2
-14 6 34 198.57 204.745 2
-14 5 34 65.888 99.3067 2
-14 4 34 227.482 154.994 2
-14 3 34 311.224 238.955 2
3 14 34 192.683 172.809 2
-14 2 34 63.2672 121.873 2
2 14 34 20.7228 104.893 2
-14 1 34 29.776 131.12 2
1 14 34 68.0605 137.928 2
-14 0 34 517.814 236.995 2
0 14 34 350.781 200.433 2
-14 -1 34 144.959 146.621 2
-1 14 34 215.303 147.281 2
-14 -2 34 7.46769 71.7815 2
-2 14 34 37.7803 97.1336 2
-14 -3 34 272.61 233.384 2
-3 14 34 1226.35 244.731 2
-14 -4 34 30.2926 116.316 2
-4 14 34 318.726 115.875 2
-14 -5 34 76.6311 141.437 2
-5 14 34 237.583 132.18 2
-6 14 34 377.906 165.574 2
-7 14 34 80.3974 90.5209 2
-8 14 34 96.3752 89.857 2
-9 14 34 88.095 98.5678 2
-10 14 34 281.228 121.911 2
-11 14 34 -38.6617 73.0994 2
-12 14 34 409.376 152.592 2
-13 14 34 286.165 139.59 2
-12 34 15 569.087 143.884 2
-15 12 34 141.546 146.883 2
-11 34 15 173.115 102.138 2
-15 11 34 29.0181 108.996 2
-15 10 34 102.544 150.87 2
-15 9 34 165.357 170.362 2
-15 8 34 403.277 228.766 2
-15 7 34 -5.58249 92.6052 2
-15 6 34 -17.6625 78.8784 2
-15 5 34 109.812 104.201 2
-15 4 34 100.365 166.247 2
-15 3 34 65.9126 97.6122 2
-15 2 34 39.5599 117.86 2
2 15 34 73.7918 110.239 2
-15 1 34 86.7054 132.14 2
1 15 34 72.6263 121.312 2
-15 0 34 -6.86704 73.6265 2
0 34 15 -13.4658 58.9166 2
0 15 34 12.3214 107.981 2
-15 -1 34 43.1111 119.482 2
1 34 15 144.697 110.291 2
-1 15 34 142.95 103.167 2
-15 -2 34 31.7414 109.055 2
2 34 15 229.779 93.6888 2
-2 15 34 152.192 96.9283 2
-15 -3 34 49.5903 124.799 2
-3 15 34 185.302 133.626 2
-15 -4 34 137.093 168.687 2
-4 15 34 696.085 186.178 2
-5 15 34 120.265 113.184 2
-6 15 34 12.7508 69.3364 2
-7 15 34 80.9616 87.8807 2
-8 15 34 1632.72 248.154 2
-9 15 34 954.93 201.397 2
-10 15 34 355.52 128.235 2
-11 15 34 63.1317 96.7555 2
-12 15 34 436.617 142.707 2
-10 34 16 204.577 122.169 2
-16 10 34 24.0224 194.593 2
-9 34 16 57.9655 55.2063 2
-16 9 34 269.337 124.751 2
-16 8 34 43.3747 106.245 2
-8 34 16 66.5219 97.7919 2
-16 7 34 68.2083 134.977 2
-7 34 16 135.103 105.894 2
-16 6 34 -55.9376 61.642 2
-6 34 16 68.6434 55.2708 2
-16 5 34 352.031 215.224 2
-5 34 16 916.039 194.842 2
-16 4 34 87.1306 119.996 2
-4 34 16 159.323 95.253 2
-16 3 34 32.8277 105.386 2
-3 34 16 122.424 107.042 2
-16 2 34 77.1311 132.515 2
-2 34 16 225.049 90.5416 2
2 16 34 34.8286 101.015 2
-16 1 34 83.5957 156.753 2
-1 34 16 322.243 118.906 2
1 16 34 188.79 180.749 2
-16 0 34 19.8524 99.7837 2
0 34 16 105.777 115.849 2
0 16 34 8.63568 79.7437 2
-16 -1 34 170.145 167.198 2
1 34 16 475.44 121.591 2
-1 16 34 262.773 164.44 2
-16 -2 34 63.4434 103.925 2
-2 16 34 131.951 134.334 2
-16 -3 34 -26.9038 69.023 2
-3 16 34 107.662 102.602 2
-16 -4 34 19.7603 99.2119 2
-4 16 34 92.2342 79.8943 2
-5 16 34 797.496 209.42 2
-6 16 34 8.25769 58.2497 2
-7 16 34 236.552 150.631 2
-8 16 34 175.549 121.239 2
-9 16 34 142.781 111.442 2
-10 16 34 347.039 124.254 2
-9 34 17 108.891 86.7888 2
-17 9 34 -26.4275 60.617 2
-8 34 17 64.3258 67.8106 2
-17 8 34 -3.83648 66.1711 2
-7 34 17 1119.62 208.186 2
-17 7 34 148.247 186.948 2
-17 6 34 189.983 190.477 2
-6 34 17 782.039 186.518 2
-17 5 34 -19.2775 59.4537 2
-5 34 17 0.26358 62.3557 2
-17 4 34 7.17901 62.815 2
-4 34 17 37.6169 56.833 2
-17 3 34 9.73857 65.1595 2
-3 34 17 22.6302 84.8502 2
-17 2 34 -28.7299 59.2219 2
-2 34 17 105.818 86.4595 2
1 17 34 -17.6849 453.415 2
-17 1 34 6.43042 85.0942 2
-1 34 17 101.641 94.1656 2
-17 0 34 44.0193 100.817 2
0 34 17 129.635 86.0181 2
0 17 34 87.0642 95.6003 2
-17 -1 34 34.3352 89.96 2
1 34 17 44.6673 58.9639 2
-1 17 34 7.53293 96.5974 2
-17 -2 34 -15.6615 51.7626 2
-2 17 34 95.7622 107.918 2
-17 -3 34 164.545 106.618 2
-3 17 34 46.6916 81.6375 2
-4 17 34 368.787 128.806 2
-5 17 34 -17.1927 75.0671 2
-6 17 34 449.097 181.623 2
-7 17 34 564.884 172.918 2
-8 17 34 57.2445 71.9875 2
-9 17 34 1.07606 54.6714 2
-7 34 18 354.403 128.31 2
-18 7 34 89.062 136.35 2
-6 34 18 45.6092 65.9731 2
-18 6 34 51.3685 56.8932 2
-5 34 18 328.675 123.234 2
-18 5 34 181.895 143.076 2
-4 34 18 15.0848 46.5087 2
-18 4 34 41.3113 106.621 2
-3 34 18 340.186 142.017 2
-18 3 34 80.5209 138.095 2
-2 34 18 106.385 75.6755 2
-18 2 34 -20.7486 62.8389 2
-1 34 18 101.382 79.8935 2
-18 1 34 -22.7775 78.4585 2
1 18 34 -26.0493 52.5766 2
0 34 18 141.767 69.2496 2
-18 0 34 68.3993 89.2669 2
0 18 34 19.1965 82.5141 2
-18 -1 34 38.4127 63.0551 2
-1 18 34 25.2749 80.3304 2
-2 18 34 47.5971 77.1662 2
-3 18 34 225.739 137.57 2
-4 18 34 142.838 101.089 2
-5 18 34 342.522 120.682 2
-6 18 34 -197.01 86.1216 2
-7 18 34 185.067 116.427 2
-3 34 19 11.1076 41.5682 2
-19 3 34 23.7966 78.5684 2
-2 34 19 143.439 74.2831 2
-19 2 34 54.2497 115.152 2
-1 34 19 49.9039 57.7415 2
-19 1 34 2.88022 47.5337 2
-19 0 34 -69.4714 87.8698 2
0 19 34 -26.0515 42.0209 2
-1 19 34 64.8038 81.3614 2
-2 19 34 42.0914 107.727 2
-3 19 34 34.9538 51.0629 2
0 0 35 3.95339 107.131 2
0 -1 35 606.502 175.693 2
1 0 35 755.267 195.668 2
-1 0 35 1010.34 223.248 2
0 1 35 523.279 203.056 2
1 -1 35 25.1939 84.8513 2
-1 -1 35 74.275 86.2182 2
1 1 35 150.972 129.202 2
-1 1 35 47.6498 75.2586 2
2 -1 35 2.26505 98.0976 2
-1 -2 35 -25.6067 67.352 2
1 2 35 175.547 117.754 2
-2 1 35 -85.0514 100.065 2
0 -2 35 616.378 172.17 2
2 0 35 469.175 187.121 2
-2 0 35 584.383 165.84 2
0 2 35 419.947 169.999 2
1 -2 35 -208.405 109.957 2
2 1 35 -16.5021 91.4789 2
-2 -1 35 54.1256 76.1638 2
-1 2 35 35.4464 72.7994 2
2 -2 35 286.974 137.279 2
-2 -2 35 201.56 137.485 2
2 2 35 377.328 141.207 2
-2 2 35 396.599 138.98 2
3 -2 35 864.919 223.154 2
-2 -3 35 1335.12 247.692 2
2 3 35 1231.61 235.14 2
-3 2 35 1481.23 264.345 2
3 -1 35 52.0344 86.6826 2
-1 -3 35 -56.0675 78.6558 2
1 3 35 -47.7514 89.6308 2
-3 1 35 -70.5264 99.704 2
0 -3 35 -0.19614 82.1882 2
0 3 35 -58.3772 110.715 2
1 -3 35 168.07 130.319 2
3 1 35 -78.1689 109.563 2
-3 -1 35 0.40763 77.2748 2
-1 3 35 -142.604 128.083 2
2 -3 35 647.884 237.974 2
-3 -2 35 1386.96 253.471 2
3 2 35 1052.85 232.714 2
-2 3 35 1535.47 268.614 2
3 -3 35 -63.5937 91.4376 2
-3 -3 35 -30.6148 80.505 2
3 3 35 -61.7649 75.494 2
-3 3 35 50.6314 77.0482 2
-3 -4 35 258.404 135.675 2
3 4 35 101.992 64.3228 2
4 -2 35 433.735 158.832 2
-2 -4 35 471.153 167.232 2
2 4 35 339.183 147.659 2
-4 2 35 450.977 180.731 2
4 -1 35 402.703 160.759 2
-1 -4 35 550.787 198.336 2
-4 1 35 505.176 184.48 2
1 4 35 88.6049 116.404 2
0 -4 35 577.959 186.862 2
4 0 35 584.016 184.701 2
-4 0 35 695.908 185.944 2
0 4 35 335.774 181.554 2
1 -4 35 280.363 157.869 2
4 1 35 205.738 137.435 2
-4 -1 35 357.537 128.274 2
-1 4 35 302.781 164.463 2
2 -4 35 173.822 79.3525 2
4 2 35 351.198 155.705 2
-4 -2 35 221.6 131.786 2
-2 4 35 203.063 126.668 2
-4 -3 35 347.736 139.632 2
4 3 35 185.842 122.983 2
-3 4 35 180.056 129.201 2
-4 -4 35 639.866 166.738 2
4 4 35 736.595 180.005 2
-4 4 35 833.241 196.792 2
-4 -5 35 1180.18 234.297 2
4 5 35 1120.61 208.171 2
-5 4 35 1635.43 271.679 2
-3 -5 35 70.3821 114.99 2
3 5 35 -6.99054 65.1884 2
-5 3 35 305.062 146.849 2
-2 -5 35 654.863 190.038 2
2 5 35 617.106 169.189 2
-5 2 35 618.344 185.168 2
5 -1 35 41.7032 83.7972 2
-1 -5 35 148.234 124.604 2
-5 1 35 -55.0095 110.694 2
1 5 35 -0.73541 89.0979 2
0 -5 35 1287.4 248.018 2
5 0 35 1229.88 236.112 2
-5 0 35 1682.15 271.773 2
0 5 35 727.568 241.577 2
5 1 35 80.5849 97.5682 2
-5 -1 35 256.008 151.671 2
-1 5 35 69.5312 109.213 2
5 2 35 285.135 136.629 2
-5 -2 35 355.922 142.379 2
-2 5 35 462.535 178.549 2
5 3 35 41.5259 89.5553 2
-5 -3 35 -31.2239 86.238 2
-3 5 35 -90.9853 96.3574 2
-5 -4 35 1570.89 271.322 2
5 4 35 924.672 203.473 2
-4 5 35 992.899 219.234 2
-5 -5 35 97.402 90.9919 2
5 5 35 13.9578 101.724 2
-5 5 35 300.781 125.559 2
-5 -6 35 525.8 135.704 2
5 6 35 122.14 171.796 2
-4 -6 35 -8.48795 75.4137 2
4 6 35 59.2111 84.8169 2
-6 4 35 -48.8745 91.5249 2
-3 -6 35 299.726 129.987 2
3 6 35 148.211 105.17 2
-6 3 35 262.534 142.64 2
-2 -6 35 451.606 163.03 2
2 6 35 190.737 105.446 2
-6 2 35 411.673 158.849 2
-6 1 35 106.224 112.777 2
1 6 35 -14.0539 93.579 2
-6 0 35 445.849 125.151 2
0 6 35 184.201 159.377 2
6 1 35 88.6524 133.719 2
-6 -1 35 193.628 114.17 2
-1 6 35 -17.0339 89.5477 2
6 2 35 9.36716 97.0271 2
-2 6 35 148.952 128.157 2
6 3 35 10.6521 118.912 2
-6 -3 35 323.143 138.534 2
-3 6 35 232.585 90.45 2
6 4 35 5.76644 56.8322 2
-4 6 35 102.51 101.383 2
-6 -5 35 441.919 136.968 2
-5 6 35 582.359 168.56 2
-6 -6 35 -73.8568 72.9336 2
-6 6 35 -85.4414 105.908 2
-7 6 35 713.944 193.541 2
5 7 35 75.8421 79.0689 2
-7 5 35 9.38352 90.8212 2
4 7 35 10.6637 135.008 2
-7 4 35 645.639 188.767 2
3 7 35 -12.5985 73.3725 2
-7 3 35 -94.2849 88.0558 2
2 7 35 258.605 139.397 2
-7 2 35 454.285 143.101 2
-7 1 35 152.583 138.854 2
1 7 35 99.7103 93.2744 2
-7 0 35 418.582 151.268 2
0 7 35 202.03 144.071 2
-7 -1 35 97.0374 89.8094 2
-1 7 35 96.1722 97.2875 2
-7 -2 35 422.636 184.6 2
-2 7 35 83.4456 104.554 2
-7 -3 35 -6.64387 76.6968 2
-3 7 35 60.9931 77.5687 2
-7 -4 35 329.826 139.478 2
-4 7 35 641.462 171.338 2
-7 -5 35 86.5818 104.472 2
-5 7 35 -39.5385 91.7378 2
-7 -6 35 753.706 181.94 2
-6 7 35 656.927 166.723 2
-7 7 35 284.913 112.255 2
-8 7 35 89.8829 78.0101 2
-8 6 35 1228.63 225.353 2
-8 5 35 334.573 146.71 2
4 8 35 28.4205 71.1604 2
-8 4 35 139.48 106.789 2
3 8 35 214.725 129.409 2
-8 3 35 683.291 179.02 2
-8 2 35 64.2894 69.2832 2
2 8 35 80.9351 87.0872 2
-8 1 35 113.526 120.349 2
1 8 35 -58.9441 101.27 2
-8 0 35 131.403 130.231 2
0 8 35 35.4579 68.8088 2
-8 -1 35 94.4189 95.3823 2
-1 8 35 40.4757 95.2038 2
-8 -2 35 92.3068 79.8098 2
-2 8 35 124.671 97.8646 2
-8 -3 35 1190.17 282.061 2
-3 8 35 427.453 171.452 2
-8 -4 35 33.2415 86.7097 2
-4 8 35 139.439 130.954 2
-8 -5 35 322.981 138.958 2
-5 8 35 441.191 160.263 2
-8 -6 35 929.216 223.568 2
-6 8 35 1253.8 228.905 2
-7 8 35 646.883 165.786 2
-8 8 35 -6.22248 95.0636 2
-9 8 35 537.211 161.747 2
-9 7 35 421.603 150.751 2
-9 6 35 837.038 193.266 2
-9 5 35 12.4627 84.9511 2
4 9 35 36.3785 97.439 2
-9 4 35 -77.6201 109.486 2
3 9 35 29.2256 105.515 2
-9 3 35 38.7973 75.6484 2
-9 2 35 231.602 144.601 2
2 9 35 50.8007 96.9073 2
-9 1 35 1067.03 275.882 2
1 9 35 -77.3558 110.713 2
-9 0 35 35.9498 96.7842 2
0 9 35 95.8002 93.8907 2
-9 -1 35 -134.588 127.996 2
-1 9 35 -87.1027 76.7854 2
-9 -2 35 101.177 103.808 2
-2 9 35 32.3903 100.734 2
-9 -3 35 251.998 132.14 2
-3 9 35 81.9249 110.46 2
-9 -4 35 551.551 213.285 2
-4 9 35 -145.112 117.11 2
-9 -5 35 247.475 150.486 2
-5 9 35 -79.9861 108.03 2
-9 -6 35 441.452 134.363 2
-6 9 35 766.443 183.388 2
-7 9 35 281.301 105.875 2
-8 9 35 427.485 135.098 2
-9 9 35 508.281 157.577 2
-10 9 35 333.474 151.358 2
-10 8 35 508.311 158.337 2
-10 7 35 252.199 132.334 2
-10 6 35 160.287 112.025 2
-10 5 35 115.57 84.8832 2
4 10 35 155.648 166.302 2
-10 4 35 657.667 182.435 2
3 10 35 67.4477 76.1046 2
-10 3 35 193.222 123.231 2
-10 2 35 461.645 163.226 2
2 10 35 11.8309 134.799 2
-10 1 35 160.116 106.843 2
1 10 35 27.645 60.4217 2
-10 0 35 1107.62 224.644 2
0 10 35 378.728 157.859 2
-10 -1 35 114.304 96.6486 2
-1 10 35 131.132 98.7607 2
-10 -2 35 416.798 148.48 2
-2 10 35 185.605 119.977 2
-10 -3 35 81.8489 98.9594 2
-3 10 35 139.228 118.292 2
-10 -4 35 485.839 149.163 2
-4 10 35 1177.26 263.661 2
-10 -5 35 173.389 125.735 2
-5 10 35 110.429 87.4195 2
-10 -6 35 262.332 146.864 2
-6 10 35 490.825 151.563 2
-7 10 35 327.858 126.635 2
-8 10 35 677.199 171.807 2
-9 10 35 103.517 105.671 2
-10 10 35 -46.4803 90.9032 2
-11 10 35 313.22 130.579 2
-11 9 35 281.213 138.742 2
-11 8 35 341.77 144.655 2
-11 7 35 221.754 123.73 2
-11 6 35 163.219 105.679 2
-11 5 35 632.97 194.949 2
-11 4 35 72.8413 78.6069 2
-11 3 35 296.92 147.836 2
3 11 35 46.3446 113.445 2
-11 2 35 372.639 147.552 2
2 11 35 121.28 150.345 2
-11 1 35 356.315 147.373 2
1 11 35 354.387 146.429 2
-11 0 35 -51.5506 101.653 2
0 11 35 42.6406 59.618 2
-11 -1 35 526.74 199.41 2
-1 11 35 272.267 154.157 2
-11 -2 35 435.466 162.452 2
-2 11 35 240.755 129.916 2
-11 -3 35 147.6 115.711 2
-3 11 35 110.279 96.2667 2
-11 -4 35 225.602 128.446 2
-4 11 35 241.464 121.968 2
-11 -5 35 297.578 175.781 2
-5 11 35 750.736 194.33 2
-6 11 35 258.121 127.318 2
-7 11 35 266.953 110.122 2
-8 11 35 273.248 119.567 2
-9 11 35 321.272 140.879 2
-10 11 35 417.552 172.705 2
-11 11 35 378.081 146.908 2
-12 11 35 99.5061 87.7715 2
-12 10 35 146.157 94.7149 2
-12 9 35 102.713 105.77 2
-12 8 35 50.7241 73.9771 2
-12 7 35 261.927 115.972 2
-12 6 35 -11.1972 79.6473 2
-12 5 35 179.64 131.691 2
-12 4 35 286.069 125.34 2
-12 3 35 56.3311 95.2412 2
3 12 35 5.94147 77.3314 2
-12 2 35 687.131 192.758 2
2 12 35 213.103 174.391 2
-12 1 35 88.4491 91.1785 2
1 12 35 -11.0766 64.7927 2
-12 0 35 393.328 201.635 2
0 12 35 116.093 222.8 2
-12 -1 35 132.817 120.865 2
-1 12 35 131.657 107.952 2
-12 -2 35 119.377 164.891 2
-2 12 35 470.087 190.281 2
-12 -3 35 14.0202 65.0142 2
-3 12 35 -38.2904 64.8933 2
-12 -4 35 91.7302 120.199 2
-4 12 35 414.723 133.558 2
-12 -5 35 105.188 150.376 2
-5 12 35 188.063 126.602 2
-6 12 35 240.425 137.418 2
-7 12 35 358.494 145.251 2
-8 12 35 -49.2173 69.9396 2
-9 12 35 84.9966 79.3147 2
-10 12 35 127.166 92.1207 2
-11 12 35 76.8074 99.8909 2
-12 12 35 55.7595 87.6299 2
-13 11 35 115.391 108.253 2
-13 10 35 18.2695 71.7209 2
-13 9 35 100.386 138.551 2
-13 8 35 -3.42014 108.884 2
-13 7 35 510.918 195.537 2
-13 6 35 187.768 177.818 2
-13 5 35 82.5019 109.673 2
-13 4 35 155.727 151.613 2
-13 3 35 230.68 174.838 2
3 13 35 153.052 117.162 2
-13 2 35 38.6463 122.574 2
2 13 35 -8.87888 103.978 2
-13 1 35 118.486 175.782 2
1 13 35 92.7016 143.163 2
-13 0 35 216.638 209.947 2
0 13 35 264.255 187.749 2
-13 -1 35 112.931 159.703 2
-1 13 35 11.653 128.623 2
-13 -2 35 57.4671 93.7048 2
-2 13 35 98.023 107.205 2
-13 -3 35 271.17 167.425 2
-3 13 35 370.701 159.546 2
-13 -4 35 126.245 133.459 2
-4 13 35 304.239 138.915 2
-13 -5 35 64.2786 122.338 2
-5 13 35 39.6289 106.693 2
-6 13 35 393.422 156.109 2
-7 13 35 1153.46 222.701 2
-8 13 35 45.4812 68.0367 2
-9 13 35 372.034 135.23 2
-10 13 35 9.7887 94.6692 2
-11 13 35 204.874 130.2 2
-14 10 35 7.96574 90.7579 2
-14 9 35 225.892 188.458 2
-14 8 35 98.4929 159.625 2
-14 7 35 33.915 102.811 2
-14 6 35 51.0469 125.433 2
-14 5 35 85.6605 139.928 2
-14 4 35 19.6928 66.0931 2
-14 3 35 22.9313 107.322 2
-14 2 35 123.729 144.884 2
2 14 35 143.976 146.235 2
-14 1 35 17.8625 181.619 2
1 14 35 -12.2923 53.4214 2
-14 0 35 94.0439 151.799 2
0 14 35 51.2269 118.062 2
-14 -1 35 -15.5162 63.6633 2
1 35 14 -14.2876 67.8654 2
-1 14 35 -12.6061 63.0199 2
-14 -2 35 84.4375 149.122 2
-2 14 35 39.6247 146.068 2
-14 -3 35 112.445 150.163 2
-3 14 35 322.053 122.813 2
-14 -4 35 53.1162 114.945 2
-4 14 35 36.8573 77.1861 2
-5 14 35 297.342 135.041 2
-6 14 35 125.007 99.355 2
-7 14 35 201.406 131.468 2
-8 14 35 266.011 105.931 2
-9 14 35 780.722 188.3 2
-10 14 35 -11.4536 79.1412 2
-15 9 35 166.268 175.306 2
-9 35 15 379.46 157.374 2
-15 8 35 39.7985 80.8657 2
-8 35 15 13.7769 70.0115 2
-15 7 35 12.1594 77.9645 2
-7 35 15 136.999 99.2326 2
-15 6 35 131.219 147.802 2
-6 35 15 293.729 149.184 2
-15 5 35 97.2351 141.315 2
-5 35 15 208.977 124.31 2
-15 4 35 121.042 154.409 2
-4 35 15 289.454 130.874 2
-15 3 35 16.4124 123.398 2
-3 35 15 282.224 114.271 2
-15 2 35 88.9531 157.453 2
2 15 35 -18.5743 44.9304 2
-2 35 15 318.322 134.886 2
-15 1 35 82.8597 133.757 2
-1 35 15 381.046 152.599 2
1 15 35 100.154 119.729 2
-15 0 35 34.0996 86.936 2
0 35 15 20.6749 59.6478 2
0 15 35 27.7647 100.901 2
-15 -1 35 107.939 150.151 2
1 35 15 256.89 98.0401 2
-1 15 35 125.233 149.993 2
-15 -2 35 120.335 138.322 2
-2 15 35 232.956 176.263 2
-15 -3 35 49.5947 98.1659 2
-3 15 35 230.959 89.9391 2
-4 15 35 597.037 169.297 2
-5 15 35 297.258 125.907 2
-6 15 35 253.661 125.832 2
-7 15 35 58.2536 75.5591 2
-8 15 35 72.5468 77.5837 2
-9 15 35 471.353 154.044 2
-16 7 35 232.632 158.316 2
-7 35 16 318.287 149.338 2
-16 6 35 164.841 154.552 2
-6 35 16 230.694 130.375 2
-16 5 35 141.368 152.081 2
-5 35 16 193.64 114.338 2
-16 4 35 54.2356 85.9675 2
-4 35 16 27.1749 73.1742 2
-16 3 35 -48.961 109.209 2
-3 35 16 91.3473 91.6595 2
-16 2 35 -2.14949 65.7122 2
-2 35 16 3.76401 57.0163 2
-16 1 35 58.356 87.4202 2
-1 35 16 23.3796 42.8243 2
1 16 35 21.291 36.1251 2
-16 0 35 44.3343 84.4325 2
0 35 16 115.314 81.693 2
0 16 35 84.9148 126.305 2
-16 -1 35 10.5179 54.4913 2
-1 16 35 66.5721 99.0928 2
-16 -2 35 30.8805 58.5242 2
-2 16 35 21.4568 82.198 2
-3 16 35 110.247 85.2335 2
-4 16 35 25.7465 74.7747 2
-5 16 35 487.242 151.505 2
-6 16 35 328.618 126.825 2
-7 16 35 877.061 186.794 2
-17 4 35 93.0868 125.281 2
-4 35 17 244.334 102.005 2
-17 3 35 -20.5017 59.6896 2
-3 35 17 16.8068 50.8021 2
-17 2 35 42.0881 124.371 2
-2 35 17 304.851 117.561 2
-17 1 35 21.6012 95.6519 2
-1 35 17 105.58 64.786 2
0 35 17 66.2598 41.7131 2
-17 0 35 46.6035 85.7052 2
0 17 35 71.7286 82.2559 2
-17 -1 35 -22.396 50.1316 2
-1 17 35 32.2889 58.4264 2
-2 17 35 72.1619 105.616 2
-3 17 35 -11.7283 57.9489 2
-4 17 35 364.828 121.157 2
0 0 36 -20.2996 96.6844 2
0 -1 36 209.879 121.792 2
1 0 36 -48.9022 73.6992 2
-1 0 36 66.9401 97.8634 2
0 1 36 78.7593 78.9957 2
1 -1 36 320.344 147.989 2
-1 -1 36 96.7861 108.916 2
1 1 36 72.6138 81.4809 2
-1 1 36 295.323 130.436 2
2 -1 36 172.458 133.26 2
-1 -2 36 254.75 129.268 2
1 2 36 261.296 129.743 2
-2 1 36 174.248 111.552 2
0 -2 36 128.375 126.469 2
2 0 36 -51.2741 95.9182 2
-2 0 36 65.8815 82.6077 2
0 2 36 -1.6 72.1213 2
1 -2 36 220.631 126.796 2
2 1 36 61.1118 90.5042 2
-2 -1 36 182.78 104.429 2
-1 2 36 217.567 113.052 2
2 -2 36 94.7761 119.108 2
-2 -2 36 -29.9611 70.6748 2
2 2 36 -138.16 98.964 2
-2 2 36 -167.438 100.744 2
-2 -3 36 402.801 159.176 2
2 3 36 75.0894 69.9164 2
-3 2 36 262.508 141.826 2
3 -1 36 73.5575 89.0989 2
-1 -3 36 149.752 102.826 2
1 3 36 186.746 136.467 2
-3 1 36 158.204 113.366 2
0 -3 36 27.577 64.2471 2
3 0 36 -86.1244 93.4828 2
-3 0 36 57.7649 76.714 2
0 3 36 136.166 108.625 2
1 -3 36 180.631 113.805 2
3 1 36 234.38 120.714 2
-3 -1 36 459.623 153.716 2
-1 3 36 123.179 109.437 2
3 2 36 33.2974 100.135 2
-3 -2 36 101.262 101.63 2
-2 3 36 167.452 100.598 2
-3 -3 36 477.492 146.292 2
-3 3 36 725.91 190.291 2
-3 -4 36 1124.14 211.674 2
-4 3 36 1312.95 236.827 2
-2 -4 36 77.7595 65.5437 2
2 4 36 4.21634 59.0485 2
-4 2 36 120.011 104.548 2
-1 -4 36 463.888 139.193 2
1 4 36 343.488 159.351 2
-4 1 36 466.228 146.674 2
0 -4 36 126.593 102.231 2
4 0 36 -1.08636 76.0913 2
-4 0 36 289.727 125.314 2
0 4 36 36.7664 80.3106 2
4 1 36 11.5283 163.951 2
-4 -1 36 480.509 155.131 2
-1 4 36 333.014 158.405 2
4 2 36 57.4577 134.166 2
-4 -2 36 226.278 129.668 2
-2 4 36 11.6987 81.0917 2
-4 -3 36 998.994 195.809 2
-3 4 36 1335.71 242.646 2
-4 -4 36 198.745 109.13 2
4 4 36 26.6212 86.7178 2
-4 4 36 237.675 115.706 2
-4 -5 36 185.475 85.6435 2
4 5 36 50.6484 113.776 2
-5 4 36 303.824 134.221 2
-3 -5 36 231.859 113.204 2
3 5 36 3.46909 77.8683 2
-5 3 36 189.264 129.495 2
2 5 36 11.7399 113.04 2
-5 2 36 536.783 168.392 2
-5 1 36 554.92 160.068 2
1 5 36 273.061 167 2
-5 0 36 306.49 146.82 2
0 5 36 6.64267 80.8915 2
5 1 36 2.16185 87.1571 2
-5 -1 36 531.005 159.752 2
-1 5 36 353.08 173.169 2
5 2 36 20.1196 88.8368 2
-5 -2 36 395.886 143.414 2
-2 5 36 196.353 136.562 2
5 3 36 108.239 131.066 2
-5 -3 36 384.101 136.123 2
-5 -4 36 178.097 115.738 2
5 4 36 43.9589 101.994 2
-5 -5 36 12.3454 64.1952 2
5 5 36 -2.21644 60.3925 2
-5 5 36 61.3823 82.8212 2
-6 5 36 1076.69 200.754 2
4 6 36 37.1819 84.739 2
-6 4 36 102.555 79.8259 2
3 6 36 23.1248 109.071 2
-6 3 36 358.302 158.258 2
2 6 36 57.7551 153.718 2
-6 2 36 454.126 148.586 2
-6 1 36 664.557 159.475 2
1 6 36 178.496 135.735 2
-6 0 36 83.4295 77.3283 2
0 6 36 16.3233 64.4928 2
-6 -1 36 501.169 157.018 2
-1 6 36 293.324 165.322 2
-6 -2 36 131.876 95.8204 2
-2 6 36 74.741 123.535 2
-6 -3 36 379.968 154.35 2
-3 6 36 257.353 110.192 2
-6 -4 36 213.21 122.176 2
-4 6 36 30.7825 68.2076 2
-6 -5 36 638.079 188.684 2
-5 6 36 1030.94 206.604 2
-6 6 36 465.797 142.052 2
-7 6 36 525.423 161.506 2
-7 5 36 483.967 164.978 2
4 7 36 65.1521 107.606 2
-7 4 36 505.544 151.915 2
3 7 36 14.1149 94.3346 2
-7 3 36 -250.011 113.225 2
2 7 36 -1.94356 66.3669 2
-7 2 36 182.717 114.387 2
-7 1 36 98.7147 69.2056 2
1 7 36 0.62568 58.4812 2
-7 0 36 23.7762 72.1095 2
0 7 36 40.697 87.8051 2
-7 -1 36 -17.5082 75.8803 2
-1 7 36 35.472 82.2267 2
-7 -2 36 29.7063 78.8897 2
-2 7 36 165.852 94.4807 2
-7 -3 36 36.0469 95.1206 2
-3 7 36 202.619 101.268 2
-7 -4 36 699.033 196.076 2
-4 7 36 333.72 161.758 2
-7 -5 36 511.433 174.555 2
-5 7 36 652.566 159.306 2
-6 7 36 365.449 126.176 2
-7 7 36 757.357 165.11 2
-8 7 36 878.123 207.479 2
-8 6 36 148.703 112.474 2
-8 5 36 69.1762 92.2257 2
4 8 36 22.3267 48.807 2
-8 4 36 177.422 114.138 2
3 8 36 153.168 152.561 2
-8 3 36 363.14 180.223 2
2 8 36 20.2853 103.98 2
-8 2 36 -27.7747 76.4311 2
-8 1 36 192.754 133.813 2
1 8 36 24.025 65.0763 2
-8 0 36 -12.1006 90.9579 2
0 8 36 176.374 117.129 2
-8 -1 36 -134.613 96.0993 2
-1 8 36 -45.5863 86.7686 2
-8 -2 36 82.2055 85.5681 2
-2 8 36 147.606 108.926 2
-8 -3 36 615.745 182.303 2
-3 8 36 334.938 147.528 2
-8 -4 36 -9.35266 78.0326 2
-4 8 36 -0.3372 73.4706 2
-8 -5 36 113.851 82.5908 2
-5 8 36 10.9792 78.8407 2
-6 8 36 83.5929 88.0401 2
-7 8 36 1026.37 198.87 2
-8 8 36 -2.12775 77.0274 2
-9 8 36 192.767 102.366 2
-9 7 36 138.753 107.692 2
-9 6 36 1444.98 261.285 2
-9 5 36 440.824 163.646 2
-9 4 36 -31.6003 108.863 2
3 9 36 45.4613 111.891 2
-9 3 36 316.415 142.883 2
-9 2 36 73.2117 71.6067 2
2 9 36 21.5879 58.6788 2
-9 1 36 281.774 127.643 2
1 9 36 45.5376 97.4731 2
-9 0 36 236.686 126.35 2
0 9 36 13.7619 115.163 2
-9 -1 36 230.64 118.757 2
-1 9 36 238.291 141.388 2
-9 -2 36 64.4323 82.8626 2
-2 9 36 -17.2445 61.6346 2
-9 -3 36 463.048 160.606 2
-3 9 36 242.009 149.998 2
-9 -4 36 48.2202 68.6262 2
-4 9 36 -3.7621 61.1072 2
-9 -5 36 246.828 126.119 2
-5 9 36 277.214 157.749 2
-6 9 36 400.905 141.039 2
-7 9 36 394.76 147.488 2
-8 9 36 -88.9825 101.035 2
-9 9 36 198.433 118.536 2
-10 9 36 686.494 181.146 2
-10 8 36 152.05 115.183 2
-10 7 36 407.856 156.857 2
-10 6 36 10.8732 87.0063 2
-10 5 36 232.959 130.498 2
-10 4 36 479.704 172.331 2
3 10 36 33.551 51.1236 2
-10 3 36 23.1951 75.9001 2
-10 2 36 130.926 90.7355 2
2 10 36 118.813 92.8758 2
-10 1 36 83.8713 65.5721 2
1 10 36 27.7788 92.0117 2
-10 0 36 -13.1128 87.0198 2
0 10 36 37.7487 57.8218 2
-10 -1 36 196.78 116.167 2
-1 10 36 14.8274 62.8412 2
-10 -2 36 98.2223 103.967 2
-2 10 36 180.237 123.035 2
-10 -3 36 119.104 93.4092 2
-3 10 36 -11.5596 59.3443 2
-10 -4 36 265.987 115.281 2
-4 10 36 67.8005 94.3882 2
-10 -5 36 -4.35702 68.8458 2
-5 10 36 40.0308 64.9356 2
-6 10 36 98.8929 89.0687 2
-7 10 36 233.531 114.83 2
-8 10 36 126.075 93.7526 2
-9 10 36 707.92 168.534 2
-10 10 36 210.287 113.453 2
-11 10 36 33.644 79.074 2
-11 9 36 55.7996 97.4784 2
-11 8 36 265.686 137.606 2
-11 7 36 134.154 113.848 2
-11 6 36 -61.3426 74.8953 2
-11 5 36 557.133 182.818 2
-11 4 36 0.16076 80.6267 2
3 11 36 3.80513 71.3348 2
-11 3 36 248.099 127.844 2
-11 2 36 288.791 134.791 2
2 11 36 14.0461 82.733 2
-11 1 36 329.529 143.376 2
1 11 36 134.833 153.326 2
-11 0 36 -56.0706 112.659 2
0 11 36 74.0084 86.4932 2
-11 -1 36 55.1055 120.568 2
-1 11 36 171.25 160.789 2
-11 -2 36 -18.4901 68.9691 2
-2 11 36 62.5194 74.7337 2
-11 -3 36 211.294 160.583 2
-3 11 36 144.236 128.305 2
-11 -4 36 -9.43814 86.6259 2
-4 11 36 9.07316 72.4198 2
-5 11 36 220.133 140.265 2
-6 11 36 -11.0466 69.5 2
-7 11 36 84.8206 88.9614 2
-8 11 36 299.685 138.848 2
-9 11 36 -3.16224 69.4595 2
-10 11 36 36.3284 71.7493 2
-12 9 36 142.266 106.053 2
-12 8 36 328.263 124.275 2
-12 7 36 23.58 67.7348 2
-12 6 36 537.576 181.49 2
-12 5 36 65.3256 92.7532 2
-12 4 36 85.7437 126.735 2
-12 3 36 154.742 166.494 2
-12 2 36 27.6233 102.524 2
2 12 36 44.3811 86.4231 2
-12 1 36 71.7357 134.486 2
1 12 36 55.4427 95.027 2
-12 0 36 267.727 209.177 2
0 12 36 253.715 162.196 2
-12 -1 36 35.1981 100.104 2
-1 12 36 37.8871 104.097 2
-12 -2 36 41.901 102.077 2
-2 12 36 157.181 99.714 2
-12 -3 36 91.5765 135.443 2
-3 12 36 453.03 149.001 2
-12 -4 36 7.06302 71.0892 2
-4 12 36 129.303 125.671 2
-5 12 36 183.098 128.012 2
-6 12 36 384.676 145.751 2
-7 12 36 -38.604 81.5544 2
-8 12 36 229.216 100.412 2
-9 12 36 171.521 104.334 2
-13 8 36 129.263 159.786 2
-13 7 36 18.2662 90.2388 2
-13 6 36 2.68644 78.9869 2
-13 5 36 10.4927 70.3821 2
-13 4 36 92.612 143.548 2
-13 3 36 152.823 155.926 2
-13 2 36 19.801 72.6006 2
2 13 36 9.64118 31.5526 2
-13 1 36 122.743 175.764 2
1 13 36 136.335 131.202 2
-13 0 36 -11.9133 90.536 2
0 13 36 -5.87142 46.5432 2
-13 -1 36 47.0716 145.317 2
-1 13 36 157.313 147.755 2
1 36 13 51.9658 61.8118 2
-13 -2 36 27.3911 78.8327 2
-2 13 36 7.8408 60.903 2
-13 -3 36 171.674 184.942 2
-3 13 36 879.521 189.957 2
-4 13 36 373.548 120.347 2
-5 13 36 27.489 65.7799 2
-6 13 36 21.1439 76.8538 2
-7 13 36 214.056 127.415 2
-8 13 36 475.718 176.228 2
-14 6 36 40.1209 89.9211 2
-6 36 14 74.5231 83.6473 2
-14 5 36 35.176 80.6956 2
-5 36 14 100.214 90.5734 2
-14 4 36 47.1419 111.288 2
-4 36 14 143.653 97.2663 2
-14 3 36 -0.54702 56.9242 2
-3 36 14 95.2221 83.4905 2
-14 2 36 168.666 171.35 2
-2 36 14 422.451 146.909 2
-14 1 36 143.376 167.867 2
1 14 36 98.6913 110.376 2
-1 36 14 184.664 86.3797 2
-14 0 36 29.6007 113.605 2
0 36 14 88.9745 76.6279 2
0 14 36 10.401 47.226 2
-14 -1 36 117.4 152.115 2
-1 14 36 152.226 141.672 2
-14 -2 36 177.222 164.291 2
-2 14 36 260.903 179.706 2
-3 14 36 209.363 98.2611 2
-4 14 36 408.292 126.47 2
-5 14 36 353.868 122.824 2
-6 14 36 52.6315 69.1877 2
-15 3 36 50.7391 88.1901 2
-3 36 15 26.5963 44.5454 2
-15 2 36 36.3204 89.5438 2
-2 36 15 6.36742 50.9887 2
-15 1 36 96.3478 120.615 2
-1 36 15 193.04 69.5978 2
-15 0 36 16.5783 62.5433 2
0 36 15 -18.0149 48.5334 2
0 15 36 -18.9016 49.8763 2
-15 -1 36 107.046 133.79 2
-1 15 36 35.1719 109.944 2
-2 15 36 5.41118 62.267 2
-3 15 36 24.7122 87.7748 2
0 0 37 44.919 115.796 2
0 -1 37 254.233 133.197 2
1 0 37 128.991 128.664 2
-1 0 37 312.444 140.679 2
0 1 37 215.043 128.009 2
1 -1 37 15.0466 83.5434 2
-1 -1 37 148.522 111.378 2
1 1 37 60.6545 88.3997 2
-1 1 37 -37.4446 77.4424 2
-1 -2 37 164.136 110.767 2
1 2 37 71.1643 88.3176 2
-2 1 37 50.7156 69.6943 2
0 -2 37 290.267 148.063 2
2 0 37 5.06882 101.801 2
-2 0 37 195.644 141.551 2
0 2 37 241.703 147.309 2
2 1 37 14.9415 57.6041 2
-2 -1 37 30.7899 74.2155 2
-1 2 37 43.1583 94.8834 2
-2 -2 37 31.4564 93.3898 2
2 2 37 -16.6619 70.4204 2
-2 2 37 236.999 120.701 2
-2 -3 37 405.038 135.335 2
2 3 37 84.5107 140.199 2
-3 2 37 226.903 144.687 2
1 3 37 -53.1627 86.573 2
-3 1 37 51.9934 95.4807 2
-3 0 37 145.727 117.696 2
0 3 37 14.9256 67.6159 2
3 1 37 54.8529 91.7935 2
-3 -1 37 77.4298 91.6231 2
-1 3 37 17.0484 82.5421 2
3 2 37 101.304 154.476 2
-3 -2 37 481.389 138.008 2
-2 3 37 518.073 154.4 2
-3 -3 37 466.649 152.73 2
3 3 37 77.983 127.078 2
-3 3 37 363.555 164.226 2
3 4 37 58.5564 97.5821 2
-4 3 37 211.097 142.265 2
2 4 37 89.5817 129.478 2
-4 2 37 388.865 127.94 2
1 4 37 16.2222 107.532 2
-4 1 37 279.999 108.653 2
-4 0 37 141.737 105.454 2
0 4 37 38.5283 88.2584 2
-4 -1 37 161.225 111.883 2
-1 4 37 55.3853 81.7606 2
-4 -2 37 322.262 130.45 2
-2 4 37 541.977 158.881 2
4 3 37 18.1005 68.8154 2
-4 -3 37 211.252 109.75 2
-3 4 37 149.482 109.725 2
-4 -4 37 -15.2717 65.5352 2
4 4 37 21.1167 83.5856 2
-4 4 37 3.08471 63.8656 2
4 5 37 68.181 101.207 2
-5 4 37 285.815 122.019 2
3 5 37 -24.778 66.9786 2
-5 3 37 -39.5332 98.3705 2
2 5 37 75.1685 107.394 2
-5 2 37 429.77 146.983 2
1 5 37 91.5084 135.714 2
-5 1 37 642.921 159.709 2
-5 0 37 573.911 155.352 2
0 5 37 385.15 163.31 2
-5 -1 37 226.649 126.369 2
-1 5 37 212.056 141.067 2
-5 -2 37 286.139 121.403 2
-2 5 37 326.456 146.302 2
-5 -3 37 22.8147 71.4223 2
-3 5 37 6.50971 64.4859 2
-5 -4 37 275.437 126.51 2
-4 5 37 313.443 164.442 2
-5 5 37 664.323 190.844 2
-6 5 37 485.485 137.788 2
4 6 37 35.2962 69.9903 2
-6 4 37 205.582 114.78 2
3 6 37 56.6861 117.01 2
-6 3 37 389.713 145.28 2
2 6 37 -1.85382 58.6957 2
-6 2 37 -21.9463 78.1169 2
-6 1 37 36.7762 80.1539 2
1 6 37 -4.04991 73.824 2
-6 0 37 231.409 112.798 2
0 6 37 129.952 90.5012 2
-6 -1 37 -110.436 104.901 2
-1 6 37 55.0415 94.2466 2
-6 -2 37 183.802 123.986 2
-2 6 37 20.8351 56.3176 2
-6 -3 37 415.677 152.583 2
-3 6 37 419.006 141.148 2
-6 -4 37 118.441 79.8225 2
-4 6 37 83.3233 102.496 2
-5 6 37 350.539 155.501 2
-6 6 37 997.643 194.501 2
-7 6 37 531.642 152.362 2
-7 5 37 158.471 100.983 2
-7 4 37 377.764 153.544 2
3 7 37 60.0787 132.046 2
-7 3 37 437.828 146.128 2
2 7 37 1.39799 83.4048 2
-7 2 37 158.843 109.744 2
-7 1 37 142 82.7317 2
1 7 37 -30.4375 54.2239 2
-7 0 37 234.758 98.8301 2
0 7 37 14.0779 55.7912 2
-7 -1 37 52.8765 80.924 2
-1 7 37 210.573 114.171 2
-7 -2 37 1023.87 230.413 2
-2 7 37 87.7033 85.1956 2
-7 -3 37 532.647 152.99 2
-3 7 37 286.877 126.649 2
-7 -4 37 404.657 146.564 2
-4 7 37 337.423 135.91 2
-5 7 37 94.7048 107.629 2
-6 7 37 406.468 154.713 2
-7 7 37 176.318 114.111 2
-8 7 37 560.064 163.558 2
-8 6 37 89.3778 92.2085 2
-8 5 37 428.962 151.56 2
-8 4 37 327.504 131.201 2
3 8 37 24.8864 91.5077 2
-8 3 37 156.529 126.007 2
2 8 37 23.2137 58.1328 2
-8 2 37 63.2529 90.8665 2
-8 1 37 55.2648 92.6148 2
1 8 37 -2.96486 86.2044 2
-8 0 37 24.5729 63.6245 2
0 8 37 4.46405 55.4223 2
-8 -1 37 277.592 128.132 2
-1 8 37 20.3458 109.581 2
-8 -2 37 2.16739 70.1513 2
-2 8 37 21.1524 56.6016 2
-8 -3 37 120.092 109.042 2
-3 8 37 41.1172 75.2314 2
-8 -4 37 330.33 151.624 2
-4 8 37 347.66 132.216 2
-5 8 37 249.586 138.452 2
-6 8 37 37.8248 78.3651 2
-7 8 37 430.397 169.317 2
-8 8 37 600.779 168.829 2
-9 8 37 48.2095 78.9616 2
-9 7 37 36.6591 70.5841 2
-9 6 37 426.537 147.046 2
-9 5 37 135.902 98.2348 2
-9 4 37 32.0098 71.9887 2
3 9 37 11.7902 47.0005 2
-9 3 37 22.114 72.1761 2
2 9 37 -12.0615 59.8123 2
-9 2 37 -78.0422 102.366 2
-9 1 37 2.6092 80.6674 2
1 9 37 -36.0498 61.47 2
-9 0 37 -41.0055 95.3662 2
0 9 37 37.0207 100.852 2
-9 -1 37 27.6207 77.5063 2
-1 9 37 17.4579 85.3078 2
-9 -2 37 51.2936 89.9662 2
-2 9 37 -198.304 89.9207 2
-9 -3 37 50.0772 80.9065 2
-3 9 37 108.293 93.2388 2
-4 9 37 140.452 135.385 2
-5 9 37 99.9079 103.394 2
-6 9 37 301.059 141.517 2
-7 9 37 -2.3861 80.8809 2
-8 9 37 163.426 115.285 2
-9 9 37 80.3494 89.6753 2
-10 7 37 185.665 104.259 2
-10 6 37 507.019 161.683 2
-10 5 37 44.2963 91.1311 2
-10 4 37 230.803 112.511 2
-10 3 37 101.479 97.6491 2
-10 2 37 51.355 58.7434 2
2 10 37 -22.4084 48.0298 2
-10 1 37 111.276 68.5217 2
1 10 37 9.51265 92.4133 2
-10 0 37 444.859 169.334 2
0 10 37 132.825 145.052 2
-10 -1 37 31.412 72.775 2
-1 10 37 -1.01931 69.5887 2
-10 -2 37 76.4299 78.1442 2
-2 10 37 26.8712 67.6927 2
-10 -3 37 -15.5953 82.0456 2
-3 10 37 -2.55628 68.3812 2
-4 10 37 144.66 92.2347 2
-5 10 37 52.3609 86.8995 2
-6 10 37 357.053 150.207 2
-7 10 37 31.8895 70.4133 2
-11 6 37 182.692 162.166 2
-11 5 37 632.24 171.851 2
-11 4 37 -94.419 78.2212 2
-11 3 37 30.5843 65.8644 2
-11 2 37 -16.2755 75.1123 2
2 11 37 -15.4372 38.7094 2
-11 1 37 62.808 102.445 2
1 11 37 42.7314 98.8171 2
-11 0 37 82.9664 120.538 2
0 11 37 101.463 113.92 2
-11 -1 37 38.0294 113.32 2
-1 11 37 23.5667 93.7352 2
-11 -2 37 31.4467 108.796 2
-2 11 37 -2.48498 71.5442 2
-11 -3 37 56.2204 78.9682 2
-3 11 37 38.2103 79.6483 2
-4 11 37 -2.06715 64.7884 2
-5 11 37 216.052 124.271 2
-6 11 37 196.739 96.1287 2
-12 4 37 29.504 92.3895 2
-12 3 37 -14.6836 75.2234 2
-12 2 37 150.653 165.544 2
-12 1 37 3.743 56.0292 2
1 12 37 -6.35623 45.0929 2
-12 0 37 -6.64043 65.8712 2
0 12 37 -7.31366 42.2306 2
0 37 12 18.0328 49.73 2
-12 -1 37 5.12343 72.9342 2
-1 12 37 56.1179 79.2707 2
-12 -2 37 230.023 181.939 2
-2 12 37 1038.75 171.856 2
-3 12 37 126.25 105.457 2
-4 12 37 85.6939 70.9894 2
0 0 38 5.76671 55.9559 2
-1 0 38 97.2851 105.066 2
0 1 38 134.972 106.335 2
1 1 38 0.26296 54.3797 2
-1 1 38 77.7639 92.4347 2
1 2 38 -9.85754 88.6176 2
-2 1 38 157.822 109.053 2
-2 0 38 78.0236 98.2515 2
0 2 38 46.1662 115.144 2
-2 -1 38 124.69 91.0558 2
-1 2 38 51.5113 90.2532 2
-2 2 38 87.079 107.979 2
2 3 38 136.4 145.765 2
-3 2 38 180.207 133.394 2
1 3 38 106.106 112.636 2
-3 1 38 53.1847 76.1207 2
-3 0 38 43.6236 78.6623 2
0 3 38 -1.72678 71.1637 2
-3 -1 38 108.42 101.123 2
-1 3 38 165.001 122.279 2
-2 3 38 331.694 132.197 2
-3 3 38 116.933 118.842 2
-4 3 38 7.54795 56.5694 2
2 4 38 102.785 127.278 2
-4 2 38 147.238 114.973 2
1 4 38 33.738 106.251 2
-4 1 38 37.7418 68.6497 2
-4 0 38 52.2633 74.6771 2
0 4 38 31.0582 90.183 2
-4 -1 38 192.469 126.21 2
-1 4 38 278.753 115.432 2
-4 -2 38 289.354 164.705 2
-2 4 38 343.479 125.267 2
-3 4 38 20.9213 61.6289 2
-4 4 38 359.607 157.463 2
-5 4 38 429.683 164.049 2
3 5 38 0.72094 60.7839 2
-5 3 38 -20.6076 79.9042 2
2 5 38 -22.9264 50.7341 2
-5 2 38 -88.1194 92.8995 2
1 5 38 33.0293 97.4148 2
-5 1 38 169.016 122.648 2
-5 0 38 74.5943 86.7431 2
0 5 38 7.32425 81.1515 2
-5 -1 38 158.144 110.242 2
-1 5 38 212.42 98.5941 2
-5 -2 38 -9.81211 56.5625 2
-2 5 38 26.4789 54.2832 2
-3 5 38 8.60263 64.3864 2
-4 5 38 266.811 130.664 2
-5 5 38 534.901 159.585 2
-6 5 38 17.1768 55.0981 2
-6 4 38 81.3759 92.7329 2
3 6 38 -1.26591 42.4077 2
-6 3 38 123.831 108.313 2
2 6 38 87.2423 118.17 2
-6 2 38 402.585 143.153 2
1 6 38 40.8308 84.5412 2
-6 1 38 -180.443 112.655 2
-6 0 38 336.2 161.849 2
0 6 38 74.9886 104.845 2
-6 -1 38 65.2302 94.0559 2
-1 6 38 -10.6698 55.975 2
-6 -2 38 262.229 124.488 2
-2 6 38 303.717 129.544 2
-3 6 38 269.367 132.983 2
-4 6 38 85.108 90.6422 2
-5 6 38 7.77654 57.3958 2
-6 6 38 299.493 137.59 2
-7 6 38 344.032 149.313 2
-7 5 38 102.731 83.0695 2
-7 4 38 50.3864 59.2384 2
-7 3 38 210.868 109.424 2
2 7 38 52.4651 69.7112 2
-7 2 38 3.06559 69.4564 2
-7 1 38 -35.325 56.1356 2
1 7 38 10.2123 56.9752 2
-7 0 38 4.18235 64.3079 2
0 7 38 -1.86679 50.8945 2
-7 -1 38 111.27 91.0179 2
-1 7 38 6.59239 64.1604 2
-7 -2 38 141.353 108.221 2
-2 7 38 37.4035 75.3719 2
-3 7 38 326.446 113.02 2
-4 7 38 8.69282 50.1782 2
-5 7 38 119.166 103.737 2
-6 7 38 288.332 137.975 2
-8 4 38 405.135 142.789 2
-8 3 38 53.7815 75.2496 2
2 8 38 -16.7791 56.8204 2
-8 2 38 40.9525 65.2307 2
-8 1 38 170.3 113.815 2
1 8 38 -13.2266 48.1497 2
-8 0 38 26.7098 66.5669 2
0 8 38 14.494 47.4904 2
-8 -1 38 -14.0032 53.181 2
-1 8 38 1.16293 59.4197 2
-8 -2 38 77.6367 72.7855 2
-2 8 38 107.842 95.013 2
-3 8 38 62.093 70.3505 2
-4 8 38 384.419 151.143 2
-9 2 38 -32.7741 68.7689 2
-9 1 38 14.7128 66.5727 2
1 9 38 -0.09596 53.3842 2
-9 0 38 25.7908 64.9154 2
0 9 38 -22.3872 52.098 2
-9 -1 38 -20.1422 61.5102 2
-1 9 38 33.225 68.1525 2
-2 9 38 70.6809 85.7842 2
-2 2 39 125.978 87.4738 2
-3 1 39 382.385 143.158 2
-1 3 39 150.316 128.829 2
loop_
_smtbx_masks_void_nr
_smtbx_masks_void_average_x
_smtbx_masks_void_average_y
_smtbx_masks_void_average_z
_smtbx_masks_void_volume
_smtbx_masks_void_count_electrons
1 -0.671 -0.206 -0.772 22293.9 5168.0
