#------------------------------------------------------------------------------
#$Date: 2019-11-10 01:00:36 +0200 (Sun, 10 Nov 2019) $
#$Revision: 225483 $
#$URL: file:///home/coder/svn-repositories/cod/cif/4/51/53/4515320.cif $
#------------------------------------------------------------------------------
#
# This file is available in the Crystallography Open Database (COD),
# http://www.crystallography.net/
#
# All data on this site have been placed in the public domain by the
# contributors.
#
data_4515320
loop_
_publ_author_name
'Wang, Ani'
'Fan, Ruiqing'
'Pi, Xinxin'
'Zhou, Yuze'
'Chen, Guangyu'
'Chen, Wei'
'Yang, Yulin'
_publ_section_title
;
 Nitrogen-Doped Microporous Carbons Derived from Pyridine Ligand-Based
 Metal-Organic Complexes as High-Performance SO<sub>2</sub> Adsorption
 Sorbents.
;
_journal_issue                   43
_journal_name_full               'ACS applied materials &amp; interfaces'
_journal_page_first              37407
_journal_page_last               37416
_journal_paper_doi               10.1021/acsami.8b12739
_journal_volume                  10
_journal_year                    2018
_chemical_formula_sum            'C19 H12 N6 O6 Zn'
_chemical_formula_weight         485.74
_space_group_crystal_system      triclinic
_space_group_IT_number           2
_space_group_name_Hall           '-P 1'
_space_group_name_H-M_alt        'P -1'
_atom_sites_solution_hydrogens   geom
_audit_creation_method           SHELXL-2014/7
_cell_angle_alpha                82.29(3)
_cell_angle_beta                 80.04(3)
_cell_angle_gamma                63.70(3)
_cell_formula_units_Z            2
_cell_length_a                   9.0117(18)
_cell_length_b                   9.5162(19)
_cell_length_c                   12.398(3)
_cell_measurement_reflns_used    3307
_cell_measurement_temperature    293(2)
_cell_measurement_theta_max      24.999
_cell_measurement_theta_min      1.671
_cell_volume                     936.8(4)
_computing_structure_refinement  'SHELXL-2014/7 (Sheldrick, 2014)'
_diffrn_ambient_temperature      293(2)
_diffrn_measured_fraction_theta_full 0.997
_diffrn_measured_fraction_theta_max 0.997
_diffrn_measurement_device_type  'Bruker Smart APEX CCD area detector'
_diffrn_measurement_method       'phi and omega scans'
_diffrn_radiation_type           MoK\a
_diffrn_radiation_wavelength     0.71073
_diffrn_reflns_av_R_equivalents  0.0218
_diffrn_reflns_av_unetI/netI     0.0328
_diffrn_reflns_Laue_measured_fraction_full 0.997
_diffrn_reflns_Laue_measured_fraction_max 0.997
_diffrn_reflns_limit_h_max       10
_diffrn_reflns_limit_h_min       -10
_diffrn_reflns_limit_k_max       10
_diffrn_reflns_limit_k_min       -11
_diffrn_reflns_limit_l_max       14
_diffrn_reflns_limit_l_min       -14
_diffrn_reflns_number            6601
_diffrn_reflns_point_group_measured_fraction_full 0.997
_diffrn_reflns_point_group_measured_fraction_max 0.997
_diffrn_reflns_theta_full        24.999
_diffrn_reflns_theta_max         24.999
_diffrn_reflns_theta_min         1.671
_exptl_absorpt_coefficient_mu    1.366
_exptl_absorpt_correction_T_max  0.872
_exptl_absorpt_correction_T_min  0.849
_exptl_absorpt_correction_type   multi-scan
_exptl_crystal_colour            yellow
_exptl_crystal_density_diffrn    1.722
_exptl_crystal_description       block
_exptl_crystal_F_000             492
_exptl_crystal_size_max          0.120
_exptl_crystal_size_mid          0.100
_exptl_crystal_size_min          0.100
_refine_diff_density_max         0.983
_refine_diff_density_min         -0.334
_refine_diff_density_rms         0.082
_refine_ls_extinction_method     none
_refine_ls_goodness_of_fit_ref   1.025
_refine_ls_hydrogen_treatment    constr
_refine_ls_matrix_type           full
_refine_ls_number_parameters     289
_refine_ls_number_reflns         3296
_refine_ls_number_restraints     1
_refine_ls_restrained_S_all      1.025
_refine_ls_R_factor_all          0.0545
_refine_ls_R_factor_gt           0.0452
_refine_ls_shift/su_max          0.001
_refine_ls_shift/su_mean         0.000
_refine_ls_structure_factor_coef Fsqd
_refine_ls_weighting_details
'w=1/[\s^2^(Fo^2^)+(0.1000P)^2^] where P=(Fo^2^+2Fc^2^)/3'
_refine_ls_weighting_scheme      calc
_refine_ls_wR_factor_gt          0.1274
_refine_ls_wR_factor_ref         0.1352
_reflns_Friedel_coverage         0.000
_reflns_number_gt                2791
_reflns_number_total             3296
_reflns_threshold_expression     'I > 2\s(I)'
_cod_data_source_file            am8b12739_si_003.cif
_cod_data_source_block           MOC-2
_cod_database_code               4515320
_shelx_shelxl_version_number     2014/7
_shelx_space_group_comment
;
The symmetry employed for this shelxl refinement is uniquely defined
by the following loop, which should always be used as a source of
symmetry information in preference to the above space-group names.
They are only intended as comments.
;
_shelx_estimated_absorpt_t_min   0.853
_shelx_estimated_absorpt_t_max   0.875
_shelx_res_file
;

    A.res created by SHELXL-2014/7

TITL A in P1                          P-1
CELL  0.71073    9.0117    9.5162   12.3980    82.290    80.040    63.700
ZERR 2           0.0018    0.0019    0.0030     0.030     0.030     0.030
LATT   1
SFAC  C   2.31000  20.84392   1.02000  10.20751   1.58860   0.56870   0.86500 =
         51.65125   0.21560   0.00330   0.00160    11.500   0.68000  12.01000
SFAC  H   0.49300  10.51091   0.32291  26.12573   0.14019   3.14236   0.04081 =
         57.79977   0.00304   0.00000   0.00000     0.624   0.35000   1.00800
SFAC  N  12.21261   0.00570   3.13220   9.89331   2.01250  28.99754   1.16630 =
          0.58260 -11.52901   0.00610   0.00330    19.600   0.68000  14.01000
SFAC  O   3.04850  13.27711   2.28680   5.70111   1.54630   0.32390   0.86700 =
         32.90894   0.25080   0.01060   0.00600    32.500   0.68000  16.00000
SFAC Zn  14.07431   3.26550   7.03181   0.23330   5.16521  10.31631   2.41000 =
         58.70976   1.30410   0.28390   1.43010  5860.000   1.45000  65.39000
UNIT    38    24 12  12   2
L.S. 20
ACTA 50
OMIT 0 50
BOND $H
SIZE 0.12 0.10 0.10
DELU 0.001 0.002  O2 N5
WGHT    0.100000
FVAR       0.12993
ZN1   5    0.125844    0.699287    0.258241    11.00000    0.04693    0.02991 =
         0.05023   -0.01061   -0.00368   -0.01659
O1    4    0.010902    0.654754    0.449227    11.00000    0.08743    0.10001 =
         0.07885   -0.01092   -0.01281   -0.03407
O2    4   -0.077745    0.855951    0.343297    11.00000    0.09789    0.05690 =
         0.08698   -0.01680   -0.00426   -0.01639
O3    4   -0.199581    0.854109    0.512129    11.00000    0.11003    0.13980 =
         0.12860   -0.09471    0.05849   -0.06522
O4    4    0.171665    0.802801    0.108071    11.00000    0.12208    0.04452 =
         0.07025    0.00742   -0.03037   -0.04572
O5    4    0.186506    1.004196    0.018764    11.00000    0.18605    0.13472 =
         0.21104    0.10246   -0.02535   -0.09129
O6    4    0.118690    1.011505    0.180857    11.00000    0.14063    0.05823 =
         0.15956   -0.02185   -0.05253   -0.02669
N1    3    0.011694    0.578665    0.190643    11.00000    0.05046    0.03548 =
         0.04479   -0.01232   -0.00189   -0.02221
N2    3    0.033878    0.352152    0.144037    11.00000    0.05858    0.03534 =
         0.04662   -0.01247    0.00069   -0.02636
AFIX  43
H2A   2    0.075258    0.253178    0.135406    11.00000   -1.20000
AFIX   0
N3    3    0.301398    0.466550    0.258663    11.00000    0.04687    0.03366 =
         0.04027   -0.00534   -0.00314   -0.01879
N4    3    0.337408    0.697448    0.329983    11.00000    0.04957    0.03828 =
         0.03992   -0.00986    0.00107   -0.02200
N5    3   -0.093815    0.791691    0.440040    11.00000    0.05728    0.05988 =
         0.08812   -0.01810   -0.00108   -0.02844
N6    3    0.153975    0.939144    0.103096    11.00000    0.07169    0.05025 =
         0.09387    0.00663   -0.02556   -0.03092
C1    1   -0.269759    0.746633    0.129280    11.00000    0.05366    0.04112 =
         0.04808   -0.01315    0.00318   -0.02099
AFIX  43
H1A   2   -0.278604    0.841570    0.148286    11.00000   -1.20000
AFIX   0
C2    1   -0.393639    0.739692    0.082950    11.00000    0.04713    0.06212 =
         0.05466   -0.00769   -0.00453   -0.02267
AFIX  43
H2B   2   -0.487703    0.831757    0.069629    11.00000   -1.20000
AFIX   0
C3    1   -0.381481    0.598230    0.055578    11.00000    0.06197    0.07417 =
         0.05257   -0.00878   -0.00458   -0.04031
AFIX  43
H3A   2   -0.469067    0.597715    0.025730    11.00000   -1.20000
AFIX   0
C4    1   -0.244505    0.458814    0.071034    11.00000    0.06726    0.06384 =
         0.04566   -0.01536    0.00087   -0.04519
AFIX  43
H4A   2   -0.236778    0.364406    0.051829    11.00000   -1.20000
AFIX   0
C5    1   -0.118739    0.465864    0.116558    11.00000    0.05321    0.04073 =
         0.03760   -0.01136    0.00570   -0.02707
C6    1   -0.131071    0.607393    0.146773    11.00000    0.04908    0.04440 =
         0.03270   -0.01024    0.00297   -0.02893
C7    1    0.104741    0.426763    0.186864    11.00000    0.05681    0.03612 =
         0.03973   -0.00954    0.00153   -0.02719
C8    1    0.269909    0.356854    0.223889    11.00000    0.05641    0.03238 =
         0.04193   -0.00619    0.00074   -0.02220
C9    1    0.387635    0.200612    0.223456    11.00000    0.07078    0.03214 =
         0.06111   -0.00856   -0.00597   -0.02203
AFIX  43
H9A   2    0.364580    0.124727    0.199482    11.00000   -1.20000
AFIX   0
C10   1    0.537105    0.160680    0.258702    11.00000    0.06688    0.02828 =
         0.06595   -0.00362   -0.00286   -0.01063
AFIX  43
H10A  2    0.616576    0.056644    0.258192    11.00000   -1.20000
AFIX   0
C11   1    0.446994    0.428382    0.294502    11.00000    0.04718    0.03411 =
         0.03278   -0.00265   -0.00053   -0.01596
C12   1    0.466368    0.553739    0.333297    11.00000    0.04722    0.04523 =
         0.03087   -0.00181   -0.00134   -0.02437
C13   1    0.353774    0.812865    0.368145    11.00000    0.05639    0.04852 =
         0.05047   -0.01604    0.00080   -0.02700
AFIX  43
H13A  2    0.266478    0.913132    0.366467    11.00000   -1.20000
AFIX   0
C14   1    0.497769    0.789249    0.410893    11.00000    0.06725    0.07061 =
         0.05140   -0.01920    0.00045   -0.04514
AFIX  43
H14A  2    0.504650    0.872791    0.437417    11.00000   -1.20000
AFIX   0
C15   1    0.626123    0.645352    0.413476    11.00000    0.05751    0.07598 =
         0.04214   -0.00425   -0.00435   -0.04317
AFIX  43
H15A  2    0.721619    0.629399    0.442092    11.00000   -1.20000
AFIX   0
C16   1    0.616107    0.519045    0.372977    11.00000    0.04837    0.05749 =
         0.03093    0.00023    0.00077   -0.02822
C17   1    0.744403    0.361979    0.371422    11.00000    0.04773    0.07039 =
         0.04641    0.01069   -0.00849   -0.02511
AFIX  43
H17A  2    0.844637    0.339591    0.396324    11.00000   -1.20000
AFIX   0
C18   1    0.724118    0.246093    0.335033    11.00000    0.05044    0.04714 =
         0.05761    0.00573   -0.00436   -0.01211
AFIX  43
H18A  2    0.810444    0.145228    0.335391    11.00000   -1.20000
AFIX   0
C19   1    0.573461    0.273775    0.295825    11.00000    0.05388    0.04132 =
         0.04285    0.00061   -0.00171   -0.01613

HKLF 4 1  1.0000  0.0000  0.0000  0.0000  1.0000  0.0000  0.0000  0.0000  1.0000

REM  A in P1                          P-1
REM R1 =  0.0452 for    2791 Fo > 4sig(Fo)  and  0.0545 for all    3296 data
REM    289 parameters refined using      1 restraints

END

WGHT      0.0876      0.0000

REM Highest difference peak  0.983,  deepest hole -0.334,  1-sigma level  0.082
Q1    1   0.0450  0.9353  0.2094  11.00000  0.05    0.98
Q2    1  -0.0201  0.8937  0.4622  11.00000  0.05    0.61
Q3    1   0.0226  0.7684  0.2597  11.00000  0.05    0.57
Q4    1  -0.1996  0.8672  0.3778  11.00000  0.05    0.54
Q5    1   0.1878  1.0379  0.0878  11.00000  0.05    0.46
Q6    1  -0.1010  0.8603  0.4992  11.00000  0.05    0.35
Q7    1   0.1792  0.9716 -0.0015  11.00000  0.05    0.34
Q8    1  -0.1677  0.7613  0.5342  11.00000  0.05    0.33
Q9    1   0.2808  0.4001  0.2381  11.00000  0.05    0.33
Q10   1   0.0426  0.7388  0.4269  11.00000  0.05    0.33
Q11   1   0.5176  0.3384  0.3006  11.00000  0.05    0.32
Q12   1   0.4117  0.7978  0.4048  11.00000  0.05    0.29
Q13   1   0.4245  0.1869  0.2800  11.00000  0.05    0.28
Q14   1   0.1931  0.3792  0.2172  11.00000  0.05    0.28
Q15   1   0.0567  1.0609  0.0428  11.00000  0.05    0.28
Q16   1   0.5545  0.2381  0.2582  11.00000  0.05    0.27
Q17   1   0.1479  0.7317  0.3156  11.00000  0.05    0.27
Q18   1   0.2740  0.8029  0.0624  11.00000  0.05    0.26
Q19   1  -0.0662  0.7333  0.3712  11.00000  0.05    0.24
Q20   1   0.6250  0.2483  0.3343  11.00000  0.05    0.24
;
_shelx_res_checksum              91291
_shelx_hkl_file
;
  -1   0   0   24.97    0.49
   1   0   0   21.31    0.48
  -2   0   0    0.03    0.03
  -2   0   0   -0.04    0.03
   2   0   0    0.00    0.03
  -3   0   0   14.47    0.34
  -3   0   0   14.61    0.35
   3   0   0   14.59    0.34
  -4   0   0   30.19    0.68
  -4   0   0   29.67    0.69
   4   0   0   31.49    0.68
  -5   0   0    7.19    0.24
  -5   0   0    6.95    0.22
   5   0   0    7.29    0.23
  -6   0   0    0.09    0.07
  -6   0   0    0.01    0.08
   6   0   0    0.14    0.08
  -7   0   0    5.42    0.22
  -7   0   0    5.60    0.26
   7   0   0    4.91    0.23
  -8   0   0    7.14    0.31
  -8   0   0    6.96    0.27
  -9   0   0    0.11    0.12
 -10   0   0   -0.02    0.14
  -9   1   0    1.66    0.20
  -8   1   0    0.52    0.15
  -8   1   0    1.11    0.15
  -7   1   0    1.08    0.14
  -7   1   0    1.19    0.13
  -6   1   0   11.50    0.37
  -6   1   0   11.26    0.34
   5  -1   0   11.72    0.31
  -5   1   0   11.27    0.34
  -5   1   0   11.16    0.32
   4  -1   0    1.79    0.10
  -4   1   0    2.01    0.12
  -4   1   0    1.96    0.12
   3  -1   0   17.58    0.40
  -3   1   0   18.08    0.42
  -3   1   0   17.65    0.43
   2  -1   0   42.14    0.86
  -2   1   0   41.15    0.89
  -2   1   0   41.12    0.88
   1  -1   0    3.55    0.08
  -1   1   0    3.48    0.10
  -1   1   0    3.47    0.10
   0   1   0   67.32    1.38
  -1  -1   0   19.59    0.41
  -2  -1   0    8.69    0.21
  -2  -1   0    8.46    0.19
   2   1   0    8.56    0.21
  -3  -1   0   19.10    0.44
  -3  -1   0   19.13    0.42
   3   1   0   18.76    0.44
  -4  -1   0    3.46    0.14
  -4  -1   0    3.59    0.12
   4   1   0    3.60    0.14
  -5  -1   0    3.93    0.17
  -5  -1   0    4.51    0.15
   5   1   0    4.55    0.18
  -6  -1   0   11.07    0.30
  -6  -1   0   10.85    0.33
   6   1   0   10.30    0.32
  -7  -1   0    2.48    0.15
  -7  -1   0    2.67    0.18
   7   1   0    2.71    0.18
  -8  -1   0    2.59    0.19
   8   1   0    2.90    0.21
  -9  -1   0    0.47    0.14
 -10  -1   0    1.31    0.19
  -9   2   0    0.13    0.14
  -8   2   0    1.10    0.16
  -8   2   0    1.36    0.19
  -7   2   0    2.09    0.18
  -7   2   0    2.04    0.19
  -6   2   0    0.48    0.12
  -6   2   0    0.45    0.10
  -5   2   0    1.01    0.13
  -5   2   0    0.67    0.10
   4  -2   0    8.71    0.23
  -4   2   0    8.90    0.27
  -4   2   0    8.66    0.28
   3  -2   0    2.39    0.08
  -3   2   0    2.49    0.13
  -3   2   0    2.51    0.12
   2  -2   0   26.28    0.54
  -2   2   0   25.86    0.59
  -2   2   0   26.34    0.60
  -1   2   0    1.37    0.07
   0   2   0   62.27    1.27
   0   2   0   62.02    1.29
  -1  -2   0    0.82    0.06
   1   2   0    0.93    0.05
   1   2   0    0.86    0.04
  -2  -2   0   48.15    1.03
  -2  -2   0   50.08    1.06
   2   2   0   49.82    1.04
   2   2   0   52.55    1.06
  -3  -2   0    0.00    0.03
  -3  -2   0    0.03    0.04
   3   2   0    0.07    0.05
  -4  -2   0    6.31    0.20
  -4  -2   0    6.36    0.17
   4   2   0    6.56    0.20
  -5  -2   0    4.45    0.17
  -5  -2   0    4.51    0.15
   5   2   0    4.30    0.18
  -6  -2   0    2.45    0.14
  -6  -2   0    2.49    0.12
   6   2   0    2.44    0.15
  -7  -2   0    0.10    0.06
  -7  -2   0    0.06    0.08
   7   2   0    0.04    0.09
  -8  -2   0    0.81    0.13
   8   2   0    0.63    0.14
  -9  -2   0    0.03    0.11
   9   2   0    0.08    0.12
 -10  -2   0    0.28    0.14
 -11  -2   0   -0.07    0.14
  -8   3   0    0.80    0.15
  -8   3   0    1.05    0.19
  -7   3   0    0.83    0.14
  -7   3   0    0.73    0.15
  -6   3   0    1.31    0.16
  -6   3   0    1.35    0.15
  -5   3   0    4.09    0.20
  -5   3   0    4.45    0.22
  -4   3   0    3.50    0.17
  -4   3   0    3.64    0.19
  -3   3   0    2.99    0.16
  -3   3   0    3.06    0.15
  -2   3   0    1.13    0.09
  -1   3   0  116.43    2.42
   0   3   0    8.90    0.20
   0   3   0    8.67    0.23
   1   3   0    5.62    0.15
   1   3   0    5.73    0.15
  -2  -3   0    6.84    0.20
   2   3   0    6.84    0.19
   2   3   0    6.98    0.18
  -3  -3   0   14.03    0.33
  -3  -3   0   14.96    0.37
   3   3   0   15.22    0.37
   3   3   0   14.28    0.34
  -4  -3   0   13.01    0.30
  -4  -3   0   13.42    0.35
   4   3   0   13.51    0.35
  -5  -3   0    4.61    0.14
  -5  -3   0    4.57    0.18
   5   3   0    4.30    0.18
  -6  -3   0    7.84    0.27
   6   3   0    7.99    0.28
  -7  -3   0   10.18    0.33
   7   3   0    9.68    0.33
  -8  -3   0    4.45    0.23
   8   3   0    4.12    0.23
  -9  -3   0    0.21    0.12
   9   3   0    0.21    0.13
 -10  -3   0    1.82    0.20
  10   3   0    1.60    0.20
 -11  -3   0    0.87    0.18
  -8   4   0    0.02    0.11
  -7   4   0    2.03    0.20
  -6   4   0    2.34    0.20
  -5   4   0    1.29    0.15
  -4   4   0    3.74    0.19
  -3   4   0   21.07    0.55
  -2   4   0   24.23    0.59
  -1   4   0   36.42    0.82
   0   4   0    3.19    0.13
   0   4   0    3.34    0.10
   1   4   0   18.38    0.42
   1   4   0   17.87    0.41
  -2  -4   0    4.96    0.18
   2   4   0    4.87    0.15
   2   4   0    4.62    0.16
  -3  -4   0   10.44    0.30
   3   4   0   10.10    0.28
   3   4   0   10.57    0.26
  -4  -4   0    6.88    0.24
  -4  -4   0    7.05    0.19
   4   4   0    7.26    0.23
  -5  -4   0   34.47    0.74
  -5  -4   0   33.89    0.81
   5   4   0   35.49    0.81
  -6  -4   0   18.28    0.49
  -6  -4   0   17.88    0.44
   6   4   0   17.84    0.49
  -7  -4   0    1.96    0.16
   7   4   0    1.88    0.17
  -8  -4   0    0.01    0.08
   8   4   0    0.24    0.12
  -9  -4   0    0.08    0.11
   9   4   0   -0.14    0.13
 -10  -4   0    2.03    0.22
  10   4   0    1.98    0.23
 -11  -4   0   -0.01    0.12
  11   4   0    0.01    0.16
  -7   5   0    0.60    0.16
  -6   5   0    0.04    0.11
  -5   5   0    0.84    0.14
  -4   5   0    3.39    0.20
  -3   5   0    1.43    0.15
  -2   5   0    0.12    0.07
  -1   5   0    5.60    0.21
   0   5   0    0.69    0.05
   0   5   0    0.61    0.08
   1   5   0    1.08    0.08
   1   5   0    1.11    0.08
  -2  -5   0   11.28    0.33
   2   5   0   11.68    0.30
   2   5   0   11.38    0.30
  -3  -5   0    0.39    0.08
   3   5   0    0.36    0.07
   3   5   0    0.65    0.06
  -4  -5   0   10.65    0.28
  -4  -5   0   11.55    0.33
   4   5   0   11.39    0.30
   4   5   0   11.84    0.33
  -5  -5   0   10.92    0.27
  -5  -5   0   10.60    0.34
   5   5   0   10.71    0.33
  -6  -5   0    0.92    0.12
   6   5   0    0.99    0.13
  -7  -5   0    2.50    0.18
   7   5   0    2.20    0.18
  -8  -5   0    0.51    0.12
   8   5   0    0.61    0.13
  -9  -5   0    0.16    0.10
   9   5   0    0.08    0.12
 -10  -5   0    0.01    0.12
  10   5   0    0.01    0.15
 -11  -5   0    0.93    0.18
  11   5   0    0.90    0.19
  -6   6   0    1.02    0.18
  -5   6   0    1.46    0.18
  -4   6   0    0.65    0.14
  -3   6   0    3.38    0.20
  -2   6   0    4.78    0.22
  -1   6   0   11.66    0.36
   0   6   0    3.25    0.17
   1   6   0    1.74    0.12
   1   6   0    1.58    0.10
  -2  -6   0   16.66    0.47
   2   6   0   17.41    0.42
   2   6   0   17.40    0.43
  -3  -6   0   27.18    0.67
   3   6   0   26.84    0.62
   3   6   0   26.53    0.63
  -4  -6   0    3.97    0.20
   4   6   0    3.91    0.19
   4   6   0    3.74    0.15
  -5  -6   0    2.11    0.12
  -5  -6   0    1.92    0.16
   5   6   0    2.37    0.17
   5   6   0    2.13    0.12
  -6  -6   0   16.12    0.49
   6   6   0   17.16    0.48
  -7  -6   0    2.74    0.20
   7   6   0    2.90    0.22
  -8  -6   0    0.83    0.15
   8   6   0    0.69    0.16
  -9  -6   0    2.15    0.21
   9   6   0    1.68    0.20
 -10  -6   0    2.46    0.23
  10   6   0    2.27    0.24
 -11  -6   0    1.05    0.19
  11   6   0    0.86    0.19
  -5   7   0   -0.10    0.11
  -4   7   0    1.02    0.17
  -3   7   0    6.10    0.28
  -2   7   0    0.75    0.13
  -1   7   0    0.44    0.10
   0   7   0    6.17    0.25
   1   7   0   15.73    0.43
  -2  -7   0   13.02    0.42
   2   7   0   13.32    0.37
   2   7   0   13.15    0.36
  -3  -7   0    0.71    0.13
   3   7   0    0.55    0.08
   3   7   0    0.45    0.09
  -4  -7   0   14.18    0.43
   4   7   0   14.27    0.41
   4   7   0   14.43    0.38
  -5  -7   0   15.40    0.46
   5   7   0   15.61    0.45
  -6  -7   0    5.00    0.26
   6   7   0    4.89    0.25
  -7  -7   0    0.10    0.10
   7   7   0    0.10    0.11
  -8  -7   0    0.25    0.13
   8   7   0    0.00    0.13
  -9  -7   0   13.34    0.47
   9   7   0   12.96    0.48
 -10  -7   0    0.57    0.15
  10   7   0    0.53    0.18
 -11  -7   0    0.17    0.15
  -4   8   0    1.52    0.21
  -3   8   0    0.24    0.12
  -2   8   0    0.37    0.12
  -1   8   0    2.78    0.20
   0   8   0    5.71    0.25
   1   8   0    0.04    0.08
  -2  -8   0    1.20    0.18
   2   8   0    0.95    0.11
  -3  -8   0   12.18    0.42
   3   8   0   12.46    0.37
  -4  -8   0   14.23    0.46
   4   8   0   14.03    0.40
   4   8   0   14.36    0.41
  -5  -8   0    1.04    0.16
   5   8   0    0.54    0.13
  -6  -8   0    3.53    0.24
   6   8   0    4.17    0.23
  -7  -8   0    0.68    0.16
   7   8   0    0.52    0.15
  -8  -8   0    0.25    0.13
   8   8   0    0.18    0.13
  -9  -8   0    1.57    0.20
   9   8   0    1.41    0.21
 -10  -8   0    0.26    0.15
  10   8   0    0.57    0.19
  -2   9   0    1.95    0.22
  -1   9   0    3.00    0.23
   0   9   0   -0.08    0.09
   1   9   0    5.23    0.25
  -2  -9   0    3.16    0.27
   2   9   0    3.25    0.19
  -3  -9   0    0.54    0.17
   3   9   0    0.34    0.10
  -4  -9   0    0.43    0.14
  -5  -9   0    4.08    0.26
   5   9   0    4.13    0.24
  -6  -9   0    1.13    0.17
   6   9   0    0.98    0.15
  -7  -9   0    0.28    0.15
   7   9   0    0.31    0.14
  -8  -9   0    1.03    0.18
   8   9   0    0.83    0.17
  -9  -9   0    0.90    0.18
   9   9   0    0.90    0.20
 -10  -9   0    0.30    0.16
  10   9   0    0.26    0.18
  -1  10   0    1.15    0.17
   0  10   0    0.88    0.15
  -1 -10   0    0.66    0.20
   1  10   0    0.76    0.15
  -2 -10   0    0.19    0.18
   2  10   0    0.18    0.11
  -3 -10   0    4.89    0.31
   3  10   0    4.91    0.24
  -4 -10   0    7.80    0.36
  -5 -10   0    1.01    0.19
  -6 -10   0    1.29    0.18
   6  10   0    1.35    0.18
  -7 -10   0    0.48    0.15
   7  10   0    0.53    0.16
  -8 -10   0    4.37    0.29
   8  10   0    3.51    0.26
  -9 -10   0    1.14    0.20
   9  10   0    1.05    0.20
 -10 -10   0   -0.01    0.22
   0  11   0    0.05    0.19
  -1 -11   0   -0.25    0.18
   1  11   0    0.21    0.12
  -2 -11   0    0.96    0.25
   2  11   0    1.30    0.17
  -3 -11   0    1.73    0.24
  -4 -11   0    0.68    0.18
  -5 -11   0    0.40    0.17
  -6 -11   0    2.23    0.24
  -7 -11   0    0.93    0.19
  -8 -11   0    0.41    0.17
   8  11   0    0.35    0.17
  -9 -11   0    0.41    0.17
  -5 -12   0    1.59    0.23
  -6 -12   0    0.58    0.19
  -7 -12   0    0.37    0.18
  -6 -12   1    0.32    0.17
  -5 -12   1    0.36    0.18
  -4 -12   1    0.82    0.24
   8  11  -1    0.31    0.16
  -8 -11   1    0.75    0.26
  -7 -11   1    0.34    0.16
  -6 -11   1    0.15    0.15
  -5 -11   1    3.28    0.29
  -4 -11   1    4.10    0.30
  -3 -11   1    0.15    0.19
   2  11  -1    0.34    0.14
  -2 -11   1    0.51    0.21
   1  11  -1    0.14    0.12
  -1 -11   1    0.20    0.23
   9  10  -1    0.55    0.17
   8  10  -1    0.21    0.16
  -8 -10   1    0.33    0.15
   7  10  -1    1.77    0.21
  -7 -10   1    2.12    0.23
   6  10  -1    1.28    0.18
  -6 -10   1    1.69    0.21
  -5 -10   1    0.94    0.18
  -4 -10   1    0.88    0.18
   3  10  -1    0.60    0.12
  -3 -10   1    0.37    0.18
   2  10  -1    1.17    0.15
  -2 -10   1    1.04    0.22
   1  10  -1    1.89    0.19
  -1 -10   1    1.61    0.24
   0  10  -1   -0.01    0.12
  -1  10  -1    0.72    0.16
   9   9  -1    1.35    0.21
  -9  -9   1    1.33    0.22
   8   9  -1    0.24    0.16
  -8  -9   1    0.39    0.14
   7   9  -1    2.06    0.21
  -7  -9   1    2.54    0.24
   6   9  -1    0.63    0.14
  -6  -9   1    0.77    0.15
   5   9  -1    1.79    0.18
  -5  -9   1    1.88    0.19
   4   9  -1    2.12    0.17
  -4  -9   1    2.00    0.20
   3   9  -1    0.13    0.09
  -3  -9   1    0.05    0.13
   2   9  -1    4.40    0.23
  -2  -9   1    4.02    0.28
   1   9  -1    4.11    0.23
   0   9  -1    5.79    0.28
  -1   9  -1    2.41    0.22
  -2   9  -1   -0.02    0.11
  10   8  -1    0.43    0.19
   9   8  -1    2.18    0.23
  -9  -8   1    1.55    0.20
   8   8  -1    0.87    0.17
  -8  -8   1    1.13    0.17
   7   8  -1    0.60    0.14
  -7  -8   1    0.39    0.13
   6   8  -1    4.73    0.25
  -6  -8   1    4.63    0.26
   5   8  -1   12.28    0.40
  -5  -8   1   11.95    0.41
   4   8  -1    2.15    0.17
   4   8  -1    2.33    0.15
  -4  -8   1    2.41    0.20
   3   8  -1    9.99    0.32
  -3  -8   1    9.89    0.37
   2   8  -1    0.27    0.09
  -2  -8   1    0.32    0.15
   1   8  -1   35.35    0.86
   0   8  -1    2.49    0.18
  -1   8  -1    0.63    0.13
  -2   8  -1    3.29    0.22
  -3   8  -1    2.00    0.21
  -4   8  -1   -0.03    0.13
  10   7  -1    2.20    0.24
   9   7  -1    0.02    0.13
  -9  -7   1    0.24    0.12
   8   7  -1   -0.12    0.13
  -8  -7   1    0.08    0.11
   7   7  -1   10.11    0.37
  -7  -7   1    9.65    0.36
   6   7  -1   11.23    0.39
  -6  -7   1   12.60    0.41
   5   7  -1    1.67    0.14
   5   7  -1    1.83    0.17
  -5  -7   1    2.14    0.19
  -5  -7   1    2.30    0.18
   4   7  -1    2.97    0.19
   4   7  -1    3.33    0.16
  -4  -7   1    3.01    0.19
   3   7  -1   18.13    0.48
   3   7  -1   18.75    0.48
  -3  -7   1   18.10    0.51
   2   7  -1    9.80    0.30
   2   7  -1   10.16    0.31
  -2  -7   1   10.03    0.35
   1   7  -1    2.33    0.16
   0   7  -1    0.97    0.12
  -1   7  -1    8.68    0.31
  -2   7  -1    3.30    0.20
  -3   7  -1    0.05    0.10
  -4   7  -1    0.99    0.15
  -5   7  -1    1.33    0.19
  11   6  -1    0.18    0.17
  10   6  -1    0.02    0.14
 -10  -6   1    0.03    0.13
   9   6  -1    0.23    0.14
  -9  -6   1    0.41    0.12
   8   6  -1    1.98    0.20
  -8  -6   1    2.50    0.20
   7   6  -1    0.77    0.14
  -7  -6   1    0.64    0.12
   6   6  -1    2.25    0.18
  -6  -6   1    1.98    0.17
   5   6  -1   19.64    0.52
   5   6  -1   18.88    0.49
  -5  -6   1   18.79    0.47
  -5  -6   1   19.60    0.53
   4   6  -1    1.07    0.10
   4   6  -1    1.24    0.13
  -4  -6   1    1.15    0.13
   3   6  -1    5.90    0.22
   3   6  -1    6.08    0.21
  -3  -6   1    5.96    0.24
   2   6  -1    0.94    0.10
   2   6  -1    0.81    0.09
  -2  -6   1    0.98    0.12
   1   6  -1   16.85    0.45
   1   6  -1   17.37    0.41
   0   6  -1    3.51    0.17
  -1   6  -1    0.35    0.09
  -2   6  -1    0.41    0.10
  -3   6  -1    1.95    0.17
  -4   6  -1    1.43    0.16
  -5   6  -1    0.08    0.11
  -6   6  -1    0.24    0.14
  11   5  -1    0.68    0.19
  10   5  -1    0.18    0.14
 -10  -5   1   -0.11    0.11
   9   5  -1   -0.11    0.14
  -9  -5   1   -0.07    0.10
   8   5  -1    0.12    0.12
  -8  -5   1    0.00    0.09
   7   5  -1    2.93    0.21
  -7  -5   1    3.70    0.20
   6   5  -1   10.66    0.35
  -6  -5   1   10.37    0.34
   5   5  -1   11.74    0.35
  -5  -5   1   11.60    0.30
  -5  -5   1   10.63    0.35
   4   5  -1   18.96    0.48
   4   5  -1   18.25    0.46
  -4  -5   1   17.92    0.44
  -4  -5   1   18.76    0.48
   3   5  -1    2.87    0.14
   3   5  -1    3.05    0.13
  -3  -5   1    2.85    0.15
   2   5  -1   22.64    0.53
   2   5  -1   22.78    0.53
  -2  -5   1   22.79    0.56
   1   5  -1    1.13    0.09
   1   5  -1    1.19    0.08
   0   5  -1    3.84    0.12
   0   5  -1    3.91    0.16
  -1   5  -1    9.30    0.29
  -2   5  -1    3.64    0.17
  -3   5  -1    1.30    0.13
  -4   5  -1    0.73    0.12
  -5   5  -1    2.27    0.18
  -6   5  -1    2.55    0.21
  -7   5  -1    0.16    0.13
  11   4  -1    0.82    0.19
  10   4  -1    0.07    0.13
 -10  -4   1   -0.02    0.11
   9   4  -1    0.42    0.14
  -9  -4   1    0.29    0.11
   8   4  -1    3.95    0.24
  -8  -4   1    4.61    0.22
   7   4  -1    2.86    0.20
  -7  -4   1    3.42    0.18
   6   4  -1    2.00    0.16
  -6  -4   1    1.79    0.11
  -6  -4   1    1.71    0.14
   5   4  -1    1.85    0.14
  -5  -4   1    1.74    0.13
  -5  -4   1    1.87    0.10
   4   4  -1   32.62    0.74
  -4  -4   1   32.23    0.71
  -4  -4   1   31.18    0.74
   3   4  -1   17.83    0.42
   3   4  -1   17.40    0.44
  -3  -4   1   17.73    0.44
   2   4  -1    0.03    0.05
   2   4  -1    0.05    0.04
  -2  -4   1    0.01    0.05
   1   4  -1    1.39    0.08
   1   4  -1    1.29    0.08
   0   4  -1    8.26    0.24
   0   4  -1    8.42    0.20
  -1   4  -1    0.21    0.06
  -2   4  -1    1.25    0.11
  -3   4  -1    1.00    0.11
  -4   4  -1   13.44    0.41
  -5   4  -1   10.57    0.36
  -6   4  -1    0.26    0.12
  -7   4  -1    1.01    0.16
  -8   4  -1    0.01    0.12
  10   3  -1    1.12    0.17
 -10  -3   1    1.52    0.19
   9   3  -1    2.02    0.21
  -9  -3   1    2.24    0.20
   8   3  -1    0.53    0.14
  -8  -3   1    0.76    0.12
   7   3  -1    3.28    0.21
  -7  -3   1    2.65    0.17
  -7  -3   1    3.00    0.15
   6   3  -1    7.46    0.27
  -6  -3   1    7.38    0.22
  -6  -3   1    7.65    0.26
   5   3  -1   22.89    0.57
  -5  -3   1   23.30    0.52
  -5  -3   1   22.65    0.55
   4   3  -1    4.69    0.18
  -4  -3   1    4.81    0.17
  -4  -3   1    4.92    0.15
   3   3  -1    2.46    0.11
   3   3  -1    2.38    0.12
  -3  -3   1    2.33    0.11
  -3  -3   1    2.21    0.09
   2   3  -1   20.29    0.47
   2   3  -1   20.60    0.47
  -2  -3   1   21.04    0.48
   1   3  -1   67.92    1.43
   1   3  -1   70.13    1.44
   0   3  -1   48.91    1.00
   0   3  -1   47.35    1.03
  -1   3  -1   13.13    0.32
  -1   3  -1   12.41    0.27
  -2   3  -1   38.76    0.86
  -3   3  -1   28.05    0.66
  -3   3  -1   27.00    0.66
  -4   3  -1    8.71    0.29
  -4   3  -1    8.50    0.30
  -5   3  -1    0.92    0.13
  -5   3  -1    0.93    0.14
  -6   3  -1    1.86    0.17
  -6   3  -1    1.90    0.19
  -7   3  -1    1.13    0.16
  -7   3  -1    0.57    0.14
  -8   3  -1   -0.03    0.15
  -8   3  -1    0.14    0.11
 -10  -2   1    0.53    0.15
   9   2  -1    0.10    0.12
  -9  -2   1    0.06    0.11
   8   2  -1    4.66    0.25
  -8  -2   1    4.80    0.24
   7   2  -1    6.37    0.26
  -7  -2   1    5.84    0.22
  -7  -2   1    6.32    0.25
   6   2  -1    5.71    0.23
  -6  -2   1    5.86    0.20
  -6  -2   1    5.64    0.21
   5   2  -1   14.94    0.39
  -5  -2   1   14.69    0.36
  -5  -2   1   14.20    0.38
   4   2  -1   25.74    0.59
  -4  -2   1   25.24    0.56
  -4  -2   1   25.04    0.58
   3   2  -1   18.98    0.46
  -3  -2   1   19.93    0.45
  -3  -2   1   19.31    0.43
   2   2  -1    7.43    0.20
  -2  -2   1    7.66    0.20
  -2  -2   1    7.32    0.19
   1   2  -1   43.55    0.91
   1   2  -1   43.71    0.91
  -1  -2   1   43.58    0.92
   0   2  -1   64.94    1.30
   0   2  -1   61.81    1.32
  -1   2  -1    2.37    0.06
  -1   2  -1    2.39    0.10
  -1   2  -1    2.53    0.10
  -2   2  -1    3.37    0.13
  -2   2  -1    3.12    0.12
   2  -2   1    3.39    0.09
  -3   2  -1    1.18    0.10
  -3   2  -1    1.21    0.09
   3  -2   1    1.20    0.06
  -4   2  -1   10.12    0.32
  -4   2  -1   10.65    0.31
   4  -2   1   10.82    0.26
  -5   2  -1   18.37    0.50
  -5   2  -1   18.98    0.49
  -6   2  -1    0.56    0.11
  -6   2  -1    0.50    0.12
  -7   2  -1    0.32    0.11
  -7   2  -1    0.19    0.13
  -8   2  -1    1.05    0.17
  -8   2  -1    0.98    0.15
  -9   2  -1    1.09    0.19
 -10  -1   1    0.30    0.15
  -9  -1   1    1.98    0.20
   8   1  -1    5.19    0.25
  -8  -1   1    5.61    0.26
  -8  -1   1    5.31    0.23
   7   1  -1    1.08    0.14
  -7  -1   1    1.33    0.12
  -7  -1   1    0.99    0.12
   6   1  -1    1.63    0.14
  -6  -1   1    1.58    0.13
  -6  -1   1    1.60    0.12
   5   1  -1    1.64    0.12
  -5  -1   1    1.46    0.11
  -5  -1   1    1.56    0.10
   4   1  -1   10.20    0.27
  -4  -1   1    9.45    0.25
  -4  -1   1    9.40    0.26
   3   1  -1    1.66    0.09
  -3  -1   1    1.52    0.08
  -3  -1   1    1.64    0.08
   2   1  -1   22.73    0.51
  -2  -1   1   23.90    0.50
   1   1  -1  110.02    2.27
   1   1  -1  113.85    2.27
  -1  -1   1  106.47    2.26
  -1  -1   1  114.33    2.30
   0   1  -1   63.45    1.34
   0   1  -1   66.89    1.33
  -1   1  -1   59.03    1.25
  -1   1  -1   61.86    1.23
  -1   1  -1   59.76    1.25
  -2   1  -1   31.04    0.67
  -2   1  -1   30.46    0.68
   2  -1   1   31.10    0.65
  -3   1  -1   13.29    0.34
  -3   1  -1   12.27    0.32
   3  -1   1   13.23    0.30
  -4   1  -1   54.85    1.19
  -4   1  -1   54.56    1.21
   4  -1   1   56.46    1.17
  -5   1  -1   18.63    0.50
  -5   1  -1   19.13    0.48
   5  -1   1   19.15    0.46
  -6   1  -1    6.01    0.25
  -6   1  -1    6.16    0.23
  -7   1  -1    0.01    0.08
  -7   1  -1    0.08    0.10
  -8   1  -1    2.31    0.18
  -8   1  -1    2.13    0.20
  -9   1  -1    0.22    0.15
 -10   0   1    0.73    0.17
  -9   0   1    0.40    0.14
  -8   0   1    0.05    0.08
  -8   0   1    0.20    0.12
   7   0  -1    1.09    0.13
  -7   0   1    1.22    0.15
  -7   0   1    1.03    0.12
   6   0  -1    8.83    0.28
  -6   0   1    8.48    0.29
  -6   0   1    8.48    0.27
   5   0  -1    7.85    0.25
  -5   0   1    8.10    0.25
  -5   0   1    7.50    0.25
   4   0  -1   -0.02    0.05
  -4   0   1   -0.02    0.05
  -4   0   1    0.06    0.05
   3   0  -1    4.91    0.15
  -3   0   1    5.11    0.15
  -3   0   1    4.88    0.15
   2   0  -1   18.09    0.40
  -2   0   1   18.51    0.40
  -2   0   1   17.70    0.40
   1   0  -1  125.43    2.56
  -1   0   1  127.50    2.56
  -1   0   1  124.02    2.55
   0   0  -1   -0.20    0.01
   0   0  -1   -0.20    0.01
   0   0   1   -0.20    0.00
  -1   0  -1    7.53    0.18
  -1   0  -1    7.41    0.17
  -2   0  -1  122.61    2.48
  -2   0  -1  118.58    2.49
   2   0   1  123.46    2.48
  -3   0  -1   52.23    1.12
  -3   0  -1   52.28    1.10
   3   0   1   52.83    1.10
  -4   0  -1    6.88    0.20
  -4   0  -1    6.76    0.22
   4   0   1    7.02    0.20
  -5   0  -1   18.75    0.46
  -5   0  -1   18.60    0.49
   5   0   1   19.71    0.46
  -6   0  -1    8.31    0.25
  -6   0  -1    8.12    0.29
   6   0   1    7.48    0.25
  -7   0  -1    0.40    0.11
  -7   0  -1    0.45    0.09
   7   0   1    0.21    0.10
  -8   0  -1    0.13    0.11
  -9   0  -1    1.53    0.20
 -10   0  -1    0.62    0.16
  -9   1   1    0.58    0.17
  -8   1   1    3.64    0.25
  -8   1   1    3.55    0.21
  -7   1   1   -0.09    0.10
  -7   1   1    0.06    0.09
  -6   1   1    8.88    0.30
  -6   1   1    8.29    0.28
   5  -1  -1    6.89    0.22
  -5   1   1    6.59    0.24
  -5   1   1    6.99    0.23
   4  -1  -1   35.17    0.77
  -4   1   1   34.95    0.79
  -4   1   1   35.09    0.80
   3  -1  -1   16.81    0.38
  -3   1   1   16.66    0.40
  -3   1   1   16.33    0.40
   2  -1  -1   20.86    0.45
  -2   1   1   20.25    0.47
  -2   1   1   20.75    0.47
   1  -1  -1   43.93    0.91
  -1   1   1   44.63    0.92
  -1   1   1   43.56    0.92
   0  -1  -1   35.81    0.74
  -1  -1  -1   21.63    0.47
   1   1   1   22.58    0.47
  -2  -1  -1   33.41    0.72
  -2  -1  -1   34.39    0.69
   2   1   1   33.23    0.71
  -3  -1  -1    9.48    0.25
  -3  -1  -1    9.31    0.22
   3   1   1    9.75    0.24
  -4  -1  -1   45.91    0.97
  -4  -1  -1   45.91    1.01
   4   1   1   46.21    0.99
  -5  -1  -1    0.42    0.06
  -5  -1  -1    0.43    0.08
   5   1   1    0.43    0.08
  -6  -1  -1    0.78    0.08
  -6  -1  -1    0.85    0.11
   6   1   1    0.83    0.10
  -7  -1  -1    5.35    0.20
  -7  -1  -1    5.09    0.23
   7   1   1    4.65    0.23
  -8  -1  -1    0.74    0.14
   8   1   1    0.89    0.13
  -9  -1  -1    0.12    0.11
 -10  -1  -1    0.24    0.15
  -9   2   1    0.79    0.15
  -9   2   1    0.54    0.17
  -8   2   1    0.79    0.15
  -8   2   1    0.39    0.14
  -7   2   1    0.03    0.10
  -7   2   1    0.15    0.10
  -6   2   1    0.03    0.10
  -6   2   1    0.04    0.09
  -5   2   1    5.87    0.23
  -5   2   1    5.54    0.22
   4  -2  -1    5.10    0.16
  -4   2   1    5.04    0.20
  -4   2   1    5.15    0.20
   3  -2  -1    8.07    0.20
  -3   2   1    7.40    0.24
  -3   2   1    7.81    0.24
   2  -2  -1   81.78    1.68
  -2   2   1   83.03    1.73
  -2   2   1   82.21    1.73
   1  -2  -1    2.76    0.08
  -1   2   1    2.83    0.11
   0   2   1   31.69    0.69
   0   2   1   32.96    0.67
  -1  -2  -1  119.41    2.45
   1   2   1  120.71    2.44
   1   2   1  118.74    2.43
  -2  -2  -1   39.89    0.87
   2   2   1   41.10    0.85
   2   2   1   39.86    0.82
  -3  -2  -1   14.16    0.30
  -3  -2  -1   13.60    0.34
   3   2   1   13.64    0.34
  -4  -2  -1   11.94    0.32
  -4  -2  -1   12.15    0.28
   4   2   1   12.18    0.32
  -5  -2  -1   41.65    0.88
  -5  -2  -1   41.02    0.93
   5   2   1   40.83    0.92
  -6  -2  -1    2.08    0.15
  -6  -2  -1    2.16    0.10
   6   2   1    2.24    0.15
  -7  -2  -1    7.21    0.28
   7   2   1    6.84    0.26
  -8  -2  -1    1.26    0.16
   8   2   1    1.35    0.16
  -9  -2  -1    0.82    0.16
   9   2   1    0.93    0.15
 -10  -2  -1    0.91    0.17
 -11  -2  -1    0.24    0.16
  -8   3   1    0.73    0.18
  -8   3   1    0.70    0.16
  -7   3   1    1.77    0.20
  -7   3   1    1.92    0.20
  -6   3   1    2.29    0.18
  -6   3   1    2.11    0.19
  -5   3   1    0.31    0.10
  -5   3   1    0.30    0.10
  -4   3   1    5.46    0.23
  -4   3   1    5.27    0.21
  -3   3   1   18.33    0.47
   2  -3  -1   86.94    1.85
  -2   3   1   94.94    1.92
  -1   3   1    0.18    0.02
  -1   3   1    0.08    0.04
   0   3   1    4.93    0.15
   0   3   1    4.98    0.12
  -1  -3  -1   12.74    0.32
   1   3   1   13.03    0.30
   1   3   1   12.88    0.30
  -2  -3  -1   51.25    1.10
   2   3   1   51.32    1.06
   2   3   1   51.17    1.08
  -3  -3  -1   30.88    0.64
  -3  -3  -1   30.11    0.70
   3   3   1   31.43    0.69
   3   3   1   31.14    0.65
  -4  -3  -1    0.05    0.02
  -4  -3  -1    0.05    0.06
   4   3   1    0.02    0.06
  -5  -3  -1   28.03    0.59
  -5  -3  -1   26.85    0.66
   5   3   1   27.19    0.65
  -6  -3  -1   13.11    0.31
  -6  -3  -1   13.03    0.38
   6   3   1   12.26    0.37
  -7  -3  -1    0.06    0.09
   7   3   1    0.27    0.10
  -8  -3  -1    0.92    0.14
   8   3   1    1.12    0.16
  -9  -3  -1    3.67    0.23
   9   3   1    4.00    0.25
 -10  -3  -1    0.38    0.15
  10   3   1    0.54    0.16
 -11  -3  -1    0.08    0.13
  -8   4   1    0.16    0.15
  -7   4   1    0.85    0.16
  -6   4   1    0.65    0.14
  -5   4   1    4.39    0.23
  -4   4   1    6.95    0.27
  -3   4   1    1.74    0.13
  -2   4   1    1.99    0.13
  -1   4   1   34.55    0.78
   0   4   1   56.54    1.22
   0   4   1   57.62    1.18
   1   4   1    0.05    0.03
   1   4   1    0.04    0.03
  -2  -4  -1  111.82    2.34
   2   4   1  111.38    2.31
   2   4   1  112.82    2.30
  -3  -4  -1   40.46    0.89
   3   4   1   38.83    0.83
   3   4   1   39.08    0.87
  -4  -4  -1   33.04    0.70
  -4  -4  -1   33.08    0.78
   4   4   1   33.72    0.76
  -5  -4  -1    0.87    0.11
  -5  -4  -1    0.92    0.05
   5   4   1    0.88    0.10
  -6  -4  -1    0.31    0.09
   6   4   1    0.39    0.10
  -7  -4  -1    5.59    0.25
   7   4   1    5.98    0.25
  -8  -4  -1    5.39    0.26
   8   4   1    5.69    0.26
  -9  -4  -1    1.40    0.17
   9   4   1    1.09    0.16
 -10  -4  -1    0.64    0.15
  10   4   1    0.85    0.17
 -11  -4  -1    0.31    0.16
  11   4   1    0.62    0.18
  -7   5   1    0.14    0.13
  -6   5   1    3.70    0.26
  -5   5   1    5.20    0.27
  -4   5   1    0.08    0.09
  -3   5   1    0.77    0.12
  -2   5   1   13.87    0.40
  -1   5   1    2.67    0.14
   0   5   1    2.14    0.12
   0   5   1    2.22    0.08
   1   5   1    7.39    0.22
   1   5   1    7.50    0.20
  -2  -5  -1   34.70    0.80
   2   5   1   34.45    0.76
   2   5   1   33.78    0.75
  -3  -5  -1    0.47    0.09
   3   5   1    0.55    0.07
   3   5   1    0.58    0.06
  -4  -5  -1   11.51    0.34
   4   5   1   11.44    0.29
   4   5   1   11.94    0.33
  -5  -5  -1    0.09    0.05
  -5  -5  -1    0.03    0.07
   5   5   1    0.12    0.09
  -6  -5  -1    7.21    0.28
   6   5   1    7.13    0.27
  -7  -5  -1    0.34    0.10
   7   5   1    0.24    0.11
  -8  -5  -1    0.28    0.11
   8   5   1    0.59    0.14
  -9  -5  -1    0.92    0.15
   9   5   1    0.65    0.15
 -10  -5  -1    1.95    0.21
  10   5   1    1.89    0.21
 -11  -5  -1    0.15    0.14
  11   5   1    0.14    0.15
  -6   6   1    0.06    0.12
  -5   6   1   -0.05    0.11
  -4   6   1    5.18    0.26
  -3   6   1    0.22    0.10
  -2   6   1    0.15    0.09
  -1   6   1    0.02    0.07
   0   6   1   22.89    0.57
   1   6   1   25.25    0.60
   1   6   1   25.07    0.56
  -2  -6  -1    1.43    0.14
   2   6   1    1.51    0.10
   2   6   1    1.46    0.11
  -3  -6  -1    0.41    0.10
   3   6   1    0.40    0.06
   3   6   1    0.34    0.08
  -4  -6  -1    6.06    0.25
   4   6   1    6.81    0.24
   4   6   1    6.87    0.20
  -5  -6  -1    2.21    0.16
   5   6   1    2.10    0.17
  -6  -6  -1    0.40    0.11
   6   6   1    0.35    0.11
  -7  -6  -1    0.38    0.11
   7   6   1    0.29    0.11
  -8  -6  -1   13.36    0.45
   8   6   1   13.59    0.45
  -9  -6  -1    1.27    0.18
   9   6   1    1.35    0.18
 -10  -6  -1    0.23    0.14
  10   6   1    0.40    0.17
 -11  -6  -1    0.06    0.14
  11   6   1    0.05    0.15
  -5   7   1    1.10    0.17
  -4   7   1    0.70    0.14
  -3   7   1    0.10    0.10
  -2   7   1    2.73    0.19
  -1   7   1    1.39    0.14
   0   7   1    2.19    0.17
   1   7   1    0.00    0.07
  -2  -7  -1    4.67    0.24
   2   7   1    4.52    0.19
   2   7   1    4.69    0.18
  -3  -7  -1    9.13    0.33
   3   7   1    9.54    0.29
   3   7   1    9.41    0.28
  -4  -7  -1    7.98    0.30
   4   7   1    7.80    0.24
   4   7   1    7.88    0.27
  -5  -7  -1    1.83    0.17
   5   7   1    1.86    0.16
  -6  -7  -1    8.03    0.32
   6   7   1    7.08    0.29
  -7  -7  -1    0.01    0.10
   7   7   1    0.01    0.12
  -8  -7  -1   10.65    0.40
   8   7   1   10.54    0.39
  -9  -7  -1    0.22    0.12
   9   7   1    0.17    0.15
 -10  -7  -1    1.38    0.20
  10   7   1    1.05    0.21
 -11  -7  -1    0.32    0.17
  11   7   1    0.17    0.20
  -4   8   1    0.45    0.17
  -3   8   1    0.62    0.15
  -2   8   1    1.97    0.19
  -1   8   1    0.30    0.11
   0   8   1    3.74    0.21
   1   8   1   13.77    0.41
  -2  -8  -1    1.19    0.17
   2   8   1    1.10    0.12
  -3  -8  -1    7.15    0.31
   3   8   1    7.43    0.25
  -4  -8  -1    2.45    0.20
   4   8   1    2.24    0.17
   4   8   1    2.22    0.15
  -5  -8  -1    8.40    0.32
   5   8   1    7.63    0.29
  -6  -8  -1    3.27    0.24
   6   8   1    3.43    0.22
  -7  -8  -1    2.00    0.21
   7   8   1    1.69    0.18
  -8  -8  -1    2.39    0.23
   8   8   1    1.99    0.22
  -9  -8  -1    3.46    0.28
   9   8   1    2.73    0.24
 -10  -8  -1    0.47    0.15
  10   8   1    0.36    0.18
 -11  -8  -1    0.11    0.16
  -2   9   1    0.19    0.13
  -1   9   1    1.46    0.17
   0   9   1    8.89    0.34
  -1  -9  -1    3.65    0.30
   1   9   1    3.32    0.21
  -2  -9  -1    0.79    0.18
   2   9   1    0.82    0.12
  -3  -9  -1    1.87    0.22
   3   9   1    2.06    0.16
  -4  -9  -1    4.63    0.27
  -5  -9  -1    0.14    0.12
   5   9   1    0.06    0.11
  -6  -9  -1    1.24    0.18
   6   9   1    1.04    0.15
  -7  -9  -1    8.66    0.37
   7   9   1    8.14    0.36
  -8  -9  -1    7.14    0.36
   8   9   1    6.33    0.32
  -9  -9  -1    0.38    0.14
   9   9   1    0.26    0.15
 -10  -9  -1    0.20    0.16
  10   9   1    0.07    0.15
  -1  10   1    1.84    0.21
   0  10   1    0.00    0.12
  -1 -10  -1    3.06    0.29
   1  10   1    3.20    0.22
  -2 -10  -1    2.86    0.29
   2  10   1    2.76    0.20
  -3 -10  -1    2.47    0.26
  -4 -10  -1    1.09    0.19
  -5 -10  -1    6.26    0.33
  -6 -10  -1    3.88    0.26
   6  10   1    3.32    0.22
  -7 -10  -1    4.78    0.31
   7  10   1    4.11    0.28
  -8 -10  -1   -0.09    0.14
   8  10   1   -0.08    0.15
  -9 -10  -1    1.06    0.19
   9  10   1    0.84    0.19
 -10 -10  -1    0.11    0.16
   0  11   1    1.65    0.20
  -1 -11  -1    0.82    0.23
   1  11   1    1.05    0.18
  -2 -11  -1    0.16    0.22
   2  11   1    0.47    0.14
  -3 -11  -1    1.56    0.26
  -4 -11  -1    3.27    0.30
  -5 -11  -1    2.31    0.25
  -6 -11  -1    0.47    0.16
  -7 -11  -1    0.02    0.15
  -8 -11  -1    1.23    0.22
   8  11   1    0.81    0.20
  -9 -11  -1    1.32    0.22
   9  11   1    0.69    0.29
  -5 -12  -1    0.34    0.20
  -6 -12  -1    0.38    0.18
   8  11  -2    1.60    0.22
  -6 -11   2    2.23    0.24
  -5 -11   2    0.41    0.15
  -4 -11   2    1.00    0.21
   3  11  -2    1.35    0.18
  -3 -11   2    1.36    0.25
   2  11  -2    2.41    0.23
  -2 -11   2    2.60    0.30
   1  11  -2   -0.16    0.11
  -1 -11   2   -0.14    0.19
   9  10  -2    1.86    0.33
   8  10  -2    3.59    0.27
   7  10  -2    1.21    0.19
  -7 -10   2    0.96    0.27
   6  10  -2    0.12    0.13
  -6 -10   2    0.33    0.14
  -5 -10   2    0.49    0.15
  -4 -10   2    0.90    0.19
   3  10  -2    0.85    0.15
  -3 -10   2    0.68    0.19
   2  10  -2    0.09    0.10
  -2 -10   2   -0.24    0.17
   1  10  -2    2.00    0.20
  -1 -10   2    1.57    0.25
   0  10  -2    0.93    0.16
  -1  10  -2    0.37    0.15
   9   9  -2    1.33    0.20
   8   9  -2    0.41    0.15
   7   9  -2    0.70    0.17
  -7  -9   2    0.64    0.14
   6   9  -2    1.35    0.18
  -6  -9   2    1.35    0.18
   5   9  -2    0.70    0.13
  -5  -9   2    1.09    0.17
   4   9  -2    1.56    0.16
  -4  -9   2    1.68    0.20
   3   9  -2    0.08    0.09
  -3  -9   2    0.05    0.14
   2   9  -2    9.39    0.35
  -2  -9   2    9.83    0.42
   1   9  -2    7.51    0.31
   0   9  -2    0.55    0.13
  -1   9  -2    0.24    0.12
  -2   9  -2    0.75    0.17
  10   8  -2    0.23    0.20
   9   8  -2    0.99    0.20
   8   8  -2    0.99    0.17
   7   8  -2    1.80    0.20
  -7  -8   2    1.88    0.20
   6   8  -2    2.20    0.20
  -6  -8   2    2.57    0.22
   5   8  -2    0.01    0.09
   5   8  -2   -0.04    0.09
  -5  -8   2    0.26    0.12
   4   8  -2    3.31    0.20
   4   8  -2    3.20    0.19
  -4  -8   2    3.53    0.23
   3   8  -2    4.11    0.20
  -3  -8   2    4.17    0.24
   2   8  -2    2.69    0.18
  -2  -8   2    2.96    0.22
   1   8  -2    0.19    0.09
   0   8  -2    1.52    0.16
  -1   8  -2    3.51    0.22
  -2   8  -2    0.15    0.11
  -3   8  -2    0.17    0.12
  -4   8  -2    1.62    0.31
  10   7  -2    0.36    0.16
   9   7  -2    6.48    0.35
   8   7  -2    0.10    0.13
  -8  -7   2    0.01    0.10
   7   7  -2    0.46    0.14
  -7  -7   2    0.44    0.12
   6   7  -2    0.52    0.13
  -6  -7   2    0.31    0.11
   5   7  -2    8.66    0.31
   5   7  -2    9.50    0.33
  -5  -7   2    8.84    0.29
  -5  -7   2    9.18    0.33
   4   7  -2    6.26    0.25
   4   7  -2    6.27    0.24
  -4  -7   2    6.59    0.27
   3   7  -2    1.71    0.13
   3   7  -2    1.64    0.14
  -3  -7   2    1.86    0.17
   2   7  -2   13.24    0.39
   2   7  -2   13.59    0.38
  -2  -7   2   13.48    0.43
   1   7  -2   15.18    0.43
   0   7  -2    1.03    0.12
  -1   7  -2    0.09    0.10
  -2   7  -2    0.24    0.10
  -3   7  -2    5.21    0.27
  -4   7  -2    0.21    0.12
  -5   7  -2    0.12    0.12
  10   6  -2    1.57    0.22
   9   6  -2    2.04    0.22
   8   6  -2    0.03    0.12
  -8  -6   2    0.32    0.11
   7   6  -2    4.38    0.24
  -7  -6   2    4.60    0.22
   6   6  -2    1.73    0.17
  -6  -6   2    1.64    0.15
   5   6  -2    0.28    0.09
   5   6  -2    0.48    0.12
  -5  -6   2    0.45    0.11
  -5  -6   2    0.48    0.09
   4   6  -2    1.63    0.14
   4   6  -2    1.37    0.12
  -4  -6   2    1.62    0.14
   3   6  -2   28.93    0.70
   3   6  -2   29.75    0.70
  -3  -6   2   30.76    0.73
   2   6  -2   21.73    0.52
   2   6  -2   21.55    0.54
  -2  -6   2   21.29    0.56
   1   6  -2    6.32    0.20
   1   6  -2    6.66    0.23
   0   6  -2    4.26    0.20
  -1   6  -2   12.11    0.37
  -2   6  -2    0.88    0.13
  -3   6  -2    0.34    0.10
  -4   6  -2    3.41    0.21
  -5   6  -2    1.91    0.19
  -6   6  -2    0.57    0.15
  11   5  -2    0.48    0.19
  10   5  -2    0.11    0.16
   9   5  -2    1.03    0.19
   8   5  -2    0.46    0.15
  -8  -5   2    0.81    0.12
   7   5  -2    0.17    0.12
  -7  -5   2    0.32    0.09
   6   5  -2    1.25    0.14
  -6  -5   2    1.27    0.10
  -6  -5   2    1.23    0.13
   5   5  -2   22.05    0.56
  -5  -5   2   20.65    0.55
  -5  -5   2   21.45    0.52
   4   5  -2   20.91    0.51
   4   5  -2   18.96    0.50
  -4  -5   2   19.07    0.48
  -4  -5   2   19.66    0.50
   3   5  -2   49.48    1.07
   3   5  -2   47.27    1.07
  -3  -5   2   48.25    1.08
   2   5  -2    0.25    0.07
   2   5  -2    0.24    0.06
  -2  -5   2    0.26    0.09
   1   5  -2   15.71    0.41
   1   5  -2   16.48    0.39
   0   5  -2    5.47    0.20
   0   5  -2    5.34    0.15
  -1   5  -2    0.05    0.06
  -2   5  -2    5.04    0.21
  -3   5  -2    8.19    0.29
  -4   5  -2    6.26    0.27
  -5   5  -2    1.63    0.17
  -6   5  -2    0.42    0.14
  -7   5  -2    0.15    0.13
  11   4  -2    0.14    0.16
  10   4  -2    1.85    0.22
   9   4  -2    1.00    0.17
  -9  -4   2    1.28    0.16
   8   4  -2    0.68    0.14
  -8  -4   2    0.62    0.11
   7   4  -2    4.48    0.25
  -7  -4   2    4.41    0.20
   6   4  -2   13.27    0.40
  -6  -4   2   12.76    0.36
  -6  -4   2   12.54    0.34
   5   4  -2   10.38    0.32
  -5  -4   2   10.20    0.30
  -5  -4   2   10.24    0.28
   4   4  -2    0.50    0.09
  -4  -4   2    0.54    0.08
  -4  -4   2    0.40    0.07
   3   4  -2    3.34    0.14
   3   4  -2    2.98    0.15
  -3  -4   2    3.38    0.13
  -3  -4   2    3.18    0.14
   2   4  -2    9.45    0.26
   2   4  -2    8.91    0.25
  -2  -4   2    9.45    0.27
   1   4  -2   16.75    0.41
   1   4  -2   17.31    0.40
   0   4  -2    3.05    0.14
   0   4  -2    3.14    0.11
  -1   4  -2   33.19    0.69
  -1   4  -2   32.46    0.75
  -2   4  -2    6.42    0.22
  -3   4  -2    7.73    0.26
  -4   4  -2    3.55    0.19
  -4   4  -2    4.18    0.21
  -5   4  -2    0.25    0.12
  -5   4  -2    0.27    0.10
  -6   4  -2    1.37    0.16
  -6   4  -2    0.95    0.16
  -7   4  -2    0.99    0.19
  -7   4  -2    1.08    0.17
  -8   4  -2    0.03    0.12
  10   3  -2    1.03    0.18
   9   3  -2    0.20    0.13
  -9  -3   2    0.27    0.11
   8   3  -2    2.70    0.22
  -8  -3   2    2.25    0.17
   7   3  -2    4.47    0.24
  -7  -3   2    4.33    0.19
  -7  -3   2    4.68    0.21
   6   3  -2   20.49    0.54
  -6  -3   2   20.25    0.49
  -6  -3   2   19.69    0.50
   5   3  -2    9.24    0.30
  -5  -3   2   10.17    0.28
  -5  -3   2   10.41    0.29
   4   3  -2   26.33    0.63
  -4  -3   2   26.88    0.60
  -4  -3   2   26.49    0.61
   3   3  -2   29.84    0.69
   3   3  -2   31.64    0.69
  -3  -3   2   29.09    0.67
  -3  -3   2   29.65    0.67
   2   3  -2   10.85    0.29
   2   3  -2   11.33    0.29
  -2  -3   2   11.19    0.28
   1   3  -2    0.13    0.04
   1   3  -2    0.14    0.04
   0   3  -2    3.44    0.11
   0   3  -2    3.43    0.13
  -1   3  -2   88.59    1.82
  -1   3  -2   89.15    1.87
  -2   3  -2    5.27    0.18
  -2   3  -2    5.36    0.19
   2  -3   2    5.32    0.13
  -3   3  -2    4.81    0.18
  -3   3  -2    4.72    0.19
  -4   3  -2    9.44    0.30
  -4   3  -2    9.64    0.32
  -5   3  -2    2.85    0.20
  -5   3  -2    3.24    0.18
  -6   3  -2    1.74    0.18
  -6   3  -2    1.68    0.16
  -7   3  -2    0.09    0.10
  -7   3  -2    0.10    0.12
  -8   3  -2    1.20    0.17
  -8   3  -2    0.99    0.19
   9   2  -2    1.39    0.17
  -9  -2   2    1.57    0.17
   8   2  -2    3.34    0.21
  -8  -2   2    3.41    0.20
   7   2  -2    0.24    0.11
  -7  -2   2    0.06    0.08
  -7  -2   2    0.05    0.08
   6   2  -2    1.54    0.15
  -6  -2   2    1.15    0.11
  -6  -2   2    0.92    0.10
   5   2  -2   42.28    0.96
  -5  -2   2   42.53    0.94
  -5  -2   2   42.40    0.93
   4   2  -2    8.07    0.25
  -4  -2   2    8.59    0.23
  -4  -2   2    8.41    0.23
   3   2  -2    1.31    0.09
  -3  -2   2    1.20    0.07
  -3  -2   2    1.18    0.08
   2   2  -2    8.72    0.23
  -2  -2   2    8.76    0.23
  -2  -2   2    8.60    0.22
   1   2  -2    1.65    0.08
   1   2  -2    1.78    0.08
  -1  -2   2    1.86    0.08
   0   2  -2    8.93    0.23
   0   2  -2    9.25    0.22
  -1   2  -2    1.01    0.05
  -1   2  -2    1.05    0.07
  -1   2  -2    1.01    0.08
  -2   2  -2    2.64    0.11
  -2   2  -2    2.77    0.12
  -3   2  -2   31.63    0.72
  -3   2  -2   31.95    0.73
   3  -2   2   31.56    0.67
  -4   2  -2   10.14    0.32
  -4   2  -2   10.72    0.31
   4  -2   2   10.78    0.26
  -5   2  -2    6.23    0.25
  -5   2  -2    5.83    0.22
  -6   2  -2    0.52    0.10
  -6   2  -2    0.30    0.11
  -7   2  -2    2.97    0.19
  -7   2  -2    2.54    0.21
  -8   2  -2    0.72    0.13
  -8   2  -2    0.57    0.15
  -9   2  -2   -0.12    0.13
  -9  -1   2    0.05    0.10
   8   1  -2    0.12    0.11
  -8  -1   2    0.04    0.09
  -8  -1   2    0.08    0.09
   7   1  -2    1.07    0.13
  -7  -1   2    1.32    0.13
  -7  -1   2    1.09    0.12
   6   1  -2    5.08    0.22
  -6  -1   2    5.01    0.20
  -6  -1   2    5.22    0.20
   5   1  -2    0.36    0.09
  -5  -1   2    0.38    0.07
  -5  -1   2    0.39    0.08
   4   1  -2    3.01    0.14
  -4  -1   2    2.99    0.13
  -4  -1   2    3.01    0.12
   3   1  -2    9.33    0.25
  -3  -1   2    9.02    0.24
  -3  -1   2    9.19    0.23
   2   1  -2   19.46    0.45
  -2  -1   2   19.71    0.44
  -2  -1   2   19.45    0.42
   1   1  -2    2.59    0.10
   1   1  -2    2.51    0.09
  -1  -1   2    2.39    0.07
  -1  -1   2    2.37    0.09
   0   1  -2   74.60    1.53
   0   1  -2   74.04    1.53
  -1   1  -2   37.47    0.80
  -1   1  -2   38.52    0.80
  -1   1  -2   36.97    0.80
  -2   1  -2    9.06    0.24
  -2   1  -2    9.31    0.23
  -3   1  -2    8.30    0.23
  -3   1  -2    8.05    0.24
   3  -1   2    8.20    0.20
  -4   1  -2    1.26    0.11
  -4   1  -2    1.24    0.10
   4  -1   2    1.20    0.08
  -5   1  -2   14.40    0.39
  -5   1  -2   14.46    0.41
   5  -1   2   14.86    0.37
  -6   1  -2    0.05    0.06
  -6   1  -2    0.04    0.09
  -7   1  -2    2.23    0.20
  -7   1  -2    2.36    0.16
  -8   1  -2    0.04    0.11
  -8   1  -2    0.21    0.15
  -9   1  -2    1.86    0.23
  -9   0   2    1.50    0.19
  -8   0   2    0.21    0.12
  -8   0   2    0.22    0.11
   7   0  -2    6.65    0.26
  -7   0   2    6.48    0.26
  -7   0   2    7.19    0.28
   6   0  -2    1.79    0.14
  -6   0   2    1.85    0.13
  -6   0   2    1.82    0.15
   5   0  -2   26.71    0.64
  -5   0   2   27.01    0.64
  -5   0   2   27.07    0.64
   4   0  -2   22.95    0.53
  -4   0   2   22.60    0.53
  -4   0   2   22.04    0.53
   3   0  -2    7.97    0.23
  -3   0   2    8.26    0.22
  -3   0   2    8.11    0.23
   2   0  -2    8.70    0.22
  -2   0   2    8.56    0.22
  -2   0   2    8.77    0.21
   1   0  -2    1.15    0.06
  -1   0   2    1.09    0.04
  -1   0   2    1.13    0.06
   0   0  -2  130.72    2.68
   0   0  -2  136.16    2.68
   0   0  -2  130.14    2.68
   0   0   2  128.28    2.67
  -1   0  -2   15.27    0.33
  -1   0  -2   14.60    0.34
  -1   0  -2   14.38    0.32
  -2   0  -2   61.21    1.26
  -2   0  -2   59.41    1.27
   2   0   2   61.72    1.26
  -3   0  -2    0.04    0.03
  -3   0  -2    0.07    0.05
   3   0   2    0.05    0.04
  -4   0  -2   14.74    0.36
  -4   0  -2   14.91    0.39
   4   0   2   14.74    0.36
  -5   0  -2   13.32    0.34
  -5   0  -2   12.86    0.37
   5   0   2   13.16    0.34
  -6   0  -2    0.66    0.09
  -6   0  -2    0.64    0.11
   6   0   2    0.57    0.09
  -7   0  -2    5.69    0.23
  -7   0  -2    6.35    0.27
   7   0   2    6.41    0.25
  -8   0  -2    2.89    0.21
  -9   0  -2    0.55    0.16
 -10   0  -2    0.13    0.14
  -9   1   2    0.41    0.15
  -9   1   2    0.53    0.12
  -8   1   2    0.22    0.11
  -8   1   2    0.14    0.12
  -7   1   2    1.27    0.14
  -7   1   2    1.41    0.15
  -6   1   2   12.25    0.37
  -6   1   2   12.27    0.37
   5  -1  -2    7.99    0.25
  -5   1   2    7.99    0.27
  -5   1   2    7.70    0.26
   4  -1  -2    1.14    0.10
  -4   1   2    1.14    0.10
  -4   1   2    1.17    0.10
   3  -1  -2    3.37    0.12
  -3   1   2    3.37    0.13
  -3   1   2    3.25    0.13
   2  -1  -2    7.78    0.20
  -2   1   2    7.48    0.21
  -2   1   2    7.92    0.21
   1  -1  -2  102.35    2.09
  -1   1   2  101.35    2.09
   0  -1  -2   20.67    0.45
   0   1   2   20.77    0.45
  -1  -1  -2   93.80    1.94
  -1  -1  -2   97.20    1.95
   1   1   2   92.65    1.92
  -2  -1  -2  291.62    5.97
  -2  -1  -2  287.53    6.05
   2   1   2  300.46    6.04
  -3  -1  -2  173.83    3.57
  -3  -1  -2  175.19    3.53
   3   1   2  172.07    3.55
  -4  -1  -2   16.03    0.41
  -4  -1  -2   15.89    0.36
   4   1   2   16.14    0.39
  -5  -1  -2   11.16    0.33
  -5  -1  -2   11.49    0.28
   5   1   2   10.92    0.31
  -6  -1  -2   18.29    0.49
  -6  -1  -2   18.04    0.44
   6   1   2   18.12    0.47
  -7  -1  -2   14.74    0.45
  -7  -1  -2   14.65    0.42
   7   1   2   15.14    0.42
  -8  -1  -2    0.23    0.11
   8   1   2    0.22    0.10
  -9  -1  -2    0.67    0.14
 -10  -1  -2    0.92    0.19
  -9   2   2    0.18    0.12
  -9   2   2   -0.24    0.13
  -8   2   2    0.82    0.14
  -8   2   2    0.89    0.17
  -7   2   2    2.19    0.17
  -7   2   2    2.63    0.22
  -6   2   2    2.28    0.18
  -6   2   2    2.41    0.19
  -5   2   2    0.01    0.08
  -5   2   2   -0.04    0.07
   4  -2  -2    6.76    0.20
  -4   2   2    6.59    0.23
  -4   2   2    7.02    0.24
   3  -2  -2   26.56    0.59
  -3   2   2   26.89    0.62
  -3   2   2   26.32    0.62
   2  -2  -2   20.99    0.47
  -2   2   2   22.16    0.51
   1  -2  -2    7.38    0.18
  -1   2   2    7.17    0.20
   0  -2  -2   28.98    0.63
   0   2   2   29.27    0.63
  -1  -2  -2    8.71    0.23
  -1  -2  -2    9.50    0.23
   1   2   2    9.13    0.21
  -2  -2  -2    0.83    0.07
   2   2   2    0.78    0.06
   2   2   2    0.71    0.02
  -3  -2  -2    0.01    0.04
  -3  -2  -2    0.03    0.01
   3   2   2    0.02    0.04
  -4  -2  -2   23.57    0.49
  -4  -2  -2   23.14    0.56
   4   2   2   23.26    0.54
  -5  -2  -2    1.98    0.08
  -5  -2  -2    2.02    0.13
   5   2   2    2.12    0.12
  -6  -2  -2    1.14    0.12
  -6  -2  -2    1.00    0.08
   6   2   2    0.92    0.11
  -7  -2  -2    0.34    0.10
   7   2   2    0.30    0.11
  -8  -2  -2    1.93    0.18
   8   2   2    1.95    0.17
  -9  -2  -2    1.52    0.19
   9   2   2    1.12    0.16
 -10  -2  -2    0.09    0.14
 -11  -2  -2    0.25    0.23
  -8   3   2    0.87    0.16
  -7   3   2    0.06    0.10
  -6   3   2    6.86    0.28
  -5   3   2    8.35    0.31
  -4   3   2    2.18    0.14
   3  -3  -2    0.04    0.03
  -3   3   2   -0.02    0.06
   2  -3  -2    0.95    0.06
  -2   3   2    0.91    0.09
   1  -3  -2   56.35    1.21
  -1   3   2   60.14    1.25
   0  -3  -2   32.61    0.68
   0   3   2   31.58    0.70
  -1  -3  -2    0.17    0.06
   1   3   2    0.17    0.04
   1   3   2    0.15    0.03
  -2  -3  -2   85.70    1.81
   2   3   2   85.56    1.79
   2   3   2   87.32    1.76
  -3  -3  -2   87.19    1.84
   3   3   2   86.74    1.82
  -4  -3  -2   14.67    0.40
   4   3   2   15.02    0.38
  -5  -3  -2    0.46    0.04
  -5  -3  -2    0.41    0.08
   5   3   2    0.38    0.08
  -6  -3  -2    0.97    0.12
   6   3   2    1.15    0.12
  -7  -3  -2    8.74    0.31
   7   3   2    8.39    0.31
  -8  -3  -2    2.91    0.20
   8   3   2    2.75    0.19
  -9  -3  -2    0.95    0.16
   9   3   2    0.36    0.14
 -10  -3  -2    0.88    0.18
  10   3   2    0.53    0.16
 -11  -3  -2    0.44    0.15
  -7   4   2    2.43    0.23
  -6   4   2    5.41    0.27
  -5   4   2    5.36    0.25
  -4   4   2    0.13    0.09
  -3   4   2    4.31    0.19
  -2   4   2   11.13    0.32
  -1   4   2    4.01    0.11
  -1   4   2    3.71    0.16
   0   4   2    4.21    0.15
   0   4   2    4.05    0.12
  -1  -4  -2   41.61    0.93
   1   4   2   40.64    0.88
   1   4   2   42.22    0.89
  -2  -4  -2    7.61    0.24
   2   4   2    7.91    0.20
   2   4   2    7.84    0.21
  -3  -4  -2   47.08    1.05
   3   4   2   47.77    1.03
   3   4   2   47.46    0.98
  -4  -4  -2    6.61    0.24
  -4  -4  -2    6.04    0.14
   4   4   2    6.27    0.21
  -5  -4  -2   11.80    0.35
   5   4   2   11.69    0.34
  -6  -4  -2    4.56    0.21
   6   4   2    4.57    0.20
  -7  -4  -2    0.24    0.11
   7   4   2    0.26    0.10
  -8  -4  -2    0.00    0.10
   8   4   2    0.05    0.10
  -9  -4  -2    0.82    0.16
   9   4   2    0.76    0.15
 -10  -4  -2    1.92    0.22
  10   4   2    1.75    0.20
 -11  -4  -2    0.14    0.15
  11   4   2   -0.01    0.13
  -6   5   2    0.19    0.13
  -5   5   2    0.58    0.13
  -4   5   2    1.86    0.17
  -3   5   2    0.22    0.09
  -2   5   2    0.95    0.12
  -1   5   2   12.29    0.35
   0   5   2   35.99    0.82
   0   5   2   36.37    0.77
   1   5   2    5.60    0.19
   1   5   2    5.74    0.17
  -2  -5  -2    8.41    0.28
   2   5   2    8.37    0.23
   2   5   2    8.38    0.23
  -3  -5  -2    0.09    0.07
   3   5   2    0.05    0.03
   3   5   2    0.02    0.06
  -4  -5  -2   36.71    0.85
   4   5   2   35.07    0.77
   4   5   2   38.11    0.84
  -5  -5  -2    4.92    0.22
   5   5   2    5.11    0.21
  -6  -5  -2    1.18    0.14
   6   5   2    1.14    0.14
  -7  -5  -2    5.05    0.25
   7   5   2    5.04    0.25
  -8  -5  -2    0.49    0.12
   8   5   2    0.68    0.14
  -9  -5  -2    0.07    0.12
   9   5   2    0.09    0.12
 -10  -5  -2   -0.07    0.12
  10   5   2    0.04    0.15
 -11  -5  -2    0.49    0.17
  11   5   2    0.24    0.15
  -6   6   2    1.40    0.23
  -5   6   2    1.81    0.20
  -4   6   2    0.83    0.15
  -3   6   2    2.42    0.18
  -2   6   2    8.01    0.29
  -1   6   2    1.13    0.12
   0   6   2    0.41    0.09
   1   6   2    9.94    0.29
   1   6   2    9.75    0.26
  -2  -6  -2    8.04    0.29
   2   6   2    8.27    0.24
   2   6   2    8.28    0.24
  -3  -6  -2    0.64    0.11
   3   6   2    0.96    0.10
   3   6   2    0.75    0.07
  -4  -6  -2   -0.06    0.08
   4   6   2   -0.02    0.06
   4   6   2    0.00    0.04
  -5  -6  -2    5.37    0.24
   5   6   2    4.84    0.22
  -6  -6  -2    7.91    0.31
   6   6   2    7.73    0.29
  -7  -6  -2    0.24    0.12
   7   6   2    0.04    0.10
  -8  -6  -2    0.24    0.12
   8   6   2    0.15    0.14
  -9  -6  -2    2.72    0.25
   9   6   2    2.70    0.22
 -10  -6  -2    1.56    0.20
  10   6   2    1.45    0.20
 -11  -6  -2    0.18    0.16
  11   6   2   -0.10    0.14
  -5   7   2    0.15    0.13
  -4   7   2    1.92    0.20
  -3   7   2    4.23    0.24
  -2   7   2    1.30    0.16
  -1   7   2    3.21    0.19
   0   7   2   37.07    0.88
   1   7   2    1.29    0.12
  -2  -7  -2   24.85    0.67
   2   7   2   25.74    0.61
   2   7   2   25.11    0.59
  -3  -7  -2   -0.02    0.10
   3   7   2   -0.07    0.07
   3   7   2    0.07    0.05
  -4  -7  -2   13.88    0.42
   4   7   2   13.96    0.35
   4   7   2   13.19    0.38
  -5  -7  -2   17.44    0.51
   5   7   2   17.80    0.48
  -6  -7  -2    5.63    0.27
   6   7   2    5.51    0.26
  -7  -7  -2    1.40    0.17
   7   7   2    1.95    0.19
  -8  -7  -2    3.53    0.26
   8   7   2    3.05    0.23
  -9  -7  -2    3.18    0.25
   9   7   2    3.71    0.25
 -10  -7  -2    0.74    0.17
  10   7   2    0.86    0.20
 -11  -7  -2   -0.01    0.13
  11   7   2   -0.24    0.13
  -3   8   2   -0.07    0.10
  -2   8   2    0.74    0.15
  -1   8   2    5.23    0.25
   0   8   2   12.52    0.40
  -1  -8  -2    3.00    0.25
   1   8   2    2.63    0.16
  -2  -8  -2    4.58    0.27
   2   8   2    4.37    0.20
  -3  -8  -2    4.13    0.26
   3   8   2    4.13    0.18
  -4  -8  -2    7.45    0.31
   4   8   2    7.35    0.27
  -5  -8  -2    0.06    0.12
   5   8   2    0.03    0.09
  -6  -8  -2    2.11    0.20
   6   8   2    2.02    0.19
  -7  -8  -2    2.84    0.25
   7   8   2    2.41    0.21
  -8  -8  -2    7.59    0.34
   8   8   2    7.16    0.34
  -9  -8  -2    0.22    0.15
   9   8   2    0.19    0.14
 -10  -8  -2    0.19    0.15
  10   8   2    0.18    0.17
 -11  -8  -2    0.46    0.17
  -2   9   2    2.78    0.22
  -1   9   2    2.90    0.22
   0   9   2    0.13    0.10
  -1  -9  -2    1.24    0.22
   1   9   2    0.78    0.12
  -2  -9  -2    2.56    0.26
   2   9   2    2.35    0.17
  -3  -9  -2    0.15    0.13
   3   9   2    0.09    0.08
  -4  -9  -2    0.08    0.12
  -5  -9  -2    5.49    0.28
   5   9   2    5.35    0.25
  -6  -9  -2    7.36    0.33
   6   9   2    7.83    0.32
  -7  -9  -2    0.77    0.16
   7   9   2    0.56    0.16
  -8  -9  -2    0.57    0.15
   8   9   2    0.25    0.16
  -9  -9  -2    2.35    0.25
   9   9   2    1.83    0.22
 -10  -9  -2    0.86    0.20
  10   9   2    0.55    0.18
  -1  10   2    1.65    0.19
   0  10   2    2.15    0.21
  -1 -10  -2    2.36    0.28
   1  10   2    2.12    0.20
  -2 -10  -2    0.04    0.16
   2  10   2    0.14    0.10
  -3 -10  -2    8.56    0.39
  -4 -10  -2    9.92    0.41
  -5 -10  -2    1.22    0.20
  -6 -10  -2   -0.07    0.13
   6  10   2   -0.05    0.12
  -7 -10  -2    1.05    0.19
   7  10   2    0.82    0.16
  -8 -10  -2    3.10    0.28
   8  10   2    2.84    0.25
  -9 -10  -2    0.40    0.16
   9  10   2    0.24    0.16
 -10 -10  -2    0.01    0.14
   0  11   2    0.22    0.14
  -1 -11  -2   -0.02    0.24
   1  11   2    0.14    0.12
  -2 -11  -2    1.78    0.28
  -3 -11  -2    2.54    0.29
  -4 -11  -2    0.01    0.17
  -5 -11  -2    1.37    0.20
  -6 -11  -2    2.21    0.24
  -7 -11  -2    0.90    0.20
  -8 -11  -2    0.06    0.16
   8  11   2   -0.15    0.15
  -9 -11  -2    0.18    0.15
   9  11   2   -0.13    0.17
  -4 -11   3    1.52    0.22
   3  11  -3   -0.09    0.12
  -3 -11   3   -0.09    0.16
   2  11  -3    0.56    0.16
  -2 -11   3    0.05    0.19
   1  11  -3    0.31    0.17
  -1 -11   3   -0.22    0.18
   8  10  -3    0.13    0.16
   7  10  -3    0.48    0.16
   6  10  -3    3.01    0.24
  -5 -10   3    1.56    0.20
   4  10  -3    0.06    0.11
  -4 -10   3    0.04    0.13
   3  10  -3    0.64    0.14
  -3 -10   3    0.89    0.20
   2  10  -3    2.14    0.21
  -2 -10   3    2.04    0.26
   1  10  -3    0.42    0.14
  -1 -10   3   -0.32    0.18
   0  10  -3    0.23    0.14
   9   9  -3    0.06    0.14
   8   9  -3   -0.02    0.14
   7   9  -3    1.20    0.18
   6   9  -3    0.19    0.13
   5   9  -3    3.24    0.22
  -5  -9   3    3.06    0.23
   4   9  -3    1.84    0.18
  -4  -9   3    1.92    0.20
   3   9  -3    1.20    0.15
  -3  -9   3    0.77    0.17
   2   9  -3    0.14    0.10
  -2  -9   3   -0.12    0.15
   1   9  -3    1.64    0.17
   0   9  -3    1.99    0.19
  -1   9  -3    0.44    0.13
  -2   9  -3    0.16    0.12
   9   8  -3   -0.17    0.13
   8   8  -3    0.06    0.13
   7   8  -3    0.49    0.14
   6   8  -3    3.51    0.22
  -6  -8   3    3.28    0.23
   5   8  -3    3.99    0.23
   5   8  -3    3.63    0.22
  -5  -8   3    3.50    0.22
  -5  -8   3    3.75    0.19
   4   8  -3    1.18    0.15
   4   8  -3    1.23    0.15
  -4  -8   3    1.37    0.17
   3   8  -3    3.23    0.19
  -3  -8   3    2.73    0.23
   2   8  -3    2.37    0.18
  -2  -8   3    1.76    0.19
   1   8  -3    4.84    0.23
   0   8  -3    0.73    0.13
  -1   8  -3    0.14    0.11
  -2   8  -3    2.74    0.21
  -3   8  -3    1.22    0.18
  10   7  -3    1.85    0.23
   9   7  -3    0.06    0.14
   8   7  -3   -0.06    0.12
   7   7  -3    2.64    0.21
   6   7  -3    2.45    0.20
  -6  -7   3    2.38    0.18
   5   7  -3    0.51    0.13
   5   7  -3    0.39    0.11
  -5  -7   3    0.42    0.11
  -5  -7   3    0.51    0.10
   4   7  -3    2.13    0.16
   4   7  -3    2.09    0.17
  -4  -7   3    2.30    0.18
   3   7  -3    9.87    0.33
   3   7  -3    9.82    0.32
  -3  -7   3    9.62    0.34
   2   7  -3   11.27    0.35
   2   7  -3   11.54    0.34
  -2  -7   3   11.39    0.38
   1   7  -3    0.23    0.08
   0   7  -3    5.73    0.25
  -1   7  -3    5.57    0.26
  -2   7  -3    6.55    0.30
  -3   7  -3    0.21    0.11
  -4   7  -3    0.85    0.16
  -5   7  -3    0.83    0.18
  10   6  -3   -0.19    0.15
   9   6  -3    0.20    0.14
   8   6  -3    2.65    0.24
   7   6  -3    0.69    0.15
   6   6  -3    1.66    0.18
  -6  -6   3    1.59    0.14
  -6  -6   3    1.53    0.14
   5   6  -3    9.87    0.34
   5   6  -3   10.64    0.35
  -5  -6   3    9.98    0.32
  -5  -6   3   10.12    0.34
   4   6  -3   12.48    0.38
   4   6  -3   12.11    0.38
  -4  -6   3   12.31    0.37
  -4  -6   3   12.11    0.35
   3   6  -3   11.12    0.34
   3   6  -3   11.28    0.34
  -3  -6   3   11.32    0.35
   2   6  -3    1.42    0.12
   2   6  -3    1.05    0.11
  -2  -6   3    1.17    0.13
   1   6  -3    5.83    0.20
   1   6  -3    5.54    0.22
   0   6  -3   13.02    0.38
  -1   6  -3    0.98    0.12
  -2   6  -3    0.70    0.12
  -3   6  -3    3.63    0.21
  -4   6  -3    1.80    0.18
  -5   6  -3   -0.02    0.11
  -6   6  -3    0.27    0.13
  10   5  -3    0.02    0.13
   9   5  -3    0.42    0.15
   8   5  -3    0.03    0.12
   7   5  -3    4.74    0.26
  -7  -5   3    4.53    0.20
   6   5  -3   10.00    0.34
  -6  -5   3    9.45    0.29
  -6  -5   3    9.61    0.31
   5   5  -3    1.28    0.14
  -5  -5   3    1.48    0.13
  -5  -5   3    1.27    0.12
   4   5  -3    5.63    0.23
   4   5  -3    5.70    0.23
  -4  -5   3    5.95    0.21
  -4  -5   3    5.71    0.21
   3   5  -3    2.87    0.16
   3   5  -3    2.86    0.16
  -3  -5   3    3.12    0.15
   2   5  -3   18.48    0.46
   2   5  -3   17.81    0.45
  -2  -5   3   17.78    0.46
   1   5  -3    4.32    0.16
   1   5  -3    3.90    0.17
   0   5  -3    7.14    0.20
   0   5  -3    7.07    0.24
  -1   5  -3   10.13    0.32
  -2   5  -3    8.32    0.29
  -3   5  -3    1.08    0.14
  -4   5  -3    1.34    0.15
  -5   5  -3    1.93    0.19
  -6   5  -3    2.63    0.23
  -7   5  -3    0.05    0.13
  10   4  -3   -0.01    0.13
   9   4  -3    0.69    0.16
   8   4  -3    2.96    0.24
   7   4  -3    3.46    0.22
  -7  -4   3    3.51    0.18
  -7  -4   3    3.23    0.17
   6   4  -3    3.95    0.21
  -6  -4   3    4.18    0.18
  -6  -4   3    4.05    0.18
   5   4  -3    2.51    0.17
  -5  -4   3    2.63    0.13
  -5  -4   3    3.05    0.15
   4   4  -3   16.00    0.42
  -4  -4   3   15.43    0.40
  -4  -4   3   15.27    0.40
   3   4  -3   16.12    0.42
   3   4  -3   17.12    0.44
  -3  -4   3   16.14    0.41
  -3  -4   3   16.59    0.42
   2   4  -3    0.50    0.08
   2   4  -3    0.72    0.08
  -2  -4   3    0.45    0.07
   1   4  -3    2.30    0.12
   1   4  -3    2.39    0.11
   0   4  -3   71.25    1.52
   0   4  -3   70.09    1.48
  -1   4  -3    1.12    0.07
  -1   4  -3    1.16    0.10
  -2   4  -3    1.86    0.12
  -3   4  -3    1.27    0.12
  -4   4  -3    5.00    0.22
  -4   4  -3    4.42    0.23
  -5   4  -3    3.12    0.20
  -5   4  -3    2.73    0.22
  -6   4  -3   -0.07    0.13
  -6   4  -3   -0.04    0.10
  -7   4  -3    0.48    0.16
  -7   4  -3    0.39    0.12
  -8   4  -3    0.31    0.14
  10   3  -3    0.06    0.15
   9   3  -3    1.19    0.17
   8   3  -3    0.97    0.15
   7   3  -3    0.03    0.10
  -7  -3   3    0.04    0.07
  -7  -3   3    0.13    0.08
   6   3  -3    2.64    0.19
  -6  -3   3    2.42    0.15
  -6  -3   3    2.33    0.13
   5   3  -3   18.35    0.49
  -5  -3   3   18.25    0.45
  -5  -3   3   18.73    0.46
   4   3  -3    6.04    0.22
  -4  -3   3    6.48    0.19
  -4  -3   3    6.86    0.21
   3   3  -3    9.69    0.27
  -3  -3   3    8.85    0.25
  -3  -3   3    9.00    0.26
   2   3  -3   16.06    0.40
   2   3  -3   15.57    0.39
  -2  -3   3   15.52    0.37
  -2  -3   3   15.35    0.38
   1   3  -3   50.41    1.08
   1   3  -3   49.14    1.07
   0   3  -3    5.10    0.15
   0   3  -3    5.27    0.17
  -1   3  -3    3.91    0.15
  -1   3  -3    4.08    0.13
  -2   3  -3    0.33    0.04
  -2   3  -3    0.39    0.07
  -2   3  -3    0.38    0.07
  -3   3  -3    5.68    0.21
  -3   3  -3    6.16    0.23
   3  -3   3    6.17    0.17
  -4   3  -3    1.61    0.15
  -4   3  -3    1.40    0.13
  -5   3  -3   -0.01    0.09
  -5   3  -3   -0.01    0.07
  -6   3  -3    3.91    0.23
  -6   3  -3    3.93    0.22
  -7   3  -3    1.47    0.20
  -7   3  -3    1.48    0.17
  -8   3  -3    0.00    0.15
  -8   3  -3    0.09    0.12
   9   2  -3    0.45    0.13
   8   2  -3    1.21    0.16
  -8  -2   3    1.33    0.14
  -8  -2   3    1.35    0.14
   7   2  -3    6.09    0.27
  -7  -2   3    5.80    0.23
  -7  -2   3    6.23    0.24
   6   2  -3    1.28    0.14
  -6  -2   3    1.33    0.11
  -6  -2   3    1.40    0.13
   5   2  -3    0.79    0.11
  -5  -2   3    0.62    0.08
  -5  -2   3    0.66    0.09
   4   2  -3    4.44    0.18
  -4  -2   3    4.69    0.17
  -4  -2   3    4.72    0.15
   3   2  -3   27.96    0.65
  -3  -2   3   27.67    0.61
  -3  -2   3   29.23    0.64
   2   2  -3    0.41    0.06
   2   2  -3    0.65    0.07
  -2  -2   3    0.77    0.07
  -2  -2   3    0.74    0.06
   1   2  -3   32.90    0.73
   1   2  -3   33.61    0.74
   0   2  -3   35.90    0.79
   0   2  -3   36.86    0.78
  -1   2  -3   28.32    0.63
  -1   2  -3   28.35    0.64
  -1   2  -3   29.12    0.62
  -2   2  -3    3.25    0.13
  -2   2  -3    3.01    0.11
  -2   2  -3    3.16    0.13
  -3   2  -3    3.14    0.15
  -3   2  -3    2.81    0.13
   3  -2   3    2.81    0.10
  -4   2  -3   14.73    0.41
  -4   2  -3   14.43    0.39
   4  -2   3   14.65    0.35
  -5   2  -3   18.36    0.51
  -5   2  -3   18.66    0.49
  -6   2  -3    0.10    0.08
  -6   2  -3    0.00    0.09
  -7   2  -3    0.10    0.11
  -7   2  -3    0.11    0.09
  -8   2  -3    1.22    0.18
  -8   2  -3    1.33    0.19
  -9   2  -3    0.82    0.19
   8   1  -3    2.05    0.19
  -8  -1   3    1.89    0.17
  -8  -1   3    1.93    0.17
   7   1  -3    0.12    0.11
  -7  -1   3    0.17    0.08
  -7  -1   3    0.07    0.09
   6   1  -3    2.92    0.18
  -6  -1   3    2.89    0.15
  -6  -1   3    3.04    0.17
   5   1  -3   12.56    0.36
  -5  -1   3   12.20    0.33
  -5  -1   3   12.74    0.35
   4   1  -3    5.21    0.20
  -4  -1   3    5.10    0.18
  -4  -1   3    5.44    0.17
   3   1  -3    3.68    0.15
  -3  -1   3    3.75    0.14
  -3  -1   3    3.58    0.11
   2   1  -3    1.23    0.09
  -2  -1   3    1.06    0.08
  -2  -1   3    1.13    0.05
   1   1  -3 1000.00   19.66
   1   1  -3  948.69   19.79
  -1  -1   3  963.81   19.74
  -1  -1   3  937.67   19.75
   0   1  -3   44.42    0.94
   0   1  -3   43.57    0.91
   0   1  -3   43.86    0.93
  -1   1  -3    2.30    0.09
  -1   1  -3    2.32    0.09
  -1   1  -3    2.40    0.09
  -2   1  -3    0.05    0.04
  -2   1  -3    0.09    0.04
  -2   1  -3    0.06    0.03
  -3   1  -3    4.68    0.17
  -3   1  -3    4.87    0.16
   3  -1   3    5.02    0.15
  -4   1  -3    4.09    0.17
  -4   1  -3    3.83    0.15
   4  -1   3    4.01    0.14
  -5   1  -3    1.27    0.13
  -5   1  -3    1.27    0.11
   5  -1   3    1.24    0.10
  -6   1  -3    7.43    0.29
  -6   1  -3    7.02    0.25
  -7   1  -3    5.05    0.26
  -7   1  -3    5.31    0.22
  -8   1  -3    0.55    0.15
  -9   1  -3   -0.02    0.13
  -9   0   3    0.46    0.16
  -8   0   3    0.51    0.12
  -8   0   3    0.39    0.13
   7   0  -3    6.32    0.26
  -7   0   3    6.23    0.26
  -7   0   3    5.85    0.26
   6   0  -3    4.83    0.21
  -6   0   3    4.63    0.20
  -6   0   3    4.65    0.20
   5   0  -3    1.33    0.12
  -5   0   3    1.31    0.12
  -5   0   3    1.43    0.11
   4   0  -3    7.49    0.24
  -4   0   3    8.01    0.23
  -4   0   3    7.62    0.24
   3   0  -3   15.47    0.38
  -3   0   3   14.65    0.38
  -3   0   3   15.21    0.36
   2   0  -3   13.71    0.34
  -2   0   3   14.22    0.31
  -2   0   3   14.09    0.35
   1   0  -3  525.83   10.44
  -1   0   3  493.40   10.52
   0   0  -3    0.30    0.02
   0   0  -3    0.30    0.05
   0   0   3    0.28    0.04
  -1   0  -3    0.73    0.06
  -1   0  -3    0.63    0.05
  -1   0  -3    0.72    0.05
  -2   0  -3    0.21    0.05
  -2   0  -3    0.23    0.05
  -2   0  -3    0.33    0.04
  -3   0  -3   21.11    0.50
  -3   0  -3   21.36    0.48
   3   0   3   21.27    0.48
  -4   0  -3    3.83    0.13
  -4   0  -3    4.18    0.17
   4   0   3    3.89    0.14
  -5   0  -3    6.44    0.24
  -5   0  -3    6.27    0.20
   5   0   3    6.37    0.21
  -6   0  -3   11.62    0.33
  -6   0  -3   11.69    0.37
   6   0   3   11.98    0.34
  -7   0  -3   14.75    0.41
  -7   0  -3   15.46    0.47
   7   0   3   15.23    0.45
  -8   0  -3    0.03    0.11
  -9   0  -3    0.78    0.16
 -10   0  -3    0.19    0.16
  -9   1   3    0.35    0.12
  -8   1   3    0.23    0.13
  -8   1   3    0.37    0.11
  -7   1   3    1.38    0.15
  -7   1   3    1.55    0.17
  -6   1   3    0.45    0.10
  -6   1   3    0.59    0.11
   5  -1  -3    0.81    0.10
  -5   1   3    0.51    0.10
  -5   1   3    0.69    0.10
   4  -1  -3    2.87    0.14
  -4   1   3    2.86    0.15
  -4   1   3    2.90    0.14
   3  -1  -3   33.81    0.75
  -3   1   3   33.84    0.76
  -3   1   3   33.48    0.74
   2  -1  -3   19.80    0.46
  -2   1   3   20.50    0.48
   1  -1  -3    0.56    0.06
  -1   1   3    0.53    0.06
   0  -1  -3   25.70    0.56
   0  -1  -3   25.01    0.54
   0   1   3   25.13    0.55
  -1  -1  -3   23.99    0.52
  -1  -1  -3   23.88    0.54
   1   1   3   23.24    0.51
  -2  -1  -3    3.94    0.13
  -2  -1  -3    4.26    0.11
  -2  -1  -3    4.18    0.14
  -3  -1  -3   13.71    0.35
  -3  -1  -3   13.64    0.31
   3   1   3   13.54    0.33
  -4  -1  -3   29.47    0.63
  -4  -1  -3   28.84    0.68
   4   1   3   29.90    0.66
  -5  -1  -3   17.17    0.40
  -5  -1  -3   17.88    0.46
   5   1   3   16.85    0.43
  -6  -1  -3    0.57    0.10
  -6  -1  -3    0.61    0.07
   6   1   3    0.58    0.10
  -7  -1  -3    1.52    0.16
   7   1   3    1.29    0.13
  -8  -1  -3    1.95    0.20
   8   1   3    1.83    0.16
  -9  -1  -3    1.23    0.17
 -10  -1  -3    0.04    0.13
  -9   2   3    0.57    0.15
  -8   2   3    0.17    0.11
  -8   2   3    0.33    0.14
  -7   2   3    1.34    0.17
  -7   2   3    1.25    0.17
  -6   2   3    3.22    0.21
  -6   2   3    3.15    0.20
  -5   2   3    4.10    0.20
  -5   2   3    4.36    0.21
   4  -2  -3    0.77    0.08
  -4   2   3    0.98    0.10
  -4   2   3    0.67    0.10
   3  -2  -3    0.34    0.06
  -3   2   3    0.33    0.07
   2  -2  -3   46.45    1.00
  -2   2   3   47.56    1.03
   1  -2  -3   21.17    0.47
  -1   2   3   20.56    0.48
   0  -2  -3   15.40    0.37
   0   2   3   15.42    0.36
  -1  -2  -3    5.19    0.16
  -1  -2  -3    5.38    0.16
   1   2   3    5.28    0.14
  -2  -2  -3   79.51    1.68
   2   2   3   80.24    1.67
   2   2   3   80.51    1.63
  -3  -2  -3  112.09    2.25
  -3  -2  -3  105.74    2.31
   3   2   3  109.72    2.29
   3   2   3  115.60    2.25
  -4  -2  -3    2.05    0.13
  -4  -2  -3    2.11    0.07
   4   2   3    2.23    0.11
  -5  -2  -3    3.75    0.11
  -5  -2  -3    3.71    0.17
   5   2   3    3.52    0.16
  -6  -2  -3   10.90    0.34
   6   2   3   10.61    0.32
  -7  -2  -3    5.78    0.26
   7   2   3    5.63    0.24
  -8  -2  -3    0.10    0.11
   8   2   3   -0.04    0.09
  -9  -2  -3    0.73    0.15
   9   2   3    0.84    0.15
 -10  -2  -3    0.61    0.16
  -8   3   3    0.58    0.15
  -7   3   3    1.65    0.18
  -6   3   3    3.31    0.22
  -5   3   3    0.07    0.09
  -4   3   3    2.34    0.15
   3  -3  -3    9.05    0.24
  -3   3   3    9.37    0.29
   2  -3  -3   56.82    1.19
  -2   3   3   55.96    1.23
   1  -3  -3    0.52    0.06
  -1   3   3    0.43    0.07
   0  -3  -3    1.64    0.09
   0   3   3    1.95    0.09
  -1  -3  -3    8.44    0.22
  -1  -3  -3    8.10    0.23
   1   3   3    7.95    0.21
  -2  -3  -3    4.78    0.17
   2   3   3    4.86    0.12
   2   3   3    4.89    0.15
  -3  -3  -3   14.59    0.39
   3   3   3   15.35    0.37
  -4  -3  -3   62.60    1.35
   4   3   3   61.46    1.33
  -5  -3  -3   22.06    0.57
  -5  -3  -3   23.16    0.47
   5   3   3   22.61    0.55
  -6  -3  -3    3.79    0.20
   6   3   3    3.74    0.19
  -7  -3  -3    0.12    0.09
   7   3   3    0.19    0.10
  -8  -3  -3    0.10    0.11
   8   3   3    0.14    0.10
  -9  -3  -3    5.37    0.28
   9   3   3    4.65    0.27
 -10  -3  -3    0.42    0.14
  10   3   3    0.31    0.15
 -11  -3  -3    0.03    0.15
  -7   4   3    0.17    0.13
  -6   4   3    0.46    0.14
  -5   4   3    5.37    0.25
  -4   4   3    6.11    0.25
  -3   4   3    1.99    0.15
  -2   4   3    2.38    0.15
   1  -4  -3   10.14    0.26
  -1   4   3   10.91    0.30
   0  -4  -3   27.83    0.61
   0   4   3   27.50    0.63
  -1  -4  -3    2.08    0.13
   1   4   3    1.93    0.09
   1   4   3    1.95    0.09
  -2  -4  -3    0.33    0.07
   2   4   3    0.31    0.05
   2   4   3    0.42    0.04
  -3  -4  -3   61.30    1.33
   3   4   3   60.81    1.31
   3   4   3   61.29    1.26
  -4  -4  -3   69.26    1.52
   4   4   3   70.13    1.49
  -5  -4  -3   24.71    0.62
   5   4   3   24.63    0.60
  -6  -4  -3    0.22    0.09
   6   4   3    0.32    0.10
  -7  -4  -3    0.15    0.10
   7   4   3    0.39    0.11
  -8  -4  -3    0.53    0.13
   8   4   3    0.61    0.13
  -9  -4  -3    0.18    0.13
   9   4   3    0.21    0.14
 -10  -4  -3    0.57    0.15
  10   4   3    0.74    0.17
 -11  -4  -3    0.31    0.17
  11   4   3    0.16    0.15
  -6   5   3    1.11    0.18
  -5   5   3    2.35    0.21
  -4   5   3    0.08    0.09
  -3   5   3    1.19    0.13
  -2   5   3    6.00    0.23
  -1   5   3    0.73    0.10
   0   5   3    6.79    0.18
   0   5   3    6.49    0.22
  -1  -5  -3   45.84    1.05
   1   5   3   47.02    1.01
   1   5   3   46.70    0.99
  -2  -5  -3   33.25    0.79
   2   5   3   33.80    0.74
   2   5   3   33.37    0.74
  -3  -5  -3    1.64    0.14
   3   5   3    1.75    0.10
   3   5   3    1.77    0.08
  -4  -5  -3    4.54    0.20
   4   5   3    4.40    0.18
   4   5   3    4.27    0.12
  -5  -5  -3   21.40    0.57
   5   5   3   21.33    0.55
  -6  -5  -3    2.73    0.18
   6   5   3    2.49    0.17
  -7  -5  -3    0.16    0.10
   7   5   3    0.06    0.11
  -8  -5  -3    3.00    0.22
   8   5   3    2.67    0.20
  -9  -5  -3    5.87    0.30
   9   5   3    5.54    0.29
 -10  -5  -3    2.37    0.24
  10   5   3    2.30    0.22
 -11  -5  -3    0.34    0.17
  11   5   3    0.27    0.15
  -5   6   3    0.22    0.12
  -4   6   3    7.78    0.32
  -3   6   3    3.63    0.21
  -2   6   3    2.03    0.16
  -1   6   3    6.73    0.26
   0   6   3   30.18    0.72
  -1  -6  -3   22.39    0.61
   1   6   3   23.26    0.53
   1   6   3   23.10    0.56
  -2  -6  -3    1.82    0.16
   2   6   3    1.67    0.11
   2   6   3    1.64    0.11
  -3  -6  -3    7.68    0.28
   3   6   3    8.10    0.25
   3   6   3    8.17    0.22
  -4  -6  -3   15.96    0.45
   4   6   3   15.90    0.42
   4   6   3   15.40    0.36
  -5  -6  -3   12.63    0.40
   5   6   3   13.04    0.38
  -6  -6  -3    0.04    0.09
   6   6   3    0.10    0.10
  -7  -6  -3    0.69    0.14
   7   6   3    0.65    0.13
  -8  -6  -3   18.07    0.56
   8   6   3   19.04    0.56
  -9  -6  -3    1.62    0.20
   9   6   3    1.67    0.21
 -10  -6  -3   -0.07    0.12
  10   6   3    0.04    0.13
 -11  -6  -3    0.25    0.16
  11   6   3    0.28    0.18
  -4   7   3    0.60    0.14
  -3   7   3    0.21    0.11
  -2   7   3    2.09    0.20
  -1   7   3    7.44    0.29
   0   7   3    0.28    0.10
  -1  -7  -3    0.37    0.13
   1   7   3    0.23    0.08
  -2  -7  -3   19.42    0.56
   2   7   3   19.99    0.50
   2   7   3   19.46    0.48
  -3  -7  -3   20.16    0.56
   3   7   3   20.68    0.50
   3   7   3   20.45    0.51
  -4  -7  -3    2.23    0.18
   4   7   3    2.14    0.15
  -5  -7  -3    2.56    0.18
   5   7   3    2.24    0.17
  -6  -7  -3    0.18    0.11
   6   7   3    0.12    0.10
  -7  -7  -3    0.45    0.13
   7   7   3    0.30    0.12
  -8  -7  -3    8.54    0.36
   8   7   3    8.07    0.34
  -9  -7  -3    0.40    0.15
   9   7   3    0.18    0.15
 -10  -7  -3    1.14    0.19
  10   7   3    0.59    0.18
 -11  -7  -3    0.57    0.17
  11   7   3    0.58    0.20
  -3   8   3    1.15    0.17
  -2   8   3    2.84    0.21
  -1   8   3    0.00    0.09
   0   8   3    4.45    0.22
  -1  -8  -3    1.00    0.18
   1   8   3    0.99    0.12
  -2  -8  -3    2.13    0.21
   2   8   3    1.74    0.13
  -3  -8  -3    1.57    0.19
   3   8   3    1.31    0.19
   3   8   3    1.51    0.12
  -4  -8  -3    0.80    0.14
   4   8   3    0.53    0.11
  -5  -8  -3    2.00    0.20
   5   8   3    1.43    0.14
  -6  -8  -3    0.09    0.12
   6   8   3   -0.01    0.11
  -7  -8  -3    0.12    0.12
   7   8   3   -0.02    0.12
  -8  -8  -3    0.87    0.17
   8   8   3    0.68    0.16
  -9  -8  -3    2.00    0.23
   9   8   3    1.37    0.21
 -10  -8  -3    0.87    0.18
  10   8   3    0.70    0.19
 -11  -8  -3    0.14    0.15
  -2   9   3    0.03    0.13
  -1   9   3    0.67    0.15
   0   9   3    1.95    0.19
  -1  -9  -3    0.52    0.20
   1   9   3    0.71    0.12
  -2  -9  -3    1.81    0.23
   2   9   3    1.36    0.14
  -3  -9  -3    5.80    0.32
  -4  -9  -3    3.84    0.27
  -5  -9  -3    0.11    0.12
   5   9   3    0.09    0.11
  -6  -9  -3    0.56    0.15
   6   9   3    0.32    0.14
  -7  -9  -3    8.71    0.39
   7   9   3    8.39    0.36
  -8  -9  -3    3.09    0.25
   8   9   3    2.92    0.24
  -9  -9  -3    0.34    0.15
   9   9   3   -0.04    0.13
 -10  -9  -3    0.29    0.16
  10   9   3    0.55    0.20
  -1  10   3    0.22    0.12
   0 -10  -3    0.04    0.19
   0  10   3    0.36    0.12
  -1 -10  -3    1.42    0.26
   1  10   3    1.87    0.19
  -2 -10  -3    5.89    0.38
   2  10   3    6.54    0.28
  -3 -10  -3    6.90    0.38
  -4 -10  -3    0.18    0.15
  -5 -10  -3    5.88    0.33
  -6 -10  -3    3.69    0.26
   6  10   3    3.94    0.25
  -7 -10  -3    3.56    0.27
   7  10   3    2.86    0.23
  -8 -10  -3   -0.16    0.12
   8  10   3    0.02    0.13
  -9 -10  -3    1.01    0.19
   9  10   3    0.91    0.19
 -10 -10  -3    0.65    0.22
   0  11   3    1.39    0.20
   1  11   3    0.94    0.17
  -2 -11  -3   -0.07    0.18
  -3 -11  -3    0.62    0.20
  -4 -11  -3    2.97    0.28
  -5 -11  -3    1.87    0.23
  -6 -11  -3    0.08    0.14
  -7 -11  -3    1.72    0.23
   7  11   3    1.82    0.35
  -8 -11  -3    1.35    0.23
   8  11   3    1.58    0.22
   9  11   3    0.57    0.18
   3  11  -4    0.57    0.17
   2  11  -4    0.68    0.15
  -2 -11   4    0.52    0.23
   8  10  -4    1.24    0.22
   7  10  -4    0.62    0.16
   6  10  -4    0.33    0.17
   4  10  -4    0.06    0.13
   3  10  -4    1.11    0.18
  -3 -10   4    1.18    0.21
   2  10  -4    0.82    0.15
  -2 -10   4    0.51    0.19
   1  10  -4    2.41    0.22
  -1 -10   4    2.20    0.26
   0  10  -4    1.25    0.18
   8   9  -4    0.03    0.14
   7   9  -4    1.35    0.19
   6   9  -4    6.15    0.30
   5   9  -4    1.85    0.20
   5   9  -4    2.21    0.21
   4   9  -4    2.90    0.22
  -4  -9   4    3.14    0.28
   3   9  -4    0.15    0.11
  -3  -9   4    0.07    0.13
   2   9  -4   13.92    0.46
  -2  -9   4   13.97    0.49
   1   9  -4    1.27    0.16
   0   9  -4    0.12    0.11
  -1   9  -4    0.78    0.15
  -2   9  -4    0.63    0.16
   9   8  -4   -0.05    0.15
   8   8  -4    3.19    0.27
   7   8  -4    2.10    0.21
   6   8  -4    0.01    0.13
   5   8  -4    1.83    0.18
   5   8  -4    1.68    0.19
  -5  -8   4    1.61    0.16
   4   8  -4    5.04    0.25
   4   8  -4    5.00    0.26
  -4  -8   4    4.88    0.25
   3   8  -4    0.39    0.12
  -3  -8   4    0.50    0.14
   2   8  -4    1.96    0.18
  -2  -8   4    2.00    0.21
   1   8  -4    0.20    0.11
   0   8  -4    3.36    0.21
  -1   8  -4    2.80    0.20
  -2   8  -4    0.38    0.12
  -3   8  -4   -0.01    0.12
   9   7  -4    0.58    0.19
   8   7  -4    1.54    0.21
   7   7  -4    0.12    0.14
   6   7  -4    0.47    0.15
  -6  -7   4    0.68    0.11
   5   7  -4    0.08    0.11
   5   7  -4    0.11    0.10
  -5  -7   4    0.10    0.09
   4   7  -4    3.84    0.22
   4   7  -4    3.96    0.22
  -4  -7   4    4.06    0.20
  -4  -7   4    4.04    0.21
   3   7  -4    2.98    0.18
   3   7  -4    2.66    0.17
  -3  -7   4    2.71    0.20
   2   7  -4    0.28    0.10
   2   7  -4    0.39    0.10
  -2  -7   4    0.31    0.11
   1   7  -4    0.70    0.11
   0   7  -4    3.61    0.21
  -1   7  -4    0.86    0.14
  -2   7  -4    0.17    0.10
  -3   7  -4    1.52    0.18
  -4   7  -4    0.43    0.14
  10   6  -4   -0.04    0.16
   9   6  -4    0.25    0.15
   8   6  -4    0.29    0.16
   7   6  -4    1.88    0.19
   6   6  -4    5.14    0.27
  -6  -6   4    5.41    0.24
   5   6  -4    1.99    0.18
  -5  -6   4    1.91    0.15
  -5  -6   4    2.11    0.16
   4   6  -4   -0.10    0.09
   4   6  -4    0.02    0.08
  -4  -6   4    0.11    0.08
  -4  -6   4    0.10    0.08
   3   6  -4   13.84    0.41
   3   6  -4   13.39    0.40
  -3  -6   4   13.57    0.39
   2   6  -4   10.43    0.34
   2   6  -4   10.70    0.32
  -2  -6   4   10.71    0.34
   1   6  -4    0.66    0.10
   1   6  -4    0.81    0.09
   0   6  -4    2.86    0.17
  -1   6  -4    5.58    0.24
  -2   6  -4    4.27    0.22
  -3   6  -4    0.12    0.10
  -4   6  -4    1.32    0.18
  -5   6  -4    2.54    0.23
  -6   6  -4    0.25    0.13
  10   5  -4    0.19    0.15
   9   5  -4    1.21    0.19
   8   5  -4    2.49    0.22
   7   5  -4    2.99    0.22
  -7  -5   4    3.10    0.18
   6   5  -4    0.10    0.12
  -6  -5   4    0.04    0.08
   5   5  -4   11.71    0.38
  -5  -5   4   11.33    0.33
  -5  -5   4   11.39    0.35
   4   5  -4    7.17    0.27
   4   5  -4    7.35    0.28
  -4  -5   4    7.26    0.26
  -4  -5   4    6.52    0.24
   3   5  -4    1.46    0.13
   3   5  -4    1.50    0.14
  -3  -5   4    1.58    0.12
  -3  -5   4    1.57    0.13
   2   5  -4    1.76    0.13
   2   5  -4    1.72    0.12
  -2  -5   4    1.61    0.13
   1   5  -4   11.48    0.32
   1   5  -4   11.52    0.34
   0   5  -4    5.88    0.19
   0   5  -4    5.76    0.22
  -1   5  -4    1.92    0.14
  -2   5  -4    0.70    0.11
  -3   5  -4   10.25    0.35
  -4   5  -4    7.08    0.30
  -5   5  -4    0.34    0.12
  -6   5  -4    0.73    0.15
  -7   5  -4    0.15    0.14
  10   4  -4    0.42    0.17
   9   4  -4    0.32    0.14
   8   4  -4    0.31    0.13
   7   4  -4    0.40    0.14
  -7  -4   4    0.58    0.11
   6   4  -4    3.48    0.21
  -6  -4   4    3.61    0.19
   5   4  -4    1.73    0.15
  -5  -4   4    1.61    0.13
  -5  -4   4    1.76    0.11
   4   4  -4    1.09    0.12
  -4  -4   4    1.13    0.09
  -4  -4   4    1.13    0.11
   3   4  -4    7.44    0.25
   3   4  -4    7.30    0.26
  -3  -4   4    7.04    0.24
  -3  -4   4    7.02    0.22
   2   4  -4   26.94    0.65
   2   4  -4   26.22    0.63
  -2  -4   4   27.10    0.62
   1   4  -4   30.49    0.71
   1   4  -4   30.44    0.70
   0   4  -4    0.44    0.06
   0   4  -4    0.55    0.08
  -1   4  -4    4.86    0.16
  -1   4  -4    5.25    0.20
  -2   4  -4    8.53    0.28
  -3   4  -4    5.40    0.23
  -4   4  -4    1.32    0.15
  -4   4  -4    1.69    0.16
  -5   4  -4    1.73    0.19
  -5   4  -4    1.54    0.17
  -6   4  -4    0.73    0.14
  -6   4  -4    0.75    0.17
  -7   4  -4    0.15    0.12
  -7   4  -4    0.08    0.14
  -8   4  -4    0.09    0.13
  10   3  -4    0.22    0.16
   9   3  -4    0.69    0.16
   8   3  -4    1.93    0.21
  -8  -3   4    1.60    0.16
   7   3  -4    2.89    0.20
  -7  -3   4    3.10    0.17
   6   3  -4    9.50    0.34
  -6  -3   4    9.03    0.28
  -6  -3   4    9.31    0.30
   5   3  -4    2.21    0.16
  -5  -3   4    2.81    0.16
  -5  -3   4    2.42    0.11
   4   3  -4   10.69    0.33
  -4  -3   4   11.61    0.29
  -4  -3   4   11.79    0.33
   3   3  -4    7.79    0.25
  -3  -3   4    7.94    0.21
  -3  -3   4    7.73    0.24
   2   3  -4    6.25    0.22
   2   3  -4    6.17    0.21
  -2  -3   4    6.22    0.20
  -2  -3   4    6.50    0.18
   1   3  -4    5.81    0.19
   1   3  -4    5.90    0.20
   0   3  -4   21.53    0.51
   0   3  -4   22.29    0.53
  -1   3  -4   26.33    0.60
  -1   3  -4   27.59    0.63
  -2   3  -4    2.83    0.14
  -2   3  -4    2.82    0.14
  -2   3  -4    2.61    0.11
  -3   3  -4    1.59    0.13
  -3   3  -4    1.39    0.13
  -4   3  -4    8.98    0.30
  -4   3  -4    8.77    0.31
  -5   3  -4    0.03    0.08
  -5   3  -4    0.03    0.10
  -6   3  -4    0.97    0.14
  -6   3  -4    0.94    0.16
  -7   3  -4    0.04    0.11
  -7   3  -4    0.23    0.15
  -8   3  -4    1.62    0.22
  -8   3  -4    1.24    0.19
   9   2  -4    2.33    0.22
   8   2  -4    1.26    0.18
  -8  -2   4    1.39    0.15
   7   2  -4    0.18    0.11
  -7  -2   4    0.17    0.10
   6   2  -4    0.02    0.10
  -6  -2   4    0.01    0.06
  -6  -2   4    0.28    0.10
   5   2  -4   14.10    0.41
  -5  -2   4   13.76    0.35
  -5  -2   4   14.40    0.39
   4   2  -4    6.29    0.24
  -4  -2   4    6.33    0.22
  -4  -2   4    6.63    0.18
   3   2  -4    0.01    0.06
  -3  -2   4    0.07    0.06
  -3  -2   4    0.11    0.03
   2   2  -4  108.78    2.30
  -2  -2   4  111.68    2.24
  -2  -2   4  108.80    2.29
   1   2  -4   63.91    1.37
   1   2  -4   63.24    1.36
  -1  -2   4   64.44    1.36
   0   2  -4    9.02    0.25
   0   2  -4    8.55    0.24
  -1   2  -4    0.95    0.07
  -1   2  -4    0.91    0.07
  -1   2  -4    1.01    0.08
  -2   2  -4   14.92    0.38
  -2   2  -4   15.85    0.39
  -2   2  -4   15.16    0.38
  -3   2  -4   29.95    0.69
  -3   2  -4   30.04    0.66
  -3   2  -4   29.21    0.70
  -4   2  -4   13.06    0.36
  -4   2  -4   12.73    0.37
   4  -2   4   12.45    0.31
  -5   2  -4   13.82    0.39
  -5   2  -4   13.58    0.41
  -6   2  -4    0.35    0.10
  -6   2  -4    0.18    0.12
  -7   2  -4    4.08    0.22
  -7   2  -4    4.35    0.25
  -8   2  -4    1.16    0.19
   8   1  -4    0.55    0.14
  -8  -1   4    0.58    0.13
   7   1  -4    4.83    0.25
  -7  -1   4    5.07    0.24
   6   1  -4    3.88    0.21
  -6  -1   4    3.66    0.17
  -6  -1   4    3.94    0.19
   5   1  -4    0.37    0.09
  -5  -1   4    0.62    0.11
  -5  -1   4    0.63    0.08
   4   1  -4   18.29    0.48
  -4  -1   4   18.98    0.47
  -4  -1   4   18.47    0.43
   3   1  -4   16.27    0.42
  -3  -1   4   16.70    0.41
  -3  -1   4   16.30    0.37
   2   1  -4   82.78    1.75
  -2  -1   4   86.27    1.69
  -2  -1   4   79.46    1.74
   1   1  -4    0.14    0.06
  -1  -1   4    0.06    0.05
   0   1  -4    0.07    0.02
   0   1  -4    0.10    0.05
   0   1  -4    0.07    0.04
   0  -1   4    0.04    0.04
  -1   1  -4    7.65    0.21
  -1   1  -4    7.28    0.21
  -1   1  -4    7.55    0.20
  -2   1  -4   11.60    0.30
  -2   1  -4   11.28    0.30
  -2   1  -4   11.99    0.30
  -3   1  -4    7.97    0.22
  -3   1  -4    7.92    0.23
  -3   1  -4    7.78    0.24
  -4   1  -4    5.99    0.22
  -4   1  -4    5.74    0.19
   4  -1   4    6.08    0.19
  -5   1  -4    5.22    0.23
  -5   1  -4    5.61    0.20
   5  -1   4    5.25    0.18
  -6   1  -4    0.40    0.09
  -6   1  -4    0.38    0.11
  -7   1  -4    0.88    0.15
  -7   1  -4    0.90    0.12
  -8   1  -4    0.42    0.15
  -9   1  -4    0.15    0.14
  -9   0   4    1.11    0.16
  -8   0   4    0.03    0.11
   7   0  -4    3.97    0.22
  -7   0   4    4.04    0.21
  -7   0   4    4.25    0.23
   6   0  -4    1.45    0.15
  -6   0   4    1.56    0.16
  -6   0   4    1.69    0.14
   5   0  -4    9.64    0.31
  -5   0   4    9.17    0.27
  -5   0   4    9.12    0.30
   4   0  -4    6.23    0.22
  -4   0   4    6.15    0.19
  -4   0   4    6.08    0.23
   3   0  -4   10.90    0.31
  -3   0   4   11.84    0.32
  -3   0   4   11.35    0.28
   2   0  -4    0.79    0.08
  -2   0   4    0.60    0.07
   1   0  -4    0.38    0.06
   1   0  -4    0.38    0.03
  -1   0   4    0.36    0.06
   0   0  -4    0.41    0.06
   0   0  -4    0.36    0.03
   0   0   4    0.67    0.06
  -1   0  -4    8.67    0.23
  -1   0  -4    8.48    0.24
  -1   0  -4    9.04    0.21
   1   0   4    8.44    0.22
  -2   0  -4    0.04    0.04
  -2   0  -4   -0.02    0.03
  -2   0  -4    0.06    0.04
  -3   0  -4    7.67    0.23
  -3   0  -4    7.75    0.21
  -3   0  -4    8.00    0.23
  -4   0  -4    1.55    0.09
  -4   0  -4    1.53    0.12
   4   0   4    1.69    0.10
  -5   0  -4    0.10    0.05
  -5   0  -4    0.13    0.07
   5   0   4    0.12    0.06
  -6   0  -4    1.89    0.16
  -6   0  -4    1.84    0.12
   6   0   4    1.60    0.13
  -7   0  -4    0.93    0.15
   7   0   4    1.09    0.13
  -8   0  -4    1.53    0.18
  -9   0  -4    0.69    0.16
 -10   0  -4   -0.42    0.20
  -9   1   4    0.49    0.15
  -8   1   4    0.21    0.12
  -7   1   4    0.06    0.10
  -7   1   4    0.15    0.10
   6  -1  -4    6.42    0.34
  -6   1   4    6.35    0.25
  -6   1   4    6.36    0.27
   5  -1  -4    5.22    0.21
  -5   1   4    5.21    0.23
  -5   1   4    5.24    0.21
   4  -1  -4    3.28    0.16
  -4   1   4    3.30    0.15
  -4   1   4    3.29    0.17
   3  -1  -4   35.35    0.81
  -3   1   4   36.31    0.82
   2  -1  -4   28.99    0.66
  -2   1   4   29.57    0.67
   1  -1  -4    2.18    0.10
  -1   1   4    2.04    0.10
   0  -1  -4    0.89    0.07
   0  -1  -4    0.90    0.05
   0   1   4    0.73    0.06
  -1  -1  -4    1.71    0.10
  -1  -1  -4    1.54    0.07
   1   1   4    1.62    0.07
  -2  -1  -4   10.04    0.24
  -2  -1  -4    9.59    0.25
  -2  -1  -4    8.74    0.26
   2   1   4   10.16    0.23
  -3  -1  -4   54.36    1.16
  -3  -1  -4   52.60    1.12
  -4  -1  -4    8.51    0.27
  -4  -1  -4    8.72    0.22
   4   1   4    8.72    0.25
  -5  -1  -4    0.08    0.08
  -5  -1  -4    0.05    0.04
   5   1   4   -0.03    0.05
  -6  -1  -4   15.17    0.38
  -6  -1  -4   15.44    0.44
   6   1   4   14.83    0.41
  -7  -1  -4    4.39    0.23
   7   1   4    4.82    0.21
  -8  -1  -4    0.13    0.12
   8   1   4    0.05    0.09
  -9  -1  -4    0.14    0.13
 -10  -1  -4    0.67    0.17
  -8   2   4    0.42    0.14
  -7   2   4    0.45    0.12
  -6   2   4   -0.03    0.09
  -5   2   4    0.58    0.12
   4  -2  -4    4.62    0.18
  -4   2   4    4.76    0.20
   3  -2  -4   37.37    0.83
  -3   2   4   37.35    0.86
   2  -2  -4    0.01    0.04
  -2   2   4    0.06    0.06
   1  -2  -4   -0.02    0.04
  -1   2   4    0.04    0.05
   0  -2  -4    1.30    0.09
   0  -2  -4    1.27    0.09
   0   2   4    1.45    0.08
  -1  -2  -4   13.77    0.36
  -1  -2  -4   14.15    0.34
   1   2   4   14.40    0.33
  -2  -2  -4    8.50    0.24
  -2  -2  -4    8.54    0.24
   2   2   4    8.28    0.20
  -3  -2  -4    8.00    0.24
   3   2   4    8.56    0.20
  -4  -2  -4   96.98    2.01
  -4  -2  -4   98.07    2.09
   4   2   4  100.49    2.07
  -5  -2  -4   28.73    0.61
  -5  -2  -4   28.14    0.69
   5   2   4   28.77    0.67
  -6  -2  -4    0.42    0.10
   6   2   4    0.76    0.11
  -7  -2  -4    1.21    0.15
   7   2   4    1.05    0.13
  -8  -2  -4    8.32    0.34
   8   2   4    8.36    0.31
  -9  -2  -4    2.23    0.22
   9   2   4    2.00    0.20
 -10  -2  -4    0.25    0.15
  -8   3   4    0.03    0.11
  -7   3   4    0.17    0.11
  -6   3   4    4.14    0.24
  -5   3   4    9.11    0.33
  -4   3   4    8.85    0.30
   3  -3  -4    5.16    0.18
  -3   3   4    5.25    0.22
   2  -3  -4    7.40    0.21
  -2   3   4    6.77    0.23
   1  -3  -4   41.68    0.92
  -1   3   4   42.37    0.93
   0  -3  -4   12.52    0.33
   0   3   4   13.06    0.33
  -1  -3  -4    5.69    0.18
  -1  -3  -4    5.35    0.18
   1   3   4    5.62    0.16
  -2  -3  -4    4.08    0.16
  -2  -3  -4    4.59    0.16
   2   3   4    4.26    0.12
  -3  -3  -4   39.16    0.89
   3   3   4   39.16    0.81
   3   3   4   39.55    0.87
  -4  -3  -4   17.87    0.46
   4   3   4   17.65    0.44
  -5  -3  -4    4.50    0.20
   5   3   4    4.81    0.19
  -6  -3  -4    3.74    0.21
   6   3   4    3.98    0.18
  -7  -3  -4    4.02    0.22
   7   3   4    4.02    0.20
  -8  -3  -4    2.00    0.19
   8   3   4    1.75    0.16
  -9  -3  -4    0.55    0.16
   9   3   4    0.32    0.12
 -10  -3  -4    0.25    0.14
  10   3   4    0.18    0.14
 -11  -3  -4   -0.12    0.16
  -7   4   4    1.46    0.19
  -6   4   4    2.64    0.20
  -5   4   4    0.25    0.11
  -4   4   4    0.06    0.09
  -3   4   4    6.06    0.24
  -2   4   4    2.70    0.15
   1  -4  -4    1.32    0.09
  -1   4   4    1.42    0.12
   0  -4  -4    4.89    0.17
   0   4   4    5.00    0.18
  -1  -4  -4   83.54    1.75
  -1  -4  -4   81.24    1.77
   1   4   4   84.62    1.74
  -2  -4  -4    7.37    0.25
   2   4   4    8.05    0.23
   2   4   4    8.10    0.21
  -3  -4  -4   13.56    0.37
   3   4   4   13.41    0.35
   3   4   4   13.71    0.30
  -4  -4  -4   10.19    0.32
   4   4   4   10.14    0.30
  -5  -4  -4   31.77    0.77
   5   4   4   31.30    0.74
  -6  -4  -4    5.05    0.23
   6   4   4    4.95    0.22
  -7  -4  -4    0.50    0.12
   7   4   4    0.66    0.12
  -8  -4  -4    0.66    0.14
   8   4   4    0.92    0.15
  -9  -4  -4    3.64    0.25
   9   4   4    4.44    0.26
 -10  -4  -4    0.51    0.17
  10   4   4    0.49    0.15
 -11  -4  -4   -0.01    0.16
  11   4   4   -0.25    0.13
  -6   5   4   -0.03    0.11
  -5   5   4    3.12    0.23
  -4   5   4    1.15    0.16
  -3   5   4    6.42    0.26
  -2   5   4    1.65    0.15
  -1   5   4   18.22    0.48
   0   5   4   29.36    0.69
  -1  -5  -4    9.78    0.32
   1   5   4   10.05    0.28
   1   5   4    9.68    0.26
  -2  -5  -4    0.10    0.08
   2   5   4    0.15    0.06
   2   5   4    0.14    0.05
  -3  -5  -4    3.42    0.18
   3   5   4    3.53    0.12
   3   5   4    3.78    0.16
  -4  -5  -4    4.54    0.20
   4   5   4    4.59    0.12
   4   5   4    4.36    0.18
  -5  -5  -4    4.11    0.21
   5   5   4    4.29    0.19
  -6  -5  -4    0.54    0.12
   6   5   4    0.38    0.10
  -7  -5  -4   13.80    0.44
   7   5   4   13.29    0.42
  -8  -5  -4    1.54    0.18
   8   5   4    1.81    0.18
  -9  -5  -4    0.46    0.14
   9   5   4    0.93    0.17
 -10  -5  -4    0.21    0.15
  10   5   4    0.26    0.14
 -11  -5  -4    0.61    0.19
  11   5   4    0.47    0.18
  -5   6   4    1.30    0.18
  -4   6   4    0.04    0.10
  -3   6   4    0.84    0.13
  -2   6   4    0.29    0.10
  -1   6   4    5.37    0.23
   0   6   4    0.30    0.08
  -1  -6  -4   11.92    0.39
   1   6   4   11.02    0.32
   1   6   4   11.22    0.30
   2   6   4   18.06    0.44
   2   6   4   17.86    0.44
  -3  -6  -4   19.07    0.52
   3   6   4   19.52    0.45
   3   6   4   19.40    0.48
  -4  -6  -4    2.92    0.19
   4   6   4    3.06    0.16
  -5  -6  -4   13.73    0.43
   5   6   4   13.35    0.40
  -6  -6  -4    0.48    0.12
   6   6   4    0.57    0.11
  -7  -6  -4   24.52    0.66
   7   6   4   23.05    0.63
  -8  -6  -4    0.12    0.12
   8   6   4    0.25    0.13
  -9  -6  -4    1.97    0.22
   9   6   4    1.46    0.19
 -10  -6  -4    0.82    0.18
  10   6   4    0.18    0.14
 -11  -6  -4    0.20    0.16
  11   6   4    0.04    0.16
  -4   7   4    0.87    0.16
  -3   7   4    5.35    0.27
  -2   7   4    2.25    0.18
  -1   7   4    2.01    0.17
   0   7   4   15.93    0.46
  -1  -7  -4    4.72    0.26
   1   7   4    4.59    0.20
  -2  -7  -4   10.67    0.37
   2   7   4   10.03    0.29
   2   7   4   10.26    0.31
  -3  -7  -4    1.86    0.18
   3   7   4    1.68    0.11
   3   7   4    1.76    0.13
  -4  -7  -4   10.94    0.36
   4   7   4   10.41    0.33
  -5  -7  -4    4.74    0.24
   5   7   4    4.87    0.22
  -6  -7  -4    1.68    0.18
   6   7   4    1.82    0.16
  -7  -7  -4    0.09    0.12
   7   7   4   -0.17    0.10
  -8  -7  -4    2.56    0.24
   8   7   4    2.53    0.22
  -9  -7  -4    1.47    0.21
   9   7   4    1.12    0.19
 -10  -7  -4    0.12    0.15
  10   7   4    0.02    0.16
 -11  -7  -4    0.36    0.18
  11   7   4   -0.06    0.15
  -3   8   4    0.14    0.13
  -2   8   4    2.01    0.20
  -1   8   4    9.76    0.37
   0   8   4    2.44    0.18
  -1  -8  -4    4.27    0.30
   1   8   4    4.28    0.20
  -2  -8  -4    1.65    0.20
   2   8   4    1.73    0.14
  -3  -8  -4    6.77    0.31
   3   8   4    6.88    0.29
   3   8   4    6.28    0.28
  -4  -8  -4    0.67    0.14
   4   8   4    0.75    0.12
  -5  -8  -4    0.40    0.12
   5   8   4    0.43    0.11
  -6  -8  -4    8.68    0.37
   6   8   4    8.68    0.32
  -7  -8  -4   10.45    0.41
   7   8   4   10.01    0.38
  -8  -8  -4    0.75    0.16
   8   8   4    0.74    0.17
  -9  -8  -4   -0.05    0.12
   9   8   4   -0.15    0.14
 -10  -8  -4    0.53    0.18
  10   8   4    0.42    0.17
  -2   9   4    1.83    0.21
  -1   9   4    0.84    0.15
   0  -9  -4    0.76    0.22
   0   9   4    0.73    0.14
  -1  -9  -4    0.64    0.19
   1   9   4    0.72    0.13
  -2  -9  -4    1.95    0.23
   2   9   4    2.13    0.16
  -3  -9  -4    0.02    0.15
  -4  -9  -4    1.71    0.20
  -5  -9  -4    2.46    0.23
   5   9   4    2.31    0.19
  -6  -9  -4    8.16    0.35
   6   9   4    8.18    0.33
  -7  -9  -4    1.60    0.20
   7   9   4    1.48    0.19
  -8  -9  -4    0.27    0.15
   8   9   4    0.20    0.14
  -9  -9  -4    0.57    0.17
   9   9   4    0.43    0.18
 -10  -9  -4    0.83    0.21
  10   9   4    0.46    0.18
  -1  10   4    2.20    0.23
   0 -10  -4    2.50    0.30
   0  10   4    3.15    0.23
  -1 -10  -4    1.90    0.26
   1  10   4    1.74    0.18
  -2 -10  -4    0.23    0.18
  -3 -10  -4    2.48    0.25
  -4 -10  -4    6.36    0.34
  -5 -10  -4    3.93    0.27
  -6 -10  -4    0.98    0.18
   6  10   4    0.89    0.16
  -7 -10  -4    1.62    0.22
   7  10   4    1.82    0.21
  -8 -10  -4    3.34    0.30
   8  10   4    2.53    0.24
  -9 -10  -4    0.28    0.15
   9  10   4    0.32    0.18
  -2 -11  -4    2.35    0.28
  -3 -11  -4    2.77    0.29
  -4 -11  -4    0.08    0.15
  -5 -11  -4    0.08    0.16
  -6 -11  -4    2.17    0.24
  -7 -11  -4    1.16    0.21
   7  11   4    1.13    0.28
  -8 -11  -4    0.21    0.16
   8  11   4   -0.01    0.16
   9  11   4    0.36    0.22
   4  11  -5    0.73    0.19
   3  11  -5    0.17    0.15
   7  10  -5    0.26    0.14
   4  10  -5    0.37    0.14
   3  10  -5    2.00    0.22
   2  10  -5    2.27    0.23
   1  10  -5    0.17    0.13
  -1 -10   5   -0.19    0.19
   8   9  -5    0.92    0.20
   7   9  -5    1.25    0.20
   6   9  -5   -0.07    0.12
   5   9  -5    2.86    0.23
   5   9  -5    3.32    0.25
  -5  -9   5    2.85    0.22
   4   9  -5    2.71    0.24
   3   9  -5    4.04    0.26
   2   9  -5    0.33    0.13
  -2  -9   5    0.24    0.16
   1   9  -5    1.15    0.17
   0   9  -5    1.80    0.20
  -1   9  -5    0.50    0.15
   8   8  -5    0.33    0.15
   7   8  -5    0.10    0.14
   6   8  -5    2.96    0.25
   5   8  -5    2.68    0.24
   5   8  -5    2.30    0.21
  -5  -8   5    2.24    0.20
   4   8  -5    0.62    0.13
   4   8  -5    0.52    0.15
  -4  -8   5    0.78    0.14
   3   8  -5    4.31    0.24
   2   8  -5    1.95    0.19
  -2  -8   5    1.69    0.20
   1   8  -5    0.25    0.11
   0   8  -5    0.08    0.10
  -1   8  -5    0.09    0.11
  -2   8  -5    2.11    0.21
  -3   8  -5    0.54    0.16
   9   7  -5    0.35    0.17
   8   7  -5    1.18    0.19
   7   7  -5    0.52    0.16
   6   7  -5    0.08    0.12
  -6  -7   5    0.25    0.11
   5   7  -5    0.30    0.13
   5   7  -5    0.49    0.14
  -5  -7   5    0.38    0.12
   4   7  -5    3.88    0.22
   4   7  -5    3.90    0.24
  -4  -7   5    3.83    0.21
   3   7  -5    4.27    0.22
   3   7  -5    4.31    0.24
  -3  -7   5    4.59    0.25
   2   7  -5    1.93    0.17
   2   7  -5    1.95    0.18
  -2  -7   5    1.73    0.17
   1   7  -5    0.50    0.11
   0   7  -5    1.27    0.16
  -1   7  -5    0.08    0.11
  -2   7  -5    2.92    0.21
  -3   7  -5    0.00    0.12
  -4   7  -5    0.25    0.13
   9   6  -5    0.08    0.14
   8   6  -5    0.61    0.16
   7   6  -5    0.05    0.12
   6   6  -5    1.49    0.17
  -6  -6   5    1.45    0.15
   5   6  -5    1.24    0.15
  -5  -6   5    1.20    0.14
   4   6  -5   12.88    0.42
   4   6  -5   11.99    0.39
  -4  -6   5   12.57    0.38
   3   6  -5    1.37    0.14
   3   6  -5    1.86    0.17
  -3  -6   5    1.82    0.15
  -3  -6   5    1.70    0.14
   2   6  -5    0.03    0.08
   2   6  -5    0.03    0.07
  -2  -6   5   -0.09    0.09
   1   6  -5    1.73    0.16
   1   6  -5    1.75    0.13
   0   6  -5    3.08    0.19
  -1   6  -5    0.11    0.09
  -2   6  -5    2.25    0.17
  -3   6  -5    5.63    0.27
  -4   6  -5    2.77    0.21
  -5   6  -5    0.05    0.13
  10   5  -5    0.33    0.20
   9   5  -5    0.11    0.16
   8   5  -5    1.34    0.18
   7   5  -5    4.11    0.26
  -7  -5   5    3.83    0.22
   6   5  -5    6.86    0.30
  -6  -5   5    7.12    0.28
   5   5  -5    3.31    0.20
  -5  -5   5    3.23    0.19
   4   5  -5    0.07    0.08
   4   5  -5    0.27    0.11
  -4  -5   5    0.21    0.09
   3   5  -5    5.91    0.24
   3   5  -5    6.73    0.27
  -3  -5   5    5.63    0.21
  -3  -5   5    6.20    0.23
   2   5  -5   17.16    0.47
   2   5  -5   16.51    0.45
  -2  -5   5   16.48    0.44
   1   5  -5    3.89    0.18
   1   5  -5    4.11    0.20
   0   5  -5    9.61    0.28
   0   5  -5   10.29    0.32
  -1   5  -5    8.81    0.30
  -2   5  -5   12.38    0.39
  -3   5  -5    5.53    0.25
  -4   5  -5    0.09    0.10
  -5   5  -5    1.15    0.17
  -6   5  -5    0.66    0.16
  -7   5  -5    0.23    0.14
  10   4  -5    0.31    0.17
   9   4  -5    0.18    0.16
   8   4  -5    2.12    0.22
   7   4  -5    6.99    0.31
  -7  -4   5    7.24    0.28
   6   4  -5    0.33    0.11
  -6  -4   5    0.23    0.09
   5   4  -5    1.52    0.16
  -5  -4   5    2.00    0.15
   4   4  -5    3.82    0.19
  -4  -4   5    3.74    0.19
   3   4  -5    0.57    0.10
   3   4  -5    0.46    0.10
  -3  -4   5    0.48    0.09
  -3  -4   5    0.63    0.07
   2   4  -5    0.14    0.08
   2   4  -5    0.10    0.07
  -2  -4   5    0.09    0.06
  -2  -4   5   -0.07    0.06
   1   4  -5    1.54    0.12
   1   4  -5    1.41    0.12
   0   4  -5   45.56    1.03
   0   4  -5   45.92    1.01
  -1   4  -5    4.31    0.19
  -1   4  -5    4.43    0.16
  -2   4  -5    0.09    0.07
  -3   4  -5    1.33    0.14
  -4   4  -5    1.36    0.17
  -4   4  -5    1.49    0.15
  -5   4  -5    0.64    0.14
  -5   4  -5    0.83    0.13
  -6   4  -5    0.07    0.13
  -6   4  -5   -0.06    0.09
  -7   4  -5    0.91    0.16
  -7   4  -5    0.60    0.18
  10   3  -5    0.46    0.17
   9   3  -5    1.26    0.20
   8   3  -5   -0.01    0.13
  -8  -3   5    0.18    0.12
   7   3  -5    0.51    0.14
  -7  -3   5    0.27    0.11
   6   3  -5    9.84    0.36
  -6  -3   5    9.94    0.33
   5   3  -5    3.30    0.21
  -5  -3   5    3.55    0.18
   4   3  -5    1.55    0.14
  -4  -3   5    1.49    0.14
   3   3  -5    5.83    0.22
  -3  -3   5    5.95    0.21
  -3  -3   5    5.83    0.16
   2   3  -5    4.67    0.19
   2   3  -5    5.04    0.21
  -2  -3   5    4.66    0.18
  -2  -3   5    4.75    0.14
   1   3  -5   23.86    0.57
   1   3  -5   23.92    0.59
   0   3  -5   17.72    0.45
   0   3  -5   17.25    0.43
  -1   3  -5    0.09    0.05
  -1   3  -5    0.20    0.06
  -2   3  -5   18.31    0.48
  -2   3  -5   18.69    0.46
  -2   3  -5   18.60    0.47
  -3   3  -5   12.29    0.36
  -3   3  -5   11.56    0.35
  -4   3  -5    0.82    0.11
  -4   3  -5    1.16    0.14
  -5   3  -5    1.15    0.14
  -5   3  -5    1.36    0.17
  -6   3  -5    2.23    0.21
  -6   3  -5    2.34    0.18
  -7   3  -5    1.19    0.16
  -7   3  -5    1.22    0.18
  -8   3  -5    0.04    0.14
   9   2  -5    0.58    0.16
   8   2  -5    0.23    0.13
  -8  -2   5   -0.01    0.11
   7   2  -5    1.76    0.18
  -7  -2   5    2.27    0.19
   6   2  -5    2.11    0.18
  -6  -2   5    2.31    0.17
   5   2  -5    0.05    0.09
  -5  -2   5    0.18    0.10
   4   2  -5    4.14    0.20
  -4  -2   5    4.27    0.13
  -4  -2   5    4.65    0.20
   3   2  -5    0.20    0.07
  -3  -2   5    0.28    0.07
  -3  -2   5    0.23    0.03
   2   2  -5    9.50    0.29
  -2  -2   5    9.53    0.21
  -2  -2   5    9.79    0.29
   1   2  -5   16.84    0.44
   1   2  -5   16.61    0.42
  -1  -2   5   16.97    0.42
   0   2  -5   58.24    1.28
   0   2  -5   59.41    1.27
  -1   2  -5   31.83    0.69
  -1   2  -5   30.75    0.71
  -1   2  -5   30.74    0.71
  -2   2  -5   22.01    0.51
  -2   2  -5   20.79    0.51
  -2   2  -5   20.42    0.51
  -3   2  -5    0.05    0.06
  -3   2  -5    0.11    0.07
  -3   2  -5    0.00    0.04
  -4   2  -5   12.96    0.37
  -4   2  -5   13.36    0.39
   4  -2   5   12.31    0.33
  -5   2  -5    0.09    0.10
  -5   2  -5    0.01    0.08
  -6   2  -5    2.86    0.17
  -6   2  -5    2.57    0.20
  -7   2  -5    0.20    0.10
  -7   2  -5    0.08    0.12
  -8   2  -5    1.75    0.21
  -9  -1   5    0.39    0.13
   8   1  -5    3.70    0.25
  -8  -1   5    3.07    0.22
   7   1  -5   -0.01    0.09
  -7  -1   5    0.08    0.10
   6   1  -5    7.09    0.29
  -6  -1   5    6.43    0.26
   5   1  -5    6.49    0.26
  -5  -1   5    6.84    0.25
   4   1  -5    3.68    0.18
  -4  -1   5    3.85    0.19
  -4  -1   5    3.59    0.13
   3   1  -5    1.48    0.12
  -3  -1   5    1.57    0.13
  -3  -1   5    1.49    0.06
   2   1  -5   14.84    0.39
  -2  -1   5   14.90    0.39
   1   1  -5  115.94    2.43
  -1  -1   5  116.89    2.43
   0   1  -5   10.93    0.30
   0   1  -5   10.64    0.29
   0   1  -5   10.26    0.24
   0  -1   5   11.19    0.29
  -1   1  -5    4.07    0.13
  -1   1  -5    4.20    0.15
  -2   1  -5    1.66    0.11
  -2   1  -5    1.52    0.10
  -2   1  -5    1.50    0.09
  -3   1  -5    8.09    0.24
  -3   1  -5    8.40    0.25
  -3   1  -5    7.42    0.24
  -4   1  -5    3.49    0.18
  -4   1  -5    3.27    0.15
   4  -1   5    3.16    0.14
  -5   1  -5    2.93    0.19
  -5   1  -5    2.94    0.15
   5  -1   5    3.19    0.15
  -6   1  -5    5.01    0.21
  -6   1  -5    5.22    0.25
  -7   1  -5    3.92    0.24
  -7   1  -5    3.95    0.24
  -8   1  -5    1.88    0.21
  -9   1  -5   -0.03    0.15
  -9   0   5    0.11    0.12
  -8   0   5    1.49    0.18
   7   0  -5    6.43    0.29
  -7   0   5    5.79    0.27
   6   0  -5    6.21    0.26
  -6   0   5    6.87    0.27
   5   0  -5    1.58    0.15
  -5   0   5    1.88    0.16
  -5   0   5    1.71    0.12
   4   0  -5    1.69    0.14
  -4   0   5    1.47    0.13
  -4   0   5    1.71    0.10
   3   0  -5   10.74    0.31
  -3   0   5   10.17    0.31
   2   0  -5   59.52    1.29
  -2   0   5   59.44    1.29
   1   0  -5   28.32    0.64
  -1   0   5   26.56    0.63
   0   0  -5    8.18    0.24
   0   0  -5    8.19    0.19
   0   0   5    8.02    0.23
  -1   0  -5   23.57    0.54
  -1   0  -5   22.44    0.50
  -1   0  -5   23.14    0.54
   1   0   5   22.96    0.52
  -2   0  -5   22.76    0.55
  -2   0  -5   22.31    0.52
  -2   0  -5   23.86    0.53
  -3   0  -5    9.90    0.27
  -3   0  -5    9.30    0.28
  -3   0  -5    9.74    0.26
  -4   0  -5    0.17    0.07
  -4   0  -5    0.15    0.05
   4   0   5   -0.05    0.05
  -5   0  -5    4.37    0.20
  -5   0  -5    4.16    0.16
   5   0   5    4.20    0.17
  -6   0  -5    9.77    0.30
  -6   0  -5   10.16    0.35
   6   0   5   10.20    0.31
  -7   0  -5    0.55    0.13
   7   0   5    0.32    0.15
  -8   0  -5    0.37    0.13
  -9   0  -5    0.88    0.18
  -9   1   5    0.26    0.14
  -8   1   5    0.48    0.14
  -7   1   5    1.69    0.18
   6  -1  -5    0.05    0.10
  -6   1   5   -0.05    0.09
   5  -1  -5    3.27    0.18
  -5   1   5    3.07    0.20
  -5   1   5    3.07    0.17
   4  -1  -5    8.80    0.28
  -4   1   5    8.46    0.29
   3  -1  -5    2.55    0.14
  -3   1   5    2.76    0.15
   2  -1  -5    3.35    0.15
  -2   1   5    3.69    0.16
   1  -1  -5   17.81    0.44
  -1   1   5   18.29    0.45
   0  -1  -5   17.72    0.38
   0  -1  -5   16.28    0.42
   0   1   5   17.58    0.42
  -1  -1  -5   13.21    0.32
  -1  -1  -5   13.86    0.36
   1   1   5   13.57    0.33
  -2  -1  -5   10.83    0.28
  -2  -1  -5   11.11    0.31
  -2  -1  -5   10.87    0.28
   2   1   5   11.13    0.27
  -3  -1  -5   21.59    0.53
  -3  -1  -5   21.33    0.49
  -3  -1  -5   21.65    0.52
  -4  -1  -5    4.91    0.19
  -4  -1  -5    4.69    0.15
   4   1   5    4.86    0.18
  -5  -1  -5    7.57    0.27
  -5  -1  -5    7.85    0.22
   5   1   5    8.35    0.26
  -6  -1  -5    2.40    0.17
   6   1   5    2.17    0.15
  -7  -1  -5    1.28    0.16
   7   1   5    1.23    0.13
  -8  -1  -5    4.17    0.25
   8   1   5    4.01    0.22
  -9  -1  -5    0.70    0.16
 -10  -1  -5    0.14    0.16
  -8   2   5    0.11    0.13
  -7   2   5    2.16    0.21
  -6   2   5    1.93    0.18
  -5   2   5    1.70    0.17
   4  -2  -5    1.19    0.12
  -4   2   5    1.11    0.14
   3  -2  -5    0.02    0.06
  -3   2   5    0.06    0.07
   2  -2  -5   35.76    0.82
  -2   2   5   37.50    0.84
   1  -2  -5   28.30    0.66
  -1   2   5   28.74    0.66
   0  -2  -5    7.69    0.23
   0  -2  -5    7.35    0.21
   0   2   5    7.54    0.22
  -1  -2  -5    8.28    0.25
  -1  -2  -5    7.65    0.21
   1   2   5    7.90    0.22
  -2  -2  -5    4.64    0.18
  -2  -2  -5    4.76    0.16
   2   2   5    4.65    0.14
  -3  -2  -5    1.25    0.10
  -3  -2  -5    1.44    0.11
   3   2   5    1.58    0.07
  -4  -2  -5    1.50    0.07
  -4  -2  -5    1.56    0.12
   4   2   5    1.60    0.07
   4   2   5    1.70    0.12
  -5  -2  -5    0.09    0.07
  -5  -2  -5    0.28    0.04
   5   2   5    0.23    0.07
  -6  -2  -5    8.54    0.31
   6   2   5    8.68    0.29
  -7  -2  -5    4.21    0.23
   7   2   5    4.69    0.22
  -8  -2  -5    1.53    0.18
   8   2   5    1.09    0.14
  -9  -2  -5    1.02    0.17
   9   2   5    0.95    0.16
 -10  -2  -5    0.87    0.19
  -7   3   5    2.23    0.21
  -6   3   5    2.91    0.21
  -5   3   5    0.14    0.10
  -4   3   5    2.96    0.18
   3  -3  -5    3.94    0.17
  -3   3   5    4.41    0.20
   2  -3  -5    4.11    0.17
  -2   3   5    3.77    0.19
   1  -3  -5    0.05    0.05
  -1   3   5    0.01    0.06
   0  -3  -5    9.17    0.28
   0  -3  -5    9.48    0.27
   0   3   5    9.51    0.27
  -1  -3  -5    7.09    0.22
  -1  -3  -5    7.38    0.23
   1   3   5    7.12    0.21
  -2  -3  -5   49.16    1.10
  -2  -3  -5   49.70    1.12
   2   3   5   53.29    1.07
  -3  -3  -5    0.99    0.10
   3   3   5    0.97    0.06
   3   3   5    1.16    0.10
  -4  -3  -5   18.12    0.47
   4   3   5   17.80    0.38
   4   3   5   17.80    0.45
  -5  -3  -5   20.82    0.54
   5   3   5   20.39    0.52
  -6  -3  -5    8.52    0.31
   6   3   5    9.10    0.30
  -7  -3  -5    0.42    0.11
   7   3   5    0.58    0.11
  -8  -3  -5    0.43    0.13
   8   3   5    0.74    0.13
  -9  -3  -5    3.75    0.26
   9   3   5    3.41    0.24
 -10  -3  -5    0.22    0.14
  10   3   5    0.24    0.15
  -7   4   5    0.40    0.15
  -6   4   5    0.05    0.11
  -5   4   5    1.53    0.18
  -4   4   5    2.18    0.17
  -3   4   5    2.16    0.16
   2  -4  -5    0.34    0.07
  -2   4   5    0.48    0.10
   1  -4  -5   16.68    0.43
  -1   4   5   16.45    0.44
   0  -4  -5   24.47    0.59
   0  -4  -5   23.16    0.57
   0   4   5   23.92    0.57
  -1  -4  -5    2.78    0.15
  -1  -4  -5    2.80    0.14
   1   4   5    3.02    0.13
  -2  -4  -5   16.03    0.42
  -2  -4  -5   15.82    0.41
   2   4   5   16.02    0.38
  -3  -4  -5   26.03    0.64
   3   4   5   27.53    0.63
   3   4   5   26.35    0.57
  -4  -4  -5    9.92    0.31
   4   4   5    9.68    0.29
   4   4   5    9.35    0.21
  -5  -4  -5    0.53    0.10
   5   4   5    0.19    0.08
  -6  -4  -5    5.54    0.25
   6   4   5    5.26    0.22
  -7  -4  -5    0.97    0.15
   7   4   5    0.92    0.14
  -8  -4  -5    0.34    0.14
   8   4   5    0.43    0.13
  -9  -4  -5    0.07    0.13
   9   4   5   -0.01    0.13
 -10  -4  -5    0.41    0.16
  10   4   5    0.66    0.17
 -11  -4  -5    1.00    0.20
  11   4   5    0.77    0.19
  -6   5   5    0.52    0.14
  -5   5   5    0.21    0.11
  -4   5   5    2.59    0.20
  -3   5   5    5.62    0.25
  -2   5   5    2.21    0.16
   1  -5  -5    1.35    0.16
  -1   5   5    1.15    0.12
   0  -5  -5    7.12    0.23
   0   5   5    7.28    0.24
  -1  -5  -5   12.21    0.37
  -1  -5  -5   11.54    0.33
   1   5   5   11.48    0.32
  -2  -5  -5    6.99    0.26
   2   5   5    6.85    0.22
   2   5   5    7.15    0.21
  -3  -5  -5    4.58    0.20
   3   5   5    4.51    0.14
   3   5   5    4.59    0.18
  -4  -5  -5    6.23    0.25
   4   5   5    6.29    0.23
  -5  -5  -5   21.34    0.57
   5   5   5   21.00    0.55
  -6  -5  -5    7.26    0.30
   6   5   5    7.01    0.27
  -7  -5  -5    3.22    0.23
   7   5   5    3.00    0.20
  -8  -5  -5    1.55    0.19
   8   5   5    1.55    0.18
  -9  -5  -5    1.92    0.21
   9   5   5    1.63    0.19
 -10  -5  -5    1.19    0.20
  10   5   5    0.68    0.17
 -11  -5  -5    0.55    0.18
  11   5   5    0.28    0.16
  -5   6   5    0.48    0.15
  -4   6   5    2.71    0.21
  -3   6   5    3.80    0.22
  -2   6   5    0.04    0.10
  -1   6   5    8.45    0.30
   0   6   5    0.71    0.10
  -1  -6  -5   25.96    0.67
   1   6   5   24.43    0.59
   1   6   5   25.28    0.61
  -2  -6  -5    0.75    0.13
   2   6   5    0.99    0.09
   2   6   5    0.99    0.10
  -3  -6  -5   12.71    0.40
   3   6   5   12.81    0.33
   3   6   5   13.43    0.36
  -4  -6  -5   22.13    0.59
   4   6   5   22.79    0.57
  -5  -6  -5    6.09    0.27
   5   6   5    5.86    0.24
  -6  -6  -5    2.91    0.20
   6   6   5    3.02    0.20
  -7  -6  -5    2.55    0.20
   7   6   5    1.77    0.18
  -8  -6  -5    6.94    0.32
   8   6   5    6.41    0.30
  -9  -6  -5    1.28    0.20
   9   6   5    1.18    0.17
 -10  -6  -5    0.09    0.13
  10   6   5   -0.11    0.13
 -11  -6  -5    0.28    0.17
  11   6   5    0.08    0.18
  -4   7   5    0.30    0.13
  -3   7   5    0.37    0.12
  -2   7   5    8.39    0.33
  -1   7   5   26.05    0.68
   0   7   5    0.73    0.12
  -1  -7  -5    5.01    0.29
   1   7   5    4.55    0.20
  -2  -7  -5   16.75    0.51
   2   7   5   16.96    0.45
   2   7   5   17.08    0.44
  -3  -7  -5   27.05    0.71
   3   7   5   26.62    0.65
   3   7   5   26.89    0.63
  -4  -7  -5    3.35    0.21
   4   7   5    3.20    0.18
  -5  -7  -5    0.95    0.14
   5   7   5    0.96    0.12
  -6  -7  -5    6.90    0.32
   6   7   5    7.24    0.29
  -7  -7  -5   13.99    0.47
   7   7   5   13.91    0.45
  -8  -7  -5    0.45    0.14
   8   7   5    0.19    0.12
  -9  -7  -5    0.03    0.14
   9   7   5   -0.17    0.13
 -10  -7  -5    0.79    0.19
  10   7   5    0.55    0.17
 -11  -7  -5    0.74    0.20
  11   7   5    1.00    0.25
  -3   8   5    3.05    0.27
  -2   8   5    4.52    0.27
  -1   8   5    0.22    0.11
   0  -8  -5    1.31    0.21
   0   8   5    1.20    0.14
  -1  -8  -5    0.59    0.17
   1   8   5    0.97    0.13
  -2  -8  -5    0.17    0.13
   2   8   5    0.17    0.08
  -3  -8  -5    0.42    0.15
   3   8   5    0.38    0.11
  -4  -8  -5   10.65    0.39
   4   8   5   10.84    0.35
  -5  -8  -5    6.81    0.30
   5   8   5    7.17    0.28
  -6  -8  -5    0.16    0.12
   6   8   5    0.15    0.12
  -7  -8  -5    0.17    0.12
   7   8   5   -0.02    0.11
  -8  -8  -5    2.23    0.22
   8   8   5    2.10    0.21
  -9  -8  -5    0.67    0.17
   9   8   5    0.44    0.15
 -10  -8  -5    0.09    0.14
  10   8   5    0.04    0.17
  -2   9   5    0.71    0.17
  -1   9   5    2.61    0.23
   0  -9  -5    1.61    0.25
   0   9   5    1.48    0.18
  -1  -9  -5    0.01    0.16
   1   9   5   -0.01    0.09
  -2  -9  -5    8.84    0.41
   2   9   5    8.85    0.32
  -3  -9  -5    6.77    0.33
  -4  -9  -5    1.63    0.21
  -5  -9  -5    0.80    0.16
   5   9   5    0.86    0.14
  -6  -9  -5    0.12    0.12
   6   9   5    0.04    0.12
  -7  -9  -5    2.45    0.24
   7   9   5    2.41    0.23
  -8  -9  -5    0.80    0.17
   8   9   5    0.68    0.16
  -9  -9  -5    0.17    0.16
   9   9   5    0.11    0.16
 -10  -9  -5    0.45    0.17
  10   9   5    0.29    0.18
  -1  10   5    0.05    0.13
   0 -10  -5    0.52    0.24
   0  10   5    0.74    0.16
  -1 -10  -5    1.14    0.25
   1  10   5    1.00    0.16
  -2 -10  -5    2.96    0.28
  -3 -10  -5    2.54    0.27
  -4 -10  -5    0.18    0.15
  -5 -10  -5    1.36    0.21
  -6 -10  -5    1.47    0.20
   6  10   5    1.72    0.19
  -7 -10  -5    1.03    0.19
   7  10   5    1.17    0.19
  -8 -10  -5    0.11    0.16
   8  10   5    0.13    0.14
  -9 -10  -5    2.04    0.25
   9  10   5    1.67    0.23
  -2 -11  -5    0.11    0.19
  -3 -11  -5    2.06    0.26
  -4 -11  -5    2.02    0.25
  -5 -11  -5    2.16    0.25
  -6 -11  -5    0.36    0.17
  -7 -11  -5    0.66    0.19
   7  11   5    0.84    0.28
  -8 -11  -5    0.74    0.21
   8  11   5    0.62    0.18
   7  10  -6    0.16    0.17
   5  10  -6    0.61    0.24
   4  10  -6    0.08    0.15
  -4 -10   6    0.30    0.13
   3  10  -6    0.58    0.17
   2  10  -6    0.20    0.15
   1  10  -6    1.26    0.23
   7   9  -6    0.74    0.18
   6   9  -6    1.65    0.21
   5   9  -6    1.22    0.17
   5   9  -6    1.33    0.21
  -5  -9   6    1.03    0.17
   4   9  -6    1.02    0.19
  -4  -9   6    1.08    0.16
   3   9  -6    0.21    0.14
   2   9  -6    2.26    0.22
   1   9  -6    0.49    0.14
   0   9  -6    0.02    0.12
  -1   9  -6    1.06    0.18
   8   8  -6    1.30    0.20
   7   8  -6    2.02    0.22
   6   8  -6    0.36    0.13
  -6  -8   6    0.24    0.13
   5   8  -6    1.18    0.18
   5   8  -6    1.24    0.18
  -5  -8   6    0.93    0.15
   4   8  -6    8.05    0.34
   4   8  -6    7.99    0.35
  -4  -8   6    8.03    0.32
   3   8  -6    7.34    0.33
   2   8  -6    0.50    0.14
   1   8  -6    2.11    0.20
   0   8  -6    1.67    0.20
  -1   8  -6    3.21    0.23
  -2   8  -6    0.00    0.11
   8   7  -6    0.47    0.18
   7   7  -6    0.44    0.15
   6   7  -6    2.39    0.22
  -6  -7   6    2.26    0.20
   5   7  -6    2.47    0.24
   5   7  -6    2.66    0.22
  -5  -7   6    2.79    0.23
   4   7  -6    1.05    0.17
   4   7  -6    0.98    0.14
  -4  -7   6    1.06    0.15
   3   7  -6    0.54    0.13
   3   7  -6    0.62    0.12
  -3  -7   6    0.71    0.13
   2   7  -6    0.97    0.14
   1   7  -6    1.50    0.16
   0   7  -6    0.05    0.10
  -1   7  -6   -0.02    0.09
  -2   7  -6    1.15    0.16
  -3   7  -6    0.82    0.15
  -4   7  -6    0.08    0.12
   9   6  -6   -0.07    0.14
   8   6  -6    1.04    0.19
   7   6  -6    3.18    0.24
  -7  -6   6    3.16    0.21
   6   6  -6    1.46    0.18
  -6  -6   6    1.49    0.17
   5   6  -6    0.10    0.11
  -5  -6   6    0.00    0.10
   4   6  -6    0.02    0.10
   4   6  -6    0.12    0.11
  -4  -6   6    0.15    0.10
   3   6  -6    2.08    0.17
   3   6  -6    2.29    0.18
  -3  -6   6    1.91    0.16
   2   6  -6    1.27    0.15
   2   6  -6    1.37    0.13
   1   6  -6    0.10    0.09
   1   6  -6    0.17    0.08
   0   6  -6    0.00    0.09
  -1   6  -6    1.70    0.17
  -2   6  -6    1.57    0.16
  -3   6  -6    0.21    0.11
  -4   6  -6    0.16    0.12
  -5   6  -6    0.95    0.17
   9   5  -6    0.55    0.18
   8   5  -6    1.15    0.20
   7   5  -6    1.53    0.20
  -7  -5   6    1.64    0.18
   6   5  -6    0.17    0.11
  -6  -5   6   -0.03    0.09
   5   5  -6    3.53    0.23
  -5  -5   6    3.21    0.20
   4   5  -6    2.69    0.18
  -4  -5   6    2.65    0.18
   3   5  -6    1.05    0.13
   3   5  -6    1.01    0.14
  -3  -5   6    0.97    0.12
   2   5  -6   -0.03    0.08
   2   5  -6    0.12    0.09
  -2  -5   6   -0.04    0.08
   1   5  -6   22.71    0.58
   1   5  -6   23.20    0.61
   0   5  -6    3.02    0.15
   0   5  -6    2.84    0.17
  -1   5  -6    3.13    0.19
  -2   5  -6    0.35    0.10
  -3   5  -6    5.77    0.26
  -4   5  -6    4.34    0.23
  -5   5  -6    0.83    0.15
  -6   5  -6    0.19    0.13
   9   4  -6    0.22    0.16
   8   4  -6    0.02    0.14
  -8  -4   6    0.09    0.12
   7   4  -6    0.59    0.14
  -7  -4   6    0.60    0.14
   6   4  -6    7.11    0.32
  -6  -4   6    7.41    0.30
   5   4  -6    4.86    0.24
  -5  -4   6    4.99    0.24
   4   4  -6   -0.18    0.08
  -4  -4   6   -0.03    0.09
   3   4  -6    1.19    0.14
   3   4  -6    1.21    0.13
  -3  -4   6    1.12    0.13
   2   4  -6    8.24    0.29
   2   4  -6    8.51    0.31
  -2  -4   6    8.18    0.28
   1   4  -6    5.26    0.22
   1   4  -6    5.66    0.22
   0   4  -6    0.83    0.09
   0   4  -6    0.72    0.11
  -1   4  -6    0.12    0.06
  -1   4  -6    0.07    0.07
  -2   4  -6    4.10    0.20
  -3   4  -6    2.84    0.18
  -4   4  -6    0.40    0.13
  -4   4  -6    0.25    0.10
  -5   4  -6    1.82    0.17
  -5   4  -6    1.63    0.19
  -6   4  -6    0.66    0.13
  -6   4  -6    0.99    0.17
  -7   4  -6    0.04    0.16
  -7   4  -6    0.04    0.12
   9   3  -6    0.09    0.15
   8   3  -6    0.62    0.15
  -8  -3   6    0.63    0.14
   7   3  -6    0.33    0.14
  -7  -3   6    0.19    0.12
   6   3  -6    0.04    0.11
  -6  -3   6    0.17    0.12
   5   3  -6    0.10    0.09
  -5  -3   6    0.17    0.10
   4   3  -6    2.37    0.18
  -4  -3   6    2.59    0.18
   3   3  -6    0.10    0.08
  -3  -3   6    0.05    0.07
   2   3  -6    0.32    0.08
   2   3  -6    0.25    0.09
  -2  -3   6    0.43    0.09
   1   3  -6    6.08    0.24
   1   3  -6    5.95    0.22
  -1  -3   6    6.28    0.22
   0   3  -6    7.98    0.27
   0   3  -6    8.10    0.25
  -1   3  -6    4.41    0.18
  -1   3  -6    3.91    0.17
  -2   3  -6    1.47    0.12
  -2   3  -6    1.56    0.12
  -2   3  -6    1.44    0.13
  -3   3  -6    1.49    0.13
  -3   3  -6    1.65    0.14
  -4   3  -6    7.37    0.29
  -4   3  -6    6.63    0.26
  -5   3  -6    0.52    0.11
  -5   3  -6    0.69    0.14
  -6   3  -6    0.26    0.11
  -6   3  -6    0.50    0.14
  -7   3  -6    0.69    0.14
  -7   3  -6    0.43    0.16
  -8   3  -6    0.33    0.27
   9   2  -6    0.70    0.18
   8   2  -6    0.76    0.17
  -8  -2   6    0.88    0.15
   7   2  -6    0.15    0.12
  -7  -2   6    0.31    0.13
   6   2  -6    2.27    0.19
  -6  -2   6    2.27    0.20
   5   2  -6    2.67    0.20
  -5  -2   6    2.71    0.19
   4   2  -6    4.71    0.23
  -4  -2   6    5.31    0.23
   3   2  -6    1.91    0.15
  -3  -2   6    1.97    0.15
   2   2  -6  156.19    3.22
  -2  -2   6  151.85    3.21
   1   2  -6    0.49    0.09
   1   2  -6    0.61    0.09
  -1  -2   6    0.62    0.09
  -1  -2   6    0.57    0.04
   0   2  -6   11.98    0.34
   0   2  -6   12.74    0.36
   0  -2   6   12.39    0.33
  -1   2  -6    1.10    0.11
  -1   2  -6    1.08    0.08
  -1   2  -6    1.16    0.10
  -2   2  -6   10.79    0.30
  -2   2  -6   10.41    0.31
  -2   2  -6   11.21    0.32
  -3   2  -6   17.74    0.46
  -3   2  -6   17.36    0.46
  -3   2  -6   17.52    0.45
  -4   2  -6    9.57    0.32
  -4   2  -6    9.07    0.30
  -5   2  -6    3.62    0.19
  -5   2  -6    3.58    0.22
  -6   2  -6    2.02    0.15
  -6   2  -6    2.10    0.20
  -7   2  -6    1.33    0.16
  -7   2  -6    1.85    0.21
  -8   2  -6    0.52    0.16
  -9  -1   6    0.56    0.16
   8   1  -6    1.35    0.19
  -8  -1   6    1.61    0.19
   7   1  -6    1.45    0.18
  -7  -1   6    1.48    0.17
   6   1  -6    2.48    0.20
  -6  -1   6    2.22    0.19
   5   1  -6    0.01    0.09
  -5  -1   6   -0.03    0.09
   4   1  -6    0.55    0.11
  -4  -1   6    0.34    0.10
   3   1  -6    7.30    0.26
  -3  -1   6    7.08    0.25
   2   1  -6  213.52    4.36
  -2  -1   6  208.25    4.35
   1   1  -6   10.20    0.31
  -1  -1   6   10.86    0.30
   0   1  -6   16.31    0.42
   0   1  -6   16.22    0.43
   0   1  -6   15.79    0.35
   0  -1   6   16.27    0.41
  -1   1  -6   20.06    0.49
  -1   1  -6   19.59    0.49
  -1   1  -6   19.91    0.45
   1  -1   6   19.68    0.47
  -2   1  -6   19.46    0.47
  -2   1  -6   19.95    0.50
  -2   1  -6   20.10    0.49
  -3   1  -6    1.26    0.11
  -3   1  -6    1.16    0.11
  -3   1  -6    1.11    0.10
  -4   1  -6    4.28    0.19
  -4   1  -6    4.60    0.18
  -4   1  -6    4.07    0.18
  -5   1  -6   10.09    0.31
  -5   1  -6   10.65    0.35
   5  -1   6   10.30    0.30
  -6   1  -6    8.33    0.29
  -6   1  -6    8.94    0.33
  -7   1  -6    0.50    0.15
  -8   1  -6    0.94    0.17
  -9   1  -6   -0.11    0.13
  -9   0   6    0.15    0.14
  -8   0   6    1.68    0.20
   7   0  -6    1.43    0.17
  -7   0   6    1.73    0.19
   6   0  -6    0.15    0.10
  -6   0   6    0.12    0.12
   5   0  -6    2.39    0.18
  -5   0   6    2.69    0.18
   4   0  -6   15.05    0.43
  -4   0   6   15.02    0.43
   3   0  -6    5.08    0.21
  -3   0   6    5.20    0.22
   2   0  -6    0.11    0.06
  -2   0   6   -0.11    0.06
   1   0  -6    0.89    0.10
  -1   0   6    0.83    0.10
   0   0  -6   19.11    0.41
   0   0  -6   19.18    0.48
   0   0   6   18.96    0.46
  -1   0  -6    0.97    0.10
  -1   0  -6    0.74    0.06
  -1   0  -6    1.00    0.09
   1   0   6    0.82    0.08
  -2   0  -6    2.21    0.13
  -2   0  -6    2.07    0.11
  -2   0  -6    1.98    0.10
   2   0   6    2.16    0.10
  -3   0  -6    8.13    0.25
  -3   0  -6    8.34    0.27
  -3   0  -6    8.38    0.24
  -4   0  -6    6.19    0.21
  -4   0  -6    6.22    0.23
  -4   0  -6    6.23    0.22
  -5   0  -6    0.76    0.09
  -5   0  -6    0.76    0.11
   5   0   6    0.77    0.10
  -6   0  -6    0.07    0.07
  -6   0  -6    0.10    0.09
   6   0   6    0.16    0.08
  -7   0  -6    0.81    0.15
   7   0   6    0.89    0.17
  -8   0  -6    1.30    0.18
  -9   0  -6   -0.03    0.13
  -8   1   6    0.19    0.13
  -7   1   6    0.60    0.14
   6  -1  -6    1.58    0.17
  -6   1   6    1.59    0.17
   5  -1  -6    0.06    0.08
  -5   1   6    0.03    0.09
   4  -1  -6    1.27    0.13
  -4   1   6    1.20    0.14
   3  -1  -6   13.12    0.38
  -3   1   6   12.86    0.38
   2  -1  -6   16.16    0.43
  -2   1   6   15.81    0.43
   1  -1  -6    2.79    0.14
   1  -1  -6    2.96    0.10
  -1   1   6    2.89    0.14
   0  -1  -6    0.28    0.04
   0  -1  -6    0.25    0.06
   0   1   6    0.19    0.06
  -1  -1  -6   23.07    0.57
  -1  -1  -6   23.30    0.52
   1   1   6   23.80    0.54
  -2  -1  -6   35.97    0.80
  -2  -1  -6   38.04    0.84
  -2  -1  -6   34.24    0.79
   2   1   6   35.77    0.79
  -3  -1  -6    2.59    0.14
  -3  -1  -6    2.61    0.13
  -3  -1  -6    2.62    0.12
   3   1   6    2.78    0.11
  -4  -1  -6    0.04    0.05
  -4  -1  -6    0.14    0.05
  -4  -1  -6    0.08    0.06
  -5  -1  -6    2.21    0.11
  -5  -1  -6    2.06    0.16
   5   1   6    2.36    0.14
  -6  -1  -6    2.43    0.19
   6   1   6    2.14    0.14
  -7  -1  -6    0.16    0.11
   7   1   6    0.08    0.09
  -8  -1  -6    0.16    0.12
   8   1   6    0.13    0.10
  -9  -1  -6    0.82    0.17
 -10  -1  -6    0.30    0.16
  -8   2   6    0.55    0.15
  -7   2   6    1.65    0.19
  -6   2   6    0.30    0.12
  -5   2   6    1.78    0.18
   4  -2  -6    4.64    0.20
  -4   2   6    4.22    0.22
   3  -2  -6   20.34    0.53
  -3   2   6   21.11    0.55
   2  -2  -6    1.71    0.13
  -2   2   6    1.95    0.15
   1  -2  -6    8.57    0.27
   1  -2  -6    8.75    0.24
  -1   2   6    8.74    0.27
   0  -2  -6   29.18    0.67
   0  -2  -6   27.33    0.63
   0   2   6   28.40    0.66
  -1  -2  -6   14.00    0.35
  -1  -2  -6   14.35    0.39
   1   2   6   13.98    0.36
  -2  -2  -6    0.27    0.06
  -2  -2  -6    0.29    0.07
   2   2   6    0.41    0.06
  -3  -2  -6   16.03    0.45
  -3  -2  -6   17.12    0.43
   3   2   6   17.42    0.39
  -4  -2  -6   10.10    0.27
  -4  -2  -6   10.40    0.31
   4   2   6   10.32    0.25
  -5  -2  -6    7.37    0.27
   5   2   6    7.83    0.27
  -6  -2  -6    1.26    0.14
   6   2   6    1.24    0.13
  -7  -2  -6   -0.11    0.09
   7   2   6    0.04    0.09
  -8  -2  -6    5.95    0.30
   8   2   6    5.40    0.25
  -9  -2  -6    0.95    0.18
   9   2   6    0.94    0.15
 -10  -2  -6    0.24    0.16
  -7   3   6    0.04    0.13
  -6   3   6    1.37    0.17
  -5   3   6    1.88    0.18
  -4   3   6    1.94    0.18
   3  -3  -6    0.21    0.07
  -3   3   6    0.19    0.10
   2  -3  -6    1.37    0.12
  -2   3   6    1.08    0.13
   1  -3  -6    6.10    0.22
  -1   3   6    6.66    0.23
   0  -3  -6    0.04    0.06
   0  -3  -6    0.10    0.06
   0   3   6    0.03    0.06
  -1  -3  -6    4.44    0.19
  -1  -3  -6    4.11    0.16
   1   3   6    4.44    0.16
  -2  -3  -6    9.22    0.29
  -2  -3  -6    9.44    0.27
   2   3   6    8.98    0.25
  -3  -3  -6   22.35    0.55
  -3  -3  -6   21.76    0.56
   3   3   6   22.21    0.50
  -4  -3  -6   13.60    0.38
   4   3   6   13.07    0.30
   4   3   6   12.39    0.36
  -5  -3  -6    0.38    0.09
   5   3   6    0.44    0.09
  -6  -3  -6    1.11    0.14
   6   3   6    1.30    0.13
  -7  -3  -6    1.47    0.17
   7   3   6    1.55    0.15
  -8  -3  -6    1.31    0.17
   8   3   6    1.36    0.16
  -9  -3  -6    0.83    0.17
   9   3   6    0.67    0.14
 -10  -3  -6    0.77    0.19
  10   3   6    1.10    0.18
  -6   4   6    0.93    0.16
  -5   4   6   -0.02    0.12
  -4   4   6    1.33    0.16
  -3   4   6    7.26    0.29
   2  -4  -6    3.63    0.18
  -2   4   6    4.16    0.20
   1  -4  -6    0.17    0.07
  -1   4   6    0.17    0.08
   0  -4  -6   25.25    0.62
   0  -4  -6   24.94    0.61
   0   4   6   24.53    0.60
  -1  -4  -6   22.96    0.57
  -1  -4  -6   24.16    0.59
   1   4   6   23.48    0.56
  -2  -4  -6   20.72    0.52
  -2  -4  -6   21.38    0.54
   2   4   6   21.93    0.50
  -3  -4  -6    7.69    0.26
   3   4   6    7.65    0.21
  -4  -4  -6    1.29    0.13
   4   4   6    1.38    0.13
   4   4   6    1.08    0.09
  -5  -4  -6    3.54    0.20
   5   4   6    3.31    0.17
  -6  -4  -6    2.17    0.19
   6   4   6    2.15    0.16
  -7  -4  -6    0.03    0.10
   7   4   6    0.12    0.10
  -8  -4  -6    3.26    0.23
   8   4   6    2.93    0.21
  -9  -4  -6    2.50    0.23
   9   4   6    2.61    0.22
 -10  -4  -6    0.67    0.17
  10   4   6    0.69    0.16
  11   4   6    0.16    0.16
  -5   5   6    2.95    0.25
  -4   5   6    1.10    0.17
  -3   5   6    1.17    0.15
  -2   5   6    1.65    0.16
   1  -5  -6   10.54    0.32
  -1   5   6   10.25    0.33
   0  -5  -6   12.36    0.36
   0  -5  -6   12.93    0.40
   0   5   6   12.37    0.36
  -1  -5  -6    5.98    0.24
  -1  -5  -6    5.73    0.22
   1   5   6    5.63    0.21
  -2  -5  -6    1.46    0.14
  -2  -5  -6    1.09    0.11
   2   5   6    1.19    0.10
  -3  -5  -6    9.56    0.31
   3   5   6    9.57    0.25
   3   5   6    9.72    0.30
  -4  -5  -6   16.71    0.48
   4   5   6   16.88    0.45
  -5  -5  -6    0.55    0.12
   5   5   6    0.43    0.10
  -6  -5  -6    0.18    0.10
   6   5   6    0.10    0.09
  -7  -5  -6   29.12    0.76
   7   5   6   28.31    0.74
  -8  -5  -6    5.76    0.29
   8   5   6    5.57    0.28
  -9  -5  -6    0.38    0.15
   9   5   6    0.29    0.15
 -10  -5  -6    0.21    0.15
  10   5   6   -0.07    0.14
  11   5   6    0.27    0.18
  -5   6   6    0.97    0.18
  -4   6   6    0.22    0.12
  -3   6   6    0.33    0.12
  -2   6   6    9.74    0.36
  -1   6   6    5.86    0.26
   0  -6  -6    5.82    0.29
   0   6   6    5.37    0.23
  -1  -6  -6    7.14    0.30
   1   6   6    7.35    0.25
   1   6   6    7.28    0.24
  -2  -6  -6   23.11    0.61
   2   6   6   22.79    0.57
   2   6   6   23.08    0.56
  -3  -6  -6   10.89    0.36
   3   6   6   10.76    0.33
   3   6   6   10.98    0.29
  -4  -6  -6    0.26    0.10
   4   6   6    0.34    0.10
  -5  -6  -6    0.03    0.09
   5   6   6    0.06    0.08
  -6  -6  -6    1.18    0.16
   6   6   6    1.05    0.14
  -7  -6  -6   21.85    0.62
   7   6   6   21.34    0.61
  -8  -6  -6    0.05    0.11
   8   6   6   -0.11    0.11
  -9  -6  -6    0.49    0.15
   9   6   6    0.65    0.17
 -10  -6  -6    0.57    0.18
  10   6   6    0.80    0.17
  11   6   6    0.06    0.17
  -4   7   6    0.42    0.14
  -3   7   6    2.09    0.20
  -2   7   6    0.89    0.15
  -1   7   6    0.46    0.12
   0  -7  -6   -0.07    0.13
   0   7   6    0.08    0.09
  -1  -7  -6    5.27    0.28
   1   7   6    5.09    0.22
  -2  -7  -6    5.69    0.28
   2   7   6    5.70    0.21
   2   7   6    5.86    0.22
  -3  -7  -6    0.60    0.13
   3   7   6    0.69    0.11
  -4  -7  -6    7.63    0.32
   4   7   6    7.77    0.28
  -5  -7  -6    0.42    0.12
   5   7   6    0.50    0.11
  -6  -7  -6    0.45    0.14
   6   7   6    0.45    0.12
  -7  -7  -6    0.55    0.13
   7   7   6    0.57    0.14
  -8  -7  -6    3.89    0.26
   8   7   6    4.14    0.27
  -9  -7  -6    2.30    0.23
 -10  -7  -6    0.09    0.14
  10   7   6    0.17    0.15
  -3   8   6    0.04    0.13
  -2   8   6    1.21    0.17
  -1   8   6    6.38    0.30
   0  -8  -6    3.65    0.28
   0   8   6    4.44    0.24
  -1  -8  -6    0.60    0.18
   1   8   6    0.61    0.12
  -2  -8  -6    7.53    0.34
   2   8   6    7.49    0.27
  -3  -8  -6    8.14    0.34
   3   8   6    8.40    0.30
  -4  -8  -6    0.02    0.11
   4   8   6    0.31    0.10
  -5  -8  -6    1.14    0.17
   5   8   6    0.89    0.13
  -6  -8  -6   10.96    0.42
   6   8   6   11.97    0.41
  -7  -8  -6    4.85    0.28
   7   8   6    5.05    0.27
  -8  -8  -6    0.79    0.16
   8   8   6    0.41    0.16
  -9  -8  -6    0.12    0.15
   9   8   6    0.06    0.15
 -10  -8  -6    0.50    0.16
  10   8   6    0.55    0.19
  -2   9   6    0.33    0.15
   1  -9  -6   -0.25    0.18
  -1   9   6    0.02    0.11
   0  -9  -6    1.05    0.24
   0   9   6    1.30    0.17
  -1  -9  -6    4.85    0.32
   1   9   6    5.08    0.26
  -2  -9  -6    4.39    0.32
  -3  -9  -6    0.74    0.17
  -4  -9  -6    9.20    0.38
  -5  -9  -6    3.27    0.26
   5   9   6    3.34    0.22
  -6  -9  -6    4.97    0.29
   6   9   6    4.50    0.25
  -7  -9  -6   -0.06    0.12
   7   9   6   -0.07    0.13
  -8  -9  -6    0.72    0.16
   8   9   6    0.67    0.18
  -9  -9  -6    1.01    0.20
   9   9   6    0.80    0.20
 -10  -9  -6    0.67    0.20
  10   9   6    0.48    0.28
   0 -10  -6    1.86    0.30
   0  10   6    1.70    0.19
  -1 -10  -6    1.28    0.25
  -2 -10  -6    0.23    0.17
  -3 -10  -6    1.69    0.22
  -4 -10  -6    2.65    0.26
  -5 -10  -6    1.57    0.22
  -6 -10  -6    0.16    0.15
   6  10   6    0.09    0.13
  -7 -10  -6    0.04    0.16
   7  10   6    0.47    0.16
  -8 -10  -6    1.03    0.20
   8  10   6    1.06    0.20
  -9 -10  -6    0.33    0.17
   9  10   6    0.16    0.16
  -2 -11  -6    1.57    0.42
  -3 -11  -6    1.48    0.24
  -4 -11  -6    0.24    0.17
  -5 -11  -6    0.82    0.19
  -6 -11  -6    2.84    0.27
  -7 -11  -6    2.29    0.27
   7  11   6    1.96    0.35
   8  11   6    0.16    0.17
   5  10  -7    0.86    0.22
  -5 -10   7    0.90    0.19
   4  10  -7   -0.08    0.14
  -4 -10   7    0.47    0.14
   3  10  -7    4.29    0.30
   7   9  -7    0.78    0.20
   6   9  -7   -0.10    0.14
   5   9  -7    0.99    0.21
   5   9  -7    1.35    0.19
  -5  -9   7    1.25    0.20
   4   9  -7    0.20    0.14
  -4  -9   7    0.40    0.13
   3   9  -7    4.61    0.31
   2   9  -7    0.20    0.13
   1   9  -7    0.45    0.16
   0   9  -7    1.21    0.18
   7   8  -7    0.15    0.14
   6   8  -7   -0.01    0.14
  -6  -8   7    0.04    0.13
   5   8  -7    2.12    0.25
   5   8  -7    1.74    0.19
  -5  -8   7    2.56    0.24
   4   8  -7    0.70    0.14
   4   8  -7    0.75    0.18
  -4  -8   7    1.02    0.17
   3   8  -7    0.37    0.14
  -3  -8   7    0.46    0.12
   2   8  -7    1.87    0.21
   1   8  -7    3.60    0.25
   0   8  -7    0.30    0.13
  -1   8  -7    0.13    0.12
  -2   8  -7    0.97    0.17
   8   7  -7    0.36    0.18
   7   7  -7    1.90    0.23
   6   7  -7    0.16    0.13
  -6  -7   7   -0.05    0.12
   5   7  -7    0.15    0.11
  -5  -7   7   -0.07    0.11
   4   7  -7    3.72    0.23
   4   7  -7    3.03    0.25
  -4  -7   7    3.59    0.22
   3   7  -7    3.98    0.24
   3   7  -7    4.15    0.26
  -3  -7   7    3.97    0.23
   2   7  -7    0.27    0.13
   1   7  -7    0.51    0.13
   0   7  -7    0.88    0.15
  -1   7  -7    0.13    0.11
  -2   7  -7    0.03    0.12
  -3   7  -7    0.59    0.15
   8   6  -7    0.24    0.15
   7   6  -7    0.09    0.13
  -7  -6   7   -0.02    0.13
   6   6  -7    4.24    0.28
  -6  -6   7    4.39    0.25
   5   6  -7    1.92    0.20
  -5  -6   7    1.83    0.19
   4   6  -7    0.80    0.15
   4   6  -7    0.78    0.14
  -4  -6   7    0.97    0.15
   3   6  -7    0.76    0.15
   3   6  -7    0.47    0.12
  -3  -6   7    0.95    0.14
   2   6  -7    2.73    0.21
   2   6  -7    2.88    0.19
  -2  -6   7    3.08    0.20
   1   6  -7    1.58    0.15
   1   6  -7    1.31    0.16
   0   6  -7    0.26    0.11
  -1   6  -7    0.05    0.10
  -2   6  -7    2.23    0.20
  -3   6  -7    2.94    0.23
  -4   6  -7    1.05    0.18
  -5   6  -7    0.00    0.12
   9   5  -7   -0.01    0.21
   8   5  -7    0.19    0.14
   7   5  -7    0.78    0.16
  -7  -5   7    1.23    0.17
   6   5  -7    2.09    0.20
  -6  -5   7    2.18    0.20
   5   5  -7    1.77    0.19
  -5  -5   7    1.56    0.17
   4   5  -7    0.45    0.12
  -4  -5   7    0.32    0.11
   3   5  -7    2.85    0.22
   3   5  -7    2.86    0.20
  -3  -5   7    2.89    0.19
   2   5  -7    5.80    0.25
   2   5  -7    5.73    0.27
  -2  -5   7    5.95    0.24
   1   5  -7    0.38    0.09
   1   5  -7    0.28    0.10
   0   5  -7    0.17    0.07
   0   5  -7   -0.08    0.09
  -1   5  -7    0.96    0.14
  -2   5  -7    3.81    0.21
  -3   5  -7    2.79    0.20
  -4   5  -7    0.37    0.12
  -5   5  -7    0.68    0.16
  -6   5  -7    0.19    0.13
   9   4  -7    0.75    0.20
   8   4  -7    0.51    0.17
  -8  -4   7    0.41    0.14
   7   4  -7    1.56    0.20
  -7  -4   7    1.26    0.18
   6   4  -7    1.45    0.19
  -6  -4   7    1.24    0.17
   5   4  -7    3.77    0.24
  -5  -4   7    3.16    0.22
   4   4  -7    3.10    0.19
  -4  -4   7    3.04    0.20
   3   4  -7    4.57    0.22
  -3  -4   7    5.38    0.24
   2   4  -7    0.13    0.11
   2   4  -7    0.02    0.09
  -2  -4   7    0.03    0.08
   1   4  -7    6.60    0.25
   1   4  -7    6.28    0.26
  -1  -4   7    6.85    0.25
   0   4  -7   10.31    0.33
   0   4  -7   11.07    0.36
  -1   4  -7    2.38    0.15
  -1   4  -7    2.25    0.16
  -2   4  -7    0.21    0.10
  -3   4  -7    4.37    0.23
  -4   4  -7    0.89    0.13
  -4   4  -7    0.71    0.14
  -5   4  -7    1.59    0.20
  -5   4  -7    1.12    0.16
  -6   4  -7    0.10    0.13
  -6   4  -7    0.01    0.12
  -7   4  -7    0.96    0.21
  -7   4  -7    0.65    0.15
   9   3  -7    0.59    0.19
   8   3  -7    0.27    0.16
  -8  -3   7    0.40    0.14
   7   3  -7    0.11    0.12
  -7  -3   7    0.04    0.11
   6   3  -7    4.79    0.28
  -6  -3   7    4.98    0.27
   5   3  -7    4.60    0.25
  -5  -3   7    4.33    0.24
   4   3  -7    0.57    0.12
  -4  -3   7    0.75    0.13
   3   3  -7    5.80    0.25
  -3  -3   7    5.93    0.24
   2   3  -7    3.16    0.19
   2   3  -7    3.47    0.20
  -2  -3   7    3.63    0.19
   1   3  -7    0.55    0.10
   1   3  -7    0.48    0.11
  -1  -3   7    0.68    0.10
   0   3  -7    1.16    0.11
   0   3  -7    1.08    0.12
  -1   3  -7    1.47    0.12
  -1   3  -7    1.41    0.13
  -2   3  -7    7.24    0.25
  -2   3  -7    7.08    0.25
  -2   3  -7    6.58    0.25
  -3   3  -7    9.70    0.33
  -3   3  -7    9.58    0.32
  -4   3  -7    5.38    0.25
  -4   3  -7    6.16    0.26
  -5   3  -7    0.15    0.10
  -5   3  -7    0.19    0.11
  -6   3  -7    1.88    0.20
  -6   3  -7    1.85    0.18
  -7   3  -7    1.38    0.20
  -7   3  -7    0.95    0.15
   9   2  -7    0.23    0.16
  -9  -2   7    0.15    0.15
   8   2  -7    0.92    0.17
  -8  -2   7    0.81    0.16
   7   2  -7    0.73    0.16
  -7  -2   7    0.57    0.15
   6   2  -7   -0.04    0.10
  -6  -2   7    0.02    0.11
   5   2  -7    2.14    0.19
  -5  -2   7    2.31    0.20
   4   2  -7    1.17    0.15
  -4  -2   7    1.42    0.16
   3   2  -7   25.74    0.66
  -3  -2   7   25.74    0.65
   2   2  -7    2.20    0.15
  -2  -2   7    2.57    0.15
   1   2  -7    1.57    0.14
   1   2  -7    1.64    0.13
  -1  -2   7    1.49    0.13
   0   2  -7    1.92    0.13
   0   2  -7    2.23    0.15
   0  -2   7    1.78    0.12
  -1   2  -7   19.13    0.50
  -1   2  -7   19.06    0.50
  -1   2  -7   19.30    0.45
  -2   2  -7   21.86    0.56
  -2   2  -7   21.91    0.56
  -2   2  -7   22.06    0.53
  -3   2  -7    0.04    0.07
  -3   2  -7    0.21    0.07
  -3   2  -7    0.12    0.08
  -4   2  -7    6.36    0.26
  -4   2  -7    5.47    0.23
  -4   2  -7    6.16    0.24
  -5   2  -7    1.46    0.16
  -5   2  -7    1.41    0.15
  -6   2  -7    2.77    0.19
  -6   2  -7    2.76    0.21
  -7   2  -7    0.14    0.13
  -8   2  -7   -0.04    0.13
  -9  -1   7    0.21    0.15
   8   1  -7    3.03    0.25
  -8  -1   7    2.16    0.23
   7   1  -7    0.18    0.12
  -7  -1   7   -0.02    0.13
   6   1  -7    1.35    0.18
  -6  -1   7    1.70    0.19
   5   1  -7    2.79    0.19
  -5  -1   7    3.01    0.20
   4   1  -7    6.70    0.27
  -4  -1   7    6.77    0.27
   3   1  -7    4.53    0.22
  -3  -1   7    4.21    0.21
   2   1  -7    0.74    0.11
  -2  -1   7    0.65    0.10
   1   1  -7    0.48    0.09
  -1  -1   7    0.69    0.09
   0   1  -7    8.18    0.19
   0   1  -7    8.71    0.28
   0   1  -7    8.28    0.27
   0  -1   7    8.17    0.26
  -1   1  -7    0.40    0.05
  -1   1  -7    0.40    0.08
  -1   1  -7    0.23    0.07
   1  -1   7    0.31    0.07
  -2   1  -7    8.53    0.27
  -2   1  -7    8.98    0.29
  -2   1  -7    8.43    0.25
  -3   1  -7   15.24    0.42
  -3   1  -7   14.83    0.41
  -3   1  -7   15.25    0.40
  -4   1  -7    1.27    0.12
  -4   1  -7    1.48    0.13
  -4   1  -7    1.37    0.13
  -5   1  -7    0.02    0.08
  -5   1  -7    0.01    0.09
   5  -1   7    0.09    0.08
  -6   1  -7    0.41    0.13
  -6   1  -7    0.35    0.10
  -7   1  -7    1.84    0.20
  -8   1  -7    0.57    0.16
  -9   1  -7    0.11    0.16
  -8   0   7    0.29    0.15
   7   0  -7    2.36    0.21
  -7   0   7    2.78    0.22
   6   0  -7    3.10    0.22
  -6   0   7    3.08    0.22
   5   0  -7    0.06    0.11
  -5   0   7    0.11    0.12
   4   0  -7    1.54    0.16
  -4   0   7    1.36    0.16
   3   0  -7    7.40    0.27
  -3   0   7    7.01    0.27
   2   0  -7    1.58    0.13
  -2   0   7    1.44    0.13
   1   0  -7    0.02    0.07
  -1   0   7    0.12    0.07
   0   0  -7    0.55    0.04
   0   0  -7    0.55    0.09
   0   0   7    0.56    0.08
  -1   0  -7   20.50    0.47
  -1   0  -7   21.01    0.53
  -1   0  -7   20.55    0.53
   1   0   7   21.49    0.51
  -2   0  -7   37.70    0.84
  -2   0  -7   39.17    0.90
  -2   0  -7   37.45    0.87
   2   0   7   38.56    0.85
  -3   0  -7    2.39    0.14
  -3   0  -7    2.51    0.14
  -3   0  -7    2.69    0.14
  -4   0  -7    0.57    0.10
  -4   0  -7    0.57    0.08
  -4   0  -7    0.32    0.08
  -5   0  -7   10.76    0.35
  -5   0  -7   10.76    0.32
   5   0   7   10.53    0.33
  -6   0  -7    2.11    0.19
   6   0   7    1.49    0.14
  -7   0  -7   -0.08    0.12
  -8   0  -7    0.35    0.16
  -9   0  -7    0.35    0.17
  -8   1   7    0.04    0.12
  -7   1   7    0.73    0.16
   6  -1  -7    0.17    0.12
  -6   1   7    0.22    0.12
   5  -1  -7    1.86    0.17
  -5   1   7    1.78    0.19
   4  -1  -7   18.41    0.51
  -4   1   7   18.50    0.52
   3  -1  -7    1.62    0.14
  -3   1   7    1.71    0.17
   2  -1  -7   -0.02    0.06
  -2   1   7    0.07    0.08
   1  -1  -7   11.50    0.28
   1  -1  -7   10.57    0.33
  -1   1   7   10.18    0.32
   0  -1  -7   18.99    0.50
   0  -1  -7   19.55    0.43
   0   1   7   19.92    0.49
  -1  -1  -7   11.06    0.33
  -1  -1  -7   10.66    0.27
   1   1   7   10.82    0.30
  -2  -1  -7    0.60    0.07
  -2  -1  -7    0.65    0.10
   2   1   7    0.50    0.07
  -3  -1  -7   48.97    1.08
  -3  -1  -7   45.74    1.04
  -3  -1  -7   46.68    1.04
   3   1   7   46.81    1.02
  -4  -1  -7    7.82    0.24
  -4  -1  -7    7.90    0.28
  -4  -1  -7    7.78    0.26
  -5  -1  -7    2.19    0.12
  -5  -1  -7    2.43    0.16
   5   1   7    2.36    0.16
  -6  -1  -7   -0.10    0.10
   6   1   7    0.06    0.08
  -7  -1  -7    3.63    0.25
   7   1   7    3.55    0.20
  -8  -1  -7    0.67    0.17
   8   1   7    1.01    0.15
  -9  -1  -7    0.01    0.13
  -7   2   7    0.96    0.17
  -6   2   7    3.91    0.24
  -5   2   7    3.68    0.23
   4  -2  -7    2.97    0.18
  -4   2   7    2.83    0.20
   3  -2  -7    4.17    0.20
  -3   2   7    4.12    0.23
   2  -2  -7   12.06    0.36
  -2   2   7   11.84    0.37
   1  -2  -7    2.01    0.11
   1  -2  -7    1.83    0.14
  -1   2   7    2.00    0.14
   0  -2  -7    3.87    0.14
   0  -2  -7    4.16    0.19
   0   2   7    3.95    0.18
  -1  -2  -7    7.36    0.21
  -1  -2  -7    7.10    0.26
   1   2   7    7.17    0.23
  -2  -2  -7   26.33    0.62
  -2  -2  -7   26.36    0.66
   2   2   7   27.44    0.61
  -3  -2  -7   20.24    0.50
  -3  -2  -7   19.69    0.53
   3   2   7   20.55    0.47
  -4  -2  -7    5.84    0.19
  -4  -2  -7    5.69    0.23
  -4  -2  -7    6.19    0.23
   4   2   7    6.10    0.18
  -5  -2  -7    2.43    0.16
   5   2   7    2.56    0.16
  -6  -2  -7    2.92    0.20
   6   2   7    2.74    0.18
  -7  -2  -7    3.87    0.23
   7   2   7    4.18    0.23
  -8  -2  -7   -0.04    0.11
   8   2   7    0.02    0.11
  -9  -2  -7    0.07    0.13
   9   2   7    0.04    0.13
 -10  -2  -7    0.28    0.17
  -6   3   7    0.89    0.16
  -5   3   7    0.25    0.14
  -4   3   7    0.95    0.14
   3  -3  -7    1.29    0.13
  -3   3   7    1.09    0.14
   2  -3  -7    3.12    0.17
  -2   3   7    3.24    0.19
   1  -3  -7    3.08    0.16
   1  -3  -7    2.97    0.17
  -1   3   7    2.87    0.18
   0  -3  -7   47.44    1.09
   0  -3  -7   48.63    1.05
   0   3   7   47.41    1.07
  -1  -3  -7    8.84    0.30
  -1  -3  -7    8.69    0.26
   1   3   7    9.02    0.27
  -2  -3  -7   18.29    0.49
  -2  -3  -7   17.93    0.46
   2   3   7   17.78    0.44
  -3  -3  -7    0.07    0.08
  -3  -3  -7    0.00    0.06
   3   3   7   -0.02    0.05
  -4  -3  -7    2.97    0.17
   4   3   7    3.03    0.12
  -5  -3  -7    1.04    0.13
   5   3   7    0.99    0.13
  -6  -3  -7    1.78    0.17
   6   3   7    1.84    0.16
  -7  -3  -7   -0.14    0.10
   7   3   7   -0.04    0.10
  -8  -3  -7    2.36    0.22
   8   3   7    2.40    0.19
  -9  -3  -7    0.31    0.15
   9   3   7    0.49    0.15
 -10  -3  -7    0.01    0.14
  10   3   7   -0.07    0.12
  -6   4   7    0.75    0.16
  -5   4   7    0.40    0.14
  -4   4   7    3.44    0.22
  -3   4   7    0.33    0.12
   2  -4  -7    6.96    0.26
  -2   4   7    6.78    0.27
   1  -4  -7   10.16    0.33
   1  -4  -7   10.12    0.33
  -1   4   7   10.43    0.33
   0  -4  -7    7.33    0.27
   0  -4  -7    7.41    0.26
   0   4   7    7.53    0.26
  -1  -4  -7    0.02    0.07
  -1  -4  -7    0.17    0.07
   1   4   7   -0.03    0.06
  -2  -4  -7    0.17    0.07
  -2  -4  -7    0.16    0.07
   2   4   7    0.12    0.06
  -3  -4  -7    3.08    0.17
  -3  -4  -7    2.77    0.18
   3   4   7    3.08    0.13
  -4  -4  -7    8.89    0.29
   4   4   7    8.46    0.30
  -5  -4  -7    0.66    0.11
   5   4   7    0.65    0.11
  -6  -4  -7    8.11    0.32
   6   4   7    7.74    0.29
  -7  -4  -7    3.71    0.24
   7   4   7    3.61    0.21
  -8  -4  -7    3.14    0.23
   8   4   7    3.41    0.24
  -9  -4  -7   -0.12    0.11
   9   4   7   -0.25    0.12
 -10  -4  -7    0.43    0.16
  10   4   7    0.28    0.16
  11   4   7    0.13    0.17
  -5   5   7    0.12    0.13
  -4   5   7    0.06    0.11
  -3   5   7    0.23    0.11
  -2   5   7    9.41    0.35
   1  -5  -7    2.38    0.15
  -1   5   7    2.37    0.17
   0  -5  -7    2.36    0.15
   0  -5  -7    2.30    0.19
   0   5   7    2.00    0.16
  -1  -5  -7    8.06    0.29
  -1  -5  -7    7.52    0.28
   1   5   7    8.46    0.27
  -2  -5  -7   21.03    0.54
  -2  -5  -7   19.65    0.54
   2   5   7   20.23    0.50
  -3  -5  -7    0.35    0.10
   3   5   7    0.44    0.10
   3   5   7    0.45    0.07
  -4  -5  -7    0.56    0.11
   4   5   7    0.60    0.11
  -5  -5  -7    0.17    0.10
   5   5   7    0.35    0.09
  -6  -5  -7   25.55    0.68
   6   5   7   25.67    0.67
  -7  -5  -7    0.15    0.11
   7   5   7    0.07    0.11
  -8  -5  -7    0.64    0.15
   8   5   7    0.65    0.16
  -9  -5  -7    0.59    0.16
   9   5   7    0.49    0.15
 -10  -5  -7    0.18    0.14
  10   5   7    0.55    0.18
  11   5   7    0.00    0.17
  -4   6   7    1.35    0.19
  -3   6   7    0.39    0.12
  -2   6   7    1.18    0.16
   1  -6  -7    6.50    0.30
  -1   6   7    6.46    0.27
   0  -6  -7    1.64    0.18
   0   6   7    1.77    0.15
  -1  -6  -7    4.99    0.22
  -1  -6  -7    6.03    0.28
   1   6   7    5.37    0.22
  -2  -6  -7   -0.10    0.10
   2   6   7    0.02    0.07
   2   6   7   -0.03    0.07
  -3  -6  -7    7.33    0.29
   3   6   7    6.98    0.27
  -4  -6  -7    5.69    0.25
   4   6   7    5.98    0.24
  -5  -6  -7    0.87    0.15
   5   6   7    0.53    0.11
  -6  -6  -7    1.53    0.17
   6   6   7    1.30    0.15
  -7  -6  -7    4.06    0.24
   7   6   7    3.99    0.24
  -8  -6  -7    4.39    0.26
   8   6   7    3.46    0.26
  -9  -6  -7    0.14    0.13
   9   6   7   -0.02    0.13
 -10  -6  -7   -0.05    0.13
  10   6   7    0.31    0.16
  11   6   7    0.22    0.27
  -3   7   7    0.09    0.12
  -2   7   7    5.87    0.29
   1  -7  -7    6.18    0.32
  -1   7   7    6.59    0.30
   0  -7  -7    0.56    0.17
   0   7   7    0.37    0.11
  -1  -7  -7    2.90    0.24
   1   7   7    2.86    0.18
  -2  -7  -7    3.37    0.22
   2   7   7    3.41    0.18
   2   7   7    3.54    0.18
  -3  -7  -7    5.34    0.26
   3   7   7    4.89    0.22
  -4  -7  -7    1.65    0.17
   4   7   7    1.31    0.14
  -5  -7  -7    3.65    0.23
   5   7   7    3.81    0.22
  -6  -7  -7    8.89    0.37
   6   7   7    9.55    0.36
  -7  -7  -7    1.71    0.19
   7   7   7    1.53    0.18
  -8  -7  -7   -0.03    0.12
   8   7   7    0.33    0.14
  -9  -7  -7    0.46    0.15
   9   7   7    0.45    0.16
 -10  -7  -7    0.29    0.17
  10   7   7    0.32    0.16
  -2   8   7    1.19    0.17
   1  -8  -7   -0.14    0.18
  -1   8   7    0.16    0.11
   0  -8  -7    2.10    0.24
   0   8   7    2.36    0.19
  -1  -8  -7    4.49    0.31
   1   8   7    4.97    0.23
  -2  -8  -7    0.92    0.17
  -3  -8  -7    2.57    0.23
   3   8   7    2.42    0.18
  -4  -8  -7    7.64    0.33
   4   8   7    7.58    0.30
  -5  -8  -7   19.28    0.58
   5   8   7   19.60    0.55
  -6  -8  -7    5.83    0.30
   6   8   7    6.38    0.30
  -7  -8  -7    0.60    0.15
   7   8   7    0.42    0.15
  -8  -8  -7    2.05    0.23
   8   8   7    1.95    0.22
  -9  -8  -7    2.22    0.24
   9   8   7    2.31    0.25
 -10  -8  -7    0.57    0.17
  10   8   7    0.38    0.17
   2  -9  -7    0.09    0.27
   1  -9  -7    1.84    0.27
  -1   9   7    1.94    0.21
   0  -9  -7    1.78    0.26
   0   9   7    2.04    0.20
  -1  -9  -7    0.51    0.20
   1   9   7    0.50    0.13
  -2  -9  -7    1.56    0.21
  -3  -9  -7    6.79    0.34
  -4  -9  -7    3.10    0.25
  -5  -9  -7    0.87    0.16
   5   9   7    0.94    0.16
  -6  -9  -7    2.15    0.23
   6   9   7    2.53    0.21
  -7  -9  -7    3.08    0.28
   7   9   7    2.60    0.23
  -8  -9  -7    0.32    0.14
   8   9   7    0.14    0.14
  -9  -9  -7    0.49    0.17
   9   9   7    0.52    0.19
   0 -10  -7   -0.07    0.19
   0  10   7   -0.03    0.11
  -1 -10  -7    2.97    0.32
  -2 -10  -7    2.78    0.28
  -3 -10  -7    0.23    0.16
  -4 -10  -7    0.18    0.15
  -5 -10  -7    1.86    0.22
  -6 -10  -7    2.05    0.24
   6  10   7    1.47    0.20
  -7 -10  -7    1.08    0.21
   7  10   7    0.94    0.19
  -8 -10  -7    0.17    0.15
   8  10   7    0.04    0.16
   9  10   7    1.54    0.24
  -3 -11  -7    1.95    0.26
  -4 -11  -7    0.96    0.22
  -5 -11  -7    1.32    0.22
  -6 -11  -7    0.39    0.16
   8  11   7    1.40    0.23
   6   9  -8    0.47    0.17
   5   9  -8    0.41    0.19
   5   9  -8    0.54    0.19
  -5  -9   8    0.50    0.18
   4   9  -8   -0.12    0.16
  -4  -9   8    0.20    0.15
   3   9  -8    0.37    0.17
  -3  -9   8    0.24    0.13
   2   9  -8    0.20    0.14
   1   9  -8    0.35    0.15
   6   8  -8    0.21    0.15
  -6  -8   8    0.07    0.15
   5   8  -8    0.15    0.12
  -5  -8   8    0.18    0.14
   4   8  -8    1.91    0.20
   4   8  -8    1.87    0.25
  -4  -8   8    2.32    0.23
   3   8  -8    1.02    0.19
  -3  -8   8    1.30    0.17
   2   8  -8   -0.20    0.11
   1   8  -8    0.23    0.13
   0   8  -8    0.15    0.13
  -1   8  -8    1.97    0.21
   7   7  -8    0.35    0.17
  -7  -7   8    0.08    0.15
   6   7  -8    0.48    0.17
  -6  -7   8    0.41    0.16
   5   7  -8    4.20    0.27
  -5  -7   8    4.29    0.26
   4   7  -8    0.75    0.15
   4   7  -8    0.50    0.16
  -4  -7   8    0.76    0.16
   3   7  -8    0.07    0.11
   3   7  -8   -0.01    0.14
  -3  -7   8    0.10    0.12
   2   7  -8    3.25    0.27
  -2  -7   8    2.92    0.22
   1   7  -8    3.63    0.24
   0   7  -8   -0.03    0.11
  -1   7  -8    0.55    0.14
  -2   7  -8    2.75    0.25
  -3   7  -8    0.75    0.16
   7   6  -8    1.12    0.20
  -7  -6   8    1.50    0.20
   6   6  -8    1.00    0.17
  -6  -6   8    1.04    0.18
   5   6  -8    0.37    0.13
  -5  -6   8    0.24    0.13
   4   6  -8    1.25    0.17
  -4  -6   8    1.25    0.18
   3   6  -8    3.44    0.25
   3   6  -8    3.61    0.23
  -3  -6   8    3.63    0.22
   2   6  -8    0.60    0.16
   2   6  -8    0.91    0.14
  -2  -6   8    0.70    0.14
   1   6  -8    1.82    0.19
   1   6  -8    2.19    0.17
   0   6  -8    1.97    0.19
  -1   6  -8    1.96    0.19
  -2   6  -8    1.11    0.16
  -3   6  -8   -0.02    0.11
  -4   6  -8    0.16    0.14
   8   5  -8    1.94    0.24
  -8  -5   8    1.31    0.19
   7   5  -8   -0.08    0.12
  -7  -5   8   -0.13    0.14
   6   5  -8    0.54    0.16
  -6  -5   8    0.22    0.13
   5   5  -8    2.19    0.20
  -5  -5   8    2.33    0.21
   4   5  -8    1.13    0.16
  -4  -5   8    1.48    0.17
   3   5  -8    0.72    0.16
   3   5  -8    0.58    0.12
  -3  -5   8    0.89    0.14
   2   5  -8    0.41    0.11
   2   5  -8    0.12    0.11
  -2  -5   8    0.31    0.11
   1   5  -8   15.67    0.48
   1   5  -8   14.13    0.44
  -1  -5   8   14.61    0.45
   0   5  -8    1.75    0.18
   0   5  -8    2.17    0.16
  -1   5  -8    0.85    0.14
  -2   5  -8    0.34    0.12
  -3   5  -8    0.19    0.11
  -4   5  -8    0.64    0.14
  -5   5  -8    0.36    0.13
  -6   5  -8    0.18    0.14
   8   4  -8    0.73    0.19
  -8  -4   8    0.47    0.17
   7   4  -8    1.74    0.21
  -7  -4   8    1.78    0.20
   6   4  -8    0.56    0.15
  -6  -4   8    0.89    0.17
   5   4  -8    0.33    0.13
  -5  -4   8    0.43    0.13
   4   4  -8    0.60    0.14
  -4  -4   8    0.73    0.14
   3   4  -8    1.09    0.15
  -3  -4   8    0.94    0.14
   2   4  -8    3.15    0.21
   2   4  -8    2.77    0.20
  -2  -4   8    3.22    0.19
   1   4  -8    6.19    0.26
   1   4  -8    6.06    0.28
  -1  -4   8    6.11    0.25
   0   4  -8   -0.01    0.09
   0   4  -8    0.08    0.08
  -1   4  -8    3.17    0.18
  -1   4  -8    2.94    0.20
  -2   4  -8    2.71    0.18
  -3   4  -8    0.41    0.12
  -4   4  -8    0.31    0.12
  -4   4  -8    0.33    0.11
  -5   4  -8    1.81    0.20
  -5   4  -8    1.47    0.18
  -6   4  -8    1.60    0.22
  -6   4  -8    1.70    0.19
  -7   4  -8    0.25    0.18
   8   3  -8    0.30    0.15
  -8  -3   8   -0.04    0.15
   7   3  -8    0.93    0.17
  -7  -3   8    0.98    0.17
   6   3  -8    0.06    0.11
  -6  -3   8    0.06    0.12
   5   3  -8    1.64    0.18
  -5  -3   8    1.55    0.17
   4   3  -8    0.20    0.11
  -4  -3   8    0.23    0.11
   3   3  -8    6.82    0.28
  -3  -3   8    6.33    0.27
   2   3  -8    0.00    0.09
  -2  -3   8    0.05    0.10
   1   3  -8    3.24    0.18
   1   3  -8    3.72    0.22
  -1  -3   8    3.60    0.19
   0   3  -8    3.06    0.19
   0   3  -8    3.11    0.18
   0  -3   8    3.17    0.17
  -1   3  -8    7.20    0.26
  -1   3  -8    7.51    0.28
  -2   3  -8    0.72    0.10
  -2   3  -8    0.69    0.11
  -2   3  -8    0.77    0.13
  -3   3  -8    3.74    0.21
  -3   3  -8    3.49    0.20
  -4   3  -8    0.00    0.09
  -4   3  -8    0.23    0.11
  -5   3  -8    3.02    0.23
  -5   3  -8    3.13    0.21
  -6   3  -8   -0.01    0.10
  -6   3  -8    0.24    0.15
  -7   3  -8    0.39    0.18
   8   2  -8    0.22    0.15
  -8  -2   8    0.06    0.14
   7   2  -8    1.03    0.18
  -7  -2   8    0.76    0.17
   6   2  -8    0.54    0.14
  -6  -2   8    0.71    0.15
   5   2  -8    0.91    0.15
  -5  -2   8    1.03    0.16
   4   2  -8    0.40    0.11
  -4  -2   8    0.23    0.11
   3   2  -8    0.22    0.11
  -3  -2   8    0.58    0.12
   2   2  -8   16.57    0.47
  -2  -2   8   16.28    0.46
   1   2  -8    1.90    0.15
  -1  -2   8    1.93    0.14
   0   2  -8    0.69    0.12
   0   2  -8    0.89    0.11
   0  -2   8    0.93    0.11
  -1   2  -8    0.06    0.08
  -1   2  -8    0.06    0.06
   1  -2   8    0.02    0.07
  -2   2  -8    2.14    0.15
  -2   2  -8    2.47    0.13
  -2   2  -8    2.37    0.15
  -3   2  -8    3.35    0.18
  -3   2  -8    3.32    0.18
  -3   2  -8    3.13    0.19
  -4   2  -8    0.13    0.08
  -4   2  -8    0.09    0.09
  -4   2  -8    0.26    0.11
  -5   2  -8    0.45    0.11
  -5   2  -8    0.37    0.12
  -6   2  -8    1.73    0.17
  -6   2  -8    1.69    0.19
  -7   2  -8    2.19    0.24
  -8   2  -8    0.06    0.17
   8   1  -8    1.96    0.23
  -8  -1   8    1.99    0.23
   7   1  -8    2.83    0.23
  -7  -1   8    2.92    0.25
   6   1  -8    0.79    0.16
  -6  -1   8    0.81    0.16
   5   1  -8    0.13    0.11
  -5  -1   8    0.15    0.12
   4   1  -8    2.72    0.19
  -4  -1   8    2.65    0.22
   3   1  -8   13.72    0.42
  -3  -1   8   13.48    0.42
   2   1  -8   16.19    0.46
  -2  -1   8   16.39    0.46
   1   1  -8    0.26    0.08
  -1  -1   8    0.47    0.09
   0   1  -8    0.24    0.08
   0  -1   8    0.23    0.08
  -1   1  -8    6.99    0.26
  -1   1  -8    7.30    0.26
   1  -1   8    7.36    0.25
  -2   1  -8    0.18    0.09
  -2   1  -8    0.18    0.06
  -2   1  -8    0.26    0.09
   2  -1   8    0.19    0.07
  -3   1  -8    1.43    0.12
  -3   1  -8    1.51    0.14
  -3   1  -8    1.28    0.13
  -4   1  -8    3.56    0.19
  -4   1  -8    3.52    0.19
  -4   1  -8    3.68    0.18
  -5   1  -8   11.74    0.39
  -5   1  -8   11.99    0.37
   5  -1   8   11.53    0.36
  -6   1  -8    2.71    0.23
  -7   1  -8    0.28    0.15
  -8   1  -8    0.52    0.18
  -8   0   8    0.76    0.18
   7   0  -8    0.20    0.13
  -7   0   8    0.26    0.15
   6   0  -8    0.15    0.12
  -6   0   8    0.17    0.13
   5   0  -8    1.28    0.17
  -5   0   8    1.26    0.17
   4   0  -8    1.64    0.16
  -4   0   8    1.72    0.18
   3   0  -8    2.32    0.17
  -3   0   8    2.10    0.18
   2   0  -8   -0.05    0.08
  -2   0   8    0.05    0.09
   1   0  -8    2.93    0.18
  -1   0   8    2.73    0.16
   0   0  -8    9.07    0.31
   0   0   8    9.56    0.29
  -1   0  -8    4.87    0.22
  -1   0  -8    5.16    0.16
   1   0   8    5.51    0.20
  -2   0  -8   20.90    0.56
  -2   0  -8   21.61    0.55
  -2   0  -8   21.37    0.50
   2   0   8   20.82    0.52
  -3   0  -8    8.29    0.27
  -3   0  -8    9.05    0.29
  -3   0  -8    8.91    0.31
   3   0   8    8.18    0.26
  -4   0  -8   11.68    0.34
  -4   0  -8   11.57    0.37
  -4   0  -8   11.37    0.35
  -5   0  -8    4.46    0.20
  -5   0  -8    4.46    0.23
   5   0   8    4.15    0.20
  -6   0  -8    0.77    0.13
   6   0   8    0.74    0.12
  -7   0  -8    2.57    0.23
  -8   0  -8    0.69    0.16
  -9   0  -8    0.07    0.15
  -7   1   8    0.56    0.17
   6  -1  -8    2.29    0.29
  -6   1   8    1.31    0.20
   5  -1  -8    2.77    0.21
  -5   1   8    3.22    0.24
   4  -1  -8    1.22    0.15
  -4   1   8    1.20    0.16
   3  -1  -8    9.78    0.34
  -3   1   8   10.08    0.36
   2  -1  -8   13.38    0.40
  -2   1   8   13.55    0.41
   1  -1  -8    7.92    0.29
  -1   1   8    7.75    0.28
   0  -1  -8    0.45    0.09
   0   1   8    0.52    0.09
  -1  -1  -8    3.50    0.13
  -1  -1  -8    3.50    0.18
   1   1   8    3.31    0.16
  -2  -1  -8    9.49    0.32
  -2  -1  -8    9.56    0.27
   2   1   8    9.81    0.28
  -3  -1  -8    4.56    0.19
  -3  -1  -8    4.33    0.21
  -3  -1  -8    4.56    0.18
   3   1   8    4.73    0.18
  -4  -1  -8    0.00    0.07
  -4  -1  -8    0.06    0.07
  -4  -1  -8    0.09    0.08
   4   1   8    0.02    0.05
  -5  -1  -8    3.98    0.21
   5   1   8    4.02    0.21
  -6  -1  -8    3.51    0.22
   6   1   8    3.36    0.20
  -7  -1  -8    2.12    0.21
   7   1   8    1.79    0.17
  -8  -1  -8    0.20    0.13
   8   1   8    0.38    0.13
  -9  -1  -8    0.23    0.15
  -7   2   8    1.21    0.20
  -6   2   8    0.02    0.13
  -5   2   8    0.65    0.15
   4  -2  -8    1.33    0.15
  -4   2   8    1.29    0.17
   3  -2  -8    5.09    0.24
  -3   2   8    5.08    0.25
   2  -2  -8    1.37    0.14
  -2   2   8    1.61    0.17
   1  -2  -8    4.70    0.22
  -1   2   8    4.52    0.22
   0  -2  -8   12.47    0.38
   0   2   8   12.51    0.37
  -1  -2  -8   21.76    0.59
  -1  -2  -8   22.38    0.52
   1   2   8   22.83    0.55
  -2  -2  -8    1.46    0.14
  -2  -2  -8    1.55    0.10
   2   2   8    1.58    0.11
  -3  -2  -8   10.44    0.34
  -3  -2  -8   10.41    0.31
   3   2   8   10.59    0.29
  -4  -2  -8   12.83    0.39
  -4  -2  -8   12.09    0.36
   4   2   8   11.84    0.32
  -5  -2  -8    8.25    0.30
   5   2   8    7.54    0.28
  -6  -2  -8    0.51    0.12
   6   2   8    0.59    0.11
  -7  -2  -8    0.03    0.12
   7   2   8    0.10    0.11
  -8  -2  -8    1.98    0.21
   8   2   8    2.08    0.19
  -9  -2  -8    0.15    0.15
   9   2   8    0.17    0.14
 -10  -2  -8    0.07    0.17
  -6   3   8    0.63    0.17
  -5   3   8    1.87    0.22
  -4   3   8    1.78    0.19
   3  -3  -8   -0.08    0.08
  -3   3   8    0.07    0.11
   2  -3  -8    3.66    0.20
  -2   3   8    3.69    0.21
   1  -3  -8    6.92    0.27
  -1   3   8    7.80    0.29
   0  -3  -8    0.05    0.06
   0  -3  -8    0.17    0.09
   0   3   8    0.13    0.09
  -1  -3  -8    1.63    0.15
  -1  -3  -8    1.63    0.11
   1   3   8    1.60    0.14
  -2  -3  -8   22.75    0.60
  -2  -3  -8   22.61    0.55
   2   3   8   22.60    0.55
  -3  -3  -8   12.37    0.39
  -3  -3  -8   11.84    0.35
   3   3   8   12.15    0.32
  -4  -3  -8    0.38    0.10
  -4  -3  -8    0.46    0.10
   4   3   8    0.47    0.07
  -5  -3  -8    0.44    0.10
   5   3   8    0.36    0.11
  -6  -3  -8   -0.03    0.10
   6   3   8    0.02    0.10
  -7  -3  -8    0.37    0.12
   7   3   8    0.75    0.14
  -8  -3  -8    0.71    0.15
   8   3   8    0.45    0.14
  -9  -3  -8    0.12    0.14
   9   3   8   -0.12    0.12
 -10  -3  -8    0.74    0.20
  10   3   8    0.79    0.18
  -5   4   8    0.08    0.12
  -4   4   8    0.59    0.14
  -3   4   8    1.01    0.15
   2  -4  -8    2.44    0.17
  -2   4   8    2.62    0.19
   1  -4  -8    0.40    0.10
  -1   4   8    0.34    0.12
   0  -4  -8    2.20    0.15
   0  -4  -8    1.92    0.17
   0   4   8    2.17    0.17
  -1  -4  -8    1.89    0.14
  -1  -4  -8    1.96    0.16
   1   4   8    1.93    0.15
  -2  -4  -8    7.81    0.28
  -2  -4  -8    7.29    0.25
   2   4   8    7.07    0.24
  -3  -4  -8    0.07    0.08
  -3  -4  -8    0.16    0.09
   3   4   8    0.07    0.06
  -4  -4  -8    4.73    0.21
  -5  -4  -8    2.13    0.16
   5   4   8    2.13    0.17
  -6  -4  -8    1.40    0.16
   6   4   8    1.03    0.14
  -7  -4  -8    0.64    0.14
   7   4   8    0.64    0.14
  -8  -4  -8    1.27    0.18
   8   4   8    1.09    0.16
  -9  -4  -8    1.10    0.18
   9   4   8    1.14    0.19
 -10  -4  -8    1.19    0.20
  10   4   8    0.59    0.17
  -5   5   8    1.39    0.20
  -4   5   8    2.11    0.21
  -3   5   8    0.11    0.11
  -2   5   8    4.94    0.25
   1  -5  -8    3.69    0.20
   1  -5  -8    3.73    0.23
  -1   5   8    3.83    0.21
   0  -5  -8   13.72    0.42
   0  -5  -8   13.22    0.41
   0   5   8   13.97    0.41
  -1  -5  -8    0.07    0.10
  -1  -5  -8    0.14    0.09
   1   5   8    0.30    0.09
  -2  -5  -8    9.60    0.32
  -2  -5  -8   10.01    0.34
   2   5   8    9.57    0.30
  -3  -5  -8   22.65    0.60
  -3  -5  -8   22.30    0.58
   3   5   8   21.37    0.53
  -4  -5  -8    9.30    0.32
   4   5   8    8.84    0.31
  -5  -5  -8    0.07    0.10
   5   5   8   -0.09    0.08
  -6  -5  -8    0.01    0.09
   6   5   8   -0.01    0.10
  -7  -5  -8    7.54    0.32
   7   5   8    7.20    0.31
  -8  -5  -8    2.76    0.24
   8   5   8    2.59    0.23
  -9  -5  -8    0.19    0.15
   9   5   8    0.09    0.14
 -10  -5  -8    0.04    0.14
  10   5   8   -0.11    0.15
  -4   6   8   -0.02    0.12
  -3   6   8    2.93    0.25
  -2   6   8   12.68    0.44
   1  -6  -8    0.87    0.17
  -1   6   8    1.22    0.16
   0  -6  -8    6.53    0.30
   0   6   8    6.49    0.27
  -1  -6  -8    4.16    0.21
  -1  -6  -8    4.39    0.23
   1   6   8    4.08    0.20
  -2  -6  -8   10.82    0.37
  -2  -6  -8   10.86    0.36
   2   6   8   10.52    0.32
  -3  -6  -8    4.16    0.21
   3   6   8    4.11    0.22
  -4  -6  -8    0.08    0.11
   4   6   8    0.18    0.09
  -5  -6  -8    2.67    0.20
   5   6   8    2.97    0.19
  -6  -6  -8    6.59    0.29
   6   6   8    5.84    0.28
  -7  -6  -8    0.84    0.15
   7   6   8    0.38    0.13
  -8  -6  -8    0.07    0.12
   8   6   8    0.12    0.14
  -9  -6  -8    1.02    0.18
   9   6   8    1.15    0.20
 -10  -6  -8    1.32    0.20
  10   6   8    1.24    0.22
  -3   7   8    1.81    0.21
  -2   7   8    1.01    0.17
   1  -7  -8    1.16    0.20
  -1   7   8    1.24    0.17
   0  -7  -8   -0.06    0.15
   0   7   8    0.14    0.10
  -1  -7  -8    1.92    0.20
   1   7   8    2.18    0.17
  -2  -7  -8    2.27    0.21
   2   7   8    2.16    0.15
   2   7   8    1.69    0.15
  -3  -7  -8    2.55    0.20
   3   7   8    2.52    0.18
  -4  -7  -8    3.85    0.24
   4   7   8    4.19    0.23
  -5  -7  -8    2.60    0.22
   5   7   8    2.78    0.21
  -6  -7  -8    3.24    0.24
   6   7   8    3.55    0.23
  -7  -7  -8    0.74    0.15
   7   7   8    0.85    0.15
  -8  -7  -8    0.52    0.15
   8   7   8    0.71    0.17
  -9  -7  -8    1.07    0.20
   9   7   8    0.80    0.19
 -10  -7  -8    1.03    0.20
  10   7   8    1.12    0.22
  -2   8   8    0.78    0.17
   1  -8  -8    0.38    0.20
  -1   8   8    0.58    0.15
   0  -8  -8    0.46    0.19
   0   8   8    0.79    0.15
  -1  -8  -8    1.48    0.21
   1   8   8    1.42    0.16
  -2  -8  -8    1.74    0.20
  -3  -8  -8    3.30    0.24
   3   8   8    3.35    0.21
  -4  -8  -8    4.18    0.27
   4   8   8    4.29    0.23
  -5  -8  -8    0.14    0.13
   5   8   8    0.03    0.11
  -6  -8  -8    3.91    0.26
   6   8   8    3.68    0.25
  -7  -8  -8    2.14    0.22
   7   8   8    2.87    0.25
  -8  -8  -8    0.46    0.15
   8   8   8    0.31    0.16
  -9  -8  -8    0.65    0.17
   9   8   8    0.63    0.17
   1  -9  -8    0.43    0.21
  -1   9   8    0.69    0.16
   0  -9  -8    1.64    0.25
   0   9   8    1.85    0.20
  -1  -9  -8    8.05    0.41
  -2  -9  -8    6.95    0.37
  -3  -9  -8   -0.06    0.15
  -4  -9  -8    1.24    0.19
  -5  -9  -8    3.50    0.26
   5   9   8    3.54    0.24
  -6  -9  -8    2.52    0.25
   6   9   8    3.02    0.23
  -7  -9  -8    0.26    0.14
   7   9   8    0.02    0.13
  -8  -9  -8    2.31    0.25
   8   9   8    2.44    0.26
  -9  -9  -8    1.56    0.22
   9   9   8    1.16    0.20
  -1 -10  -8    0.48    0.20
  -2 -10  -8    0.38    0.19
  -3 -10  -8    0.73    0.19
  -4 -10  -8    1.99    0.25
  -5 -10  -8    0.05    0.15
  -6 -10  -8    0.43    0.17
   6  10   8    0.83    0.17
  -7 -10  -8    0.52    0.19
   7  10   8    0.34    0.17
  -8 -10  -8    1.47    0.22
   8  10   8    1.11    0.20
  -4 -11  -8    0.16    0.21
  -5 -11  -8    0.82    0.23
   4   9  -9    0.91    0.27
   3   9  -9    0.22    0.29
   6   8  -9    0.48    0.19
  -6  -8   9    0.15    0.16
   5   8  -9    0.70    0.16
  -5  -8   9    0.86    0.19
   4   8  -9    0.40    0.14
   4   8  -9    0.29    0.19
  -4  -8   9    0.32    0.17
   3   8  -9    0.06    0.16
  -3  -8   9    0.05    0.13
   2   8  -9    1.53    0.22
  -2  -8   9    0.86    0.17
   1   8  -9    0.36    0.15
   0   8  -9    0.45    0.16
  -7  -7   9    0.19    0.17
   6   7  -9   -0.01    0.13
  -6  -7   9    0.12    0.16
   5   7  -9    0.27    0.15
  -5  -7   9    0.30    0.14
   4   7  -9    0.45    0.19
   4   7  -9    0.28    0.13
  -4  -7   9    0.58    0.17
   3   7  -9    0.32    0.12
   3   7  -9    0.71    0.18
  -3  -7   9    0.65    0.15
   2   7  -9    0.24    0.16
  -2  -7   9    0.31    0.13
   1   7  -9   -0.04    0.12
   0   7  -9    1.37    0.20
  -1   7  -9    1.20    0.18
  -2   7  -9    0.20    0.15
   7   6  -9    0.07    0.13
  -7  -6   9   -0.11    0.16
   6   6  -9    0.70    0.16
  -6  -6   9    0.56    0.18
   5   6  -9    0.50    0.14
  -5  -6   9    0.23    0.16
   4   6  -9    1.00    0.16
  -4  -6   9    0.84    0.16
   3   6  -9    0.10    0.15
   3   6  -9    0.14    0.12
  -3  -6   9    0.16    0.13
   2   6  -9    5.52    0.32
   2   6  -9    5.57    0.28
  -2  -6   9    5.60    0.29
   1   6  -9    2.13    0.19
   1   6  -9    2.08    0.22
  -1  -6   9    2.29    0.20
   0   6  -9    2.14    0.21
  -1   6  -9   -0.01    0.11
  -2   6  -9    1.44    0.19
  -3   6  -9    0.92    0.17
  -4   6  -9    0.49    0.15
  -8  -5   9   -0.30    0.13
   7   5  -9    0.74    0.17
  -7  -5   9    0.85    0.19
   6   5  -9    1.40    0.20
  -6  -5   9    1.04    0.18
   5   5  -9    0.17    0.12
  -5  -5   9    0.03    0.13
   4   5  -9    0.20    0.13
  -4  -5   9    0.17    0.12
   3   5  -9    2.31    0.19
  -3  -5   9    2.44    0.21
   2   5  -9    3.92    0.24
   2   5  -9    3.41    0.24
  -2  -5   9    4.24    0.24
   1   5  -9    0.30    0.11
   1   5  -9    0.38    0.13
  -1  -5   9    0.29    0.10
   0   5  -9   -0.11    0.10
   0   5  -9    0.09    0.09
  -1   5  -9    1.55    0.19
  -2   5  -9    1.28    0.18
  -3   5  -9    0.29    0.13
  -4   5  -9    0.41    0.15
  -5   5  -9    0.42    0.15
   8   4  -9    0.22    0.20
  -8  -4   9    0.18    0.17
   7   4  -9    0.60    0.18
  -7  -4   9    0.40    0.17
   6   4  -9    0.05    0.13
  -6  -4   9   -0.15    0.14
   5   4  -9    0.83    0.16
  -5  -4   9    0.82    0.17
   4   4  -9    0.51    0.15
  -4  -4   9    0.81    0.16
   3   4  -9    0.57    0.13
  -3  -4   9    0.34    0.12
   2   4  -9    0.55    0.14
   2   4  -9    0.70    0.13
  -2  -4   9    0.43    0.13
   1   4  -9    1.83    0.16
   1   4  -9    1.46    0.17
  -1  -4   9    1.72    0.17
   0   4  -9    0.64    0.11
   0   4  -9    1.00    0.15
   0  -4   9    0.84    0.12
  -1   4  -9    1.33    0.14
  -1   4  -9    1.25    0.16
  -2   4  -9    0.11    0.10
  -3   4  -9    0.64    0.13
  -4   4  -9    0.27    0.12
  -5   4  -9    0.45    0.15
  -5   4  -9    0.21    0.13
  -6   4  -9    0.14    0.12
  -6   4  -9    0.17    0.16
   8   3  -9    0.07    0.14
  -8  -3   9    0.18    0.15
   7   3  -9    0.26    0.15
  -7  -3   9    0.26    0.16
   6   3  -9    0.25    0.14
  -6  -3   9    0.31    0.16
   5   3  -9    0.21    0.13
  -5  -3   9    0.33    0.15
   4   3  -9    0.18    0.11
  -4  -3   9    0.12    0.13
   3   3  -9   28.38    0.75
  -3  -3   9   27.90    0.74
   2   3  -9    1.09    0.14
  -2  -3   9    0.84    0.13
   1   3  -9    3.01    0.20
   1   3  -9    2.60    0.20
  -1  -3   9    2.68    0.18
   0   3  -9    0.03    0.11
   0   3  -9    0.12    0.09
   0  -3   9    0.04    0.09
  -1   3  -9    2.50    0.20
  -1   3  -9    2.63    0.17
   1  -3   9    2.42    0.17
  -2   3  -9    5.57    0.26
  -2   3  -9    5.01    0.24
  -3   3  -9    3.68    0.23
  -4   3  -9    2.13    0.19
  -4   3  -9    1.79    0.18
  -5   3  -9    0.55    0.13
  -5   3  -9    0.58    0.14
  -6   3  -9    1.46    0.19
  -6   3  -9    1.45    0.19
  -7   3  -9    0.31    0.17
   8   2  -9    0.80    0.19
  -8  -2   9    0.66    0.18
   7   2  -9    1.22    0.19
  -7  -2   9    1.10    0.20
   6   2  -9    0.15    0.13
  -6  -2   9   -0.10    0.14
   5   2  -9    0.01    0.12
  -5  -2   9   -0.04    0.13
   4   2  -9    3.57    0.23
  -4  -2   9    2.45    0.21
   3   2  -9   59.96    1.40
  -3  -2   9   60.93    1.38
   2   2  -9    0.94    0.14
  -2  -2   9    1.12    0.15
   1   2  -9    0.06    0.10
  -1  -2   9    0.01    0.08
   0   2  -9    0.37    0.10
   0   2  -9    0.42    0.12
   0  -2   9    0.33    0.10
  -1   2  -9    3.29    0.19
  -1   2  -9    3.63    0.20
   1  -2   9    3.37    0.18
  -2   2  -9    1.75    0.17
  -2   2  -9    1.79    0.16
   2  -2   9    1.66    0.14
  -3   2  -9    0.00    0.08
  -3   2  -9   -0.01    0.09
  -3   2  -9    0.05    0.08
  -4   2  -9    3.70    0.22
  -4   2  -9    3.77    0.21
  -4   2  -9    3.99    0.22
  -5   2  -9    3.44    0.23
  -5   2  -9    3.37    0.22
  -6   2  -9   -0.25    0.11
  -6   2  -9   -0.06    0.14
  -7   2  -9   -0.08    0.14
  -8   2  -9    0.02    0.19
   8   1  -9    0.28    0.16
   7   1  -9    0.42    0.16
  -7  -1   9    0.03    0.15
   6   1  -9    0.48    0.15
  -6  -1   9    0.63    0.16
   5   1  -9    2.06    0.21
  -5  -1   9    1.86    0.22
   4   1  -9    0.70    0.15
  -4  -1   9    0.69    0.16
   3   1  -9    1.43    0.17
  -3  -1   9    1.35    0.16
   2   1  -9    1.47    0.16
  -2  -1   9    1.25    0.15
   1   1  -9    4.83    0.23
  -1  -1   9    4.76    0.22
   0   1  -9    0.27    0.09
   0  -1   9    0.23    0.08
  -1   1  -9    0.19    0.08
  -1   1  -9    0.09    0.09
   1  -1   9    0.06    0.08
  -2   1  -9    1.29    0.14
  -2   1  -9    1.65    0.16
   2  -1   9    1.46    0.13
  -3   1  -9    3.92    0.20
  -3   1  -9    3.77    0.18
  -3   1  -9    4.20    0.22
   3  -1   9    3.90    0.18
  -4   1  -9    2.86    0.18
  -4   1  -9    2.77    0.18
  -4   1  -9    2.69    0.18
  -5   1  -9    1.26    0.15
  -5   1  -9    1.50    0.16
  -5   1  -9    1.50    0.16
  -6   1  -9    0.70    0.16
  -7   1  -9    1.70    0.20
  -8   1  -9   -0.06    0.15
   7   0  -9    0.28    0.15
  -7   0   9    0.51    0.16
   6   0  -9   -0.02    0.12
  -6   0   9    0.20    0.16
   5   0  -9    2.05    0.21
  -5   0   9    1.73    0.21
   4   0  -9    1.12    0.15
  -4   0   9    1.14    0.17
   3   0  -9    2.35    0.18
  -3   0   9    2.34    0.21
   2   0  -9    0.48    0.11
  -2   0   9    0.74    0.13
   1   0  -9    2.85    0.18
  -1   0   9    3.08    0.19
   0   0  -9    0.01    0.08
   0   0   9    0.03    0.09
  -1   0  -9    1.74    0.16
   1   0   9    1.74    0.13
  -2   0  -9    1.66    0.16
  -2   0  -9    1.99    0.17
   2   0   9    1.76    0.14
  -3   0  -9    0.60    0.11
  -3   0  -9    0.27    0.08
  -3   0  -9    0.26    0.09
   3   0   9    0.43    0.09
  -4   0  -9    0.78    0.12
  -4   0  -9    0.65    0.12
  -4   0  -9    0.62    0.11
   4   0   9    0.87    0.10
  -5   0  -9    2.17    0.18
  -5   0  -9    2.17    0.16
  -5   0  -9    2.38    0.19
  -6   0  -9    0.47    0.14
   6   0   9    0.88    0.13
  -7   0  -9   -0.04    0.13
  -8   0  -9    0.33    0.15
  -9   0  -9    0.16    0.18
  -7   1   9    0.32    0.16
  -6   1   9    0.66    0.17
   5  -1  -9    0.77    0.15
  -5   1   9    0.75    0.16
   4  -1  -9    7.00    0.30
  -4   1   9    6.93    0.31
   3  -1  -9    0.21    0.11
  -3   1   9    0.13    0.13
   2  -1  -9    0.04    0.09
  -2   1   9   -0.03    0.10
   1  -1  -9    4.91    0.23
  -1   1   9    4.45    0.22
   0  -1  -9    9.25    0.33
   0   1   9    9.30    0.30
  -1  -1  -9    5.91    0.25
   1   1   9    5.68    0.22
  -2  -1  -9    2.24    0.16
  -2  -1  -9    2.48    0.17
   2   1   9    2.33    0.14
  -3  -1  -9    7.39    0.29
  -3  -1  -9    7.67    0.25
   3   1   9    7.67    0.25
  -4  -1  -9   10.00    0.33
  -4  -1  -9   10.98    0.36
  -4  -1  -9   10.58    0.33
   4   1   9   10.33    0.30
  -5  -1  -9    2.54    0.17
  -5  -1  -9    2.27    0.18
  -6  -1  -9   -0.18    0.10
   6   1   9   -0.09    0.09
  -7  -1  -9    4.21    0.26
   7   1   9    4.61    0.25
  -8  -1  -9    1.24    0.20
   8   1   9    1.04    0.21
  -9  -1  -9    0.05    0.16
  -6   2   9    0.68    0.17
  -5   2   9    2.21    0.23
   4  -2  -9    2.38    0.20
  -4   2   9    1.97    0.21
   3  -2  -9    0.11    0.10
  -3   2   9    0.30    0.12
   2  -2  -9    4.02    0.23
  -2   2   9    3.79    0.22
   1  -2  -9    3.31    0.20
  -1   2   9    3.46    0.22
   0  -2  -9    3.35    0.19
   0   2   9    3.13    0.18
  -1  -2  -9    5.43    0.25
   1   2   9    5.59    0.23
  -2  -2  -9   20.82    0.57
  -2  -2  -9   20.02    0.49
   2   2   9   20.01    0.51
  -3  -2  -9   10.31    0.31
  -3  -2  -9   10.36    0.36
   3   2   9   10.96    0.31
  -4  -2  -9    0.02    0.08
  -4  -2  -9    0.03    0.08
   4   2   9    0.07    0.06
  -5  -2  -9    1.07    0.13
  -5  -2  -9    1.09    0.14
  -6  -2  -9    1.02    0.15
   6   2   9    0.87    0.14
  -7  -2  -9    2.75    0.22
   7   2   9    3.32    0.22
  -8  -2  -9    0.04    0.13
   8   2   9    0.01    0.12
  -9  -2  -9    0.31    0.17
   9   2   9    0.22    0.15
  -5   3   9    0.44    0.16
  -4   3   9    2.13    0.23
   3  -3  -9    1.88    0.17
  -3   3   9    1.91    0.21
   2  -3  -9    0.22    0.10
  -2   3   9    0.10    0.12
   1  -3  -9    6.53    0.27
  -1   3   9    5.90    0.26
   0  -3  -9    4.36    0.23
   0   3   9    4.66    0.23
  -1  -3  -9    8.54    0.32
   1   3   9    8.24    0.29
  -2  -3  -9    2.37    0.18
  -2  -3  -9    2.11    0.13
   2   3   9    2.25    0.16
  -3  -3  -9    1.25    0.12
  -3  -3  -9    1.09    0.14
   3   3   9    1.36    0.11
  -4  -3  -9    5.34    0.25
  -4  -3  -9    5.31    0.22
  -5  -3  -9    1.66    0.16
   5   3   9    1.76    0.18
  -6  -3  -9    0.05    0.10
   6   3   9   -0.04    0.10
  -7  -3  -9    1.38    0.17
   7   3   9    1.31    0.16
  -8  -3  -9    1.60    0.21
   8   3   9    1.45    0.18
  -9  -3  -9    0.81    0.19
   9   3   9    0.69    0.17
 -10  -3  -9   -0.05    0.24
  10   3   9    0.04    0.16
  -5   4   9    0.49    0.15
  -4   4   9    1.93    0.22
  -3   4   9    0.06    0.14
   2  -4  -9    2.18    0.18
  -2   4   9    2.22    0.21
   1  -4  -9    6.41    0.28
  -1   4   9    6.77    0.29
   0  -4  -9    4.77    0.24
   0   4   9    4.77    0.23
  -1  -4  -9    0.20    0.09
  -1  -4  -9    0.10    0.08
   1   4   9   -0.07    0.08
  -2  -4  -9    4.92    0.24
  -2  -4  -9    4.79    0.21
   2   4   9    4.81    0.20
  -3  -4  -9   13.81    0.43
  -3  -4  -9   12.94    0.38
   3   4   9   13.23    0.36
  -4  -4  -9    0.06    0.09
  -4  -4  -9    0.04    0.08
  -5  -4  -9    0.60    0.12
   5   4   9    0.47    0.12
  -6  -4  -9   11.40    0.39
   6   4   9   10.37    0.39
  -7  -4  -9    4.04    0.25
   7   4   9    3.41    0.23
  -8  -4  -9    0.79    0.17
   8   4   9    0.77    0.16
  -9  -4  -9    0.06    0.15
   9   4   9   -0.08    0.13
 -10  -4  -9    0.18    0.16
  10   4   9   -0.17    0.15
  -4   5   9    0.02    0.12
  -3   5   9    4.64    0.27
  -2   5   9    4.90    0.26
   1  -5  -9    3.31    0.21
  -1   5   9    2.99    0.22
   0  -5  -9    2.74    0.19
   0   5   9    2.24    0.17
  -1  -5  -9   10.58    0.35
  -1  -5  -9   11.17    0.37
   1   5   9   10.76    0.35
  -2  -5  -9    5.76    0.24
  -2  -5  -9    6.36    0.27
   2   5   9    5.80    0.23
  -3  -5  -9    0.89    0.13
  -3  -5  -9    0.71    0.12
  -4  -5  -9    0.58    0.12
   4   5   9    0.40    0.12
  -5  -5  -9    1.03    0.14
   5   5   9    0.79    0.14
  -6  -5  -9   24.20    0.64
   6   5   9   21.43    0.63
  -7  -5  -9    0.42    0.14
   7   5   9    0.07    0.12
  -8  -5  -9    0.63    0.16
   8   5   9    0.28    0.13
  -9  -5  -9    0.66    0.16
   9   5   9    0.48    0.15
 -10  -5  -9    0.19    0.15
  10   5   9    0.12    0.18
  -3   6   9    0.93    0.17
  -2   6   9    0.13    0.13
  -1   6   9    0.01    0.12
   0   6   9    5.21    0.26
  -1  -6  -9    4.87    0.25
  -1  -6  -9    4.70    0.24
   1   6   9    4.70    0.23
  -2  -6  -9    0.23    0.11
  -2  -6  -9    0.35    0.11
   2   6   9    0.29    0.09
  -3  -6  -9    4.48    0.22
  -4  -6  -9    0.23    0.10
   4   6   9    0.09    0.10
  -5  -6  -9    1.70    0.18
   5   6   9    1.54    0.18
  -6  -6  -9    0.50    0.13
   6   6   9    0.44    0.14
  -7  -6  -9    0.88    0.16
   7   6   9    1.03    0.17
  -8  -6  -9    0.98    0.17
   8   6   9    1.14    0.18
  -9  -6  -9    0.24    0.14
   9   6   9    0.10    0.15
 -10  -6  -9    0.32    0.15
  10   6   9   -0.09    0.17
  -2   7   9    1.49    0.20
  -1   7   9    0.43    0.13
   0  -7  -9    0.43    0.19
   0   7   9    0.46    0.12
  -1  -7  -9    1.55    0.19
   1   7   9    1.07    0.14
  -2  -7  -9    2.03    0.20
   2   7   9    1.63    0.16
  -3  -7  -9    0.08    0.12
   3   7   9    0.03    0.10
  -4  -7  -9    0.56    0.15
   4   7   9    0.38    0.12
  -5  -7  -9    3.10    0.24
   5   7   9    2.59    0.20
  -6  -7  -9    2.41    0.21
   6   7   9    1.91    0.20
  -7  -7  -9    1.33    0.19
   7   7   9    0.92    0.17
  -8  -7  -9    0.10    0.12
   8   7   9   -0.06    0.12
  -9  -7  -9    0.22    0.14
   9   7   9    0.16    0.16
  -2   8   9    0.54    0.19
  -1   8   9    0.30    0.13
   0  -8  -9    3.42    0.33
   0   8   9    3.56    0.24
  -1  -8  -9    6.33    0.34
   1   8   9    5.76    0.28
  -2  -8  -9    0.39    0.16
  -3  -8  -9    1.22    0.19
   3   8   9    1.16    0.18
  -4  -8  -9    1.21    0.18
   4   8   9    1.12    0.16
  -5  -8  -9   10.34    0.42
   5   8   9    9.51    0.37
  -6  -8  -9    1.90    0.22
   6   8   9    1.87    0.20
  -7  -8  -9    0.14    0.14
   7   8   9   -0.04    0.12
  -8  -8  -9    0.99    0.19
   8   8   9    0.83    0.19
  -9  -8  -9    1.32    0.21
   9   8   9    0.63    0.18
   0  -9  -9    0.81    0.24
   0   9   9    1.16    0.18
  -1  -9  -9    0.19    0.17
  -2  -9  -9    1.68    0.23
  -3  -9  -9    4.31    0.30
  -4  -9  -9    2.38    0.25
  -5  -9  -9   -0.08    0.13
   5   9   9    0.04    0.13
  -6  -9  -9    0.93    0.19
   6   9   9    0.97    0.18
  -7  -9  -9    2.58    0.25
   7   9   9    2.66    0.25
  -8  -9  -9    0.61    0.18
   8   9   9    0.70    0.19
  -1 -10  -9    1.00    0.23
  -2 -10  -9    2.85    0.28
  -3 -10  -9    0.39    0.19
  -4 -10  -9    0.07    0.15
  -5 -10  -9    2.55    0.27
  -6 -10  -9    1.81    0.25
   6  10   9    1.94    0.23
  -7 -10  -9    0.21    0.15
   7  10   9    0.08    0.14
   8  10   9    0.99    0.21
   5   8 -10    0.23    0.17
   4   8 -10    0.62    0.17
   4   8 -10    0.19    0.20
  -4  -8  10    0.44    0.21
   3   8 -10   -0.01    0.18
  -3  -8  10    0.13    0.16
   2   8 -10    0.10    0.18
  -2  -8  10    0.16    0.20
  -6  -7  10   -0.09    0.16
   5   7 -10    0.56    0.16
  -5  -7  10    0.57    0.17
   4   7 -10    0.15    0.15
  -4  -7  10    0.12    0.15
   3   7 -10    0.05    0.11
   3   7 -10    0.06    0.16
  -3  -7  10    0.00    0.12
   2   7 -10    0.17    0.17
  -2  -7  10    0.27    0.13
   1   7 -10    0.05    0.13
  -1  -7  10    0.32    0.13
   0   7 -10    0.19    0.14
  -1   7 -10    0.30    0.16
  -7  -6  10    0.28    0.16
   6   6 -10    0.36    0.17
  -6  -6  10    0.15    0.17
   5   6 -10    0.05    0.14
  -5  -6  10    0.07    0.15
   4   6 -10    0.54    0.16
  -4  -6  10    0.24    0.13
   3   6 -10    1.43    0.18
   3   6 -10    1.44    0.23
  -3  -6  10    1.70    0.21
   2   6 -10    0.12    0.14
   2   6 -10    0.19    0.12
  -2  -6  10    0.26    0.12
   1   6 -10    0.04    0.14
  -1  -6  10    0.19    0.12
   0   6 -10    0.98    0.19
   0  -6  10    1.44    0.18
  -1   6 -10    3.20    0.27
  -2   6 -10    1.96    0.23
  -3   6 -10    0.12    0.13
  -7  -5  10   -0.17    0.14
   6   5 -10    0.09    0.14
  -6  -5  10    0.14    0.16
   5   5 -10    0.51    0.16
  -5  -5  10    0.30    0.16
   4   5 -10    2.40    0.24
  -4  -5  10    1.85    0.21
   3   5 -10    0.55    0.15
  -3  -5  10    0.40    0.14
   2   5 -10    0.58    0.14
   2   5 -10    0.46    0.15
  -2  -5  10    0.50    0.14
   1   5 -10    1.56    0.20
   1   5 -10    2.13    0.19
  -1  -5  10    1.96    0.19
   0   5 -10    1.14    0.18
   0   5 -10    1.21    0.16
   0  -5  10    1.39    0.16
  -1   5 -10    0.06    0.14
  -2   5 -10    0.41    0.15
  -3   5 -10    0.13    0.13
  -4   5 -10    0.24    0.14
  -5   5 -10    0.01    0.13
   7   4 -10    1.03    0.19
  -7  -4  10    0.76    0.20
   6   4 -10    0.94    0.19
  -6  -4  10    1.02    0.21
   5   4 -10   -0.07    0.13
  -5  -4  10    0.27    0.14
   4   4 -10    0.50    0.14
  -4  -4  10    0.41    0.14
   3   4 -10    1.80    0.20
  -3  -4  10    1.42    0.18
   2   4 -10    1.65    0.18
  -2  -4  10    1.80    0.18
   1   4 -10    0.99    0.18
   1   4 -10    1.40    0.17
  -1  -4  10    1.35    0.17
   0   4 -10    0.67    0.14
   0   4 -10    0.92    0.14
   0  -4  10    0.67    0.13
  -1   4 -10    3.40    0.21
  -1   4 -10    3.33    0.23
   1  -4  10    3.59    0.22
  -2   4 -10    5.51    0.28
  -3   4 -10    1.19    0.18
  -4   4 -10    0.42    0.14
  -5   4 -10    0.43    0.15
  -6   4 -10    0.79    0.17
  -6   4 -10    0.55    0.26
   7   3 -10    0.39    0.18
  -7  -3  10    0.38    0.18
   6   3 -10    0.01    0.14
  -6  -3  10   -0.06    0.14
   5   3 -10    0.15    0.14
  -5  -3  10   -0.01    0.13
   4   3 -10    7.26    0.34
  -4  -3  10    6.79    0.33
   3   3 -10    0.83    0.15
  -3  -3  10    0.74    0.14
   2   3 -10    0.36    0.13
  -2  -3  10    0.33    0.12
   1   3 -10    0.46    0.12
  -1  -3  10    0.37    0.12
   0   3 -10    4.22    0.26
   0   3 -10    3.74    0.23
   0  -3  10    4.25    0.23
  -1   3 -10    4.48    0.26
  -1   3 -10    4.81    0.24
   1  -3  10    4.65    0.23
  -2   3 -10    0.49    0.13
  -2   3 -10    0.61    0.12
   2  -3  10    0.54    0.11
  -3   3 -10    2.53    0.22
  -4   3 -10   -0.01    0.11
  -5   3 -10    1.04    0.17
  -6   3 -10   -0.24    0.13
  -6   3 -10   -0.07    0.19
  -7   3 -10   -0.06    0.16
   7   2 -10    0.29    0.16
  -7  -2  10   -0.02    0.15
   6   2 -10    0.53    0.17
  -6  -2  10    0.87    0.20
   5   2 -10    0.63    0.15
  -5  -2  10    0.67    0.16
   4   2 -10    1.11    0.17
  -4  -2  10    1.16    0.17
   3   2 -10    0.38    0.12
  -3  -2  10    0.24    0.13
   2   2 -10    1.69    0.19
  -2  -2  10    1.38    0.16
   1   2 -10    4.70    0.25
  -1  -2  10    4.45    0.22
   0   2 -10    1.98    0.18
   0   2 -10    1.87    0.20
   0  -2  10    2.20    0.18
  -1   2 -10    0.17    0.11
  -1   2 -10    0.15    0.09
   1  -2  10    0.22    0.10
  -2   2 -10    3.20    0.22
  -2   2 -10    2.66    0.19
   2  -2  10    3.05    0.19
  -3   2 -10    0.62    0.12
  -3   2 -10    0.39    0.12
  -4   2 -10    0.23    0.12
  -4   2 -10    0.19    0.11
  -5   2 -10    0.12    0.12
  -5   2 -10    0.12    0.12
  -6   2 -10    0.63    0.16
  -7   2 -10    0.39    0.16
   7   1 -10    0.84    0.19
  -7  -1  10    0.62    0.20
   6   1 -10    0.21    0.15
  -6  -1  10    0.10    0.17
   5   1 -10   -0.09    0.11
  -5  -1  10   -0.16    0.13
   4   1 -10    1.09    0.17
  -4  -1  10    0.96    0.17
   3   1 -10    0.03    0.10
  -3  -1  10    0.35    0.13
   2   1 -10    0.11    0.13
  -2  -1  10    0.20    0.11
   1   1 -10    0.01    0.09
  -1  -1  10    0.01    0.10
   0   1 -10    2.46    0.18
   0  -1  10    2.10    0.16
  -1   1 -10    5.69    0.27
  -1   1 -10    6.57    0.28
   1  -1  10    5.77    0.24
  -2   1 -10    0.28    0.11
  -2   1 -10    0.77    0.12
   2  -1  10    0.46    0.10
  -3   1 -10    0.04    0.09
  -3   1 -10    0.03    0.10
   3  -1  10    0.05    0.08
  -4   1 -10    2.07    0.17
  -4   1 -10    2.60    0.21
  -5   1 -10    0.35    0.12
  -5   1 -10    0.31    0.11
  -5   1 -10    0.29    0.12
  -6   1 -10    0.18    0.14
  -7   1 -10   -0.03    0.14
  -8   1 -10    0.28    0.18
   7   0 -10    0.03    0.22
   6   0 -10    0.80    0.16
  -6   0  10    0.59    0.18
   5   0 -10    4.74    0.29
  -5   0  10    4.05    0.27
   4   0 -10    0.39    0.13
  -4   0  10    0.20    0.13
   3   0 -10    0.27    0.13
  -3   0  10    0.16    0.12
   2   0 -10    3.09    0.21
  -2   0  10    3.72    0.22
   1   0 -10    4.96    0.26
  -1   0  10    5.26    0.24
   0   0 -10    5.56    0.26
   0   0  10    5.90    0.24
  -1   0 -10    1.84    0.17
   1   0  10    1.90    0.16
  -2   0 -10    6.67    0.28
   2   0  10    6.07    0.25
  -3   0 -10    0.68    0.12
  -3   0 -10    0.75    0.13
   3   0  10    0.87    0.11
  -4   0 -10    3.22    0.20
  -4   0 -10    3.50    0.19
  -4   0 -10    3.56    0.22
   4   0  10    3.24    0.17
  -5   0 -10    0.20    0.10
  -5   0 -10    0.32    0.11
   5   0  10    0.33    0.10
  -6   0 -10    1.31    0.18
   6   0  10    1.25    0.15
  -7   0 -10    0.55    0.16
  -8   0 -10    0.71    0.18
  -6   1  10    0.71    0.19
   5  -1 -10    1.59    0.19
  -5   1  10    1.75    0.23
   4  -1 -10    0.40    0.14
  -4   1  10    0.16    0.15
   3  -1 -10    1.03    0.16
  -3   1  10    0.66    0.15
   2  -1 -10    1.09    0.15
  -2   1  10    0.96    0.15
   1  -1 -10    0.31    0.11
  -1   1  10    0.30    0.11
   0  -1 -10    0.57    0.13
   0   1  10    0.58    0.11
  -1  -1 -10    1.45    0.16
   1   1  10    1.40    0.14
  -2  -1 -10    6.92    0.30
   2   1  10    7.78    0.26
  -3  -1 -10    3.54    0.21
   3   1  10    3.57    0.17
  -4  -1 -10    0.42    0.10
  -4  -1 -10    0.38    0.11
  -4  -1 -10    0.69    0.12
   4   1  10    0.48    0.09
  -5  -1 -10    1.48    0.16
  -5  -1 -10    1.31    0.15
  -6  -1 -10    4.11    0.25
   6   1  10    4.78    0.26
  -7  -1 -10    0.18    0.12
   7   1  10    0.23    0.13
  -8  -1 -10   -0.18    0.12
  -9  -1 -10    0.46    0.16
  -5   2  10    0.48    0.16
   4  -2 -10    1.37    0.17
  -4   2  10    1.45    0.20
   3  -2 -10    3.79    0.23
  -3   2  10    3.62    0.25
   2  -2 -10   -0.01    0.11
  -2   2  10    0.10    0.12
   1  -2 -10   10.75    0.37
  -1   2  10    9.84    0.36
   0  -2 -10    5.77    0.28
   0   2  10    5.33    0.24
  -1  -2 -10   15.10    0.48
   1   2  10   15.27    0.43
  -2  -2 -10    2.44    0.19
   2   2  10    2.77    0.16
  -3  -2 -10    0.46    0.11
   3   2  10    0.59    0.10
  -4  -2 -10    3.72    0.22
  -4  -2 -10    3.67    0.19
   4   2  10    3.25    0.18
  -5  -2 -10    4.22    0.25
  -5  -2 -10    3.93    0.22
  -6  -2 -10   -0.08    0.10
   6   2  10    0.04    0.12
  -7  -2 -10    1.49    0.18
   7   2  10    1.85    0.20
  -8  -2 -10    0.43    0.15
   8   2  10    0.53    0.16
  -9  -2 -10    0.11    0.14
   9   2  10    0.09    0.17
  -5   3  10    1.15    0.21
  -4   3  10    0.23    0.15
   3  -3 -10    0.57    0.14
  -3   3  10    0.52    0.15
   2  -3 -10    2.99    0.21
  -2   3  10    2.66    0.21
   1  -3 -10    6.39    0.30
  -1   3  10    6.56    0.30
   0  -3 -10    0.66    0.14
   0   3  10    0.34    0.11
  -1  -3 -10    0.85    0.14
   1   3  10    1.07    0.14
  -2  -3 -10    2.56    0.20
   2   3  10    2.55    0.17
  -3  -3 -10    5.27    0.24
  -3  -3 -10    5.37    0.26
   3   3  10    5.08    0.20
  -4  -3 -10    0.02    0.09
  -4  -3 -10    0.03    0.08
  -5  -3 -10    3.64    0.21
  -5  -3 -10    3.84    0.24
  -6  -3 -10    3.31    0.22
   6   3  10    3.02    0.21
  -7  -3 -10    3.04    0.24
   7   3  10    2.73    0.22
  -8  -3 -10   -0.12    0.13
   8   3  10   -0.10    0.13
  -9  -3 -10    0.09    0.14
   9   3  10    0.15    0.15
  10   3  10   -0.25    0.16
  -4   4  10   -0.09    0.14
  -3   4  10    6.29    0.33
   2  -4 -10    2.78    0.22
  -2   4  10    2.89    0.25
   1  -4 -10   -0.06    0.10
  -1   4  10    0.01    0.11
   0  -4 -10    1.30    0.16
   0   4  10    1.18    0.15
  -1  -4 -10    4.62    0.24
   1   4  10    4.79    0.23
  -2  -4 -10    0.19    0.11
   2   4  10    0.34    0.10
  -3  -4 -10    0.11    0.08
  -3  -4 -10    0.08    0.09
  -4  -4 -10   -0.04    0.08
  -4  -4 -10    0.01    0.09
  -5  -4 -10   18.73    0.53
   5   4  10   18.81    0.55
  -6  -4 -10    0.22    0.12
   6   4  10    0.05    0.11
  -7  -4 -10    0.06    0.11
   7   4  10   -0.03    0.12
  -8  -4 -10    0.51    0.15
   8   4  10    0.26    0.14
  -9  -4 -10    0.17    0.14
   9   4  10    0.34    0.16
  10   4  10    0.19    0.18
  -4   5  10    0.40    0.17
  -3   5  10    0.03    0.14
  -2   5  10    1.03    0.18
   1  -5 -10    1.01    0.16
  -1   5  10    0.77    0.15
   0  -5 -10    4.75    0.25
   0   5  10    4.37    0.24
  -1  -5 -10    1.66    0.18
   1   5  10    1.41    0.16
  -2  -5 -10    3.46    0.23
   2   5  10    2.87    0.19
  -3  -5 -10    4.04    0.22
  -3  -5 -10    4.58    0.26
  -4  -5 -10    0.04    0.09
  -4  -5 -10    0.10    0.10
  -5  -5 -10    4.03    0.23
   5   5  10    4.98    0.27
  -6  -5 -10    2.46    0.21
   6   5  10    2.23    0.21
  -7  -5 -10    2.58    0.21
   7   5  10    2.37    0.22
  -8  -5 -10    0.31    0.14
   8   5  10    0.04    0.14
  -9  -5 -10    0.23    0.15
   9   5  10    0.07    0.14
  10   5  10   -0.19    0.17
  -3   6  10    3.35    0.29
  -2   6  10    4.61    0.27
  -1   6  10    0.16    0.13
   0   6  10    0.95    0.16
  -1  -6 -10    3.81    0.23
   1   6  10    3.08    0.21
  -2  -6 -10    4.01    0.23
  -2  -6 -10    3.97    0.26
  -3  -6 -10    0.49    0.12
  -3  -6 -10    0.30    0.11
  -4  -6 -10    5.50    0.27
   4   6  10    5.83    0.28
  -5  -6 -10    6.34    0.29
   5   6  10    5.83    0.28
  -6  -6 -10    2.05    0.20
   6   6  10    2.19    0.21
  -7  -6 -10    0.67    0.14
   7   6  10    0.60    0.16
  -8  -6 -10    0.39    0.13
   8   6  10    0.11    0.15
  -9  -6 -10    0.29    0.16
   9   6  10    0.16    0.17
  -2   7  10    0.09    0.13
  -1   7  10    0.51    0.14
   0   7  10    0.86    0.15
   1   7  10    0.50    0.13
  -2  -7 -10    0.62    0.14
  -2  -7 -10    0.51    0.13
  -3  -7 -10    1.51    0.18
   3   7  10    1.76    0.18
  -4  -7 -10    8.64    0.35
   4   7  10    8.90    0.35
  -5  -7 -10    4.60    0.27
   5   7  10    4.45    0.27
  -6  -7 -10    0.20    0.13
   6   7  10    0.08    0.12
  -7  -7 -10    0.34    0.13
   7   7  10    0.18    0.14
  -8  -7 -10    0.90    0.18
   8   7  10    0.57    0.17
  -9  -7 -10    0.15    0.14
   9   7  10    0.12    0.17
  -1   8  10    0.81    0.16
   0   8  10    0.15    0.13
  -2  -8 -10    4.40    0.29
  -3  -8 -10    3.00    0.25
   3   8  10    2.80    0.30
  -4  -8 -10    3.51    0.26
   4   8  10    3.09    0.23
  -5  -8 -10    0.25    0.14
   5   8  10    0.22    0.12
  -6  -8 -10    1.44    0.19
   6   8  10    1.07    0.17
  -7  -8 -10    0.94    0.18
   7   8  10    0.59    0.17
  -8  -8 -10    0.43    0.16
   8   8  10   -0.06    0.16
  -9  -8 -10    0.05    0.16
  -2  -9 -10    1.17    0.19
  -3  -9 -10    0.63    0.18
  -4  -9 -10    0.14    0.15
  -5  -9 -10    1.42    0.22
   5   9  10    1.90    0.22
  -6  -9 -10    1.63    0.23
   6   9  10    1.43    0.21
  -7  -9 -10    0.11    0.13
   7   9  10   -0.15    0.13
  -8  -9 -10    1.08    0.19
   8   9  10    1.47    0.24
  -2 -10 -10    1.04    0.21
  -3 -10 -10    0.92    0.22
  -4 -10 -10    2.89    0.28
  -5 -10 -10    0.53    0.17
  -6 -10 -10    0.13    0.16
   6  10  10    0.04    0.15
  -7 -10 -10    1.58    0.36
   7  10  10    1.71    0.23
   4   7 -11    0.36    0.16
  -4  -7  11    0.29    0.25
   3   7 -11    0.46    0.14
   3   7 -11    0.40    0.19
  -3  -7  11    0.30    0.15
   2   7 -11   -0.18    0.14
  -2  -7  11    0.29    0.14
   1   7 -11    0.06    0.15
  -1  -7  11    0.21    0.13
   5   6 -11    0.38    0.16
  -5  -6  11    0.12    0.15
   4   6 -11    0.73    0.17
  -4  -6  11    0.55    0.17
   3   6 -11    0.01    0.13
  -3  -6  11    0.10    0.14
   2   6 -11    2.57    0.24
   2   6 -11    2.21    0.26
  -2  -6  11    2.22    0.24
   1   6 -11    0.42    0.18
  -1  -6  11    0.32    0.14
   0   6 -11    0.49    0.17
   0  -6  11    0.48    0.14
  -1   6 -11    0.34    0.16
   1  -6  11    0.40    0.13
  -2   6 -11    0.00    0.14
  -6  -5  11    0.47    0.19
   5   5 -11    0.48    0.16
  -5  -5  11    0.39    0.18
   4   5 -11    0.23    0.15
  -4  -5  11   -0.03    0.13
   3   5 -11    0.62    0.17
  -3  -5  11    0.64    0.16
   2   5 -11    3.66    0.26
   2   5 -11    2.89    0.27
  -2  -5  11    2.95    0.23
   1   5 -11    0.21    0.12
   1   5 -11   -0.02    0.15
  -1  -5  11    0.22    0.13
   0   5 -11    0.17    0.15
   0   5 -11    0.46    0.13
   0  -5  11    0.35    0.14
  -1   5 -11    0.88    0.18
   1  -5  11    0.94    0.15
  -2   5 -11   -0.20    0.14
  -3   5 -11    0.19    0.14
  -4   5 -11    0.35    0.15
   6   4 -11    0.03    0.15
  -6  -4  11   -0.16    0.15
   5   4 -11    0.30    0.15
  -5  -4  11    0.11    0.14
   4   4 -11    1.37    0.19
  -4  -4  11    1.22    0.19
   3   4 -11    0.22    0.14
  -3  -4  11    0.32    0.15
   2   4 -11    0.02    0.13
  -2  -4  11    0.04    0.11
   1   4 -11    0.50    0.16
   1   4 -11    0.65    0.15
  -1  -4  11    0.45    0.13
   0   4 -11    2.44    0.25
   0   4 -11    2.91    0.22
   0  -4  11    2.74    0.20
  -1   4 -11    0.47    0.16
  -1   4 -11    0.30    0.12
   1  -4  11    0.37    0.12
  -2   4 -11    1.51    0.20
   2  -4  11    1.77    0.18
  -3   4 -11    0.10    0.14
  -4   4 -11    1.70    0.21
  -5   4 -11    0.26    0.16
   6   3 -11    0.47    0.18
  -6  -3  11    0.67    0.20
   5   3 -11    0.07    0.14
  -5  -3  11   -0.15    0.13
   4   3 -11    0.27    0.14
  -4  -3  11   -0.05    0.14
   3   3 -11    3.94    0.25
  -3  -3  11    3.76    0.26
   2   3 -11    1.86    0.20
  -2  -3  11    1.83    0.19
   1   3 -11    1.00    0.16
  -1  -3  11    1.16    0.16
   0   3 -11    0.11    0.14
   0   3 -11    0.28    0.11
   0  -3  11    0.18    0.12
  -1   3 -11    0.92    0.17
  -1   3 -11    0.89    0.14
   1  -3  11    0.91    0.14
  -2   3 -11    2.40    0.21
  -2   3 -11    2.11    0.21
   2  -3  11    1.98    0.18
  -3   3 -11    0.11    0.12
   3  -3  11    0.15    0.10
  -4   3 -11    0.06    0.14
  -5   3 -11    0.43    0.16
   6   2 -11    0.17    0.16
  -6  -2  11    0.02    0.15
   5   2 -11    0.27    0.14
  -5  -2  11    0.01    0.16
   4   2 -11    1.73    0.20
  -4  -2  11    1.49    0.20
   3   2 -11    3.61    0.25
  -3  -2  11    3.79    0.26
   2   2 -11   -0.16    0.10
  -2  -2  11    0.12    0.11
   1   2 -11    0.28    0.12
  -1  -2  11    0.24    0.11
   0   2 -11    2.44    0.20
   0  -2  11    2.22    0.18
  -1   2 -11    0.10    0.12
  -1   2 -11    0.12    0.10
   1  -2  11    0.31    0.12
  -2   2 -11    0.30    0.14
  -2   2 -11    0.45    0.12
   2  -2  11    0.52    0.11
  -3   2 -11    1.63    0.19
  -3   2 -11    1.09    0.16
   3  -2  11    1.28    0.16
  -4   2 -11    3.04    0.24
  -5   2 -11    0.71    0.16
   6   1 -11    0.41    0.16
  -6  -1  11    0.05    0.18
   5   1 -11    0.94    0.18
  -5  -1  11    1.15    0.22
   4   1 -11    1.89    0.21
  -4  -1  11    1.70    0.23
   3   1 -11    0.07    0.12
  -3  -1  11    0.12    0.13
   2   1 -11    2.27    0.22
  -2  -1  11    2.10    0.20
   1   1 -11    4.76    0.27
  -1  -1  11    4.98    0.24
   0   1 -11    3.53    0.23
   0  -1  11    3.74    0.22
  -1   1 -11    3.13    0.22
   1  -1  11    2.67    0.18
  -2   1 -11    0.53    0.13
  -2   1 -11    0.67    0.15
   2  -1  11    0.56    0.11
  -3   1 -11    3.81    0.24
  -3   1 -11    3.27    0.22
   3  -1  11    4.22    0.22
  -4   1 -11    3.49    0.23
  -4   1 -11    3.48    0.24
   4  -1  11    3.67    0.20
  -5   1 -11    0.00    0.09
   5  -1  11    0.04    0.09
  -7   1 -11    0.34    0.16
  -8   1 -11   -0.29    0.16
   6   0 -11    0.65    0.17
  -6   0  11    0.46    0.19
   5   0 -11    0.19    0.13
  -5   0  11    0.20    0.15
   4   0 -11    1.29    0.19
  -4   0  11    1.04    0.19
   3   0 -11    1.36    0.19
  -3   0  11    1.29    0.19
   2   0 -11    0.57    0.14
  -2   0  11    0.46    0.14
   1   0 -11    0.40    0.13
  -1   0  11    0.43    0.12
   0   0 -11    1.05    0.15
   0   0  11    1.21    0.15
  -1   0 -11    4.79    0.26
   1   0  11    4.73    0.23
  -2   0 -11    1.31    0.16
   2   0  11    0.87    0.12
  -3   0 -11   -0.04    0.11
  -3   0 -11    0.04    0.10
   3   0  11   -0.13    0.08
  -4   0 -11    0.48    0.12
  -4   0 -11    0.27    0.12
   4   0  11    0.40    0.10
  -5   0 -11    0.93    0.15
  -6   0 -11    0.72    0.15
   6   0  11    1.16    0.16
  -7   0 -11    0.04    0.13
  -8   0 -11   -0.10    0.15
   5  -1 -11    0.16    0.15
  -5   1  11    0.39    0.17
   4  -1 -11    3.13    0.25
  -4   1  11    2.12    0.23
   3  -1 -11    1.48    0.19
  -3   1  11    1.05    0.18
   2  -1 -11    0.51    0.15
  -2   1  11    0.72    0.15
   1  -1 -11    2.90    0.21
  -1   1  11    2.78    0.22
   0  -1 -11    5.50    0.28
   0   1  11    5.20    0.24
  -1  -1 -11    0.22    0.11
   1   1  11    0.23    0.11
  -2  -1 -11    0.02    0.11
   2   1  11    0.11    0.09
  -3  -1 -11    0.46    0.13
   3   1  11    0.49    0.10
  -4  -1 -11    2.37    0.21
   4   1  11    2.40    0.16
  -5  -1 -11    0.90    0.14
  -6  -1 -11    0.18    0.13
   6   1  11    0.28    0.11
  -7  -1 -11    1.06    0.17
   7   1  11    1.31    0.18
  -8  -1 -11    0.14    0.15
  -5   2  11    0.22    0.16
   4  -2 -11    0.06    0.13
  -4   2  11   -0.01    0.14
   3  -2 -11    0.19    0.14
  -3   2  11    0.39    0.15
   2  -2 -11    2.02    0.20
  -2   2  11    2.14    0.23
   1  -2 -11    0.21    0.11
  -1   2  11    0.34    0.14
   0  -2 -11    3.47    0.23
   0   2  11    3.73    0.23
  -1  -2 -11    3.78    0.24
   1   2  11    4.17    0.22
  -2  -2 -11    5.09    0.27
   2   2  11    5.23    0.23
  -3  -2 -11    2.17    0.21
   3   2  11    1.80    0.15
  -4  -2 -11    0.36    0.13
  -5  -2 -11   -0.06    0.16
  -5  -2 -11    0.02    0.10
  -6  -2 -11    0.95    0.16
   6   2  11    1.17    0.17
  -7  -2 -11    1.47    0.19
   7   2  11    1.78    0.20
  -8  -2 -11   -0.15    0.13
   8   2  11    0.11    0.13
  -9  -2 -11    0.47    0.18
  -4   3  11    0.49    0.18
   3  -3 -11    1.51    0.19
  -3   3  11    1.84    0.22
   2  -3 -11    0.27    0.13
  -2   3  11    0.04    0.13
   1  -3 -11    0.16    0.11
  -1   3  11    0.17    0.14
   0  -3 -11    0.83    0.15
   0   3  11    0.43    0.14
  -1  -3 -11    7.42    0.33
   1   3  11    8.05    0.31
  -2  -3 -11    1.67    0.18
   2   3  11    1.62    0.15
  -3  -3 -11    0.69    0.14
   3   3  11    0.62    0.11
  -4  -3 -11    1.36    0.18
  -5  -3 -11    0.71    0.15
  -5  -3 -11    0.55    0.12
  -6  -3 -11    0.10    0.10
   6   3  11    0.03    0.11
  -7  -3 -11    0.36    0.13
   7   3  11    0.53    0.14
  -8  -3 -11    0.89    0.18
   8   3  11    0.63    0.16
  -9  -3 -11    0.73    0.18
   9   3  11    0.69    0.17
  -4   4  11    0.06    0.15
  -3   4  11    0.77    0.17
   2  -4 -11    1.12    0.17
  -2   4  11    1.22    0.18
   1  -4 -11    3.54    0.25
  -1   4  11    3.53    0.25
   0  -4 -11    0.41    0.13
   0   4  11    0.57    0.14
  -1  -4 -11    1.18    0.17
   1   4  11    0.76    0.14
  -2  -4 -11    7.20    0.33
   2   4  11    6.72    0.27
  -3  -4 -11    3.98    0.25
  -4  -4 -11   -0.05    0.10
  -5  -4 -11    0.15    0.10
  -5  -4 -11   -0.06    0.10
  -6  -4 -11    5.79    0.28
   6   4  11    6.06    0.31
  -7  -4 -11    2.08    0.21
   7   4  11    2.05    0.22
  -8  -4 -11    0.08    0.12
   8   4  11    0.33    0.16
  -9  -4 -11    0.03    0.14
   9   4  11   -0.15    0.13
  -3   5  11    4.91    0.30
  -2   5  11    0.01    0.15
   1  -5 -11    6.97    0.33
  -1   5  11    7.68    0.34
   0  -5 -11    0.29    0.13
   0   5  11    0.52    0.13
  -1  -5 -11    6.16    0.30
   1   5  11    5.57    0.27
  -2  -5 -11    6.83    0.32
   2   5  11    6.50    0.28
  -3  -5 -11    0.81    0.15
  -4  -5 -11    1.56    0.19
  -5  -5 -11    3.06    0.21
   5   5  11    3.57    0.23
  -6  -5 -11    2.21    0.20
   6   5  11    2.24    0.22
  -7  -5 -11    0.17    0.12
   7   5  11    0.00    0.12
  -8  -5 -11    0.39    0.14
   8   5  11    0.19    0.14
  -9  -5 -11    0.58    0.17
   9   5  11    0.34    0.16
  -2   6  11    0.48    0.16
  -1   6  11   -0.13    0.12
   0   6  11    2.58    0.22
  -1  -6 -11    2.34    0.22
   1   6  11    2.34    0.20
  -2  -6 -11    0.73    0.15
  -3  -6 -11    2.29    0.22
  -4  -6 -11    2.85    0.21
   4   6  11    2.81    0.21
  -5  -6 -11    2.60    0.21
   5   6  11    2.83    0.24
  -6  -6 -11    0.90    0.15
   6   6  11    0.82    0.16
  -7  -6 -11    0.68    0.14
   7   6  11    0.88    0.18
  -8  -6 -11    1.05    0.18
   8   6  11    1.14    0.20
  -9  -6 -11    1.08    0.19
   9   6  11    0.96    0.21
  -1   7  11    0.61    0.16
   0   7  11    0.41    0.14
  -2  -7 -11    2.61    0.23
   3   7  11    1.82    0.18
  -4  -7 -11    0.13    0.12
   4   7  11    0.21    0.12
  -5  -7 -11    1.39    0.18
   5   7  11    1.69    0.20
  -6  -7 -11    1.64    0.19
   6   7  11    1.21    0.18
  -7  -7 -11    0.56    0.15
   7   7  11    0.36    0.15
  -8  -7 -11    0.06    0.12
   8   7  11    0.00    0.14
  -9  -7 -11   -0.10    0.14
   0   8  11    2.82    0.25
  -4  -8 -11    0.78    0.17
   4   8  11    1.23    0.18
  -5  -8 -11    1.51    0.20
   5   8  11    1.63    0.20
  -6  -8 -11    0.42    0.15
   6   8  11    0.18    0.13
  -7  -8 -11    0.85    0.18
   7   8  11    0.34    0.16
  -8  -8 -11    0.54    0.17
   8   8  11    0.40    0.19
  -4  -9 -11    0.71    0.18
  -5  -9 -11    0.01    0.14
   5   9  11   -0.28    0.12
  -6  -9 -11    0.12    0.13
   6   9  11    0.02    0.15
  -7  -9 -11    2.48    0.25
   7   9  11    2.83    0.28
  -4 -10 -11    0.29    0.17
  -5 -10 -11    0.73    0.20
   6  10  11    0.11    0.16
   3   6 -12    1.53    0.22
   2   6 -12    0.37    0.15
   2   6 -12    0.05    0.16
  -2  -6  12    0.16    0.14
   1   6 -12    0.30    0.17
  -1  -6  12   -0.01    0.12
   0   6 -12   -0.02    0.18
   0  -6  12    0.16    0.20
   4   5 -12    0.45    0.17
  -4  -5  12   -0.02    0.14
   3   5 -12    0.13    0.13
  -3  -5  12   -0.30    0.11
   2   5 -12    0.31    0.14
  -2  -5  12   -0.21    0.12
   1   5 -12   -0.05    0.12
   1   5 -12   -0.15    0.14
  -1  -5  12    0.01    0.12
   0   5 -12    0.20    0.18
   0   5 -12    0.32    0.21
   0  -5  12    0.53    0.15
  -1   5 -12    0.11    0.16
   1  -5  12   -0.03    0.12
  -2   5 -12    0.17    0.15
   2  -5  12    0.18    0.12
  -3   5 -12    0.30    0.20
   5   4 -12    0.20    0.17
  -5  -4  12    0.01    0.15
   4   4 -12    2.37    0.24
  -4  -4  12    2.42    0.25
   3   4 -12    0.21    0.15
  -3  -4  12   -0.05    0.14
   2   4 -12    0.87    0.18
  -2  -4  12    0.55    0.14
   1   4 -12    0.34    0.13
  -1  -4  12    0.38    0.13
   0   4 -12   -0.02    0.12
   0   4 -12    0.00    0.14
   0  -4  12    0.03    0.11
  -1   4 -12    1.00    0.17
  -1   4 -12    1.13    0.21
   1  -4  12    1.06    0.17
  -2   4 -12    1.54    0.21
   2  -4  12    1.98    0.21
  -3   4 -12    0.37    0.17
   3  -4  12    0.29    0.13
  -4   4 -12    0.06    0.16
   5   3 -12    0.59    0.18
  -5  -3  12    0.48    0.20
   4   3 -12   12.58    0.49
  -4  -3  12   12.19    0.47
   3   3 -12    0.24    0.15
  -3  -3  12   -0.05    0.12
   2   3 -12    0.37    0.15
  -2  -3  12    0.18    0.12
   1   3 -12    0.02    0.13
  -1  -3  12    0.03    0.12
   0   3 -12    1.77    0.20
   0  -3  12    1.97    0.20
  -1   3 -12    0.78    0.18
  -1   3 -12    1.10    0.16
   1  -3  12    1.17    0.17
  -2   3 -12    0.03    0.15
  -2   3 -12    0.11    0.11
   2  -3  12    0.00    0.11
  -3   3 -12    2.69    0.25
   3  -3  12    3.22    0.23
  -4   3 -12    1.46    0.20
   4  -3  12    1.63    0.18
  -5   3 -12   -0.06    0.13
   5   2 -12    0.76    0.18
  -5  -2  12    0.31    0.19
   4   2 -12    3.85    0.29
  -4  -2  12    4.12    0.30
   3   2 -12    0.12    0.15
  -3  -2  12    0.10    0.14
   2   2 -12    1.08    0.18
  -2  -2  12    0.81    0.16
   1   2 -12    0.49    0.14
  -1  -2  12    0.39    0.14
   0   2 -12    0.63    0.14
   0  -2  12    0.51    0.13
  -1   2 -12    0.30    0.13
   1  -2  12    0.14    0.12
  -2   2 -12    0.97    0.18
  -2   2 -12    0.99    0.17
   2  -2  12    0.87    0.16
  -3   2 -12    1.48    0.18
  -3   2 -12    1.47    0.21
   3  -2  12    1.91    0.19
  -4   2 -12    1.35    0.19
   4  -2  12    0.97    0.15
   5  -2  12    0.28    0.13
   5   1 -12    0.16    0.16
  -5  -1  12    0.04    0.16
   4   1 -12    0.42    0.16
  -4  -1  12    0.07    0.17
   3   1 -12    0.04    0.12
  -3  -1  12    0.09    0.15
   2   1 -12    0.39    0.16
  -2  -1  12    0.61    0.15
   1   1 -12    0.54    0.15
  -1  -1  12    0.32    0.13
   0   1 -12    1.53    0.18
   0  -1  12    1.22    0.16
  -1   1 -12    2.00    0.22
   1  -1  12    2.14    0.19
  -2   1 -12    0.62    0.14
   2  -1  12    0.39    0.12
  -3   1 -12    0.02    0.14
  -3   1 -12    0.15    0.11
   3  -1  12    0.18    0.12
  -4   1 -12    0.54    0.16
  -4   1 -12    0.35    0.14
   4  -1  12    0.44    0.12
  -5   1 -12    0.44    0.16
   5   0 -12    2.40    0.26
  -5   0  12    2.25    0.26
   4   0 -12    0.36    0.16
  -4   0  12    0.20    0.17
   3   0 -12    0.09    0.15
  -3   0  12   -0.09    0.13
   2   0 -12    0.51    0.16
  -2   0  12    0.70    0.17
   1   0 -12    1.71    0.20
  -1   0  12    1.94    0.19
   0   0 -12    1.60    0.19
   0   0  12    1.51    0.17
  -1   0 -12    0.39    0.14
   1   0  12    0.38    0.12
  -2   0 -12    1.84    0.20
   2   0  12    1.56    0.16
  -3   0 -12    2.29    0.21
   3   0  12    2.12    0.18
  -4   0 -12    0.22    0.16
  -4   0 -12    0.60    0.15
   4   0  12    0.43    0.12
  -5   0 -12    0.02    0.10
   6   0  12    1.32    0.18
   5  -1 -12    0.88    0.19
   4  -1 -12    0.32    0.15
  -4   1  12    0.05    0.15
   3  -1 -12    0.79    0.17
  -3   1  12    0.54    0.16
   2  -1 -12    0.83    0.17
  -2   1  12    0.60    0.16
   1  -1 -12    0.27    0.13
  -1   1  12    0.23    0.13
   0  -1 -12    2.18    0.22
   0   1  12    2.32    0.21
  -1  -1 -12    6.20    0.32
   1   1  12    6.29    0.27
  -2  -1 -12    3.29    0.24
   2   1  12    3.22    0.19
  -3  -1 -12    0.28    0.13
   3   1  12    0.28    0.10
  -4  -1 -12   -0.20    0.10
  -5  -1 -12   -0.07    0.12
   6   1  12    2.85    0.22
   7   1  12    0.39    0.13
  -8  -1 -12    0.04    0.14
   4  -2 -12    0.51    0.16
  -4   2  12    0.16    0.17
   3  -2 -12    0.29    0.16
  -3   2  12    0.37    0.16
   2  -2 -12    0.34    0.13
  -2   2  12    0.40    0.17
   1  -2 -12    0.24    0.14
  -1   2  12    0.01    0.12
   0  -2 -12    2.03    0.22
   0   2  12    2.38    0.22
  -1  -2 -12    2.52    0.24
   1   2  12    2.45    0.21
  -2  -2 -12    0.81    0.17
   2   2  12    0.69    0.12
  -3  -2 -12    0.13    0.11
   3   2  12    0.03    0.09
  -4  -2 -12    0.14    0.11
  -5  -2 -12    0.09    0.12
   6   2  12   -0.06    0.12
   7   2  12    0.62    0.15
  -8  -2 -12    0.51    0.17
   8   2  12    0.40    0.16
   3  -3 -12    1.11    0.18
  -3   3  12    0.61    0.18
   2  -3 -12    3.33    0.25
  -2   3  12    3.12    0.25
   1  -3 -12    1.82    0.21
  -1   3  12    1.60    0.21
   0  -3 -12    0.09    0.12
   0   3  12   -0.04    0.13
  -1  -3 -12    1.16    0.17
   1   3  12    0.76    0.15
  -2  -3 -12    6.03    0.32
   2   3  12    6.31    0.27
  -3  -3 -12    0.73    0.15
  -4  -3 -12    1.74    0.21
  -5  -3 -12    3.68    0.26
   6   3  12    3.85    0.25
  -7  -3 -12    0.79    0.15
   7   3  12    1.24    0.19
  -8  -3 -12    0.13    0.14
   8   3  12    0.09    0.16
  -9  -3 -12    0.03    0.14
   9   3  12    0.09    0.15
  -3   4  12    1.13    0.20
   2  -4 -12    1.06    0.18
  -2   4  12    1.00    0.18
   1  -4 -12    0.13    0.14
  -1   4  12    0.14    0.15
   0  -4 -12    1.61    0.20
   0   4  12    1.49    0.19
  -1  -4 -12    2.48    0.23
   1   4  12    2.35    0.21
  -2  -4 -12    2.48    0.22
   2   4  12    2.13    0.18
  -3  -4 -12   -0.04    0.11
  -4  -4 -12    0.17    0.12
  -5  -4 -12   12.18    0.46
   6   4  12    0.41    0.14
  -7  -4 -12    0.07    0.12
   7   4  12    0.26    0.13
  -8  -4 -12    0.33    0.15
   8   4  12    0.29    0.15
  -9  -4 -12    0.10    0.15
  -2   5  12    0.06    0.14
   1  -5 -12    2.40    0.23
  -1   5  12    2.47    0.23
   0  -5 -12    4.12    0.27
   0   5  12    4.01    0.27
  -1  -5 -12    0.20    0.13
   1   5  12    0.21    0.13
  -2  -5 -12    0.58    0.15
  -3  -5 -12    0.05    0.12
  -4  -5 -12    2.25    0.23
   5   5  12    2.80    0.22
   6   5  12    0.31    0.13
  -7  -5 -12    1.38    0.18
   7   5  12    1.22    0.19
  -8  -5 -12    0.54    0.15
   8   5  12    0.25    0.17
  -9  -5 -12    0.08    0.15
  -2   6  12    0.34    0.18
  -1   6  12    0.18    0.15
   0   6  12   -0.15    0.12
  -1  -6 -12    0.64    0.16
   1   6  12    0.49    0.16
  -2  -6 -12    0.51    0.14
  -3  -6 -12    0.10    0.13
  -4  -6 -12    0.30    0.13
   5   6  12    1.64    0.20
  -6  -6 -12    0.99    0.15
   6   6  12    1.12    0.19
  -7  -6 -12    0.34    0.14
   7   6  12    0.16    0.14
  -8  -6 -12    0.23    0.14
   8   6  12    0.15    0.16
  -9  -6 -12    1.03    0.22
  -1   7  12    1.46    0.20
   0   7  12    2.92    0.25
  -2  -7 -12    0.72    0.15
   4   7  12    7.60    0.34
   5   7  12    0.56    0.15
  -6  -7 -12    0.06    0.11
   6   7  12    0.06    0.14
  -7  -7 -12    0.93    0.18
   7   7  12    1.01    0.19
  -8  -7 -12    0.86    0.17
   4   8  12    0.24    0.13
   5   8  12    0.21    0.15
  -6  -8 -12    0.98    0.18
   6   8  12    0.71    0.18
  -7  -8 -12    0.22    0.14
   7   8  12    0.32    0.18
  -8  -8 -12    0.45    0.17
   5   9  12    1.19    0.20
  -6  -9 -12    0.32    0.16
   6   9  12    0.10    0.17
  -7  -9 -12    0.55    0.18
   2   5 -13    0.28    0.15
   1   5 -13    0.03    0.14
  -1  -5  13    0.05    0.17
   0   5 -13    0.11    0.17
   0  -5  13    0.09    0.15
   3   4 -13    0.18    0.14
  -3  -4  13    0.09    0.14
   2   4 -13    0.14    0.14
  -2  -4  13   -0.08    0.14
   1   4 -13    0.73    0.17
  -1  -4  13    0.23    0.15
   0   4 -13    1.49    0.21
   0   4 -13    0.99    0.21
   0  -4  13    1.06    0.19
  -1   4 -13    0.52    0.19
  -1   4 -13    0.80    0.17
   1  -4  13    0.53    0.17
  -2   4 -13    1.20    0.21
   2  -4  13    0.94    0.17
  -3   4 -13   -0.06    0.17
   3  -4  13    0.08    0.13
   4   3 -13    0.14    0.16
  -4  -3  13    0.24    0.20
   3   3 -13   -0.04    0.13
  -3  -3  13    0.01    0.13
   2   3 -13    0.68    0.18
  -2  -3  13    0.75    0.18
   1   3 -13    1.51    0.22
  -1  -3  13    0.81    0.16
   0   3 -13    0.43    0.16
   0  -3  13    0.22    0.13
  -1   3 -13    0.14    0.13
  -1   3 -13    0.33    0.17
   1  -3  13    0.00    0.13
  -2   3 -13    0.50    0.16
  -2   3 -13    0.24    0.16
   2  -3  13    0.18    0.14
  -3   3 -13    0.35    0.18
   3  -3  13    0.45    0.15
  -4   3 -13    0.24    0.17
   4  -3  13    0.32    0.14
   4   2 -13    0.03    0.14
  -4  -2  13    0.06    0.18
   3   2 -13    0.22    0.16
  -3  -2  13    0.42    0.16
   2   2 -13    0.33    0.15
  -2  -2  13    0.25    0.15
   1   2 -13    0.10    0.15
  -1  -2  13   -0.10    0.11
   0   2 -13    1.64    0.20
   0  -2  13    1.51    0.18
  -1   2 -13   -0.03    0.13
   1  -2  13   -0.01    0.11
  -2   2 -13    0.15    0.12
  -2   2 -13   -0.05    0.15
   2  -2  13    0.04    0.13
  -3   2 -13    0.52    0.17
  -3   2 -13    0.44    0.14
   3  -2  13    0.44    0.14
  -4   2 -13    0.12    0.16
   4  -2  13    0.18    0.13
   4   1 -13    0.05    0.14
  -4  -1  13   -0.12    0.17
   3   1 -13    0.07    0.14
  -3  -1  13   -0.01    0.16
   2   1 -13    0.08    0.13
  -2  -1  13    0.32    0.14
   1   1 -13    1.40    0.21
  -1  -1  13    1.39    0.19
   0   1 -13    1.29    0.20
   0  -1  13    0.70    0.16
  -1   1 -13    1.81    0.22
   1  -1  13    1.71    0.19
  -2   1 -13    0.33    0.14
   2  -1  13    0.25    0.12
  -3   1 -13    1.62    0.21
  -3   1 -13    1.71    0.22
   3  -1  13    1.74    0.19
  -4   1 -13    0.12    0.13
  -4   1 -13   -0.05    0.17
   4  -1  13    0.00    0.10
   4   0 -13    0.08    0.16
  -4   0  13    0.23    0.19
   3   0 -13    1.12    0.21
  -3   0  13    1.04    0.20
   2   0 -13    0.36    0.15
  -2   0  13    0.55    0.16
   1   0 -13    0.29    0.14
  -1   0  13    0.26    0.13
   0   0 -13    1.03    0.18
   0   0  13    0.83    0.15
  -1   0 -13    4.78    0.31
   1   0  13    4.30    0.24
  -2   0 -13    1.65    0.20
   2   0  13    1.41    0.17
  -3   0 -13    0.11    0.13
   3   0  13    0.06    0.10
  -4   0 -13    0.49    0.15
  -5   0 -13    2.56    0.23
   4  -1 -13    1.03    0.20
   3  -1 -13    0.09    0.15
  -3   1  13   -0.07    0.16
   2  -1 -13    1.35    0.20
  -2   1  13    1.08    0.19
   1  -1 -13    0.32    0.16
  -1   1  13    0.44    0.15
   0  -1 -13    1.88    0.22
   0   1  13    2.09    0.21
  -1  -1 -13    0.20    0.14
   1   1  13    0.14    0.13
  -2  -1 -13    0.20    0.13
   2   1  13    0.25    0.11
  -3  -1 -13    1.34    0.19
   3   1  13    1.29    0.16
  -4  -1 -13    0.63    0.16
  -5  -1 -13    0.15    0.13
   7   1  13    0.32    0.15
   4  -2 -13    0.17    0.16
   3  -2 -13    0.79    0.19
  -3   2  13    0.63    0.18
   2  -2 -13    2.99    0.27
  -2   2  13    2.59    0.25
   1  -2 -13    0.25    0.14
  -1   2  13    0.27    0.16
   0  -2 -13    0.41    0.15
   0   2  13    0.52    0.15
  -1  -2 -13    1.04    0.19
   1   2  13    0.91    0.16
  -2  -2 -13    2.12    0.23
   2   2  13    1.83    0.17
  -3  -2 -13    0.18    0.14
  -4  -2 -13    0.02    0.14
  -5  -2 -13    0.36    0.14
   7   2  13    0.32    0.14
   8   2  13    0.19    0.14
   3  -3 -13    0.44    0.17
  -3   3  13    0.44    0.17
   2  -3 -13   -0.14    0.14
  -2   3  13    0.15    0.15
   1  -3 -13    0.08    0.13
  -1   3  13    0.06    0.16
   0  -3 -13    0.48    0.17
   0   3  13    0.30    0.14
  -1  -3 -13    0.11    0.13
   1   3  13    0.14    0.13
  -2  -3 -13    0.00    0.12
   2   3  13    0.07    0.12
  -3  -3 -13   -0.03    0.13
  -4  -3 -13    5.87    0.31
  -5  -3 -13    0.21    0.14
   6   3  13    0.72    0.17
   7   3  13    0.14    0.13
   8   3  13    0.28    0.16
   2  -4 -13    0.35    0.16
  -2   4  13    0.07    0.16
   1  -4 -13    1.39    0.20
  -1   4  13    1.65    0.22
   0  -4 -13    0.74    0.17
   0   4  13    0.81    0.18
  -1  -4 -13    0.59    0.16
   1   4  13    0.61    0.15
  -2  -4 -13    1.32    0.20
  -3  -4 -13   -0.05    0.13
  -4  -4 -13    6.14    0.32
  -5  -4 -13    0.20    0.13
   6   4  13    0.63    0.16
   7   4  13   -0.01    0.13
   8   4  13    0.08    0.17
   1  -5 -13    0.71    0.25
  -1   5  13    0.69    0.17
   0  -5 -13    0.43    0.16
   0   5  13    0.30    0.15
  -1  -5 -13    0.98    0.19
   1   5  13    1.40    0.18
  -2  -5 -13    0.13    0.15
  -3  -5 -13    1.11    0.18
  -4  -5 -13    0.60    0.16
   6   5  13    0.73    0.17
   7   5  13    0.03    0.15
  -1   6  13    0.28    0.17
   0   6  13    0.81    0.17
  -1  -6 -13    0.11    0.12
  -2  -6 -13   -0.06    0.13
  -3  -6 -13    4.72    0.31
  -4  -6 -13    4.25    0.30
   5   6  13    0.45    0.15
   6   6  13    0.03    0.12
   7   6  13    0.45    0.16
  -2  -7 -13    1.33    0.19
  -3  -7 -13    2.87    0.26
   4   7  13    0.32    0.15
   5   7  13    0.84    0.18
   6   7  13    0.81    0.19
   4   8  13    1.59    0.20
   5   8  13    1.50    0.22
   1   4 -14    0.29    0.16
   0   4 -14    0.16    0.15
   2   3 -14    0.13    0.18
  -2  -3  14    0.05    0.20
   1   3 -14    0.31    0.15
  -1  -3  14    0.12    0.13
   0   3 -14    0.08    0.15
   0  -3  14    0.23    0.15
  -1   3 -14    0.38    0.16
   1  -3  14    0.29    0.15
  -2   3 -14    0.10    0.14
  -2   3 -14    0.04    0.17
   2  -3  14   -0.03    0.14
  -3   3 -14    0.67    0.20
   3  -3  14    0.53    0.16
   2   2 -14    0.46    0.17
  -2  -2  14    0.16    0.14
   1   2 -14    1.03    0.20
  -1  -2  14    0.49    0.16
   0   2 -14    0.20    0.14
   0  -2  14   -0.02    0.13
  -1   2 -14   -0.09    0.12
   1  -2  14    0.25    0.14
  -2   2 -14    0.78    0.17
   2  -2  14    1.21    0.19
  -3   2 -14    1.59    0.21
  -3   2 -14    1.33    0.23
   3  -2  14    1.03    0.18
   4  -2  14    0.04    0.14
   3   1 -14    0.40    0.22
  -3  -1  14    0.78    0.30
   2   1 -14    0.13    0.15
  -2  -1  14    0.26    0.15
   1   1 -14    0.17    0.16
  -1  -1  14   -0.01    0.14
   0   1 -14    1.08    0.21
   0  -1  14    0.76    0.16
  -1   1 -14    0.24    0.15
   1  -1  14    0.39    0.15
  -2   1 -14    0.41    0.17
   2  -1  14    0.30    0.14
  -3   1 -14    0.23    0.14
   3  -1  14   -0.15    0.11
  -4   1 -14    0.29    0.15
   3   0 -14    0.03    0.15
  -3   0  14    0.03    0.25
   2   0 -14    0.31    0.17
  -2   0  14    0.39    0.16
   1   0 -14    0.88    0.19
  -1   0  14    1.22    0.19
   0   0 -14    0.28    0.16
   0   0  14    0.30    0.14
  -1   0 -14    0.11    0.16
   1   0  14    0.15    0.14
  -2   0 -14    0.43    0.16
   2   0  14    0.23    0.13
  -3   0 -14    1.48    0.21
   3   0  14    1.14    0.17
  -4   0 -14    0.27    0.15
  -5   0 -14    0.10    0.13
   3  -1 -14    0.53    0.17
   2  -1 -14    0.62    0.17
  -2   1  14    0.33    0.16
   1  -1 -14    2.09    0.25
  -1   1  14    1.47    0.20
   0  -1 -14    0.84    0.20
   0   1  14    0.89    0.18
  -1  -1 -14    1.24    0.20
   1   1  14    1.33    0.19
  -2  -1 -14    0.67    0.18
   2   1  14    0.61    0.14
  -3  -1 -14    0.14    0.13
  -4  -1 -14    0.00    0.14
  -5  -1 -14    0.07    0.12
  -6  -1 -14    0.39    0.14
   3  -2 -14    0.43    0.18
   2  -2 -14    0.16    0.16
  -2   2  14    0.21    0.17
   1  -2 -14    0.19    0.17
  -1   2  14   -0.19    0.13
   0  -2 -14    1.32    0.21
   0   2  14    1.26    0.18
  -1  -2 -14    0.29    0.15
   1   2  14    0.24    0.13
  -2  -2 -14    0.69    0.19
   2   2  14    0.53    0.14
  -3  -2 -14    0.73    0.16
  -4  -2 -14    0.19    0.15
  -5  -2 -14    0.04    0.15
   7   2  14    0.30    0.18
   2  -3 -14    0.91    0.21
  -2   3  14    1.01    0.21
   1  -3 -14    0.08    0.15
  -1   3  14    0.34    0.16
   0  -3 -14    0.07    0.16
   0   3  14   -0.05    0.15
  -1  -3 -14    1.13    0.20
   1   3  14    0.97    0.18
  -2  -3 -14    0.96    0.18
  -3  -3 -14    0.00    0.13
  -4  -3 -14    0.47    0.15
  -5  -3 -14    1.00    0.19
   1  -4 -14    0.01    0.15
  -1   4  14    0.53    0.18
   0  -4 -14    2.43    0.27
   0   4  14    1.73    0.22
  -1  -4 -14    2.02    0.24
   1   4  14    1.71    0.20
  -2  -4 -14    0.15    0.13
  -3  -4 -14    1.12    0.20
  -4  -4 -14    0.94    0.19
  -5  -4 -14    2.53    0.26
   6   4  14    0.48    0.17
  -1   5  14    0.75    0.21
   0  -5 -14    1.25    0.21
   0   5  14    1.52    0.22
  -1  -5 -14    0.01    0.13
  -2  -5 -14    0.07    0.15
  -3  -5 -14    0.75    0.18
  -4  -5 -14    1.50    0.23
  -5  -5 -14   -0.04    0.15
   6   5  14    0.19    0.14
  -1  -6 -14    0.79    0.18
  -2  -6 -14    0.69    0.18
  -3  -6 -14    0.21    0.15
  -4  -6 -14   -0.07    0.13
   5   6  14    1.30    0.20
  -2  -7 -14   -0.03    0.15
  -3  -7 -14    0.07    0.15
   4   7  14    1.80    0.22
   0  -2  15    0.28    0.18
  -1   2 -15    0.27    0.18
   1  -2  15    0.03    0.15
  -2   2 -15    0.08    0.15
   2  -2  15    0.24    0.14
   3  -2  15   -0.04    0.13
  -1  -1  15   -0.01    0.15
   0   1 -15    0.32    0.17
   0  -1  15   -0.19    0.12
  -1   1 -15    0.16    0.17
   1  -1  15   -0.11    0.12
  -2   1 -15    0.33    0.16
   2  -1  15    0.26    0.16
  -3   1 -15   -0.05    0.13
   3  -1  15    0.29    0.15
  -4   1 -15   -0.14    0.15
   1   0 -15   -0.03    0.19
  -1   0  15    0.20    0.16
   0   0 -15    0.52    0.18
   0   0  15    0.65    0.18
  -1   0 -15    1.00    0.20
   1   0  15    0.76    0.17
  -2   0 -15    0.40    0.18
   2   0  15    0.19    0.13
  -3   0 -15    0.06    0.16
  -4   0 -15   -0.07    0.14
   1  -1 -15    0.87    0.22
  -1   1  15    0.53    0.19
   0  -1 -15    0.79    0.21
   0   1  15    1.00    0.19
  -1  -1 -15    0.58    0.18
   1   1  15    0.41    0.14
  -2  -1 -15    0.12    0.15
   2   1  15   -0.12    0.13
  -3  -1 -15    0.24    0.15
  -4  -1 -15    0.11    0.16
  -5  -1 -15    0.02    0.15
   1  -2 -15    0.63    0.25
  -1   2  15    0.07    0.15
   0  -2 -15    0.20    0.16
   0   2  15    0.02    0.15
  -1  -2 -15    0.57    0.18
   1   2  15    0.46    0.15
  -2  -2 -15    0.27    0.17
  -3  -2 -15    0.38    0.16
  -4  -2 -15    0.84    0.18
  -5  -2 -15    0.87    0.19
  -1   3  15    0.50    0.31
   0  -3 -15    0.74    0.19
   0   3  15    0.63    0.19
  -1  -3 -15    1.54    0.24
   1   3  15    1.17    0.20
  -2  -3 -15    0.03    0.14
  -3  -3 -15    0.01    0.15
  -4  -3 -15    5.68    0.34
   0  -4 -15    0.37    0.19
   0   4  15    0.10    0.14
  -1  -4 -15   -0.05    0.14
  -2  -4 -15    0.22    0.17
  -3  -4 -15    0.25    0.15
  -4  -4 -15    1.12    0.21
  -1  -5 -15    0.09    0.19
  -2  -5 -15    0.12    0.17
  -3  -5 -15   -0.11    0.14
   1   0  16    0.19    0.15
   2   0  16    0.16    0.16
   1   1  16    0.34    0.16
   1   2  16    0.15    0.16
   0   0   0    0.00    0.00
;
_shelx_hkl_checksum              32368
loop_
_space_group_symop_operation_xyz
'x, y, z'
'-x, -y, -z'
loop_
_atom_site_label
_atom_site_type_symbol
_atom_site_fract_x
_atom_site_fract_y
_atom_site_fract_z
_atom_site_U_iso_or_equiv
_atom_site_adp_type
_atom_site_occupancy
_atom_site_site_symmetry_order
_atom_site_calc_flag
_atom_site_refinement_flags_posn
_atom_site_refinement_flags_adp
Zn1 Zn 0.12584(5) 0.69929(4) 0.25824(3) 0.04185(19) Uani 1 1 d . .
O1 O 0.0109(5) 0.6548(5) 0.4492(3) 0.0903(11) Uani 1 1 d . .
O2 O -0.0777(5) 0.8560(4) 0.3433(3) 0.0866(10) Uani 1 1 d . U
O3 O -0.1996(6) 0.8541(6) 0.5121(4) 0.1229(17) Uani 1 1 d . .
O4 O 0.1717(5) 0.8028(3) 0.1081(2) 0.0740(9) Uani 1 1 d . .
O5 O 0.1865(8) 1.0042(7) 0.0188(5) 0.181(3) Uani 1 1 d . .
O6 O 0.1187(6) 1.0115(5) 0.1809(4) 0.1195(16) Uani 1 1 d . .
N1 N 0.0117(4) 0.5787(3) 0.1906(2) 0.0418(7) Uani 1 1 d . .
N2 N 0.0339(4) 0.3522(3) 0.1440(2) 0.0445(7) Uani 1 1 d . .
H2A H 0.0753 0.2532 0.1354 0.053 Uiso 1 1 calc R U
N3 N 0.3014(4) 0.4666(3) 0.2587(2) 0.0397(6) Uani 1 1 d . .
N4 N 0.3374(4) 0.6974(3) 0.3300(2) 0.0416(7) Uani 1 1 d . .
N5 N -0.0938(5) 0.7917(5) 0.4400(3) 0.0670(9) Uani 1 1 d . U
N6 N 0.1540(5) 0.9391(5) 0.1031(4) 0.0694(10) Uani 1 1 d . .
C1 C -0.2698(5) 0.7466(4) 0.1293(3) 0.0476(9) Uani 1 1 d . .
H1A H -0.2786 0.8416 0.1483 0.057 Uiso 1 1 calc R U
C2 C -0.3936(5) 0.7397(5) 0.0830(3) 0.0548(9) Uani 1 1 d . .
H2B H -0.4877 0.8318 0.0696 0.066 Uiso 1 1 calc R U
C3 C -0.3815(6) 0.5982(5) 0.0556(3) 0.0587(10) Uani 1 1 d . .
H3A H -0.4691 0.5977 0.0257 0.070 Uiso 1 1 calc R U
C4 C -0.2445(5) 0.4588(5) 0.0710(3) 0.0525(10) Uani 1 1 d . .
H4A H -0.2368 0.3644 0.0518 0.063 Uiso 1 1 calc R U
C5 C -0.1187(5) 0.4659(4) 0.1166(3) 0.0419(8) Uani 1 1 d . .
C6 C -0.1311(4) 0.6074(4) 0.1468(2) 0.0391(8) Uani 1 1 d . .
C7 C 0.1047(5) 0.4268(4) 0.1869(3) 0.0418(8) Uani 1 1 d . .
C8 C 0.2699(5) 0.3569(4) 0.2239(3) 0.0430(8) Uani 1 1 d . .
C9 C 0.3876(6) 0.2006(4) 0.2235(3) 0.0545(10) Uani 1 1 d . .
H9A H 0.3646 0.1247 0.1995 0.065 Uiso 1 1 calc R U
C10 C 0.5371(6) 0.1607(4) 0.2587(3) 0.0580(10) Uani 1 1 d . .
H10A H 0.6166 0.0566 0.2582 0.070 Uiso 1 1 calc R U
C11 C 0.4470(4) 0.4284(4) 0.2945(2) 0.0391(7) Uani 1 1 d . .
C12 C 0.4664(4) 0.5537(4) 0.3333(2) 0.0400(8) Uani 1 1 d . .
C13 C 0.3538(5) 0.8129(5) 0.3681(3) 0.0498(9) Uani 1 1 d . .
H13A H 0.2665 0.9131 0.3665 0.060 Uiso 1 1 calc R U
C14 C 0.4978(5) 0.7892(5) 0.4109(3) 0.0568(10) Uani 1 1 d . .
H14A H 0.5047 0.8728 0.4374 0.068 Uiso 1 1 calc R U
C15 C 0.6261(5) 0.6454(5) 0.4135(3) 0.0534(10) Uani 1 1 d . .
H15A H 0.7216 0.6294 0.4421 0.064 Uiso 1 1 calc R U
C16 C 0.6161(5) 0.5190(5) 0.3730(3) 0.0447(8) Uani 1 1 d . .
C17 C 0.7444(5) 0.3620(5) 0.3714(3) 0.0561(10) Uani 1 1 d . .
H17A H 0.8446 0.3396 0.3963 0.067 Uiso 1 1 calc R U
C18 C 0.7241(5) 0.2461(5) 0.3350(3) 0.0563(10) Uani 1 1 d . .
H18A H 0.8104 0.1452 0.3354 0.068 Uiso 1 1 calc R U
C19 C 0.5735(5) 0.2738(4) 0.2958(3) 0.0486(9) Uani 1 1 d . .
loop_
_atom_site_aniso_label
_atom_site_aniso_U_11
_atom_site_aniso_U_22
_atom_site_aniso_U_33
_atom_site_aniso_U_23
_atom_site_aniso_U_13
_atom_site_aniso_U_12
Zn1 0.0469(3) 0.0299(3) 0.0502(3) -0.01061(17) -0.00368(18) -0.01659(19)
O1 0.087(3) 0.100(3) 0.079(2) -0.011(2) -0.0128(19) -0.034(2)
O2 0.098(3) 0.057(2) 0.0870(19) -0.0168(16) -0.004(2) -0.0164(18)
O3 0.110(3) 0.140(4) 0.129(3) -0.095(3) 0.058(3) -0.065(3)
O4 0.122(3) 0.0445(17) 0.0702(19) 0.0074(14) -0.0304(18) -0.0457(18)
O5 0.186(6) 0.135(5) 0.211(6) 0.102(5) -0.025(5) -0.091(4)
O6 0.141(4) 0.058(2) 0.160(4) -0.022(3) -0.053(3) -0.027(2)
N1 0.0505(17) 0.0355(16) 0.0448(15) -0.0123(12) -0.0019(13) -0.0222(14)
N2 0.0586(18) 0.0353(15) 0.0466(16) -0.0125(12) 0.0007(13) -0.0264(14)
N3 0.0469(17) 0.0337(15) 0.0403(15) -0.0053(12) -0.0031(12) -0.0188(13)
N4 0.0496(17) 0.0383(16) 0.0399(15) -0.0099(12) 0.0011(13) -0.0220(14)
N5 0.057(2) 0.060(2) 0.088(2) -0.0181(19) -0.001(2) -0.028(2)
N6 0.072(2) 0.050(2) 0.094(3) 0.007(2) -0.026(2) -0.031(2)
C1 0.054(2) 0.041(2) 0.048(2) -0.0132(16) 0.0032(16) -0.0210(18)
C2 0.047(2) 0.062(3) 0.055(2) -0.0077(19) -0.0045(17) -0.0227(19)
C3 0.062(3) 0.074(3) 0.053(2) -0.009(2) -0.0046(19) -0.040(2)
C4 0.067(3) 0.064(3) 0.046(2) -0.0154(18) 0.0009(18) -0.045(2)
C5 0.053(2) 0.0407(19) 0.0376(17) -0.0114(14) 0.0057(15) -0.0271(17)
C6 0.049(2) 0.0444(19) 0.0327(16) -0.0102(14) 0.0030(14) -0.0289(17)
C7 0.057(2) 0.0361(18) 0.0397(17) -0.0095(14) 0.0015(15) -0.0272(17)
C8 0.056(2) 0.0324(18) 0.0419(18) -0.0062(14) 0.0007(15) -0.0222(16)
C9 0.071(3) 0.0321(19) 0.061(2) -0.0086(17) -0.006(2) -0.0220(19)
C10 0.067(3) 0.0283(19) 0.066(3) -0.0036(17) -0.003(2) -0.0106(18)
C11 0.0472(19) 0.0341(17) 0.0328(16) -0.0027(13) -0.0005(14) -0.0160(15)
C12 0.0472(19) 0.045(2) 0.0309(16) -0.0018(14) -0.0013(14) -0.0244(17)
C13 0.056(2) 0.049(2) 0.050(2) -0.0160(17) 0.0008(17) -0.0270(18)
C14 0.067(3) 0.071(3) 0.051(2) -0.0192(19) 0.0005(19) -0.045(2)
C15 0.058(2) 0.076(3) 0.0421(19) -0.0042(18) -0.0043(17) -0.043(2)
C16 0.048(2) 0.057(2) 0.0309(16) 0.0002(15) 0.0008(14) -0.0282(18)
C17 0.048(2) 0.070(3) 0.046(2) 0.0107(19) -0.0085(17) -0.025(2)
C18 0.050(2) 0.047(2) 0.058(2) 0.0057(18) -0.0044(18) -0.0121(19)
C19 0.054(2) 0.041(2) 0.0428(19) 0.0006(15) -0.0017(16) -0.0161(18)
loop_
_atom_type_symbol
_atom_type_description
_atom_type_scat_dispersion_real
_atom_type_scat_dispersion_imag
_atom_type_scat_source
C C 0.0033 0.0016 'International Tables Vol C Tables 4.2.6.8 and 6.1.1.4'
H H 0.0000 0.0000 'International Tables Vol C Tables 4.2.6.8 and 6.1.1.4'
N N 0.0061 0.0033 'International Tables Vol C Tables 4.2.6.8 and 6.1.1.4'
O O 0.0106 0.0060 'International Tables Vol C Tables 4.2.6.8 and 6.1.1.4'
Zn Zn 0.2839 1.4301 'International Tables Vol C Tables 4.2.6.8 and 6.1.1.4'
loop_
_geom_angle_atom_site_label_1
_geom_angle_atom_site_label_2
_geom_angle_atom_site_label_3
_geom_angle
O2 Zn1 O4 109.09(15)
O2 Zn1 N3 144.24(14)
O4 Zn1 N3 106.49(13)
O2 Zn1 N1 99.35(14)
O4 Zn1 N1 92.67(12)
N3 Zn1 N1 75.37(11)
O2 Zn1 N4 103.84(14)
O4 Zn1 N4 96.09(12)
N3 Zn1 N4 75.52(11)
N1 Zn1 N4 150.89(11)
O2 Zn1 O1 54.32(14)
O4 Zn1 O1 163.14(14)
N3 Zn1 O1 90.28(13)
N1 Zn1 O1 93.22(12)
N4 Zn1 O1 86.33(11)
N5 O1 Zn1 86.0(3)
N5 O2 Zn1 107.3(3)
N6 O4 Zn1 118.7(3)
C7 N1 C6 105.6(3)
C7 N1 Zn1 113.3(2)
C6 N1 Zn1 141.1(2)
C7 N2 C5 106.7(3)
C7 N2 H2A 126.7
C5 N2 H2A 126.7
C8 N3 C11 120.5(3)
C8 N3 Zn1 120.8(2)
C11 N3 Zn1 118.7(2)
C13 N4 C12 117.3(3)
C13 N4 Zn1 130.4(3)
C12 N4 Zn1 112.3(2)
O3 N5 O1 123.0(5)
O3 N5 O2 124.7(5)
O1 N5 O2 112.3(4)
O6 N6 O5 114.4(5)
O6 N6 O4 123.2(4)
O5 N6 O4 122.1(6)
C2 C1 C6 117.6(3)
C2 C1 H1A 121.2
C6 C1 H1A 121.2
C1 C2 C3 121.3(4)
C1 C2 H2B 119.4
C3 C2 H2B 119.4
C4 C3 C2 122.2(4)
C4 C3 H3A 118.9
C2 C3 H3A 118.9
C3 C4 C5 116.6(4)
C3 C4 H4A 121.7
C5 C4 H4A 121.7
C4 C5 N2 132.7(3)
C4 C5 C6 121.8(4)
N2 C5 C6 105.5(3)
C1 C6 N1 130.5(3)
C1 C6 C5 120.5(3)
N1 C6 C5 109.0(3)
N1 C7 N2 113.2(3)
N1 C7 C8 119.8(3)
N2 C7 C8 126.9(3)
N3 C8 C9 121.0(3)
N3 C8 C7 110.7(3)
C9 C8 C7 128.3(3)
C10 C9 C8 118.9(4)
C10 C9 H9A 120.5
C8 C9 H9A 120.5
C9 C10 C19 121.2(4)
C9 C10 H10A 119.4
C19 C10 H10A 119.4
N3 C11 C19 122.2(3)
N3 C11 C12 116.2(3)
C19 C11 C12 121.6(3)
N4 C12 C16 124.5(3)
N4 C12 C11 117.3(3)
C16 C12 C11 118.3(3)
N4 C13 C14 122.4(4)
N4 C13 H13A 118.8
C14 C13 H13A 118.8
C15 C14 C13 119.8(4)
C15 C14 H14A 120.1
C13 C14 H14A 120.1
C14 C15 C16 120.1(4)
C14 C15 H15A 119.9
C16 C15 H15A 119.9
C12 C16 C15 115.9(4)
C12 C16 C17 119.2(3)
C15 C16 C17 124.9(4)
C18 C17 C16 121.7(4)
C18 C17 H17A 119.1
C16 C17 H17A 119.1
C17 C18 C19 121.5(4)
C17 C18 H18A 119.2
C19 C18 H18A 119.2
C10 C19 C11 116.1(4)
C10 C19 C18 126.3(4)
C11 C19 C18 117.6(4)
loop_
_geom_bond_atom_site_label_1
_geom_bond_atom_site_label_2
_geom_bond_distance
Zn1 O2 2.007(4)
Zn1 O4 2.052(3)
Zn1 N3 2.074(3)
Zn1 N1 2.164(3)
Zn1 N4 2.231(3)
Zn1 O1 2.476(4)
O1 N5 1.229(5)
O2 N5 1.287(5)
O3 N5 1.186(5)
O4 N6 1.229(4)
O5 N6 1.201(6)
O6 N6 1.176(5)
N1 C7 1.314(4)
N1 C6 1.384(4)
N2 C7 1.347(4)
N2 C5 1.387(5)
N2 H2A 0.8600
N3 C8 1.335(4)
N3 C11 1.337(5)
N4 C13 1.326(4)
N4 C12 1.347(4)
C1 C2 1.370(5)
C1 C6 1.383(5)
C1 H1A 0.9300
C2 C3 1.385(6)
C2 H2B 0.9300
C3 C4 1.372(6)
C3 H3A 0.9300
C4 C5 1.381(5)
C4 H4A 0.9300
C5 C6 1.398(5)
C7 C8 1.465(5)
C8 C9 1.392(5)
C9 C10 1.362(6)
C9 H9A 0.9300
C10 C19 1.405(6)
C10 H10A 0.9300
C11 C19 1.406(5)
C11 C12 1.433(5)
C12 C16 1.401(5)
C13 C14 1.401(6)
C13 H13A 0.9300
C14 C15 1.346(6)
C14 H14A 0.9300
C15 C16 1.407(6)
C15 H15A 0.9300
C16 C17 1.428(6)
C17 C18 1.339(6)
C17 H17A 0.9300
C18 C19 1.423(6)
C18 H18A 0.9300
