#------------------------------------------------------------------------------
#$Date: 2019-11-10 00:56:00 +0200 (Sun, 10 Nov 2019) $
#$Revision: 225476 $
#$URL: file:///home/coder/svn-repositories/cod/cif/4/51/53/4515311.cif $
#------------------------------------------------------------------------------
#
# This file is available in the Crystallography Open Database (COD),
# http://www.crystallography.net/
#
# All data on this site have been placed in the public domain by the
# contributors.
#
data_4515311
loop_
_publ_author_name
'Zhang, Jindan'
'Ouyang, Jun'
'Ye, Yingxiang'
'Li, Ziyin'
'Lin, Quanjie'
'Chen, Ting'
'Zhang, Zhangjing'
'Xiang, Shengchang'
_publ_section_title
;
 Mixed-Valence Cobalt(II/III) Metal-Organic Framework for Ammonia Sensing
 with Naked-Eye Color Switching.
;
_journal_issue                   32
_journal_name_full               'ACS applied materials &amp; interfaces'
_journal_page_first              27465
_journal_page_last               27471
_journal_paper_doi               10.1021/acsami.8b07770
_journal_volume                  10
_journal_year                    2018
_chemical_formula_moiety         '0.5(C42 H24 Co2 N26), 6(H1.5 N0.5)'
_chemical_formula_sum            'C21 H21 Co N16'
_chemical_formula_weight         556.47
_space_group_crystal_system      hexagonal
_space_group_IT_number           194
_space_group_name_Hall           '-P 6c 2c'
_space_group_name_H-M_alt        'P 63/m m c'
_atom_sites_solution_hydrogens   difmap
_audit_creation_method           SHELXL-2014/7
_cell_angle_alpha                90
_cell_angle_beta                 90
_cell_angle_gamma                120
_cell_formula_units_Z            2
_cell_length_a                   16.3316(7)
_cell_length_b                   16.3316(7)
_cell_length_c                   7.5701(3)
_cell_measurement_reflns_used    1042
_cell_measurement_temperature    150(2)
_cell_measurement_theta_max      65.2920
_cell_measurement_theta_min      5.3900
_cell_volume                     1748.60(13)
_computing_structure_refinement  'SHELXL-2014/7 (Sheldrick, 2014)'
_diffrn_ambient_temperature      150(2)
_diffrn_measured_fraction_theta_full 0.995
_diffrn_measured_fraction_theta_max 0.992
_diffrn_measurement_device_type  'SuperNova, Dual, Cu at zero, Atlas'
_diffrn_radiation_type           CuK\a
_diffrn_radiation_wavelength     1.54184
_diffrn_reflns_av_R_equivalents  0.1035
_diffrn_reflns_av_unetI/netI     0.0498
_diffrn_reflns_Laue_measured_fraction_full 0.995
_diffrn_reflns_Laue_measured_fraction_max 0.992
_diffrn_reflns_limit_h_max       17
_diffrn_reflns_limit_h_min       -18
_diffrn_reflns_limit_k_max       20
_diffrn_reflns_limit_k_min       -15
_diffrn_reflns_limit_l_max       6
_diffrn_reflns_limit_l_min       -9
_diffrn_reflns_number            6370
_diffrn_reflns_point_group_measured_fraction_full 0.995
_diffrn_reflns_point_group_measured_fraction_max 0.992
_diffrn_reflns_theta_full        67.687
_diffrn_reflns_theta_max         73.812
_diffrn_reflns_theta_min         5.417
_exptl_absorpt_coefficient_mu    4.126
_exptl_crystal_density_diffrn    1.057
_exptl_crystal_description       flake
_exptl_crystal_F_000             572
_refine_diff_density_max         0.525
_refine_diff_density_min         -0.340
_refine_diff_density_rms         0.088
_refine_ls_extinction_method     none
_refine_ls_goodness_of_fit_ref   0.987
_refine_ls_hydrogen_treatment    constr
_refine_ls_matrix_type           full
_refine_ls_number_parameters     51
_refine_ls_number_reflns         706
_refine_ls_number_restraints     0
_refine_ls_restrained_S_all      0.987
_refine_ls_R_factor_all          0.0847
_refine_ls_R_factor_gt           0.0679
_refine_ls_shift/su_max          0.002
_refine_ls_shift/su_mean         0.000
_refine_ls_structure_factor_coef Fsqd
_refine_ls_weighting_details
'w=1/[\s^2^(Fo^2^)+(0.1330P)^2^+3.3780P] where P=(Fo^2^+2Fc^2^)/3'
_refine_ls_weighting_scheme      calc
_refine_ls_wR_factor_gt          0.2077
_refine_ls_wR_factor_ref         0.2202
_reflns_Friedel_coverage         0.000
_reflns_number_gt                557
_reflns_number_total             706
_reflns_threshold_expression     'I > 2\s(I)'
_cod_data_source_file            am8b07770_si_002.cif
_cod_data_source_block           FJU-56-NH3
_cod_original_cell_volume        1748.60(17)
_cod_database_code               4515311
_shelx_space_group_comment
;
The symmetry employed for this shelxl refinement is uniquely defined
by the following loop, which should always be used as a source of
symmetry information in preference to the above space-group names.
They are only intended as comments.
;
_olex2_refinement_description
;
1. Fixed Uiso
 At 1.2 times of:
  All C(H) groups, All N(H,H) groups
2. Others
 Fixed Sof: C4(0.5) H4(0.5) C3(0.5) H3(0.5) H4a(0.25)
3.a Riding coordinates:
 C4(H4), C3(H3), N4(H4a,H4b)
;
_shelx_res_file
;
    FJU-56-NH3.res created by SHELXL-2014/7

TITL CF solution in P63/mmc
CELL 1.54187 16.331601 16.331601 7.570117 90 90 120
ZERR 2 0.000741 0.000741 0.000308 0 0 0
LATT 1
SYMM -Y+X,+X,0.5+Z
SYMM -Y,+X-Y,+Z
SYMM -X,-Y,0.5+Z
SYMM +Y-X,-X,+Z
SYMM +Y,-X+Y,0.5+Z
SYMM -Y+X,-Y,-Z
SYMM -X,-X+Y,-Z
SYMM +Y,+X,-Z
SYMM -Y,-X,0.5-Z
SYMM +Y-X,+Y,0.5-Z
SYMM +X,+X-Y,0.5-Z
SFAC C H Co N
UNIT 42 42 2 32

L.S. 5 0 2
PLAN  5
TEMP 16.47(10)
MORE -1
BOND $H
CONF
ABIN
fmap 2
acta
OMIT 3 1 0
OMIT 1 0 1
OMIT 1 0 3
OMIT -1 4 0
OMIT 0 1 1
REM <olex2.extras>
REM <HklSrc "%.\\FJU-56-NH3.hkl">
REM </olex2.extras>

WGHT    0.133000    3.378000
FVAR       3.76691
CO1   3    0.000000    0.000000    0.000000    10.08333    0.02269    0.02269 =
         0.02554    0.00000    0.00000    0.01134
N1    4    0.123015    0.061508    0.163631    10.50000    0.02418    0.03082 =
         0.03334    0.00000    0.00000    0.01209
N3    4    0.666667    0.333333    0.250000    10.08333    0.02783    0.02783 =
         0.09117    0.00000    0.00000    0.01392
N2    4    0.211273    0.105637    0.103489    10.50000    0.02393    0.04090 =
         0.03581    0.00112    0.00224    0.01196
C5    1    0.566350    0.283175    0.250000    10.25000    0.02875    0.02749 =
         0.05385    0.00000    0.00000    0.01438
C2    1    0.369076    0.184538    0.250000    10.25000    0.02785    0.03766 =
         0.03713    0.00000    0.00000    0.01392
C1    1    0.264178    0.132089    0.250000    10.25000    0.02761    0.03575 =
         0.03545    0.00000    0.00000    0.01380
C4    1    0.517075    0.309503    0.154656    10.50000    0.03021    0.10040 =
         0.18334    0.09000    0.01539    0.00661
AFIX   3
H4    2    0.550145    0.365353    0.083466    10.50000   -1.20000
AFIX   0
C3    1    0.416373    0.257727    0.148029    10.50000    0.03077    0.09563 =
         0.16472    0.07129   -0.00817    0.01509
AFIX   3
H3    2    0.382933    0.276607    0.068749    10.50000   -1.20000
AFIX   0

N4    4    0.288454    0.144227   -0.250000    10.25000    0.02996    0.22379 =
         0.02875    0.00000    0.00000    0.01498
AFIX   3
H4A   2    0.325714    0.207220   -0.250000    10.25000   -1.20000
H4B   2    0.251404    0.125710   -0.153330    10.50000   -1.20000
AFIX   0
HKLF 4

REM  CF solution in P63/mmc
REM R1 =  0.0679 for     557 Fo > 4sig(Fo)  and  0.0847 for all     706 data
REM     51 parameters refined using      0 restraints

END

WGHT      0.1290      0.1242

REM Highest difference peak  0.525,  deepest hole -0.340,  1-sigma level  0.088
Q1    1   0.3554  0.2576 -0.2500  10.50000  0.05    0.52
Q2    1   0.6109  0.3891  0.2500  10.25000  0.05    0.45
Q3    1   0.6264  0.3736 -0.2500  10.25000  0.05    0.31
Q4    1   0.2686  0.1891 -0.2500  10.50000  0.05    0.29
Q5    1   0.2557  0.2017  0.2500  10.50000  0.05    0.27
;
_shelx_res_checksum              7440
_shelx_hkl_file
;
   0   0  -9-266.942 256.631   6
   0   0  -8 16287.9 1433.12   6
   0   0  -7-19.6773 634.692   5
   0   0  -7-349.187 552.077   6
   0   0  -6 2437.43 570.696   3
   0   0  -6 2974.23 741.742   6
   0   0  -6 2139.01 719.206   5
   0   0  -1 130.234 168.358   2
   0   0   1 156.546 169.769   1
   0   0   2 360087. 5526.28   1
   0   0   3 266.062 521.653   1
   0   0   4 5739.24 1026.64   1
   0   0   5 111.652 561.539   1
  -1   0  -9 325.172 321.770   6
  -1   1  -9 226.633 283.748   6
   1   0  -9 608.630 354.612   6
   0  -1  -9 62.7909 294.250   6
   1  -1  -9 166.233 262.497   6
   0   1  -9 493.111 338.996   6
   0   1  -8 1802.02 535.043   6
   1  -1  -8 1907.47 587.423   6
   1   0  -8 2158.19 708.886   5
   1  -1  -8 1012.74 463.608   5
  -1   1  -8 2452.88 632.216   6
   0  -1  -8 2773.89 690.941   6
  -1   0  -8 1401.58 536.712   6
   1   0  -8 1881.72 581.581   6
  -1   0  -7 854.924 500.441   6
   0   1  -7 456.297 510.187   6
   1  -1  -7 607.502 591.596   6
   0  -1  -7 160.472 442.002   6
  -1   0  -7 1169.24 724.316   5
   1   0  -7 625.454 508.327   6
   0  -1  -7 798.700 542.867   5
  -1   1  -7 144.744 443.525   6
   0   1  -7 1392.51 916.288   5
   1  -1  -7 4.22076 534.628   5
   1   0  -7 893.090 651.828   5
  -1   1  -7-15.4315 826.348   5
   1  -1  -6 7876.00 1090.57   5
   0  -1  -6 8023.38 1132.05   5
   1  -1  -6 8864.60 1115.76   6
   1   0  -6 9022.21 1144.25   6
   0  -1  -6 8653.40 1097.73   6
   1   0  -6 7907.39 940.276   3
  -1   0  -6 6772.68 1097.85   5
   0   1  -6 9084.63 1309.74   5
  -1   1  -6 8393.05 918.980   3
  -1   0  -6 7848.08 1018.97   6
   1   0  -6 8301.24 1124.14   5
  -1   1  -6 8747.48 1107.17   6
  -1   1  -6 7361.20 1166.42   5
   0   1  -6 10163.4 1181.25   6
   0   1  -6 8840.95 949.972   3
  -1   0  -3 4616.97 813.077   2
   0  -1  -2 16326.6 982.797   2
  -1   0  -2 15022.1 994.804   2
  -1   1  -2 16452.6 1184.99   2
  -1   0  -1 38852.5 1071.80   2
   0  -1  -1 39337.6 823.552   2
   1   0   1 35398.9 1170.46   1
  -1   0   1 38960.3 1305.95   1
   0   1   1 35458.4 1391.70   1
  -1   1   1 37161.2 1568.53   1
  -1   1   2 16487.2 1393.06   1
  -1   0   2 15566.2 1319.67   1
   0  -1   2 17772.7 1208.48   1
   1  -1   2 15801.3 1062.70   1
   0   1   2 16502.1 1385.91   1
   1   0   2 16937.3 1199.36   1
   1  -1   3 3977.85 801.588   1
  -1   0   3 4397.36 881.678   1
  -1   1   3 2748.04 683.549   1
   1   0   3 4473.01 924.814   1
   0  -1   3 4220.50 765.650   1
   0   1   3 3758.96 854.145   1
   0  -1   4 948.029 551.817   1
  -1   0   4 593.866 536.265   1
  -1   1   4 1243.76 840.916   1
   1   0   4 467.300 591.553   1
   0   1   4 427.559 609.703   1
   1  -1   4 824.314 545.922   1
   1   0   5 1161.63 638.203   1
  -1   1   5 220.827 663.277   1
   0   1   5 544.545 626.032   1
  -1  -1  -9-91.9493 251.356   6
   2  -1  -9 232.994 314.162   6
   1   1  -9-53.1752 253.341   6
  -2   1  -9 684.971 320.836   6
   1  -2  -9 271.536 284.400   6
  -1   2  -9 646.047 336.431   6
   1   1  -8 715.569 640.807   5
  -1   2  -8 782.991 454.321   6
   1  -2  -8 784.907 430.222   5
   1  -2  -8 1313.46 549.098   6
   1   1  -8 1496.19 562.663   6
   2  -1  -8 1508.63 543.980   6
  -1  -1  -8 1179.50 499.578   6
  -2   1  -8 1055.68 526.664   6
   2  -1  -8 1232.66 557.333   5
   2  -1  -7 346.817 596.972   5
  -1  -1  -7-296.749 628.015   5
  -1   2  -7 292.694 518.513   6
  -1  -1  -7-490.779 546.425   6
  -2   1  -7-529.839 605.882   6
   1   1  -7 227.967 464.215   6
   1  -2  -7-309.574 510.158   6
   1   1  -7 51.7051 596.069   5
   1  -2  -7-380.627 595.465   5
   2  -1  -7-356.875 433.745   6
   2  -1  -6 11544.0 1269.99   6
   1   1  -6 11694.6 1145.91   3
  -1  -1  -6 10475.8 1237.83   6
  -1   2  -6 12374.9 1299.35   6
   1  -2  -6 11673.8 1270.05   6
  -2   1  -6 11979.0 1282.32   6
   1   1  -6 13067.4 1331.13   6
   2  -1  -6 10893.1 1240.03   5
   1   1  -6 10256.7 1333.01   5
   1  -2  -6 11962.9 1367.10   5
  -1   2  -6 12275.7 1089.67   3
  -1  -1  -6 9601.33 1258.93   5
   2  -1  -6 11380.8 1100.89   3
  -2   1  -6 9841.61 1392.72   5
  -1  -1  -3 544.087 423.998   2
  -2   1  -3 789.628 513.129   2
  -2   1  -2 3592.42 607.050   2
  -1  -1  -2 4889.82 566.211   2
   1  -2  -1 250.769 272.905   8
  -1  -1  -1 27.9851 174.310   2
  -1  -1   0 110906. 1765.43   8
   1  -2   0 108669. 1893.57   8
  -1   2   0 107620. 2269.24   1
   1   1   1 193.040 239.767   1
  -1  -1   1 66.9549 111.502   1
  -1   2   1-65.3964 348.315   1
  -2   1   1 42.8935 246.452   1
   1  -2   2 3966.73 511.941   1
   2  -1   2 3595.29 565.386   1
  -1  -1   2 4161.85 536.371   1
  -1   2   2 3022.88 757.752   1
  -2   1   2 3901.66 800.977   1
   1   1   2 4290.46 770.843   1
  -1   2   3-681.619 839.606   1
  -2   1   3 550.993 476.264   1
   1   1   3 1106.66 682.683   1
   2  -1   3 824.621 565.465   1
   1  -2   3 730.924 429.525   1
  -1  -1   3-271.882 458.115   1
   1   1   4 3843.67 1070.17   1
  -1  -1   4 2816.23 685.750   1
  -2   1   4 4163.22 907.805   1
  -1   2   4 4932.56 1249.95   1
   2  -1   4 3711.74 932.214   1
   1  -2   4 3703.47 771.422   1
   1   1   5-486.336 1041.36   1
  -2   1   5-429.641 773.296   1
  -1   2   5 214.442 647.328   1
   2  -1   5-914.462 851.276   1
  -2   0  -9 350.333 278.455   6
  -2   2  -9-135.238 266.776   6
   0   2  -9 18.1698 245.300   6
   2   0  -9-211.727 265.582   6
   0  -2  -9 260.099 307.603   6
   2  -2  -9 317.782 284.019   6
   2   0  -8 1025.23 585.241   5
   2   0  -8 459.722 404.656   6
   0  -2  -8 712.761 478.372   6
   0   2  -8 121.107 414.023   6
   2  -2  -8-7.33847 398.988   6
  -2   2  -8-132.353 515.197   6
   2  -2  -8 254.316 466.681   5
  -2   0  -8 444.897 433.568   6
   2   0  -7 709.952 517.979   6
   2  -2  -7 529.705 576.622   5
   0   2  -7 801.083 407.636   3
   2   0  -7 2092.07 797.669   5
  -2   2  -7 1340.76 676.210   6
   0  -2  -7 811.523 587.889   5
   0   2  -7 1159.98 572.056   6
  -2   0  -7-143.699 524.680   6
   2  -2  -7 886.972 524.305   6
   0  -2  -7 92.5937 472.901   6
   0  -2  -6 22746.8 1745.72   6
   0   2  -6 21509.1 2167.83   5
   2   0  -6 23724.3 1577.04   3
   0  -2  -6 23260.7 1861.97   5
   2   0  -6 25315.7 1797.12   6
  -2   0  -6 23463.3 1771.99   6
   0   2  -6 25586.1 1588.33   3
   0   2  -6 26034.6 1830.77   6
  -2   2  -6 24567.4 1804.13   6
   2  -2  -6 24720.5 1860.22   5
   2   0  -6 23978.2 1865.74   5
   2  -2  -6 24738.4 1823.00   6
  -2   0  -6 22524.9 1870.15   5
  -2   2  -3 15882.0 1511.71   2
  -2   0  -3 14196.4 1270.64   2
   0  -2  -2 96167.5 1872.80   2
  -2   0  -2 95062.9 2491.22   2
  -2   2  -2 95931.7 2939.22   2
   0  -2  -1 10282.5 869.878   8
   0  -2  -1 10652.8 502.841   2
  -2   0   0 15988.6 499.397   8
   0   2   0 16438.3 740.447   1
   0  -2   0 15819.0 825.025   8
  -2   2   0 16531.0 841.827   1
  -2   2   0 16594.9 664.747   2
   2  -2   0 16088.5 640.761   8
   0   2   1 9168.59 827.182   1
   0  -2   1 10347.3 731.906   8
  -2   2   1 9351.44 941.909   1
  -2   0   1 10119.4 698.538   1
   2   0   2 92411.2 2816.26   1
   2  -2   2 96523.4 2327.94   1
   0  -2   2 96179.5 1986.07   1
  -2   2   2 94319.5 3493.22   1
   0   2   2 96754.0 3305.69   1
  -2   0   2 96544.5 2768.24   1
   0   2   3 13859.5 1588.04   1
   2  -2   3 13442.9 1172.72   1
   0  -2   3 13960.1 1080.30   1
  -2   2   3 14443.8 1658.78   1
  -2   0   3 13650.8 1291.57   1
   2   0   3 13492.7 1370.45   1
   0   2   4-727.845 874.877   1
  -2   0   4 605.821 413.828   1
   2  -2   4 529.845 484.537   1
  -2   2   4 287.303 576.741   1
   2   0   4 936.235 657.112   1
  -2   2   5-97.8274 675.077   1
   2   0   5 73.4048 742.289   1
   0   2   5 1403.67 1031.24   1
   0   2   6 23731.1 2687.05   1
   1  -3  -9 332.736 308.599   6
  -1  -2  -9 112.979 248.106   6
  -3   1  -9-393.572 273.789   6
   3  -2  -9-132.235 244.415   6
  -2  -1  -9-128.554 247.885   6
   1   2  -9-308.132 273.406   6
  -1   3  -9 196.047 285.719   6
  -2   3  -9-515.827 299.616   6
   3  -1  -9 52.7142 237.708   6
   2  -3  -9 548.670 333.125   6
  -3   2  -9 368.171 306.791   6
   2   1  -9 16.6908 258.972   6
   3  -1  -8 1542.34 541.192   6
  -1   3  -8 480.589 407.873   6
  -3   1  -8 1096.30 508.093   6
   1   2  -8 2031.39 605.006   6
   3  -1  -8 872.095 493.665   5
   1  -3  -8 1244.72 506.256   6
  -3   2  -8 545.406 443.800   6
   2   1  -8 1016.98 595.803   5
  -2   3  -8 858.476 499.861   6
  -2  -1  -8 1279.94 546.727   6
  -1  -2  -8 1008.62 510.713   6
   3  -2  -8 548.362 448.035   5
   2  -3  -8 982.789 486.908   5
   3  -2  -8 1002.73 514.824   6
   2  -3  -8 802.298 500.029   6
   2   1  -8 978.524 474.983   6
   2  -3  -7 149.252 436.070   6
   3  -1  -7-18.4674 523.688   5
  -3   1  -7 73.1363 455.230   6
   3  -1  -7 529.635 512.149   6
  -1   3  -7 570.922 386.302   3
  -1  -2  -7 664.187 605.432   5
  -3   2  -7 706.949 429.290   6
   1  -3  -7 395.695 504.992   5
   2   1  -7 568.499 395.988   3
  -2  -1  -7 542.800 507.754   6
   1   2  -7 466.305 442.994   3
   2   1  -7 851.591 580.558   6
  -2   3  -7 708.165 524.054   6
   3  -2  -7 1636.88 710.094   5
   1   2  -7 393.089 482.197   6
   1   2  -7 962.832 1012.43   5
  -1   3  -7 343.658 426.674   6
   2  -3  -7 966.218 601.495   5
  -1  -2  -7 740.857 561.164   6
   1  -3  -7 142.234 529.909   6
   2   1  -7-593.613 716.328   5
   3  -2  -7 825.543 486.172   6
   1   2  -6 13289.3 1234.68   3
   2  -3  -6 14403.2 1508.85   5
   1  -3  -6 12663.5 1404.38   5
  -2  -1  -6 11574.7 1409.64   5
  -1   3  -6 11783.7 1290.21   6
  -1  -2  -6 11450.0 1298.80   6
   2  -3  -6 12802.8 1358.11   6
   2   1  -6 12744.7 1456.01   5
   1  -3  -6 12104.5 1289.75   6
  -2  -1  -6 10538.0 1243.64   6
   3  -1  -6 12284.3 1315.14   6
  -2   3  -6 13896.3 1408.09   6
   3  -1  -6 11851.9 1194.56   3
   3  -1  -6 12106.4 1363.27   5
  -1  -2  -6 11612.5 1428.89   5
  -1   3  -6 11726.3 1090.83   3
   3  -2  -6 13839.1 1451.58   5
   2   1  -6 12839.0 1203.84   3
   3  -2  -6 12735.2 1307.88   6
   1   2  -6 14498.7 1439.02   6
  -3   2  -6 12226.9 1347.23   6
   1   2  -6 12693.6 1717.56   5
   2   1  -6 13406.7 1390.21   6
  -3   1  -6 12314.4 1359.57   6
  -2  -1  -4 5516.23 1025.58   2
  -3   1  -4 5929.74 1218.18   2
  -3   2  -3 1136.23 559.920   2
  -2  -1  -3 287.369 411.120   2
  -1  -2  -3 482.686 295.559   2
  -3   1  -3 204.198 429.189   2
  -2   3  -2 19118.7 1536.51   2
  -3   1  -2 19149.7 1320.87   2
  -2  -1  -2 18355.5 1116.86   2
  -3   2  -2 19741.9 1421.17   2
  -1  -2  -2 19404.8 996.620   2
  -2  -1  -1 33510.6 1485.08   8
   2  -3  -1 34639.6 1568.66   8
   1  -3  -1 33818.3 1623.84   8
  -1  -2  -1 33078.2 1615.47   8
  -2  -1  -1 34382.2 1431.79   2
  -2  -1   0 34371.4 1167.75   8
  -1   3   0 39062.6 1930.06   1
  -2   3   0 34940.9 1563.92   1
  -2   3   0 35512.1 1206.33   2
  -3   2   0 34437.9 1169.14   2
   2  -3   0 34387.4 1259.99   8
   3  -2   0 35630.4 787.405   8
   1   2   0 34847.3 1125.73   1
  -1  -2   0 35893.0 1356.87   8
   1  -3   0 35652.5 1391.62   8
  -2   3   1 34093.3 1982.63   1
  -1  -2   1 33342.9 1340.38   8
   2  -3   1 34142.2 1310.06   8
  -1   3   1 33191.8 1855.59   1
   1  -3   1 35003.2 1409.44   8
  -3   1   1 34897.1 1540.75   1
  -2  -1   1 33009.9 1246.34   8
   1   2   1 32614.8 1493.83   1
  -3   2   1 34598.1 1743.00   1
  -1  -2   2 18975.9 789.967   1
  -2   3   2 20020.6 1952.34   1
  -1   3   2 17705.6 1692.67   1
  -3   1   2 20141.9 1524.98   1
   2   1   2 18238.7 1436.77   1
   1   2   2 18701.7 1502.22   1
  -3   2   2 18209.5 1614.44   1
   1  -3   2 17099.1 764.125   1
   3  -1   2 19376.0 1322.85   1
   2  -3   2 19054.6 934.011   1
  -2  -1   2 19653.2 1105.47   1
   3  -1   3 714.212 528.747   1
   2   1   3 1359.26 696.711   1
   3  -2   3 297.038 381.360   1
  -3   1   3 857.481 577.862   1
   2  -3   3 892.742 384.966   1
   1  -3   3 1182.04 412.989   1
  -2   3   3 1403.63 931.373   1
  -1   3   3 656.671 763.654   1
  -1  -2   3 594.276 268.600   1
  -3   2   3 989.511 604.989   1
  -2  -1   3 601.469 374.851   1
   1   2   3 1733.04 847.905   1
  -1   3   4 5365.48 1211.29   1
   3  -2   4 5628.25 1084.28   1
   1   2   4 5751.41 1339.63   1
   3  -1   4 4889.47 1130.54   1
   2   1   4 5464.80 1205.73   1
  -3   2   4 4659.02 985.503   1
  -3   1   4 4757.95 1017.03   1
  -2   3   4 5892.79 1363.14   1
  -1   3   5 1184.25 1020.93   1
  -3   2   5 714.373 638.850   1
   3  -1   5 618.085 743.231   1
   1   2   5-1110.01 1181.14   1
  -2   3   5-369.095 786.571   1
   2   1   5 231.049 1010.22   1
  -1   3   6 12914.8 1986.76   1
  -2   3   6 11469.7 1847.41   1
   1   2   6 12204.5 2067.81   1
   3   0  -9 122.906 255.169   6
   3  -3  -9 444.895 280.672   6
   0  -3  -9 289.236 281.779   6
   0   3  -9-343.276 267.936   6
  -3   0  -9-279.198 291.531   6
   3   0  -8-25.8093 441.931   6
   3  -3  -8-9.03538 379.699   6
   0  -3  -8 525.472 446.367   6
   3  -3  -8 324.123 418.091   5
   0   3  -8 555.172 450.780   6
   3   0  -8 771.183 445.028   5
  -3   3  -8 14.7741 378.731   6
  -3   0  -8 1421.04 528.134   6
   0  -3  -7 454.247 515.792   5
   3   0  -7-885.341 610.947   5
  -3   3  -7 598.204 550.609   6
   3  -3  -7 739.944 616.269   5
   0   3  -7 200.794 368.216   3
   3  -3  -7-680.482 545.408   6
   0   3  -7 210.998 522.707   6
   0  -3  -7-74.0555 487.630   6
   3   0  -7-159.254 464.031   6
  -3   0  -7-179.192 501.199   6
  -3   0  -6 11291.1 1435.80   5
   3   0  -6 11291.2 1191.54   3
  -3   0  -6 10390.4 1231.67   6
   3   0  -6 11835.0 1340.71   5
   3   0  -6 11936.0 1303.32   6
   3  -3  -6 11057.1 1261.22   6
  -3   3  -6 11049.8 1287.81   6
   0   3  -6 11607.7 1140.59   3
   0   3  -6 11538.6 1322.17   6
   3  -3  -6 10431.5 1246.60   5
   0  -3  -6 10878.2 1358.25   5
   0  -3  -6 10503.2 1246.27   6
  -3   0  -4 23493.4 1987.35   2
  -3   0  -3 14054.5 1264.61   2
  -3   3  -3 16250.1 1703.77   2
  -3   3  -2 20599.6 1528.72   2
  -3   0  -2 20441.3 1281.25   2
   0  -3  -2 22215.7 860.341   2
   3  -3  -1 986.698 358.686   8
   0  -3  -1 873.378 456.255   8
   0  -3   0 8069.45 766.660   8
  -3   3   0 8679.42 615.057   2
  -3   3   0 8266.78 789.649   1
   0   3   0 8333.90 697.784   1
  -3   0   0 8494.55 479.913   8
   3  -3   0 8088.65 582.210   8
   3  -3   1 1225.23 362.459   8
   0  -3   1 1230.64 444.738   8
   0   3   1 1929.62 564.311   1
  -3   3   1 206.921 542.973   1
  -3   3   1 1152.57 194.769   2
  -3   3   2 19701.5 1766.81   1
   0   3   2 23095.0 1823.57   1
   0  -3   2 21210.4 1425.88   8
   3   0   2 21289.5 1479.97   1
  -3   0   2 21208.2 1354.96   1
  -3   0   3 13975.6 1332.48   1
  -3   3   3 14507.2 1707.38   1
   3  -3   3 15687.2 1251.04   1
   0   3   3 16085.7 1822.65   1
   3   0   3 17121.2 1616.39   1
   3  -3   4 23754.4 1793.41   1
  -3   3   4 24119.1 2380.13   1
   0   3   4 22949.4 2332.87   1
  -3   0   4 23243.5 1864.69   1
   3   0   4 24062.1 2260.99   1
   0   3   5 2171.62 1214.97   1
  -3   3   5 1341.73 777.571   1
   3   0   5 324.220 765.922   1
   0   3   6 13410.6 2199.86   1
   0  -3   6 12482.0 2063.27   8
   2  -4  -9 101.614 240.090   6
   2   2  -9 163.247 262.618   6
  -2  -2  -9 536.415 279.904   6
   4  -2  -9-210.680 233.293   6
   4  -2  -8 6584.81 941.626   5
  -2  -2  -8 7310.25 970.792   6
  -4   2  -8 5209.50 845.612   6
   2   2  -8 6635.81 916.234   6
  -2   4  -8 5922.46 868.161   6
   2  -4  -8 5555.73 839.695   6
   4  -2  -8 5412.72 843.444   6
   4  -2  -7-376.797 496.930   5
   2   2  -7-2099.39 1029.15   5
   2   2  -7 136.305 370.431   3
   2   2  -7-90.6370 460.053   6
  -4   2  -7-43.2286 482.416   6
  -2   4  -7-320.586 479.528   6
   4  -2  -7-65.7285 462.663   6
  -2  -2  -7 43.5919 426.178   6
   2  -4  -7-51.3587 459.124   6
   2  -4  -7-14.7300 560.860   5
   4  -2  -6 1366.08 632.415   6
   4  -2  -6 830.330 622.168   5
   4  -2  -6-228.398 509.301   3
   2   2  -6 597.547 419.217   3
  -2  -2  -6 1047.07 653.014   5
  -2   4  -6 719.074 485.479   6
   2  -4  -6 68.3412 516.750   5
  -2  -2  -6 679.025 509.736   6
  -2   4  -6 929.859 479.724   3
   2   2  -6 70.7277 582.551   5
   2  -4  -6 594.368 525.131   6
  -4   2  -6 1065.36 544.258   6
   4  -2  -5 267.790 361.240   3
   2  -4  -5-746.601 548.163   5
   4  -2  -5 176.323 450.200   6
  -2  -2  -5 418.197 476.344   6
   2   2  -5 102.666 408.412   3
   4  -2  -5-256.678 464.039   5
   2  -4  -5 37.3668 467.106   6
  -4   2  -4 74040.0 3836.20   2
  -4   2  -3 985.720 610.710   2
  -2  -2  -3 597.736 400.177   2
  -4   2  -2 3100.44 708.655   2
  -2  -2  -2 2678.13 522.269   2
  -2  -2  -1 1194.77 498.379   8
   2  -4  -1 1451.63 590.702   8
   2  -4   0 141838. 3067.16   8
  -4   2   0 141604. 2914.96   2
  -2   4   0 145950. 4436.01   1
  -2  -2   0 138184. 2949.01   8
  -4   2   1 2195.42 620.796   1
   2  -4   1 1726.30 555.112   8
  -2  -2   1 1404.87 456.750   8
  -2   4   1 3496.50 1097.69   1
   2   2   1 1785.27 550.697   1
   2  -4   2 2654.70 310.680   1
  -2   4   2 4785.61 1326.28   1
  -4   2   2 3429.53 862.909   1
   2   2   2 2639.95 757.163   1
  -2  -2   2 2607.01 600.049   8
   2  -4   2 2371.56 582.721   8
  -4   2   3 503.065 612.503   1
   4  -2   3-44.7279 480.342   1
  -2   4   3 1020.58 934.076   1
   2   2   3 639.367 613.689   1
  -4   2   4 77266.4 3940.45   1
   4  -2   4 74394.2 3632.41   1
  -2   4   4 71087.6 4221.19   1
   2   2   4 75818.2 4211.77   1
  -2   4   5-7.45331 786.756   1
   2   2   5-716.032 828.078   1
  -4   2   5-386.835 620.758   1
   2  -4   6-203.731 879.770   8
  -2   4   6 317.895 693.960   1
  -2  -2   6 566.342 818.719   8
   2   2   6 1319.53 1061.20   1
   3  -4  -9-115.818 227.363   6
   1   3  -9-193.710 256.183   6
   4  -3  -9 18.4047 232.149   6
  -1  -3  -9-325.102 261.820   6
   4  -1  -9 407.347 274.787   6
  -3  -1  -9-75.6983 221.956   6
  -1   4  -9-237.574 242.360   6
   3   1  -9-166.047 247.706   6
   1  -4  -9-415.003 291.026   6
  -1  -3  -8 2041.05 604.533   6
   3   1  -8 1621.36 581.778   5
  -4   3  -8 1488.96 568.880   6
  -1   4  -8 1396.60 527.272   6
  -3   4  -8 918.719 437.782   6
  -3  -1  -8 1355.95 532.088   6
   3   1  -8 1964.50 573.775   6
   4  -1  -8 1551.98 501.451   6
   1   3  -8 1512.67 545.476   6
  -4   1  -8 1472.83 514.055   6
   3  -4  -8 1965.06 589.712   6
   3  -4  -8 1312.30 536.109   5
   1  -4  -8 1743.11 577.174   6
   4  -3  -8 1836.78 613.440   5
   4  -3  -8 1419.79 501.492   6
   4  -1  -8 1518.59 551.296   5
   4  -3  -7 438.972 462.480   6
   3  -4  -7 37.0467 523.708   6
   4  -1  -7 687.519 525.866   6
  -1   4  -7 427.361 419.002   3
   4  -3  -7 609.101 612.621   5
  -3   4  -7 1756.63 678.378   6
   4  -1  -7 112.499 468.367   5
   1   3  -7 1406.75 538.970   3
  -1  -3  -7 510.752 512.956   6
   1   3  -7 662.501 502.786   6
   3  -4  -7 672.228 632.145   5
  -4   1  -7-218.316 473.399   6
   3   1  -7 610.971 525.460   6
  -3  -1  -7 584.820 519.798   6
   1  -4  -7 915.666 491.554   6
  -4   3  -7-754.032 670.128   6
   3   1  -7 63.1952 551.270   5
  -1   4  -7 639.166 486.277   6
   3   1  -7 781.675 524.259   3
   1  -4  -7-532.118 631.370   5
   1   3  -6 4164.74 739.028   3
   3  -4  -6 4737.09 881.720   5
   4  -3  -6 4645.36 879.605   6
  -1   4  -6 4876.56 780.594   3
   3  -4  -6 4823.46 925.094   6
   3   1  -6 4408.59 792.612   3
  -4   3  -6 4542.60 931.125   6
   4  -3  -6 3839.34 838.983   5
  -1   4  -6 4284.33 901.232   6
  -1  -3  -6 2939.88 734.853   6
  -3   4  -6 3926.75 831.194   6
  -4   1  -6 4189.58 808.679   6
   1  -4  -6 3561.40 839.505   5
   3   1  -6 4925.83 944.054   6
   4  -1  -6 3833.78 750.122   3
   4  -1  -6 5884.31 1011.54   5
  -1  -3  -6 4806.10 977.361   5
   3   1  -6 4684.34 950.702   5
   1  -4  -6 3701.78 791.155   6
   4  -1  -6 4388.31 889.630   6
  -3  -1  -6 3673.28 833.867   6
   3  -4  -5 2517.00 642.699   6
   4  -3  -5 2712.35 696.613   5
   4  -1  -5 2545.13 569.815   3
  -1  -3  -5 3575.23 804.029   5
   3   1  -5 2929.09 586.148   3
   4  -3  -5 2556.21 638.479   6
   1  -4  -5 2936.56 733.329   6
   4  -3  -5 1750.47 476.649   3
   1   3  -5 2333.03 590.253   3
   4  -1  -5 2128.02 569.920   5
   1  -4  -5 1089.18 445.919   5
  -1  -3  -5 1920.98 594.072   6
   3  -4  -5 2348.37 663.336   5
  -4   3  -4 29904.3 2564.70   2
  -3  -1  -4 27985.9 2073.10   2
  -4   1  -4 27940.0 2272.40   2
  -3  -1  -3 15902.8 1309.52   2
  -4   1  -3 15712.0 1442.46   2
  -4   3  -3 14715.8 1546.75   2
  -1  -3  -3 15471.2 1065.37   2
  -3   4  -2 16608.2 1556.18   2
  -1  -3  -2 15041.6 897.466   2
  -4   1  -2 15654.2 1240.14   2
  -4   3  -2 15212.4 1339.26   2
  -3  -1  -2 16150.5 1186.81   2
   1  -4  -1 61285.4 2451.34   8
  -3  -1  -1 63526.5 2196.71   8
  -3   4  -1 63523.4 2405.03   2
  -1  -3  -1 61714.2 2443.48   8
   1   3  -1 63957.9 1235.06   1
   3  -4  -1 64082.8 2295.81   8
  -3  -1   0 7342.70 682.998   8
  -3   4   0 6749.64 673.631   2
   1  -4   0 6103.37 754.266   8
   4  -3   0 6624.08 458.614   8
  -4   3   0 7119.71 673.747   2
  -3   4   0 7515.52 904.305   1
   1   3   0 7004.43 672.732   1
  -1   4   0 8270.76 1105.12   1
  -1  -3   0 7115.06 826.372   8
   3  -4   0 7040.63 691.004   8
  -1  -3   1 64635.4 2162.31   8
  -3   4   1 62724.9 2975.23   1
  -4   3   1 64856.5 1700.75   2
   1  -4   1 61626.0 2195.51   8
   1   3   1 64420.7 2369.58   1
   4  -3   1 65268.8 1606.35   8
   3  -4   1 61726.6 1949.58   8
  -3  -1   1 62182.8 1794.93   8
  -4   3   1 63408.8 2737.33   1
  -1   4   1 62879.7 2756.47   1
  -1  -3   2 16244.8 1320.33   8
  -3   4   2 14696.6 1684.81   1
  -4   3   2 15830.9 1661.68   1
  -1   4   2 15627.2 1615.95   1
   3  -4   2 14911.2 1177.87   8
   3   1   2 17201.8 1457.33   1
  -4   1   2 15129.8 1344.84   1
   1  -4   2 15022.5 1291.42   8
   1   3   2 15025.5 1460.93   1
  -4   3   3 13978.1 1678.68   1
  -3   4   3 15819.1 1972.41   1
  -1   4   3 12697.3 1647.73   1
  -4   1   3 14087.5 1438.39   1
   4  -1   3 14440.3 1477.92   1
   1  -4   3 13847.2 1425.33   8
  -3  -1   3 14591.3 1133.55   1
   3  -4   3 15026.9 1078.06   1
   1   3   3 16510.5 1813.71   1
   4  -3   3 15061.0 1309.78   1
   3   1   3 16265.5 1705.55   1
   1   3   4 26044.2 2567.77   1
  -3   4   4 26306.9 2619.09   1
   4  -1   4 27931.5 2438.22   1
  -4   1   4 26723.5 2171.48   1
  -4   3   4 29316.5 2629.48   1
   4  -3   4 27103.9 2077.86   1
   3   1   4 28059.1 2605.69   1
  -1   4   4 26049.5 2640.36   1
   4  -1   5 2093.56 1122.73   1
  -1  -3   5 1534.95 965.275   8
  -3   4   5 1138.23 754.434   1
   1  -4   5 1249.83 787.164   8
   1   3   5 1236.89 861.298   1
   3   1   5 4341.30 1253.04   1
  -1   4   5 3448.99 1425.30   1
  -4   3   5 3370.50 1154.62   1
  -1   4   6 3348.89 1233.54   1
  -1  -3   6 4585.74 1260.47   8
   3  -4   6 3927.16 1167.52   8
   1   3   6 6198.48 1730.03   1
  -3   4   6 5622.82 1451.80   1
   1  -4   6 5079.12 1389.28   8
   3   1   6 5644.31 1681.99   1
   4  -4  -9 162.722 204.668   6
   4   0  -9 139.976 219.476   6
   0  -4  -9 250.057 260.509   6
   0   4  -9-488.000 275.103   6
   4   0  -8 583.796 364.639   6
   4  -4  -8 871.175 449.752   6
   4  -4  -8 1357.11 563.830   5
   4   0  -8 1648.61 527.613   5
   0   4  -8 1059.52 512.128   6
  -4   0  -8 1359.88 547.377   6
  -4   4  -8 991.618 607.540   6
   0  -4  -8 1493.85 579.525   6
   4   0  -7-702.694 573.283   5
   0   4  -7 263.653 448.272   6
   4  -4  -7 753.077 563.847   6
   4   0  -7 134.219 423.897   6
   0   4  -7 230.526 385.310   3
   4  -4  -7-114.765 507.957   5
   0  -4  -7 1009.64 630.625   6
  -4   0  -7-521.667 420.605   6
  -4   4  -7 133.214 450.685   6
   4   0  -7-947.312 530.267   3
   0   4  -6 5830.34 857.691   3
   4   0  -6 5950.55 1006.48   5
  -4   0  -6 5004.26 918.287   6
   4  -4  -6 6829.96 1028.97   6
   0  -4  -6 6073.88 1007.38   6
   4  -4  -6 6499.60 1042.42   5
   4   0  -6 6398.34 905.902   3
   0  -4  -6 6373.57 1103.06   5
  -4   4  -6 6037.63 973.661   6
   4   0  -6 6947.50 1054.15   6
   0  -4  -5 2342.70 678.859   6
   4  -4  -5 3293.44 678.834   5
   4   0  -5 2794.22 644.504   5
   4   0  -5 3146.16 616.760   3
   0   4  -5 3760.54 687.033   3
   0  -4  -5 4047.59 835.215   5
  -4   0  -5 2717.81 672.760   6
   4  -4  -5 3684.66 743.765   6
  -4   0  -4 6899.54 1142.19   2
  -4   0  -3 6126.26 967.111   2
  -4   4  -3 6851.40 1275.76   2
   0  -4  -2 66241.8 3168.56   8
  -4   0  -2 63952.7 2522.52   2
   0  -4  -2 67333.0 1508.94   2
  -4   4  -2 63214.4 2867.31   2
  -4   4  -1 20552.0 1412.84   2
   0  -4  -1 19302.5 1503.76   8
   4  -4  -1 18313.3 1177.84   8
  -4   0  -1 18513.2 1338.94   2
   0  -4   0 4835.83 830.340   8
  -4   0   0 4106.31 427.276   8
  -4   4   0 4434.39 585.814   2
   0   4   0 4845.34 791.281   1
  -4   4   0 5476.74 876.095   1
   4  -4   0 4725.41 573.264   8
  -4   4   1 18992.4 1739.46   1
   4  -4   1 18183.8 1041.35   8
   0  -4   1 19170.0 1381.25   8
  -4   4   1 18864.2 835.276   2
  -4   0   1 18542.0 902.319   8
   0   4   1 19139.6 1586.59   1
   0   4   2 67421.4 3207.22   1
  -4   4   2 63440.5 3258.74   1
   4   0   2 66229.4 2702.37   1
   0  -4   2 68760.1 2669.08   8
   4  -4   2 65590.4 2313.13   8
   0   4   3 6198.47 1279.21   1
   4   0   3 5137.79 1067.92   1
  -4   4   3 5008.81 1146.86   1
   4  -4   3 6462.58 852.296   1
  -4   0   3 5407.10 809.074   1
   0  -4   3 6378.58 1062.34   8
  -4   4   4 6418.73 1326.82   1
   0  -4   4 6341.77 1309.79   8
   4   0   4 7070.12 1406.65   1
   0   4   4 6665.33 1543.05   1
  -4   0   4 6107.74 935.423   1
   0  -4   5 1818.14 930.633   8
  -4   4   5 3316.82 1193.20   1
   0   4   5 4743.27 1559.50   1
   4   0   5 3889.91 1263.85   1
   0  -4   6 6634.51 1515.20   8
   0   4   6 7967.38 1806.84   1
  -4   4   6 6359.27 1508.43   1
   4  -4   6 4200.62 951.626   8
   2  -5  -9 150.098 208.155   6
   2   3  -9-67.4568 213.822   6
   5  -3  -9 53.1395 227.223   6
   3  -5  -9 153.747 235.197   6
   5  -2  -9-189.305 206.526   6
   3   2  -9-51.8900 225.784   6
   3   2  -8 5407.46 803.651   6
  -3  -2  -8 4745.66 760.167   6
  -5   2  -8 5746.62 928.591   6
  -3   5  -8 4620.88 835.352   6
   5  -2  -8 5261.79 820.299   5
   3  -5  -8 5858.03 828.641   6
   5  -2  -8 4378.60 714.874   6
   2  -5  -8 4728.32 762.097   6
   5  -3  -8 3995.84 682.561   6
  -2   5  -8 5280.24 823.953   6
  -2  -3  -8 5685.91 843.546   6
   2   3  -8 4964.79 791.802   6
   5  -3  -8 4772.86 791.087   5
  -3  -2  -7 418.738 477.788   6
   5  -2  -7-142.126 472.376   5
   5  -3  -7-641.875 605.437   5
   3   2  -7 74.1008 434.926   6
   2  -5  -7 2.68714 567.651   5
  -3   5  -7 717.363 600.213   6
   2  -5  -7-96.5425 463.723   6
  -5   2  -7 610.287 502.682   6
   3   2  -7-195.254 423.322   3
   3   2  -7-801.616 646.266   5
  -5   3  -7-444.804 508.901   6
   5  -3  -7-64.9680 435.133   6
   3  -5  -7-315.777 567.967   5
  -2   5  -7 145.739 414.848   6
   3  -5  -7 528.375 468.418   6
   5  -2  -7 208.260 419.868   6
   2   3  -7-107.473 517.396   6
   2   3  -7 163.271 429.517   3
  -2  -3  -7 499.705 528.542   6
   5  -2  -6-250.728 462.116   3
   2  -5  -6 621.035 584.356   5
  -2   5  -6 757.024 503.982   6
   2   3  -6 612.005 461.524   3
   5  -3  -6 594.159 644.503   5
   2  -5  -6 807.562 576.411   6
  -3  -2  -6 1045.15 618.291   6
  -2  -3  -6 799.937 628.373   6
   5  -2  -6 210.550 479.875   5
   3  -5  -6-341.389 507.662   6
   3   2  -6 788.499 493.081   3
   3  -5  -6 546.326 606.529   5
   5  -2  -6 539.346 455.060   6
   3   2  -6 1417.10 694.582   5
   5  -3  -6 467.061 454.081   6
   2   3  -6 2574.18 952.786   5
  -5   3  -6-259.642 682.414   6
  -5   2  -6 107.919 589.672   6
  -2   5  -6 526.115 413.869   3
  -3   5  -6 500.434 466.149   6
   5  -3  -5-309.246 500.513   5
   5  -2  -5 110.138 449.203   5
   3   2  -5 551.837 463.640   3
   2  -5  -5-346.720 542.781   5
   2   3  -5-35.0941 343.747   3
  -2  -3  -5 313.382 552.078   5
   5  -3  -5-491.935 437.645   3
  -2  -3  -5-475.138 508.420   6
  -3  -2  -5-259.494 545.143   6
   3   2  -5-265.024 403.711   5
   5  -2  -5-121.564 340.900   3
   2  -5  -5 92.8672 514.675   6
   3  -5  -5-486.183 491.997   6
   5  -2  -5 493.733 472.181   6
   5  -3  -5 60.2289 404.311   6
  -2   5  -5-166.805 336.737   3
   3  -5  -5-39.6653 537.244   5
  -5   2  -4 17133.0 1941.96   2
  -3  -2  -4 17551.9 1628.15   2
  -5   3  -4 18673.3 2156.94   2
  -5   3  -3 444.288 530.209   2
  -2  -3  -3 256.449 293.312   2
  -3  -2  -3 455.404 385.111   2
  -5   2  -3 214.528 537.313   2
  -5   2  -2 5859.22 879.169   2
  -2  -3  -2 6108.88 724.871   2
   2  -5  -2 6135.53 1049.73   8
  -3  -2  -2 6141.26 797.751   2
  -5   3  -2 6114.97 978.115   2
  -5   3  -1 20522.1 1362.45   2
  -3  -2  -1 21175.5 1596.16   8
  -5   2  -1 21251.3 1438.52   2
  -2  -3  -1 19614.4 1559.71   8
   2  -5  -1 19984.2 1556.81   8
   3  -5  -1 18877.8 1385.79   8
  -3  -2   0 90671.3 2723.43   8
   2   3   0 90958.0 2382.75   1
  -5   2   0 90152.3 2811.19   2
  -5   3   0 90210.4 2555.24   2
   2  -5   0 91691.5 2915.98   8
  -2  -3   0 89738.4 2884.86   8
   3  -5   0 92623.4 2732.80   8
  -2   5   0 87401.9 5051.16   1
  -3   5   0 95935.7 4058.70   1
  -5   3   1 20517.1 1650.45   1
  -2  -3   1 21315.8 1423.64   8
   2   3   1 21312.0 1443.17   1
  -2   5   1 22185.3 2078.17   1
  -3   5   1 19505.0 1903.13   1
  -3  -2   1 20498.2 1285.62   8
   2  -5   1 21247.0 1456.55   8
   3  -5   1 21859.8 1420.02   8
  -5   3   1 20519.2 1234.96   2
   5  -3   1 21338.8 845.816   8
   3   2   1 20185.4 1386.91   1
   3  -5   2 5890.23 857.298   8
   3   2   2 6565.64 1050.32   1
   2  -5   2 5865.55 900.091   8
  -5   2   2 5750.81 959.232   1
  -3   5   2 6110.63 1285.46   1
  -2   5   2 6685.91 1358.30   1
  -2  -3   2 5749.96 850.207   8
  -3  -2   2 6313.05 859.051   8
  -5   3   2 5606.81 1039.23   1
   2   3   2 6980.31 1094.96   1
  -3   5   3 502.882 742.041   1
  -2   5   3 1058.45 1084.30   1
   3  -5   3 540.397 520.912   8
  -2  -3   3 432.497 521.374   8
  -3  -2   3 859.270 521.252   8
  -5   2   3-61.1405 597.460   1
   5  -2   3 476.232 443.076   1
   2  -5   3 411.054 560.804   8
   5  -3   3 281.795 388.368   1
   2   3   3 971.327 669.534   1
   3   2   3 358.711 682.310   1
  -5   3   3 1047.41 762.185   1
   2  -5   4 16262.6 1889.23   8
  -5   2   4 17099.8 1952.02   1
   5  -3   4 18323.7 1876.61   1
   3  -5   4 20366.9 2142.57   8
   2   3   4 20065.6 2421.00   1
  -3   5   4 18274.2 2317.80   1
   5  -2   4 19507.6 2024.21   1
  -2   5   4 19054.1 2398.55   1
  -2  -3   4 17049.2 1905.97   8
   3   2   4 18956.5 2296.43   1
  -5   3   4 18147.9 2167.05   1
  -5   3   5-227.611 739.797   1
  -2  -3   5-470.873 844.748   8
   2   3   5 1513.87 991.370   1
  -3  -2   5 445.227 681.264   8
   2  -5   5-565.260 974.259   8
   3   2   5-549.780 1014.71   1
   3  -5   5-647.331 1001.18   8
  -3   5   5-352.216 1060.31   1
  -2   5   5-209.173 822.921   1
   5  -2   5-44.5152 701.860   1
   2  -5   6-1195.11 1102.57   8
  -3   5   6 481.865 741.360   1
  -2   5   6 843.413 866.569   1
   3  -5   6 1605.59 908.926   8
   3   2   6 815.591 887.384   1
   2   3   6 2065.41 1291.74   1
  -2  -3   6 1723.85 1035.40   8
  -3  -2   6 1648.48 830.047   8
   4   1  -9 271.821 218.787   6
   1  -5  -9 362.465 240.967   6
   4  -5  -9 231.263 207.336   6
   5  -4  -9 297.048 220.765   6
   5  -1  -9 7.20574 196.347   6
   1   4  -9-142.202 216.089   6
  -5   1  -8 2125.86 592.656   6
  -1  -4  -8 1924.51 558.444   6
   4   1  -8 1504.52 515.386   6
  -4  -1  -8 1183.24 486.004   6
   5  -4  -8 2096.63 609.416   5
   4   1  -8 2657.93 580.076   5
   4  -5  -8 811.355 487.035   5
   5  -4  -8 1673.80 505.110   6
   5  -1  -8 1539.14 493.408   6
   4  -5  -8 1086.81 423.319   6
   5  -1  -8 2363.52 596.912   5
  -4   5  -8 182.565 517.247   6
   1   4  -8 1245.90 498.943   6
  -1   5  -8 1681.20 530.422   6
   1  -5  -8 1918.62 579.630   6
  -4  -1  -7 307.430 496.158   6
  -1  -4  -7 473.882 514.816   6
   1   4  -7 208.944 434.378   6
   4   1  -7-35.3327 409.539   3
   1   4  -7 554.397 442.599   3
  -1   5  -7 256.947 471.047   6
   4   1  -7-15.7115 514.767   5
   5  -4  -7 441.987 516.745   5
  -1   5  -7 168.791 358.118   3
   1  -5  -7-78.3790 574.296   5
   4   1  -7 538.209 465.021   6
   1  -5  -7 434.063 536.199   6
  -5   4  -7-458.217 565.654   6
  -4   5  -7 1012.40 645.542   6
   5  -4  -7 626.430 537.968   6
   4  -5  -7 406.944 503.618   5
   4  -5  -7 189.588 444.654   6
   5  -1  -7-168.101 496.731   5
  -5   1  -7 110.254 427.823   6
   5  -1  -7 143.080 443.410   6
   1   4  -6 2998.20 678.969   3
   4   1  -6 3265.04 726.947   3
   1  -5  -6 3153.58 871.439   6
   4  -5  -6 2602.50 787.902   5
  -4   5  -6 2138.23 728.705   6
  -1  -4  -6 1556.90 642.435   6
   5  -1  -6 3115.39 865.671   5
   5  -1  -6 2526.33 651.774   3
  -1   5  -6 2424.09 575.487   3
   5  -1  -6 2403.80 688.719   6
   5  -4  -6 3006.46 800.691   5
   4   1  -6 3186.04 846.079   5
  -5   1  -6 3199.60 789.591   6
   4  -5  -6 2822.42 725.137   6
   5  -4  -6 1735.70 586.866   6
   1  -5  -6 2717.81 736.650   5
  -1  -4  -6 2740.02 854.297   5
  -4  -1  -6 1930.61 688.834   6
   1  -5  -5 1927.56 622.270   6
  -5   1  -5 4638.17 1307.09   2
  -1  -4  -5 2892.90 785.751   5
   4   1  -5 2357.18 565.132   3
  -4  -1  -5 1215.64 544.902   6
   4   1  -5 1662.52 582.955   5
   5  -4  -5 2433.09 600.311   6
  -1  -4  -5 3071.12 778.171   6
   5  -4  -5 2720.43 658.346   5
   1   4  -5 3259.67 623.781   3
   4  -5  -5 2361.12 656.244   5
   1  -5  -5 2737.71 732.027   5
   4  -5  -5 2063.91 586.664   6
   5  -1  -5 2015.14 542.417   3
   5  -1  -5 2627.91 652.231   5
  -1   5  -5 2844.17 646.274   3
  -5   1  -4 13696.5 1660.32   2
  -5   4  -4 16988.8 2146.70   2
  -4  -1  -4 13549.6 1482.97   2
  -4  -1  -3 935.182 481.376   2
  -5   4  -3 194.935 613.571   2
  -5   1  -3 1242.96 662.963   2
  -5   1  -2 17064.3 1449.48   2
  -1  -4  -2 17805.3 1045.03   2
  -4   5  -2 18755.8 1735.55   2
  -5   4  -2 17713.8 1526.88   2
  -4  -1  -2 19870.3 1488.92   2
   1  -5  -2 18482.4 1765.18   8
  -1  -4  -2 17376.1 1721.11   8
   4  -5  -1 24066.2 1508.96   8
  -5   1  -1 25174.2 1663.28   2
  -4   5  -1 24285.6 1681.55   2
  -1  -4  -1 24589.9 1780.29   8
   1  -5  -1 27190.4 1854.15   8
   1   4  -1 23842.9 962.424   1
  -5   4  -1 27182.4 1610.66   2
  -4   5   0 2606.64 568.360   2
  -4  -1   0 2828.46 587.562   8
  -4   5   0 3826.44 986.342   1
  -5   4   0 2984.29 534.255   2
   1   4   0 2882.54 553.660   1
   5  -4   0 2717.10 383.967   8
  -1  -4   0 4366.87 854.786   8
   1  -5   0 3546.23 835.364   8
   4  -5   0 3539.63 624.788   8
  -1  -4   1 25816.4 1663.68   8
  -4   5   1 24392.6 989.678   2
   1   4   1 24958.7 1661.77   1
  -5   1   1 25801.0 944.176   8
  -5   4   1 25526.5 1193.64   2
   4  -5   1 25756.3 1451.74   8
  -4   5   1 23297.5 2192.87   1
  -1   5   1 23164.4 1808.62   1
   5  -4   1 25973.0 1171.13   8
  -5   4   1 25850.1 2008.40   1
   1  -5   1 24805.9 1689.51   8
  -4  -1   1 23315.6 1243.43   8
   1   4   2 17459.8 1688.02   1
  -1   5   2 18032.6 1839.85   1
   4  -5   2 18631.7 1373.80   8
   1  -5   2 19714.1 1586.69   8
  -5   4   2 18045.1 894.084   2
  -4  -1   2 18587.4 1291.92   8
  -4   5   2 17171.2 1860.87   1
  -1  -4   2 19210.1 1533.03   8
  -5   4   2 17596.9 1887.08   1
   4   1   2 19168.1 1609.57   1
   5  -4   2 18883.4 1235.39   8
   1   4   3 902.361 870.782   1
  -5   4   3 1830.98 1015.66   1
  -4   5   3-22.4940 851.194   1
   4  -5   3 154.115 582.102   8
   1  -5   3 764.300 566.866   8
   5  -1   3 696.688 516.258   1
   5  -4   3 653.033 438.265   1
  -5   1   3 818.736 466.932   1
  -1  -4   3 1018.14 637.672   8
  -1   5   3-1867.59 1182.29   1
   4   1   3 704.258 673.191   1
  -1  -4   4 14597.2 1801.66   8
   5  -1   4 14448.1 1912.39   1
  -5   1   4 14458.0 1608.44   1
  -5   4   4 15237.2 2153.01   1
   1   4   4 13418.9 1913.51   1
   4   1   4 14434.1 1994.53   1
   4  -5   4 14042.2 1840.14   8
  -4   5   4 13043.9 1888.30   1
   1  -5   4 12603.6 1694.16   8
  -1   5   4 12216.1 2025.47   1
   4   1   5 2420.64 1158.40   1
   4  -5   5 2280.93 996.713   8
   5  -1   5 1969.97 1072.83   1
  -4   5   5 1577.20 784.066   1
  -1  -4   5 1655.93 844.149   8
  -5   4   5 3755.19 1323.05   1
   1   4   5 1990.52 1029.86   1
  -1   5   5 3839.28 1431.45   1
   1  -5   5 2102.09 919.895   8
   5  -4   6 594.401 365.028   8
   4   1   6 4038.60 1503.58   1
   4  -5   6 613.603 629.889   8
  -4  -1   6 1678.85 876.366   8
  -1  -4   6 2670.41 1045.33   8
   1   4   6 2287.92 1245.21   1
  -1   5   6 3031.73 1215.25   1
  -4   5   6 3789.47 1281.66   1
   1  -5   6 3741.33 1311.55   8
   5   0  -9 250.905 203.019   6
   0   5  -8 1313.68 479.783   6
   5   0  -8 993.724 412.360   6
  -5   0  -8 1287.80 483.805   6
   5   0  -8 1069.81 454.891   5
   0  -5  -8 840.595 449.356   6
   5  -5  -8 1156.38 420.923   6
   5  -5  -8 845.755 482.915   5
   5   0  -7 1429.32 576.732   6
  -5   0  -7 1895.96 685.194   6
   5  -5  -7 700.909 475.804   6
   0  -5  -7 1278.50 591.132   6
   5   0  -7 1191.62 480.499   5
   0   5  -7 1381.48 626.050   6
   5   0  -7 1232.58 437.193   3
   5  -5  -7 1975.47 710.779   5
   0   5  -7 1360.55 477.625   3
   0   5  -6 3157.90 653.157   3
   5   0  -6 3112.65 707.680   3
   5  -5  -6 4014.21 846.276   5
  -5   0  -6 4033.58 882.249   6
   0  -5  -6 2806.25 794.205   6
   5   0  -6 4139.96 871.361   6
   0  -5  -6 3845.79 923.491   5
   5  -5  -6 3246.09 737.601   6
   5   0  -6 2727.82 769.094   5
   5   0  -5 3755.80 735.182   3
   0   5  -5 2990.09 635.427   3
   5   0  -5 2191.03 591.287   5
   0  -5  -5 2826.31 834.530   5
   5  -5  -5 3811.67 787.957   5
  -5   0  -5 2268.17 639.160   6
   0  -5  -5 3204.12 816.822   6
   5  -5  -5 3447.41 671.853   6
  -5   0  -4 12290.6 1533.63   2
  -5   5  -3 730.197 808.382   2
  -5   0  -3 838.568 584.259   2
   0  -5  -2 56224.7 1536.53   2
  -5   5  -2 55802.3 2870.14   2
  -5   0  -2 56950.1 2711.05   2
   0  -5  -2 56992.8 3133.65   8
  -5   0  -1 19264.8 1572.81   2
  -5   5  -1 21654.1 1597.42   2
   0  -5  -1 22354.8 1800.36   8
   5  -5  -1 22129.6 1404.90   8
   0  -5   0 17845.5 1545.31   8
   0   5   0 16563.4 1321.11   1
  -5   0   0 17165.2 910.476   8
   5  -5   0 16597.0 1060.38   8
  -5   5   0 16997.6 1223.55   2
  -5   5   1 21719.2 1106.76   2
   0   5   1 20730.1 1790.29   1
  -5   0   1 19993.7 1045.81   8
   5  -5   1 21219.3 1249.83   8
  -5   5   1 21432.5 2075.35   1
   0  -5   1 23075.4 1687.23   8
   0  -5   2 56005.0 2722.01   8
   5  -5   2 57551.1 2293.03   8
   0   5   2 57024.9 3204.30   1
  -5   5   2 55707.7 3435.68   1
  -5   0   2 57570.6 2134.68   8
   5   0   3-49.4951 644.005   1
   0  -5   3 1010.67 744.773   8
   0   5   3 765.395 776.206   1
   5  -5   3 39.3702 379.962   1
   5  -5   3-256.499 554.000   8
  -5   5   3 1397.10 1016.02   1
   0  -5   4 13814.7 1812.11   8
   5   0   4 11224.6 1718.02   1
  -5   5   4 13482.5 2100.33   1
   0   5   4 11902.6 1900.65   1
   5  -5   4 14468.8 1880.06   8
   5  -5   5 3619.41 1004.66   8
   0  -5   5 4509.94 1342.59   8
   0   5   5 5360.50 1712.91   1
   5   0   5 3880.18 1297.00   1
  -5   5   5 4524.94 1470.11   1
  -5   0   6 2595.99 919.779   8
   3   3  -9 293.374 205.647   6
   3   3  -8 4555.41 709.976   6
   3  -6  -8 4940.56 768.049   6
  -3  -3  -8 4570.94 713.216   6
   6  -3  -8 4698.81 731.486   5
  -3   6  -8 4002.06 803.944   6
   6  -3  -8 3593.63 613.563   6
   6  -3  -7 88.9687 478.893   5
   3  -6  -7-128.963 584.916   5
   3   3  -7-937.775 667.632   5
   6  -3  -7 289.767 411.758   6
   3   3  -7-236.060 415.582   3
  -3  -3  -7 1274.13 594.561   6
   3  -6  -7 467.920 497.717   6
  -3   6  -7 400.593 505.771   6
   3   3  -7-287.127 433.639   6
   3   3  -6 361.412 394.469   3
  -3  -3  -6 358.551 441.903   6
   6  -3  -6 1747.48 714.946   5
   6  -3  -6 489.811 443.966   6
   3  -6  -6 437.167 442.165   6
   3  -6  -6 950.757 588.145   5
   3   3  -6 1529.60 844.700   5
  -3   6  -6 482.461 461.323   6
  -3  -3  -5 96.4644 535.611   6
   3   3  -5 707.671 484.714   3
   6  -3  -5-69.1227 416.769   5
   6  -3  -5-368.849 446.286   3
   6  -3  -5-119.888 388.560   6
   3  -6  -5-468.799 462.440   6
   3   3  -5-762.005 607.228   5
   3  -6  -5-220.728 550.465   5
  -6   3  -4 1544.29 872.993   2
  -3  -3  -3 130.525 320.664   2
  -6   3  -3-576.057 795.387   2
   3  -6  -2 27862.4 2070.54   8
  -3  -3  -2 29007.2 1730.71   2
  -6   3  -2 27514.5 1962.87   2
   3  -6  -1 754.132 539.254   8
  -3  -3  -1 333.914 537.932   8
  -6   3  -1 137.707 474.942   2
  -3  -3   0 55675.1 2517.85   8
   3  -6   0 56564.2 2437.63   8
  -6   3   0 56250.2 2332.09   2
  -3   6   1-403.929 827.614   1
   3  -6   1 908.553 558.758   8
   3   3   1 577.968 458.911   1
  -3  -3   1 524.588 468.188   8
   6  -3   1 328.827 140.879   8
  -6   3   1-42.9496 394.411   2
   3  -6   2 27567.7 1872.07   8
   3   3   2 28889.2 2131.75   1
  -6   3   2 27799.2 2226.25   1
  -3  -3   2 28870.5 1836.84   8
  -3   6   2 27995.2 2494.55   1
   3  -6   3 486.423 664.962   8
  -6   3   3 322.830 554.636   1
   3   3   3 522.003 842.635   1
  -3  -3   3-106.569 607.623   8
   6  -3   3 101.185 476.130   1
  -3   6   3 1293.74 908.223   1
  -3   6   4 264.941 878.801   1
   3   3   4 1699.91 1094.39   1
  -6   3   4 1297.57 824.891   1
   6  -3   4 2306.84 907.070   1
   3  -6   4 862.150 692.016   8
  -3  -3   4 1218.55 814.819   8
  -3   6   5-423.563 893.551   1
   3   3   5 679.644 1058.45   1
  -3  -3   5-80.5938 747.802   8
   3  -6   5-8.29091 841.846   8
  -6   3   5 9.92491 611.097   1
   6  -4  -8 1944.09 576.184   5
  -2  -4  -8 1946.50 545.479   6
   4  -6  -8 2441.98 588.897   6
  -2   6  -8 1581.18 512.379   6
   2   4  -8 2436.25 581.503   6
   6  -4  -8 1492.32 453.791   6
   4   2  -8 2034.33 472.091   5
  -4  -2  -8 1588.39 492.684   6
   2  -6  -8 1694.82 493.319   6
   6  -2  -8 2039.77 502.289   6
   4   2  -8 1696.73 505.479   6
   6  -2  -8 2204.59 559.364   5
   2   4  -7 409.894 493.733   6
   6  -2  -7-522.716 449.389   6
   4   2  -7 364.637 508.071   6
   6  -4  -7-36.9314 526.427   5
   4   2  -7-280.255 385.798   3
   2  -6  -7 1044.20 612.999   6
   6  -4  -7-86.7135 425.922   6
  -4   6  -7-344.413 495.937   6
   2  -6  -7 305.945 618.364   5
  -2   6  -7-79.3838 317.280   3
  -2   6  -7-12.9910 496.256   6
   6  -2  -7-640.401 561.613   5
  -2  -4  -7 440.073 532.365   6
   4  -6  -7 173.296 448.368   6
   4  -6  -7 267.900 496.162   5
   4   2  -7-168.499 487.059   5
  -4  -2  -7 476.926 562.901   6
   2   4  -7 207.096 407.014   3
   4  -6  -6 2122.91 741.153   5
   4   2  -6 2088.43 662.606   3
  -2   6  -6 1238.00 463.614   3
   6  -4  -6 1843.36 687.007   5
   6  -2  -6 1779.13 658.060   6
   2   4  -6 1153.42 538.673   3
  -2  -4  -6 1021.46 567.952   6
   2  -6  -6 1605.14 706.318   5
   6  -4  -6 1647.84 596.502   6
   6  -2  -6 1373.51 632.954   5
   2  -6  -6 1728.79 643.086   6
  -4   6  -6 1734.52 731.823   6
   6  -2  -6 1351.04 541.145   3
  -4  -2  -6 1479.17 620.399   6
   4  -6  -6 1419.01 625.673   6
   4   2  -6 2032.40 769.633   5
   2  -6  -5-473.806 492.865   5
   4   2  -5-626.771 533.799   5
   4   2  -5 313.656 361.763   3
   4  -6  -5-147.740 448.937   5
   2   4  -5 392.972 485.565   3
   6  -4  -5 427.453 559.820   5
   6  -4  -5 238.919 421.947   6
  -2  -4  -5 496.050 545.018   6
   6  -2  -5 340.478 456.905   5
  -6   2  -5 1584.04 1071.99   2
   6  -2  -5 656.274 509.247   6
  -4  -2  -5 573.847 508.854   6
   2  -6  -5 824.466 491.251   6
   4  -6  -5-181.092 457.176   6
   6  -2  -5-199.857 393.682   3
  -2   6  -5 500.290 460.814   3
  -6   4  -4 1947.41 1035.11   2
  -6   2  -4 1836.91 917.702   2
  -4  -2  -4 1347.51 579.996   2
  -6   2  -3 2337.85 842.871   2
  -6   4  -3 1369.01 612.855   2
  -4  -2  -3 1339.51 536.661   2
  -6   2  -2 46363.0 2535.14   2
   2  -6  -2 49101.5 2933.06   8
  -6   4  -2 47714.7 2586.42   2
  -4  -2  -2 47325.1 2350.57   2
  -2  -4  -2 47877.8 2030.29   2
  -2  -4  -2 48963.5 3115.08   8
  -4  -2  -1 8354.68 1253.38   8
   2  -6  -1 6696.60 1036.27   8
   2   4  -1 6926.74 649.569   1
  -2  -4  -1 6057.72 1098.99   8
  -6   2  -1 6164.11 980.864   2
  -6   4  -1 5347.85 831.947   2
   4  -6  -1 5641.04 870.853   8
   2  -6   0 39225.8 2170.07   8
   6  -4   0 39013.6 1039.88   8
   2   4   0 39655.6 1816.24   1
  -2  -4   0 40091.8 2246.76   8
  -6   2   0 39191.7 2130.26   2
   4  -6   0 40118.2 2019.03   8
  -4  -2   0 43490.3 2315.06   8
  -4   6   0 41788.8 3137.95   1
  -6   4   0 39500.4 1865.72   2
   2   4   1 6663.66 978.339   1
  -6   2   1 4818.44 353.782   8
   4  -6   1 5992.39 827.263   8
  -6   4   1 6013.01 734.903   2
  -2   6   1 9118.98 1543.86   1
  -4   6   1 2930.04 1049.99   1
  -4  -2   1 5976.59 810.374   8
   6  -4   1 6682.99 550.223   8
  -2  -4   1 6968.25 1001.64   8
   2  -6   1 5580.11 951.658   8
  -2  -4   2 46683.4 2448.77   8
   6  -4   2 50035.4 1907.57   8
   4  -6   2 46204.9 2331.06   8
   2   4   2 46645.9 2706.46   1
   2  -6   2 45245.4 2513.71   8
  -2   6   2 47952.3 3178.05   1
  -4  -2   2 45543.3 2169.00   8
   4   2   2 47911.9 2696.54   1
  -6   4   2 47360.6 1855.22   2
  -6   4   2 49218.3 3069.71   1
  -4   6   2 43192.8 3085.41   1
  -6   4   3 1877.92 846.695   1
   6  -2   3 871.844 479.765   1
   2  -6   3 2164.43 804.903   8
   4  -6   3 2054.91 772.689   8
  -4   6   3 1790.28 758.787   1
  -4  -2   3 2148.66 725.067   8
  -2  -4   3 2053.61 837.822   8
  -2   6   3 2076.23 1312.28   1
   6  -4   3 1882.31 519.756   1
   4   2   3 2420.16 900.058   1
   2   4   3 2704.28 1141.76   1
   2  -6   4 1577.98 856.973   8
   4   2   4 1699.24 1027.07   1
  -4   6   4 586.338 823.927   1
  -6   4   4 1413.04 913.822   1
  -2  -4   4 1417.71 884.763   8
  -2   6   4 2308.64 1182.30   1
  -4  -2   4 1124.32 794.581   8
  -6   2   4 1201.28 482.691   1
   6  -4   4 1908.74 832.711   1
   4  -6   4 1695.39 990.072   8
   6  -2   4 1751.27 873.796   1
   2   4   4 934.044 922.226   1
  -6   4   5-18.8850 671.263   1
  -2   6   5-60.4617 997.713   1
  -2  -4   5 1618.52 1058.17   8
   4   2   5 316.810 892.724   1
   4  -6   5-192.844 798.776   8
   2   4   5 798.255 972.699   1
  -4  -2   5-382.567 768.861   8
  -4   6   5-1040.35 1069.57   1
   6  -4   5-247.553 391.489   8
   2  -6   5-507.616 859.393   8
   6  -2   5-36.4664 693.706   1
   5   1  -8 2975.55 564.423   5
  -1  -5  -8 1858.75 528.982   6
   6  -1  -8 2109.55 559.597   5
   5  -6  -8 1664.72 444.379   6
   6  -1  -8 1357.85 419.084   6
   5  -6  -8 1387.04 490.118   5
   6  -5  -8 1073.37 446.530   5
  -1   6  -8 1819.28 507.741   6
  -5  -1  -8 1759.03 489.906   6
   1  -6  -8 1691.72 492.504   6
   6  -5  -8 1312.91 415.975   6
   1   5  -8 1750.53 516.828   6
   5   1  -8 1371.97 450.730   6
   5  -6  -7 4010.57 926.254   5
   6  -5  -7 3753.63 866.805   5
   6  -1  -7 3790.44 862.118   5
  -5  -1  -7 3281.10 787.273   6
   6  -1  -7 2782.84 652.563   6
  -1   6  -7 3183.37 765.535   6
   5   1  -7 4365.90 838.342   5
  -1  -5  -7 3438.56 777.767   6
   1   5  -7 3714.74 720.955   3
  -1   6  -7 3756.75 706.369   3
   5  -6  -7 2944.25 686.966   6
   6  -5  -7 3032.97 665.813   6
   5   1  -7 3044.75 686.983   6
   1  -6  -7 3795.82 848.425   6
   5   1  -7 3415.37 672.318   3
   1   5  -7 3947.35 802.701   6
  -1   6  -6 1718.21 534.798   3
   6  -1  -6 1422.42 668.302   5
  -5  -1  -6 2032.42 669.305   6
   6  -5  -6 635.496 542.899   5
   6  -1  -6 1486.34 627.762   6
   1  -6  -6 1382.24 667.731   5
   5  -6  -6 1795.94 643.783   5
   5   1  -6 1961.31 594.857   3
   5   1  -6 1984.49 722.156   5
   5  -6  -6 1313.72 499.546   6
   1   5  -6 1279.61 501.423   3
  -1  -5  -6 1407.65 734.890   6
   6  -1  -6 1065.33 526.518   3
   6  -5  -6 1284.92 528.397   6
   1  -6  -6 916.019 532.908   6
   1  -6  -5 3750.46 844.106   5
   6  -1  -5 3724.05 647.273   3
   6  -5  -5 4521.51 814.862   5
   5  -6  -5 3323.53 748.130   5
   6  -1  -5 3697.64 815.955   5
   5   1  -5 2859.21 731.041   5
  -1  -5  -5 2903.06 692.498   6
  -1   6  -5 4585.33 777.052   3
   6  -5  -5 3354.31 704.508   6
   1  -6  -5 4732.93 944.772   6
  -6   1  -5 3280.39 1137.96   2
   5   1  -5 3940.51 709.882   3
  -5  -1  -5 3568.75 736.533   6
   5  -6  -5 3221.23 691.567   6
   1   5  -5 3774.60 713.529   3
  -5  -1  -4 16843.7 1759.92   2
  -6   5  -4 19019.5 2292.83   2
  -6   1  -4 15702.2 1866.98   2
  -6   1  -3 2435.56 897.223   2
  -6   5  -3 1312.98 609.017   2
  -5  -1  -3 1848.75 636.478   2
  -5   6  -2 21718.1 2052.53   2
  -6   5  -2 20470.2 1782.66   2
  -5  -1  -2 20219.6 1703.42   2
  -6   1  -2 19928.8 1731.53   2
   1  -6  -2 20978.1 2024.64   8
  -1  -5  -2 19920.0 1221.74   2
  -1  -5  -2 19073.6 1967.99   8
  -6   1  -1 6266.88 1004.73   2
  -1   6  -1 5594.35 402.884   1
  -1  -5  -1 7435.81 1228.37   8
   1   5  -1 7178.08 827.157   1
   1  -6  -1 7533.69 1168.11   8
  -5  -1  -1 5153.71 895.675   2
  -5   6  -1 6895.88 1046.99   2
  -6   5  -1 6663.36 980.699   2
   5  -6  -1 6147.69 904.477   8
   1   5   0 893.982 516.431   1
  -5  -1   0 885.350 854.888   8
   6  -5   0 1539.69 370.937   8
  -1  -5   0 1282.60 671.607   8
  -5   6   0 2884.12 966.979   1
  -5   6   0 1167.48 480.400   2
   1  -6   0 1193.41 702.082   8
  -6   5   0 1392.61 449.301   2
   5  -6   0 2056.64 540.107   8
   1   5   1 6039.08 1097.16   1
  -5   6   1 5510.70 1350.09   1
  -1   6   1 4396.81 919.952   1
  -5   6   1 6288.67 624.230   2
   6  -5   1 6422.65 665.183   8
   5  -6   1 5924.38 815.514   8
  -6   5   1 6802.29 745.906   2
  -6   1   1 5715.60 537.385   8
  -5  -1   1 6390.29 752.449   8
   1  -6   1 6620.01 1011.41   8
  -1  -5   1 6669.84 1059.10   8
  -6   5   1 6597.18 1245.97   1
   5   1   2 20929.4 1747.76   1
  -6   1   2 20999.4 1253.94   8
   6  -5   2 21248.1 1375.24   8
  -1   6   2 17786.6 1899.67   1
   5  -6   2 20554.4 1518.34   8
   1   5   2 21175.8 2018.99   1
  -5   6   2 21113.3 2402.02   1
  -1  -5   2 18617.7 1722.40   8
  -6   5   2 20179.5 2187.98   1
   1  -6   2 21379.5 1873.60   8
  -5  -1   2 21136.4 1428.68   8
   1  -6   3 1815.07 829.852   8
   6  -5   3 2096.93 627.165   1
  -6   5   3 2821.06 1031.24   1
   6  -5   3 2360.79 676.421   8
  -1   6   3 1488.36 757.702   1
  -5  -1   3 2261.52 650.039   8
  -1  -5   3 1904.04 895.688   8
   5   1   3 1366.97 796.208   1
   5  -6   3 2659.23 848.264   8
   6  -1   3 2365.04 732.667   1
  -5   6   3-546.852 1109.57   1
   1   5   3 2455.37 1135.13   1
  -5   6   4 18258.2 2504.51   1
   6  -1   4 17622.3 2050.21   1
  -1   6   4 18623.0 2590.17   1
   1  -6   4 18707.5 2175.22   8
   1   5   4 15757.9 2278.60   1
   5  -6   4 17592.6 2121.35   8
  -6   5   4 19234.4 2468.66   1
  -5  -1   4 16054.2 1797.69   8
   6  -5   4 16335.2 1738.24   8
  -1  -5   4 16787.7 2093.38   8
   5   1   4 18250.1 2252.17   1
  -1  -5   5 5603.63 1514.81   8
   5   1   5 4154.98 1372.66   1
  -1   6   5 4042.55 1513.04   1
   5  -6   5 4363.49 1184.01   8
   6  -5   5 2733.55 728.297   8
  -6   5   5 4870.49 1381.27   1
  -5  -1   5 3431.77 1074.92   8
   6  -1   5 4801.53 1355.07   1
   1  -6   5 3287.40 1275.96   8
   1   5   5 3139.67 1352.01   1
  -5   6   5 6247.31 1677.24   1
   0  -6  -8 1830.04 540.014   6
   6   0  -8 1715.46 468.158   6
   0   6  -8 1677.25 496.278   6
   6  -6  -8 1566.01 505.165   5
   6  -6  -8 1929.33 478.885   6
   6   0  -8 1971.98 522.378   5
   6   0  -7 6805.72 1018.75   5
   6  -6  -7 7491.44 1049.36   5
   0   6  -7 7102.96 1075.03   6
   6  -6  -7 5805.04 853.500   6
   6   0  -7 6839.22 921.420   6
  -6   0  -7 5507.98 897.034   6
   0   6  -7 7296.63 906.078   3
   0  -6  -7 7404.38 1037.38   6
   6  -6  -6 2554.54 750.005   5
   0   6  -6 1807.53 554.575   3
   6   0  -6 2082.74 622.964   3
   6   0  -6 2150.76 752.026   5
   6  -6  -6 1675.38 593.077   6
  -6   0  -6 2605.74 804.505   6
   0  -6  -6 2257.98 729.181   6
   6   0  -6 2775.07 733.414   6
   6  -6  -5 7540.97 1026.67   5
   0  -6  -5 6610.84 1057.49   6
   6   0  -5 5333.43 911.012   5
   0  -6  -5 6480.10 1050.81   5
   0   6  -5 7506.62 962.533   3
   6  -6  -5 5292.20 850.116   6
   6   0  -5 6326.75 858.989   3
  -6   0  -4 32338.7 2612.95   2
  -6   6  -3 1340.07 953.625   2
  -6   0  -3 697.467 583.788   2
   0  -6  -2 7170.83 1331.12   8
  -6   6  -2 8364.20 1283.32   2
  -6   0  -2 8435.78 1233.90   2
  -6   0  -1 8830.12 1252.64   2
  -6   6  -1 9659.32 1212.12   2
   6  -6  -1 10351.1 1064.16   8
   0  -6  -1 11086.8 1544.27   8
   0  -6   0 1930.55 789.571   8
   6  -6   0 1728.55 440.910   8
  -6   6   0 1514.54 529.209   2
   0   6   0 1489.47 427.918   1
  -6   6   1 10056.6 904.160   2
  -6   6   1 7764.28 1352.59   1
   0   6   1 8997.25 1336.26   1
   6  -6   1 10653.3 1012.37   8
   0  -6   1 9134.13 1278.83   8
  -6   0   1 8589.65 827.274   8
   6  -6   2 7220.86 949.977   8
   0  -6   2 7482.58 1356.62   8
   0   6   2 8090.92 1435.47   1
  -6   6   2 6430.17 1446.93   1
  -6   0   2 7692.71 859.643   8
  -6   6   3 933.907 1062.95   1
   6  -6   3 1065.98 568.381   8
  -6   0   3 505.102 414.139   8
   0  -6   3 407.223 699.797   8
   0   6   3-123.511 802.676   1
   6   0   3 110.626 637.273   1
   0   6   4 31603.1 3145.52   1
   6  -6   4 32752.4 2667.73   8
  -6   0   4 32722.2 2455.91   8
  -6   6   4 35944.2 3469.76   1
   6   0   4 32181.4 2837.84   1
   0  -6   4 35722.1 2968.05   8
   6   0   5 7596.01 1725.14   1
   6  -6   5 4454.14 1028.17   8
  -6   6   5 8487.93 1789.32   1
   0  -6   5 8851.45 1819.44   8
  -6   0   5 6109.28 1308.83   8
   0   6   5 7578.00 1907.99   1
   4   3  -8 2806.19 546.864   6
   3  -7  -8 2284.65 532.894   6
   7  -4  -8 2618.60 601.084   5
   7  -3  -8 3387.67 625.093   5
  -3   7  -8 1080.04 518.207   6
   4  -7  -8 2367.86 501.917   6
  -4  -3  -8 2913.03 603.594   6
   3   4  -8 2716.31 573.275   6
  -3  -4  -8 2757.11 577.991   6
   7  -4  -8 2227.03 519.636   6
   7  -3  -8 2570.37 491.154   6
   4  -7  -7 237.452 536.719   5
   7  -4  -7-536.878 565.233   5
   7  -3  -7-881.207 566.384   5
   4   3  -7 77.0339 459.616   5
  -4  -3  -7-260.624 493.488   6
   7  -4  -7 23.9607 372.556   6
   3  -7  -7 382.004 538.129   5
   3   4  -7 419.805 491.479   6
   4  -7  -7 353.870 475.364   6
   4   3  -7 68.5574 442.098   6
  -3  -4  -7 434.805 448.887   6
  -4   7  -7 317.693 574.617   6
   3  -7  -7 99.8387 412.901   6
   7  -3  -7-464.956 404.029   6
  -3   7  -7-453.595 523.231   6
   4   3  -7-28.0134 382.066   3
   3   4  -7 431.156 432.234   3
   3   4  -6 1296.61 576.826   3
   7  -3  -6 626.051 504.448   5
  -4   7  -6-1321.21 782.544   6
   3   4  -6 2205.16 943.714   5
   4  -7  -6 1482.86 634.410   6
  -3  -4  -6 999.366 641.515   6
   4  -7  -6 1214.10 615.731   5
   3  -7  -6 438.789 564.427   5
   7  -3  -6 840.998 513.717   6
   4   3  -6 2438.62 772.011   5
  -4  -3  -6 872.731 573.788   6
   3  -7  -6 657.762 487.370   6
   7  -4  -6 162.353 393.784   6
   4   3  -6 651.283 473.796   3
  -3   7  -6-243.702 548.167   6
   7  -4  -6 1181.28 676.348   5
   4   3  -5 556.230 444.293   3
  -3   7  -5 609.904 449.048   3
   4  -7  -5 116.020 479.911   5
   3   4  -5 159.800 453.894   3
   3  -7  -5 839.469 593.457   6
   3   4  -5-29.5510 534.758   5
   4   3  -5-353.393 491.672   5
  -4  -3  -5 404.425 594.171   6
   7  -3  -5 831.438 507.063   6
   7  -3  -5 399.914 455.309   3
   4  -7  -5-411.897 449.737   6
   7  -4  -5-9.30198 509.265   5
   7  -3  -5-231.554 578.543   5
  -7   3  -5 1553.01 1061.29   2
   7  -4  -5-464.037 518.287   6
   3  -7  -5 221.649 526.766   5
  -3  -4  -5 262.460 548.378   6
  -7   4  -4 770.724 750.962   2
  -7   3  -4 1092.89 707.879   2
  -3  -4  -3 435.068 335.695   2
  -7   4  -3-640.901 798.436   2
  -4  -3  -3-167.289 460.678   2
  -7   3  -2 23758.9 2025.43   2
  -7   4  -2 24979.5 2046.36   2
  -4  -3  -2 23097.8 1788.86   2
   4  -7  -2 23332.9 2035.20   8
  -3  -4  -2 23610.7 1675.85   2
   3  -7  -2 23901.9 2141.27   8
  -3  -4  -1 1121.11 927.720   8
   3  -7  -1 1898.59 825.986   8
  -4  -3  -1-80.9864 839.439   8
   3   4  -1 350.824 282.679   1
  -7   3  -1 480.373 484.658   2
   4  -7  -1 749.703 617.605   8
  -7   4  -1 590.493 494.869   2
   3  -7   0 43727.8 2435.24   8
   3   4   0 46403.4 2085.42   1
  -4  -3   0 47088.4 2698.15   8
  -7   4   0 47171.8 2287.15   2
  -4   7   0 38456.1 4405.03   1
  -7   3   0 45157.0 2383.30   2
  -3  -4   0 45773.7 2533.66   8
   4  -7   0 44090.6 2330.71   8
   4  -7   1-18.6457 497.708   8
  -7   4   1 424.446 370.019   2
  -4   7   1-1977.18 1800.85   1
  -3   7   1-66.1199 951.664   1
  -7   3   1 237.856 408.883   2
  -4  -3   1 121.861 441.130   8
   3  -7   1-226.352 500.722   8
   4   3   1 370.001 493.577   1
   3   4   1 523.436 469.873   1
  -3  -4   1 423.568 528.086   8
  -3   7   2 22827.8 2333.96   1
   4  -7   2 23066.7 1875.56   8
  -4  -3   2 23378.2 1782.37   8
   4   3   2 23423.7 1988.44   1
   3   4   2 24576.2 2099.41   1
  -3  -4   2 23443.4 1851.37   8
  -7   4   2 24389.0 1602.69   2
  -4   7   2 21127.6 2232.02   1
   3  -7   2 23821.5 1997.96   8
  -3  -4   3-11.1877 533.964   8
   3   4   3 2064.49 1159.35   1
   4   3   3 352.017 726.996   1
   7  -3   3-594.975 744.880   1
   7  -4   3 25.3152 382.356   8
  -4   7   3-724.769 994.888   1
  -4  -3   3 395.381 496.535   8
   4  -7   3 5.68592 594.148   8
   3  -7   3 906.406 676.077   8
  -7   4   3-138.571 866.984   1
  -3   7   3 528.592 875.683   1
  -3   7   4-41.5071 938.228   1
  -4  -3   4 1884.74 865.860   8
  -7   4   4 135.350 672.682   1
  -4   7   4-820.258 1153.52   1
   4  -7   4 2028.64 1095.85   8
   3  -7   4 2233.02 1107.38   8
   4   3   4 2020.16 1158.42   1
   7  -4   4 1193.97 807.697   1
   7  -3   4 634.886 619.990   1
   3   4   4 1995.85 1166.04   1
  -3  -4   4 1753.01 990.297   8
  -4  -3   5 294.963 1024.80   8
   3   4   5-370.747 947.173   1
   4   3   5 314.002 847.835   1
   3  -7   5 850.852 1096.03   8
   4  -7   5 1303.73 1122.69   8
  -4   7   5-2594.61 1387.05   1
  -3   7   5-1314.71 1210.79   1
  -7   4   5-723.992 838.299   1
  -3  -4   5-533.240 772.441   8
   5   2  -8 1201.33 374.891   5
   2  -7  -8 413.267 364.807   6
   7  -2  -8 688.381 339.674   6
  -2  -5  -8 1014.65 421.256   6
   7  -2  -8 892.805 450.234   5
   7  -5  -8 233.950 261.023   6
   7  -5  -8 820.361 425.919   5
  -2   7  -8 164.172 372.389   6
   5   2  -8 1423.94 440.398   6
   2   5  -8-201.281 392.132   6
   5  -7  -8 748.632 408.039   6
   2   5  -7 2248.45 576.402   3
   2  -7  -7 2751.80 719.809   6
   7  -2  -7 1868.42 667.207   5
   5   2  -7 1871.30 562.384   5
   5   2  -7 2025.60 610.995   6
   5  -7  -7 1357.23 565.627   5
   7  -5  -7 2673.88 719.592   5
   2   5  -7 3082.02 736.513   6
  -5  -2  -7 1799.21 604.620   6
   7  -2  -7 1857.04 551.066   6
  -2  -5  -7 1737.94 609.785   6
   5  -7  -7 2047.75 599.131   6
   7  -5  -7 2043.48 572.019   6
  -2   7  -7 2483.17 758.516   6
   5   2  -7 1390.09 513.276   3
  -2   7  -7 2539.01 564.712   3
   5   2  -6 4046.28 736.632   3
   2   5  -6 3269.95 714.250   3
   7  -5  -6 4652.86 888.790   5
  -2   7  -6 4267.64 782.431   3
   7  -2  -6 3958.22 784.945   5
   5  -7  -6 4077.01 892.633   5
   2  -7  -6 4239.31 923.125   6
  -2  -5  -6 4320.19 928.160   6
   2  -7  -6 5174.35 935.677   5
  -5  -2  -6 3931.37 881.885   6
   5  -7  -6 2513.96 675.279   6
   7  -5  -6 4012.09 777.039   6
   7  -2  -6 3637.62 726.338   3
   7  -2  -6 3891.50 770.786   6
   5   2  -6 4681.08 896.683   5
   2  -7  -5 4501.81 864.556   5
   5  -7  -5 4854.14 867.765   5
   2   5  -5 4605.67 819.643   3
   7  -5  -5 5517.69 905.943   5
   7  -2  -5 5122.55 892.567   5
  -7   2  -5 4805.01 1497.54   2
  -2   7  -5 6144.59 908.425   3
   5   2  -5 4472.63 863.819   5
   7  -2  -5 6132.59 949.554   6
   5   2  -5 4871.07 822.120   3
  -2  -5  -5 5936.63 990.362   6
  -5  -2  -5 5908.62 1019.16   6
   2  -7  -5 5160.56 921.729   6
   5  -7  -5 4550.21 813.892   6
   7  -5  -5 4835.65 791.902   6
   7  -2  -5 5498.02 834.578   3
  -7   5  -4 4403.65 1349.14   2
  -5  -2  -4 3937.12 970.155   2
  -7   2  -4 1667.76 817.672   2
  -5  -2  -3 1988.66 612.932   2
  -7   5  -3 1456.70 754.438   2
  -7   2  -3 2801.99 1006.57   2
  -7   2  -2 37272.9 2487.60   2
  -2  -5  -2 37854.8 1972.56   2
  -2  -5  -2 38549.4 3099.31   8
  -7   5  -2 36765.2 2468.75   2
   2  -7  -2 37902.2 2763.59   8
  -5  -2  -2 35096.8 2344.85   2
  -2  -5  -1 1752.61 834.418   8
   2   5  -1 1004.09 295.897   1
  -5  -2  -1 1608.46 998.650   8
   2  -7  -1 1013.78 707.081   8
   5  -7  -1 672.419 514.824   8
  -7   5  -1 919.646 593.157   2
  -7   2  -1 1012.33 661.902   2
  -5   7   0 3329.39 1518.72   1
  -7   2   0 1329.88 629.773   2
   5  -7   0 1605.38 589.526   8
  -7   5   0 1690.55 464.367   2
   2  -7   0 1949.99 756.773   8
  -2  -5   0 1663.74 735.118   8
  -5  -2   0 304.389 1153.22   8
   2   5   0 2408.50 648.346   1
   2   5   1 633.646 569.070   1
  -5  -2   1 392.957 479.382   8
   5  -7   1 687.497 470.135   8
   2  -7   1 937.524 566.898   8
  -5   7   1 2245.23 1210.25   1
  -2  -5   1-363.658 683.907   8
  -2   7   1 2612.10 1097.40   1
  -7   5   1 862.770 365.542   2
   5  -7   2 37998.2 2288.09   8
   7  -5   2 36745.6 1699.34   8
   5   2   2 39282.6 2559.99   1
  -2   7   2 37890.5 2986.22   1
   2   5   2 35139.7 2545.17   1
   2  -7   2 38820.4 2576.58   8
  -5  -2   2 37551.9 2155.13   8
  -7   5   2 37620.3 2874.99   1
  -5   7   2 39151.8 3108.55   1
  -2  -5   2 37601.8 2460.62   8
  -5   7   3 449.245 1023.29   1
   5  -7   3 2830.34 961.066   8
   7  -5   3 2309.36 608.252   8
  -7   5   3 2357.99 891.975   1
   2  -7   3 1945.41 931.655   8
  -2  -5   3 2483.81 901.475   8
   2   5   3 2897.83 1205.22   1
  -2   7   3 4514.95 1456.99   1
  -5  -2   3 1917.55 715.839   8
   7  -2   3 1509.35 529.861   1
   5   2   3 2854.65 1042.63   1
   5   2   4 3094.96 1262.12   1
  -7   5   4 1275.00 793.921   1
   2  -7   4 4161.06 1292.61   8
   5  -7   4 2892.66 1121.66   8
   7  -5   4 951.245 469.651   8
  -5  -2   4 1228.19 650.120   8
  -2  -5   4 2520.60 1167.72   8
   2   5   4 2712.16 1229.22   1
  -5   7   4-288.900 1249.52   1
   7  -2   4 2458.46 932.291   1
  -2   7   4 4311.03 1528.61   1
   7  -2   5 6856.06 1637.13   1
  -2   7   5 5920.72 1598.56   1
  -5   7   5 6178.43 1808.18   1
   2  -7   5 6808.92 1682.59   8
   5   2   5 5444.03 1535.23   1
   2   5   5 5624.48 1859.51   1
  -5  -2   5 4628.16 1207.84   8
  -2  -5   5 8090.62 1728.25   8
   5  -7   5 6889.84 1643.92   8
  -7   5   5 4774.97 1178.80   1
   1   6  -8 1358.32 411.742   6
   7  -6  -8 1533.62 393.891   6
   7  -6  -8 1242.77 455.285   5
   1  -7  -8 1223.01 452.596   6
   6  -7  -8 1074.72 430.217   5
   7  -1  -8 1224.64 423.197   5
   6   1  -8 1639.10 432.992   5
  -1  -6  -8 859.600 404.519   6
   6  -7  -8 630.361 330.548   6
   7  -1  -8 801.829 343.549   6
   6   1  -8 744.696 353.833   6
  -1   7  -8 960.252 380.336   6
  -1   7  -7 2510.79 582.374   3
   6   1  -7 2135.48 591.048   3
   1   6  -7 2420.65 593.956   3
   7  -6  -7 2925.21 722.805   5
   6  -7  -7 2417.56 621.851   6
   7  -1  -7 1609.06 505.912   6
   1  -7  -7 1918.87 655.873   6
   7  -1  -7 2484.07 753.746   5
   6   1  -7 1766.77 589.995   5
   6  -7  -7 1422.94 583.418   5
  -6  -1  -7 2132.84 664.457   6
   1   6  -7 2441.12 681.944   6
  -1  -6  -7 2217.23 676.127   6
   7  -6  -7 1819.75 552.513   6
  -1   7  -7 2274.42 666.458   6
   6   1  -7 2600.71 633.168   6
   6  -7  -6 1559.21 639.472   5
   1   6  -6 2097.86 612.073   3
   7  -6  -6 2246.29 703.942   5
   6   1  -6 3424.40 829.972   5
   7  -1  -6 2035.26 620.942   3
   7  -1  -6 2636.12 734.538   5
  -1   7  -6 2232.01 588.305   3
   1  -7  -6 1969.34 740.437   6
  -1  -6  -6 2008.37 649.680   6
   6  -7  -6 2014.13 606.089   6
   7  -6  -6 1519.65 532.331   6
  -6  -1  -6 2136.40 713.046   6
   7  -1  -6 2111.15 620.647   6
   6   1  -6 1811.83 592.086   3
   7  -6  -5 1933.35 718.205   5
   6   1  -5 1163.09 587.604   3
   6  -7  -5 1000.28 554.562   5
   1   6  -5 1015.38 443.023   3
   7  -1  -5 420.142 506.298   5
  -1   7  -5 1408.86 547.952   3
   6   1  -5 1495.98 648.307   5
  -7   1  -5 138.772 765.639   2
   7  -6  -5 1534.18 544.517   6
   1  -7  -5 1456.74 700.632   6
  -1  -6  -5 2372.55 773.718   6
   6  -7  -5 611.892 425.835   6
  -6  -1  -5 1257.15 532.303   6
   1  -7  -5 1198.68 569.146   5
   7  -1  -5 1382.81 539.740   3
  -6  -1  -4 19540.6 2076.70   2
  -1  -6  -4 19344.8 1547.95   6
  -7   1  -4 17284.7 2073.28   2
   7  -1  -4 18974.8 1453.11   5
   1  -7  -4 17764.4 1504.86   6
  -7   6  -4 20645.0 2574.84   2
   1   6  -4 17223.5 1243.44   3
   6   1  -4 20772.2 1531.50   5
   1  -7  -4 17250.7 1402.81   5
  -6  -1  -3 2062.90 734.787   2
  -7   6  -3 2166.06 977.552   2
  -7   1  -3 2569.69 845.026   2
  -7   1  -2 17059.0 1685.91   2
  -7   6  -2 19104.7 1896.73   2
  -6   7  -2 21019.4 2112.89   2
   1  -7  -2 20402.6 2177.68   8
  -1  -6  -2 18605.3 2139.06   8
  -1  -6  -2 20091.6 1334.74   2
  -6  -1  -2 19947.4 1883.63   2
   6  -7  -1 552.883 439.877   8
  -1  -6  -1 1546.09 923.101   8
   1  -7  -1 757.457 828.021   8
  -6  -1  -1-873.215 1264.26   2
  -7   1  -1 658.470 596.281   2
  -6   7  -1 1002.49 663.022   2
  -7   6  -1 78.0554 563.107   2
  -7   1   0 6739.75 1156.51   2
  -6  -1   0 11871.0 1709.55   8
   1   6   0 10341.1 1268.47   1
   6  -7   0 9236.51 1073.95   8
   1  -7   0 10247.3 1420.50   8
   7  -6   0 8670.26 804.373   8
  -6   7   0 8272.06 1136.50   2
  -1   7   0 14084.3 2072.68   1
  -1  -6   0 8461.35 1275.88   8
  -7   6   0 9105.45 1070.83   2
  -1  -6   1-20.5477 696.420   8
   7  -6   1 1194.56 452.175   8
   1   6   1 1539.20 844.213   1
   6  -7   1 503.317 447.836   8
  -6  -1   1-44.9945 650.078   8
   1  -7   1-387.512 781.875   8
  -6   7   1 76.3493 1090.66   1
  -7   6   1 1197.27 451.888   2
  -1   7   1-911.755 979.292   1
   7  -6   2 19632.4 1415.57   8
  -1  -6   2 20986.4 1981.97   8
  -6   7   2 18945.9 2437.15   1
   6  -7   2 19838.7 1642.21   8
   1   6   2 20292.9 2184.41   1
  -1   7   2 16459.7 1928.11   1
  -6  -1   2 19888.5 1506.90   8
  -7   6   2 16092.2 2099.62   1
   1  -7   2 21075.6 2087.92   8
   6   1   2 19071.2 1794.68   1
   6  -7   3 2187.04 752.936   8
  -7   6   3 2237.33 1060.86   1
  -6   7   3 3234.89 1323.01   1
   1   6   3 3518.93 1270.68   1
  -6  -1   3 3142.19 739.737   8
   7  -6   3 3241.10 846.856   8
  -1  -6   3 2420.39 1057.82   8
   7  -1   3 2184.59 812.198   1
  -1   7   3 1479.26 913.096   1
   6   1   3 1363.96 800.030   1
   1  -7   3 2300.32 1017.95   8
   6   1   4 17690.4 2285.34   1
   7  -6   4 16997.5 1742.86   8
   6  -7   4 20373.4 2291.30   8
  -1   7   4 19178.5 2724.43   1
  -6  -1   4 16926.9 1887.16   8
  -7   6   4 18278.4 2554.62   1
   1   6   4 17609.1 2511.01   1
   7  -1   4 18394.2 2131.31   1
  -6   7   4 20957.4 2775.23   1
  -1  -6   4 20209.9 2368.68   8
   1  -7   4 18597.6 2281.52   8
  -7   6   5 643.490 850.471   1
  -1  -6   5 1205.65 1093.72   8
   6   1   5 1082.24 923.237   1
  -6   7   5 2726.48 1212.43   1
   6  -7   5 1595.00 858.178   8
   1  -7   5 1762.67 1075.64   8
   1   6   5 923.255 1209.65   1
   7  -1   5 2451.23 1212.55   1
  -1   7   5 1349.26 1314.06   1
   7   0  -8 3784.14 566.156   5
   7  -7  -8 3395.22 576.286   5
   7   0  -8 2268.42 455.055   6
   0   7  -8 3297.81 576.028   6
   7  -7  -8 2717.84 441.976   6
   0   7  -7 1106.30 493.523   3
   7  -7  -7 1078.54 514.933   5
   0  -7  -7 700.589 467.996   6
   7   0  -7 1702.83 567.084   5
   0   7  -7 1937.70 650.611   6
   7  -7  -7 471.417 388.744   6
   7   0  -7 1160.23 498.920   6
   7  -7  -6 981.574 633.337   5
   0   7  -6 567.513 406.587   3
   7   0  -6 1727.70 718.957   5
   0  -7  -6 670.224 595.651   6
   7   0  -6 1073.88 520.624   3
   7  -7  -6 545.353 432.679   6
   7   0  -6 1330.23 586.475   6
   7   0  -5 532.778 468.690   3
   7  -7  -5 381.858 518.313   5
   0   7  -5 595.160 438.845   3
   7   0  -5-511.037 608.891   5
   7  -7  -5-18.9018 478.994   6
   0  -7  -5 46.6937 506.429   6
   0   7  -4 32500.3 1694.54   3
   0   7  -4 29743.7 1838.96   4
   7  -7  -4 30740.7 1772.46   5
   0  -7  -4 32661.6 2025.82   6
  -7   0  -4 32564.9 2828.45   2
   7   0  -4 28580.4 1619.81   3
   7   0  -4 31331.2 1868.91   5
  -7   0  -3 12819.8 1655.20   2
  -7   7  -3 14505.9 2035.34   2
   0  -7  -2 1190.23 796.786   8
  -7   0  -2 1862.91 927.022   2
  -7   7  -2 1707.75 833.014   2
  -7   0  -1 17565.4 2035.74   2
   0  -7  -1 17754.8 2091.05   8
  -7   7  -1 17458.0 1723.13   2
   7  -7  -1 18970.6 1565.88   8
   0  -7   0 17019.5 1864.11   8
   7  -7   0 17219.2 1365.34   8
   0   7   0 16139.1 1623.93   1
  -7   7   0 15042.0 1477.05   2
   0   7   1 17338.4 1895.48   1
   7  -7   1 19188.6 1441.67   8
  -7   7   1 18607.5 1327.46   2
  -7   7   1 15969.6 2123.96   1
   0  -7   1 18587.8 1908.38   8
  -7   7   2-414.811 1087.64   1
   7  -7   2 823.556 479.755   8
   0   7   2 441.588 750.048   1
   0  -7   2 958.276 791.573   8
   0   7   3 11457.8 1869.06   1
   7   0   3 12138.5 1628.37   1
   7  -7   3 15084.5 1650.28   8
   0  -7   3 13810.8 1941.32   8
  -7   7   3 13466.8 2156.71   1
   7   0   4 32833.0 2951.09   1
   0  -7   4 31573.1 3052.46   8
   0   7   4 29138.6 3169.45   1
  -7   7   4 32859.0 3372.34   1
   7  -7   4 31954.5 2599.02   8
   7   0   5 2230.71 1101.79   1
   0  -7   5 376.498 974.899   8
   0   7   5 2219.96 1388.28   1
  -7   7   5 858.379 980.772   1
   8  -4  -8 1524.54 442.139   5
   4  -8  -8 1316.80 428.500   6
   8  -4  -8 729.597 292.290   6
   4   4  -8 1386.46 381.715   6
   8  -4  -7-279.315 523.426   5
  -4  -4  -7 578.088 479.006   6
  -4  -4  -7-739.997 838.681   7
   4  -8  -7 28.7700 391.180   6
   8  -4  -7-91.2424 320.459   6
   4   4  -7-48.3339 353.085   6
   4   4  -7-150.051 409.752   3
   4   4  -6 1735.84 614.164   3
  -4   8  -6-12.3240 781.536   6
   8  -4  -6 2110.39 734.065   5
   4  -8  -6 1234.98 588.545   5
  -4  -4  -6 1556.68 648.931   6
   4  -8  -6 1824.24 661.457   6
   4   4  -6 3258.07 797.917   5
   8  -4  -6 1293.25 463.002   6
   4  -8  -5-16.9803 484.793   5
   4   4  -5 9.26340 454.168   3
   8  -4  -5-60.6241 479.528   5
   4   4  -5 23.7537 428.009   5
  -4  -4  -5 236.730 435.793   6
   4  -8  -5 555.657 567.670   6
   8  -4  -5 197.652 411.938   6
   4  -8  -4 5518.44 882.025   5
   8  -4  -4 5320.23 803.299   5
  -4  -4  -4 5638.66 870.301   6
  -8   4  -4 6890.68 1575.66   2
   4  -8  -4 6502.92 956.998   6
   8  -4  -4 5645.53 844.795   3
   4   4  -4 6471.31 867.782   3
   4   4  -4 6457.85 931.595   5
  -4  -4  -3 353.336 437.300   2
  -8   4  -3-341.315 773.065   2
  -4  -4  -2 6736.40 1052.92   2
  -8   4  -2 8532.95 1356.01   2
   4  -8  -2 7946.58 1357.22   8
  -4  -4  -1-612.968 902.630   8
   4  -8  -1 821.444 678.656   8
  -8   4  -1-532.125 667.578   2
   4   4  -1 312.158 281.532   1
   4   4   0 44873.6 2218.08   1
  -4  -4   0 43205.1 2846.19   8
  -8   4   0 44388.7 2521.55   2
   4  -8   0 42819.0 2591.56   8
  -8   4   1 198.945 423.538   2
  -4  -4   1-856.768 830.875   8
   4  -8   1-652.605 731.680   8
   4   4   1-56.9151 494.370   1
  -8   4   2 7688.99 1081.00   2
   4  -8   2 8636.65 1331.46   8
   4   4   2 8582.02 1370.14   1
  -4  -4   2 8344.07 1224.14   8
  -4   8   2 4594.04 1091.15   1
   4   4   3 142.302 903.767   1
   4  -8   3 1104.49 809.758   8
  -4   8   3-751.099 1037.57   1
  -4  -4   3 1390.08 876.121   8
   4   4   4 5668.79 1548.73   1
   4  -8   4 6852.34 1726.70   8
  -4   8   4 4197.64 1206.71   1
   8  -4   4 6092.02 1314.25   1
  -4  -4   4 6930.17 1483.83   8
   4  -8   5 272.977 1136.37   8
  -4  -4   5-860.496 774.409   8
  -4   8   5-1558.44 1240.22   1
   4   4   5-399.822 828.954   1
   8  -5  -8 985.031 404.296   5
   8  -3  -8 711.331 343.319   5
   5   3  -8 463.339 305.363   6
   3  -8  -8 668.761 348.852   6
   5  -8  -8 781.111 339.816   6
   8  -5  -8 983.952 329.804   6
   3   5  -8 791.364 339.845   6
   8  -3  -8 402.141 261.545   6
   3   5  -7 787.400 442.002   3
   8  -5  -7 45.1486 472.326   5
   5   3  -7 366.402 343.359   5
   8  -3  -7 358.832 367.206   6
   3   5  -7 642.618 446.120   6
  -5  -3  -7 1084.52 527.288   6
   3  -8  -7 240.394 410.533   6
   5  -8  -7 474.951 418.490   6
   8  -5  -7 397.955 350.987   6
  -3   8  -7-156.889 588.912   6
   5   3  -7 860.467 482.128   6
  -3  -5  -7 12.9417 405.468   6
   5   3  -7 926.576 452.081   3
   8  -3  -7 861.009 522.063   5
   5  -8  -7 529.110 462.636   5
  -3  -5  -6 6560.16 1048.99   6
   8  -3  -6 6933.94 904.640   6
   3  -8  -6 7534.10 1080.37   5
  -5  -3  -6 5850.11 1028.27   6
   5  -8  -6 8228.87 1100.42   5
   5  -8  -6 6937.59 1010.79   6
   8  -5  -6 7865.45 976.961   6
   8  -3  -6 8659.12 1142.44   5
   3  -8  -6 7128.33 1058.00   6
   5   3  -6 7799.46 990.652   3
   3   5  -6 8497.42 1038.93   3
  -3   8  -6 7619.12 950.901   3
   8  -5  -6 8799.09 1160.84   5
   5   3  -6 9292.43 1171.13   5
   5   3  -5 422.131 438.676   3
   8  -5  -5-281.485 531.630   5
   3   5  -5 794.458 506.360   3
   8  -3  -5-631.581 570.531   5
  -3   8  -5 350.519 442.864   3
   5   3  -5-71.4216 469.806   5
   3  -8  -5 183.015 504.135   5
   8  -3  -5 139.399 490.386   6
  -5  -3  -5 355.737 443.315   6
  -8   3  -5 93.5771 794.093   2
  -3  -5  -5 9.34328 459.044   6
   3  -8  -5 1155.81 560.273   6
   5  -8  -5 170.661 461.779   6
   8  -3  -5-129.366 418.473   3
   5  -8  -5-70.2327 464.149   5
   3  -8  -4 1099.87 542.244   5
   5   3  -4 2234.83 531.310   3
   8  -5  -4 1765.19 539.457   5
   8  -3  -4 1841.16 622.376   5
   3   5  -4 2380.65 577.466   3
   5   3  -4 2051.64 656.077   5
  -8   3  -4 86.8946 872.795   2
  -3   8  -4 2154.48 481.685   3
  -3   8  -4 1010.29 443.038   4
  -8   5  -4 2086.99 1194.14   2
  -5  -3  -4 1371.15 563.230   6
  -3  -5  -4 1014.37 543.072   6
   3  -8  -4 1316.43 623.761   6
   8  -3  -4 1738.88 533.074   3
   5  -8  -4 1719.44 544.209   5
  -8   5  -3-1005.69 986.956   2
  -8   3  -3 900.309 1034.10   2
  -5  -3  -3 332.284 417.343   2
  -5  -3  -2 13871.4 1585.56   2
  -8   3  -2 13360.1 1638.80   2
   5  -8  -2 13441.0 1670.13   8
  -3  -5  -2 14466.8 1427.95   2
   3  -8  -2 14086.1 1806.58   8
  -8   5  -2 13979.8 1714.78   2
  -3  -5  -2 16716.0 2378.43   8
  -5  -3  -1 15775.1 3202.60   8
  -3  -5  -1 11141.7 1775.35   8
  -8   5  -1 9564.89 1265.96   2
  -8   3  -1 11954.8 1515.03   2
   3  -8  -1 9748.47 1473.77   8
   5  -8  -1 10560.7 1355.54   8
  -5  -3   0 7026.70 1264.19   8
   3   5   0 7878.66 1052.51   1
   3  -8   0 7601.45 1243.80   8
  -8   5   0 8056.96 1047.68   2
  -3  -5   0 7315.65 1188.96   8
  -8   3   0 7679.29 1134.84   2
  -5   8   0 8587.38 2780.57   1
   5  -8   0 7574.95 1102.90   8
   5   3   1 10948.6 1296.52   1
  -3   8   1 5937.16 1207.80   1
   3   5   1 10745.2 1360.35   1
  -3  -5   1 8488.51 1239.49   8
  -5  -3   1 8587.63 1164.59   8
  -8   3   1 10266.3 1321.97   2
   5  -8   1 9790.56 1252.02   8
  -8   5   1 10176.8 1121.68   2
   3  -8   1 9777.80 1312.14   8
   5   3   2 14122.8 1667.18   1
   3   5   2 12958.4 1709.26   1
  -5  -3   2 14454.4 1541.41   8
  -5   8   2 13217.7 2031.25   1
  -3   8   2 13419.4 1860.49   1
  -3  -5   2 13727.0 1617.42   8
  -8   5   2 12965.3 1171.15   2
   3  -8   2 14747.0 1732.18   8
   5  -8   2 13539.6 1571.45   8
  -3   8   3 1075.20 956.211   1
   3   5   3-137.275 908.767   1
   8  -3   3-556.129 757.967   1
  -3  -5   3 250.389 874.339   8
   5  -8   3 934.238 829.447   8
  -5  -3   3 243.361 510.361   8
  -5   8   3-1013.26 1293.50   1
   3  -8   3 481.856 658.843   8
   5   3   3 1805.53 1080.22   1
   5   3   4 2789.08 1228.26   1
  -3   8   4 1556.61 1227.15   1
  -5  -3   4 2013.03 871.915   8
   3   5   4 2488.56 1356.37   1
  -3  -5   4 3134.68 1182.98   8
   3  -8   4 1467.58 1051.87   8
  -5   8   4-664.367 1286.24   1
  -8   5   4 1421.29 939.532   1
   8  -5   4 1165.93 634.185   1
   8  -3   4 1021.36 619.614   1
   5  -8   4 2751.46 1223.81   8
  -5   8   5 1044.16 1011.54   1
  -3  -5   5 332.274 848.137   8
   5  -8   5 1054.64 1217.29   8
   5   3   5 234.921 869.120   1
  -5  -3   5-383.533 736.653   8
   3  -8   5 779.908 1070.92   8
   3   5   5 7.78648 1027.03   1
  -3   8   5 82.0185 1074.25   1
   8  -6  -8 612.957 329.044   5
   6   2  -8 1413.54 329.072   5
   8  -2  -8 1089.40 390.220   5
  -2   8  -8-224.256 416.921   6
   6  -8  -8 873.589 347.949   6
  -2  -6  -8 1921.81 525.380   7
   2  -8  -8 896.588 372.590   6
   8  -2  -8 626.647 287.612   6
   8  -6  -8 1127.99 312.844   6
   6   2  -8 378.849 264.064   6
   2   6  -8 503.384 312.223   6
  -2   8  -7 334.501 382.177   3
   2   6  -7 181.248 356.195   3
   8  -6  -7 106.714 446.748   5
   6   2  -7 96.7150 351.024   6
   8  -2  -7-452.847 487.897   5
  -6  -2  -7 242.476 455.370   6
   6   2  -7-8.60059 375.615   5
   6  -8  -7-527.673 518.190   5
  -2  -6  -7-199.394 426.295   6
   6   2  -7 294.475 406.863   3
   2  -8  -7 100.558 418.891   6
   6  -8  -7 190.039 381.297   6
   8  -6  -7 132.842 326.753   6
   8  -2  -7-45.2012 359.341   6
  -2   8  -7-957.754 631.823   6
   2   6  -7 732.825 517.397   6
   6  -8  -6 2846.67 731.535   5
   6   2  -6 3621.12 749.811   3
   2   6  -6 2314.68 623.326   3
   8  -6  -6 4256.40 864.193   5
   8  -2  -6 3533.79 820.624   5
  -6  -2  -6 1642.09 628.474   6
   6   2  -6 3433.26 768.597   5
  -2   8  -6 2395.64 580.718   3
  -6  -2  -6 1360.37 737.827   7
  -2  -6  -6 3455.57 827.183   6
   2  -8  -6 2607.58 766.253   6
   6  -8  -6 2429.87 670.451   6
   8  -6  -6 3656.95 717.674   6
   8  -2  -6 3390.71 698.174   6
   6  -8  -5 417.274 481.444   5
   6   2  -5 540.522 406.087   3
   8  -6  -5 683.430 490.827   5
   8  -2  -5 392.368 481.253   5
  -2   8  -5 1071.44 522.776   3
  -8   2  -5 341.447 763.514   2
   6   2  -5 648.334 541.624   5
   2   6  -5 299.553 460.934   3
  -6  -2  -5 1216.85 650.214   6
  -2  -6  -5 1269.66 625.864   6
   2  -8  -5 1424.14 649.233   6
   6  -8  -5 489.729 567.022   6
   2  -8  -5 1135.95 660.372   5
   8  -2  -5 1071.10 482.745   6
   8  -2  -5 504.630 443.789   3
  -8   6  -4 15247.4 2380.25   2
  -6  -2  -4 10824.8 1139.31   6
   2  -8  -4 11958.2 1215.16   5
   6   2  -4 13082.7 1248.35   5
   8  -6  -4 11086.5 1116.08   5
  -8   2  -4 12349.6 1876.00   2
  -2  -6  -4 12052.5 1270.95   6
  -2   8  -4 12412.2 1124.81   4
   8  -2  -4 11537.8 1080.27   3
   6   2  -4 13323.2 1179.86   3
   2   6  -4 13333.0 1144.19   3
  -2   8  -4 12683.4 1093.90   3
   6  -8  -4 12112.3 1166.36   5
   2  -8  -4 13482.4 1315.08   6
   8  -2  -4 12001.9 1220.70   5
  -8   6  -3 224.542 724.595   2
  -8   2  -3 1188.89 758.914   2
  -6  -2  -3-108.071 561.803   2
   2  -8  -2 10704.7 1679.13   8
  -2  -6  -2 10648.8 1678.35   8
  -6  -2  -2 10729.0 1528.63   2
  -2  -6  -2 11259.3 1200.83   2
  -8   6  -2 9818.48 1420.83   2
  -8   2  -2 9524.23 1420.10   2
   6  -8  -1 18548.7 1755.46   8
   2  -8  -1 18487.6 2031.35   8
  -2  -6  -1 18616.5 2178.56   8
  -8   6  -1 19475.4 1799.50   2
  -8   2  -1 18331.0 1942.54   2
  -8   2   0 3033.10 894.002   2
   2   6   0 5938.63 1029.14   1
   6  -8   0 3511.45 753.473   8
  -2  -6   0 3967.23 993.900   8
   2  -8   0 3814.27 1025.74   8
  -8   6   0 4342.28 848.232   2
  -2  -6   1 17096.0 1792.46   8
   2   6   1 17812.6 1794.71   1
  -8   6   1 18332.3 1423.68   2
  -6  -2   1 21613.4 1959.58   8
   2  -8   1 17218.1 1835.00   8
  -2   8   1 19118.7 2121.02   1
   6  -8   1 20120.2 1727.94   8
  -6   8   1 13186.2 2575.99   1
   6   2   2 10077.8 1481.44   1
  -6  -2   2 11557.6 1349.71   8
   2  -8   2 9865.20 1497.81   8
   6  -8   2 10458.1 1361.32   8
  -6   8   2 12989.1 2208.30   1
  -2   8   2 9889.74 1758.70   1
   2   6   2 11120.2 1652.91   1
  -2  -6   2 10211.4 1525.02   8
   2   6   3 475.474 983.375   1
   6  -8   3 432.422 682.674   8
  -6  -2   3 270.560 502.972   8
   2  -8   3 1797.56 1038.87   8
   6   2   3 4.45731 700.330   1
   8  -2   3-557.764 873.693   1
  -2  -6   3 762.792 845.011   8
  -8   6   3-491.343 1017.94   1
  -2   8   3 2618.08 1264.65   1
  -6   8   3 1075.33 1266.12   1
   6   2   4 12029.2 1958.14   1
  -6   8   4 14112.5 2457.20   1
  -6  -2   4 11884.7 1642.82   8
   6  -8   4 13843.2 2072.30   8
  -8   6   4 12880.3 2201.61   1
   2  -8   4 12854.6 1957.32   8
   2   6   4 11234.7 2237.35   1
  -2  -6   4 15237.1 2217.11   8
  -2   8   4 13900.3 2293.19   1
   8  -2   4 11070.1 1671.72   1
   8  -2   5 1336.07 1053.75   1
   2   6   5 2521.26 1381.36   1
   2  -8   5-388.660 954.440   8
   6   2   5 57.6406 867.915   1
  -6   8   5 486.586 904.831   1
   6  -8   5 3236.29 1276.49   8
  -2  -6   5 1266.25 1242.44   8
  -8   6   5-437.479 947.867   1
  -2   8   5 167.277 807.382   1
   7   1  -8 2533.91 425.651   5
   8  -1  -8 2779.23 476.296   5
   8  -7  -8 2459.52 485.034   5
  -1  -7  -8 2520.79 492.046   7
   7  -8  -8 1722.32 344.368   6
   8  -1  -8 1999.45 391.992   6
   7   1  -8 1868.40 404.692   6
  -1   8  -8 1677.83 426.938   6
   1   7  -8 2054.12 449.509   6
   7  -8  -7 204.655 451.407   5
  -1   8  -7 496.006 330.137   3
   1   7  -7 367.308 378.148   3
   8  -7  -7 95.1494 411.251   5
   8  -1  -7 992.443 552.502   5
   7   1  -7 583.338 433.671   5
   8  -1  -7-69.3289 341.961   6
  -1  -7  -7 149.524 411.552   6
   1  -8  -7 245.834 415.439   6
   7  -8  -7 511.939 359.421   6
   8  -7  -7 349.850 350.862   6
  -1   8  -7-319.311 444.850   6
   7   1  -7 156.871 364.727   3
   7   1  -7 180.694 354.422   6
   1   7  -7 489.737 456.248   6
   7  -8  -6 1824.66 627.431   5
   1   7  -6 1399.16 574.212   3
  -1   8  -6 1380.83 506.592   3
   8  -7  -6 1455.07 609.275   5
   8  -1  -6 1854.42 686.064   5
   7   1  -6 1010.88 564.860   5
   7   1  -6 1327.27 567.722   3
   8  -1  -6 1066.68 507.835   3
  -1  -7  -6 919.781 527.195   6
   1  -8  -6 1062.60 625.401   6
   7  -8  -6 1324.70 507.201   6
   8  -7  -6 530.711 469.974   6
   8  -1  -6 1124.81 496.054   6
   7   1  -5 543.273 487.651   3
   7  -8  -5 342.434 499.024   5
   8  -7  -5-65.3857 459.355   5
   8  -1  -5-408.424 591.799   5
   1   7  -5 774.733 519.072   3
   7   1  -5 277.811 510.061   5
  -1   8  -5 274.110 455.758   3
  -7  -1  -5-1354.52 697.877   7
  -1  -7  -5-358.342 595.378   6
   1  -8  -5 121.184 524.939   6
   7  -8  -5 1576.32 652.164   6
   8  -1  -5 242.169 427.361   3
  -1  -7  -4 10478.3 1209.86   6
  -7  -1  -4 10670.6 1140.91   7
  -7  -1  -4 12536.1 1828.48   2
   8  -1  -4 11661.1 1090.31   3
  -1   8  -4 11041.5 1165.17   4
   1  -8  -4 10653.7 1235.07   6
   8  -1  -4 11250.3 1233.58   5
   1   7  -4 11974.8 1093.97   3
  -8   1  -4 9705.10 1656.55   2
   7   1  -4 10673.2 1038.26   3
  -1   8  -4 11543.6 1053.95   3
   7  -8  -4 11881.5 1172.03   5
   8  -7  -4 11345.3 1115.20   5
   7   1  -4 11011.7 1184.50   5
  -8   7  -3 328.958 828.298   2
  -8   1  -3 201.942 620.282   2
  -7  -1  -3-132.839 642.102   2
  -8   1  -2 930.448 809.523   2
  -7   8  -2 3931.17 1269.81   2
   1  -8  -2 2892.87 993.780   8
  -1  -7  -2 2251.52 908.275   8
  -8   7  -2 1891.36 717.014   2
  -7  -1  -2 3179.52 1143.12   2
  -8   1  -1 32.7788 566.267   2
   1  -8  -1 1318.11 977.164   8
  -1  -7  -1 394.097 799.460   8
   7  -8  -1 27.9572 392.260   8
  -7   8  -1 1114.20 797.988   2
  -8   7  -1-779.063 656.009   2
  -7   8   0 29346.1 2097.52   2
   7  -8   0 31071.0 2054.81   8
   1  -8   0 28189.1 2413.03   8
   1   7   0 31215.3 2252.87   1
  -1   8   0 33998.8 3061.70   1
  -1  -7   0 28295.8 2411.73   8
  -8   1   0 24062.1 2493.62   2
  -8   7   0 29728.9 2088.91   2
  -1  -7   1-677.856 805.867   8
  -7   8   1-2050.84 1906.80   1
   7  -8   1 126.582 481.957   8
   1   7   1 182.713 592.627   1
   1  -8   1-1758.41 1040.32   8
  -8   7   1-329.111 452.150   2
  -1   8   1 1159.39 969.727   1
  -8   7   2 2095.72 751.684   1
   1   7   2 3362.90 1076.46   1
  -1  -7   2 3106.09 1036.86   8
   7   1   2 1998.90 800.282   1
   7  -8   2 3003.82 772.765   8
  -1   8   2 3502.30 1194.22   1
   1  -8   2 3560.10 1102.21   8
  -7   8   2 880.309 842.514   1
  -1  -7   3 175.220 946.876   8
   1   7   3 11.0582 991.128   1
   7  -8   3 75.5659 610.484   8
   1  -8   3-92.4311 800.193   8
  -8   7   3-1243.85 1262.78   1
  -7   8   3 1072.56 1058.93   1
   8  -1   3-808.437 866.625   1
  -1   8   3 2810.47 1479.36   1
   7   1   3 283.733 654.664   1
   8  -1   4 10808.8 1827.83   1
   7  -8   4 12367.2 1819.15   8
  -8   7   4 11550.6 2046.24   1
  -7   8   4 12737.0 2327.27   1
   1  -8   4 12307.5 2117.97   8
   1   7   4 11862.2 2189.38   1
   7   1   4 10704.1 1821.03   1
  -1  -7   4 13160.8 2167.24   8
  -1   8   4 10847.5 2161.30   1
  -1   8   5-857.820 1291.37   1
   8  -1   5 640.587 880.148   1
  -8   7   5-774.286 852.443   1
   7   1   5 53.9803 820.340   1
  -1  -7   5 960.827 1197.53   8
   1  -8   5 1190.88 1331.43   8
  -7   8   5 208.116 927.280   1
   1   7   5 1514.63 1374.97   1
   8   0  -8 1956.36 380.920   5
   0  -8  -8 1802.55 448.812   7
   8   0  -8 1183.00 302.192   6
   0   8  -8 1401.35 355.041   6
   8  -8  -7 170.940 381.675   5
   8   0  -7 644.867 470.123   5
   0  -8  -7-4.26949 374.431   6
   0   8  -7-99.1480 296.827   3
   8   0  -7-418.211 380.363   6
   0   8  -7-97.8634 358.070   6
   8  -8  -6 1740.83 686.192   5
   0   8  -6 298.718 460.224   3
   8   0  -6 406.171 514.352   5
   8   0  -6 639.713 483.386   6
   8   0  -6 767.720 501.212   3
   0  -8  -6 1103.20 563.324   6
   0  -8  -5 489.464 629.020   6
   8  -8  -5 1169.51 522.378   5
   8   0  -5 568.470 564.609   5
   0   8  -5 4.44521 412.688   3
   8   0  -5 361.130 374.148   3
   0   8  -4 8002.06 951.893   3
   0   8  -4 6678.13 1059.33   4
   8  -8  -4 6500.00 943.825   5
  -8   0  -4 6258.18 940.958   7
   0  -8  -4 6256.92 1018.33   6
  -8   0  -4 7739.86 1648.35   2
   8   0  -4 6763.79 888.018   3
   8   0  -4 7284.21 1056.67   5
  -8   8  -3 6484.74 1599.45   2
  -8   0  -3 2442.03 831.353   2
  -8   8  -2 16337.4 2088.39   2
   0  -8  -2 15734.1 2226.57   8
  -8   0  -2 20274.2 2445.81   2
   0  -8  -1 2489.82 1114.75   8
  -8   0  -1-74.7986 962.161   2
  -8   8  -1 97.9207 631.424   2
  -8   8   0 6424.03 1119.83   2
   0  -8   0 7023.15 1295.88   8
   0  -8   1 1360.90 998.217   8
   0   8   1 266.326 949.949   1
  -8   8   2 12465.3 1973.26   1
   0  -8   2 16237.3 2091.03   8
   0   8   2 15346.9 2093.52   1
   0   8   3 2434.41 946.621   1
   0  -8   3 5173.98 1420.55   8
  -8   8   3 1860.42 989.144   1
   8   0   3 2010.39 832.085   1
   0  -8   4 9450.67 1856.94   8
  -8   8   4 6547.75 1850.07   1
   0   8   4 9893.14 2177.04   1
   8   0   4 8244.02 1665.43   1
   9  -5  -8 1042.59 345.190   5
   9  -4  -8 1203.56 384.046   5
   5   4  -8 626.220 295.966   6
   4   5  -8 1114.70 365.349   6
   9  -5  -7 1134.17 490.720   5
  -5  -4  -7 1834.52 838.465   7
   5  -9  -7 1339.19 468.297   6
   9  -4  -7 863.249 505.793   5
  -4  -5  -7 1181.51 676.533   7
   4  -9  -7 1153.35 452.667   6
   4   5  -7 1298.50 479.753   3
   9  -4  -7 1195.43 414.621   6
   5   4  -7 1638.80 546.981   6
   4   5  -7 1916.96 566.381   6
   5   4  -7 1428.46 489.652   3
   5  -9  -6 7287.98 1064.42   5
   5   4  -6 6426.41 936.064   3
   9  -4  -6 8366.62 1105.73   5
   5  -9  -6 7305.41 990.987   6
   9  -4  -6 6782.48 877.685   6
  -5  -4  -6 6342.05 991.633   6
  -4  -5  -6 5761.20 972.854   6
   4  -9  -6 6502.75 978.859   6
   4   5  -6 7481.81 991.473   3
   9  -5  -6 8026.24 1098.85   5
   5   4  -6 8540.91 1116.86   5
   4  -9  -5 1569.78 696.668   5
   5  -9  -5 496.970 501.266   5
   5   4  -5 1992.34 682.301   3
   4   5  -5 1560.33 630.487   3
   9  -4  -5 1322.06 558.256   5
  -9   4  -5 3682.22 1492.43   2
   4   5  -5 1156.57 574.488   5
   5   4  -5 1716.84 603.757   5
   9  -5  -5 535.057 487.886   5
  -5  -4  -5 1143.81 557.248   6
  -4  -5  -5 1445.18 670.862   6
   4  -9  -5 1327.48 580.462   6
   5  -9  -5 1430.79 597.993   6
   4  -9  -4 6626.00 966.661   5
   5  -9  -4 6552.09 937.711   5
   9  -5  -4 5296.57 883.432   5
   9  -4  -4 6135.22 865.586   5
  -4   9  -4 6091.03 795.475   4
   4   5  -4 6813.44 882.598   3
  -9   5  -4 5636.75 1523.79   2
   5   4  -4 5598.74 843.558   5
  -5   9  -4 7195.45 850.452   4
   5   4  -4 6903.77 905.642   3
   5  -9  -4 7401.81 1092.20   6
   4   5  -4 6941.88 944.446   5
  -4  -5  -4 6427.12 985.826   6
  -9   4  -4 6953.28 1625.34   2
  -5  -4  -4 6668.85 972.068   6
   4  -9  -4 6542.29 983.279   6
  -4   9  -4 6343.32 802.248   3
  -5  -4  -3-78.9356 548.610   2
  -9   5  -3-1095.63 1158.62   2
  -9   4  -3 1844.02 1183.48   2
  -5  -4  -2 1897.09 775.796   2
  -4  -5  -2 1489.27 632.156   2
   5  -9  -2 1292.92 792.697   8
   4  -9  -2 2444.60 954.319   8
  -9   5  -2 3983.59 1191.99   2
  -9   4  -2 2616.41 1033.95   2
   4  -9  -1 6755.87 1292.83   8
   5  -9  -1 4705.48 1013.89   8
  -4  -5  -1 6818.64 1800.57   8
  -5  -4  -1 3299.93 2116.27   8
   5   4  -1 5957.04 834.942   1
  -9   5  -1 6645.38 1168.35   2
  -9   4  -1 4233.73 893.722   2
   5   4   0 20438.6 1649.44   1
  -4  -5   0 18263.6 1984.74   8
   4   5   0 21277.1 1733.92   1
   5  -9   0 19926.5 1902.61   8
   4  -9   0 19444.9 1910.68   8
  -5  -4   0 19569.8 2262.81   8
  -9   5   0 20342.3 1828.87   2
  -9   4   0 20728.1 1939.95   2
  -4   9   0 8227.92 2232.51   1
  -5   9   0 11179.8 2881.81   1
  -9   4   1 7047.46 1217.50   2
  -5   9   1 11793.5 2843.51   1
  -4  -5   1 7358.42 1302.28   8
   5  -9   1 5888.80 1165.67   8
  -5  -4   1 6013.71 1274.97   8
  -9   5   1 7245.45 1140.79   2
  -4   9   1 11161.0 1962.23   1
   5   4   1 5679.23 1003.78   1
   4  -9   1 6995.73 1319.62   8
   4   5   1 6039.75 1079.20   1
  -9   4   2 2677.69 796.266   2
   4   5   2 2021.95 902.025   1
  -4  -5   2 1351.80 578.940   8
  -5  -4   2 1635.99 564.538   8
   4  -9   2 2123.20 719.715   8
   5  -9   2 951.266 707.391   8
  -4   9   2 1118.71 801.195   1
   5   4   2 2583.99 997.845   1
   5   4   3 477.712 953.771   1
   4   5   3 1297.56 986.557   1
   4  -9   3 816.254 856.390   8
  -5  -4   3 372.933 648.789   8
  -4   9   3-1691.47 1257.29   1
  -4  -5   3-12.9089 637.278   8
   5  -9   3 1288.70 950.717   8
  -5   9   3-971.150 1424.35   1
   5   4   4 6901.96 1787.92   1
   4   5   4 8604.24 2049.17   1
  -4  -5   4 7795.87 1633.18   8
  -5   9   4 5369.19 1338.48   1
  -4   9   4 5562.14 1529.50   1
   5  -9   4 8893.38 1827.98   8
  -5  -4   4 7695.96 1527.49   8
   9  -5   4 5540.52 1235.41   1
   9  -4   4 6655.47 1347.57   1
   4  -9   4 6265.17 1550.57   8
  -4  -5   5 1796.72 1142.38   8
   5  -9   5 1349.08 1013.88   8
   9  -6  -8 518.444 297.079   5
   9  -3  -8 532.973 285.659   5
   6   3  -8 494.133 265.420   6
   3   6  -8 729.172 341.093   6
   9  -3  -7 1884.52 599.385   5
   6   3  -7 1163.95 413.179   5
   3   6  -7 825.263 374.407   3
   9  -6  -7 2009.42 611.688   5
   3   6  -7 1577.83 545.735   6
   3  -9  -7 790.860 409.319   6
   6  -9  -7 1312.53 496.642   5
   6  -9  -7 1173.08 437.887   6
   9  -3  -7 945.785 404.102   6
  -3   9  -7 1329.75 751.583   6
   6   3  -7 1474.52 503.136   6
   6   3  -7 1567.83 511.003   3
   9  -3  -6 7294.69 1021.55   5
  -6  -3  -6 6447.69 1026.41   6
  -6  -3  -6 6090.54 1063.60   7
   3  -9  -6 8594.86 1144.38   6
   6  -9  -6 8835.53 1069.46   6
   9  -3  -6 8291.86 975.786   6
  -3  -6  -6 6149.67 1010.07   6
   6   3  -6 9080.53 1060.24   3
   3   6  -6 9332.71 1055.95   3
  -3   9  -6 7805.26 938.202   3
   6  -9  -6 9828.64 1154.89   5
   9  -6  -6 8500.17 1104.18   5
   6   3  -6 7338.00 1014.87   5
   6  -9  -5 579.149 481.994   5
   6   3  -5 305.307 431.138   3
   9  -6  -5 154.165 520.958   5
   3   6  -5-248.949 495.879   3
   9  -3  -5-385.992 477.090   5
  -3   9  -5 342.066 472.297   3
   6   3  -5 115.966 465.324   5
  -6  -3  -5-717.654 691.548   7
  -9   3  -5 1047.43 1116.24   2
  -6  -3  -5 124.657 448.680   6
  -3  -6  -5 624.318 494.401   6
   3  -9  -5 110.255 477.635   6
   6  -9  -5 379.763 488.109   6
   6  -9  -4 5111.77 863.659   5
   6   3  -4 5478.47 826.602   3
   9  -6  -4 4891.48 824.499   5
   9  -3  -4 4270.93 757.929   5
   6   3  -4 4852.34 800.700   5
  -3  -6  -4 4846.81 934.786   6
  -9   6  -4 8322.88 1861.28   2
  -6  -3  -4 4680.59 816.477   6
  -3   9  -4 4886.16 767.886   4
   3  -9  -4 4921.89 909.318   6
  -9   3  -4 4342.50 1278.45   2
   3   6  -4 6664.84 947.586   3
  -3   9  -4 6244.61 812.738   3
   9  -3  -4 4842.21 731.809   3
   3  -9  -4 5274.67 867.388   5
  -9   6  -3 2325.10 915.169   2
  -6  -3  -3 1147.15 503.800   2
  -6  -3  -2 3371.12 1022.56   2
  -3  -6  -2 3487.96 816.404   2
   3  -9  -2 2128.81 753.946   8
  -3  -6  -2 853.279 1135.35   8
  -9   6  -2 2754.66 955.073   2
  -9   3  -2 2407.21 761.285   2
  -9   6  -1 16265.9 1797.94   2
  -3  -6  -1 15653.4 2240.07   8
   3  -9  -1 16397.5 2028.13   8
   6  -9  -1 15618.9 1737.35   8
  -9   3  -1 17707.7 1958.07   2
  -3   9   0 15037.0 3521.93   1
   3   6   0 18656.4 1766.95   1
   3  -9   0 16189.8 1855.37   8
  -3  -6   0 16490.5 1889.47   8
   6  -9   0 17199.9 1743.46   8
  -9   3   0 17409.2 1892.96   2
  -9   6   0 18062.4 1675.70   2
   6   3   1 14130.7 1579.54   1
   3   6   1 15019.3 1711.17   1
  -3  -6   1 16256.3 1992.60   8
   6  -9   1 14438.0 1629.13   8
  -6  -3   1 16173.0 1861.66   8
  -9   6   1 13655.6 1363.08   2
   3  -9   1 15572.5 1982.13   8
  -9   3   1 14463.1 1699.70   2
  -6   9   1 10382.3 2513.19   1
  -3   9   1 13152.7 1927.36   1
   3   6   2 2886.19 1022.96   1
  -9   3   2 2959.25 823.751   2
  -3   9   2 2221.60 928.698   1
  -6   9   2 4805.41 1564.07   1
   3  -9   2 2973.61 948.009   8
  -3  -6   2 2908.24 864.433   8
  -6  -3   2 3579.00 847.711   8
   6  -9   2 2331.59 839.527   8
   6   3   2 3170.18 935.124   1
  -3   9   3 2088.29 1091.72   1
  -6  -3   3 2160.89 932.384   8
   9  -3   3-375.231 909.548   1
  -3  -6   3 2837.97 1154.90   8
   3   6   3 3602.42 1379.10   1
   6  -9   3 1585.53 852.914   8
   3  -9   3 2458.53 1088.26   8
   6   3   3 2505.04 1163.59   1
  -6   9   3 3481.79 1467.33   1
  -6   9   4 5908.92 1693.42   1
   6   3   4 5515.18 1563.06   1
  -3   9   4 3003.38 1175.84   1
   3   6   4 6210.49 1834.58   1
  -3  -6   4 5974.70 1498.79   8
   6  -9   4 6978.30 1593.37   8
   3  -9   4 5631.04 1542.36   8
   9  -3   4 5167.46 1250.19   1
   9  -7  -8 974.059 314.296   5
   9  -2  -8 1353.18 341.494   5
   7   2  -8 242.277 227.115   6
   2   7  -8-116.687 271.293   6
   7  -9  -7 208.428 403.931   5
  -2   9  -7 571.226 325.648   3
   2   7  -7 312.866 359.341   3
   9  -7  -7 1212.87 522.031   5
   9  -2  -7 1131.96 531.004   5
   7   2  -7 672.512 427.653   5
   2  -9  -7 315.525 404.238   6
   7  -9  -7 482.668 349.042   6
   9  -2  -7-69.0968 300.429   6
   7   2  -7 757.974 407.373   6
  -2   9  -7 1022.43 586.968   6
   7   2  -7 287.136 344.280   3
   2   7  -7 887.983 433.784   6
   7   2  -6 3587.12 743.036   3
   7  -9  -6 3752.15 801.779   5
   9  -7  -6 3072.82 722.081   5
   2   7  -6 3843.64 745.803   3
  -2   9  -6 3924.83 737.165   3
   9  -2  -6 3306.25 800.054   5
   7   2  -6 3027.21 735.122   5
  -2  -7  -6 3512.81 835.980   6
   2  -9  -6 3117.84 766.923   6
   7  -9  -6 4099.15 755.609   6
   9  -2  -6 4101.33 694.676   6
   7  -9  -5 457.749 432.510   5
   7   2  -5 967.576 505.213   3
   9  -7  -5 706.810 566.913   5
   2   7  -5 337.740 508.871   3
   9  -2  -5-318.966 514.240   5
   7   2  -5-109.729 487.724   5
  -2   9  -5 123.380 481.230   3
   9  -2  -5-124.608 442.155   3
  -7  -2  -5-135.244 556.804   7
  -7  -2  -5 580.370 543.504   6
  -2  -7  -5 433.045 552.559   6
   2  -9  -5 350.889 498.206   6
   9  -2  -5 1055.70 506.109   6
  -7  -2  -4 6792.19 1057.98   7
   9  -7  -4 7050.35 933.938   5
   7   2  -4 6095.66 913.348   5
  -2   9  -4 7334.76 982.722   4
  -9   7  -4 10465.7 2084.26   2
  -2  -7  -4 7737.61 1116.34   6
   2  -9  -4 7134.43 1059.31   6
  -9   2  -4 5820.69 1419.40   2
   9  -2  -4 6588.30 851.401   3
   7   2  -4 8155.31 971.818   3
   2   7  -4 7680.87 955.945   3
  -2   9  -4 7081.18 892.165   3
   7  -9  -4 7197.40 989.357   5
   9  -2  -4 6706.09 1008.40   5
   9  -2  -3 658.292 423.900   5
   7   2  -3 925.851 466.947   5
  -2   9  -3 511.754 447.611   4
  -9   7  -3 501.268 938.841   2
   2   7  -3 513.211 474.296   4
  -9   2  -3 1483.39 892.598   2
  -7  -2  -3 231.813 558.968   2
   2  -9  -2 8438.67 1642.29   8
  -7  -2  -2 9807.83 1763.72   2
  -2  -7  -2 8897.06 1729.12   8
  -9   7  -2 8089.34 1484.48   2
  -9   2  -2 6896.35 1290.64   2
   7  -9  -1 1.17014 487.152   8
  -2  -7  -1 887.030 797.358   8
   2  -9  -1 1074.05 921.913   8
  -9   7  -1-609.468 696.556   2
  -9   2  -1 795.703 907.197   2
  -9   2   0 2263.27 704.030   2
   2   7   0 5929.80 1153.94   1
  -2  -7   0 2272.96 816.116   8
   7  -9   0 2980.39 751.047   8
   2  -9   0 3332.84 1071.67   8
  -9   7   0 3684.98 982.689   2
  -2   9   1-656.083 851.304   1
  -9   2   1-1306.03 1022.61   2
   2   7   1 15.5812 660.157   1
   2  -9   1 440.973 883.629   8
   7  -9   1 109.023 451.629   8
  -2  -7   1 1476.55 867.066   8
  -9   7   1 232.203 423.957   2
   7  -9   2 8350.85 1218.92   8
  -2  -7   2 8239.75 1448.95   8
   2   7   2 10020.4 1758.88   1
   2  -9   2 9696.37 1602.84   8
   7   2   2 8481.42 1381.21   1
  -7   9   2 7367.49 1755.18   1
  -2   9   2 9882.85 1849.38   1
  -2  -7   3 1388.19 842.231   8
   7  -9   3 1794.25 899.450   8
  -7   9   3 321.676 924.828   1
   2   7   3 226.461 820.243   1
   9  -2   3 27.8167 714.757   1
   2  -9   3 1399.27 1093.82   8
   7   2   3 523.723 701.182   1
  -2   9   3 1200.90 1097.18   1
   7   2   4 8129.05 1738.18   1
  -2   9   4 7932.00 1776.93   1
  -2  -7   4 9001.93 1832.12   8
   7  -9   4 8179.76 1731.12   8
   2  -9   4 8343.53 1811.84   8
  -7   9   4 7416.77 1807.46   1
   2   7   4 7225.78 1841.91   1
   9  -2   4 6037.14 1418.11   1
   9  -1  -8 2003.24 369.157   5
   1  -9  -8 1249.98 365.873   7
   8   1  -8 1338.63 304.013   6
   1   8  -8 1422.41 336.650   6
   8  -9  -7-314.701 426.852   5
  -1   9  -7-175.167 263.197   3
   1   8  -7 135.948 327.083   3
   9  -8  -7 383.055 409.448   5
   9  -1  -7 124.071 359.625   5
   8   1  -7-202.723 344.125   5
   9  -1  -7-174.109 344.204   6
   8   1  -7-529.607 399.723   6
  -1   9  -7 686.021 446.309   6
   1   8  -7 357.829 413.186   6
   8  -9  -6 502.080 443.411   5
   9  -8  -6 1605.91 634.166   5
   1   8  -6 825.445 489.011   3
  -1   9  -6-42.3640 433.580   3
   9  -1  -6 982.647 572.993   5
   8   1  -6 69.8331 455.347   5
  -1  -8  -6 706.767 592.576   6
   1  -9  -6-66.4889 530.032   6
   9  -1  -6 250.902 385.145   3
   9  -1  -6 529.725 444.238   6
   8   1  -6 949.505 524.252   6
   8   1  -6 924.165 501.070   3
   8   1  -5-58.1404 383.496   3
   8  -9  -5-13.8139 490.998   5
   9  -8  -5 237.958 491.560   5
   9  -1  -5-133.689 550.588   5
   1   8  -5-2.22833 458.056   3
   8   1  -5 267.479 553.848   5
  -1   9  -5-139.925 419.252   3
  -8  -1  -5-620.901 506.673   7
  -1  -8  -5-377.256 643.295   6
   1  -9  -5 17.9109 543.927   6
   9  -1  -5-70.7508 386.826   3
   9  -1  -4 5526.30 774.071   3
   8   1  -4 5387.02 784.090   3
   8  -9  -4 5885.21 865.514   5
   9  -1  -4 5921.10 947.159   5
  -8  -1  -4 8012.46 1103.65   7
   1   8  -4 6583.60 879.213   3
  -1  -8  -4 5767.67 983.060   6
   1  -9  -4 5893.56 1026.72   6
  -9   1  -4 6430.42 1537.33   2
  -8  -1  -4 5521.07 1379.99   2
  -1   9  -4 6637.55 876.531   3
   9  -8  -4 7347.68 984.900   5
  -1   9  -4 5557.74 945.049   4
   8   1  -4 6599.85 992.031   5
  -9   8  -3 303.589 945.390   2
   9  -1  -3 332.471 342.824   5
   8   1  -3 913.344 437.374   5
  -1   9  -3 601.440 473.376   4
   1   8  -3 477.931 486.184   4
  -8  -1  -3 333.698 472.008   7
  -9   1  -3 535.081 814.739   2
  -8  -1  -3-1316.91 896.792   2
   1  -9  -2 10050.6 1779.67   8
  -9   8  -2 7740.72 1511.51   2
  -8  -1  -2 12514.2 2096.16   2
  -1  -8  -2 7391.74 1555.06   8
  -9   1  -2 5070.21 1000.53   2
  -9   1  -1 1742.42 1206.77   2
  -8   9  -1 1118.13 902.233   2
   1  -9  -1 30.0896 917.959   8
   8  -9  -1-562.826 496.232   8
  -1  -8  -1 1428.42 1024.06   8
  -9   8  -1 491.554 658.170   2
  -9   1   0 6963.12 1339.57   2
   8  -9   0 10346.0 1308.02   8
  -9   8   0 9948.99 1394.59   2
  -1  -8   0 9729.16 1619.47   8
   1  -9   0 9988.84 1584.17   8
   1  -9   1 465.237 868.150   8
  -1  -8   1 649.439 1027.48   8
   8  -9   1 347.800 551.332   8
   1   8   1-144.888 835.369   1
  -1   9   1 1561.44 1052.27   1
   1   8   2 7823.19 1629.34   1
  -1  -8   2 9009.73 1637.18   8
   8   1   2 7993.34 1384.31   1
   1  -9   2 8912.57 1628.45   8
  -8   9   2 8399.03 1769.51   1
  -1   9   2 9282.88 1880.51   1
  -8   9   3-595.434 1236.45   1
  -1  -8   3-672.983 1006.71   8
   1  -9   3 837.213 1042.03   8
   1   8   3-770.564 1177.23   1
   9  -1   3 848.386 775.405   1
  -9   8   3-1303.49 1385.02   1
   8   1   3 381.924 778.633   1
  -1   9   3 641.335 1021.86   1
  -8   9   4 6615.94 1830.33   1
  -9   8   4 6086.99 1591.30   1
  -1  -8   4 6837.03 1679.85   8
   1  -9   4 6627.95 1665.09   8
   1   8   4 6568.10 1643.35   1
   9  -1   4 8576.68 1749.79   1
  -1   9   4 8215.15 1937.96   1
   8   1   4 7021.04 1622.59   1
   9  -9  -7 305.378 349.387   5
   0   9  -7 279.428 283.078   3
   9   0  -7 658.287 439.938   5
   9   0  -7-252.928 303.675   6
   0   9  -7 589.583 396.344   6
   9  -9  -6 90.8849 399.242   5
   0   9  -6 232.942 389.562   3
   9   0  -6 894.142 510.659   5
   9   0  -6 830.242 494.668   6
   9   0  -6 259.357 350.915   3
   9  -9  -5 571.896 478.155   5
   9   0  -5-176.894 513.398   5
   0   9  -5 154.989 460.787   3
   0  -9  -5 486.420 592.765   6
   9   0  -5 206.470 348.116   3
   9   0  -4 951.454 447.827   3
   9  -9  -4-20.6731 379.985   5
   9   0  -4 400.521 522.784   5
   0   9  -4 414.679 491.025   3
  -9   0  -4 1643.83 666.715   7
  -9   0  -4 1398.72 833.777   2
   0   9  -4 495.174 537.987   4
   9   0  -3 2439.66 607.137   5
   0   9  -3 2239.05 685.193   4
  -9   0  -3 1583.09 733.969   2
  -9   0  -3 2392.91 739.014   7
   0  -9  -2 25960.6 2961.50   8
  -9   9  -2 25997.6 2801.77   2
  -9   0  -2 30158.5 3385.79   2
  -9   0  -1 3112.20 1466.64   2
  -9   9  -1 3691.49 1240.09   2
   0  -9  -1 4466.89 1411.43   8
   0  -9   0 9549.32 1654.24   8
  -9   9   0 10084.0 1481.54   2
   0  -9   1 2917.41 1156.88   8
   0   9   1 7000.67 1637.88   1
   9   0   2 20930.7 2311.94   1
   0  -9   2 25664.3 2738.79   8
   0   9   2 24475.0 2866.67   1
  -9   9   3 1527.49 831.614   1
   0  -9   3 1683.96 834.904   8
   9   0   3 1155.28 838.483   1
   0  -9   4 496.457 1058.20   8
  -9   9   4-1348.64 1158.89   1
   0   9   4 1239.89 1223.24   1
   9   0   4 1801.86 1136.85   1
  10  -5  -8 1317.83 319.673   5
   5   5  -8 1390.04 325.837   6
  10  -5  -7-486.066 419.207   5
  -5  -5  -7 292.206 459.496   7
   5 -10  -7-51.8442 308.305   6
   5   5  -7 64.3317 360.694   6
   5   5  -7 234.715 377.168   3
   5   5  -6 2596.78 640.171   3
  10  -5  -6 3535.48 841.318   5
   5   5  -6 3356.64 692.962   5
  -5  -5  -6 2404.72 685.345   7
   5 -10  -6 2216.21 626.015   6
   5   5  -5-316.785 444.198   3
  10  -5  -5-65.1608 471.644   5
   5   5  -5-216.114 435.471   5
  -5  10  -5 476.552 463.660   4
   5 -10  -5 75.0400 445.459   6
   5 -10  -5 853.219 537.149   5
  -5  10  -4 13689.8 1206.32   4
 -10   5  -4 16777.8 2649.99   2
   5 -10  -4 14538.8 1467.05   6
   5   5  -4 14229.0 1354.15   3
   5 -10  -4 14851.2 1427.12   5
  10  -5  -4 13641.8 1340.85   5
   5   5  -4 12772.6 1273.49   5
  10  -5  -3 215.057 389.895   5
   5   5  -3-15.2959 379.090   3
   5   5  -3 220.637 485.841   5
  -5  10  -3-48.2627 375.527   4
  -5  -5  -2 3874.40 963.982   2
   5 -10  -2 3904.11 1175.55   8
 -10   5  -2 5302.98 1320.22   2
  -5  -5  -1-2195.70 2410.11   8
   5 -10  -1 129.020 636.444   8
 -10   5  -1-794.654 757.211   2
   5   5   0 68611.1 3245.18   1
   5 -10   0 63343.2 3618.01   8
  -5  -5   0 70556.8 4634.31   8
  -5  10   0 62753.1 5607.03   1
 -10   5   0 68861.7 3667.91   2
  -5  10   1 1746.52 1859.30   1
   5 -10   1-66.7088 725.076   8
  -5  -5   1 292.652 754.169   8
   5   5   1 162.667 607.759   1
 -10   5   1-172.601 532.993   2
  -5  -5   2 3166.42 984.450   8
   5 -10   2 3210.37 945.791   8
   5   5   2 3766.60 1108.42   1
   5   5   3 1478.76 1199.21   1
  -5  -5   3 637.501 772.727   8
   5 -10   3 139.484 860.220   8
  -5  10   3-302.457 891.948   1
   5   5   4 15322.3 2567.88   1
  -5  -5   4 14610.3 2117.23   8
   5 -10   4 17808.8 2603.91   8
  -5  10   4 14803.4 2455.61   1
  10  -5   4 9932.11 1793.16   1
  10  -6  -8 791.375 256.724   5
  10  -4  -8 210.534 230.471   5
   6   4  -8 786.354 271.309   6
   4   6  -8 424.017 251.233   6
  10  -6  -7 898.952 451.293   5
  10  -4  -7 793.125 446.578   5
   6   4  -7 531.382 307.196   5
  -4  -6  -7 402.226 430.914   7
   6 -10  -7-235.372 337.378   6
   6   4  -7 365.759 348.124   6
   4   6  -7 1149.87 468.572   6
   6   4  -7 73.9809 336.075   3
   4   6  -7 325.817 352.919   3
  -6  -4  -6 9009.59 1274.84   7
   4 -10  -6 8419.38 1038.20   6
   6 -10  -6 9340.51 1029.71   6
   6   4  -6 10257.3 1099.94   3
   4   6  -6 10520.1 1149.94   3
   6 -10  -6 10299.8 1136.10   5
  10  -6  -6 11557.4 1209.40   5
  10  -4  -6 11349.7 1229.94   5
   6   4  -6 10629.2 1113.12   5
   6 -10  -5 414.502 474.564   5
   6   4  -5-226.816 434.056   3
  10  -6  -5 178.753 472.138   5
   4   6  -5 610.594 563.518   3
  10  -4  -5 107.816 449.005   5
  -4  10  -5 48.8276 382.172   3
   6   4  -5 338.091 421.656   5
   4 -10  -5-378.106 513.367   6
  -6  -4  -5-151.258 561.431   7
   6 -10  -5-81.9055 444.657   6
   6 -10  -4 2127.45 601.373   5
 -10   6  -4 2389.52 1419.98   2
   6   4  -4 2574.39 653.718   3
  10  -6  -4 2270.98 592.751   5
  10  -4  -4 2159.45 649.681   5
   4   6  -4 3048.65 772.032   3
   4   6  -4 3539.69 827.203   5
   6   4  -4 1832.87 605.365   5
  -4  10  -4 2265.81 575.437   3
  -4  10  -4 1890.60 552.528   4
  -6  -4  -4 2283.07 715.513   7
 -10   4  -4 2033.10 1244.43   2
   4 -10  -4 1678.04 635.614   6
  -6  10  -4 2399.23 597.272   4
  10  -6  -3 1569.78 479.361   5
   6   4  -3 1903.71 521.881   3
  10  -4  -3 2056.43 634.378   5
   4   6  -3 2006.06 560.219   3
   4   6  -3 1859.24 527.350   5
   6   4  -3 2459.44 584.610   5
  -6  -4  -3 1533.92 541.572   2
  -4  10  -3 1213.56 517.070   4
  -6  10  -3 2500.84 599.705   4
   4 -10  -3 1290.82 556.238   6
 -10   6  -3 2842.62 1130.50   2
 -10   4  -3 4366.65 1492.92   2
  -6  -4  -3 1431.86 545.673   7
  -6  -4  -2 2085.99 907.288   2
  -4  -6  -2 1716.73 692.666   2
   4 -10  -2 1625.66 927.214   8
 -10   6  -2 3526.46 1310.65   2
   6 -10  -2 1216.45 824.896   8
 -10   4  -2 1795.01 934.344   2
   4 -10  -1 660.203 796.838   8
  -4  -6  -1 2357.11 1212.90   8
   6 -10  -1 1165.08 645.778   8
 -10   6  -1 1858.31 836.053   2
 -10   4  -1 682.894 803.210   2
   6   4   0 31349.1 2257.00   1
 -10   6   0 30206.2 2406.83   2
   4   6   0 34398.0 2511.59   1
   4 -10   0 30811.8 2698.54   8
   6 -10   0 31438.4 2535.35   8
 -10   4   0 32482.1 2668.17   2
  -4  -6   0 28739.3 2731.56   8
 -10   4   1 779.790 609.681   2
   4   6   1 936.902 673.463   1
  -4  -6   1 1326.19 1004.01   8
   6 -10   1 1483.84 830.523   8
   4 -10   1 960.105 790.823   8
 -10   6   1 1148.06 582.682   2
   6   4   1 805.851 616.629   1
  -6  10   1-112.724 1855.95   1
 -10   4   2 1624.27 695.348   2
   4   6   2 3322.73 1129.22   1
  -6  10   2 3179.83 1510.81   1
   6 -10   2 1317.59 673.445   8
   4 -10   2 1804.93 810.467   8
  -4  10   2-513.653 1075.06   1
  -4  -6   2 667.042 730.020   8
   6   4   2 2681.39 1091.32   1
  -6  10   3 3377.66 1415.99   1
  -4  -6   3 1210.88 829.116   8
   4   6   3 2495.17 1239.92   1
   4 -10   3 2150.08 1101.04   8
   6 -10   3 1651.00 997.431   8
  -4  10   3 48.3029 1013.34   1
   6   4   3 2888.81 1374.97   1
  -6  10   4 3364.08 1363.93   1
   6   4   4 3056.23 1259.03   1
  -4  -6   4 2202.53 1136.87   8
   4 -10   4 3085.85 1248.46   8
   6 -10   4 2391.97 1240.27   8
  -4  10   4 1119.57 822.815   1
   4   6   4 2425.45 1212.52   1
  10  -4   4 679.947 802.613   1
  10  -7  -8 374.966 212.226   5
  10  -3  -8 496.818 238.952   5
   7   3  -8 58.1486 194.437   6
   3   7  -8 17.9231 208.916   6
   3   7  -7 413.400 364.618   3
  10  -7  -7 80.8550 349.343   5
  10  -3  -7 593.643 421.890   5
   7   3  -7 284.115 297.936   5
  -3  -7  -7 603.483 440.732   7
   7 -10  -7 165.427 319.483   6
   7   3  -7 227.442 311.157   6
   7   3  -7 50.0899 300.241   3
   3   7  -7 591.132 428.399   6
  -7  -3  -6 8797.31 1326.66   7
   3 -10  -6 7833.44 1054.55   6
   7 -10  -6 8416.94 979.291   6
   7   3  -6 8549.62 1021.91   3
   3   7  -6 7762.66 1001.61   3
  -3  10  -6 8676.52 983.385   3
   7 -10  -6 7526.64 990.765   5
  10  -7  -6 7506.70 1016.88   5
  10  -3  -6 7754.86 1035.58   5
   7   3  -6 7109.72 949.203   5
   7 -10  -5 222.291 417.157   5
   7   3  -5 112.830 383.325   3
  10  -7  -5 921.082 571.407   5
   3   7  -5-91.8309 492.462   3
  10  -3  -5-155.406 492.967   5
  -3  10  -5 581.423 488.838   3
   7   3  -5 731.714 585.452   5
  -7  -3  -5 300.052 540.927   7
   3 -10  -5-25.0659 499.824   6
   7 -10  -4 5068.91 836.401   5
  10  -7  -4 4610.59 785.644   5
  10  -3  -4 4817.52 932.144   5
   3   7  -4 5832.59 896.545   3
   7   3  -4 4879.27 858.293   5
  -3  10  -4 5211.12 860.587   4
 -10   7  -4 7815.74 2061.16   2
   3 -10  -4 4795.90 923.585   6
 -10   3  -4 5200.27 1350.68   2
  -7  -3  -4 4221.96 912.864   7
  10  -3  -4 3948.23 633.204   3
   7   3  -4 6222.21 921.680   3
  -3  10  -4 5376.77 826.936   3
   7   3  -3 3491.11 632.987   3
  10  -3  -3 3424.13 690.574   5
   7   3  -3 3856.99 724.596   5
   3   7  -3 4247.22 691.291   3
  -7  -3  -3 3132.57 794.963   7
  -3  10  -3 4351.65 765.500   4
  -7  10  -3 4194.70 668.577   4
 -10   7  -3 3324.42 1272.11   2
  -7  -3  -3 3375.94 927.368   2
  -7  -3  -2 7061.94 1552.42   2
   3 -10  -2 7428.02 1606.85   8
  -3  -7  -2 4178.44 1427.49   8
 -10   7  -2 6567.64 1306.06   2
 -10   3  -2 4593.21 1209.80   2
   3 -10  -1 2926.32 1089.91   8
  -3  -7  -1 4140.52 1410.80   8
   7 -10  -1 1665.56 752.909   8
 -10   7  -1 2377.38 1039.18   2
 -10   3  -1 3429.25 1030.49   2
 -10   3   0 1033.71 843.830   2
  -3  -7   0-508.267 977.318   8
   3 -10   0 771.487 759.549   8
   7 -10   0 1121.31 627.130   8
 -10   7   0 1540.98 679.587   2
 -10   3   1 2796.94 945.044   2
   3   7   1 2938.25 1132.64   1
  -3  -7   1 3122.96 1142.61   8
   3 -10   1 1941.21 993.157   8
   7 -10   1 1678.89 751.537   8
  -3  10   1-537.240 1002.06   1
   7   3   1 2290.85 857.303   1
 -10   7   1 2710.07 807.794   2
 -10   3   2 6504.69 1273.50   2
   3   7   2 8801.70 1677.81   1
  -3  10   2 4096.34 1256.73   1
   3 -10   2 6704.26 1383.97   8
   7 -10   2 5964.44 1191.35   8
  -3  -7   2 6033.72 1348.27   8
  -7  10   2 6886.04 1729.58   1
   7   3   2 7901.27 1557.26   1
  -3  10   3 1615.15 834.015   1
   3   7   3 3197.97 1237.33   1
  -3  -7   3 2935.72 955.482   8
   3 -10   3 2801.15 1109.42   8
   7 -10   3 4657.91 1297.29   8
  10  -3   3 1781.57 834.935   1
  -7  10   3 4217.16 1442.39   1
   7   3   3 6158.33 1604.69   1
   7   3   4 6478.31 1709.79   1
   3   7   4 5272.34 1673.68   1
  -3  10   4 4915.53 1384.63   1
   3 -10   4 6769.26 1681.53   8
   7 -10   4 6823.07 1726.58   8
  -7  10   4 7820.27 1969.82   1
  -3  -7   4 5690.60 1549.98   8
  10  -3   4 4935.49 1392.16   1
  10  -2  -8 807.849 235.124   5
  -2  10  -7-20.5656 228.508   3
   2   8  -7 267.015 302.366   3
  10  -8  -7-268.164 349.742   5
  10  -2  -7 223.623 340.373   5
   8   2  -7 292.104 346.126   5
  -2  -8  -7 189.915 344.788   7
   8   2  -7-712.302 378.017   6
  -2  10  -7 768.380 469.603   6
   2   8  -7-281.659 334.455   6
   8 -10  -6 3061.70 671.319   5
  10  -8  -6 3145.15 686.678   5
   2   8  -6 4067.33 755.975   3
  -2  10  -6 4288.92 749.850   3
  10  -2  -6 2968.22 758.211   5
   8   2  -6 2759.71 604.282   5
   8   2  -6 3868.52 709.889   3
   8 -10  -5 377.385 431.757   5
   8   2  -5 869.333 460.509   3
  10  -8  -5 234.290 410.721   5
  10  -2  -5-97.0677 500.683   5
   2   8  -5-0.74577 445.137   3
   8   2  -5 291.162 554.900   5
  -2  10  -5-180.514 404.814   3
  -8  -2  -5 389.219 570.142   7
   2 -10  -5-560.158 544.328   6
  10  -2  -5-300.503 397.833   3
   8 -10  -4 1902.52 554.759   5
   8   2  -4 2329.17 623.388   3
  10  -8  -4 2901.62 609.691   5
  10  -2  -4 2835.15 735.332   5
   8   2  -4 2110.58 635.772   5
   2   8  -4 3157.94 701.377   3
  -2  10  -4 3335.72 691.439   3
  -2  10  -4 2476.42 722.803   4
  -8  -2  -4 2841.11 707.218   7
  10  -2  -4 1894.78 475.249   3
   8   2  -3 3452.94 638.708   3
  10  -2  -3 3759.94 750.786   5
   8   2  -3 3505.76 670.060   5
   2   8  -3 3091.76 684.102   4
  -2  10  -3 4592.66 796.830   4
  -8  10  -3 3293.45 587.270   4
  -8  -2  -3 3855.42 783.097   7
 -10   8  -3 4050.76 1393.06   2
 -10   2  -3 4839.57 1481.67   2
  -8  -2  -3 2558.20 932.899   2
  -2  10  -2 10166.0 1020.18   4
   2 -10  -2 9208.35 1875.40   8
  -2  -8  -2 9762.81 2026.86   8
 -10   8  -2 8029.96 1633.86   2
 -10   2  -2 6445.44 1212.86   2
   8   2  -2 9880.23 980.294   5
  -8  -2  -2 9805.83 2057.90   2
  -2  -8  -1 1390.29 1085.15   8
   2 -10  -1 1079.67 938.421   8
   8 -10  -1 181.580 573.895   8
 -10   8  -1-50.3628 759.808   2
 -10   2   0 7214.75 1602.06   2
  -2  -8   0 8574.34 1563.98   8
   2 -10   0 8290.21 1523.37   8
   8 -10   0 11034.6 1518.98   8
 -10   8   0 8044.75 1334.36   2
 -10   2   1-482.567 918.803   2
   8   2   1-276.288 805.294   1
  -2  10   1-1350.10 1023.51   1
   2 -10   1 1031.78 839.113   8
  -2  -8   1 265.752 710.734   8
   8 -10   1-21.3147 654.153   8
   2   8   1 587.686 898.893   1
  -2  10   2 8565.62 1827.94   1
 -10   2   2 8265.92 1536.85   2
   2 -10   2 9966.20 1793.46   8
   8 -10   2 9279.84 1417.57   8
 -10   2   2 9154.17 1048.68   7
  -8  10   2 6313.77 1535.71   1
  -2  -8   2 6711.61 1334.93   8
   2   8   2 8020.87 1736.07   1
   8   2   2 7801.16 1474.66   1
  -2  10   3 4272.37 1418.08   1
  -8  10   3 2552.20 952.246   1
   2   8   3 3852.96 1387.16   1
  -2  -8   3 3764.04 1223.11   8
   2 -10   3 4073.05 1434.28   8
  10  -2   3 3416.78 1206.41   1
   8   2   3 5029.47 1432.52   1
   8   2   4 2684.99 1222.66   1
  -8  10   4 2499.95 1056.58   1
  -2  10   4 4061.56 1465.74   1
  -2  -8   4 2196.39 1114.88   8
   2 -10   4 3365.76 1448.08   8
   2   8   4 720.685 861.299   1
  10  -2   4 3898.00 1388.17   1
  10  -9  -7 428.421 318.051   5
  -1  10  -7 472.029 268.855   3
   1   9  -7 708.306 344.803   3
  10  -1  -7 215.821 355.698   5
   9   1  -7 145.156 332.826   5
   9   1  -7 5.56581 286.641   6
  -1  10  -7 457.619 354.480   6
   1   9  -7 1079.32 447.964   6
   9 -10  -7 372.675 335.181   5
   9 -10  -6 840.632 505.089   5
  10  -9  -6 1023.38 543.602   5
   1   9  -6 552.287 435.813   3
  -1  10  -6 801.895 490.273   3
  10  -1  -6 705.861 484.918   5
   9   1  -6 740.655 475.995   5
   9   1  -6 1255.03 479.327   6
   9   1  -6 970.887 430.047   3
   9 -10  -5 731.182 477.191   5
  10  -9  -5 576.272 435.720   5
  10  -1  -5 509.614 509.971   5
   1   9  -5 1044.26 561.645   3
   9   1  -5 563.615 517.644   5
  -9  -1  -5 1037.01 702.507   7
  -1  10  -5 948.097 515.970   3
  10  -1  -5 439.863 360.108   3
   9   1  -5 946.550 480.741   3
   9   1  -4 238.965 376.825   3
  10  -9  -4 735.826 493.982   5
  10  -1  -4 410.004 452.320   5
   9   1  -4 978.492 621.174   5
  -1  10  -4 153.114 463.757   3
   1   9  -4 938.990 528.369   3
  -9  -1  -4 1116.39 656.846   7
 -10   1  -4-23.6013 693.618   2
  -9  -1  -4-147.217 674.450   2
  -1  10  -4 1021.00 622.280   4
  10  -1  -4 584.008 398.540   3
  10  -1  -3-328.946 459.215   5
   9   1  -3 484.696 474.175   5
 -10   9  -3 2460.98 1526.53   2
  -1  10  -3 877.329 601.582   4
 -10   1  -3-243.716 475.848   7
  -9  -1  -3 436.500 497.832   7
   1   9  -3-431.428 523.194   4
 -10   1  -3-1009.03 806.193   2
  -9  -1  -3-1375.28 988.633   2
 -10   9  -2 16600.4 2307.49   2
   1   9  -2 18066.4 1372.65   4
  -9  10  -2 20248.6 1361.50   4
  -9  -1  -2 20917.8 1576.79   7
 -10   1  -2 21765.9 1525.33   7
   1 -10  -2 19241.4 2620.78   8
  -9  -1  -2 26121.4 3479.19   2
  -1  -9  -2 20486.7 2798.84   8
  -1  10  -2 19752.5 1424.74   4
 -10   1  -2 16439.7 2369.10   2
  10  -1  -2 20289.3 1382.73   5
   9   1  -2 21549.4 1471.16   5
  -9  -1  -1-1093.41 2678.77   2
 -10   9  -1 554.795 767.077   2
  -1  -9  -1 1715.24 1048.93   8
   1 -10  -1 1656.77 1153.18   8
 -10   1   0 9585.31 1911.83   2
   1 -10   0 13859.3 2020.38   8
 -10   9   0 14082.6 1729.67   2
  -1  -9   0 12641.3 1897.64   8
 -10   1   1 65.6020 1087.18   2
  -1  -9   1 1198.05 932.320   8
   1 -10   1 3256.86 1297.88   8
  -1  10   2 21492.3 2737.69   1
   9   1   2 20727.8 2395.09   1
   1 -10   2 24003.5 2875.80   8
   1   9   2 18181.5 2453.48   1
 -10   1   2 19199.6 1489.39   7
  -9  -1   2 19614.8 1525.82   7
  -1  -9   2 20267.8 2560.93   8
  -1  -9   3 210.031 1061.62   8
   1 -10   3-543.147 946.752   8
   1   9   3 367.733 808.112   1
  10  -1   3-1709.53 1182.67   1
   9   1   3-640.216 909.548   1
  -1  10   3 1581.98 1276.11   1
  -9  10   3-2184.00 1556.40   1
  -1  10   4-475.985 1001.66   1
  -1  -9   4 467.070 1030.68   8
   1 -10   4 477.535 901.263   8
  -9  10   4-1111.65 1375.51   1
   1   9   4 1408.82 806.838   1
  10  -1   4 1210.59 1144.68   1
   9   1   4 1794.28 1096.95   1
   0  10  -7 581.573 271.046   3
  10   0  -7 714.515 363.854   5
   0  10  -7 995.337 409.697   6
  10 -10  -7 898.200 330.759   5
  10 -10  -6 687.304 408.799   5
   0  10  -6 162.161 395.691   3
  10   0  -6 620.789 433.961   5
  10   0  -6 534.894 356.359   6
  10 -10  -5 2736.54 641.456   5
  10   0  -5 3524.41 789.238   5
   0  10  -5 4575.92 856.792   3
  10   0  -5 2849.80 613.967   3
  10   0  -4 998.816 607.595   5
   0  10  -4 1084.23 505.086   3
 -10   0  -4 1949.51 733.772   7
  10   0  -4 344.756 367.842   3
   0  10  -3 971.708 562.693   4
 -10   0  -3 515.698 484.276   7
  10   0  -3 750.227 516.524   5
 -10   0  -3 911.819 830.137   2
 -10   0  -2 13945.0 1351.84   7
   0 -10  -2 14379.3 2339.31   8
   0  10  -2 13224.2 1208.67   4
 -10  10  -2 14569.6 1173.98   4
 -10   0  -2 13385.7 2418.70   2
  10   0  -2 13542.9 1247.36   5
 -10   0  -1 9883.59 3264.16   2
 -10  10  -1 6207.74 1593.62   2
   0 -10  -1 6550.04 1700.50   8
 -10   0  -1 7786.62 1010.81   7
   0  10  -1 5786.83 813.228   4
 -10   0   0 20589.5 1584.17   7
   0 -10   0 18671.7 2451.87   8
 -10   0   1 5014.00 1645.75   2
   0 -10   1 7431.26 1680.05   8
 -10   0   1 6348.52 910.785   7
   0 -10   2 17202.6 2512.46   8
 -10   0   2 13958.2 1329.95   7
   0  10   2 16540.6 2487.48   1
  10   0   2 12157.0 1870.81   1
   0 -10   3 277.766 887.626   8
  10   0   3-456.003 997.690   1
   0  10   3 1253.84 1068.80   1
  11  -6  -7 111.345 296.777   5
  11  -5  -7 305.131 331.766   5
  -6  -5  -7-100.846 439.876   7
  -5  -6  -7 394.087 422.174   7
   6   5  -7 542.188 367.385   6
   5   6  -7 953.386 431.174   6
   6   5  -7 178.074 291.907   3
   5   6  -7 88.5888 294.634   3
   5   6  -6 6481.97 887.679   3
  -6  -5  -6 5893.47 1066.59   7
  -5  -6  -6 5361.92 969.500   7
   6   5  -6 6900.80 893.157   3
  11  -6  -6 7656.42 980.404   5
  11  -5  -6 6731.11 929.951   5
   6   5  -6 6426.36 835.173   5
   6   5  -5 900.519 568.328   3
   5   6  -5 529.075 502.602   3
  11  -6  -5 87.9487 444.961   5
  11  -5  -5 651.963 488.259   5
   5   6  -5-41.0780 357.470   5
   6   5  -5 1356.72 560.615   5
  -5  11  -5 1699.77 636.855   4
  -6  11  -5 1313.72 553.964   4
  -6  -5  -5 545.481 533.218   7
  -5  -6  -5 239.289 520.826   7
   5 -11  -5 615.409 455.822   6
   6 -11  -5 749.910 534.297   6
  11  -6  -4 990.424 474.688   5
   6   5  -4 1006.65 506.843   3
  11  -5  -4 1038.51 532.791   5
   5   6  -4 1476.03 623.438   3
   5   6  -4 1096.19 536.036   5
   6   5  -4 458.648 464.970   5
  -5  11  -4 656.711 432.638   3
  -5  11  -4 1492.38 559.357   4
  -6  11  -4 1782.07 542.048   4
 -11   6  -4 1234.77 1127.76   2
  -6  -5  -4 1331.89 658.694   7
 -11   5  -4 795.724 814.359   2
  11  -6  -3 184.187 358.423   5
  11  -5  -3 1041.70 563.789   5
   6   5  -3-324.030 442.547   3
   5   6  -3 367.862 409.942   3
   5   6  -3 680.693 434.528   5
   6   5  -3-110.628 355.983   5
  -5  11  -3 208.980 449.370   4
  -6  11  -3 366.689 470.186   4
  -6  -5  -3 213.486 553.826   7
  -5  -6  -3 307.601 602.293   7
 -11   6  -3-1353.92 1288.30   2
 -11   5  -3-1338.78 1204.98   2
  -6  -5  -2 1131.01 864.135   2
  -5  -6  -2 2004.10 963.247   2
  -5  11  -2 1724.07 514.133   4
   5 -11  -2 574.006 828.021   8
   6 -11  -2 2118.83 1046.50   8
  -6  -5  -2 1783.23 636.936   7
  -5  -6  -2 1427.59 511.581   7
  -6  11  -2 2309.00 640.325   4
 -11   6  -2 2524.27 1315.94   2
 -11   5  -2 2177.57 1064.90   2
   5 -11  -1 66.1791 757.885   8
  -5  -6  -1-1751.34 2370.65   8
   6 -11  -1 510.959 691.939   8
 -11   6  -1 1056.81 884.893   2
 -11   5  -1-164.580 825.704   2
   6   5   0 44910.9 2918.74   1
  -5  -6   0 47610.0 3999.67   8
   5 -11   0 43248.8 3318.96   8
   6 -11   0 45718.0 3311.52   8
 -11   6   0 46865.5 3236.81   2
 -11   5   0 42668.6 3170.14   2
   5   6   1 1628.57 911.067   1
   6 -11   1 373.042 725.542   8
   5 -11   1-216.912 841.996   8
  -5  -6   1 1210.76 825.340   8
  -5  11   1 1557.37 1217.31   1
 -11   6   1 301.754 564.436   2
   6   5   1 1598.56 840.470   1
 -11   5   1 1672.91 805.759   2
   5   6   2 2225.27 999.747   1
  -6  11   2 2604.18 1256.48   1
   5 -11   2 2453.10 1099.75   8
   6 -11   2 979.081 796.902   8
  -5  -6   2 2449.13 1184.20   8
  -5  11   2 2658.71 1304.99   1
   6   5   2 2173.65 1083.28   1
   6   5   3 1914.87 1199.95   1
  -6  11   3 1695.09 1250.82   1
   5   6   3 132.708 733.059   1
  -5  -6   3-1021.63 890.683   8
   5 -11   3-119.623 865.164   8
   6 -11   3-254.066 797.855   8
  -5  11   3 3117.29 1431.34   1
  -6  11   4 3287.94 1441.92   1
   6   5   4 2264.61 1078.02   1
   5   6   4 969.356 1004.99   1
   5 -11   4 3453.61 1598.14   8
   6 -11   4 2280.08 1323.03   8
  11  -5   4 1004.34 767.255   1
  -5  11   4 2049.25 1295.96   1
  11  -7  -7 477.865 336.698   5
  11  -4  -7 144.333 330.507   5
   7   4  -7 369.875 247.431   5
  -4  -7  -7 57.9350 325.398   7
   7   4  -7 136.038 317.136   6
   7   4  -7 70.4843 277.169   3
   4   7  -7 469.029 371.132   6
   4   7  -7 514.462 342.618   3
   4   7  -6 5771.27 877.124   3
  -7  -4  -6 5437.43 1047.93   7
  -4  -7  -6 6176.74 1027.60   7
   7   4  -6 6547.43 865.240   3
  11  -7  -6 7556.91 952.603   5
  11  -4  -6 6672.32 925.545   5
   7   4  -6 7084.61 888.338   5
   7   4  -5 1158.26 485.477   3
  11  -7  -5 1812.63 585.788   5
  -7  -4  -5 1451.20 700.881   7
   4   7  -5 2222.50 709.561   3
  11  -4  -5 1349.28 531.503   5
  -4  11  -5 1275.84 518.892   3
   7   4  -5 1302.06 576.253   5
   7 -11  -5 1669.84 571.976   5
   7   4  -4 2827.55 706.208   3
  11  -7  -4 1425.90 502.163   5
  11  -4  -4 2082.78 661.303   5
   4   7  -4 2275.43 621.001   3
   7   4  -4 915.288 465.870   5
  -4  11  -4 2216.99 602.154   3
  -4  11  -4 1902.42 568.589   4
  -7  11  -4 2430.29 615.731   4
 -11   7  -4 2912.80 1463.96   2
  -7  -4  -4 1739.45 686.906   7
 -11   4  -4 520.469 822.813   2
  11  -7  -3 4981.51 751.875   5
  11  -4  -3 4852.84 846.741   5
   7   4  -3 6290.76 888.303   5
  -7  11  -3 5766.42 801.594   4
  -4  11  -3 5597.55 835.436   4
  -7  -4  -3 6193.63 1051.59   7
 -11   7  -3 4965.44 1414.46   2
 -11   4  -3 7084.26 1836.82   2
   7   4  -3 6178.07 862.586   3
   4   7  -3 6607.22 895.382   3
   4   7  -3 5825.73 834.943   5
  -7  -4  -2 3798.67 1258.81   2
  11  -4  -2 2147.10 511.153   5
   4 -11  -2 2348.45 906.937   8
  -7  -4  -2 3513.31 756.506   7
  -4  -7  -2 2774.03 707.190   7
  -7  11  -2 4570.46 778.226   4
  -4  11  -2 3043.78 619.529   4
 -11   7  -2 1699.21 841.668   2
 -11   4  -2 2470.80 1007.22   2
  -7  -4  -1-2903.13 2638.85   2
   4 -11  -1-820.098 765.821   8
  -4  -7  -1-272.991 839.751   8
   7 -11  -1-706.777 833.552   8
 -11   7  -1 1146.18 987.859   2
 -11   4  -1-437.710 889.686   2
   7   4   0 19108.0 1992.59   1
   4 -11   0 17543.5 2206.55   8
  -4  -7   0 18290.4 2391.73   8
   7 -11   0 20478.0 2220.66   8
 -11   7   0 20732.1 2186.01   2
 -11   4   0 18971.8 2340.72   2
 -11   4   1-127.693 589.006   2
   4   7   1 675.005 767.940   1
   4 -11   1 111.653 826.272   8
  -4  -7   1 524.526 699.346   8
   7 -11   1 608.711 678.877   8
   7   4   1 334.412 676.423   1
 -11   4   2 1787.62 789.650   2
   4   7   2 2738.45 1080.79   1
  -4  -7   2 4044.51 1443.90   8
  -7  -4   2 2512.31 568.966   7
   4 -11   2 4758.47 1422.52   8
   7 -11   2 3052.26 1050.94   8
  -4  11   2 2654.05 1209.95   1
  -4  11   2 2095.76 503.548   4
   7   4   2 2575.28 1050.49   1
  -7  11   2 1864.97 1055.91   1
   7   4   3 6347.85 1608.78   1
  11  -4   3 4465.18 1353.81   1
   4   7   3 6769.19 1668.93   1
  -4  -7   3 5542.25 1365.43   8
   4 -11   3 6613.95 1526.07   8
   7 -11   3 5602.72 1392.89   8
  -7  11   3 6409.15 1724.45   1
  -4  11   3 5012.42 1565.03   1
  -4  -7   4 1877.21 1122.32   8
   7 -11   4 3263.12 1293.57   8
  11  -4   4 1740.19 1088.05   1
   3   8  -7 114.324 255.611   3
  11  -8  -7 141.780 291.098   5
  11  -3  -7 208.135 307.919   5
   8   3  -7 227.896 248.746   5
  -3  -8  -7 611.073 404.871   7
   8   3  -7 350.804 322.338   6
   3   8  -7 375.295 355.692   6
   3   8  -6 4967.96 805.564   3
  -3  11  -6 5381.03 724.845   3
  11  -3  -6 4836.51 802.620   5
   8   3  -6 5398.21 825.482   5
  -8  -3  -6 5526.22 1091.42   7
  11  -8  -6 6257.53 853.604   5
   8   3  -6 5457.14 773.352   3
   8 -11  -5 255.101 409.482   5
   8   3  -5 436.851 421.421   3
  11  -8  -5 671.022 462.431   5
   3   8  -5 242.852 443.754   3
  11  -3  -5-780.616 512.309   5
   8   3  -5 32.6616 463.415   5
  -3  11  -5 463.484 448.846   3
  -8  -3  -5 931.444 606.857   7
   8   3  -4 1430.01 466.673   3
  11  -8  -4 1672.48 522.760   5
  11  -3  -4 1435.13 577.211   5
   3   8  -4 2025.69 628.567   3
   8   3  -4 1585.50 612.177   5
  -3  11  -4 2260.43 686.332   4
  -3  11  -4 1793.43 606.765   3
  -8  -3  -4 2263.08 829.382   7
   8   3  -3 2752.09 606.578   3
  11  -3  -3 2630.22 696.319   5
   8   3  -3 1474.24 586.844   5
   3   8  -3 2723.11 685.300   3
  -3  11  -3 2847.23 708.538   4
  -8  11  -3 2170.31 598.136   4
  -8  -3  -3 2487.31 728.965   7
 -11   8  -3 4124.04 1478.68   2
 -11   3  -3 5090.44 1685.24   2
  -8  -3  -3 1493.54 758.417   2
  -8  -3  -2 7475.44 1789.29   2
  -8  -3  -2 9875.19 1222.20   7
   3   8  -2 8501.77 1056.18   4
  -3  11  -2 9977.30 1096.32   4
  -8  11  -2 9870.13 1047.01   4
   3 -11  -2 8034.05 1723.10   8
  -3  -8  -2 4078.80 1225.68   8
 -11   8  -2 7852.77 1648.31   2
 -11   3  -2 6805.48 1545.23   2
  11  -3  -2 8054.79 919.231   5
  -8  -3  -1 1227.10 3075.35   2
   3 -11  -1 5128.28 1431.26   8
  -3  -8  -1 5723.22 1528.66   8
   8 -11  -1 5639.01 1318.60   8
  -3  11  -1 6275.26 861.138   4
  -8  -3  -1 4758.25 816.751   7
 -11   8  -1 4794.56 1195.55   2
  -8  11  -1 5876.23 812.077   4
 -11   3  -1 2810.80 847.778   2
   8 -11   0 4909.63 1163.81   8
  -3  -8   0 3860.01 1130.17   8
   8   3   0 3534.71 941.557   1
   3 -11   0 4357.31 1146.36   8
 -11   8   0 4999.04 1165.01   2
 -11   3   0 5470.24 1409.31   2
 -11   3   1 5610.24 1342.45   2
 -11   3   1 5873.90 913.878   7
   3 -11   1 4589.05 1359.71   8
  -3  -8   1 5974.12 1470.06   8
   8 -11   1 5210.86 1169.58   8
  -8  -3   1 7563.81 968.554   7
   8   3   1 5987.23 1259.95   1
 -11   3   2 6542.55 1267.64   2
   8 -11   2 8544.30 1514.96   8
   3   8   2 7737.93 1608.05   1
   3 -11   2 9147.80 1880.50   8
  -3  -8   2 10112.7 1910.10   8
  -8  -3   2 9852.37 1083.57   7
  -8  11   2 3321.85 1204.28   1
  -3  11   2 7247.65 1500.05   1
   8   3   2 7836.13 1538.47   1
  -8  11   3 1645.88 848.654   1
   3 -11   3 246.966 1012.20   8
  -3  -8   3 1095.88 847.477   8
  -3  11   3 1699.77 980.397   1
   3   8   3 2579.75 1157.77   1
  11  -3   3 709.766 1096.93   1
   8   3   3 2497.03 1240.07   1
   2   9  -7-452.363 259.065   3
  11  -9  -7 74.1264 270.660   5
  11  -2  -7-130.204 281.585   5
   9   2  -7 18.2135 249.021   5
  -2  -9  -7 102.632 318.826   7
   9   2  -7-123.081 238.737   6
   2   9  -7 460.728 353.502   6
  -2  11  -7 156.258 180.988   3
  11  -9  -6 2183.62 577.270   5
   2   9  -6 1938.98 533.263   3
  -2  11  -6 1663.58 511.272   3
  11  -2  -6 1466.98 518.535   5
   9   2  -6 1055.71 435.639   5
   9   2  -6 2079.57 543.109   6
   9   2  -6 1905.62 501.300   3
   9 -11  -6 1717.28 501.798   5
   9 -11  -5 1315.32 485.603   5
   9   2  -5 1886.49 550.978   3
  11  -9  -5 1574.74 510.308   5
  11  -2  -5 541.433 461.441   5
   2   9  -5 1572.01 552.679   3
   9   2  -5 2100.76 665.232   5
  -9  -2  -5 2574.63 792.767   7
  -2  11  -5 2034.50 621.705   3
   9   2  -4 1920.14 492.598   3
  11  -9  -4 1939.46 571.821   5
  11  -2  -4 2292.49 717.945   5
   9   2  -4 2335.12 658.792   5
   2   9  -4 1673.44 614.417   3
  -2  11  -4 2133.92 591.704   3
  -2  11  -4 1599.60 654.169   4
  -9  -2  -4 2017.29 702.677   7
  11  -2  -3 2108.19 635.975   5
   9   2  -3 2425.48 658.219   5
  -2  11  -3 2091.21 646.734   4
 -11   9  -3 4931.56 1627.93   2
  -9  -2  -3 2873.42 853.638   7
  -9  11  -3 2047.96 514.472   4
 -11   2  -3 4255.99 1716.53   2
  -9  -2  -3 390.346 721.692   2
  -2  11  -2 8041.01 1035.78   4
  -9  -2  -2 8269.47 1105.86   7
  -9  11  -2 8739.78 1007.31   4
   2 -11  -2 7917.83 1738.03   8
  -2  -9  -2 6021.47 1536.93   8
   2   9  -2 6716.64 912.680   4
 -11   2  -2 7616.40 1008.16   7
 -11   9  -2 7049.46 1618.82   2
 -11   2  -2 5128.30 1269.10   2
  -9  -2  -2 7210.05 1969.53   2
  11  -2  -2 6849.39 922.454   5
   9   2  -2 7704.63 948.169   5
  11  -2  -1 2075.28 470.243   5
   2   9  -1 2024.72 605.468   4
  -2  -9  -1 2021.83 1154.71   8
   2 -11  -1 2285.55 1161.10   8
 -11   2  -1 2669.25 655.735   7
  -9  -2  -1 2916.28 724.638   7
  -2  11  -1 2244.63 579.050   4
  -2  -9  -1 2941.95 608.262   7
 -11   9  -1 2528.47 1012.62   2
  -9  11  -1 1242.24 398.257   4
 -11   2   0 7666.43 1904.51   2
   2 -11   0 6955.93 1482.56   8
  -2  -9   0 8368.16 1641.34   8
  -9  -2   0 10099.1 1155.54   7
  -2  11   0 9604.16 965.141   4
 -11   2   0 9232.22 1100.28   7
 -11   2   1 140.924 764.436   2
   2 -11   1 2622.54 1102.34   8
 -11   2   1 2467.35 682.073   7
  -9  -2   1 1400.15 584.924   7
   9   2   1 996.524 706.403   1
 -11   2   2 7207.94 1539.50   2
  -2  11   2 6404.87 1441.37   1
   2 -11   2 8077.70 1764.00   8
  -2  -9   2 8060.63 1767.19   8
  -9  -2   2 7564.18 1055.31   7
   2   9   2 5959.23 1432.15   1
   9   2   2 7168.95 1505.98   1
  -9  11   3-27.5786 1176.50   1
  -2  11   3 1943.55 1168.20   1
   2 -11   3 2600.45 1107.83   8
  -2  -9   3 2476.88 1067.46   8
   2   9   3 1325.47 912.538   1
  11  -2   3 1044.36 781.511   1
   9   2   3 1924.08 1127.97   1
   1  10  -7 773.851 261.562   3
  11  -1  -7 275.041 267.608   5
  10   1  -7 1000.86 327.175   5
  -1 -10  -7 725.786 351.416   7
   1  10  -7 876.979 353.601   6
  11 -10  -7 1004.63 282.279   5
  -1  11  -7 390.352 223.099   3
  10 -11  -6 1002.21 412.889   5
  11 -10  -6-216.801 362.963   5
   1  10  -6 87.4242 342.639   3
  -1  11  -6 358.292 335.111   3
  11  -1  -6 293.814 450.266   5
  10   1  -6 393.350 420.559   5
  10   1  -6 1101.80 418.941   6
  11 -10  -5 3623.75 666.058   5
  11  -1  -5 3535.08 747.552   5
   1  10  -5 4644.02 810.784   3
  10   1  -5 3716.48 787.502   5
  -1  11  -5 4040.26 767.671   3
 -10  -1  -5 3090.06 642.432   7
  10   1  -5 2967.37 593.651   3
  11  -1  -4 6341.31 951.336   5
   1  10  -4 6226.67 911.438   3
  -1  11  -4 6523.57 906.064   3
 -10  -1  -4 8373.00 1168.88   7
  -1  11  -4 6638.35 988.506   4
  10   1  -4 5918.39 770.320   3
  10   1  -4 7902.01 1079.07   5
  11  -1  -3 1864.64 571.016   5
  10   1  -3 1369.28 492.313   5
 -11   1  -3 1781.72 534.411   7
 -10  -1  -3 2836.14 816.702   7
   1  10  -3 1754.45 577.658   4
  -1  11  -3 1496.76 718.006   4
 -11   1  -3 2096.29 1247.36   2
 -10  -1  -3 1306.95 968.330   2
 -11  10  -2 7723.27 1828.32   2
  -1  11  -2 7779.38 1056.53   4
 -10  11  -2 7543.83 939.486   4
   1 -11  -2 9472.74 2010.67   8
  -1 -10  -2 6871.22 1620.98   8
   1  10  -2 6329.52 959.472   4
 -11   1  -2 7747.83 1141.62   7
 -10  -1  -2 7989.97 1075.30   7
 -11   1  -2 5979.96 1183.29   2
 -10  -1  -2 10820.5 2893.92   2
  11  -1  -2 7224.64 955.874   5
  10   1  -2 7339.79 946.948   5
  11  -1  -1 2579.72 591.845   5
   1 -11  -1 3242.52 1221.61   8
  -1 -10  -1 1592.98 1028.81   8
   1  10  -1 1948.75 586.533   4
 -11   1  -1 3362.59 749.055   7
  -1  11  -1 2603.54 588.887   4
 -10  -1  -1 3203.31 751.720   7
 -11  10  -1 2871.65 1129.70   2
  -1 -10  -1 2184.49 577.359   7
 -10  11  -1 1774.83 471.164   4
 -11   1  -1 5972.32 2463.69   2
 -11   1   0 2026.46 1341.37   2
   1 -11   0 683.781 1051.77   8
 -11   1   0 2998.99 709.600   7
 -10  -1   0 2836.09 700.501   7
  -1  11   0 3052.16 632.633   4
 -11   1   1 871.825 790.816   2
   1 -11   1 2300.89 1104.29   8
  -1 -10   1 2618.46 1214.88   8
 -11   1   1 2869.62 751.445   7
 -10  -1   1 1738.22 555.117   7
 -11   1   2 6922.20 1635.15   2
  11  -1   2 6000.11 1506.37   1
   1 -11   2 9109.26 1939.90   8
  -1 -10   2 7924.26 1780.04   8
 -11   1   2 6974.47 1085.79   7
 -10  -1   2 7676.96 1067.96   7
  10   1   2 6046.25 1426.92   1
  -1  11   3-9.37900 1006.58   1
 -11   1   3 3187.99 1127.38   2
  -1 -10   3 2869.74 1458.25   8
   1 -11   3 2135.99 1354.78   8
  11  -1   3 1304.39 815.182   1
   1  10   3 1686.94 1113.03   1
  10   1   3 500.639 959.905   1
  11   0  -7 1320.82 342.315   5
   0 -11  -7 1058.03 369.828   7
   0  11  -7 2100.27 401.640   6
   0  11  -7 1488.12 311.030   3
  11 -11  -6 235.437 265.472   5
   0  11  -6-233.220 363.351   3
  11   0  -5 232.350 496.083   5
   0  11  -5 1558.36 545.743   3
  11   0  -5 1298.40 384.550   3
 -11   0  -4 9100.69 1126.94   7
   0  11  -4 9958.55 1101.42   3
  11   0  -4 10418.2 1256.98   5
  11   0  -3-254.844 535.820   5
   0  11  -3-695.239 620.302   4
 -11   0  -3 81.6719 519.832   7
  11   0  -2 3875.75 769.857   5
   0 -11  -2 3589.65 1345.94   8
   0  11  -2 3951.83 786.646   4
 -11   0  -2 4769.88 928.387   7
 -11  11  -2 3935.23 725.167   4
   0 -11  -1 229.568 915.330   8
   0  11  -1 144.436 387.707   4
 -11   0  -1 88.5077 441.862   7
 -11  11  -1-625.584 571.599   4
 -11   0  -1 2114.76 2349.35   2
 -11   0   0 895.935 1245.83   2
 -11   0   0 4088.48 877.728   7
   0 -11   0 4377.52 1349.33   8
   0  11   0 2706.49 577.117   4
 -11   0   1 283.387 773.741   2
   0 -11   1-1221.85 1148.14   8
 -11   0   1 560.785 529.342   7
 -11   0   2 5413.79 1633.22   2
   0 -11   2 5804.13 1672.45   8
  11   0   2 3719.16 1346.22   1
 -11   0   2 4594.34 868.171   7
  12  -6  -7-74.0373 269.605   5
   6   6  -7-67.3939 245.605   6
   6   6  -7 328.838 281.137   3
   6   6  -6 1808.01 519.530   3
  12  -6  -6 2606.90 609.836   5
  -6  -6  -6 2037.43 698.310   7
   6   6  -5-243.725 428.187   3
  12  -6  -5-4.98828 437.234   5
   6   6  -5 459.917 412.640   5
  -6  12  -5 137.732 410.072   4
  -6  -6  -5 1215.94 683.127   7
  12  -6  -4 282.800 412.431   5
   6   6  -4-493.546 523.394   3
   6   6  -4 308.384 446.472   5
  -6  12  -4 486.942 438.495   4
  -6  -6  -4-9.54314 531.077   7
  12  -6  -3 98.2224 362.743   5
   6   6  -3-234.632 445.495   3
   6   6  -3-88.9637 434.957   5
  -6  12  -3 314.725 497.684   4
  -6  -6  -3-579.340 594.390   7
  -6  -6  -2 59.7956 654.814   2
   6   6  -2 872.889 435.657   3
   6 -12  -2 899.984 934.932   8
  -6  -6  -2 1486.15 647.511   7
  -6  12  -2 826.989 407.230   4
   6 -12  -1-455.970 753.567   8
  -6  -6  -1-104.226 466.003   7
  -6  12  -1 515.390 466.151   4
 -12   6  -1 693.075 927.631   2
  -6  12   0 73806.0 2648.12   4
  -6  -6   0 70787.7 2757.64   7
 -12   6   0 67304.7 4283.78   2
   6 -12   0 72088.2 4537.32   8
   6   6   1-167.350 642.829   1
   6 -12   1 409.223 693.309   8
  -6  -6   1 454.234 539.350   7
  -6  12   1-1207.23 559.366   4
 -12   6   1-1056.35 801.023   2
   6   6   2-119.508 725.890   1
  -6  -6   2 1329.18 449.746   7
   6 -12   2 1899.36 1125.25   8
  -6  12   2 1796.46 931.327   1
  -6  12   2-249.147 517.270   4
   6   6   3-253.592 782.492   1
  -6  12   3-788.651 1069.70   1
   6 -12   3 820.685 886.057   8
  -6  12   3-1005.87 606.735   4
  12  -7  -7-222.295 299.100   5
  12  -5  -7-150.900 279.541   5
  -5  -7  -7-397.759 347.137   7
   7   5  -7 154.686 270.007   6
   5   7  -7 114.042 296.355   6
   7   5  -7-12.6441 245.653   3
   5   7  -7 183.049 240.409   3
  -7  -5  -6 5493.27 981.598   7
  -5  -7  -6 5926.07 964.677   7
   7   5  -6 6568.91 801.370   3
   5   7  -6 6051.27 821.968   3
  12  -7  -6 7766.34 910.056   5
  12  -5  -6 7705.15 928.799   5
   7   5  -6 7925.00 838.118   5
   7   5  -5-634.221 498.066   3
  12  -7  -5 483.462 418.937   5
   5   7  -5 83.3957 473.447   3
  12  -5  -5-620.231 527.955   5
   7   5  -5 159.711 385.915   5
  -7  -5  -5 558.466 493.526   7
  -5  -7  -5-6.15089 497.493   7
   7   5  -4 3082.74 720.320   3
  12  -7  -4 1712.88 493.418   5
  12  -5  -4 2472.24 675.731   5
   5   7  -4 2956.16 759.594   3
   5   7  -4 3409.95 761.105   5
   7   5  -4 1386.18 520.361   5
  -5  12  -4 2111.95 511.332   3
  -5  12  -4 1678.59 600.113   4
  -7  12  -4 3279.92 706.709   4
  -7  -5  -4 1749.21 732.412   7
  -5  -7  -4 2692.35 842.104   7
  12  -7  -3-325.632 372.264   5
   7   5  -3 359.623 421.867   3
  12  -5  -3-15.7318 408.944   5
   5   7  -3 64.8449 412.507   3
   5   7  -3-125.789 348.984   5
   7   5  -3 301.793 405.609   5
  -5  -7  -3-648.248 616.471   7
  -5  12  -3 307.211 457.090   4
  -7  12  -3 209.126 431.397   4
  -7  -5  -3 581.195 641.069   7
 -12   7  -3 862.889 1037.10   2
 -12   5  -3-1770.35 1414.97   2
  -7  -5  -2 11172.5 1934.88   2
  -7  -5  -2 11104.1 1269.12   7
  -5  12  -2 10375.3 1094.90   4
  -7  12  -2 10849.3 1106.66   4
   5 -12  -2 8843.38 1794.22   8
  -5  -7  -2 9632.29 1201.47   7
 -12   5  -2 12278.4 2112.77   2
 -12   7  -2 8273.64 1703.07   2
   7   5  -2 10532.9 985.538   3
   5   7  -2 9748.22 969.311   3
  12  -5  -2 9307.21 992.613   5
   5 -12  -1-239.194 693.419   8
   7 -12  -1-459.314 752.743   8
  -7  -5  -1-614.771 562.958   7
  -5  -7  -1 657.693 547.824   7
  -5  12  -1 761.093 534.731   4
  -7  12  -1 383.276 420.382   4
 -12   7  -1 846.888 836.002   2
 -12   5  -1-563.376 641.614   2
   5 -12   0 25057.4 2803.16   8
   7 -12   0 30376.9 2888.33   8
  -5  -7   0 26950.2 3270.21   8
  -5  12   0 27172.5 1668.08   4
  -7  12   0 26390.8 1618.74   4
 -12   5   0 26008.0 1674.81   7
  -7  -5   0 28178.8 1806.98   7
  -5  -7   0 27102.7 1710.20   7
 -12   7   0 29688.8 2815.98   2
 -12   5   0 25617.2 2698.05   2
   5 -12   1 149.832 925.578   8
   7 -12   1-538.777 813.507   8
  -5  -7   1-1094.77 1228.37   8
  -7  12   1-2796.44 2340.33   1
  -7  -5   1 772.103 499.899   7
  -5  -7   1 224.000 486.919   7
  -5  12   1-299.458 438.802   4
  -7  12   1-200.707 467.481   4
   7   5   1 286.035 826.135   1
 -12   5   1-946.701 882.217   2
   5   7   2 8410.60 1697.87   1
  -7  12   2 6526.88 1478.58   1
  -5  12   2 10356.5 1927.36   1
   7 -12   2 12131.2 1996.17   8
   5 -12   2 9175.73 1840.93   8
  -5  12   2 8881.98 949.776   4
  -7  -5   2 9784.70 1139.97   7
   7   5   2 9287.31 1846.96   1
  -5  12   3 2067.29 1424.41   1
   7   5   3 642.170 821.582   1
  12  -5   3-2475.81 1946.76   1
   5   7   3 93.5636 908.594   1
   5 -12   3 1069.68 920.364   8
   7 -12   3 690.657 877.527   8
  -7  12   3 433.774 722.186   1
  12  -8  -7 116.508 242.953   5
  12  -4  -7 89.2745 252.422   5
  -4  -8  -7-157.287 322.042   7
   8   4  -7-136.292 231.337   6
   4   8  -7 602.991 355.359   6
   4   8  -7 136.876 227.074   3
   4   8  -6 3878.77 664.082   3
  12  -8  -6 4161.22 678.350   5
  12  -4  -6 4442.86 724.120   5
   8   4  -6 3758.36 643.361   5
  -8  -4  -6 3732.93 852.962   7
  -4  -8  -6 3546.81 793.688   7
   8   4  -6 4249.11 690.059   3
   8   4  -5 575.074 413.464   3
  12  -8  -5 802.839 477.219   5
   4   8  -5 866.317 569.479   3
  12  -4  -5 396.710 523.687   5
  -4  12  -5 1182.21 502.608   3
   8   4  -5 703.023 488.477   5
  -8  -4  -5 1165.18 637.232   7
  -4  -8  -5 83.1921 510.271   7
   8   4  -4 2419.01 615.764   3
  12  -8  -4 2933.99 650.457   5
  12  -4  -4 1707.94 646.831   5
   4   8  -4 2347.50 691.202   3
   8   4  -4 1462.17 599.857   5
  -4  12  -4 1868.61 566.286   3
  -8  12  -4 3265.12 677.088   4
  -4  12  -4 1630.78 582.600   4
  -8  -4  -4 2762.82 869.271   7
  -4  -8  -4 2242.96 802.977   7
   8   4  -3 3059.55 648.653   3
  12  -4  -3 2709.20 684.598   5
   4   8  -3 3185.06 738.888   3
   8   4  -3 3101.58 699.796   5
  -4  12  -3 2650.89 672.467   4
  -8  12  -3 2822.02 633.087   4
  -8  -4  -3 3510.50 925.640   7
 -12   8  -3 3433.08 1428.78   2
  -4  -8  -3 2559.68 769.405   7
  -8  -4  -2 6430.36 1683.05   2
  12  -4  -2 4428.73 714.765   5
   4 -12  -2 4254.37 1479.08   8
  -4  12  -2 5768.86 883.921   4
  -8  12  -2 6895.03 966.545   4
  -8  -4  -2 5148.05 926.368   7
  -4  -8  -2 5873.51 915.834   7
 -12   8  -2 4738.31 1386.11   2
 -12   4  -2 7235.38 1749.09   2
   8   4  -2 6325.89 922.622   5
  -8  -4  -1 288.961 1824.94   2
  12  -4  -1 715.939 383.498   5
  -4  -8  -1 457.128 1028.59   8
   4 -12  -1-121.615 761.235   8
   8 -12  -1 836.568 740.073   8
 -12   4  -1 1444.56 562.960   7
  -8  -4  -1 402.757 459.122   7
  -4  -8  -1 864.523 509.011   7
  -4  12  -1 348.972 410.610   4
 -12   8  -1-66.9531 942.720   2
  -8  12  -1 87.2083 439.777   4
 -12   4  -1-212.646 913.677   2
  -4  12   0 8109.59 995.441   4
  -8  -4   0 7679.35 1073.72   7
   4 -12   0 6232.86 1530.19   8
   8 -12   0 7157.75 1399.22   8
 -12   4   0 7700.88 968.772   7
  -4  -8   0 6173.08 831.117   7
  -4  -8   0 6277.48 1744.07   8
   8   4   0 6081.70 1276.50   1
 -12   8   0 6687.08 1378.37   2
  -8  12   0 5764.17 809.033   4
 -12   4   0 4320.10 1249.37   2
   4 -12   1 321.862 839.228   8
  -4  -8   1-433.821 1053.16   8
   8 -12   1-387.265 661.332   8
  -8  -4   1 470.591 476.028   7
  -4  12   1 598.791 473.713   4
   8   4   1-694.657 926.438   1
 -12   4   1 745.777 841.603   2
  -8  -4   2 6188.49 940.795   7
   4   8   2 4652.65 1301.67   1
   4 -12   2 7237.31 1736.87   8
  -4  -8   2 4915.90 1452.62   8
   8 -12   2 5107.88 1256.88   8
  -8  12   2 929.566 1152.23   1
  -4  12   2 5863.02 822.747   4
   8   4   2 6191.91 1584.51   1
  -4  12   2 8024.32 1968.61   1
   8   4   3 2614.64 1246.57   1
   4 -12   3 4221.08 1535.62   8
  -4  -8   3 4871.96 1499.42   8
   4   8   3 4155.25 1390.59   1
  -8  12   3 73.2229 900.314   1
  12  -4   3 3377.11 1006.54   1
  -4  12   3 4617.44 1726.84   1
  12  -9  -7 310.208 232.169   5
  12  -3  -7 221.704 248.537   5
   9   3  -7 221.544 193.459   5
  -3  -9  -7-0.46463 298.982   7
   9   3  -7-10.5316 200.558   6
   3   9  -7 842.328 342.941   6
   3   9  -7 134.071 212.500   3
  12  -9  -6 391.949 318.785   5
   3   9  -6 161.337 381.031   3
  -3  12  -6 563.813 352.103   3
  12  -3  -6 952.570 433.428   5
   9   3  -6 1432.24 503.515   5
  -9  -3  -6-794.819 801.956   7
  -3  -9  -6 805.344 503.090   7
   9   3  -6 1200.55 484.158   6
   9   3  -6 239.958 297.321   3
   9   3  -5 445.780 393.693   3
  12  -9  -5 610.674 411.668   5
   3   9  -5 245.633 483.367   3
  12  -3  -5 1040.96 541.254   5
  -3  12  -5 456.274 418.867   3
   9   3  -5 766.729 468.211   5
  -9  -3  -5 678.755 541.670   7
  -3  12  -4 15896.0 1479.54   4
  -9  -3  -4 15987.8 1671.21   7
   9   3  -4 16318.7 1266.80   3
   3   9  -4 17385.9 1466.54   3
  -3  12  -4 15925.4 1327.46   3
  12  -3  -4 15466.4 1422.28   5
   9   3  -4 15901.1 1429.81   5
  12  -3  -3 2856.91 731.928   5
   9   3  -3 3317.42 722.533   5
   3   9  -3 3438.17 746.123   3
  -3  12  -3 3692.85 795.846   4
  -9  12  -3 3588.15 665.630   4
  -9  -3  -3 3612.40 893.937   7
 -12   9  -3 5846.86 1789.88   2
 -12   3  -3 7863.92 2385.20   2
  -9  -3  -3 703.803 733.748   2
  12  -3  -2 654.841 454.879   5
   9   3  -2 1004.21 532.212   5
   3 -12  -2-192.247 907.737   8
 -12   3  -2 164.160 392.952   7
  -3  12  -2 47.3493 424.112   4
  -9  -3  -2 515.322 491.878   7
 -12   9  -2 835.518 999.379   2
  -3  -9  -2 353.690 425.966   7
  -9  12  -2 1345.79 579.043   4
 -12   3  -2 1201.17 952.888   2
  -9  -3  -2-780.012 1312.22   2
  -9  -3  -1 4049.61 3151.57   2
  12  -3  -1 3630.91 687.360   5
   3 -12  -1 5484.94 1483.67   8
  -3  -9  -1 1641.71 1096.00   8
   3   9  -1 2782.43 772.480   4
 -12   3  -1 3395.96 705.534   7
  -9  -3  -1 5152.26 995.777   7
  -3  12  -1 4166.83 769.668   4
  -3  -9  -1 3131.52 680.227   7
 -12   9  -1 3071.58 1035.41   2
  -9  12  -1 3391.79 701.171   4
 -12   3  -1 470.402 1346.67   2
   3 -12   0 6624.67 1553.27   8
  -3  -9   0 6784.58 1853.41   8
 -12   3   0 8647.41 1093.16   7
  -9  -3   0 7110.84 1006.63   7
  -3  12   0 5685.18 835.324   4
   9   3   0 7937.22 1526.62   1
  -9  12   0 5285.69 800.815   4
 -12   3   0 5962.45 1603.17   2
 -12   3   1 3160.04 1141.51   2
   3 -12   1 2725.06 1190.05   8
  -3  -9   1 3077.73 1299.03   8
 -12   3   1 3097.69 745.580   7
  -9  -3   1 3475.76 716.985   7
  -3  12   1 4066.40 715.390   4
   9   3   1 2355.66 1020.89   1
 -12   3   2 959.726 766.374   2
  -9  -3   2 787.472 489.168   7
   3 -12   2 1029.43 1001.33   8
  -3  -9   2 931.629 972.203   8
   9   3   2 770.823 817.111   1
   3   9   3 2174.82 743.940   1
  -3  12   3 1249.99 861.139   1
  -9  12   3 921.553 777.110   1
  12  -2  -7 131.922 223.077   5
  10   2  -7 294.139 221.846   5
  -2 -10  -7 78.4199 259.433   7
   2  10  -7 393.211 260.188   6
   2  10  -7 154.537 198.692   3
  12 -10  -6-26.9624 277.894   5
   2  10  -6 196.285 340.211   3
  -2  12  -6 815.475 365.648   3
  12  -2  -6 55.7252 392.689   5
  10   2  -6 244.534 323.173   5
  -2 -10  -6 1314.69 550.960   7
  10   2  -6 741.283 300.743   3
  10   2  -6 768.294 359.188   6
  12 -10  -5 116.480 297.448   5
  12  -2  -5-854.222 539.597   5
   2  10  -5 95.4807 425.898   3
  10   2  -5 62.9738 434.371   5
  -2  12  -5 271.863 421.499   3
  10   2  -5 303.534 323.643   3
  -2  12  -4 10384.7 1286.95   4
 -10  -2  -4 12558.8 1454.29   7
  10   2  -4 10995.2 1013.47   3
   2  10  -4 12726.0 1213.05   3
  -2  12  -4 11522.8 1193.06   3
  12  -2  -4 10584.0 1190.56   5
  10   2  -4 11303.3 1256.23   5
  -2  12  -3 193.638 484.361   4
  12  -2  -3-448.366 472.605   5
  10   2  -3 250.890 453.974   5
   2  10  -3 501.027 460.653   3
 -10  -2  -3 776.943 557.232   7
 -10  12  -3-440.823 348.308   4
  12  -2  -2 2060.86 626.731   5
  10   2  -2 3386.00 783.760   5
   2  10  -2 2070.58 664.377   4
   2 -12  -2 1783.79 932.245   8
  -2  12  -2 3284.39 763.185   4
 -12   2  -2 2998.12 736.195   7
 -10  -2  -2 2719.24 769.754   7
 -12  10  -2 4384.68 1464.24   2
  -2 -10  -2 2935.44 741.515   7
 -10  12  -2 3561.02 752.673   4
 -12   2  -2 863.406 1362.85   2
 -10  -2  -2 1727.83 1088.10   2
 -10  -2  -1-4852.40 6239.33   2
  12  -2  -1 2207.13 588.406   5
   2 -12  -1 1073.32 929.429   8
  -2 -10  -1-2.48566 937.997   8
   2  10  -1 1417.73 540.783   4
 -12   2  -1 2069.60 635.873   7
 -10  -2  -1 1988.72 653.172   7
  -2  12  -1 1858.46 565.829   4
 -12  10  -1 2057.22 1034.23   2
  -2 -10  -1 1306.71 490.684   7
 -10  12  -1 1125.65 536.206   4
 -12   2  -1-4623.91 2661.09   2
  10   2   0 856.504 698.361   1
   2 -12   0 2768.08 1191.85   8
  -2 -10   0 2424.46 1349.75   8
 -12   2   0 1474.96 561.515   7
 -10  -2   0 1785.66 630.625   7
  -2  12   0 1192.79 488.644   4
 -12   2   0 1598.70 1100.05   2
 -12   2   1 1657.06 799.918   2
   2 -12   1 1753.44 923.968   8
  -2 -10   1-248.117 1067.97   8
 -12   2   1 1271.92 572.605   7
 -10  -2   1 937.337 491.560   7
  -2  12   1 1390.13 455.706   4
  10   2   1 1413.96 792.410   1
 -12   2   2 2638.95 1050.43   2
   2 -12   2 2850.52 1324.01   8
  -2 -10   2 2339.02 1286.80   8
 -10  -2   2 2820.43 742.093   7
  10   2   2 705.288 827.533   1
  12  -1  -7 304.616 207.439   5
  11   1  -7 415.509 196.380   5
  -1 -11  -7 247.333 221.747   7
   1 -12  -7 441.388 252.435   7
   1  11  -7 248.066 163.532   3
   1  11  -6 1363.43 421.527   3
  -1  12  -6 593.348 328.329   3
  12  -1  -6 879.291 381.267   5
  11   1  -6 1071.12 410.150   5
  -1 -11  -6 1038.40 454.753   7
   1  11  -5 217.813 424.663   3
  12  -1  -5 255.572 508.316   5
  11   1  -5 161.789 434.411   5
  -1  12  -5 105.972 454.393   3
  11   1  -5 156.908 266.876   3
  12  -1  -4 3152.24 792.651   5
  11   1  -4 3283.50 796.695   5
   1  11  -4 2938.36 692.496   3
  -1  12  -4 2910.08 731.446   3
 -11  -1  -4 1841.47 654.609   7
  12  -1  -3-85.7215 465.393   5
  11   1  -3-37.1669 524.483   5
   1  11  -3 59.7961 546.209   4
  -1  12  -3 845.527 543.263   4
 -12   1  -3 773.610 446.961   7
 -11  -1  -3-204.149 535.163   7
 -11  12  -2 7717.05 992.328   4
   1 -12  -2 7016.05 1792.24   8
  -1 -11  -2 6873.04 1961.18   8
   1  11  -2 4934.21 902.073   4
 -12   1  -2 6651.35 1047.24   7
  -1 -11  -2 7254.73 983.304   7
  -1  12  -2 6621.92 1006.93   4
 -11  -1  -2 7252.90 1094.76   7
  12  -1  -2 7513.21 1014.95   5
  11   1  -2 7744.20 1029.91   5
  -1  12  -1 1066.41 559.251   4
  12  -1  -1 369.548 402.072   5
   1 -12  -1 1645.81 1064.42   8
  -1 -11  -1 1388.58 1115.43   8
   1  11  -1 692.006 475.453   4
 -12   1  -1 602.237 422.319   7
 -11  -1  -1 904.399 601.277   7
 -11  12  -1 738.847 399.583   4
 -12  11  -1-449.332 574.725   4
 -12   1  -1 767.701 1806.89   2
 -12   1   0 30.9587 1101.23   2
 -11  -1   0 285.137 2239.46   2
  -1 -11   0 2491.05 1298.72   8
   1 -12   0 3465.67 1445.27   8
   1  11   0 580.783 407.936   4
 -12   1   0 1359.75 556.872   7
 -11  -1   0 1598.85 704.625   7
  -1  12   0 670.702 429.578   4
 -12   1   1-695.215 752.960   2
   1 -12   1-168.832 1071.42   8
  -1 -11   1 42.3039 1077.32   8
 -12   1   1 1054.01 632.353   7
 -11  -1   1 1420.37 601.536   7
  11   1   1-837.018 1056.03   1
 -12   1   2 5343.65 1410.02   2
 -11  -1   2 9021.12 2155.40   2
   1 -12   2 6889.99 1750.76   8
  -1 -11   2 7205.56 1722.65   8
 -11  -1   2 7363.93 1111.80   7
  12  -1   2 6076.38 1613.38   1
  11   1   2 7024.40 1700.19   1
   0  12  -6 2121.43 422.741   3
  12   0  -6 2120.01 475.777   5
   0 -12  -6 1889.67 513.818   7
   0  12  -5 1956.84 585.171   3
  12   0  -5 1457.45 538.136   5
  12   0  -4 1576.93 667.687   5
   0  12  -4 2294.72 642.917   3
 -12   0  -4 1756.75 587.754   7
  12   0  -3-14.1972 489.684   5
   0  12  -3 235.194 536.095   4
 -12   0  -3-74.7682 436.219   7
 -12  12  -2 8875.49 1047.49   4
   0  12  -2 6824.41 997.622   4
   0 -12  -2 6746.69 946.207   7
 -12   0  -2 6910.17 1065.03   7
  12   0  -2 7298.03 1023.51   5
  12   0  -1 544.329 513.807   5
   0 -12  -1 659.253 1119.32   8
   0  12  -1-230.182 396.158   4
 -12   0  -1 183.047 468.464   7
 -12  12  -1-471.443 561.006   4
 -12   0   0-218.377 1602.94   2
   0 -12   0-7.63372 996.556   8
 -12   0   0 422.306 449.191   7
   0  12   0 226.258 385.924   4
 -12   0   1 65.1045 968.425   2
  12   0   1-591.594 983.817   1
   0 -12   1-1792.78 1332.07   8
 -12   0   1 315.637 568.030   7
  13  -7  -7-38.9069 196.054   5
  13  -6  -7 111.966 214.509   5
   7   6  -7 71.6593 181.332   3
   7   6  -7 492.867 243.223   6
   6   7  -7-162.201 205.743   6
   6   7  -7 104.491 203.642   3
   7   6  -6 1550.49 435.378   3
   6   7  -6 2111.86 509.734   3
  13  -7  -6 1614.83 435.087   5
  13  -6  -6 1897.72 490.591   5
  -7  -6  -6 950.131 462.616   7
  -6  -7  -6 1944.25 630.598   7
   7   6  -5 618.484 428.614   3
   6   7  -5 955.005 490.273   3
  13  -7  -5 542.888 377.663   5
  13  -6  -5 1105.37 466.132   5
   7   6  -5 464.273 370.702   5
  -7  -6  -5 950.729 628.772   7
  -6  -7  -5 1103.93 622.894   7
   7   6  -4 1375.68 539.988   3
  13  -7  -4 242.026 417.499   5
  13  -6  -4 1005.24 462.176   5
   6   7  -4 444.887 422.222   3
   7   6  -4 1693.68 591.099   5
  -6  13  -4 457.563 436.825   4
  -7  13  -4 304.737 425.623   4
  -7  -6  -4 436.942 566.746   7
  -6  -7  -4 650.132 597.834   7
  13  -7  -3 4024.33 704.599   5
  13  -6  -3 4861.51 784.322   5
   7   6  -3 5932.17 853.483   3
   6   7  -3 5680.87 862.489   3
   6   7  -3 5391.42 803.546   5
   7   6  -3 5931.01 897.238   5
  -6  13  -3 5012.00 872.822   4
  -7  13  -3 5594.37 875.428   4
  -7  -6  -3 5185.03 1018.44   7
  -6  -7  -3 6015.48 1082.09   7
  -6  13  -2 12500.7 1261.31   4
  -7  13  -2 12484.9 1224.30   4
 -13   6  -2 15955.7 2652.79   2
  -7  -6  -2 11815.6 1363.69   7
  -6  -7  -2 11439.5 1348.48   7
 -13   7  -2 9179.13 1884.92   2
   7   6  -2 12218.6 1127.32   3
   6   7  -2 12748.5 1129.90   3
   7   6  -2 12795.6 1253.86   5
   6   7  -2 14122.2 1298.77   5
  -7  -6  -1 7249.03 1981.14   2
  -6  -7  -1 6866.02 1895.87   2
  -6  13  -1 7716.15 998.525   4
  -7  13  -1 6420.67 994.541   4
   6 -13  -1 5173.07 1391.87   8
   7 -13  -1 7108.69 1583.85   8
  -7  -6  -1 5650.39 947.963   7
  -6  -7  -1 5153.74 848.929   7
 -13   7  -1 8207.04 1828.96   2
 -13   6  -1 7002.37 1728.04   2
  -6  13   0 14502.9 1315.04   4
   7 -13   0 11982.3 2021.68   8
  -7  13   0 13052.5 1252.45   4
  -7  -6   0 13685.1 1349.19   7
  -6  -7   0 15028.3 1388.43   7
 -13   7   0 15636.2 2248.59   2
 -13   6   0 15367.4 2247.44   2
   6 -13   0 12129.7 2101.76   8
   6 -13   1 6222.63 1540.24   8
   7 -13   1 7298.71 1658.54   8
  -7  -6   1 6213.73 943.878   7
  -6  -7   1 7267.35 975.532   7
  -6  13   1 6367.17 912.789   4
  -7  13   1 5394.18 840.700   4
   6   7   2 12152.2 2050.34   1
   7   6   2 15678.0 2417.23   1
   6 -13   2 12771.0 2182.21   8
  -6  13   2 11816.5 1203.90   4
  -7  13   2 11050.7 1138.26   4
  -7  -6   2 13124.6 1270.47   7
   7 -13   2 13066.9 2197.56   8
  -6  13   3 4437.29 754.761   4
  -7  13   3 4130.06 708.980   4
  13  -5  -7 123.644 217.221   5
  -5  -8  -7-503.780 329.959   7
   8   5  -7 397.143 213.631   6
   5   8  -7 255.975 228.102   6
   5   8  -7-103.289 189.960   3
   5   8  -6 1953.11 499.687   3
  13  -8  -6 1800.89 431.522   5
  13  -5  -6 2578.29 554.509   5
   8   5  -6 2005.45 454.799   5
  -8  -5  -6 1098.92 512.129   7
  -5  -8  -6 1764.54 589.028   7
   8   5  -6 2050.33 454.902   3
  -5  -8  -5 74.9112 467.038   7
   8   5  -5-180.652 372.701   3
  13  -8  -5-171.112 321.914   5
   5   8  -5-22.3669 474.631   3
  13  -5  -5-285.306 459.337   5
  -5  13  -5 540.280 400.838   3
   8   5  -5-408.320 424.860   5
  -8  -5  -5 233.740 468.025   7
   8   5  -4 2728.21 645.596   3
  13  -8  -4 2535.59 595.743   5
  13  -5  -4 1637.51 530.602   5
   5   8  -4 2429.94 702.934   3
   8   5  -4 2796.24 719.289   5
  -5  13  -4 1764.80 537.597   3
  -5  13  -4 3204.58 751.097   4
  -8  13  -4 3077.75 657.381   4
  -8  -5  -4 2151.29 795.858   7
  -5  -8  -4 1592.46 712.398   7
   8   5  -3 2283.81 591.845   3
  13  -5  -3 1741.13 592.288   5
   5   8  -3 1725.67 572.715   3
   5   8  -3 2535.05 619.372   5
   8   5  -3 2142.70 640.319   5
  -5  13  -3 2160.96 661.617   4
  -8  13  -3 2280.97 635.382   4
  -8  -5  -3 1280.69 659.381   7
  -5  -8  -3 1989.01 749.702   7
  13  -5  -2 1603.77 563.565   5
   5   8  -2 2205.99 592.060   3
   8   5  -2 1452.52 594.227   5
   5   8  -2 1414.86 539.793   5
   5 -13  -2 988.122 771.091   8
  -5  13  -2 1860.59 649.367   4
  -8  -5  -2 1987.18 742.656   7
  -5  -8  -2 1608.76 672.456   7
  -8  13  -2 638.894 446.710   4
 -13   8  -2 2088.68 1135.64   2
 -13   5  -2 2764.14 1442.82   2
  -8  -5  -2 1715.71 977.208   2
  -8  -5  -1 5342.62 2158.89   2
   5 -13  -1 2736.96 1159.59   8
   8 -13  -1 5239.96 1416.20   8
  -8  -5  -1 4029.00 869.475   7
  -5  -8  -1 4416.04 833.141   7
  -5  13  -1 4135.47 751.855   4
  -8  13  -1 4607.49 886.167   4
 -13   8  -1 3668.27 1107.92   2
 -13   5  -1 3621.43 1277.03   2
   5 -13   0 21411.5 2756.46   8
   8 -13   0 20407.3 2493.63   8
  -5  13   0 22201.2 1589.70   4
  -8  13   0 20985.2 1544.40   4
  -8  -5   0 23338.7 1764.95   7
  -5  -8   0 23179.5 1650.52   7
 -13   5   0 19392.6 2561.68   2
   5 -13   1 4794.54 1556.14   8
   8 -13   1 3202.52 1106.47   8
  -8  -5   1 3925.13 842.237   7
  -5  13   1 4893.64 851.879   4
  -8  13   1 3231.90 681.078   4
 -13   5   1 2909.28 1020.00   2
   8   5   1 5144.30 1445.83   1
   8   5   2 531.660 884.472   1
   5 -13   2 2005.68 1237.04   8
  -8  -5   2 1121.19 635.882   7
  -5  13   2 1440.29 497.497   4
  -8  13   2 53.0892 577.948   4
  -8  13   2-811.387 1242.64   1
  13  -4  -7 386.505 255.690   5
  -4  -9  -7 99.2900 231.104   7
   4   9  -7 412.659 255.238   6
   4   9  -7 80.6089 174.010   3
  13  -9  -6 2134.54 421.770   5
   4   9  -6 2110.02 475.816   3
  13  -4  -6 1531.95 475.935   5
   9   4  -6 1751.79 445.367   5
  -9  -4  -6 1286.31 559.534   7
  -4  -9  -6 1795.48 569.398   7
   9   4  -6 1625.54 455.133   6
   9   4  -6 1605.85 408.330   3
   9   4  -5 288.212 343.805   3
  13  -9  -5 125.848 350.115   5
   4   9  -5 117.748 415.971   3
  13  -4  -5-139.764 431.925   5
  -4  13  -5 344.569 332.811   3
   9   4  -5 46.9907 385.582   5
  -9  -4  -5 55.0212 473.976   7
  -4  -9  -5-458.721 512.167   7
  13  -4  -4 6469.36 933.146   5
  -9  13  -4 7408.50 910.825   4
  -4  13  -4 6057.05 969.353   4
  -9  -4  -4 6820.27 1159.57   7
  -4  -9  -4 7963.21 1201.57   7
   9   4  -4 6628.04 853.114   3
   4   9  -4 6953.93 1009.18   3
  -4  13  -4 6361.63 866.992   3
   9   4  -4 7091.33 1004.54   5
  13  -4  -3 909.447 537.581   5
   4   9  -3 865.194 509.105   3
   9   4  -3 742.818 495.523   5
  -4  13  -3 1716.68 692.663   4
  -9  13  -3 584.382 407.686   4
  -9  -4  -3 1622.96 761.801   7
  -4  -9  -3 1210.45 605.275   7
  13  -4  -2 801.948 477.441   5
   9   4  -2 962.934 548.272   5
   4 -13  -2 865.948 957.164   8
  -4  13  -2 1474.50 639.438   4
  -9  -4  -2 2259.68 813.022   7
  -4  -9  -2 1654.34 690.619   7
  -9  13  -2 2509.61 696.362   4
 -13   9  -2 953.539 842.294   2
 -13   4  -2 2133.77 1423.28   2
  -9  -4  -2-1153.26 1400.79   2
  -9  -4  -1 3231.50 2173.42   2
  13  -4  -1 633.221 459.713   5
   4 -13  -1 1105.34 1064.19   8
  -4  -9  -1-1237.71 1330.60   8
 -13   4  -1 472.810 432.556   7
  -9  -4  -1 2416.20 758.409   7
  -4  13  -1 535.140 470.764   4
  -4  -9  -1 880.202 503.721   7
 -13   9  -1 31.9072 747.382   2
  -9  13  -1 713.339 545.565   4
 -13   4  -1-76.5811 902.657   2
   4 -13   0 5464.71 1568.01   8
  -4  -9   0 4549.86 1496.41   8
 -13   4   0 4731.73 851.133   7
  -9  -4   0 6150.96 1018.46   7
  -4  -9   0 5251.72 844.886   7
  -4  13   0 5401.46 846.605   4
  -9  13   0 4975.38 777.816   4
 -13   4   0 2652.52 947.820   2
   4 -13   1 532.124 813.276   8
  -4  -9   1 775.670 901.001   8
  -9  -4   1 748.935 541.778   7
  -4  13   1 1383.96 552.131   4
  -9  13   1-210.049 601.742   4
   9   4   1 1479.92 997.150   1
 -13   4   1 437.300 650.580   2
   4 -13   2 1372.19 1035.34   8
  -4  -9   2 309.624 747.901   8
  -9  -4   2 1884.56 671.421   7
  -4  13   2 1511.42 568.301   4
   9   4   2 2905.91 1346.05   1
  -9  13   5-596.828 410.606   4
  13  -3  -7 270.319 218.265   5
   3  10  -6 199.469 292.363   3
  -3  13  -6 831.235 301.924   3
  13  -3  -6 875.912 381.915   5
  10   3  -6 1545.37 430.515   5
  -3 -10  -6 719.842 440.382   7
  10   3  -6 1178.36 354.900   6
   3  10  -5-196.455 453.985   3
  13  -3  -5 167.028 409.792   5
  -3  13  -5 568.400 393.829   3
  10   3  -5 51.8294 393.081   5
 -10  -3  -5-434.539 540.404   7
  -3 -10  -5 1142.76 579.572   7
  10   3  -5 300.471 297.435   3
  13  -3  -4 5642.63 934.940   5
   3  10  -4 6041.89 908.214   3
  10   3  -4 6299.55 950.640   5
  -3  13  -4 5617.76 936.169   4
 -10  -3  -4 5901.55 1068.92   7
  -3 -10  -4 4330.45 871.369   7
  10   3  -4 6510.39 804.072   3
  -3  13  -4 5636.77 859.773   3
  13  -3  -3 1513.85 578.877   5
  10   3  -3 973.816 553.684   5
   3  10  -3 1731.08 612.321   3
  -3  13  -3 1401.85 615.454   4
 -10  -3  -3 872.725 620.979   7
 -10  13  -3 1659.33 524.148   4
  -3 -10  -3 959.125 585.263   7
  13  -3  -2 2333.47 576.496   5
  10   3  -2 2996.79 702.345   5
 -13   3  -2 3260.43 688.048   7
  -3  13  -2 2934.59 787.828   4
 -10  -3  -2 3319.54 832.577   7
  -3 -10  -2 1945.53 627.761   7
 -10  13  -2 3681.99 812.919   4
  13  -3  -1 399.304 381.443   5
   3  10  -1 183.669 533.465   4
   3 -13  -1 1026.23 964.549   8
  -3 -10  -1-223.381 1215.96   8
 -13   3  -1 1621.55 579.800   7
 -10  -3  -1 884.401 604.706   7
  -3  13  -1 363.444 480.229   4
  -3 -10  -1 812.440 478.292   7
 -10  13  -1 775.524 503.137   4
 -13   3  -1-1795.73 1706.13   2
  13  -3   0 2266.12 535.422   5
   3 -13   0 3871.59 1431.00   8
  -3 -10   0 4861.10 1532.96   8
 -13   3   0 2397.47 727.112   7
 -10  -3   0 2289.08 702.048   7
  -3  13   0 2726.40 664.380   4
 -10  13   0 2196.25 600.608   4
 -13   3   0 1939.40 1054.17   2
   3 -13   1-114.850 859.048   8
  -3 -10   1-1825.52 1317.61   8
 -13   3   1 583.664 526.118   7
 -10  -3   1 93.9362 527.857   7
  -3  13   1 885.520 501.605   4
  10   3   1-104.869 874.568   1
 -13   3   1 539.777 614.669   2
 -10  -3   2 2398.26 736.624   7
   2  11  -6 1475.61 400.799   3
  -2  13  -6 1091.79 332.671   3
  13  -2  -6 1400.28 432.734   5
  11   2  -6 838.413 364.298   5
  -2 -11  -6 999.137 427.991   7
   2  11  -5-141.391 388.358   3
  13  -2  -5-347.903 389.646   5
  -2  13  -5 114.988 380.801   3
  11   2  -5-218.999 412.318   5
 -11  -2  -5-451.155 430.672   7
  -2 -11  -5 257.318 402.039   7
  13  -2  -4 4940.88 873.516   5
  11   2  -4 4569.17 899.733   5
   2  11  -4 4588.00 829.525   3
  -2  13  -4 5365.77 837.193   3
 -11  -2  -4 4267.11 915.760   7
  -2 -11  -4 3745.99 832.370   7
  13  -2  -3 87.1539 429.816   5
  11   2  -3-231.613 521.266   5
   2  11  -3 377.895 482.000   3
  -2  13  -3 580.036 574.212   4
 -13   2  -3 309.431 410.452   7
 -11  -2  -3 120.046 461.882   7
 -11  13  -3-398.765 389.185   4
  -2 -11  -3 130.225 433.596   7
  13  -2  -2 4342.25 774.710   5
  11   2  -2 5353.64 903.889   5
   2  11  -2 4253.82 821.957   4
 -11  13  -2 6166.02 930.777   4
  -2  13  -2 4244.79 826.218   4
 -13   2  -2 5335.40 930.325   7
 -11  -2  -2 4254.97 917.936   7
  -2 -11  -2 4656.71 846.608   7
  13  -2  -1 1554.28 580.553   5
   2  11  -1 1624.06 548.370   4
 -13   2  -1 1094.82 538.554   7
  -2  13  -1 1206.12 604.768   4
 -11  -2  -1 1973.16 703.017   7
  -2 -11  -1 1380.06 563.388   7
 -11  13  -1 1406.88 578.835   4
 -13  11  -1-161.072 630.640   4
  13  -2   0 833.691 441.637   5
  -2 -11   0 323.465 772.535   8
 -13   2   0 879.489 582.345   7
 -11  -2   0 392.738 491.329   7
  -2  13   0 958.589 519.996   4
 -11  13   0-544.780 694.111   4
 -13   2   0-545.518 1070.69   2
 -13   2   1 488.303 670.958   2
 -13   2   1 1294.92 587.558   7
 -11  -2   1 1410.14 598.255   7
  -2  13   1 1823.73 551.229   4
  11   2   1 786.418 906.560   1
 -11  -2   2 4297.59 884.395   7
   1  12  -6 1483.48 373.575   3
  -1  13  -6 1449.24 345.871   3
  13  -1  -6 1577.22 422.556   5
  12   1  -6 977.141 337.498   5
  -1 -12  -6 827.934 352.618   7
   1 -13  -6 990.151 346.484   7
   1  12  -5-836.585 465.150   3
  13  -1  -5-376.583 461.300   5
  -1  13  -5-452.990 376.518   3
  12   1  -5-113.418 375.464   5
  -1 -12  -5 360.534 403.303   7
  13  -1  -4 5116.08 910.662   5
  12   1  -4 5882.30 958.445   5
   1  12  -4 6164.63 881.254   3
  -1  13  -4 5602.20 868.967   3
 -12  -1  -4 5532.27 917.430   7
  -1 -12  -4 4848.82 906.260   7
  13  -1  -3 1018.59 539.997   5
  12   1  -3 1537.19 589.137   5
   1  12  -3 1974.39 629.364   3
  -1  13  -3 1074.44 619.825   4
 -13   1  -3 2037.04 614.393   7
 -12  -1  -3 1346.74 634.441   7
  -1 -12  -3 1428.82 599.890   7
  13  -1  -2 5052.62 854.032   5
  12   1  -2 4881.31 881.440   5
 -12  13  -2 6033.45 962.348   4
   1  12  -2 3568.52 801.722   4
  -1  13  -2 3610.30 794.496   4
 -13   1  -2 4763.17 930.336   7
 -12  -1  -2 5230.30 1000.95   7
  -1 -12  -2 4648.81 836.275   7
  13  -1  -1 1572.49 567.720   5
  12   1  -1 1233.95 549.542   5
   1  12  -1 1216.14 531.160   4
  -1  13  -1 662.479 429.157   4
 -13   1  -1 1966.83 641.235   7
 -12  -1  -1 1782.62 707.821   7
 -12  13  -1 1207.19 486.612   4
 -13  12  -1-103.792 484.682   4
 -13   1   0 992.715 631.736   7
 -12  -1   0-316.065 597.955   7
  -1  13   0 360.889 406.925   4
 -12  13   0-1095.88 690.020   4
 -13   1   1 1396.32 668.383   7
 -12  -1   1 1246.60 625.610   7
 -12  -1   2 3308.40 855.292   7
 -12  13   6 758.731 211.875   4
   0  13  -6 2869.38 406.806   3
  13   0  -6 3149.72 456.251   5
   0 -13  -6 2714.40 481.610   7
   0  13  -6 3595.03 465.266   6
   0  13  -5 232.499 328.320   3
  13   0  -5 249.635 379.799   5
   0 -13  -5 174.292 369.444   7
  13   0  -4 2071.36 666.465   5
   0  13  -4 1526.75 483.747   3
 -13   0  -4 3074.15 728.701   7
   0 -13  -4 1151.80 541.933   7
  13   0  -3 3191.01 728.028   5
   0  13  -3 3813.49 760.478   3
 -13   0  -3 3549.72 786.219   7
   0 -13  -3 3712.36 750.734   7
 -13  13  -2 10226.2 1187.89   4
   0  13  -2 6273.68 1024.53   4
   0 -13  -2 8253.58 1021.24   7
 -13   0  -2 7487.06 1093.75   7
  13   0  -2 8087.39 1043.65   5
  13   0  -1 427.501 559.870   5
   0  13  -1 300.778 476.567   4
 -13   0  -1 300.632 476.831   7
 -13  13  -1-390.390 485.195   4
   0  13   0 1332.08 468.686   4
 -13   0   0 1216.93 582.576   7
 -13   0   1-114.972 530.488   7
   7   7  -6 268.413 297.027   3
  14  -7  -6 200.822 240.292   5
  -7  -7  -6-475.728 461.758   7
   7   7  -5-22.1303 328.806   3
  14  -7  -5 9.06729 292.302   5
   7   7  -5 17.4762 287.579   5
  -7  -7  -5-429.424 465.421   7
  14  -7  -4 6232.38 787.508   5
  -7  14  -4 6469.40 922.335   4
  -7  -7  -4 7483.27 1195.20   7
   7   7  -4 8440.67 991.658   3
   7   7  -4 7154.67 936.305   5
   7   7  -3-331.740 366.186   3
   7   7  -3-207.245 369.045   5
  -7  14  -3 539.421 594.555   4
  -7  -7  -3 82.6383 503.953   7
   7   7  -2 2292.30 561.215   3
   7   7  -2 2879.23 652.410   5
  -7  14  -2 1126.17 466.013   4
  -7  -7  -2 821.276 524.542   7
  -7  -7  -1-370.323 523.127   7
  -7  14  -1-505.096 471.594   4
   7 -14   0 44481.3 3897.44   8
  -7  14   0 47253.1 2336.27   4
  -7  -7   0 43788.2 2345.68   7
 -14   7   0 44626.5 3910.90   2
  -7  -7   1-9.46209 432.263   7
  -7  14   1 220.198 470.563   4
  -7  -7   2 2201.63 609.111   7
  -7  14   2 2134.76 611.925   4
  -7  14   3 359.657 452.325   4
   6   8  -6 1327.90 376.270   3
  14  -8  -6 1241.86 339.619   5
  14  -6  -6 1274.72 358.580   5
  -8  -6  -6 1603.68 533.411   7
  -6  -8  -6 1212.25 482.146   7
   8   6  -6 953.970 339.229   3
   8   6  -5-286.555 337.122   3
   6   8  -5 164.665 366.382   3
  14  -8  -5 469.429 346.275   5
  14  -6  -5 367.021 353.262   5
   8   6  -5-50.0291 374.395   5
  -8  -6  -5-343.502 496.222   7
  -6  -8  -5 552.006 484.352   7
   8   6  -4 859.512 448.534   3
  14  -8  -4 1655.35 469.787   5
  14  -6  -4 1028.97 486.922   5
   6   8  -4 986.554 506.163   3
   8   6  -4 1940.86 662.126   5
  -6  14  -4 1621.21 532.411   3
  -6  14  -4 1111.92 552.921   4
  -8  14  -4 1752.65 551.705   4
  -8  -6  -4 754.180 620.181   7
  -6  -8  -4 1506.24 721.906   7
   8   6  -3 863.827 403.391   3
  14  -6  -3 1358.17 522.308   5
   6   8  -3 946.633 466.444   3
   6   8  -3 939.190 445.480   5
   8   6  -3 849.899 481.242   5
  -6  14  -3 1410.06 673.141   4
  -8  14  -3 1085.51 551.060   4
  -8  -6  -3 1323.61 714.877   7
  -6  -8  -3 1277.76 696.985   7
  -6  14  -2 6558.10 964.448   4
  -8  -6  -2 7040.60 1117.42   7
  -6  -8  -2 6620.52 1036.65   7
  -8  14  -2 5918.35 873.649   4
   6   8  -2 6857.59 872.815   3
   6   8  -2 7445.59 973.783   5
   8   6  -2 7090.05 965.597   5
  -8  -6  -1 932.713 577.480   7
  -6  -8  -1 152.840 485.512   7
  -6  14  -1 172.205 438.948   4
  -8  14  -1 1801.28 696.257   4
 -14   8  -1 53.2241 903.262   2
   6 -14   0 1556.72 796.400   8
  -8  -6   0 4006.82 843.394   7
  -6  -8   0 4461.86 846.701   7
  -6  14   0 5438.57 937.581   4
  -8  14   0 4620.00 850.605   4
 -14   6   0 2242.00 988.573   2
  -8  -6   1 755.108 545.086   7
  -6  -8   1-144.057 411.130   7
  -6  14   1 623.446 474.429   4
  -8  14   1 194.498 479.660   4
  -8  -6   2 6473.80 970.684   7
  -6  14   2 5878.19 874.893   4
  -8  14   2 4716.58 834.436   4
  -6  14   3 662.260 385.170   4
  -8  14   3 394.030 407.839   4
  -8  14   4 766.377 364.321   4
  14  -9  -6 1414.13 306.596   5
   5   9  -6 2054.77 445.324   3
  14  -5  -6 2721.71 475.265   5
   9   5  -6 1749.54 353.514   5
  -9  -5  -6 1948.43 581.437   7
  -5  -9  -6 1767.03 488.225   7
   9   5  -6 2589.70 468.115   6
   9   5  -6 1669.71 346.184   3
   9   5  -5 484.210 300.701   3
   5   9  -5 816.327 456.650   3
  14  -5  -5-301.337 405.707   5
  -5  14  -5 75.5836 326.472   3
   9   5  -5-180.427 356.546   5
  -9  -5  -5-370.659 490.579   7
  -5  -9  -5-117.019 455.905   7
   9   5  -4 1545.70 479.659   3
  14  -5  -4 1646.48 529.589   5
   5   9  -4 1541.41 538.335   3
   9   5  -4 2446.34 677.430   5
  -5  14  -4 1843.79 530.901   3
  -5  14  -4 2383.53 646.360   4
  -9  14  -4 876.542 417.097   4
  -9  -5  -4 1504.60 685.617   7
  -5  -9  -4 2539.54 751.146   7
  14  -5  -3-202.215 398.479   5
   5   9  -3 13.3685 402.762   3
   9   5  -3-399.893 428.326   5
  -5  14  -3 415.877 498.066   4
  -9  14  -3-395.140 393.935   4
  -9  -5  -3-577.138 593.157   7
  -5  -9  -3 292.791 488.915   7
  -5  14  -2 9097.15 1111.53   4
  -9  14  -2 9347.85 1125.33   4
  -9  -5  -2 9823.11 1343.97   7
  -5  -9  -2 8930.34 1171.85   7
   5   9  -2 9321.00 1012.25   3
  14  -5  -2 8552.18 998.491   5
   5   9  -2 10469.1 1077.54   5
   9   5  -2 9784.50 1130.32   5
 -14   5  -1 1334.55 537.204   7
  -9  -5  -1 1994.31 788.053   7
  -5  -9  -1 1299.77 565.857   7
  -5  14  -1 1795.28 591.479   4
  -9  14  -1 2409.22 772.137   4
  -9  -5   0 1036.94 611.163   7
  -5  -9   0 2020.35 642.309   7
  -5  14   0 483.958 404.417   4
  -9  14   0 552.283 479.662   4
 -14   5   0-214.122 843.650   2
  -9  -5   1 1415.01 538.385   7
  -5  14   1 1935.38 653.600   4
  -9  14   1 987.752 509.501   4
  -5  14   2 9878.08 1086.90   4
  -9  -5   2 9625.91 1216.78   7
  -9  14   2 7745.50 1020.47   4
  -9  14   3-762.587 609.050   4
  -9  14   4 1756.59 467.576   4
   4  10  -6 1150.85 316.371   3
  14  -4  -6 931.655 375.793   5
  10   4  -6 918.641 280.977   5
  -4 -10  -6 333.301 353.535   7
  10   4  -6 460.332 244.598   6
   4  10  -5 945.708 450.187   3
  14  -4  -5-277.406 358.246   5
  -4  14  -5 328.961 352.223   3
  10   4  -5 173.830 364.649   5
 -10  -4  -5 448.308 493.596   7
  -4 -10  -5 226.140 402.912   7
  10   4  -5 560.924 324.936   3
  14  -4  -4 2818.10 654.340   5
   4  10  -4 3158.32 727.159   3
  10   4  -4 4423.37 797.556   5
  -4  14  -4 3599.67 677.844   3
  -4  14  -4 3924.08 816.450   4
 -10  14  -4 2408.45 566.077   4
 -10  -4  -4 3153.25 812.900   7
  -4 -10  -4 2316.55 698.291   7
  14  -4  -3 494.978 431.929   5
   4  10  -3 496.608 497.703   3
  10   4  -3 331.636 463.732   5
  -4  14  -3 581.680 558.022   4
 -10  14  -3 585.549 431.913   4
 -10  -4  -3 1112.20 632.788   7
  -4 -10  -3 482.141 461.906   7
  14  -4  -2 3193.76 709.284   5
  10   4  -2 4172.00 803.713   5
   4  10  -2 4659.59 779.776   3
  -4  14  -2 3273.80 759.319   4
 -10  -4  -2 4351.34 977.400   7
  -4 -10  -2 3015.90 774.570   7
 -10  14  -2 3279.34 726.268   4
  14  -4  -1 556.539 414.638   5
 -14   4  -1 430.785 438.753   7
 -10  -4  -1 709.336 535.985   7
  -4  14  -1 1500.09 653.062   4
  -4 -10  -1 751.952 453.952   7
 -10  14  -1 1213.89 603.292   4
 -14   4   0 2832.25 699.060   7
 -10  -4   0 2459.71 748.644   7
  -4  14   0 2525.33 691.724   4
 -10  14   0 2166.84 651.246   4
 -10  -4   1 391.023 497.452   7
  -4  14   1 904.704 494.289   4
 -10  14   1-54.4796 545.871   4
 -10  -4   2 3231.06 807.807   7
 -10  14   2 1752.72 464.537   4
 -10  14   4 2035.42 479.127   4
 -10  14   5-21.9138 231.815   4
   3  11  -6 823.375 278.851   3
  14  -3  -6 1072.83 352.585   5
  11   3  -6 864.728 265.394   5
  -3 -11  -6 1050.24 403.246   7
   3 -14  -6 857.661 349.035   7
   3  11  -5-206.429 360.544   3
  14  -3  -5-327.465 386.520   5
  -3  14  -5-145.204 327.520   3
  11   3  -5 344.657 343.495   5
 -11  -3  -5-28.1086 437.743   7
  -3 -11  -5 65.8313 365.057   7
  14  -3  -4 2294.14 624.794   5
   3  11  -4 2435.74 614.576   3
  11   3  -4 2491.22 690.204   5
  -3  14  -4 2156.18 553.263   3
 -11  -3  -4 2556.48 760.164   7
  -3 -11  -4 2195.29 670.868   7
  14  -3  -3 170.203 428.110   5
  11   3  -3 458.425 537.542   5
   3  11  -3-234.569 432.276   3
  -3  14  -3 356.202 561.481   4
 -11  -3  -3 695.130 534.610   7
 -11  14  -3 265.703 379.611   4
  -3 -11  -3 437.925 503.583   7
  14  -3  -2 3645.38 723.528   5
  11   3  -2 4943.64 888.458   5
 -14   3  -2 4485.97 783.283   7
  -3  14  -2 3779.04 826.894   4
 -11  -3  -2 3967.49 917.113   7
  -3 -11  -2 4319.35 803.070   7
 -11  14  -2 3351.21 665.098   4
  14  -3  -1 108.296 379.986   5
 -14   3  -1-105.217 421.512   7
 -11  -3  -1-26.0266 478.314   7
  -3  14  -1 71.7316 500.953   4
  -3 -11  -1 202.117 373.364   7
 -11  14  -1 351.947 504.401   4
  14  -3   0 1527.38 486.091   5
 -14   3   0 1877.67 617.650   7
 -11  -3   0 1484.94 521.135   7
  -3  14   0 2349.13 661.561   4
 -11  14   0 1612.17 590.308   4
 -11  -3   1-389.052 471.579   7
  -3  14   1 100.717 367.008   4
 -11  14   1-590.456 589.752   4
 -11  -3   2 3673.35 817.340   7
 -11  14   5-462.357 289.698   4
   2  12  -6 1117.93 286.158   3
  14  -2  -6 1352.63 336.353   5
  12   2  -6 465.670 258.639   5
  -2 -12  -6 617.056 316.592   7
   2 -14  -6 866.148 322.073   7
   2  12  -5 122.437 317.233   3
  14  -2  -5-668.847 430.622   5
  -2  14  -5-158.489 288.810   3
  12   2  -5-141.985 369.060   5
 -12  -2  -5-556.535 466.446   7
  -2 -12  -5 132.706 340.231   7
   2 -14  -5 192.220 383.907   7
  14  -2  -4 1336.71 561.738   5
  12   2  -4 2717.44 714.035   5
   2  12  -4 2056.06 592.873   3
  -2  14  -4 2391.95 608.379   3
 -12  -2  -4 2675.84 667.625   7
  -2 -12  -4 1887.08 601.920   7
  14  -2  -3 349.560 515.569   5
  12   2  -3-628.042 566.251   5
   2  12  -3 404.949 399.522   3
  -2  14  -3 487.241 537.855   4
 -14   2  -3-532.250 416.572   7
 -12  -2  -3-257.765 545.539   7
  -2 -12  -3 494.815 487.334   7
   2 -14  -3 293.647 420.012   7
  14  -2  -2 4365.72 787.687   5
  12   2  -2 4461.89 881.348   5
  -2  14  -2 4727.74 898.986   4
 -14   2  -2 5837.85 909.890   7
 -12  -2  -2 4622.95 967.543   7
  -2 -12  -2 4313.90 805.922   7
 -12  14  -2 2619.80 539.982   4
  14  -2  -1 362.557 442.081   5
  12   2  -1 304.021 457.939   5
 -14   2  -1-15.5066 434.453   7
  -2  14  -1-581.452 531.326   4
 -12  -2  -1-12.9890 482.900   7
 -12  14  -1 915.825 500.130   4
 -14  12  -1-1299.00 681.913   4
  14  -2   0 1431.06 513.431   5
 -14   2   0 1127.72 537.203   7
 -12  -2   0 1306.92 562.197   7
  -2  14   0 1863.70 584.334   4
 -12  14   0-153.143 535.430   4
 -12  -2   1-45.9490 498.874   7
 -12  14   1-1450.83 690.349   4
 -12  14   5-626.371 300.082   4
  14  -1  -6 1086.87 288.859   5
  13   1  -6 1251.43 278.029   5
   1  13  -5 385.011 338.475   3
  -1  14  -5 441.106 326.166   3
  14  -1  -5 257.569 329.398   5
  13   1  -5 216.023 344.602   5
  -1 -13  -5 495.763 372.069   7
   1 -14  -5 290.145 338.731   7
  14  -1  -4 2015.44 609.018   5
  13   1  -4 3015.25 689.036   5
   1  13  -4 2048.59 581.190   3
  -1  14  -4 2317.28 585.026   3
 -13  -1  -4 2228.49 634.487   7
  -1 -13  -4 2876.23 683.980   7
   1 -14  -4 2071.51 555.874   7
  14  -1  -3 32.9517 459.858   5
  13   1  -3 328.958 486.470   5
   1  13  -3 44.4630 381.837   3
  -1  14  -3 574.511 471.565   3
 -14   1  -3 875.896 403.430   7
 -13  -1  -3 540.339 530.268   7
  -1 -13  -3 270.178 450.168   7
   1 -14  -3 313.824 398.833   7
  14  -1  -2 1117.89 473.380   5
  13   1  -2 2253.56 703.415   5
  -1  14  -2 1894.53 627.210   4
 -14   1  -2 1324.66 601.280   7
 -13  -1  -2 866.917 599.427   7
  -1 -13  -2 2352.24 639.976   7
 -13  14  -2 618.161 518.362   4
  14  -1  -1 671.606 435.754   5
  13   1  -1 843.077 580.375   5
   1  13  -1 1160.38 511.103   4
  -1  14  -1 372.505 431.070   4
 -14   1  -1 371.658 435.194   7
 -13  -1  -1 942.581 570.001   7
 -13  14  -1 1162.07 575.395   4
 -14  13  -1 430.230 403.326   4
  14  -1   0 4605.22 783.395   5
 -14   1   0 4319.69 868.094   7
  -1  14   0 3361.14 649.675   4
 -13  -1   0 4425.14 856.569   7
 -13  14   0 3413.86 693.228   4
 -14  13   0 2741.90 563.539   4
 -14   1   1 186.942 460.416   7
 -13  -1   1 1128.43 569.300   7
 -13  14   1-523.079 740.721   4
 -13  14   5-1213.71 385.107   4
   0  14  -5-75.4473 252.061   3
  14   0  -5 344.808 291.026   5
   0 -14  -5 71.2842 294.699   7
  14   0  -4 2135.74 570.527   5
   0  14  -4 2254.34 527.769   3
   0 -14  -4 2919.47 610.114   7
  14   0  -3 770.905 473.563   5
   0  14  -3 1386.48 523.755   3
 -14   0  -3 1366.35 594.472   7
   0 -14  -3 1470.37 517.035   7
  14   0  -2-497.468 514.580   5
 -14   0  -2 537.218 514.038   7
  14   0  -1 780.483 468.430   5
   0  14  -1 769.047 432.622   4
 -14   0  -1 303.301 420.506   7
 -14  14  -1 810.778 545.325   4
 -14   0   0 7214.40 1061.14   7
 -14  14   0 5940.46 872.563   4
  14   0   0 7283.60 969.159   5
 -14   0   1 903.971 557.178   7
 -14  14   1-730.629 664.490   4
 -14  14   5-334.288 253.308   4
  -8  -7  -6 1427.26 444.968   7
  -7  -8  -6 392.282 374.080   7
   8   7  -6 465.801 272.827   6
   8   7  -6 504.601 217.347   3
   7   8  -6 541.148 223.590   3
   8   7  -5 76.8974 278.810   3
   7   8  -5-146.580 290.235   3
  15  -8  -5 472.260 266.674   5
  15  -7  -5 436.167 311.441   5
   8   7  -5 164.511 253.813   5
  -8  -7  -5-78.8194 433.415   7
  -7  -8  -5-448.690 448.091   7
   7   8  -4 5080.86 717.414   5
   8   7  -4 4941.94 762.701   5
  -7  15  -4 4097.35 740.713   4
  -8  15  -4 5123.37 784.087   4
  -8  -7  -4 3980.01 863.365   7
  -7  -8  -4 4480.74 941.794   7
   8   7  -4 5655.75 737.328   3
   7   8  -4 5391.14 788.114   3
  15  -7  -4 5378.02 713.291   5
   8   7  -3 209.930 323.120   3
   7   8  -3-496.249 433.147   3
   7   8  -3-648.176 513.890   5
   8   7  -3 217.094 387.238   5
  -7  15  -3-738.962 409.572   3
  -7  15  -3 325.282 551.267   4
  -8  15  -3 705.749 571.991   4
  -8  -7  -3-150.850 521.838   7
  -7  -8  -3 758.070 609.878   7
   7   8  -2 2090.20 545.783   3
   7   8  -2 2599.45 646.773   5
   8   7  -2 2216.04 611.880   5
  -7  15  -2 1830.68 662.236   4
  -8  -7  -2 1417.58 606.377   7
  -7  -8  -2 2047.87 706.218   7
  -8  15  -2 1469.19 607.432   4
  -8  -7  -1 2570.50 715.329   7
  -7  -8  -1 2992.76 786.408   7
  -7  15  -1 1975.39 604.251   4
  -8  15  -1 2860.30 735.265   4
  -8  -7   0 2872.67 747.761   7
  -7  -8   0 2997.05 733.758   7
  -7  15   0 3244.35 790.662   4
  -8  15   0 3309.69 787.147   4
  -8  -7   1 2762.92 655.215   7
  -7  -8   1 3412.03 729.590   7
  -7  15   1 3402.67 754.339   4
  -8  15   1 3397.66 706.563   4
  -8  -7   2 2103.84 590.088   7
  -7  15   2 2436.80 658.289   4
  -8  15   2 1930.65 637.427   4
  -7  15   3 314.634 450.489   4
  -8  15   3-201.966 407.140   4
   6   9  -6 917.409 268.674   3
  15  -6  -6 907.186 255.849   5
  -9  -6  -6 945.646 375.045   7
  -6  -9  -6 1063.62 391.603   7
   9   6  -6 532.248 220.068   6
   9   6  -5 1155.33 341.918   3
   6   9  -5 621.402 343.887   3
  15  -6  -5 1601.48 397.461   5
   9   6  -5 1205.00 387.186   5
  -9  -6  -5 967.635 512.142   7
  -6  -9  -5 1545.65 542.400   7
   9   6  -4 4361.68 616.413   3
   6   9  -4 4243.80 722.992   3
  15  -6  -4 3746.00 648.447   5
   9   6  -4 4544.11 779.057   5
  -6  15  -4 3709.58 633.942   3
  -6  15  -4 5352.79 863.156   4
  -9  15  -4 3162.54 621.834   4
  -9  -6  -4 4801.66 930.069   7
  -6  -9  -4 3377.00 779.138   7
  15  -6  -3 2731.64 597.200   5
   6   9  -3 2381.41 598.876   3
   6   9  -3 1775.67 495.720   5
   9   6  -3 1519.94 562.624   5
  -6  15  -3 2597.51 700.204   4
  -9  15  -3 3343.77 708.895   4
  -9  -6  -3 3098.78 884.348   7
  -6  -9  -3 1866.62 693.433   7
   6   9  -2 2373.78 574.289   3
   6   9  -2 3277.82 687.592   5
   9   6  -2 3573.54 769.036   5
  -6  15  -2 2610.27 716.054   4
  -9  -6  -2 2625.24 757.155   7
  -6  -9  -2 2358.68 719.875   7
  -9  15  -2 2512.49 623.414   4
   6   9  -1 1039.43 426.763   3
  -9  -6  -1 363.360 545.747   7
  -6  -9  -1 176.341 482.282   7
  -6  15  -1 515.264 516.255   4
  -9  15  -1 1219.86 626.139   4
  -9  -6   0 1524.78 602.637   7
  -6  -9   0 2315.10 640.377   7
  -6  15   0 1048.58 489.061   4
  -9  15   0 1892.77 700.562   4
  -9  -6   1-713.689 550.818   7
  -6  15   1 934.072 472.588   4
  -9  15   1 161.007 462.070   4
  -9  -6   2 2799.44 684.121   7
  -6  15   2 2795.37 668.579   4
  -9  15   2 2495.43 673.874   4
  -9  15   3 2546.92 606.142   4
  -9  15   4 4389.48 645.480   4
   5  10  -6 1580.83 308.792   3
  15  -5  -6 1312.17 276.612   5
  -5 -10  -6 1109.54 334.534   7
   5  10  -5 2259.39 502.620   3
  15  -5  -5 2289.36 472.846   5
  10   5  -5 1596.80 415.674   5
 -10  -5  -5 2453.18 638.982   7
  -5 -10  -5 1841.02 557.295   7
  10   5  -5 1740.20 343.770   3
  15  -5  -4 2078.43 509.344   5
   5  10  -4 2734.38 592.919   3
  10   5  -4 3028.09 679.114   5
  -5  15  -4 3276.46 602.367   3
  -5  15  -4 1856.32 608.336   4
 -10  15  -4 2641.45 555.218   4
 -10  -5  -4 2399.59 728.592   7
  -5 -10  -4 2125.00 676.329   7
  15  -5  -3 1562.84 489.837   5
   5  10  -3 2483.75 611.961   3
  10   5  -3 1373.34 523.277   5
  -5  15  -3 1548.39 588.563   4
 -10  15  -3 2367.55 633.514   4
 -10  -5  -3 3031.76 872.693   7
  -5 -10  -3 1642.61 618.167   7
  15  -5  -2 5689.36 806.018   5
  -5  15  -2 6326.81 988.170   4
 -10  -5  -2 7030.57 1150.19   7
  -5 -10  -2 6309.97 1002.13   7
 -10  15  -2 6536.67 933.965   4
   5  10  -2 6494.99 858.025   3
  10   5  -2 7659.87 1029.13   5
 -10  -5  -1-80.8702 473.453   7
  -5  15  -1-112.377 426.957   4
  -5 -10  -1 331.659 429.384   7
 -10  15  -1 711.668 667.607   4
 -10  -5   0-149.177 449.973   7
  -5 -10   0 803.112 467.298   7
  -5  15   0 673.388 519.981   4
 -10  15   0 1114.95 643.602   4
 -10  -5   1 347.726 482.234   7
  -5  15   1-449.878 458.627   4
 -10  15   1-268.732 471.883   4
  -5  15   2 6966.38 865.506   4
 -10  -5   2 5916.90 973.313   7
 -10  15   2 5713.65 874.452   4
 -10  15   3 1346.73 516.789   4
 -10  15   4 2573.64 507.741   4
   4  11  -6 386.862 199.023   3
  -4 -11  -6 371.925 227.137   7
   4  11  -5 920.568 374.836   3
  15  -4  -5 636.339 348.818   5
  -4  15  -5 240.887 319.745   3
  11   4  -5-115.275 296.520   5
 -11  -4  -5 363.566 424.644   7
  -4 -11  -5 86.5592 343.627   7
  15  -4  -4 1118.30 446.202   5
   4  11  -4 1612.27 523.337   3
  11   4  -4 2070.75 614.057   5
  -4  15  -4 1370.06 459.560   3
 -11  -4  -4 933.468 591.726   7
  -4 -11  -4 336.776 435.148   7
  15  -4  -3-96.0188 352.771   5
   4  11  -3 449.015 434.144   3
  11   4  -3-519.216 471.951   5
  -4  15  -3 474.512 408.765   3
  -4  15  -3-268.203 468.234   4
 -11  15  -3 471.288 383.920   4
 -11  -4  -3-175.531 507.444   7
  -4 -11  -3 510.769 507.876   7
  -4  15  -2 7124.26 1035.20   4
 -11  -4  -2 8018.40 1207.79   7
  -4 -11  -2 6968.37 1025.27   7
 -11  15  -2 6459.97 886.461   4
   4  11  -2 8332.76 959.584   3
  15  -4  -2 7665.67 933.745   5
  11   4  -2 8536.98 1078.91   5
  15  -4  -1 1049.84 429.893   5
  11   4  -1 2703.46 720.009   5
 -15   4  -1 2271.66 674.123   7
 -11  -4  -1 1925.02 673.829   7
  -4  15  -1 1855.86 624.112   4
  -4 -11  -1 1837.84 617.330   7
 -11  15  -1 3105.74 764.359   4
 -11  -4   0-406.633 568.024   7
  -4  15   0 703.336 507.332   4
 -11  15   0 399.867 494.952   4
 -11  -4   1 1541.14 649.624   7
  -4  15   1 1645.06 548.978   4
 -11  15   1 2142.03 617.467   4
 -11  -4   2 6397.10 1005.13   7
 -11  15   2 5786.94 928.468   4
 -11  15   3-571.726 603.918   4
 -11  15   4 589.891 288.445   4
 -11  15   5 650.584 258.913   4
   3  12  -5-54.6826 262.826   3
  -3  15  -5 230.635 285.660   3
  15  -3  -5-279.733 308.064   5
  12   3  -5-254.843 289.986   5
 -12  -3  -5-197.629 437.580   7
  -3 -12  -5 35.4743 314.877   7
   3 -15  -5-69.7569 269.846   7
  15  -3  -4 372.057 363.831   5
   3  12  -4-34.0306 355.224   3
  12   3  -4 599.094 461.073   5
  -3  15  -4 139.654 333.353   3
 -12  -3  -4 324.932 430.378   7
  -3 -12  -4 469.676 436.245   7
   3 -15  -4 297.806 324.770   7
  15  -3  -3 175.568 370.365   5
  12   3  -3-683.166 554.669   5
   3  12  -3-83.7814 390.580   3
  -3  15  -3 66.5977 418.184   3
  -3  15  -3-7.11090 463.704   4
 -12  -3  -3 85.4132 510.332   7
 -12  15  -3 698.067 427.672   4
  -3 -12  -3-7.50631 417.747   7
  15  -3  -2 4218.54 713.339   5
  12   3  -2 4422.09 844.260   5
   3  12  -2 4420.12 723.617   3
 -15   3  -2 5119.35 850.859   7
  -3  15  -2 3769.86 774.861   4
 -12  -3  -2 4634.05 961.009   7
  -3 -12  -2 4959.81 829.084   7
 -12  15  -2 3885.24 712.615   4
  15  -3  -1 2338.39 575.716   5
  12   3  -1 2547.52 744.605   5
 -15   3  -1 3327.53 739.386   7
  -3  15  -1 1365.64 583.241   4
 -12  -3  -1 1936.99 629.516   7
 -12  15  -1 3534.28 791.783   4
 -12  -3   0 6594.91 997.168   7
  -3  15   0 6474.06 862.882   4
 -12  15   0 6513.59 968.546   4
 -15  12   0 3433.53 703.146   4
  15  -3   0 6109.59 763.741   5
 -12  -3   1 2181.92 632.632   7
  -3  15   1 2163.76 542.056   4
 -12  15   1 2435.15 580.762   4
 -12  15   2 3191.07 706.229   4
 -12  15   3-1299.94 617.595   4
 -12  15   4 69.8353 353.776   4
 -12  15   5-370.743 245.268   4
   2  13  -5-46.2435 226.879   3
  -2  15  -5 568.919 290.829   3
  15  -2  -5-87.5991 282.021   5
  13   2  -5 16.5953 245.880   5
  -2 -13  -5 59.4400 281.033   7
   2 -15  -5-122.050 234.121   7
  15  -2  -4 998.301 443.911   5
   2  13  -4 481.696 375.670   3
  13   2  -4 1056.24 501.572   5
  -2  15  -4 706.819 387.355   3
 -13  -2  -4 975.833 472.185   7
  -2 -13  -4 1295.74 516.984   7
   2 -15  -4 860.296 448.717   7
  15  -2  -3 483.141 399.557   5
  13   2  -3 336.245 503.249   5
   2  13  -3 522.331 422.406   3
  -2  15  -3 511.585 444.891   3
 -13  -2  -3-28.4784 428.147   7
  -2 -13  -3-545.426 444.800   7
  15  -2  -2 907.437 455.599   5
  13   2  -2 1084.07 588.066   5
   2  13  -2 1399.68 503.743   3
  -2  15  -2 1040.18 515.077   4
 -15   2  -2 2252.05 634.601   7
 -13  -2  -2 507.866 443.619   7
  -2 -13  -2 854.498 466.041   7
 -13  15  -2 190.657 348.070   4
  15  -2  -1-99.9963 365.913   5
  13   2  -1 876.868 578.257   5
  -2  15  -1 4.86403 451.226   4
 -15   2  -1 401.978 381.178   7
 -13  -2  -1 51.6509 457.853   7
 -13  15  -1 796.698 494.128   4
 -15  13  -1 378.176 424.354   4
  -2  15   0 12930.7 1172.90   4
 -13  15   0 13197.4 1306.69   4
 -15  13   0 11779.9 1261.79   4
 -15   2   0 15675.1 1520.11   7
 -13  -2   0 14239.7 1473.14   7
  15  -2   0 13406.8 1153.04   5
 -13  -2   1 916.657 506.062   7
 -13  15   1-430.814 577.826   4
 -13  15   2 140.539 632.823   4
 -13  15   3-251.548 447.868   4
 -13  15   4 158.365 334.179   4
 -13  15   5-249.373 213.394   4
   1  14  -5 169.761 222.939   3
  -1  15  -5 108.426 206.921   3
  15  -1  -5-401.875 265.740   5
  14   1  -5 121.610 228.300   5
  -1 -14  -5-553.397 265.686   7
  15  -1  -4 819.520 393.743   5
   1  14  -4 402.929 315.166   3
  14   1  -4-107.079 357.508   5
  -1  15  -4 352.953 344.513   3
 -14  -1  -4 798.525 420.454   7
  -1 -14  -4 806.098 391.116   7
   1 -15  -4 558.263 342.056   7
  15  -1  -3 350.766 418.581   5
  14   1  -3 1135.82 485.664   5
   1  14  -3-138.629 364.009   3
  -1  15  -3 565.946 409.176   3
 -15   1  -3 786.872 432.423   7
 -14  -1  -3 117.568 374.413   7
  -1 -14  -3 337.745 381.809   7
  15  -1  -2 895.968 442.524   5
  14   1  -2 1410.00 531.263   5
   1  14  -2 2248.91 581.017   3
  -1  15  -2 1617.58 588.997   4
 -15   1  -2 2073.90 640.597   7
 -14  -1  -2 1672.39 619.905   7
 -14  15  -2 1640.99 523.456   4
  15  -1  -1 549.419 453.266   5
  14   1  -1-372.462 404.850   5
  -1  15  -1-278.373 428.448   4
 -15   1  -1-256.409 453.975   7
 -14  -1  -1 164.124 446.452   7
 -14  15  -1 210.388 451.171   4
 -15  14  -1 354.617 449.754   4
  15  -1   0 5143.68 787.868   5
  14   1   0 5176.15 833.590   5
  -1  15   0 3077.60 585.059   4
 -15   1   0 5521.42 915.778   7
 -14  -1   0 5235.92 932.337   7
 -14  15   0 5672.47 918.950   4
 -15  14   0 3031.51 659.171   4
  15  -1   1-438.849 437.118   5
 -14  -1   1 337.351 432.840   7
 -14  15   1-214.044 511.453   4
 -15  14   1-968.865 653.302   4
 -14  15   2 558.367 482.436   4
 -14  15   3-911.443 488.293   4
 -14  15   4 49.6802 305.011   4
 -14  15   5-308.988 184.075   4
 -15  14   5-845.683 270.517   4
  15   0  -4 1566.87 392.681   5
   0  15  -4 859.205 350.778   3
   0 -15  -4 1060.35 344.098   7
  15   0  -3 1190.06 479.617   5
   0  15  -3 820.152 420.239   3
 -15   0  -3 1166.68 419.033   7
  15   0  -2 81.9787 352.491   5
   0  15  -2 480.706 404.019   3
 -15   0  -2 418.004 452.858   7
  15   0  -1-104.605 384.898   5
 -15   0  -1 446.941 451.643   7
 -15  15  -1-197.581 330.242   4
 -15  15   0 7441.34 918.304   4
 -15   0   0 7148.76 1042.11   7
  15   0   0 7824.49 931.288   5
  15   0   1 121.157 402.315   5
 -15  15   1 57.9403 477.207   4
  15   0   2 193.465 335.609   5
 -15  15   2-648.676 524.242   4
 -15  15   3 104.281 395.005   4
 -15  15   4 463.562 227.148   4
   8   8  -5-26.1419 195.224   3
  -8  -8  -5 739.791 447.464   7
  -8  16  -4 7272.71 914.183   4
  -8  -8  -4 7215.20 1015.44   7
   8   8  -4 6589.08 684.989   3
   8   8  -4 7243.00 747.868   5
   8   8  -3 377.666 340.424   3
   8   8  -3 52.7464 372.688   5
  -8  16  -3 767.884 526.348   4
  -8  -8  -3 150.076 543.694   7
   8   8  -2 1684.98 470.411   5
  -8  16  -2 1697.82 656.803   4
  -8  -8  -2 2017.97 678.661   7
  -8  -8  -1 83.0507 463.630   7
  -8  16  -1-160.179 438.853   4
  -8  -8   0 1034.12 511.658   7
  -8  16   0 948.322 468.081   4
  -8  -8   1 271.692 461.519   7
  -8  16   1 917.224 614.363   4
  -8  16   2 3172.06 690.465   4
  -8  16   3 248.967 377.947   4
   7   9  -5 692.633 258.547   3
  -9  -7  -5 1002.34 477.701   7
  -7  -9  -5 1484.33 540.262   7
   9   7  -5 770.493 240.962   3
   9   7  -4 2469.63 440.535   3
   7   9  -4 3056.58 553.098   3
   9   7  -4 2982.26 555.884   5
  -7  16  -4 3808.92 678.944   4
  -9  16  -4 3373.71 640.195   4
  -9  -7  -4 2984.04 748.140   7
  -7  -9  -4 2366.15 646.569   7
   7   9  -3 110.654 321.682   3
   7   9  -3 596.124 345.867   5
   9   7  -3 313.136 346.344   5
  -7  16  -3 1177.81 478.538   3
  -7  16  -3 278.075 437.699   4
  -9  16  -3 916.470 481.964   4
  -9  -7  -3 987.961 598.680   7
  -7  -9  -3 1227.68 578.296   7
  -7  16  -2 5947.58 929.550   4
  -9  -7  -2 5773.02 1048.04   7
  -9  16  -2 5876.40 899.736   4
  -7  -9  -2 6155.43 984.797   7
   7   9  -2 5413.70 726.549   3
   7   9  -2 6708.18 860.876   5
   9   7  -2 6105.88 867.269   5
  -9  -7  -1 4000.94 841.177   7
  -7  -9  -1 3855.25 793.096   7
  -7  16  -1 3599.50 821.381   4
  -9  16  -1 3367.64 686.970   4
  -9  -7   0 634.924 488.884   7
  -7  -9   0 449.275 384.277   7
  -7  16   0 1095.67 544.336   4
  -9  16   0 1582.87 729.284   4
  -9  -7   1 4285.32 783.073   7
  -7  -9   1 3397.08 689.399   7
  -7  16   1 2920.58 663.088   4
  -9  16   1 4025.71 859.342   4
  -7  16   2 6165.09 884.456   4
  -9  16   2 6602.52 930.638   4
  -9  -7   2 6112.00 899.431   7
  -9  16   3 1153.48 481.771   4
   6  10  -5 663.084 259.577   3
  16  -6  -5 490.290 233.632   5
  10   6  -5 644.273 246.346   5
 -10  -6  -5 928.584 418.573   7
  -6 -10  -5 1019.80 420.466   7
   6  10  -4 3694.21 617.281   3
  16  -6  -4 2360.45 446.549   5
  -6  16  -4 2353.01 462.355   3
  10   6  -4 3273.51 590.589   5
  -6  16  -4 3015.85 663.917   4
 -10  16  -4 3246.24 589.737   4
 -10  -6  -4 3545.94 753.673   7
  -6 -10  -4 2125.90 593.651   7
   6  10  -3 1006.66 432.650   3
  10   6  -3 561.763 424.776   5
  -6  16  -3 618.807 389.931   3
  -6  16  -3 1197.81 550.867   4
 -10  16  -3 1721.39 548.417   4
 -10  -6  -3 870.557 573.961   7
  -6 -10  -3 1144.73 576.416   7
   6  10  -2 1941.69 521.946   3
   6  10  -2 2914.88 577.301   5
  10   6  -2 2604.63 636.985   5
  -6  16  -2 2408.26 763.667   4
 -10  -6  -2 2171.75 694.043   7
  -6 -10  -2 2520.39 670.857   7
 -10  16  -2 2328.14 602.704   4
   6  10  -1 4485.07 673.024   3
  10   6  -1 5768.67 937.656   5
 -10  -6  -1 4900.87 917.573   7
  -6  16  -1 4674.01 811.530   4
  -6 -10  -1 5139.28 867.844   7
 -10  16  -1 4185.69 771.781   4
 -10  -6   0 457.488 458.900   7
  -6 -10   0 733.665 460.668   7
  -6  16   0 774.016 471.471   4
 -10  16   0 2182.15 735.932   4
 -10  -6   1 4477.44 814.148   7
  -6  16   1 4402.65 773.653   4
 -10  16   1 4689.60 867.024   4
 -10  -6   2 1698.90 541.373   7
  -6  16   2 2477.74 556.987   4
 -10  16   2 2288.34 661.102   4
 -10  16   3 775.011 431.719   4
 -10  16   4 3010.83 484.475   4
   5  11  -5 1025.75 299.274   3
  16  -5  -5 1085.47 289.012   5
  11   5  -5 829.957 254.945   5
 -11  -5  -5 459.757 337.246   7
  -5 -11  -5 641.289 328.621   7
   5  11  -4 3399.52 581.662   3
  16  -5  -4 3049.02 513.041   5
  11   5  -4 2746.27 564.432   5
  -5  16  -4 3473.22 520.396   3
 -11  -5  -4 3453.17 747.393   7
  -5 -11  -4 2968.23 642.818   7
  16  -5  -3 1094.64 406.512   5
   5  11  -3 947.987 436.785   3
  11   5  -3 702.730 401.349   5
  -5  16  -3 1028.44 419.066   3
  -5  16  -3 687.581 497.837   4
 -11  16  -3 1196.33 449.009   4
 -11  -5  -3 740.285 540.590   7
  -5 -11  -3 181.441 381.768   7
   5  11  -2 1472.49 465.174   3
  11   5  -2 2173.45 679.374   5
  -5  16  -2 2274.98 643.595   4
 -11  -5  -2 1425.77 633.043   7
  -5 -11  -2 1549.95 604.792   7
 -11  16  -2 895.561 444.192   4
   5  11  -1 981.310 416.094   3
  11   5  -1 1581.68 649.834   5
 -11  -5  -1-231.700 523.183   7
  -5  16  -1 479.226 516.018   4
  -5 -11  -1 649.998 436.532   7
 -11  16  -1 119.295 440.477   4
 -11  -5   0 3699.41 784.195   7
  -5  16   0 3473.28 681.397   4
 -11  16   0 5108.00 929.492   4
 -11  -5   1 442.813 464.219   7
  -5  16   1 769.953 408.973   4
 -11  16   1 1116.73 623.245   4
 -11  16   2 1432.68 535.794   4
 -11  16   3 1143.53 427.306   4
 -11  16   4 2998.03 465.801   4
   4  12  -5 478.257 222.484   3
  16  -4  -5 1028.17 266.040   5
  12   4  -5 336.547 226.169   5
   4  12  -4 895.750 351.538   3
  16  -4  -4 227.390 273.598   5
  12   4  -4 1091.00 429.433   5
  -4  16  -4 253.481 266.323   3
 -12  -4  -4 478.231 424.966   7
  -4 -12  -4 381.038 329.633   7
  16  -4  -3-132.293 302.339   5
   4  12  -3-498.788 390.236   3
  12   4  -3-347.131 469.829   5
  -4  16  -3 314.969 349.371   3
  -4  16  -3 221.564 422.719   4
 -12  16  -3 528.451 423.657   4
 -12  -4  -3-524.755 474.004   7
  -4 -12  -3 824.372 464.379   7
  16  -4  -2 4273.44 662.178   5
   4  12  -2 4034.12 692.805   3
  12   4  -2 4556.96 826.401   5
  -4  16  -2 3350.16 689.165   4
 -12  -4  -2 4700.43 920.935   7
  -4 -12  -2 4008.00 763.006   7
 -12  16  -2 4287.40 730.535   4
  12   4  -1 967.455 578.884   5
  -4  16  -1 225.052 421.068   4
 -12  -4  -1-63.6508 519.769   7
  -4 -12  -1 683.328 442.555   7
 -12  16  -1 203.891 402.578   4
 -12  -4   0 3419.99 791.451   7
  -4  16   0 4536.34 767.731   4
 -12  16   0 4467.61 843.023   4
 -12  -4   1 456.771 465.993   7
  -4  16   1-239.095 404.755   4
 -12  16   1 488.914 503.529   4
 -12  16   2 3292.82 703.950   4
 -12  16   3 218.039 337.999   4
 -12  16   4 345.599 264.976   4
   3  13  -5 261.922 187.739   3
  13   3  -5-104.871 183.370   5
  16  -3  -4 738.026 331.065   5
   3  13  -4 52.2772 286.101   3
  13   3  -4 237.507 305.551   5
  -3  16  -4 193.927 264.462   3
 -13  -3  -4 371.271 352.343   7
  -3 -13  -4 182.971 320.463   7
  16  -3  -3-204.769 331.341   5
   3  13  -3 149.649 337.508   3
  13   3  -3 860.610 554.061   5
  -3  16  -3 386.590 410.530   3
 -13  -3  -3-143.400 416.336   7
  -3 -13  -3 706.295 407.301   7
  16  -3  -2 3391.02 615.845   5
  13   3  -2 4161.89 788.514   5
   3  13  -2 4498.05 684.386   3
  -3  16  -2 3530.20 701.280   4
 -13  -3  -2 4552.43 891.018   7
  -3 -13  -2 4273.55 715.574   7
 -13  16  -2 3579.42 618.305   4
  16  -3  -1 210.663 338.326   5
  13   3  -1 588.852 514.343   5
  -3  16  -1-37.2171 386.930   4
 -13  -3  -1 85.7952 447.738   7
 -13  16  -1 1503.05 564.673   4
  13   3   0 4705.40 801.632   5
 -13  -3   0 3821.93 775.096   7
  -3  16   0 3995.05 657.287   4
 -13  16   0 5290.69 875.227   4
 -16  13   0 4445.92 786.387   4
 -13  -3   1 184.412 387.144   7
 -13  16   1-327.667 511.368   4
 -13  16   2 4809.63 807.416   4
 -13  16   3 249.991 337.458   4
 -13  16   4 44.7359 226.424   4
   2  14  -4 304.850 253.281   3
  16  -2  -4 426.676 265.418   5
  14   2  -4-230.719 296.400   5
  -2  16  -4 101.229 239.663   3
 -14  -2  -4-336.741 341.503   7
  -2 -14  -4 132.744 309.700   7
  16  -2  -3 698.644 361.708   5
  14   2  -3 960.212 454.803   5
   2  14  -3 762.163 382.142   3
  -2  16  -3 692.667 363.633   3
 -14  -2  -3 1070.49 458.888   7
  -2 -14  -3 1263.06 460.457   7
  16  -2  -2 2013.06 506.527   5
  14   2  -2 2201.53 587.568   5
   2  14  -2 2956.58 593.561   3
  -2  16  -2 2116.21 586.341   4
 -16   2  -2 3630.23 717.315   7
 -14  -2  -2 2669.66 742.689   7
 -14  16  -2 2421.02 524.061   4
  16  -2  -1 859.651 407.089   5
  14   2  -1 928.146 457.083   5
  -2  16  -1 769.786 384.531   4
 -14  -2  -1 894.467 542.985   7
 -14  16  -1 468.294 389.709   4
  16  -2   0 4130.27 615.121   5
  14   2   0 4646.79 745.787   5
 -14  16   0 5603.57 887.289   4
  -2  16   0 3261.33 601.053   4
 -14  -2   0 4282.81 820.982   7
 -16  14   0 4137.94 734.142   4
  14   2   1 906.099 504.591   5
 -14  16   1 922.584 493.731   4
 -16  14   1 99.3640 421.133   4
 -14  16   2 2210.06 597.591   4
 -14  16   3 396.948 327.622   4
 -14  16   4-23.1569 209.228   4
   1  15  -4 1134.29 310.956   3
  16  -1  -4 1326.22 329.584   5
  -1  16  -4 686.499 271.579   3
  15   1  -4 1058.17 324.664   5
  16  -1  -3 174.303 270.506   5
  15   1  -3 26.6957 292.958   5
   1  15  -3 787.536 342.944   3
  -1  16  -3 196.769 270.878   3
 -15  -1  -3 759.581 425.801   7
  16  -1  -2 548.312 346.657   5
  15   1  -2 99.8389 347.236   5
   1  15  -2 665.058 378.735   3
  -1  16  -2 498.203 355.741   3
 -16   1  -2 1366.77 503.679   7
 -15  -1  -2 411.964 399.189   7
  16  -1  -1 1052.06 449.815   5
  15   1  -1 206.679 357.495   5
 -15  -1  -1 276.516 427.722   7
 -15  16  -1-209.592 439.492   4
  16  -1   0 4966.79 717.289   5
  15   1   0 5562.58 777.952   5
 -15  -1   0 4983.51 844.546   7
 -15  16   0 4913.44 765.193   4
 -16  15   0 4467.68 725.433   4
  16  -1   1 475.347 300.668   5
  15   1   1 182.715 386.007   5
 -15  16   1 816.602 491.919   4
 -16  15   1 424.542 404.789   4
  15   1   2 1142.38 455.831   5
 -15  16   2 712.261 440.013   4
 -16  15   2 358.107 386.568   4
 -15  16   3 120.357 281.411   4
 -16  15   3-428.765 366.927   4
 -15  16   4 550.338 220.287   4
 -16  15   4 612.066 243.097   4
  16   0  -3 671.338 306.415   5
   0  16  -3 308.585 227.320   3
  16   0  -2 303.338 328.869   5
   0  16  -2 967.601 348.042   3
 -16   0  -2 846.208 404.650   7
  16   0  -1 243.814 361.417   5
 -16  16  -1 341.793 376.597   4
  16   0   0 5237.39 729.835   5
 -16  16   0 4620.01 667.226   4
  16   0   1 23.9731 316.930   5
 -16  16   1 135.718 372.131   4
 -16  16   2 388.888 332.744   4
 -16  16   3 399.364 243.316   4
  -9  -8  -5 141.652 252.120   7
  -8  -9  -5 25.9819 262.107   7
   8   9  -4 965.158 270.646   3
   9   8  -4 930.145 297.481   5
  -9  17  -4 1672.49 440.077   4
  -9  -8  -4 1368.09 529.934   7
  -8  -9  -4 1402.66 520.068   7
   8   9  -3 323.739 327.574   5
   9   8  -3 417.378 341.420   5
  -8  17  -3-332.681 411.626   4
  -9  17  -3-73.6505 372.661   4
  -9  -8  -3 382.905 439.534   7
  -8  -9  -3 57.5396 425.751   7
   8   9  -2 4079.00 641.517   5
   9   8  -2 3269.51 635.412   5
  -8  17  -2 2638.66 604.337   4
  -9  17  -2 3127.75 640.928   4
  -9  -8  -2 3259.65 747.778   7
  -8  -9  -2 3412.10 778.695   7
   8   9  -1 1878.76 522.202   5
   9   8  -1 1402.91 547.165   5
  -9  -8  -1 782.106 456.906   7
  -8  -9  -1 854.420 500.134   7
  -8  17  -1 931.537 496.103   4
  -9  17  -1 600.926 458.844   4
  -9  -8   0 508.691 382.463   7
  -8  -9   0 757.615 404.592   7
  -8  17   0 1444.40 595.962   4
  -9  17   0 1116.58 475.834   4
  -9  -8   1 726.517 436.166   7
  -8  -9   1 291.311 304.687   7
  -8  17   1 1443.33 535.704   4
  -9  17   1 1090.42 522.579   4
  -8  17   2 2615.89 557.244   4
  -9  17   2 3131.13 661.761   4
  -8  17   3 112.711 254.185   4
  -9  17   3 249.197 315.046   4
 -10  -7  -5 182.442 284.228   7
  -7 -10  -5 202.948 257.400   7
   7  10  -4 2781.50 423.036   3
  10   7  -4 2210.50 408.150   5
 -10  17  -4 3293.97 529.091   4
 -10  -7  -4 3635.73 682.461   7
  -7 -10  -4 2787.60 606.723   7
   7  10  -3-304.357 259.620   3
  10   7  -3-131.061 297.354   5
  -7  17  -3 466.106 333.000   3
  -7  17  -3 126.805 381.866   4
 -10  17  -3 41.6008 309.095   4
 -10  -7  -3 290.373 467.183   7
  -7 -10  -3 197.895 436.081   7
   7  10  -2 2713.19 531.338   5
  10   7  -2 2633.41 592.399   5
  -7  17  -2 3084.10 713.990   4
 -10  -7  -2 3019.54 738.305   7
 -10  17  -2 3222.86 654.108   4
  -7 -10  -2 3202.25 708.424   7
   7  10  -1 1302.70 483.462   5
  10   7  -1 1145.44 536.245   5
 -10  -7  -1 1028.60 558.280   7
  -7 -10  -1 985.035 458.994   7
  -7  17  -1 378.249 413.862   4
 -10  17  -1 602.885 457.292   4
 -10  -7   0-353.693 400.879   7
  -7 -10   0 202.672 333.998   7
  -7  17   0 400.147 466.339   4
 -10  17   0 858.862 521.061   4
 -10  -7   1 645.642 407.350   7
  -7  17   1 653.017 460.412   4
 -10  17   1 1427.57 596.332   4
  -7  17   2 3073.57 545.234   4
 -10  17   2 3909.07 715.931   4
 -10  17   3 580.529 355.756   4
   6  11  -4 3371.05 467.830   3
  11   6  -4 2779.78 470.022   5
 -11  -6  -4 3924.45 687.595   7
  -6 -11  -4 2668.56 551.507   7
   6  11  -3 5.88247 313.221   3
  11   6  -3 386.691 319.661   5
  -6  17  -3-228.158 243.377   3
  -6  17  -3 97.3287 367.715   4
 -11  17  -3 228.103 288.432   4
 -11  -6  -3-92.3219 396.298   7
  -6 -11  -3 242.750 390.540   7
   6  11  -2 2767.80 508.088   3
  11   6  -2 2961.94 646.705   5
  -6  17  -2 1695.52 547.022   4
 -11  -6  -2 2709.45 708.664   7
 -11  17  -2 2926.28 614.956   4
  -6 -11  -2 2067.63 600.747   7
   6  11  -1 3088.63 571.300   5
  11   6  -1 2979.32 671.734   5
 -11  -6  -1 2278.38 688.440   7
  -6  17  -1 2584.27 625.560   4
  -6 -11  -1 2010.72 591.076   7
 -11  17  -1 3244.66 691.642   4
 -11  -6   0 301.937 437.314   7
  -6  17   0 349.390 438.466   4
 -11  17   0 1221.36 559.589   4
 -11  -6   1 2243.03 565.438   7
  -6  17   1 1517.54 511.699   4
 -11  17   1 2460.34 684.334   4
  -6  17   2 2595.53 479.385   4
 -11  17   2 2976.50 688.066   4
 -11  17   3 802.750 389.483   4
 -11  17   4 2612.07 362.337   4
   5  12  -4 2306.25 397.824   3
  17  -5  -4 1700.55 306.893   5
  -5  17  -4 1518.90 329.271   3
  12   5  -4 2116.73 401.972   5
 -12  -5  -4 2589.63 545.225   7
  -5 -12  -4 2966.35 542.632   7
   5  12  -3-60.4490 285.411   3
  12   5  -3 467.062 427.288   5
  -5  17  -3 43.3739 248.135   3
  -5  17  -3 530.997 401.100   4
 -12  17  -3 607.217 300.321   4
 -12  -5  -3 272.568 412.788   7
  -5 -12  -3 1205.58 484.240   7
   5  12  -2 978.606 389.477   3
  12   5  -2 1454.14 499.301   5
  -5  17  -2 1379.15 497.412   4
 -12  -5  -2 1228.36 538.011   7
  -5 -12  -2 1619.56 514.453   7
 -12  17  -2 1646.84 448.007   4
   5  12  -1 1399.44 456.320   3
  12   5  -1 1587.76 559.344   5
  -5  17  -1 1626.40 556.229   4
 -12  -5  -1-43.0736 445.539   7
  -5 -12  -1 1292.53 451.454   7
 -12  17  -1 1843.48 523.198   4
  12   5   0 3940.49 760.815   5
 -12  -5   0 3067.87 689.063   7
  -5  17   0 3159.56 618.591   4
 -12  17   0 4799.42 875.629   4
 -12  -5   1 1373.25 512.431   7
  -5  17   1 1190.62 408.378   4
 -12  17   1 2000.66 627.971   4
 -12  17   2 1561.76 545.412   4
 -12  17   3 449.924 345.927   4
 -12  17   4 2218.41 336.088   4
   4  13  -4 213.550 238.133   3
  17  -4  -4 390.308 203.721   5
  -4  17  -4-78.5547 228.330   3
  13   4  -4 269.516 230.270   5
 -13  -4  -4 461.532 338.006   7
  -4 -13  -4 502.439 296.445   7
  17  -4  -3 281.731 250.394   5
   4  13  -3-138.269 329.598   3
  13   4  -3 253.429 378.559   5
  -4  17  -3 248.157 296.797   3
 -13  -4  -3-248.048 448.673   7
  -4 -13  -3 307.738 363.397   7
   4  13  -2 2163.22 475.859   3
  13   4  -2 3221.65 649.088   5
  -4  17  -2 2270.38 556.051   4
 -13  -4  -2 2323.93 632.356   7
  -4 -13  -2 2217.24 526.394   7
 -13  17  -2 2161.68 499.287   4
   4  13  -1 126.707 283.362   3
  13   4  -1 459.093 406.663   5
  -4  17  -1 431.051 417.499   4
 -13  -4  -1 324.752 480.537   7
 -13  17  -1-304.080 460.891   4
  13   4   0 4663.54 753.888   5
 -13  -4   0 3875.22 738.199   7
  -4  17   0 3822.03 646.152   4
 -13  17   0 4254.02 788.536   4
 -13  -4   1-94.3103 381.305   7
 -13  17   1 160.059 418.360   4
 -17  13   1-147.052 338.274   4
 -13  17   2 2747.34 645.633   4
 -13  17   3 99.6233 281.502   4
 -13  17   4 587.828 209.396   4
   3  14  -4 454.939 237.205   3
  14   3  -4 223.355 217.701   5
  17  -3  -3-259.153 253.978   5
   3  14  -3-176.962 271.468   3
  14   3  -3 153.104 322.895   5
  -3  17  -3 171.130 277.075   3
 -14  -3  -3 74.6921 330.212   7
  -3 -14  -3 100.331 286.819   7
  17  -3  -2 1977.31 437.731   5
   3  14  -2 1628.07 407.814   3
  14   3  -2 2126.36 510.409   5
  -3  17  -2 2035.17 463.070   3
 -14  -3  -2 2420.46 613.880   7
 -14  17  -2 1225.88 378.613   4
  14   3  -1 232.414 347.327   5
   3  14  -1 152.052 316.950   3
  -3  17  -1-204.600 352.579   4
 -14  -3  -1 40.7936 413.638   7
 -14  17  -1 163.563 331.802   4
  14   3   0 3333.86 649.548   5
  -3  17   0 2413.38 502.365   4
 -14  -3   0 3509.39 697.697   7
 -14  17   0 3795.02 723.752   4
 -17  14   0 2798.13 589.580   4
  14   3   1-137.277 364.900   5
 -14  17   1 547.524 464.001   4
 -17  14   1 187.175 289.845   4
 -14  17   2 2799.34 583.668   4
 -17  14   2 1293.55 414.206   4
 -14  17   3 100.675 254.149   4
 -17  14   3-640.250 362.188   4
 -14  17   4 464.100 183.576   4
 -17  14   4-250.335 225.862   4
  17  -2  -3 325.402 231.898   5
   2  15  -3-389.910 263.362   3
  15   2  -3-152.449 291.476   5
  -2  17  -3-79.4076 242.276   3
 -15  -2  -3 649.705 373.079   7
  17  -2  -2 1468.15 382.333   5
  15   2  -2 1865.51 464.277   5
   2  15  -2 1538.99 391.563   3
  -2  17  -2 1532.36 388.813   3
 -15  -2  -2 1499.55 515.558   7
  17  -2  -1-221.994 293.561   5
  15   2  -1-190.835 313.488   5
   2  15  -1 868.987 339.849   3
 -15  -2  -1 234.114 415.113   7
 -15  17  -1-99.1905 321.994   4
  15   2   0 1809.10 498.184   5
 -15  17   0 1548.17 465.851   4
 -17  15   0 1222.02 378.663   4
  15   2   1 162.218 379.319   5
 -15  17   1 527.447 426.636   4
 -17  15   1-266.872 315.348   4
  15   2   2 1840.55 491.049   5
 -15  17   2 2055.03 511.017   4
 -17  15   2 1195.98 395.942   4
 -15  17   3 210.873 264.894   4
 -17  15   3 105.177 223.863   4
   1  16  -3 363.746 215.732   3
  16   1  -3-265.939 226.015   5
  -1  17  -3-271.854 219.560   3
  17  -1  -2 201.211 254.083   5
  16   1  -2 432.023 276.826   5
   1  16  -2 172.618 223.316   3
  -1  17  -2 348.209 242.550   3
  17  -1  -1 110.848 281.693   5
  16   1  -1 394.884 342.306   5
   1  16  -1 362.960 240.719   3
  -1  17  -1 874.296 327.585   3
 -16  17  -1-124.936 231.954   4
  17  -1   0 4082.75 566.241   5
  16   1   0 4967.07 689.663   5
 -16  17   0 4195.28 594.267   4
 -17  16   0 2698.44 463.815   4
  16   1   1 213.290 331.898   5
 -16  17   1 126.753 310.735   4
 -17  16   1-317.403 284.177   4
 -16  17   2 721.598 342.013   4
 -17  16   2 38.8821 249.370   4
 -16  17   3 421.464 222.977   4
 -17  16   3 15.2874 192.258   4
   0  17  -2 186.583 166.898   3
  17   0  -1 194.348 255.020   5
   0  17  -1 430.757 257.102   3
  17   0   0 3425.04 525.590   5
 -17  17   0 2989.59 416.674   4
 -17  17   1 157.167 224.155   4
 -17  17   2 268.657 220.462   4
  -9  -9  -4 492.129 305.770   7
   9   9  -3 174.390 203.302   5
  -9  18  -3-401.341 322.569   4
  -9  -9  -3-154.068 322.468   7
   9   9  -2 258.452 272.780   5
  -9  18  -2 766.542 416.157   4
  -9  -9  -2 884.863 446.074   7
   9   9  -1-130.260 318.288   5
  -9  -9  -1-146.927 335.954   7
  -9  18  -1 59.2818 359.016   4
  -9  18   0 8022.82 926.320   4
  -9  -9   0 7446.78 838.601   7
  -9  18   1-119.322 335.936   4
  -9  18   2 1375.32 394.940   4
 -10  -8  -4 403.853 297.121   7
  -8 -10  -4 515.900 325.632   7
  10   8  -3 244.921 280.692   5
  -8  18  -3 410.253 351.567   4
 -10  18  -3 280.680 283.098   4
 -10  -8  -3-292.024 398.395   7
  -8 -10  -3 260.719 349.431   7
   8  10  -2 3796.82 516.445   5
  10   8  -2 2903.53 505.196   5
  -8  18  -2 3313.14 482.210   3
  -8  18  -2 3188.43 607.392   4
 -10  18  -2 3755.02 630.862   4
 -10  -8  -2 4014.61 714.145   7
  -8 -10  -2 3366.73 618.225   7
   8  10  -1 632.367 344.623   5
  10   8  -1 397.603 355.948   5
 -10  -8  -1 573.622 384.735   7
  -8 -10  -1 288.697 322.625   7
  -8  18  -1 743.764 439.759   4
 -10  18  -1 388.268 396.981   4
  10   8   0 2414.06 585.542   5
 -10  -8   0 844.072 420.812   7
  -8 -10   0 1372.29 409.694   7
  -8  18   0 1213.98 480.480   4
 -10  18   0 1265.19 487.243   4
 -10  -8   1 818.219 393.478   7
  -8  18   1 495.250 376.705   4
 -10  18   1 829.230 437.651   4
  -8  18   2 4032.49 547.758   4
 -10  18   2 3676.32 607.263   4
 -10  18   3 21.6258 212.658   4
 -11  -7  -4 666.563 349.901   7
  -7 -11  -4 986.030 332.393   7
  11   7  -3 680.837 337.408   5
  -7  18  -3 681.251 386.872   4
 -11  18  -3-48.4263 247.906   4
 -11  -7  -3-209.261 330.884   7
  -7 -11  -3 163.988 335.669   7
  11   7  -2 1872.06 447.428   5
  -7  18  -2 2068.05 400.947   3
  -7  18  -2 1497.16 437.967   4
 -11  -7  -2 2727.92 647.931   7
 -11  18  -2 2372.22 503.806   4
  -7 -11  -2 2093.40 521.021   7
   7  11  -1 499.204 257.228   5
  11   7  -1 239.805 369.233   5
 -11  -7  -1-187.349 376.661   7
  -7  18  -1 342.488 403.141   4
  -7 -11  -1 614.144 367.962   7
 -11  18  -1 425.789 360.277   4
  11   7   0 1312.12 492.182   5
   7  11   0 1857.82 459.307   5
 -11  -7   0 570.648 375.942   7
  -7  18   0 989.879 446.563   4
 -11  18   0 193.792 375.462   4
 -11  -7   1 226.991 304.175   7
  -7  18   1-251.083 346.672   4
 -11  18   1 332.395 403.579   4
 -11  18   2 1701.36 445.532   4
 -11  18   3 35.7036 206.952   4
   6  12  -3 196.018 211.131   3
  12   6  -3 639.159 324.499   5
  -6  18  -3 31.8492 187.189   3
 -12  18  -3-177.394 254.776   4
 -12  -6  -3 267.859 357.003   7
  -6 -12  -3 535.231 331.422   7
   6  12  -2 1123.18 308.533   3
  12   6  -2 1313.92 419.371   5
  -6  18  -2 1720.08 394.064   3
  -6  18  -2 1308.16 418.518   4
 -12  -6  -2 1648.71 518.902   7
 -12  18  -2 1768.27 442.573   4
  -6 -12  -2 1171.97 383.565   7
  12   6  -1-260.084 327.552   5
  -6  18  -1-203.412 350.157   4
 -12  -6  -1 422.186 412.975   7
 -12  18  -1 121.318 325.919   4
  12   6   0 739.776 456.578   5
 -12  -6   0 201.754 340.384   7
  -6  18   0-482.261 369.782   4
 -12  18   0 219.485 391.090   4
  -6  18   1 364.943 312.154   4
 -12  18   1 34.8261 377.257   4
 -12  18   2 2157.85 485.037   4
 -12  18   3 367.773 242.168   4
   5  13  -3 808.222 258.339   3
  13   5  -3 513.900 305.906   5
  -5  18  -3 233.021 199.502   3
 -13  -5  -3 965.301 427.984   7
  -5 -13  -3 599.519 323.618   7
   5  13  -2 1192.95 306.697   3
  13   5  -2 898.377 357.013   5
  -5  18  -2 1422.64 358.947   3
  -5  18  -2 1671.00 447.110   4
 -13  -5  -2 1903.19 580.503   7
 -13  18  -2 1646.61 406.014   4
   5  13  -1 639.189 273.481   3
  13   5  -1-158.662 330.864   5
  -5  18  -1 436.251 353.101   4
 -13  -5  -1 670.611 450.562   7
 -13  18  -1-9.88163 298.271   4
  13   5   0 624.369 375.901   5
  -5  18   0 1083.24 368.329   4
 -13  -5   0 312.088 360.178   7
 -13  18   0 411.375 352.422   4
  13   5   1 636.016 354.681   5
 -13  18   1 1390.27 492.045   4
 -18  13   1 262.474 296.020   4
 -13  18   2 2025.30 480.822   4
 -18  13   2 1466.81 384.143   4
 -13  18   3 584.324 260.700   4
 -18  13   3 243.796 216.256   4
   4  14  -3-194.323 196.160   3
  14   4  -3 109.706 233.152   5
  -4  18  -3-0.28112 171.851   3
 -14  -4  -3 145.535 319.411   7
   4  14  -2 924.082 297.908   3
  14   4  -2 741.513 336.089   5
  -4  18  -2 542.954 298.624   3
 -14  -4  -2 88.6113 335.419   7
 -14  18  -2 1067.37 326.314   4
   4  14  -1-294.642 286.353   3
  14   4  -1 185.438 316.892   5
  -4  18  -1 201.075 285.615   4
 -14  -4  -1 614.363 427.736   7
 -14  18  -1-128.099 313.552   4
  14   4   0 1755.48 472.131   5
  -4  18   0 1624.86 368.966   4
 -14  -4   0 1865.59 530.155   7
 -14  18   0 2154.49 503.181   4
  14   4   1-192.631 308.603   5
 -14  18   1 542.927 388.280   4
 -18  14   1-294.172 244.991   4
  14   4   2 126.435 301.342   5
 -18  14   2 86.6868 214.701   4
  14   4   3-142.731 235.170   5
 -14  18   3 185.431 190.244   4
 -18  14   3 24.8991 182.987   4
  15   3  -3 822.935 249.039   5
   3  15  -2 851.359 273.233   3
  15   3  -2 670.499 290.992   5
  -3  18  -2 648.880 271.670   3
 -15  -3  -2 1256.81 449.403   7
   3  15  -1-204.175 214.261   3
  15   3  -1 78.1175 265.520   5
 -15  -3  -1-20.8971 318.153   7
 -15  18  -1-258.511 262.375   4
   3  15   0 1122.12 274.778   3
  15   3   0 1708.60 439.034   5
 -15  18   0 748.160 335.209   4
  15   3   1-58.1617 315.905   5
 -15  18   1 477.972 340.919   4
 -18  15   1-163.753 213.212   4
  15   3   2 239.705 268.290   5
 -15  18   2 743.379 303.835   4
 -18  15   2 603.671 255.733   4
  16   2  -2 845.685 275.330   5
  -2  18  -2 614.447 238.130   3
  16   2  -1 253.315 223.292   5
   2  16  -1 168.009 178.668   3
  -2  18  -1 738.319 266.519   3
  16   2   0 2427.46 464.756   5
   2  16   0 1554.07 299.175   3
 -16  18   0 1738.56 375.216   4
  16   2   1 204.830 264.738   5
 -16  18   1 1165.66 347.305   4
 -16  18   2 1046.74 292.356   4
  -1  18   0 2942.90 361.468   3
  -9  19  -3 103.359 236.506   4
 -10  -9  -3-151.384 270.084   7
  -9 -10  -3-60.7550 244.655   7
  10   9  -2 678.442 251.975   5
  -9  19  -2 1037.24 356.307   4
 -10  19  -2 1195.26 354.757   4
 -10  -9  -2 585.702 323.556   7
  -9 -10  -2 78.8102 278.752   7
   9  10  -1 297.701 234.662   5
  10   9  -1 154.044 253.297   5
 -10  -9  -1 363.875 287.821   7
  -9 -10  -1 90.5130 264.966   7
  -9  19  -1 126.422 326.681   4
 -10  19  -1 363.065 323.022   4
  -9  19   0 6293.13 704.462   4
 -10  19   0 6363.79 714.130   4
  -9 -10   0 6555.40 666.116   7
 -10  -9   0 6613.03 711.973   7
   9  10   0 6440.37 672.970   5
  10   9   0 6442.45 710.993   5
  -9  19   1 182.453 274.886   4
 -10  19   1 389.621 291.986   4
  -9  19   2 903.252 266.195   4
 -10  19   2 495.172 241.507   4
 -11  -8  -3-469.320 306.773   7
  11   8  -2 1791.79 365.682   5
  -8  19  -2 1365.03 375.688   4
 -11  19  -2 1856.15 407.802   4
 -11  -8  -2 2041.44 452.379   7
  -8 -11  -2 1397.52 378.152   7
   8  11  -1-237.813 195.168   5
  11   8  -1 482.624 314.840   5
 -11  -8  -1 189.864 327.960   7
  -8  19  -1-219.632 292.951   4
  -8 -11  -1 111.363 276.619   7
 -11  19  -1 310.834 295.883   4
   8  11   0 2018.47 386.080   5
  11   8   0 2218.65 476.949   5
 -11  -8   0 1606.99 420.569   7
  -8  19   0 2037.25 463.200   4
 -11  19   0 1613.97 436.491   4
  11   8   1 195.336 301.234   5
   8  11   1 33.8054 249.184   5
  -8  19   1 474.878 291.788   4
 -11  19   1-106.840 297.012   4
 -11  19   2 1709.63 351.443   4
 -12  -7  -3 172.241 270.539   7
  12   7  -2 1598.61 363.187   5
  -7  19  -2 2045.47 431.796   4
 -12  -7  -2 2107.69 505.523   7
 -12  19  -2 1354.27 345.514   4
  -7 -12  -2 1289.28 323.686   7
  12   7  -1 48.5536 265.610   5
  -7  19  -1-55.3245 281.376   4
 -12  -7  -1 244.410 305.623   7
 -12  19  -1 107.059 277.347   4
  12   7   0 652.642 332.575   5
 -12  -7   0 53.6170 286.520   7
  -7  19   0 435.917 293.838   4
 -12  19   0 436.645 313.422   4
  12   7   1-96.7994 284.467   5
   7  12   1 198.471 231.361   5
  -7  19   1 241.316 244.706   4
 -12  19   1 42.1589 261.810   4
 -12  19   2 1809.37 355.498   4
  13   6  -2 863.424 303.468   5
  -6  19  -2 240.467 186.006   3
 -13  -6  -2 6.79295 293.750   7
 -13  19  -2 254.718 205.562   4
  13   6  -1-16.3111 247.712   5
  -6  19  -1 184.878 272.230   4
 -13  -6  -1-58.0917 293.143   7
 -13  19  -1 92.6527 257.493   4
  13   6   0 633.022 317.373   5
  -6  19   0 779.773 294.954   4
 -13  19   0 398.690 307.628   4
  13   6   1-136.994 278.341   5
 -13  19   1-379.792 273.513   4
  13   6   2 798.499 278.213   5
 -13  19   2 197.395 209.478   4
  14   5  -2 849.214 265.845   5
 -14  -5  -2 815.782 357.079   7
  14   5  -1 373.550 263.096   5
  -5  19  -1 693.396 266.255   3
 -14  -5  -1 149.064 294.304   7
 -14  19  -1 461.416 246.464   4
  14   5   0 177.316 259.883   5
 -14  19   0 611.759 322.111   4
  14   5   1 499.496 267.029   5
 -14  19   1 979.232 319.022   4
  14   5   2 985.945 267.458   5
 -14  19   2 586.967 240.168   4
  15   4  -1-99.6262 202.805   5
  -4  19  -1 333.739 211.289   3
  15   4   0 489.898 247.891   5
 -15  19   0 126.224 205.796   4
  15   4   1 342.271 250.694   5
 -15  19   1 256.386 236.334   4
 -10  20  -1 60.8887 211.333   4
 -10  20   0 6071.64 558.783   4
  10  10   0 6131.07 514.892   5
  10  10   1 113.046 178.897   5
  -9  20  -1-265.336 225.351   4
 -11  20  -1-188.051 222.284   4
  11   9   0 2479.91 383.715   5
  -9  20   0 2058.06 357.472   4
 -11  20   0 2611.17 396.227   4
  11   9   1 191.117 200.058   5
 -11  20   1-8.30053 172.304   4
  -8  20  -1-253.692 229.588   4
 -12  20  -1 29.8777 195.501   4
  12   8   0 2974.31 407.773   5
 -12  20   0 2054.62 358.581   4
  12   8   1-126.391 172.392   5
 -12  20   1 170.099 183.938   4
  13   7   0 615.131 233.673   5
 -13  20   0 581.127 231.340   4
   0   0   0    0.00    0.00   0
TITL FJU-56-NH3 in P6(3)mc
REM P6(3)mc (#186 in standard setting)
CELL 1.54184  16.331601  16.331601   7.570117  90.0000  90.0000 120.0000
ZERR   25.00   0.000741   0.000741   0.000308   0.0000   0.0000   0.0000
LATT -1
SYMM -y, x-y, z
SYMM -x+y,-x, z
SYMM -x,-y, z+1/2
SYMM  y,-x+y, z+1/2
SYMM  x-y, x, z+1/2
SYMM -y,-x, z
SYMM -x+y, y, z
SYMM  x, x-y, z
SYMM  y, x, z+1/2
SYMM  x-y,-y, z+1/2
SYMM -x,-x+y, z+1/2
SFAC C H N O Co
UNIT 25.00 25.00 25.00 25.00 25.00
TREF
HKLF 4
END
;
_shelx_hkl_checksum              19609
_shelx_fab_checksum              45749
_shelx_fab_file
;
   -1    2    0    -10.40      0.00
    0    2    0     20.06      0.00
   -1    3    0     -1.77      0.00
    0    3    0      8.32      0.00
   -2    4    0      4.08      0.00
    0    4    0     -3.77      0.00
   -2    5    0      2.54      0.00
   -1    5    0      7.40      0.00
    0    5    0     -3.53      0.00
   -3    6    0     -8.21      0.00
   -2    6    0      6.16      0.00
   -1    6    0     -2.94      0.00
    0    6    0      2.35      0.00
   -3    7    0     -3.14      0.00
   -2    7    0     -4.84      0.00
   -1    7    0      1.58      0.00
    0    7    0     -2.89      0.00
   -4    8    0     16.02      0.00
   -3    8    0     -2.47      0.00
   -2    8    0      4.52      0.00
   -1    8    0      1.60      0.00
    0    8    0     -2.80      0.00
   -4    9    0     -5.38      0.00
   -3    9    0     -2.11      0.00
   -2    9    0      0.01      0.00
   -1    9    0     -1.58      0.00
    0    9    0      3.58      0.00
   -5   10    0     -0.04      0.00
   -4   10    0      4.24      0.00
   -3   10    0     -0.69      0.00
   -2   10    0      0.41      0.00
   -1   10    0      0.06      0.00
    0   10    0      0.14      0.00
   -5   11    0     -0.88      0.00
   -4   11    0      1.04      0.00
   -3   11    0     -1.38      0.00
   -2   11    0      0.20      0.00
   -1   11    0     -1.36      0.00
    0   11    0     -0.69      0.00
   -6   12    0      1.22      0.00
   -5   12    0     -1.66      0.00
   -4   12    0      0.37      0.00
   -3   12    0      0.24      0.00
   -2   12    0      2.04      0.00
   -1   12    0      0.01      0.00
    0   12    0      1.46      0.00
   -6   13    0     -0.29      0.00
   -5   13    0      1.57      0.00
   -4   13    0     -0.93      0.00
   -3   13    0     -0.79      0.00
   -2   13    0     -0.62      0.00
   -1   13    0     -0.56      0.00
    0   13    0      0.28      0.00
   -7   14    0      0.61      0.00
   -6   14    0     -0.44      0.00
   -5   14    0     -0.58      0.00
   -4   14    0      0.91      0.00
   -3   14    0     -0.23      0.00
   -2   14    0      0.28      0.00
   -1   14    0     -0.32      0.00
    0   14    0     -0.06      0.00
   -7   15    0      0.45      0.00
   -6   15    0     -0.60      0.00
   -5   15    0      1.03      0.00
   -4   15    0     -0.33      0.00
   -3   15    0      0.02      0.00
   -2   15    0      0.84      0.00
   -1   15    0     -0.22      0.00
    0   15    0     -0.08      0.00
   -8   16    0     -0.07      0.00
   -7   16    0     -0.29      0.00
   -6   16    0     -0.41      0.00
   -5   16    0      0.03      0.00
   -4   16    0     -0.27      0.00
   -3   16    0     -0.18      0.00
   -2   16    0     -0.30      0.00
   -1   16    0      0.35      0.00
    0   16    0      0.21      0.00
   -8   17    0     -0.37      0.00
   -7   17    0      1.34      0.00
   -6   17    0     -0.68      0.00
   -5   17    0     -0.01      0.00
   -4   17    0      0.42      0.00
   -3   17    0     -0.18      0.00
   -2   17    0     -0.14      0.00
   -1   17    0     -0.23      0.00
    0   17    0     -0.43      0.00
   -9   18    0      0.60      0.00
   -8   18    0     -0.36      0.00
   -7   18    0      0.12      0.00
   -6   18    0     -0.05      0.00
   -5   18    0      0.52      0.00
   -4   18    0     -0.64      0.00
   -3   18    0      0.44      0.00
   -2   18    0      0.24      0.00
   -1   18    0      0.24      0.00
   -9   19    0     -0.11      0.00
   -8   19    0     -0.53      0.00
   -7   19    0      0.30      0.00
   -6   19    0     -0.25      0.00
   -5   19    0      0.36      0.00
   -4   19    0     -0.13      0.00
  -10   20    0     -0.43      0.00
   -9   20    0      0.53      0.00
   -8   20    0      0.29      0.00
   -7   20    0     -0.61      0.00
    0    2    1      2.77      0.00
   -1    3    1     -6.01      0.00
    0    3    1      1.95      0.00
   -1    4    1     -7.82      0.00
    0    4    1     20.01      0.00
   -2    5    1     -2.28      0.00
   -1    5    1     -1.28      0.00
    0    5    1     -9.03      0.00
   -2    6    1      4.12      0.00
   -1    6    1     -2.96      0.00
    0    6    1      4.22      0.00
   -3    7    1      3.74      0.00
   -2    7    1      0.12      0.00
   -1    7    1      1.85      0.00
    0    7    1      2.16      0.00
   -3    8    1     -3.99      0.00
   -2    8    1     -2.63      0.00
   -1    8    1     -0.88      0.00
    0    8    1     -5.31      0.00
   -4    9    1      3.22      0.00
   -3    9    1      2.26      0.00
   -2    9    1      1.46      0.00
   -1    9    1      2.77      0.00
    0    9    1      0.33      0.00
   -4   10    1     -1.12      0.00
   -3   10    1     -1.15      0.00
   -2   10    1     -0.54      0.00
   -1   10    1     -0.25      0.00
    0   10    1     -0.47      0.00
   -5   11    1     -0.40      0.00
   -4   11    1      0.08      0.00
   -3   11    1      0.08      0.00
   -2   11    1     -1.22      0.00
   -1   11    1      0.74      0.00
    0   11    1      0.23      0.00
   -5   12    1     -0.80      0.00
   -4   12    1      1.85      0.00
   -3   12    1      0.08      0.00
   -2   12    1      0.09      0.00
   -1   12    1     -0.09      0.00
    0   12    1     -1.36      0.00
   -6   13    1      1.11      0.00
   -5   13    1     -0.45      0.00
   -4   13    1     -0.95      0.00
   -3   13    1      0.17      0.00
   -2   13    1      0.68      0.00
   -1   13    1      0.16      0.00
    0   13    1      0.85      0.00
   -6   14    1     -0.33      0.00
   -5   14    1      0.13      0.00
   -4   14    1      0.13      0.00
   -3   14    1     -0.20      0.00
   -2   14    1     -0.74      0.00
   -1   14    1      0.18      0.00
    0   14    1     -0.02      0.00
   -7   15    1      0.09      0.00
   -6   15    1      0.20      0.00
   -5   15    1     -0.13      0.00
   -4   15    1      0.13      0.00
   -3   15    1      0.00      0.00
   -2   15    1      0.15      0.00
   -1   15    1     -0.42      0.00
    0   15    1     -0.10      0.00
   -7   16    1      0.12      0.00
   -6   16    1     -0.20      0.00
   -5   16    1      0.53      0.00
   -4   16    1     -0.10      0.00
   -3   16    1     -0.02      0.00
   -2   16    1      0.53      0.00
   -1   16    1      0.06      0.00
    0   16    1      0.06      0.00
   -8   17    1      0.46      0.00
   -7   17    1     -0.15      0.00
   -6   17    1     -0.52      0.00
   -5   17    1      0.09      0.00
   -4   17    1     -0.08      0.00
   -3   17    1     -0.06      0.00
   -2   17    1     -0.28      0.00
   -1   17    1      0.06      0.00
    0   17    1      0.28      0.00
   -8   18    1     -0.80      0.00
   -7   18    1      0.85      0.00
   -6   18    1     -0.29      0.00
   -5   18    1     -0.24      0.00
   -4   18    1      0.26      0.00
   -3   18    1     -0.24      0.00
   -2   18    1      0.17      0.00
   -9   19    1     -0.14      0.00
   -8   19    1      0.14      0.00
   -7   19    1      0.72      0.00
   -6   19    1     -0.57      0.00
   -5   19    1      0.90      0.00
   -4   19    1     -0.59      0.00
   -9   20    1      0.54      0.00
   -8   20    1     -1.21      0.00
    0    0    2    -17.87      0.00
    0    1    2      4.22      0.00
   -1    2    2     -0.29      0.00
    0    2    2      1.84      0.00
   -1    3    2     -1.89      0.00
    0    3    2     -5.97      0.00
   -2    4    2      5.42      0.00
   -1    4    2      0.85      0.00
    0    4    2      9.79      0.00
   -2    5    2     -1.03      0.00
   -1    5    2     -7.07      0.00
    0    5    2      2.73      0.00
   -3    6    2     -0.02      0.00
   -2    6    2      1.72      0.00
   -1    6    2     -1.06      0.00
    0    6    2      2.79      0.00
   -3    7    2      0.73      0.00
   -2    7    2      2.50      0.00
   -1    7    2     -3.01      0.00
    0    7    2      1.82      0.00
   -4    8    2     -4.01      0.00
   -3    8    2     -1.03      0.00
   -2    8    2      1.45      0.00
   -1    8    2     -2.06      0.00
    0    8    2      3.43      0.00
   -4    9    2      2.09      0.00
   -3    9    2     -0.47      0.00
   -2    9    2     -0.15      0.00
   -1    9    2     -0.18      0.00
    0    9    2     -1.40      0.00
   -5   10    2     -1.91      0.00
   -4   10    2      0.76      0.00
   -3   10    2     -0.88      0.00
   -2   10    2      1.34      0.00
   -1   10    2     -0.90      0.00
    0   10    2      0.76      0.00
   -5   11    2     -0.03      0.00
   -4   11    2      0.22      0.00
   -3   11    2     -0.29      0.00
   -2   11    2      0.70      0.00
   -1   11    2      0.20      0.00
    0   11    2      0.52      0.00
   -6   12    2      0.53      0.00
   -5   12    2     -0.74      0.00
   -4   12    2      0.21      0.00
   -3   12    2     -0.58      0.00
   -2   12    2     -0.91      0.00
   -1   12    2     -0.30      0.00
    0   12    2      0.06      0.00
   -6   13    2      0.82      0.00
   -5   13    2     -0.53      0.00
   -4   13    2      0.97      0.00
   -3   13    2      0.41      0.00
   -2   13    2      0.47      0.00
   -1   13    2     -0.11      0.00
    0   13    2     -0.20      0.00
   -7   14    2     -1.58      0.00
   -6   14    2      0.44      0.00
   -5   14    2     -0.30      0.00
   -4   14    2     -0.42      0.00
   -3   14    2     -0.29      0.00
   -2   14    2      0.18      0.00
   -1   14    2      0.14      0.00
    0   14    2     -0.19      0.00
   -7   15    2     -0.02      0.00
   -6   15    2      0.39      0.00
   -5   15    2     -0.51      0.00
   -4   15    2      0.24      0.00
   -3   15    2      0.36      0.00
   -2   15    2     -0.49      0.00
   -1   15    2      0.26      0.00
    0   15    2      0.26      0.00
   -8   16    2      0.87      0.00
   -7   16    2     -0.37      0.00
   -6   16    2      0.60      0.00
   -5   16    2      0.04      0.00
   -4   16    2     -0.24      0.00
   -3   16    2     -0.17      0.00
   -2   16    2     -0.04      0.00
   -1   16    2     -0.12      0.00
    0   16    2     -0.38      0.00
   -8   17    2     -0.01      0.00
   -7   17    2     -0.74      0.00
   -6   17    2      0.13      0.00
   -5   17    2     -0.01      0.00
   -4   17    2      0.28      0.00
   -3   17    2      0.24      0.00
   -2   17    2     -0.07      0.00
   -1   17    2      0.25      0.00
    0   17    2     -0.10      0.00
   -9   18    2     -0.64      0.00
   -8   18    2      0.51      0.00
   -7   18    2     -0.02      0.00
   -6   18    2      0.16      0.00
   -5   18    2     -0.30      0.00
   -4   18    2     -0.01      0.00
   -3   18    2      0.05      0.00
   -2   18    2      0.03      0.00
   -9   19    2      0.20      0.00
   -8   19    2      0.18      0.00
   -7   19    2     -0.27      0.00
   -6   19    2     -0.02      0.00
   -5   19    2     -0.05      0.00
    0    1    3     -2.60      0.00
    0    2    3      0.64      0.00
   -1    3    3     -0.88      0.00
    0    3    3      0.29      0.00
   -1    4    3      2.07      0.00
    0    4    3     -2.94      0.00
   -2    5    3      0.56      0.00
   -1    5    3     -1.66      0.00
    0    5    3      3.50      0.00
   -2    6    3      1.01      0.00
   -1    6    3     -0.89      0.00
    0    6    3      0.38      0.00
   -3    7    3     -0.99      0.00
   -2    7    3      0.10      0.00
   -1    7    3     -1.00      0.00
    0    7    3      1.58      0.00
   -3    8    3      0.40      0.00
   -2    8    3      0.96      0.00
   -1    8    3     -1.34      0.00
    0    8    3      0.61      0.00
   -4    9    3     -0.88      0.00
   -3    9    3     -0.48      0.00
   -2    9    3      1.23      0.00
   -1    9    3     -0.63      0.00
    0    9    3      1.03      0.00
   -4   10    3      0.21      0.00
   -3   10    3     -0.06      0.00
   -2   10    3     -0.78      0.00
   -1   10    3      0.18      0.00
    0   10    3     -0.29      0.00
   -5   11    3      0.02      0.00
   -4   11    3      0.38      0.00
   -3   11    3     -0.74      0.00
   -2   11    3      1.01      0.00
   -1   11    3     -0.71      0.00
    0   11    3     -0.27      0.00
   -5   12    3     -0.12      0.00
   -4   12    3      0.46      0.00
   -3   12    3      0.12      0.00
   -2   12    3      0.17      0.00
   -1   12    3      0.75      0.00
    0   12    3      0.15      0.00
   -6   13    3     -0.21      0.00
   -5   13    3     -0.47      0.00
   -4   13    3     -0.05      0.00
   -3   13    3     -0.40      0.00
   -2   13    3     -0.70      0.00
   -1   13    3     -0.22      0.00
    0   13    3      0.09      0.00
   -6   14    3      0.51      0.00
   -5   14    3      0.13      0.00
   -4   14    3     -0.12      0.00
   -3   14    3      0.56      0.00
   -2   14    3      0.15      0.00
   -1   14    3     -0.05      0.00
    0   14    3     -0.27      0.00
   -7   15    3     -0.01      0.00
   -6   15    3     -0.08      0.00
   -5   15    3     -0.02      0.00
   -4   15    3      0.43      0.00
   -3   15    3     -0.10      0.00
   -2   15    3     -0.04      0.00
   -1   15    3      0.28      0.00
    0   15    3     -0.09      0.00
   -7   16    3     -0.29      0.00
   -6   16    3      0.01      0.00
   -5   16    3     -0.17      0.00
   -4   16    3     -1.07      0.00
   -3   16    3      0.60      0.00
   -2   16    3     -0.27      0.00
   -1   16    3      0.03      0.00
    0   16    3      0.07      0.00
   -8   17    3      0.54      0.00
   -7   17    3     -0.35      0.00
   -6   17    3      0.48      0.00
   -5   17    3      0.38      0.00
   -4   17    3      0.35      0.00
   -3   17    3     -0.35      0.00
   -2   17    3     -0.16      0.00
   -1   17    3      0.19      0.00
   -8   18    3      0.32      0.00
   -7   18    3     -0.10      0.00
   -6   18    3     -0.20      0.00
   -5   18    3     -0.13      0.00
   -4   18    3      0.12      0.00
   -3   18    3      0.27      0.00
   -9   19    3     -0.51      0.00
   -8   19    3     -0.01      0.00
   -7   19    3     -0.45      0.00
    0    0    4     -1.63      0.00
    0    1    4     -0.05      0.00
   -1    2    4      1.42      0.00
    0    2    4     -0.14      0.00
   -1    3    4     -1.40      0.00
    0    3    4      0.27      0.00
   -2    4    4      2.56      0.00
   -1    4    4      0.33      0.00
    0    4    4     -0.15      0.00
   -2    5    4     -1.61      0.00
   -1    5    4      0.53      0.00
    0    5    4     -0.38      0.00
   -3    6    4      0.95      0.00
   -2    6    4      0.40      0.00
   -1    6    4     -0.52      0.00
    0    6    4      0.33      0.00
   -3    7    4     -0.16      0.00
   -2    7    4      0.28      0.00
   -1    7    4      0.45      0.00
    0    7    4     -0.51      0.00
   -4    8    4      0.11      0.00
   -3    8    4     -0.35      0.00
   -2    8    4     -0.50      0.00
   -1    8    4     -0.22      0.00
    0    8    4      1.02      0.00
   -4    9    4     -0.14      0.00
   -3    9    4      0.77      0.00
   -2    9    4      0.12      0.00
   -1    9    4     -0.48      0.00
    0    9    4     -0.26      0.00
   -5   10    4      0.11      0.00
   -4   10    4      0.07      0.00
   -3   10    4     -0.45      0.00
   -2   10    4      0.30      0.00
   -1   10    4      0.38      0.00
    0   10    4     -0.32      0.00
   -5   11    4      0.03      0.00
   -4   11    4     -0.76      0.00
   -3   11    4      0.64      0.00
   -2   11    4     -0.53      0.00
   -1   11    4      0.02      0.00
    0   11    4      0.47      0.00
   -6   12    4      0.20      0.00
   -5   12    4      0.18      0.00
   -4   12    4      0.49      0.00
   -3   12    4     -0.46      0.00
   -2   12    4      0.22      0.00
   -1   12    4      0.16      0.00
    0   12    4     -1.20      0.00
   -6   13    4     -0.31      0.00
   -5   13    4     -0.02      0.00
   -4   13    4      0.12      0.00
   -3   13    4     -0.21      0.00
   -2   13    4      0.08      0.00
   -1   13    4      0.43      0.00
    0   13    4      0.17      0.00
   -7   14    4     -0.03      0.00
   -6   14    4      0.27      0.00
   -5   14    4     -0.45      0.00
   -4   14    4      0.10      0.00
   -3   14    4      0.37      0.00
   -2   14    4     -0.46      0.00
   -1   14    4      0.19      0.00
    0   14    4     -0.04      0.00
   -7   15    4      0.15      0.00
   -6   15    4     -0.11      0.00
   -5   15    4      0.22      0.00
   -4   15    4      0.15      0.00
   -3   15    4     -0.63      0.00
   -2   15    4      0.05      0.00
   -1   15    4     -0.09      0.00
    0   15    4     -0.37      0.00
   -8   16    4     -0.58      0.00
   -7   16    4      0.30      0.00
   -6   16    4     -0.07      0.00
   -5   16    4     -0.27      0.00
   -4   16    4      0.07      0.00
   -3   16    4      0.93      0.00
   -2   16    4     -0.11      0.00
   -1   16    4      0.12      0.00
   -8   17    4      0.06      0.00
   -7   17    4     -0.19      0.00
   -6   17    4      0.22      0.00
   -5   17    4      0.24      0.00
   -4   17    4     -0.74      0.00
   -3   17    4     -0.12      0.00
   -9   18    4     -0.02      0.00
   -8   18    4      0.29      0.00
   -7   18    4     -0.26      0.00
    0    1    5     -0.77      0.00
    0    2    5     -1.57      0.00
   -1    3    5      1.52      0.00
    0    3    5      0.75      0.00
   -1    4    5     -0.93      0.00
    0    4    5     -0.61      0.00
   -2    5    5      1.00      0.00
   -1    5    5      0.19      0.00
    0    5    5      0.07      0.00
   -2    6    5     -0.20      0.00
   -1    6    5     -0.16      0.00
    0    6    5      1.17      0.00
   -3    7    5      0.72      0.00
   -2    7    5     -0.46      0.00
   -1    7    5     -0.52      0.00
    0    7    5     -0.58      0.00
   -3    8    5     -0.72      0.00
   -2    8    5      0.97      0.00
   -1    8    5      0.25      0.00
    0    8    5     -0.34      0.00
   -4    9    5     -0.01      0.00
   -3    9    5      0.61      0.00
   -2    9    5     -0.46      0.00
   -1    9    5     -0.13      0.00
    0    9    5      1.64      0.00
   -4   10    5     -0.27      0.00
   -3   10    5     -0.63      0.00
   -2   10    5      0.18      0.00
   -1   10    5     -0.77      0.00
    0   10    5     -1.00      0.00
   -5   11    5     -0.31      0.00
   -4   11    5      0.79      0.00
   -3   11    5      0.09      0.00
   -2   11    5      0.69      0.00
   -1   11    5      0.18      0.00
    0   11    5      1.32      0.00
   -5   12    5     -0.27      0.00
   -4   12    5     -0.26      0.00
   -3   12    5     -0.32      0.00
   -2   12    5     -0.24      0.00
   -1   12    5     -0.63      0.00
    0   12    5     -0.64      0.00
   -6   13    5      0.36      0.00
   -5   13    5     -0.05      0.00
   -4   13    5      0.32      0.00
   -3   13    5     -0.30      0.00
   -2   13    5      0.92      0.00
   -1   13    5      0.09      0.00
    0   13    5      0.82      0.00
   -6   14    5      0.06      0.00
   -5   14    5     -0.42      0.00
   -4   14    5      0.41      0.00
   -3   14    5     -0.43      0.00
   -2   14    5     -0.58      0.00
   -1   14    5     -0.02      0.00
    0   14    5     -1.09      0.00
   -7   15    5     -0.55      0.00
   -6   15    5      0.59      0.00
   -5   15    5     -0.12      0.00
   -4   15    5      0.47      0.00
   -3   15    5     -0.37      0.00
   -2   15    5      1.07      0.00
   -1   15    5     -0.01      0.00
   -7   16    5      0.12      0.00
   -6   16    5     -0.45      0.00
   -5   16    5     -0.59      0.00
   -4   16    5      0.48      0.00
   -3   16    5     -0.42      0.00
   -8   17    5     -0.19      0.00
   -7   17    5      0.37      0.00
    0    0    6      0.54      0.00
    0    1    6      0.28      0.00
   -1    2    6     -0.99      0.00
    0    2    6     -0.22      0.00
   -1    3    6      1.10      0.00
    0    3    6     -0.70      0.00
   -2    4    6     -1.52      0.00
   -1    4    6      0.28      0.00
    0    4    6      0.35      0.00
   -2    5    6      0.20      0.00
   -1    5    6     -0.46      0.00
    0    5    6     -0.26      0.00
   -3    6    6     -0.54      0.00
   -2    6    6      1.06      0.00
   -1    6    6     -0.16      0.00
    0    6    6      0.84      0.00
   -3    7    6     -0.19      0.00
   -2    7    6     -0.50      0.00
   -1    7    6     -0.62      0.00
    0    7    6      1.21      0.00
   -4    8    6     -1.22      0.00
   -3    8    6      0.65      0.00
   -2    8    6      0.58      0.00
   -1    8    6     -1.18      0.00
    0    8    6      0.43      0.00
   -4    9    6      0.75      0.00
   -3    9    6     -0.42      0.00
   -2    9    6      0.31      0.00
   -1    9    6      0.48      0.00
    0    9    6     -0.28      0.00
   -5   10    6      0.50      0.00
   -4   10    6     -1.35      0.00
   -3   10    6      0.45      0.00
   -2   10    6     -0.03      0.00
   -1   10    6     -0.84      0.00
    0   10    6      1.12      0.00
   -5   11    6      0.42      0.00
   -4   11    6     -0.09      0.00
   -3   11    6      0.20      0.00
   -2   11    6     -0.06      0.00
   -1   11    6      0.26      0.00
    0   11    6     -0.09      0.00
   -6   12    6     -0.27      0.00
   -5   12    6      0.15      0.00
   -4   12    6      0.27      0.00
   -3   12    6     -0.35      0.00
   -2   12    6      0.04      0.00
   -1   12    6     -0.63      0.00
    0   12    6      0.03      0.00
   -6   13    6     -0.09      0.00
   -5   13    6     -0.17      0.00
   -4   13    6     -0.25      0.00
   -3   13    6      0.52      0.00
   -2   13    6      0.46      0.00
   -1   13    6      0.16      0.00
    0   13    6      0.66      0.00
   -7   14    6      0.08      0.00
   -6   14    6     -0.05      0.00
   -5   14    6      0.24      0.00
   -4   14    6     -0.34      0.00
   -3   14    6     -0.23      0.00
   -2   14    6     -0.49      0.00
   -1   14    6     -0.28      0.00
   -7   15    6      0.00      0.00
   -6   15    6      0.41      0.00
   -5   15    6     -0.01      0.00
   -4   15    6     -0.04      0.00
    0    1    7     -0.74      0.00
    0    2    7      0.87      0.00
   -1    3    7     -0.30      0.00
    0    3    7     -0.69      0.00
   -1    4    7      0.77      0.00
    0    4    7     -0.78      0.00
   -2    5    7     -1.25      0.00
   -1    5    7      0.75      0.00
    0    5    7     -0.15      0.00
   -2    6    7      0.03      0.00
   -1    6    7      0.09      0.00
    0    6    7     -0.83      0.00
   -3    7    7     -0.52      0.00
   -2    7    7      0.00      0.00
   -1    7    7      0.59      0.00
    0    7    7     -0.57      0.00
   -3    8    7      0.82      0.00
   -2    8    7     -0.48      0.00
   -1    8    7      0.05      0.00
    0    8    7      1.26      0.00
   -4    9    7     -0.62      0.00
   -3    9    7     -0.24      0.00
   -2    9    7     -0.04      0.00
   -1    9    7     -0.45      0.00
    0    9    7     -1.07      0.00
   -4   10    7      0.23      0.00
   -3   10    7      0.35      0.00
   -2   10    7      0.02      0.00
   -1   10    7      0.51      0.00
    0   10    7      0.32      0.00
   -5   11    7      0.96      0.00
   -4   11    7     -1.02      0.00
   -3   11    7      0.68      0.00
   -2   11    7     -0.30      0.00
   -1   11    7      0.08      0.00
    0   11    7     -0.17      0.00
   -5   12    7      0.34      0.00
   -4   12    7     -0.66      0.00
   -3   12    7      0.15      0.00
   -2   12    7     -0.68      0.00
   -1   12    7      0.25      0.00
   -6   13    7     -0.67      0.00
   -5   13    7      0.47      0.00
   -4   13    7      0.34      0.00
   -3   13    7      0.22      0.00
    0    0    8      1.44      0.00
    0    1    8     -0.62      0.00
   -1    2    8      0.32      0.00
    0    2    8      0.65      0.00
   -1    3    8     -0.40      0.00
    0    3    8     -0.02      0.00
   -2    4    8      1.09      0.00
   -1    4    8     -0.56      0.00
    0    4    8      0.40      0.00
   -2    5    8     -0.33      0.00
   -1    5    8      0.68      0.00
    0    5    8     -0.53      0.00
   -3    6    8      0.49      0.00
   -2    6    8     -0.50      0.00
   -1    6    8     -0.17      0.00
    0    6    8      0.18      0.00
   -3    7    8     -0.02      0.00
   -2    7    8      0.34      0.00
   -1    7    8      0.10      0.00
    0    7    8     -0.34      0.00
   -4    8    8      0.28      0.00
   -3    8    8     -0.20      0.00
   -2    8    8     -0.22      0.00
   -1    8    8      0.43      0.00
    0    8    8     -0.36      0.00
   -4    9    8     -0.20      0.00
   -3    9    8      0.28      0.00
   -2    9    8     -0.20      0.00
   -1    9    8     -0.22      0.00
   -5   10    8     -0.24      0.00
   -4   10    8      0.32      0.00
   -3   10    8     -0.24      0.00
   -2   10    8      0.24      0.00
    0    1    9      0.13      0.00
    0    2    9      0.02      0.00
   -1    3    9      0.03      0.00
    0    3    9     -0.13      0.00
   -1    4    9     -0.14      0.00
    0    4    9      0.40      0.00
   -2    5    9      0.67      0.00
   -1    5    9     -0.28      0.00
    0    5    9     -0.32      0.00
    0    1    0    -16.21      0.00
   -1    4    0    -10.72      0.00
   -3   19    0      0.08      0.00
    0    1    1     15.07      0.00
   -1   18    1     -0.26      0.00
   -7   20    1      0.17      0.00
   -4   19    2     -0.30      0.00
  -10   20    2      0.19      0.00
   -9   20    2     -0.53      0.00
   -6   19    3      0.32      0.00
    0   16    4      0.59      0.00
   -2   17    4     -0.25      0.00
   -6   18    4     -0.20      0.00
   -5   18    4      0.33      0.00
    0   15    5      0.49      0.00
   -2   16    5     -0.55      0.00
   -6   17    5      0.54      0.00
   -3   15    6      0.32      0.00
    0   12    7     -0.21      0.00
    0    9    8      0.52      0.00
   -1   10    8     -0.03      0.00
   -5   11    8      0.13      0.00
   -2    6    9     -0.38      0.00
   -1    6    9      0.46      0.00
    0    0    0      0.00      0.00
# SQUEEZE RESULTS (Version = 120716)
# Note: Data are Listed for all Voids in the P1 Unit Cell
# i.e. Centre of Gravity, Solvent Accessible Volume,
# Recovered number of Electrons in the Void and
# Details about the Squeezed Material
loop_
  _platon_squeeze_void_nr
  _platon_squeeze_void_average_x
  _platon_squeeze_void_average_y
  _platon_squeeze_void_average_z
  _platon_squeeze_void_volume
  _platon_squeeze_void_count_electrons
  _platon_squeeze_void_content
   1 -0.019  0.480 -0.014       511        48 ' '
# Missing Reflections Below sin(th)/lambda = 0.25
loop_
  _platon_missing_refln_index_h
  _platon_missing_refln_index_k
  _platon_missing_refln_index_l
  _platon_missing_refln_theta
    0    1    0     3.125
   -1    4    0    11.334
    0    1    1     6.633
_platon_squeeze_void_probe_radius                  1.20
_platon_squeeze_details
)
TITL FJU-56-NH3P 63/m m c50kR = 0.09
CELL   16.3316   16.3316    7.5701     90.00     90.00    120.00
SPGR P63/mmc
# Solvent Accessible Volume =       520
# Electrons Found in S.A.V. =        45
# Note: Atoms in Void as Cxxx and Qxxx all others
C101 0.345 0.688 0.243 !       1.10 eA-3
C102 0.656 0.563 0.751 !       1.02 eA-3
C103 1.000 0.500 0.500 !       0.74 eA-3
Q104 0.220 0.609 0.749 !       0.58 eA-3
Q105 0.751 0.656 0.741 !       0.53 eA-3
)
;
_shelx_shelxl_version_number     2014/7
loop_
_space_group_symop_operation_xyz
'x, y, z'
'x-y, x, z+1/2'
'-y, x-y, z'
'-x, -y, z+1/2'
'-x+y, -x, z'
'y, -x+y, z+1/2'
'x-y, -y, -z'
'-x, -x+y, -z'
'y, x, -z'
'-y, -x, -z+1/2'
'-x+y, y, -z+1/2'
'x, x-y, -z+1/2'
'-x, -y, -z'
'-x+y, -x, -z-1/2'
'y, -x+y, -z'
'x, y, -z-1/2'
'x-y, x, -z'
'-y, x-y, -z-1/2'
'-x+y, y, z'
'x, x-y, z'
'-y, -x, z'
'y, x, z-1/2'
'x-y, -y, z-1/2'
'-x, -x+y, z-1/2'
loop_
_atom_site_label
_atom_site_type_symbol
_atom_site_fract_x
_atom_site_fract_y
_atom_site_fract_z
_atom_site_U_iso_or_equiv
_atom_site_adp_type
_atom_site_occupancy
_atom_site_site_symmetry_order
_atom_site_calc_flag
_atom_site_refinement_flags_posn
_atom_site_refinement_flags_adp
_atom_site_refinement_flags_occupancy
Co1 Co 0.0000 0.0000 0.0000 0.0236(6) Uani 1 12 d S T P
N1 N 0.1230(3) 0.06151(15) 0.1636(5) 0.0302(10) Uani 1 2 d S T P
N3 N 0.6667 0.3333 0.2500 0.049(4) Uani 1 12 d S T P
N2 N 0.2113(3) 0.10564(16) 0.1035(6) 0.0354(11) Uani 1 2 d S T P
C5 C 0.5663(5) 0.2832(3) 0.2500 0.0366(18) Uani 1 4 d S T P
C2 C 0.3691(6) 0.1845(3) 0.2500 0.0353(17) Uani 1 4 d S T P
C1 C 0.2642(6) 0.1321(3) 0.2500 0.0338(17) Uani 1 4 d S T P
C4 C 0.5171(7) 0.3095(10) 0.155(2) 0.116(7) Uani 0.5 1 d . . .
H4 H 0.5501 0.3654 0.0835 0.139 Uiso 0.5 1 d R . .
C3 C 0.4164(7) 0.2577(10) 0.148(2) 0.104(6) Uani 0.5 1 d . . .
H3 H 0.3829 0.2766 0.0687 0.125 Uiso 0.5 1 d R . .
N4 N 0.2885(6) 0.1442(3) -0.2500 0.116(6) Uani 1 4 d S T P
H4A H 0.3257 0.2072 -0.2500 0.139 Uiso 0.5 2 d RS T P
H4B H 0.2514 0.1257 -0.1533 0.139 Uiso 1 2 d R . .
loop_
_atom_site_aniso_label
_atom_site_aniso_U_11
_atom_site_aniso_U_22
_atom_site_aniso_U_33
_atom_site_aniso_U_23
_atom_site_aniso_U_13
_atom_site_aniso_U_12
Co1 0.0227(7) 0.0227(7) 0.0255(9) 0.000 0.000 0.0113(3)
N1 0.024(2) 0.0308(16) 0.033(2) 0.0000(9) 0.0000(18) 0.0121(10)
N3 0.028(4) 0.028(4) 0.091(11) 0.000 0.000 0.0139(18)
N2 0.024(2) 0.041(2) 0.036(2) 0.0011(9) 0.0022(19) 0.0120(11)
C5 0.029(4) 0.027(3) 0.054(5) 0.000 0.000 0.014(2)
C2 0.028(4) 0.038(3) 0.037(4) 0.000 0.000 0.0139(19)
C1 0.028(4) 0.036(3) 0.035(4) 0.000 0.000 0.0138(19)
C4 0.030(5) 0.100(9) 0.183(17) 0.090(10) 0.015(7) 0.007(6)
C3 0.031(5) 0.096(9) 0.165(14) 0.071(9) -0.008(7) 0.015(6)
N4 0.030(5) 0.224(14) 0.029(4) 0.000 0.000 0.015(2)
loop_
_atom_type_symbol
_atom_type_description
_atom_type_scat_dispersion_real
_atom_type_scat_dispersion_imag
_atom_type_scat_source
C C 0.0181 0.0091 'International Tables Vol C Tables 4.2.6.8 and 6.1.1.4'
H H 0.0000 0.0000 'International Tables Vol C Tables 4.2.6.8 and 6.1.1.4'
Co Co -2.3653 3.6143 'International Tables Vol C Tables 4.2.6.8 and 6.1.1.4'
N N 0.0311 0.0180 'International Tables Vol C Tables 4.2.6.8 and 6.1.1.4'
loop_
_geom_angle_atom_site_label_1
_geom_angle_atom_site_label_2
_geom_angle_atom_site_label_3
_geom_angle
_geom_angle_site_symmetry_1
_geom_angle_site_symmetry_3
N1 Co1 N1 89.74(16) 13 15
N1 Co1 N1 89.74(16) 15 17
N1 Co1 N1 90.26(16) 13 5
N1 Co1 N1 89.74(16) 3 5
N1 Co1 N1 90.26(16) 3 17
N1 Co1 N1 90.26(16) 17 .
N1 Co1 N1 89.74(16) 13 17
N1 Co1 N1 90.26(16) 13 3
N1 Co1 N1 89.74(16) 3 .
N1 Co1 N1 90.26(16) 15 .
N1 Co1 N1 89.74(16) 5 .
N1 Co1 N1 180.0(3) 15 3
N1 Co1 N1 180.0(3) 17 5
N1 Co1 N1 90.26(16) 15 5
N1 Co1 N1 180.00(13) 13 .
N1 N1 Co1 125.45(11) 16_556 .
N1 N1 N2 110.0(3) 16_556 .
N2 N1 Co1 124.5(3) . .
C5 N3 C5 120.000(1) 3_655 14_666
C5 N3 C5 119.999(2) 14_666 .
C5 N3 C5 120.001(1) 3_655 .
N1 N2 C1 104.0(5) . .
C4 C5 N3 122.3(6) 16_556 .
C4 C5 N3 122.3(6) 20 .
C4 C5 N3 122.3(6) 12 .
C4 C5 N3 122.3(6) . .
C4 C5 C4 115.4(11) 16_556 20
C4 C5 C4 79.4(15) . 20
C4 C5 C4 67.2(16) . 16_556
C4 C5 C4 115.4(11) . 12
C4 C5 C4 67.2(16) 20 12
C4 C5 C4 79.4(15) 16_556 12
C3 C2 C1 120.9(6) 16_556 .
C3 C2 C1 120.9(6) 12 .
C3 C2 C1 120.9(6) 20 .
C3 C2 C1 120.9(6) . .
C3 C2 C3 72.7(16) 12 20
C3 C2 C3 72.7(16) 16_556 .
C3 C2 C3 118.2(11) . 12
C3 C2 C3 76.8(15) . 20
C3 C2 C3 118.2(11) 16_556 20
C3 C2 C3 76.8(15) 16_556 12
N2 C1 N2 112.0(7) 16_556 .
N2 C1 C2 124.0(3) 16_556 .
N2 C1 C2 124.0(3) . .
C5 C4 C4 50.3(8) . 20
C5 C4 C4 56.4(8) . 16_556
C5 C4 H4 118.5 . .
C5 C4 C3 122.9(11) . .
C4 C4 C4 90.002(1) 16_556 20
C4 C4 H4 124.2 16_556 .
C4 C4 H4 132.0 20 .
C3 C4 C4 89.1(9) . 20
C3 C4 C4 92.0(9) . 16_556
C3 C4 H4 118.6 . .
C2 C3 C4 120.2(10) . .
C2 C3 C3 51.6(8) . 20
C2 C3 C3 53.7(8) . 16_556
C2 C3 H3 119.6 . .
C4 C3 C3 90.9(9) . 20
C4 C3 C3 88.0(9) . 16_556
C4 C3 H3 120.3 . .
C3 C3 C3 90.000(1) 16_556 20
C3 C3 H3 127.3 20 .
C3 C3 H3 128.7 16_556 .
H4A N4 H4B 110.0 . .
loop_
_geom_bond_atom_site_label_1
_geom_bond_atom_site_label_2
_geom_bond_distance
_geom_bond_site_symmetry_2
Co1 N1 2.136(4) 13
Co1 N1 2.136(4) 17
Co1 N1 2.136(4) 3
Co1 N1 2.136(4) .
Co1 N1 2.136(4) 5
Co1 N1 2.136(4) 15
N1 N1 1.308(8) 16_556
N1 N2 1.329(6) .
N3 C5 1.419(8) 3_655
N3 C5 1.419(8) 14_666
N3 C5 1.419(8) .
N2 C1 1.338(6) .
C5 C4 1.304(14) .
C5 C4 1.304(14) 16_556
C5 C4 1.304(14) 20
C5 C4 1.304(14) 12
C2 C1 1.484(11) .
C2 C3 1.303(13) 16_556
C2 C3 1.303(13) 20
C2 C3 1.303(13) 12
C2 C3 1.303(13) .
C1 N2 1.338(6) 16_556
C4 C4 1.66(3) 20
C4 C4 1.44(3) 16_556
C4 H4 0.9599 .
C4 C3 1.425(14) .
C3 C3 1.54(3) 16_556
C3 C3 1.62(3) 20
C3 H3 0.9602 .
N4 H4A 0.8959 .
N4 H4B 0.9001 .
loop_
_geom_torsion_atom_site_label_1
_geom_torsion_atom_site_label_2
_geom_torsion_atom_site_label_3
_geom_torsion_atom_site_label_4
_geom_torsion
_geom_torsion_site_symmetry_1
_geom_torsion_site_symmetry_4
Co1 N1 N2 C1 180.000(0) . .
N1 N1 N2 C1 0.000(1) 16_556 .
N1 N2 C1 N2 0.004(2) . 16_556
N1 N2 C1 C2 180.000(1) . .
N3 C5 C4 C4 121.7(10) . 20
N3 C5 C4 C4 -114.9(8) . 16_556
N3 C5 C4 C3 177.5(13) . .
C5 N3 C5 C4 139.1(10) 14_666 20
C5 N3 C5 C4 -40.9(10) 3_655 20
C5 N3 C5 C4 40.9(10) 14_666 .
C5 N3 C5 C4 139.1(10) 3_655 16_556
C5 N3 C5 C4 40.9(10) 3_655 12
C5 N3 C5 C4 -139.1(10) 3_655 .
C5 N3 C5 C4 -40.9(10) 14_666 16_556
C5 N3 C5 C4 -139.1(10) 14_666 12
C5 C4 C3 C2 5(3) . .
C5 C4 C3 C3 50.4(15) . 16_556
C5 C4 C3 C3 -39.5(16) . 20
C1 C2 C3 C4 177.6(12) . .
C1 C2 C3 C3 -118.3(9) . 20
C1 C2 C3 C3 116.1(8) . 16_556
C4 C5 C4 C4 -123.5(7) 16_556 20
C4 C5 C4 C4 65.1(8) 12 16_556
C4 C5 C4 C4 -58.3(10) 12 20
C4 C5 C4 C4 123.5(7) 20 16_556
C4 C5 C4 C3 56(2) 20 .
C4 C5 C4 C3 -67.7(19) 16_556 .
C4 C5 C4 C3 -2.5(13) 12 .
C4 C4 C3 C2 -45.1(15) 16_556 .
C4 C4 C3 C2 44.9(14) 20 .
C4 C4 C3 C3 0.000(0) 20 20
C4 C4 C3 C3 89.97(4) 20 16_556
C4 C4 C3 C3 -0.002(1) 16_556 16_556
C4 C4 C3 C3 -89.97(4) 16_556 20
C3 C2 C1 N2 -133.7(10) 12 .
C3 C2 C1 N2 133.7(10) 20 16_556
C3 C2 C1 N2 -46.3(10) 20 .
C3 C2 C1 N2 46.3(10) 12 16_556
C3 C2 C1 N2 133.7(10) 16_556 .
C3 C2 C1 N2 46.3(10) . .
C3 C2 C1 N2 -46.3(10) 16_556 16_556
C3 C2 C1 N2 -133.7(10) . 16_556
C3 C2 C3 C4 -2.4(12) 12 .
C3 C2 C3 C4 -64.2(19) 20 .
C3 C2 C3 C4 61.5(18) 16_556 .
C3 C2 C3 C3 61.7(9) 12 20
C3 C2 C3 C3 125.6(8) 16_556 20
C3 C2 C3 C3 -125.6(8) 20 16_556
C3 C2 C3 C3 -63.9(8) 12 16_556
