#------------------------------------------------------------------------------
#$Date: 2019-11-10 00:56:00 +0200 (Sun, 10 Nov 2019) $
#$Revision: 225476 $
#$URL: file:///home/coder/svn-repositories/cod/cif/4/51/53/4515313.cif $
#------------------------------------------------------------------------------
#
# This file is available in the Crystallography Open Database (COD),
# http://www.crystallography.net/
#
# All data on this site have been placed in the public domain by the
# contributors.
#
data_4515313
loop_
_publ_author_name
'Zhang, Jindan'
'Ouyang, Jun'
'Ye, Yingxiang'
'Li, Ziyin'
'Lin, Quanjie'
'Chen, Ting'
'Zhang, Zhangjing'
'Xiang, Shengchang'
_publ_section_title
;
 Mixed-Valence Cobalt(II/III) Metal-Organic Framework for Ammonia Sensing
 with Naked-Eye Color Switching.
;
_journal_issue                   32
_journal_name_full               'ACS applied materials &amp; interfaces'
_journal_page_first              27465
_journal_page_last               27471
_journal_paper_doi               10.1021/acsami.8b07770
_journal_volume                  10
_journal_year                    2018
_chemical_formula_moiety         '0.5(C42 H24 Co2 N26)'
_chemical_formula_sum            'C21 H12 Co N13'
_chemical_formula_weight         505.37
_space_group_crystal_system      hexagonal
_space_group_IT_number           194
_space_group_name_Hall           '-P 6c 2c'
_space_group_name_H-M_alt        'P 63/m m c'
_atom_sites_solution_hydrogens   difmap
_audit_creation_method           SHELXL-2014/7
_cell_angle_alpha                90
_cell_angle_beta                 90
_cell_angle_gamma                120
_cell_formula_units_Z            2
_cell_length_a                   15.9688(8)
_cell_length_b                   15.9688(8)
_cell_length_c                   6.9541(7)
_cell_measurement_reflns_used    2525
_cell_measurement_temperature    296(2)
_cell_measurement_theta_max      72.5690
_cell_measurement_theta_min      5.4920
_cell_volume                     1535.73(19)
_computing_structure_refinement  'SHELXL-2014/7 (Sheldrick, 2014)'
_diffrn_ambient_temperature      296(2)
_diffrn_measured_fraction_theta_full 0.991
_diffrn_measured_fraction_theta_max 0.992
_diffrn_measurement_device_type  'SuperNova, Dual, Cu at zero, Atlas'
_diffrn_radiation_type           CuK\a
_diffrn_radiation_wavelength     1.54184
_diffrn_reflns_av_R_equivalents  0.1002
_diffrn_reflns_av_unetI/netI     0.0335
_diffrn_reflns_Laue_measured_fraction_full 0.991
_diffrn_reflns_Laue_measured_fraction_max 0.992
_diffrn_reflns_limit_h_max       19
_diffrn_reflns_limit_h_min       -19
_diffrn_reflns_limit_k_max       19
_diffrn_reflns_limit_k_min       -13
_diffrn_reflns_limit_l_max       8
_diffrn_reflns_limit_l_min       -8
_diffrn_reflns_number            8576
_diffrn_reflns_point_group_measured_fraction_full 0.991
_diffrn_reflns_point_group_measured_fraction_max 0.992
_diffrn_reflns_theta_full        67.687
_diffrn_reflns_theta_max         74.180
_diffrn_reflns_theta_min         5.541
_exptl_absorpt_coefficient_mu    4.629
_exptl_crystal_density_diffrn    1.093
_exptl_crystal_description       flake
_exptl_crystal_F_000             512
_refine_diff_density_max         0.719
_refine_diff_density_min         -0.765
_refine_diff_density_rms         0.080
_refine_ls_extinction_method     none
_refine_ls_goodness_of_fit_ref   1.114
_refine_ls_hydrogen_treatment    constr
_refine_ls_matrix_type           full
_refine_ls_number_parameters     47
_refine_ls_number_reflns         629
_refine_ls_number_restraints     56
_refine_ls_restrained_S_all      1.319
_refine_ls_R_factor_all          0.0713
_refine_ls_R_factor_gt           0.0651
_refine_ls_shift/su_max          0.000
_refine_ls_shift/su_mean         0.000
_refine_ls_structure_factor_coef Fsqd
_refine_ls_weighting_details
'w=1/[\s^2^(Fo^2^)+(0.1265P)^2^+1.1740P] where P=(Fo^2^+2Fc^2^)/3'
_refine_ls_weighting_scheme      calc
_refine_ls_wR_factor_gt          0.1886
_refine_ls_wR_factor_ref         0.1950
_reflns_Friedel_coverage         0.000
_reflns_number_gt                553
_reflns_number_total             629
_reflns_threshold_expression     'I > 2\s(I)'
_cod_data_source_file            am8b07770_si_002.cif
_cod_data_source_block           FJU-56-180Degree
_cod_original_cell_volume        1535.7(2)
_cod_database_code               4515313
_shelx_space_group_comment
;
The symmetry employed for this shelxl refinement is uniquely defined
by the following loop, which should always be used as a source of
symmetry information in preference to the above space-group names.
They are only intended as comments.
;
_olex2_refinement_description
;
1. Fixed Uiso
 At 1.2 times of:
  All C(H) groups
2. Restrained planarity
 N2, N1, N1_$1, N2_$1, C1
 with sigma of 0.1
3. Uiso/Uaniso restraints and constraints
N1 \\sim N2 \\sim C1 \\sim C2 \\sim C3 \\sim C4 \\sim H3 \\sim C5 \\sim H4
\\sim N3: within 1.7A with sigma of 0.005 and sigma for terminal atoms of 0.01
4. Others
 Fixed Sof: C4(0.5) H4(0.5) C3(0.5) H3(0.5)
5.a Riding coordinates:
 C4(H4), C3(H3)
;
_shelx_res_file
;
    FJU-56-180Degree.res created by SHELXL-2014/7

TITL FJU-56-180Degree in P63mc
CELL 1.54187 15.968752 15.968752 6.95406 90 90 120
ZERR 2 0.000834 0.000834 0.00069 0 0 0
LATT 1
SYMM -Y+X,+X,0.5+Z
SYMM -Y,+X-Y,+Z
SYMM -X,-Y,0.5+Z
SYMM +Y-X,-X,+Z
SYMM +Y,-X+Y,0.5+Z
SYMM -Y+X,-Y,-Z
SYMM -X,-X+Y,-Z
SYMM +Y,+X,-Z
SYMM -Y,-X,0.5-Z
SYMM +Y-X,+Y,0.5-Z
SYMM +X,+X-Y,0.5-Z
SFAC C H Co N
UNIT 42 24 2 26
EQIV $1 +X,+X-Y,1.5-Z
FLAT N2 N1 N1_$1 N2_$1 C1
SIMU 0.005 0.01 1.7 N1 N2 C1 C2 C3 C4 H3 C5 H4 N3

L.S. 5 0 2
PLAN  4
TEMP 23(2)
MORE -1
BOND $H
CONF
ABIN
fmap 2 53
acta
OMIT 0 3 0
OMIT 0 2 0
OMIT -2 7 1
OMIT 0 4 0
REM <olex2.extras>
REM <HklSrc "%.\\FJU-56-180Degree.hkl">
REM </olex2.extras>

WGHT    0.126500    1.174000
FVAR       7.18494
CO1   3    0.000000    0.000000    0.500000    10.08333    0.01876    0.01876 =
         0.02897    0.00000    0.00000    0.00938
N2    4    0.203297    0.101648    0.590769    10.50000    0.02275    0.02738 =
         0.04207    0.00227    0.00454    0.01137
C1    1    0.256234    0.128117    0.750000    10.25000    0.02267    0.02408 =
         0.04614    0.00000    0.00000    0.01133
C2    1    0.362641    0.181321    0.750000    10.25000    0.02886    0.02800 =
         0.06107    0.00000    0.00000    0.01443
N1    4    0.113509    0.056754    0.654799    10.50000    0.01816    0.02341 =
         0.03231    0.00093    0.00186    0.00908
C5    1    0.563878    0.281939    0.750000    10.25000    0.03249    0.02759 =
         0.12769    0.00000    0.00000    0.01625
N3    4    0.666667    0.333333    0.750000    10.08333    0.03035    0.03035 =
         0.14290    0.00000    0.00000    0.01517
C4    1    0.514465    0.303559    0.880602    10.50000    0.04372    0.04973 =
         0.10250   -0.00887   -0.00378    0.02492
AFIX   3
H4    2    0.549375    0.352409    0.975692    10.50000   -1.20000
AFIX   0
C3    1    0.414698    0.253921    0.882461    10.50000    0.04090    0.05045 =
         0.08603   -0.00875   -0.00088    0.02321
AFIX   3
H3    2    0.379998    0.268351    0.977131    10.50000   -1.20000
AFIX   0
HKLF 4

REM  FJU-56-180Degree in P63mc
REM R1 =  0.0651 for     553 Fo > 4sig(Fo)  and  0.0713 for all     629 data
REM     47 parameters refined using     56 restraints

END

WGHT      0.1265      1.1740

REM Highest difference peak  0.719,  deepest hole -0.765,  1-sigma level  0.080
Q1    1   0.6667  0.3333  0.6120  10.16667  0.05    0.72
Q2    1   0.0000  0.0000  0.6626  10.16667  0.05    0.68
Q3    1  -0.0420 -0.0841  0.4942  10.50000  0.05    0.47
Q4    1   0.5175  0.3275  0.7500  10.50000  0.05    0.37
;
_shelx_res_checksum              7164
_shelx_hkl_file
;
   0   0  -7-1843.09 1343.07   6
   0   0  -6 2988.11 1460.98   6
   0   0   1 459.939 445.845   3
   0   0   1 35.2595 644.051   2
   0   0   2 44527.3 1978.51   3
   0   0   2 47835.9 3228.68   2
   0   0   3 526.244 1323.47   2
   0   0   3 100.699 1086.43   1
   0   0   4 9157.16 2283.27   2
   0   0   4 5821.79 1847.91   1
   0   0   5-383.752 1446.75   1
   0   0   5-334.063 916.729   8
   0   0   5-296.774 1633.46   2
   0   0   6 8330.55 2910.05   2
   0   0   6 1327.14 1311.56   8
   0   0   7 2025.04 1617.78   8
   0   0   8 3663.83 1072.08   7
   0   0   8 18334.8 1701.67   8
   1   0  -8 4238.05 1037.29   6
   0   1  -8 5989.22 1168.27   6
  -1   1  -8 3663.82 866.336   6
   1   0  -7 1679.19 1352.75   6
  -1   0  -7 1534.22 1214.21   6
   1  -1  -7 2863.79 1506.39   6
  -1   1  -7 1772.97 1307.53   6
   0  -1  -7 1539.46 1242.63   6
   0   1  -7 1765.55 1447.49   6
   0  -1  -6 16538.2 2521.15   6
  -1   0  -6 19561.9 2861.24   6
  -1   1  -6 17588.2 2756.03   6
   0   1  -6 16275.3 2627.73   6
   1   0   1 446565. 5724.74   3
   0   1   1 430542. 5387.11   1
  -1   1   1 406760. 6107.03   3
  -1   1   1 433208. 6431.33   2
  -1   1   1 420052. 6314.73   1
   0   1   1 446101. 5981.46   2
  -1   0   1 460830. 7047.33   2
   0  -1   1 431189. 6944.23   2
  -1   0   1 411024. 6918.97   1
   0   1   2 75932.2 3870.99   2
  -1   0   2 72659.0 4054.59   1
  -1   0   2 76360.0 4103.31   2
   0   1   2 67674.6 2937.66   3
  -1   1   2 59663.4 3515.34   1
   0   1   2 69580.1 3469.24   1
  -1   1   2 61666.6 2967.27   3
   0  -1   2 70280.8 4037.31   2
   1  -1   2 67123.5 3698.93   2
   1   0   2 70420.1 2934.76   3
   1  -1   2 69927.5 2110.31   3
  -1   1   2 72053.5 3837.82   2
   1   0   2 69412.9 3708.69   2
   0   1   3 3676.59 1490.90   2
   0   1   3 4145.65 1424.37   1
  -1   1   3 2908.88 1504.72   1
   1  -1   3 3980.76 1497.35   2
   0  -1   3 3005.97 1672.59   2
   1  -1   3 3012.94 605.189   3
  -1   0   3 3612.67 1629.70   2
   0   1   3 3329.46 1032.23   3
   1   0   3 2193.65 741.876   3
  -1   1   3 4577.60 1703.03   2
   1   0   3 3407.78 1385.93   2
  -1   0   3 4497.26 1618.26   1
   0   1   4 1927.79 1440.93   1
  -1   0   4 2413.59 1683.82   2
  -1   1   4 2213.35 1511.31   2
   0  -1   4 1389.41 1276.35   1
   1  -1   4 1735.25 1419.74   1
   1  -1   4 3133.82 1715.29   2
   1   0   4 1805.86 1268.89   1
  -1   0   4 1901.78 1557.91   1
  -1   1   4 3083.12 1593.24   1
   0  -1   4 2886.74 1679.62   2
   1   0   4 2731.59 1443.05   2
   0   1   4 4233.76 1639.86   2
   1  -1   5 1416.19 1076.69   8
   0  -1   5 363.317 985.399   8
  -1   0   5-383.104 1442.57   1
   1   0   5 376.581 1465.73   2
   0  -1   5 1370.71 1817.86   2
   0   1   5-1065.83 1198.73   8
   0   1   5 1961.83 1673.67   1
  -1   1   5-1323.27 1767.36   2
  -1   0   5 1184.86 853.299  11
   0  -1   5-598.557 1763.85   1
   1   0   5 1875.26 1574.40   1
   0   1   5 131.603 1236.50   2
  -1   1   5 1311.85 1422.01   1
  -1   0   5 829.500 1465.22   2
  -1   0   5 1491.63 1200.61   8
  -1   1   5 649.549 995.980   8
   1  -1   5 1344.31 1855.24   2
   1  -1   5-1073.06 1532.37   1
   1   0   5 545.908 1010.07   8
  -1   1   5 725.017 750.381  11
   0   1   6 18267.5 3577.73   2
  -1   0   6 23823.8 2543.60   8
   0  -1   6 12732.1 3401.08   1
   1   0   6 24683.4 2505.56   8
   1  -1   6 20928.4 2373.51   8
   1   0   6 10658.6 3046.91   2
  -1   0   6 15170.9 3494.30   1
  -1   1   6 23238.1 2430.52   8
   0   1   6 26601.2 2572.82   8
   0  -1   6 21145.4 2469.10   8
   1  -1   7 1790.59 1484.04   8
   0   1   7 3068.52 1479.67   8
  -1   1   7 2328.89 1428.41   8
   0  -1   7 3898.10 1661.71   8
  -1   0   7 3381.60 1597.25   8
   1   0   7 2929.82 1522.05   8
   1  -1   8 2263.30 1052.42   7
  -1   1   8 1552.97 797.175   7
   1  -1   8 4662.98 1079.15   8
   0   1   8 797.103 811.426   7
   0   1   8 4878.24 1114.20   8
   1   0   8 1120.15 835.078   7
  -1   0   8 4489.96 1074.41   8
   1   0   8 5687.54 1170.42   8
  -1   1   8 5387.14 1086.47   8
   0  -1   8 5255.11 1148.65   8
  -1   2  -8 4391.87 1104.13   6
   2  -1  -8 2615.91 782.467   6
   1   1  -8 3880.33 1165.62   6
   2  -1  -7 323.807 1231.07   6
  -2   1  -7-981.064 1104.99   6
   1   1  -7-1426.32 1531.36   6
  -1   2  -7-893.122 1319.41   6
  -1   2  -6 34478.9 3571.77   6
  -2   1  -6 34349.6 3596.52   6
  -2   1  -5-1258.72 1183.45   6
  -2   1   0 831980. 7025.63   1
   1   1   0 831438. 5618.04   4
  -2   1   1 739.168 567.752   4
  -2   1   1 232.959 608.792   1
   1   1   1 833.195 621.909   4
  -1   2   1 237.460 478.734   1
   2  -1   1 1491.67 548.289  12
   1   1   1 129.479 442.261   2
  -1   2   1 241.068 475.510   2
  -1  -1   1 138.888 651.050   2
  -2   1   1 273.868 669.198   2
   1   1   2 28635.6 2261.36   3
  -2   1   2 25099.3 2571.47   1
   2  -1   2 29999.3 1898.57   3
   1   1   2 30139.4 2210.10   1
  -1  -1   2 29499.5 2818.04   2
  -1   2   2 28561.8 2411.59   1
   1   1   2 32006.2 2459.60   2
  -2   1   2 28789.7 2591.21   2
  -1   2   2 23815.2 2114.33   3
   1  -2   2 28714.0 2590.22   2
  -1   2   2 28316.9 2390.86   2
   1   1   3 90.0706 864.213   1
  -1  -1   3 531.742 1236.58   1
   2  -1   3 443.639 588.415   3
   2  -1   3-636.823 1049.79   2
  -1   2   3 530.199 1168.61   2
  -2   1   3-569.623 1210.42   1
  -1   2   3 1848.70 1018.52   3
   1  -2   3 824.197 1265.16   2
  -1  -1   3 465.775 1255.88   2
  -1   2   3 1084.41 1069.29   1
   1   1   3 429.002 1101.41   2
   1   1   3 551.267 769.920   3
  -2   1   3 450.794 1283.41   2
  -1  -1   4 3242.07 1689.59   1
  -1   2   4 3569.88 1668.22   2
   1   1   4 2530.09 1269.48   1
   2  -1   4 4290.04 1753.10   2
  -1   2   4 2957.53 1543.09   1
   2  -1   4 2276.70 1376.46   1
  -2   1   4 3026.25 1777.11   1
   1  -2   4 4229.88 1874.79   2
  -2   1   4 2480.34 1661.16   2
  -1  -1   4 3827.83 1899.89   2
   1   1   4 2792.22 1547.55   2
   1  -2   5-54.8290 988.329   8
   2  -1   5 523.947 1433.48   2
  -2   1   5 498.599 775.217  11
  -1   2   5-650.810 940.065  10
   2  -1   5-198.624 999.403   8
  -2   1   5-421.980 1433.00   1
   1  -2   5 1182.41 1779.25   2
   2  -1   5 326.029 1325.13   1
  -1  -1   5 2632.00 1269.92   8
  -1  -1   5 84.8115 1567.76   1
  -1  -1   5-726.821 817.855  11
   1   1   5-961.794 1350.38   8
  -1   2   5-1248.78 1725.83   2
  -1  -1   5-859.508 1530.91   2
  -2   1   5 1835.63 1151.22   8
   1   1   5-1303.29 1636.69   2
  -1   2   5 123.468 760.514  11
  -1   2   5 204.105 1345.16   1
   1  -2   5-954.981 1800.46   1
  -1   2   5-112.692 1133.87   8
  -2   1   5-1509.47 1896.10   2
  -1  -1   6 44137.1 3208.57   8
   2  -1   6 40892.6 3136.29   8
   1  -2   6 40955.5 3068.24   8
  -1   2   6 41144.7 3186.52   8
   1   1   6 42722.2 3066.93   8
  -2   1   6 43045.4 3106.32   8
   2  -1   7 142.346 1207.99   8
   1  -2   7 2007.37 1472.25   8
   1   1   7-281.683 1240.23   8
  -2   1   7 1043.40 1346.40   8
  -1   2   7-399.638 1220.04   8
   1   1   8-108.431 638.285   7
   1   1   8 4404.26 1066.52   8
  -2   1   8 2642.81 912.071   7
  -1   2   8 720.150 645.545   7
   2  -1   8 4035.11 1048.82   8
   1  -2   8 3262.76 981.789   8
   2  -1   8 631.878 802.906   7
  -1   2   8 4170.06 1070.14   8
  -1  -1   8 3606.42 1034.12   8
  -2   1   8 3382.19 994.890   8
   2   0  -8 3505.93 1031.70   6
  -2   2  -8 2304.16 801.382   6
   0   2  -8 3225.36 1098.61   6
   2  -2  -7 3581.47 1458.84   6
  -2   2  -7 4954.41 1692.45   6
   0   2  -7 6248.33 1910.54   6
   2   0  -7 4168.32 1710.57   6
  -2   2  -6 57076.9 4581.12   6
   0   2  -6 49837.7 4306.15   6
  -2   0  -6 48717.0 3968.93   6
  -2   2  -5 1219.23 1133.10   6
   0   2  -1 173214. 2720.60   3
  -2   0   0 13628.9 1010.58   1
  -2   2   0 12911.7 1139.00   1
  -2   2   1 177226. 4750.41   2
  -2   0   1 174483. 4898.37   1
  -2   2   1 180238. 4720.66   1
   0   2   1 176261. 3149.65   1
   0   2   1 174854. 3364.09   2
   0  -2   1 176776. 4728.53   2
  -2   0   1 179139. 4824.38   2
   2  -2   2 130893. 3001.09   3
  -2   2   2 159102. 5933.55   4
  -2   0   2 136493. 5689.93   2
   0   2   2 124055. 4558.33   2
  -2   0   2 130018. 5547.07   1
   0   2   2 127623. 4735.53   3
   2   0   2 124367. 4693.01   2
   2   0   2 130724. 4510.73   3
   0   2   2 133854. 4423.72   1
  -2   2   2 124724. 5090.93   2
   0   2   2 152149. 5875.30   4
  -2   2   2 134468. 5257.65   1
   0  -2   2 140734. 5505.36   2
   2  -2   3 6847.23 1814.32   2
   2   0   3 7288.05 1701.64   2
  -2   0   3 8063.52 2132.95   1
  -2   0   3 8972.03 2250.39   2
   0   2   3 7519.67 1724.60   2
   2   0   3 7574.72 1446.77   3
   0   2   3 7885.90 1512.65   3
  -2   2   3 5058.03 1674.87   2
   0  -2   3 8615.42 2177.96   2
   0   2   3 7183.97 1663.08   1
  -2   2   3 6987.36 1912.68   1
   0  -2   4 4453.43 1949.95   1
  -2   2   4 7359.44 2298.02   1
   0   2   4 6130.42 1656.84   3
   0   2   4 6958.37 1848.24   1
   2  -2   4 8221.53 2285.66   2
  -2   0   4 4397.13 1893.53   1
  -2   0   4 5042.60 1950.28   2
   2   0   4 2766.68 1274.15   1
   0  -2   4 7450.38 2269.54   2
   0   2   4 5783.69 1788.37   2
   2   0   4 8114.95 2103.13   2
  -2   2   4 6602.91 2130.86   2
  -2   2   5 4528.82 1270.37   8
  -2   0   5 4087.87 2132.63   1
   2  -2   5 4047.95 2136.39   2
  -2   0   5 3283.26 1063.68  11
  -2   2   5 1934.21 1903.12   2
  -2   0   5 3369.15 1287.14   8
   0  -2   5 2688.23 1860.13   1
  -2   2   5 3178.52 1837.55   1
   0   2   5 1586.22 969.057  10
  -2   0   5 2198.93 1630.86   2
   0  -2   5 4224.98 1332.04   8
   2  -2   5 1380.31 1723.49   1
   0  -2   5 2382.38 2053.53   2
   0   2   5 3584.30 1962.13   2
   2   0   5 1984.63 1776.25   2
  -2   2   5 2836.38 1033.12  11
   2  -2   5 3447.43 1167.74   8
   0   2   5 2209.67 1153.06   8
   2   0   5 1193.17 1046.95   8
  -2   2   5 2063.82 922.137  10
  -2   2   6 65594.7 3692.09   8
   0   2   6 67665.8 3846.29   8
   2   0   6 66420.0 3734.67   8
  -2   0   6 75202.6 3937.29   8
   2  -2   6 64180.2 3640.35   8
   0  -2   6 72335.2 3929.30   8
  -2   0   7 5773.85 1613.67   8
   2   0   7 6352.15 1558.88   8
   0   2   7 6369.97 1607.71   8
   0  -2   7 4420.34 1623.16   8
   2  -2   7 6155.67 1617.58   8
  -2   2   7 8192.66 1706.93   8
   2  -2   8 1197.91 896.692   7
   2   0   8 896.178 802.812   7
  -2   2   8 1567.99 692.384   7
  -2   0   8 2836.45 943.072   8
   2   0   8 2821.40 989.242   8
   0  -2   8 2097.05 899.386   8
   2  -2   8 1753.59 866.586   8
  -2   2   8 988.774 788.016   8
   0   2   8 2597.26 961.159   8
   0   2   8-409.758 601.752   7
   3  -1  -8 5840.67 1125.05   6
   1   2  -8 6476.75 1336.61   6
  -1   3  -8 6144.47 1237.83   6
  -2   3  -8 4868.91 1111.51   6
   2   1  -8 6658.37 1333.36   6
  -1   3  -7 1090.37 1361.82   6
   1   2  -7 1643.15 1505.88   6
   2   1  -7 1017.00 1393.75   6
   3  -1  -7 205.136 1192.19   6
  -2   3  -7 558.616 1273.09   6
   3  -2  -7 845.397 1152.07   6
  -3   2  -7 265.867 1062.97   6
  -3   1  -6 28506.1 3218.27   6
  -3   2  -6 29786.0 3352.26   6
  -1   3  -6 27309.1 3396.28   6
  -2   3  -6 32683.4 3510.86   6
  -3   1  -5 2043.24 1220.47   6
  -3   2  -5 1116.84 1139.62   6
  -2   3  -5 731.035 1056.30   6
  -1   3   0 296644. 5607.21   3
   2   1   0 289410. 4260.22  12
  -3   1   0 281879. 3428.05   4
  -3   2   0 279681. 5410.47   1
  -3   2   0 289552. 4885.74   4
   2   1   0 294910. 3203.70   4
  -3   1   0 281841. 5165.07   1
  -1  -2   0 308962. 3105.74   2
   1   2   0 297927. 4780.63   4
  -3   2   1 152922. 4851.81   1
  -3   2   1 158012. 4557.74   4
  -2  -1   1 153286. 5062.91   1
  -2  -1   1 163266. 4863.26   2
   2  -3   1 161774. 4146.21  12
  -3   1   1 154164. 4957.73   2
  -3   1   1 153458. 4955.84   1
   1   2   1 161314. 4765.45   4
  -1  -2   1 153579. 4629.61   2
  -2   3   1 147576. 4319.17   2
   3  -1   1 173398. 4882.03  12
  -2   3   1 148356. 4237.80   1
  -1   3   1 147804. 3686.76   1
  -3   1   1 153815. 4025.10   4
  -1   3   1 150075. 3709.86   2
   3  -2   1 172094. 4872.58  12
   1   2   1 159578. 2781.98   2
  -3   2   1 157410. 5125.94   2
  -2   3   2 77420.2 4658.70   4
   1   2   2 49703.8 2401.11   1
  -1  -2   2 50426.0 3671.69   2
  -1   3   2 49681.7 3192.27   3
  -2   3   2 48652.3 3150.27   2
  -2  -1   2 48406.3 3854.43   1
  -2   3   2 58628.5 3454.92   3
  -3   1   2 47348.8 3537.81   2
  -1   3   2 46226.4 2811.86   2
   2   1   2 50147.7 2924.59   2
   1   2   2 53299.9 2928.09   2
  -3   2   2 73812.2 4123.55   4
   2   1   2 48526.6 3258.84   3
   1  -3   2 46912.3 3408.76   2
  -1   3   2 82117.8 4682.21   4
   1   2   2 49267.3 3276.81   3
  -2   3   2 48737.1 3099.70   1
  -3   1   2 48890.8 3570.02   1
  -3   2   2 47400.8 3411.89   2
  -3   2   2 46313.1 3451.98   1
  -1   3   2 48560.0 2869.31   1
  -2  -1   2 47827.4 3537.66   2
   1   2   2 71178.8 4345.22   4
   3  -1   2 48556.4 2901.14   3
  -3   2   3 742.593 1253.99   2
  -1   3   3-609.419 899.871   3
  -2   3   3-70.8599 1143.28   2
  -2  -1   3 983.161 1450.34   2
   1  -3   3-550.931 1354.55   2
  -1  -2   3 1175.13 1349.77   2
   3  -2   3-183.610 1101.98   2
   3  -1   3 964.824 1139.33   2
  -3   1   3 1154.19 1430.35   1
   1   2   3-279.120 963.812   2
  -3   1   3 515.783 1385.15   2
   2   1   3-168.986 852.908   3
   2   1   3 1338.66 982.882   1
  -3   2   3-428.691 1302.28   1
   3  -2   3 51.7579 569.139   3
   2  -3   3 823.842 1465.68   2
   1   2   3-188.730 784.739   1
   2   1   3 241.731 953.142   2
   3  -1   3-356.926 798.310   3
  -2  -1   3 82.5224 1523.69   1
  -1   3   3 206.663 934.339   1
  -1   3   3-149.523 1027.60   2
   1   2   3 1420.92 1072.66   3
  -2   3   3 659.167 1174.38   1
   1  -3   4 21722.6 3460.98   2
  -2  -1   4 18525.4 3302.39   1
  -1   3   4 19451.6 2963.29   1
   2   1   4 21757.1 2904.04   2
   3  -2   4 20947.6 3373.20   2
   3  -1   4 19233.6 3058.39   2
  -3   1   4 20146.2 3404.05   2
   1   2   4 18023.3 2475.66   1
  -1  -2   4 18024.4 3147.42   1
  -3   1   4 20208.4 3509.83   1
  -1   3   4 23288.3 3212.71   2
   1   2   4 18184.2 2701.75   2
   2   1   4 19160.2 2532.35   1
  -2  -1   4 19938.7 3224.51   2
   2  -3   4 18809.6 3219.97   2
   2   1   4 15114.7 2193.02   3
  -3   2   4 20357.5 3438.41   2
  -3   2   4 22522.9 3575.05   1
   1   2   4 22494.0 2684.74   3
  -2   3   4 20187.7 3168.93   1
  -1  -2   4 17718.0 3248.96   2
  -2   3   4 17184.3 3000.45   2
   3  -2   5 2484.11 2172.99   2
  -3   1   5 1876.47 979.793  11
  -2   3   5 1620.77 1019.06  10
   2  -3   5 1373.63 1803.64   1
   2  -3   5 2430.12 1081.55   8
  -2  -1   5 364.804 1494.15   2
   3  -1   5 2816.41 1177.20   8
  -3   2   5 2501.05 1048.27  11
  -3   2   5-513.940 1654.93   1
  -2   3   5 77.2397 1346.48   1
  -2   3   5 1850.29 969.846  11
   1   2   5 2395.44 1419.14   8
   2   1   5 2249.77 1241.45   8
  -2   3   5 921.860 1686.23   2
   1   2   5-362.538 1413.99   2
  -3   1   5 1047.67 1650.50   1
   1  -3   5 2961.57 1268.72   8
   3  -2   5 614.590 1446.41   1
  -1  -2   5 2120.70 954.806  11
  -2   3   5 1317.55 1107.93   8
  -1   3   5 1851.99 1124.95  10
  -3   1   5-1278.99 1828.43   2
  -3   1   5 3116.12 1278.38   8
   1  -3   5 445.660 1601.15   1
  -1  -2   5 778.506 1627.40   2
   3  -2   5 1795.90 1013.88   8
   2   1   5-958.958 1359.84   2
  -2  -1   5 3026.18 1209.55   8
  -1   3   5 2342.36 1247.94   8
  -2  -1   5 497.358 1552.59   1
  -2  -1   5 1611.60 869.066  11
  -3   2   5 1947.88 1063.80   8
   2  -3   5-243.805 1625.49   2
   1  -3   5 210.616 1642.30   2
   3  -1   5 2961.79 2122.86   2
  -1  -2   5 2842.48 1294.59   8
  -1  -2   5-372.812 1706.20   1
  -3   2   5 1731.31 2029.76   2
  -3   2   5 964.609 782.821  10
  -1   3   5-247.122 1418.28   2
  -3   2   6 27948.2 2554.89  11
  -3   1   6 36346.0 2838.59   8
  -3   2   6 33456.7 2847.20   8
   3  -1   6 33067.5 2737.28   8
  -1   3   6 34395.2 2852.46   8
   3  -2   6 38282.6 2833.32   8
  -2  -1   6 36020.2 3022.10   8
   1  -3   6 36672.0 2926.75   8
  -1  -2   6 34554.3 3005.68   8
  -2   3   6 38789.0 2944.56   8
  -3   1   6 28880.5 2538.14  11
   2  -3   6 36943.5 2963.66   8
   2   1   6 33244.9 2761.17   8
   1   2   6 37442.0 2969.32   8
   2   1   7 3680.41 1432.76   7
  -2   3   7 1230.43 1195.27   8
   3  -2   7 634.067 1256.70   8
  -2  -1   7-733.790 1483.21   8
  -3   1   7 2433.96 1449.00   8
  -1   3   7 822.649 1165.48   8
   1   2   7 2608.85 1325.13   7
   3  -1   7 1233.21 1180.81   8
  -3   2   7 2122.55 1344.32   8
   1  -3   7 1958.16 1502.89   8
   2  -3   7 935.566 1290.36   8
   1   2   7 1545.39 1267.92   8
  -1  -2   7-1182.72 1532.74   8
   2   1   7 644.021 1226.45   8
  -2   3   8 4679.14 1033.16   8
   2   1   8 6429.16 1118.49   8
   2   1   8-224.142 641.416   7
   3  -2   8 6746.12 1085.56   8
   1   2   8 5606.94 1056.78   8
   1   2   8-317.152 628.192   7
  -3   2   8 1283.84 657.001   7
   2  -3   8 2604.77 1022.25   7
   3  -1   8 1063.97 820.875   7
   3  -2   8 1244.19 857.194   7
  -1  -2   8 7154.38 1174.25   8
  -3   2   8 4939.40 989.006   8
  -3   1   8 5494.06 1050.09   8
  -2  -1   8 6598.29 1143.98   8
   1  -3   8 5443.88 1093.55   8
   2  -3   8 5760.49 1006.67   8
   3  -1   8 7106.36 1157.62   8
  -1   3   8 4816.36 959.127   8
   3   0  -8 3472.07 1026.59   6
   0   3  -8 4074.42 1091.07   6
  -3   3  -8 2835.51 792.376   6
   3   0  -7-3137.15 1554.27   6
   3  -3  -7 89.2022 873.442   6
  -3   3  -7 1398.22 1261.49   6
   0   3  -7 671.459 1421.54   6
   0   3  -6 46138.4 4092.34   6
  -3   3  -6 46420.3 4193.30   6
  -3   3  -5 142.650 1097.79   6
   0   3  -1 17560.7 1348.99   3
   0   3   0 14398.6 1624.08   3
  -3   3   0 8015.67 1160.89   4
  -3   0   0 13643.4 1241.14   1
   3   0   0 3142.16 693.911  12
   0   3   0 7415.86 1091.92   4
  -3   3   1 11296.1 1532.52   4
   0   3   1 19863.2 1230.30   1
   0   3   1 11088.8 1537.24   4
   3  -3   1 9676.53 1299.19  12
  -3   0   1 17535.3 1883.37   1
   0  -3   1 17663.5 1709.42   2
   0   3   1 16904.3 1048.02   2
  -3   0   1 17731.4 1838.87   2
  -3   3   1 17512.3 1852.04   2
   3   0   1 9799.97 1247.57  12
  -3   3   1 17860.2 1764.34   1
  -3   3   2 47528.5 3393.58   2
   0   3   2 50383.4 3738.59   4
   0  -3   2 47040.9 3405.53   2
  -3   3   2 48486.0 3409.20   1
   3   0   2 44518.9 3071.59   3
   0   3   2 44675.2 3195.32   3
   0   3   2 46481.3 2378.94   1
  -3   0   2 46546.4 3497.17   2
  -3   3   2 46532.5 3475.02   4
   0   3   2 42842.2 2556.53   2
  -3   0   2 41186.2 3475.41   1
  -3   3   3 11729.8 2300.65   2
   0  -3   3 13633.5 2516.61   2
  -3   3   3 9808.87 2123.61   1
   0   3   3 9614.02 1813.43   3
   3  -3   3 11316.9 2362.76   2
   3   0   3 10347.3 1861.21   2
  -3   0   3 12224.2 2472.08   2
   3   0   3 13137.0 2000.29   3
   0   3   3 12564.3 2051.54   2
   0   3   3 13183.9 1880.86   1
  -3   0   3 12193.4 2629.55   1
   0  -3   4 37004.6 4384.33   1
   0   3   4 40703.8 4013.33   2
  -3   0   4 39376.3 4639.19   2
   3  -3   4 38947.7 4504.06   2
   3   0   4 36160.1 3384.84   1
  -3   3   4 40654.9 4476.75   1
   0   3   4 44058.7 3929.23   3
   0  -3   4 39337.0 4490.41   2
  -3   3   4 44194.2 4638.68   2
   3   0   4 39322.2 3909.15   2
  -3   0   4 39543.4 4669.37   1
  -3   3   5 799.441 1973.08   2
  -3   3   5 737.118 1598.87   1
   3  -3   5 2021.42 1006.11   8
  -3   3   5 1042.08 919.422  11
  -3   0   5 863.624 909.457  11
  -3   0   5 3098.69 1213.62   8
   0  -3   5-456.705 1641.47   1
  -3   0   5-1050.62 1803.26   2
   0   3   5-431.308 1467.87   2
   3  -3   5 1513.26 1842.00   2
   3   0   5 1028.96 1665.54   2
   0   3   5 1527.46 1358.34   8
   0  -3   5 1525.84 1656.62   2
   0   3   5 75.9014 835.279  10
  -3   3   5 890.781 1042.38   8
  -3   3   5 454.641 899.006  10
  -3   0   5 2240.93 1975.56   1
   0  -3   5 3922.71 1334.27   8
   3  -3   5 353.621 1627.29   1
   3   0   5 2538.85 1297.94   8
   3  -3   6 53903.1 3347.48   8
  -3   0   6 42742.9 2917.36  11
   0  -3   6 58752.0 3582.48   8
   3   0   6 49817.2 3283.75   8
  -3   3   6 58630.0 3565.97   8
  -3   0   6 55364.5 3372.92   8
   0   3   6 53086.5 3549.05   8
   0  -3   7-1603.62 1463.68   8
   0   3   7 1793.47 1130.02   7
   3   0   7 3401.29 1534.04   7
   3  -3   7 1997.96 1236.04   8
  -3   0   7-1250.69 1370.08   8
  -3   3   7 712.837 1117.58   8
   0   3   7 314.978 1160.82   8
   3   0   7-1352.04 1234.75   8
  -3   0   8 2224.58 927.762   8
   3   0   8 226.320 691.976   7
   3   0   8 3028.01 921.359   8
   3  -3   8 3675.14 920.425   8
   0   3   8 2361.87 838.322   8
   0   3   8-773.739 636.142   7
  -3   3   8 1685.72 783.249   8
   3  -3   8 1330.40 857.106   7
   0  -3   8 2980.12 1004.80   8
   4  -2  -8 6093.60 947.045   6
   2   2  -8 8451.36 1427.92   6
  -2   4  -8 6919.94 1259.15   6
  -4   2  -7 2748.34 1238.32   6
  -2   4  -7 538.080 1219.54   6
   2   2  -7-1196.87 1433.32   6
  -2   4  -6 5013.44 1906.83   6
  -4   2  -6 5591.71 1724.02   6
  -4   2  -5 855.420 1104.91   6
  -2   4  -5 1081.43 1105.17   6
   2  -4   0 252448. 4761.17  12
  -2  -2   0 242545. 3729.63   2
  -4   2   0 240166. 4550.66   4
   2   2   0 245348. 3340.25  12
  -2  -2   0 253978. 4528.76   1
  -4   2   0 232512. 5748.62   1
   4  -2   0 236291. 5560.77  12
   2   2   0 243314. 4235.49   4
  -2   4   0 245596. 6157.47   3
   2   2   1 74.3826 295.508   2
  -2  -2   1 127.001 797.635   2
  -4   2   1 38.6135 994.515   1
  -2   4   1-262.264 718.182   1
  -4   2   1-47.5351 983.728   2
  -2  -2   2 2442.48 1151.03   2
   2   2   2 2735.35 845.887   2
  -2   4   2 2974.58 1084.76   1
  -4   2   2 3539.74 1515.94   1
  -4   2   2 2888.33 1417.40   2
  -2   4   2 1954.43 1131.78   4
  -2   4   2 2108.07 996.521   2
  -2  -2   2 1888.31 1220.93   1
   2   2   2 3543.45 1348.53   3
  -2   4   2 1897.82 1120.83   3
   2   2   2 2293.79 502.094   1
  -2  -2   3 1025.87 1210.30   2
  -2   4   3 98.0098 969.773   1
   4  -2   3 306.712 803.917   3
  -4   2   3-247.178 1384.65   1
  -2   4   3 897.736 1132.27   2
  -4   2   3 338.733 1334.33   2
   2   2   3-251.580 1019.61   3
   2   2   3 641.408 748.068   1
  -2   4   3 921.735 1430.20   3
  -2  -2   3 399.579 1492.53   1
   2  -4   3 172.401 1358.67   2
  -2   4   3 1433.14 1458.35   4
   2   2   3-168.661 870.514   2
   2   2   4 89359.1 5544.24   2
  -4   2   4 96024.6 7033.24   1
  -4   2   4 97403.0 7049.90   2
  -2  -2   4 83862.4 6627.96   1
  -2   4   4 87712.4 6168.25   2
   2  -4   4 90786.5 6661.29   2
   2   2   4 91078.3 5452.40   3
   4  -2   4 89954.5 6760.58   2
  -2   4   4 83804.0 5856.51   1
  -2  -2   4 87556.7 6561.57   2
  -2   4   5 2127.94 1428.57   8
  -4   2   5 1727.97 2118.00   2
  -2   4   5 1619.58 1722.75   2
  -2  -2   5-158.532 1681.08   2
   2  -4   5 1517.51 2072.13   2
  -4   2   5-377.901 1682.91   1
   2  -4   5 1911.40 1125.22   8
   2   2   5 1761.21 1383.09   8
  -2   4   5 1636.33 1175.36  10
  -4   2   5 2401.47 1161.12   8
   2  -4   5-1508.93 2125.87   1
   4  -2   5 2103.20 1117.99   8
  -4   2   5 1294.45 1033.99  11
  -2  -2   5 1387.49 912.318  11
  -2  -2   5 347.238 1630.45   1
   4  -2   5-290.652 1850.74   2
  -2  -2   5 2392.76 1268.57   8
  -2  -2   6 8449.87 1804.66   8
   2   2   6 5768.64 1626.60   8
  -4   2   6 5063.01 1460.20   8
  -2   4   6 8586.82 1825.99   8
   2  -4   6 5869.07 1578.38   8
  -4   2   6 5581.56 1499.83  11
   4  -2   6 5890.50 1479.28   8
   2  -4   7 190.072 1211.68   8
  -2   4   7 1799.39 990.730   7
  -4   2   7 1592.53 1286.73   8
   2   2   7-147.304 1178.67   8
   4  -2   7 3453.75 1620.24   7
   4  -2   7-816.159 1142.33   8
  -2  -2   7 175.654 1291.74   8
  -2   4   7-1475.06 1152.41   8
   2   2   7 2368.96 1275.42   7
  -2   4   8 5491.55 968.584   8
   4  -2   8 710.076 750.125   7
  -4   2   8 6964.05 1041.98   8
   2  -4   8 7840.63 1025.28   8
   4  -2   8 7382.50 1033.33   8
  -2  -2   8 9186.50 1211.13   8
   4  -1  -8 4143.03 967.885   6
  -1   4  -8 4684.63 1104.81   6
   3   1  -8 4922.07 1181.38   6
   1   3  -8 5455.05 1176.20   6
  -3   4  -8 4098.49 944.443   6
   1   3  -7 543.298 1366.22   6
   3   1  -7 863.193 1258.68   6
  -1   4  -7 384.289 1228.76   6
  -4   3  -7 1782.77 1212.72   6
  -3   4  -7 813.035 1137.18   6
  -3   4  -6 21833.8 2990.59   6
  -4   3  -6 18375.1 2673.11   6
  -1   4  -6 21765.1 2936.12   6
  -3   4  -5 1124.75 1207.64   6
  -1   4  -5 1253.70 1140.93   6
  -4   3  -5 699.302 1268.86   6
   1   3  -2 46288.2 1885.27   3
   1   3  -1 126162. 4198.75   3
  -1   4  -1 149548. 3788.94   3
   3   1   0 37386.1 2028.97  12
   1   3   0 23202.1 1787.90   4
  -1   4   0 14103.1 1717.43   3
  -4   3   0 10530.3 1509.03   1
   3  -4   0 36376.3 2169.67  12
   1   3   0 14320.2 1952.30   3
   4  -1   0 35489.7 2197.52  12
  -4   1   0 11283.6 1436.36   1
  -3  -1   0 11384.9 1199.01   1
  -4   3   0 24487.5 1918.67   4
  -4   1   0 21868.4 935.164   4
  -1   4   1 204266. 6420.32   4
  -4   1   1 138457. 5193.29   1
  -3  -1   1 139986. 4910.51   2
   1   3   1 197161. 5839.08   4
  -4   3   1 138948. 5226.01   2
  -4   3   1 133085. 4969.26   1
  -1  -3   1 134181. 4492.66   2
  -3   4   1 130707. 4532.92   1
  -3   4   1 198191. 6383.74   4
  -3  -1   1 138629. 5125.57   1
  -4   1   1 143918. 5242.83   2
  -4   3   1 192008. 5608.39   4
   1   3   2 56506.2 3982.44   3
  -4   1   2 58842.2 4181.61   2
   3   1   2 53428.4 2918.83   2
   3   1   2 57894.5 3840.65   3
  -3   4   2 43236.3 3677.29   4
  -1   4   2 60704.4 3032.38   1
   1   3   2 54427.4 1954.55   1
  -3  -1   2 55419.6 4183.03   1
  -4   1   2 58871.8 4160.86   1
  -4   3   2 58900.3 3966.11   2
  -3   4   2 58120.7 3661.96   2
   1   3   2 57410.6 2690.57   2
  -3  -1   2 60700.8 4033.79   2
  -1   4   2 54996.0 2996.50   2
   1   3   2 43608.7 3456.07   4
  -4   3   2 41296.4 3337.63   4
  -1   4   2 52818.8 3596.87   3
  -4   3   2 58141.6 3930.38   1
  -1  -3   2 62591.2 3931.67   2
  -1   4   2 39684.1 3645.40   4
  -3   4   2 57599.4 3650.02   1
   1  -4   2 55305.9 3783.00   2
   1   3   3 48313.5 3779.56   3
  -1   4   3 49872.6 3483.71   1
   1  -4   3 47360.8 4413.85   2
   4  -1   3 53268.3 3816.39   3
  -1   4   3 48568.0 3750.58   2
   3   1   3 48828.1 3545.12   2
   1   3   3 53151.0 3684.58   2
  -3   4   3 60101.9 4972.69   4
  -1   4   3 60669.0 5265.76   4
  -1  -3   3 53286.3 4394.98   2
  -3   4   3 45784.5 4057.67   2
  -4   1   3 46845.4 4684.28   1
  -4   1   3 42372.7 4388.34   2
   3   1   3 52458.9 3253.34   1
  -4   3   3 45242.4 4303.91   1
   3   1   3 48358.9 3818.74   3
  -3   4   3 45938.6 3979.85   1
  -1   4   3 50741.1 4016.05   3
  -3  -1   3 46978.6 4322.07   2
  -3  -1   3 50115.9 4740.11   1
   4  -1   3 46595.8 4007.78   2
  -4   3   3 45529.8 4282.39   2
   3   1   4 66512.2 4588.52   3
  -3  -1   4 61709.4 5765.41   1
  -3  -1   4 64209.1 5594.88   2
  -1  -3   4 69185.8 5692.58   2
   4  -3   4 63489.9 6006.74   2
   3   1   4 63539.4 4719.52   2
   1   3   4 57359.2 4522.40   2
   1   3   4 61619.4 4691.14   3
  -1  -3   4 58380.2 5562.93   1
  -4   3   4 64259.7 5836.02   2
  -3   4   4 64159.2 5364.85   1
  -4   3   4 62725.8 5775.95   1
   4  -1   4 64262.4 5361.99   2
  -1   4   4 68985.8 5249.40   2
  -4   1   4 66669.8 6040.15   2
   1  -4   4 67290.6 5708.58   2
  -3   4   4 61789.4 5374.15   2
  -1   4   4 67207.6 5044.14   3
  -4   1   4 71501.7 6255.10   1
   3  -4   4 63523.6 5793.25   2
   1  -4   5 1707.81 2052.47   1
  -1  -3   5-502.866 1713.10   2
  -3  -1   5 1520.06 908.724  11
  -4   1   5 921.241 1700.10   1
   4  -3   5 490.558 1007.61   8
  -1   4   5 2362.05 1161.08  10
   3  -4   5 2197.50 1101.82   8
  -4   1   5 2133.90 1071.13  11
  -1   4   5 2513.32 1494.70   8
  -4   3   5 614.646 1435.86   1
  -4   3   5 1266.16 1021.17  10
  -4   1   5-498.696 1760.33   2
  -4   3   5 2036.04 1184.30   8
   3  -4   5 367.520 1993.51   1
  -1  -3   5 3282.05 1407.65   8
   4  -3   5 3049.73 2416.82   2
   1   3   5 162.692 848.763  10
   1  -4   5 662.351 1657.84   2
   3   1   5 530.396 1179.61   8
   4  -1   5 1118.04 1845.57   2
  -3   4   5 2145.93 1118.32  10
  -3   4   5 223.032 1433.84   1
  -3  -1   5-357.733 1582.80   2
   1   3   5 4171.07 1538.19   8
   1  -4   5 4228.46 1430.39   8
  -4   3   5-482.918 1688.40   2
   4  -3   5-1444.77 1719.85   1
  -3   4   5 2025.73 975.177  11
  -4   1   5 4084.83 1385.83   8
  -3   4   5 1689.98 1827.67   2
  -3  -1   5 2347.33 1227.38   8
  -4   3   5 1704.47 1057.08  11
   4  -1   5 2651.35 1209.83   8
   3  -4   5 2500.64 2082.65   2
  -3   4   5-607.700 1330.23   8
  -1  -3   5 1844.83 1903.77   1
  -3  -1   5-335.239 1944.31   1
  -1  -3   5 1808.70 918.102  11
   3   1   6 19634.1 2248.58   8
   1   3   6 22056.9 2397.00   8
  -3  -1   6 18650.6 2042.58  11
  -3   4   6 24729.3 2455.51   8
  -1  -3   6 24930.4 2538.87   8
  -3  -1   6 23115.3 2457.27   8
  -4   3   6 17848.3 2219.94  11
  -4   3   6 25178.3 2408.23   8
   4  -3   6 21114.2 2196.91   8
   3  -4   6 22995.8 2307.53   8
   1  -4   6 24310.5 2478.85   8
  -4   1   6 23667.8 2454.17   8
  -1   4   6 23141.2 2419.68   8
   4  -1   6 22464.2 2273.37   8
  -4   1   6 16672.2 2113.76  11
  -1  -3   7-442.646 1293.39   8
  -1   4   7 1224.63 1047.60   8
   1   3   7 1764.70 1208.66   8
  -3  -1   7 527.576 1255.61   8
  -4   3   7 1733.91 1165.09   8
   4  -1   7 1346.05 1136.92   8
   4  -3   7 519.736 988.317   8
   1   3   7 1287.83 1069.98   7
   3   1   7 2678.11 1306.86   7
   4  -1   7 1726.56 1435.91   7
  -3   4   7 493.225 965.949   8
   1  -4   7-2025.35 1492.79   8
   3   1   7 539.593 1101.92   8
  -4   1   7-1054.08 1370.91   8
  -1   4   7 1128.13 964.298   7
   3  -4   7 288.458 1055.66   8
   3  -4   8 4718.62 860.307   8
  -3   4   8 2885.45 774.295   8
   1   3   8-613.461 546.337   7
  -4   1   8 3415.85 915.009   8
  -4   3   8 5307.69 939.719   8
  -1  -3   8 5716.04 1009.76   8
   1  -4   8 4017.16 940.160   8
   3   1   8-610.506 689.947   7
   4  -3   8 838.490 736.551   7
   3  -4   8 1495.87 871.245   7
   4  -3   8 4009.85 815.699   8
  -3  -1   8 4622.67 1001.61   8
   4  -1   8 2.92320 710.669   7
   4   0  -8 3325.78 957.458   6
   0   4  -8 3421.38 1039.42   6
  -4   4  -8 2892.42 769.001   6
  -4   4  -7 218.310 1008.19   6
   0   4  -7 405.185 1240.74   6
  -4   4  -6 22381.1 2906.31   6
   0   4  -6 18890.0 2877.46   6
  -4   4  -5 7434.12 1965.12   6
   0   4  -1 62290.0 3021.09   3
   4  -4   0 4661.06 1090.44  12
  -4   0   0 4122.76 1022.36   1
   4   0   0 4195.48 931.064  12
   0   4   0 5033.57 1203.80   4
   0   4   0 3404.72 1286.26   3
  -4   4   0 5056.88 1281.13   4
  -4   4   1 63297.7 3508.61   1
   4   0   1 62919.6 3211.41  12
  -4   4   1 49982.0 3168.83   4
   0   4   1 49881.6 3235.08   4
   0  -4   1 58851.8 3081.30   2
   0   4   1 64933.1 3982.18   3
   4  -4   1 43578.9 2877.69  12
  -4   0   1 62963.0 3602.56   2
  -4   0   1 65396.1 3741.82   1
   0  -4   2 101481. 5059.44   2
  -4   4   2 78993.0 4891.72   4
   0   4   2 88148.5 5167.20   4
  -4   0   2 99461.9 5540.12   2
  -4   4   2 98927.6 5145.56   1
   0   4   2 104717. 5233.70   3
   0   4   2 99411.1 3158.82   1
   0   4   2 96089.6 3568.37   2
   4   0   2 104162. 5237.33   3
  -4   4   2 101009. 5214.59   2
  -4   0   2 92944.0 5488.26   1
  -4   0   3 76579.4 5973.34   1
  -4   4   3 70672.4 5084.51   2
   0   4   3 71337.6 4674.35   3
  -4   0   3 67455.4 5444.71   2
   0  -4   3 73395.0 5231.90   2
   4   0   3 70577.3 4513.76   2
   4   0   3 82170.7 5187.09   3
  -4   4   3 69634.1 5086.83   1
   0   4   3 75406.5 4310.04   2
  -4   4   4 36776.7 4379.03   2
  -4   4   4 38162.1 4494.60   1
   4  -4   4 40550.9 4923.09   2
   4   0   4 38573.7 3891.65   2
   0   4   4 40195.9 3901.94   3
  -4   0   4 45501.4 5233.98   1
  -4   0   4 43470.3 4926.80   2
   0   4   4 42019.8 3997.17   2
   0  -4   4 43175.9 4766.46   2
   0  -4   5 7539.02 2712.95   1
   0   4   5 5952.65 1552.27  10
  -4   4   5 6966.17 1535.91  10
  -4   0   5 8488.53 2875.61   1
  -4   4   5 6116.23 1423.85  11
  -4   4   5 7888.85 1548.60   8
   0   4   5 9698.21 1979.97   8
   0  -4   5 7897.79 1685.49   8
   4   0   5 8105.98 1589.78   8
   4   0   5 7458.23 2220.20   2
  -4   0   5 9781.65 3062.42   2
   4  -4   5 7489.87 1435.48   8
  -4   0   5 7459.29 1464.47  11
  -4   4   5 4977.76 2346.57   1
   4  -4   5 9793.38 3021.99   2
  -4   0   5 7524.85 1534.66   8
  -4   4   5 5132.63 2381.20   2
   0  -4   5 6179.33 2705.33   2
  -4   0   6 21590.3 2153.00  11
   4  -4   6 22705.7 2275.69   8
   0   4   6 20952.8 2341.20   8
  -4   0   6 24710.4 2427.99   8
   4   0   6 19591.9 2137.27   8
  -4   4   6 20321.9 2372.00   8
   0  -4   6 25756.5 2461.36   8
   0  -4   7-1055.11 1363.55   8
   4   0   7 220.853 1045.80   8
   4  -4   7-853.133 1071.34   8
   0   4   7-357.175 1063.66   8
   0   4   7-11.2174 789.138   7
  -4   4   7 665.922 981.254   8
   4   0   7 505.936 1070.94   7
  -4   0   7-2051.52 1370.49   8
   4  -4   8 2802.50 689.422   8
   0  -4   8 4118.86 921.007   8
   4   0   8-643.042 732.828   7
   4  -4   8 621.252 702.770   7
  -4   4   8 1928.79 683.246   8
  -4   0   8 3364.69 865.578   8
   3   2  -8 5730.81 1174.40   6
   2   3  -8 5276.85 1125.36   6
  -3   5  -8 4753.18 989.514   6
  -2   5  -8 4985.64 1047.44   6
   5  -2  -8 3628.86 813.648   6
  -2   5  -7 956.504 1254.65   6
   2   3  -7 591.460 1285.39   6
  -3   5  -7 1539.03 1228.55   6
   3   2  -7-738.103 1322.31   6
  -5   3  -7 517.663 891.298   6
  -5   3  -6 1754.76 1314.01   6
  -2   5  -6 1989.87 1559.59   6
  -5   2  -6 1850.67 1216.04   6
  -3   5  -6 3749.86 1707.82   6
  -5   3  -5 342.189 993.276   6
  -5   2  -5 1872.46 1181.89   6
  -3   5  -5-438.831 1247.59   6
  -2   5  -5 54.5077 1220.77   6
   2   3  -2 50354.0 2757.55   3
   2   3  -1 54381.0 3384.04   3
   3   2   0 240113. 4063.89   4
  -5   2   0 211920. 4152.35   4
   3  -5   0 245203. 5823.52  12
  -2  -3   0 183458. 4506.39   1
   5  -3   0 219777. 6385.00  12
  -3   5   0 203722. 6552.61   4
  -5   2   0 179198. 5718.91   1
   2   3   0 182629. 6362.19   3
  -2   5   0 195744. 5949.89   3
   2  -5   0 250390. 5062.34  12
   5  -2   0 230726. 6283.33  12
  -5   3   0 208077. 5166.84   4
  -5   3   0 166895. 5631.46   1
   2   3   0 213982. 4931.14   4
  -2   5   0 205880. 6386.50   4
  -3  -2   0 185093. 4367.56   1
   3   2   1 57238.6 2986.52   4
  -3  -2   1 55912.8 3233.48   2
  -5   2   1 55486.2 3606.50   1
  -2   5   1 51261.6 3458.66   3
  -3   5   1 58142.0 3793.68   3
  -5   2   1 53712.6 2600.41   4
  -3   5   1 57654.0 3396.17   1
   3  -5   1 59486.8 2971.05  12
   5  -3   1 58322.4 3550.51  12
   2   3   1 59027.8 3284.34   4
  -5   2   1 60827.0 3829.44   2
  -3   5   1 59531.7 3792.75   4
  -5   3   1 56535.9 3649.93   1
   2   3   1 56990.6 3826.88   3
  -2  -3   1 59747.8 3223.27   2
  -3  -2   1 56331.3 3519.61   1
   3   2   1 57523.9 3676.66   3
   5  -2   1 60759.8 3596.48  12
  -2   5   1 61311.9 3844.67   4
  -5   3   1 55848.7 3064.63   4
  -5   2   2 51221.4 4135.32   2
   2   3   2 51129.0 4109.31   3
  -5   3   2 53644.2 4181.28   2
  -3   5   2 61598.7 4149.53   3
  -3   5   2 50929.3 3502.58   1
  -2   5   2 50756.7 3186.18   2
  -5   3   2 47947.5 3940.15   1
   2   3   2 66155.6 4353.23   4
  -2   5   2 57857.7 3888.50   3
  -2   5   2 60842.3 4816.12   4
  -3   5   2 63919.8 4748.45   4
  -3  -2   2 48626.5 3768.31   2
   3   2   2 49903.4 3971.48   3
  -5   3   2 63551.5 4059.63   4
   3   2   2 59964.6 2907.54   2
   2   3   2 48738.6 2261.17   2
  -2   5   2 51368.0 3147.76   1
  -3   5   2 50802.5 3450.57   2
  -2  -3   2 48784.4 3677.71   2
  -5   2   2 46414.7 3927.63   1
  -3  -2   2 45725.2 4032.89   1
  -5   3   3 1701.41 1546.95   2
  -2  -3   3 1486.80 1356.04   2
  -2   5   3 957.591 1332.43   4
   2   3   3 840.559 908.202   2
   3   2   3 2354.75 1078.07   2
  -2   5   3 766.220 1000.44   1
  -3   5   3 873.873 1003.61   1
   3   2   3-632.418 1414.40   3
   3  -5   3 467.941 1292.60   2
  -3   5   3 245.026 1024.24   2
  -3  -2   3 1008.26 1525.44   2
  -5   2   3 1039.87 1578.61   2
  -3   5   3 1343.72 1486.57   4
  -2   5   3 1646.02 1161.90   2
  -5   2   3-196.748 1405.11   1
  -5   3   3 593.858 1329.31   1
  -2  -3   3 1000.93 1484.16   1
  -3  -2   3 104.904 1383.69   1
   5  -2   3 839.702 914.214   3
   2   3   3 1039.25 1273.59   3
   2  -5   3 412.550 1259.92   2
  -2   5   3 1518.64 1355.73   3
  -3  -2   4 51332.5 5437.05   1
   3   2   4 53939.8 4595.40   3
  -2  -3   4 52139.1 5368.24   1
  -5   2   4 58378.2 5852.19   2
  -3   5   4 52056.0 5089.71   2
  -2  -3   4 50678.7 5087.18   2
   2   3   4 50811.8 4440.37   3
  -2   5   4 50036.5 4692.51   2
  -3   5   4 51310.3 4762.33   1
  -3  -2   4 53249.1 5204.81   2
   2  -5   4 53815.4 5512.94   2
  -5   2   4 56355.0 5774.05   1
  -5   3   4 57240.2 5756.74   1
   3  -5   4 55389.9 5585.80   2
   5  -3   4 55341.7 5745.24   2
   5  -2   4 57097.7 5676.74   2
  -5   3   4 54449.2 5704.66   2
  -3   5   5-1216.54 1631.82   2
  -2  -3   5-1636.46 1800.52   2
  -5   3   5 621.888 998.034  11
  -2  -3   5 859.274 904.960  11
   2  -5   5 1671.30 1822.86   2
   3  -5   5 2375.95 2270.73   2
   3  -5   5 1409.85 1074.30   8
  -5   3   5-153.662 843.630  10
   3   2   5-523.043 1238.56   8
  -3   5   5-523.449 817.972  11
  -3  -2   5 1351.40 1328.62   8
   2   3   5-575.656 1307.93   8
  -3  -2   5-422.485 2087.59   1
  -3   5   5 774.637 1212.80   8
   2  -5   5-462.712 1876.74   1
  -5   3   5-672.667 1541.33   1
  -5   2   5 1435.57 1194.49   8
  -5   3   5 343.343 1105.02   8
  -2   5   5 299.665 1180.12   8
  -5   2   5 2296.83 2158.86   2
  -5   3   5 32.2455 1826.55   2
  -2   5   5 349.042 1072.99  10
   5  -2   5-831.872 1810.67   2
  -2  -3   5-742.485 1759.52   1
  -3   5   5 807.975 1214.07  10
  -5   2   5 1199.56 2025.38   1
  -2  -3   5 2537.49 1420.75   8
   5  -3   5-197.570 920.509   8
  -3  -2   5 1658.76 1974.46   2
  -5   2   5 1069.66 1019.12  11
   2  -5   5 1055.66 1019.59   8
  -3  -2   5 468.958 833.024  11
   5  -2   5 666.156 998.543   8
   5  -3   5-37.1755 1880.33   2
   2  -5   6 2296.24 1305.85   8
   3  -5   6 955.380 1199.98   8
   3   2   6 1215.63 1320.84   8
  -5   3   6 1500.75 1183.47  11
  -3  -2   6 4833.88 1573.58   8
   2   3   6 2516.90 1579.93   7
   5  -2   6 1634.02 1106.04   8
  -3   5   6 2169.96 1321.52   8
   3   2   6 3251.49 1510.23   7
  -3  -2   6 2970.77 1124.28  11
  -5   2   6 2602.12 1284.22   8
  -2  -3   6 3411.43 1515.15   8
   2   3   6 488.318 1293.08   8
  -5   3   6 1429.95 1268.25   8
   5  -3   6 3138.18 1263.04   8
  -5   2   6 1104.77 1088.04  11
  -2   5   6 2431.83 1420.58   8
  -3   5   6 1621.81 1205.42  10
  -2   5   6 938.021 1119.57  10
   2  -5   7 557.211 1082.74   8
  -5   3   7 764.496 1073.65   8
  -5   2   7 1801.20 1222.29   8
   5  -3   7 2754.94 1506.64   7
  -3   5   7 683.138 1015.47   8
   2   3   7-1052.79 973.631   7
   5  -2   7 1669.37 1218.52   7
   3  -5   7 912.848 1050.22   8
  -3  -2   7 294.938 1169.55   8
   5  -3   7-495.410 915.875   8
   3   2   7 376.069 1102.71   8
   5  -2   7 686.519 983.639   8
  -2  -3   7-560.920 1196.07   8
  -2   5   7 82.1308 953.008   8
   2   3   7 344.257 1102.75   8
   3   2   7 1396.15 1102.18   7
  -2  -3   8 5294.95 996.966   8
  -5   3   8 5409.70 873.249   8
   2  -5   8 4067.79 815.214   8
  -5   2   8 4899.56 864.414   8
   5  -3   8-24.3968 624.441   7
   3  -5   8 4067.14 764.787   8
   3   2   8 626.731 588.982   7
   5  -2   8-182.710 667.515   7
   3  -5   8 1373.57 762.605   7
   2   3   8 1548.25 595.368   7
  -3  -2   8 5482.46 1008.35   8
   1   4  -8 3599.01 984.049   6
   4   1  -8 4143.14 1012.15   6
  -1   5  -8 3950.91 944.659   6
   5  -1  -8 2975.87 857.394   6
  -4   5  -8 2863.40 777.336   6
   1   4  -7 896.035 1265.35   6
  -4   5  -7 1121.92 1123.65   6
  -1   5  -7 1273.70 1398.95   6
  -5   4  -7 393.670 905.635   6
  -4   5  -6 9069.24 2273.02   6
  -1   5  -6 9168.68 2204.11   6
   1   4  -6 8154.03 2146.74   6
  -5   4  -6 7948.57 2012.96   6
  -5   4  -5 7661.91 1982.63   6
  -1   5  -5 7049.89 1860.11   6
  -4   5  -5 8051.65 2006.40   6
  -1   5  -1 38997.0 2401.72   3
   1   4  -1 39824.6 2865.22   3
  -4   5   0 5512.68 1345.74   4
  -5   1   0 6740.85 1257.57   1
   1  -5   0 2498.04 440.319  12
   1   4   0 6741.98 1648.44   3
  -1   5   0 3706.89 1124.60   4
   1   4   0 5242.69 1104.89   4
  -1   5   0 6169.38 1458.40   3
  -4  -1   0 6175.03 1109.36   1
   5  -4   0 3430.50 1041.06  12
   4  -5   0 2806.55 942.910  12
  -1  -4   0 4906.58 496.370   2
   4   1   0 2898.27 812.020  12
   5  -1   0 3249.79 955.211  12
  -5   4   0 5253.84 1142.02   4
  -4   5   1 38548.2 3142.31   4
  -1  -4   1 38680.5 2627.95   2
  -4  -1   1 39915.5 3092.39   1
  -5   1   1 36857.3 3028.43   1
   1   4   1 43036.9 3645.66   3
  -1   5   1 36854.6 3176.44   3
   5  -1   1 39469.7 2919.17  12
  -4  -1   1 38002.2 2916.39   2
  -5   4   1 41128.5 2909.74   4
  -1   5   1 39903.8 3184.41   4
   1   4   1 38556.6 2907.58   4
  -5   1   1 43121.2 3277.01   2
   4  -5   1 38330.3 2734.47  12
   5  -4   1 40850.9 3078.70  12
  -5   4   1 37269.3 2966.54   1
  -4   5   1 38905.1 2945.12   1
  -1   5   2 67779.9 4907.20   4
  -4   5   2 80068.4 4644.77   2
  -5   4   2 78968.2 4935.87   2
  -5   1   2 78617.1 5249.38   2
  -5   4   2 66954.4 4454.42   4
   4   1   2 81129.0 4969.26   3
  -4   5   2 66845.7 4840.62   4
   1   4   2 75686.0 2645.72   2
  -1   5   2 79579.7 3515.19   2
  -4  -1   2 73801.5 5065.71   1
  -5   1   2 76098.7 5079.81   1
  -5   4   2 75716.5 4820.40   1
   1   4   2 74943.1 4922.89   3
  -4  -1   2 80222.5 5031.41   2
   1  -5   2 70670.7 4539.38   2
  -1  -4   2 80614.0 4583.71   2
  -1   5   2 82501.8 3492.30   1
   1   4   2 69968.5 4685.08   4
  -4   5   2 78570.9 4649.25   1
  -1   5   2 75054.4 4535.64   3
   1  -5   3 20069.5 3074.23   2
  -5   1   3 15752.7 2992.15   1
  -1  -4   3 19566.3 3013.57   2
  -1   5   3 19098.3 2309.58   2
   4   1   3 22444.2 2427.07   2
  -1   5   3 20542.5 2768.19   3
   4   1   3 19391.2 3036.43   3
  -4  -1   3 16039.5 2904.76   2
   5  -1   3 19601.2 2803.85   3
  -5   4   3 16146.0 2854.13   1
  -4   5   3 19003.0 3062.26   4
  -1   5   3 20556.6 3262.10   4
  -4   5   3 17293.1 2669.81   2
  -4   5   3 18145.4 2710.70   1
  -5   1   3 19304.2 3243.71   2
  -4  -1   3 21211.1 3439.14   1
   1   4   3 18343.4 2816.99   3
  -1   5   3 15694.2 1898.55   1
  -5   4   3 19259.8 3054.50   2
   1  -5   4 43315.3 4987.15   2
   5  -4   4 38552.3 5026.64   2
   4   1   4 38580.5 3960.59   3
  -1  -4   4 39138.2 4625.98   2
   1   4   4 37834.7 4015.71   3
  -5   1   4 42697.2 5167.57   2
  -5   1   4 45530.9 5536.22   1
  -5   4   4 37230.8 4777.69   2
   5  -1   4 39462.0 4436.05   2
  -1  -4   4 36338.1 4654.57   1
  -5   4   4 41411.6 4803.60   1
  -4   5   4 40543.8 4511.98   1
  -4  -1   4 41326.8 4813.87   2
  -1   5   4 39496.9 4177.60   3
   4  -5   4 39688.2 4931.27   2
  -4  -1   4 45146.9 5170.49   1
  -4   5   4 31817.8 4288.18   2
  -4   5   5 9348.27 1756.93  10
   1   4   5 9436.01 1816.68   8
   1  -5   5 6884.71 2867.34   2
  -4  -1   5 6914.27 1368.55  11
   4  -5   5 3841.08 2396.97   2
  -5   4   5 5508.35 2621.54   2
  -5   4   5 9412.25 1648.70   8
   5  -1   5 7774.67 1458.10   8
  -5   1   5 9646.08 1579.86   8
   4   1   5 10770.8 1743.30   8
  -1  -4   5 7357.70 1354.94  11
   4  -5   5 7967.97 1433.63   8
   5  -1   5 6229.96 2332.97   2
  -1  -4   5 4955.21 2581.21   1
  -4   5   5 11386.6 1897.84   8
  -5   4   5 5858.95 2458.28   1
  -5   1   5 6637.87 1425.66  11
  -5   1   5 6057.56 2931.13   2
  -4   5   5 6452.70 2335.37   1
  -5   1   5 5685.64 2577.27   1
  -1  -4   5 9277.22 1796.13   8
  -4  -1   5 8483.28 1719.10   8
  -5   4   5 6964.46 1587.59  11
  -4   5   5 7396.43 2702.85   2
  -4  -1   5 5884.03 2604.60   2
  -5   4   5 7353.28 1461.01  10
  -4   5   5 5640.89 1348.14  11
  -4  -1   5 8689.93 2976.91   1
   5  -4   5 11388.1 1734.25   8
   1  -5   5 10185.1 1659.69   8
   1   4   5 9909.04 2072.97   7
   1  -5   5 5663.27 2667.26   1
  -1   5   5 8441.36 1809.21   8
  -1  -4   5 5964.20 2605.08   2
   5  -4   5 6794.94 2956.22   2
  -1   5   5 6676.52 1773.68  10
   1   4   5 6583.16 1464.68  10
  -4   5   6 6903.18 1586.81  10
   5  -1   6 8058.89 1537.60   8
   1   4   6 5450.79 1651.52   7
  -1   5   6 5322.28 1506.39   7
  -5   1   6 8796.40 1678.84  11
  -5   4   6 10939.7 1734.74   8
   1   4   6 9622.50 1849.01   8
   4   1   6 8522.77 1657.97   8
  -1   5   6 10380.8 1813.78   8
   5  -4   6 10805.8 1700.12   8
  -5   1   6 10574.5 1843.95   8
  -4  -1   6 8902.16 1827.85   8
   4   1   6 6708.43 2015.06   7
   5  -1   6 10051.9 2099.88   7
  -5   4   6 8906.09 1748.85  11
  -4   5   6 8979.92 1739.06   8
   1  -5   6 11464.1 1846.04   8
  -4  -1   6 7550.23 1551.43  11
  -1  -4   6 11239.8 1890.90   8
   4  -5   6 10941.4 1689.41   8
   1  -5   7-938.002 1224.15   8
   1   4   7-117.655 808.963   7
  -1  -4   7-1130.64 1265.43   8
  -5   4   7-242.964 958.618   8
   4   1   7 34.7107 991.200   8
  -4  -1   7-772.063 1250.31   8
  -5   1   7-1043.90 1252.22   8
  -1   5   7-8.33679 994.475   8
   5  -1   7 980.860 991.356   8
   5  -4   7-265.757 856.153   8
   5  -1   7 1557.81 1233.96   7
  -4   5   7-283.324 985.440   8
   1   4   7 796.964 1063.59   8
   4  -5   7 304.832 911.490   8
   4   1   7-157.792 1044.07   7
   5  -4   7 4799.94 1535.13   7
  -4  -1   8 4174.67 900.826   8
   4  -5   8 960.889 656.575   7
  -1  -4   8 3296.29 877.194   8
  -5   1   8 3953.12 841.742   8
   1  -5   8 2585.66 734.928   8
  -5   4   8 2117.48 632.579   8
   4   1   8-449.340 584.362   7
   5  -1   8-705.029 721.357   7
   4  -5   8 2919.70 643.292   8
   5  -4   8-346.548 612.279   7
   5   0  -8 3639.42 885.524   6
  -5   5  -8 2751.20 699.138   6
   0   5  -8 4310.97 971.694   6
  -5   5  -7 4255.47 1316.07   6
   0   5  -7 3297.04 1608.46   6
  -5   5  -6 7417.11 1955.23   6
   0   5  -6 8875.90 2165.68   6
   0   5  -5 20287.1 2728.73   6
  -5   5  -5 20997.0 2854.41   6
   0   5  -1 21406.4 2112.23   3
   0   5   0 6040.96 1430.45   4
   5   0   0 6749.54 1226.06  12
   0   5   0 9924.75 1824.18   3
  -5   5   0 6376.61 1436.85   4
   5  -5   0 6554.55 1420.72  12
  -5   0   1 20493.0 2360.85   1
   0   5   1 23579.0 2420.64   4
   0   5   1 23225.4 2842.87   3
  -5   5   1 20888.1 2388.74   1
  -5   5   1 22622.1 2443.92   4
   5   0   1 25037.0 2266.30  12
  -5   0   1 20975.5 2455.43   2
   5  -5   1 24165.4 2413.52  12
   0  -5   1 18881.8 1962.71   2
   0   5   2 99824.9 5735.25   3
   5   0   2 107686. 5977.31   3
  -5   5   2 114767. 6134.00   4
  -5   0   2 101735. 6045.39   1
  -5   5   2 100510. 5469.61   1
   0  -5   2 99675.0 5249.37   2
  -5   0   2 100239. 5849.27   2
   0   5   2 117209. 6321.99   4
  -5   5   2 99757.5 5634.73   2
   0  -5   3 8739.62 2208.80   2
  -5   0   3 8652.90 2469.66   1
  -5   5   3 5964.78 1956.38   4
   5   0   3 5372.42 1418.50   2
   0   5   3 7571.09 2114.80   4
   0   5   3 5866.36 1788.19   3
   5   0   3 11161.7 2441.62   3
  -5   5   3 7850.99 2004.43   2
  -5   5   3 9335.27 2314.48   1
  -5   0   3 8311.01 2376.21   2
   0  -5   4 61954.8 5789.26   2
  -5   0   4 61798.4 6026.17   2
   0   5   4 60209.8 4976.05   3
  -5   5   4 58930.7 5675.32   1
  -5   5   4 57931.3 5721.58   2
   5   0   4 55883.6 4698.54   2
  -5   0   4 69915.9 6596.92   1
   5  -5   4 63206.9 6469.09   2
  -5   0   5 18691.2 3866.04   2
  -5   0   5 24108.6 2362.81   8
   0   5   5 26675.7 2632.03   8
   0   5   5 14615.8 2347.43   7
  -5   0   5 20989.5 2162.14  11
  -5   5   5 15018.9 3555.47   2
   0  -5   5 19950.8 4212.45   2
  -5   5   5 18915.9 3723.58   1
   0  -5   5 25387.1 2440.56   8
  -5   5   5 22543.3 2330.45  10
  -5   5   5 23887.6 2324.18   8
  -5   0   5 22506.4 4179.32   1
   0  -5   5 20618.4 4146.82   1
   5  -5   5 21570.0 2053.54   8
   5   0   5 26797.7 2933.89   7
  -5   5   5 18340.3 2143.33  11
   5  -5   5 23705.0 4496.14   2
   0   5   5 20690.3 2276.28  10
   5   0   5 21645.5 2219.25   8
   5   0   6 7735.03 1964.23   7
   0   5   6 4374.89 1543.03   7
   0   5   6 9318.19 1852.95   8
  -5   5   6 10123.9 1724.07   8
   5   0   6 7573.04 1623.60   8
  -5   0   6 9521.98 1783.26   8
  -5   5   6 7251.88 1664.96  11
   5  -5   6 10389.4 1575.19   8
   0  -5   6 8890.95 1772.37   8
  -5   0   6 7614.18 1578.67  11
  -5   5   7 2398.02 951.033   8
   5   0   7 3024.45 1166.21   8
   0  -5   7 4304.01 1326.84   8
   5   0   7 1252.50 1157.75   7
   5  -5   7 3006.45 972.718   8
  -5   0   7 3929.07 1367.23   8
   0   5   7 2945.47 1160.47   8
  -5   0   8 3672.27 810.794   8
   5   0   8 357.550 625.932   7
   0  -5   8 4173.07 836.160   8
   5  -5   8-163.558 537.959   7
   6  -3  -8 1828.25 541.827   6
   3   3  -8 3550.41 887.894   6
  -3   6  -8 3022.03 799.987   6
  -3   6  -7-17.2381 1137.88   6
   3   3  -7-2070.51 1450.08   6
  -6   3  -6 1539.75 1068.33   6
  -3   6  -6 1657.58 1497.91   6
  -3   6  -5 890.322 1254.78   6
  -6   3  -5-517.545 1121.70   6
  -3  -3   0 288030. 5695.29   1
   3   3   0 300770. 9043.15   3
  -3   6   0 281588. 8501.01   4
   3  -6   0 280801. 6556.42  12
  -6   3   0 284475. 8276.12   1
   6  -3   0 272009. 7909.13  12
   3   3   0 283340. 5441.48   4
  -6   3   1 1868.31 757.225   4
   3   3   1-297.666 1148.28   3
  -3  -3   1 440.319 773.259   2
   3  -6   1 2385.05 791.557  12
   3   3   1 1781.12 880.246   4
  -3   6   1 1463.02 1083.70   4
   6  -3   1 3243.36 1128.53  12
  -3  -3   1 340.899 932.960   1
  -6   3   1-267.027 983.727   1
  -3   6   1 871.967 1369.09   3
  -3   6   2 119162. 5387.84   1
  -3  -3   2 102938. 5517.62   2
   3   3   2 112072. 6255.54   3
  -3   6   2 94940.2 6110.39   4
  -6   3   2 118037. 6525.23   2
  -3   6   2 103967. 5908.96   3
  -6   3   2 108227. 6087.55   1
  -3  -3   2 105700. 6116.77   1
   3  -6   3-874.924 1735.77   2
  -3   6   3 620.179 1431.66   4
  -6   3   3-883.699 1642.34   1
  -3  -3   3 258.856 1121.96   2
  -3   6   3 274.366 869.992   1
  -6   3   3-1187.04 1581.41   2
   3   3   3 661.819 1428.34   3
   6  -3   3 303.208 970.444   3
  -3   6   3-689.071 1103.68   2
  -3  -3   3-28.8980 1480.45   1
   6  -3   4 16106.2 3464.40   2
   3   3   4 17746.6 3086.34   3
  -3  -3   4 17943.5 3477.94   1
  -3  -3   4 16490.0 3162.90   2
  -3   6   4 17246.5 2969.25   2
   3  -6   4 19748.6 3788.56   2
  -6   3   4 16507.7 3450.63   1
  -6   3   4 16461.7 3489.93   2
  -3  -3   5 1742.91 1289.31   8
   6  -3   5-395.824 923.235   8
  -6   3   5 1265.48 1025.27   8
  -3  -3   5-295.471 793.513  11
   3  -6   5 709.118 974.728   8
  -3  -3   5-2039.52 2061.17   1
  -6   3   5 321.897 986.724  11
  -6   3   5-1595.32 2095.46   1
   3   3   5 1987.90 1403.05   7
   3   3   5-242.606 1317.29   8
  -3  -3   5-661.415 1703.81   2
  -3   6   5 465.967 1148.48  10
  -6   3   5-2204.42 2196.56   2
   3  -6   5 1002.23 1995.03   2
   6  -3   5-976.652 1989.03   2
  -3   6   5-139.253 1188.41   8
  -3   6   6 2551.27 1306.01  10
   3   3   6 1973.01 1449.20   7
  -3  -3   6 5421.70 1619.51   8
  -6   3   6 1514.85 1131.45  11
   3  -6   6 4245.01 1287.60   8
   6  -3   6 3317.56 1157.91   8
  -6   3   6 2507.37 1203.44   8
   3   3   6 3605.02 1456.23   8
   6  -3   6 5647.28 1770.81   7
  -3   6   6 3038.17 1248.72   8
  -3  -3   7 775.198 1143.43   8
   3   3   7-693.055 1022.18   7
  -6   3   7 1097.76 1047.66   8
  -3   6   7-200.132 849.521   8
   6  -3   7 1003.05 1137.95   7
   3  -6   7 324.608 927.956   8
   6  -3   7 1243.71 922.212   8
   3  -6   8 1537.44 674.743   7
  -3  -3   8 3142.74 824.509   8
  -4   6  -8 2097.78 688.479   6
   2   4  -8 2566.79 810.003   6
   6  -2  -8 2227.30 658.325   6
  -2   6  -8 1451.94 708.640   6
   4   2  -8 3193.84 848.396   6
  -2   6  -7 293.045 1105.68   6
  -6   4  -7 431.254 774.506   6
  -4   6  -7 324.650 1004.40   6
   4   2  -7-78.2906 1227.83   6
   2   4  -7-857.415 1267.74   6
  -6   4  -6 1899.85 1326.85   6
  -4   6  -6 2228.72 1549.09   6
  -2   6  -6 2247.57 1698.42   6
  -4   6  -5 1646.33 1300.63   6
  -2   6  -5 720.413 1212.33   6
  -6   4  -5 2019.22 1124.37   6
   2   4  -2 154651. 5195.43   3
   2   4  -1 46578.3 3419.68   3
  -2   6   0 81933.1 4670.42   4
  -2   6   0 98438.6 4707.42   3
   2  -6   0 77739.6 2894.21  12
  -2  -4   0 110749. 3920.32   1
   6  -2   0 71496.4 4052.91  12
   4   2   0 69736.9 2864.92  12
  -4   6   0 93603.2 5118.90   4
   2   4   0 116904. 5833.69   3
  -6   2   0 74739.9 2233.35   4
  -6   2   0 112445. 5123.74   1
   2   4   0 81846.7 3615.96   4
   4  -6   0 73723.2 3797.99  12
  -4  -2   0 110777. 3796.60   1
   6  -4   0 67559.6 4106.86  12
  -6   4   0 84807.8 3926.64   4
  -4   6   1 43947.2 3559.22   4
   4   2   1 46380.6 3856.41   3
   2   4   1 51777.9 4287.51   3
  -2   6   1 40071.6 3504.09   4
  -2   6   1 42136.9 3514.42   3
   6  -4   1 45641.5 3443.87  12
   2   4   1 40874.6 2947.67   4
  -6   4   1 47481.8 3604.17   1
  -2  -4   1 46800.0 2954.99   2
   4  -6   1 39999.0 2836.36  12
  -6   4   1 40390.8 2975.14   4
   6  -2   1 38673.1 3134.07  12
  -6   2   1 53262.6 3833.24   1
  -4  -2   1 49220.0 3603.64   1
  -4  -2   1 45997.6 3260.55   2
   4   2   2 152644. 7229.28   3
  -2   6   2 149111. 6691.31   3
  -6   4   2 151174. 7187.86   1
  -6   2   2 165206. 7777.63   2
  -4   6   2 157202. 6603.87   1
  -6   4   2 146959. 7345.69   2
  -4  -2   2 140478. 7178.55   1
   2   4   2 142412. 6649.69   4
  -2   6   2 140980. 7375.14   4
  -4  -2   2 149679. 6879.10   2
  -2  -4   2 140621. 6262.75   2
  -6   2   2 149859. 7155.42   1
  -6   4   2 137210. 6349.32   4
   2   4   2 163467. 7520.66   3
  -4   6   2 145816. 7439.89   4
   6  -4   2 138161. 6600.21  12
  -4   6   3 8720.40 2478.02   4
   2  -6   3 4610.88 1849.45   2
  -2   6   3 9889.94 2682.95   4
   4   2   3 5308.44 1868.38   3
  -4  -2   3 4912.06 2027.81   1
  -2  -4   3 4966.99 1806.29   2
  -6   4   3 4304.26 1975.22   2
  -2   6   3 5789.02 2066.22   3
  -2   6   3 3881.79 1146.43   1
  -6   2   3 4742.83 2143.58   2
   6  -2   3 4176.25 1676.34   3
  -4   6   3 2382.80 1436.41   2
  -4  -2   3 2566.56 1623.33   2
  -6   2   3 3590.82 1732.67   1
  -6   4   3 1902.34 1587.58   1
  -4   6   3 3936.53 1595.16   1
   2   4   3 5403.05 1875.23   3
  -2   6   3 3342.32 1261.14   2
  -2  -4   3 3092.90 1731.51   1
   4   2   4 17757.3 3157.26   3
  -4  -2   4 17004.7 3578.89   1
  -2  -4   4 17042.2 3131.93   2
   4  -6   4 17539.4 3668.52   2
   2   4   4 11054.7 2517.23   3
  -4   6   4 14659.6 2846.45   1
  -6   2   4 19686.6 3834.55   1
  -2  -4   4 15067.7 3269.90   1
  -4   6   4 14785.0 3015.56   2
  -6   4   4 17679.4 3555.14   2
  -6   2   4 17146.2 3696.11   2
   2  -6   4 20156.1 3651.26   2
   6  -2   4 15846.7 3236.01   2
  -6   4   4 15225.7 3326.26   1
  -4  -2   4 16373.9 3218.03   2
   6  -4   4 16869.0 3586.84   2
  -6   4   5 330.989 1087.86  11
   6  -2   5 1555.02 2006.27   2
  -2  -4   5 373.890 1759.52   1
   2   4   5 351.500 786.702  10
  -4  -2   5 2422.70 1043.90  11
  -4  -2   5 2985.08 1390.08   8
  -4   6   5 3373.04 2080.30   2
  -2  -4   5 5538.99 1634.85   8
  -6   4   5 2619.03 2141.89   1
  -4  -2   5-452.716 1676.25   2
   2  -6   5 1569.14 1911.63   2
  -2   6   5 2053.72 1303.18  10
  -6   2   5 1441.35 2167.40   2
   2  -6   5 942.724 2067.38   1
  -4  -2   5 4213.21 2420.64   1
   2   4   5 3157.85 1500.15   7
  -2  -4   5 164.660 1528.80   2
   4   2   5 4863.48 1565.03   8
  -2   6   5 1601.71 1207.06   8
   6  -2   5 1407.02 1073.20   8
  -4   6   5 1861.50 1225.90   8
   6  -4   5 1780.41 1096.86   8
   6  -4   5 3689.74 2683.18   2
   4  -6   5 1832.91 1102.83   8
  -6   4   5 1225.24 1073.27   8
  -6   2   5 3698.74 1381.38   8
  -6   2   5 1860.17 1119.39  11
  -4   6   5 1101.13 884.208  11
   4  -6   5 1670.30 2231.83   2
  -6   4   5 1535.42 2435.67   2
  -6   4   5 905.954 910.272  10
   2   4   5 1514.44 1284.88   8
  -6   2   5 586.359 1754.06   1
  -4   6   5 2152.06 1289.02  10
   4   2   5 4938.45 1731.30   7
   2  -6   5 2337.95 1174.36   8
  -6   4   6 1668.62 1173.89  11
  -2   6   6 2765.24 1332.47   8
  -4   6   6 1566.38 1167.44  10
   2   4   6-160.234 1164.51   7
  -6   2   6 1226.06 1265.89   8
   6  -2   6 3543.28 1590.13   7
  -4  -2   6 1455.48 995.760  11
  -2   6   6 1034.96 1156.09  10
  -4   6   6 1837.30 1048.27   8
   6  -2   6 1930.72 1145.02   8
  -4  -2   6 4341.97 1500.04   8
   2  -6   6 1898.88 1297.13   8
   6  -4   6 1104.60 1037.22   8
  -6   2   6 1802.45 1121.02  11
  -2  -4   6 4109.00 1497.42   8
   4  -6   6 605.219 1070.58   8
   4   2   6 3048.81 1412.50   8
   4   2   6 822.572 1435.05   7
   2   4   6 382.160 1262.72   8
  -6   4   6 895.762 1115.59   8
   2  -6   7-404.111 1078.37   8
  -4   6   7-315.067 809.890   8
   4  -6   7-45.4817 836.882   8
  -6   4   7 835.670 912.033   8
   6  -4   7 982.579 861.865   8
   6  -2   7 611.002 1057.76   7
   6  -2   7 476.843 851.867   8
  -2  -4   7-810.602 1127.02   8
  -6   2   7 1663.20 1130.27   8
   4   2   7-864.835 1056.00   7
   6  -4   7 695.639 1142.38   7
  -2   6   7 313.805 879.837   8
  -4  -2   7-1114.75 1192.80   8
   2   4   7-517.530 930.924   7
  -4  -2   8 3460.03 821.178   8
   6  -2   8-502.561 612.438   7
   4   2   8 1771.81 628.040   7
   6  -4   8-435.441 557.713   7
  -2  -4   8 3299.66 785.651   8
   4  -6   8 804.684 536.109   7
   2  -6   8 1344.66 547.073   8
   1   5  -8 3167.89 801.991   6
  -1   6  -8 3525.58 816.301   6
   6  -1  -8 2439.61 706.564   6
   5   1  -8 3441.67 822.193   6
  -5   6  -8 1980.58 607.228   6
  -6   5  -7 3396.30 1150.60   6
  -1   6  -7 5167.56 1614.53   6
  -5   6  -7 3591.32 1301.66   6
   1   5  -7 4376.81 1575.58   6
   1   5  -6 4871.85 1743.06   6
  -6   5  -6 3862.88 1502.98   6
  -5   6  -6 5036.47 1767.68   6
  -1   6  -6 4948.24 1878.40   6
  -6   5  -5 19728.2 2544.84   6
  -5   6  -5 21305.5 2804.89   6
  -1   6  -5 19540.5 2657.04   6
  -5   6  -4 62851.8 3948.42   6
  -1   6  -4 60523.6 3851.08   6
   1   5  -1 22151.2 2447.50   3
  -1   6  -1 23553.6 2164.73   3
  -6   5   0 14388.2 1949.97   4
   1   5   0 17166.3 2465.13   3
   5  -6   0 12139.2 1878.60  12
  -5  -1   0 17144.0 1813.50   1
   6  -5   0 11722.6 1883.50  12
   1   5   0 14197.6 1866.95   4
  -1   6   0 15507.9 2177.80   4
  -6   1   0 17466.6 2097.68   1
   6  -1   0 13210.5 1883.67  12
  -1   6   0 14972.5 2084.92   3
  -5   6   0 15452.9 2319.67   4
   5   1   0 12781.4 1590.73  12
  -5  -1   1 20833.3 2495.12   1
   1   5   1 27321.9 2627.30   4
   1   5   1 22978.6 3077.05   3
  -1   6   1 22377.6 2696.85   3
  -5   6   1 28069.2 2895.92   4
  -1   6   1 29963.5 3008.43   4
  -1  -5   1 24577.8 2189.16   2
  -5  -1   1 21745.7 2434.84   2
  -6   5   1 22215.0 2652.62   1
  -5   6   1 23639.5 2646.58   1
  -6   5   1 28588.5 2711.75   4
   5  -6   1 31478.4 2740.42  12
   6  -1   1 31568.1 2780.45  12
   5   1   1 32956.2 2496.93  12
  -6   1   1 21541.7 2573.09   1
   6  -5   1 29945.2 2952.83  12
  -6   1   2 51850.6 4601.31   2
  -1   6   2 41479.4 4107.84   4
  -6   1   2 50709.6 4382.34   1
   6  -5   2 38491.2 3538.07  12
  -1  -5   2 55510.8 4003.09   2
  -5   6   2 52108.6 4143.87   1
  -5   6   2 38461.3 3882.34   4
   1  -6   2 47912.0 3950.42   2
   1   5   2 54593.7 4526.50   3
  -6   5   2 53861.4 4357.79   1
   5   1   2 48943.0 4283.69   3
  -5  -1   2 52260.1 4544.44   1
  -5  -1   2 52373.4 4407.60   2
   1   5   2 37907.6 3662.39   4
  -6   5   2 36943.7 3655.23   4
  -1   6   2 48154.0 4085.22   3
  -1   6   3 1734.18 1526.75   4
  -6   5   3-133.431 1461.93   2
  -5   6   3 1808.54 1513.41   4
  -1   6   3 713.732 1348.63   3
  -5   6   3 1438.05 1442.42   1
  -1  -5   3 733.018 1269.63   2
  -6   5   3-967.153 1559.73   1
   1  -6   3 683.732 1310.63   2
  -5  -1   3 700.483 1679.57   1
   6  -1   3 2105.27 1510.91   3
   1   5   3 611.761 1630.84   3
  -5  -1   3-59.8108 1234.73   2
  -6   1   3-528.506 1452.53   2
   5   1   3-25.0832 1395.97   3
  -6   1   3 393.730 1419.08   1
  -5   6   3-695.435 1353.73   2
  -6   5   3 1967.10 1597.55   4
   1   5   4 48136.8 4711.27   3
  -6   1   4 56365.3 3191.42  11
   5   1   4 55327.3 5299.82   3
  -5  -1   4 58404.4 5777.19   2
  -1  -5   4 55188.0 5466.66   2
  -6   5   4 52912.9 5663.33   1
  -1   6   4 61771.7 3449.05  10
  -1   6   4 50478.5 5125.29   3
  -6   1   4 60687.2 6320.01   1
  -5  -1   4 63336.9 6288.43   1
   1  -6   4 60048.2 5823.26   2
  -5   6   4 56654.8 3253.91  10
  -5   6   4 48410.9 5218.82   2
   5  -6   4 53535.6 5926.29   2
  -6   5   4 44059.3 5273.37   2
   5   1   4 59999.8 3760.05   7
   6  -1   4 63954.4 3777.31   7
   6  -5   4 57999.3 6233.46   2
  -1  -5   4 51283.7 5611.98   1
   6  -1   4 52140.3 5027.31   2
  -6   1   4 53669.4 5807.88   2
  -5   6   4 52252.5 5331.47   1
  -5  -1   4 55784.6 3192.02   8
  -6   1   5 19860.0 4172.21   2
   6  -5   5 18940.4 4303.81   2
  -5   6   5 14779.7 1875.11  11
  -6   1   5 17590.6 2079.04  11
  -5   6   5 19250.8 2309.53  10
  -1   6   5 18874.4 2349.72  10
  -1  -5   5 12978.5 3356.47   1
   1   5   5 18086.1 2026.36  10
  -5  -1   5 18570.4 1994.60  11
  -6   5   5 17986.2 2166.38  11
  -5   6   5 15122.0 3459.75   2
  -6   5   5 20825.3 4126.12   1
   1   5   5 24398.7 2666.30   8
  -5  -1   5 24944.7 2414.15   8
   1  -6   5 18994.8 3925.38   2
  -1   6   5 25233.7 2502.52   8
  -1  -5   5 15859.2 3511.75   2
   5   1   5 20011.8 2199.53   8
   6  -1   5 20842.2 2182.78   8
   6  -5   5 22138.1 2065.05   8
   5  -6   5 23088.7 2116.73   8
  -6   5   5 19558.0 2205.55  10
  -5  -1   5 14663.3 3779.88   1
   1  -6   5 12725.7 3504.20   1
  -6   1   5 14715.7 3708.48   1
  -1  -5   5 21750.9 2403.64   8
   1   5   5 16800.1 2456.26   7
  -6   5   5 18058.5 3946.10   2
   6  -1   5 22135.2 2721.07   7
  -5  -1   5 19044.7 3958.00   2
   5  -6   5 22734.2 4504.73   2
   1  -6   5 23449.7 2252.01   8
   5   1   5 21005.4 2817.90   7
  -6   1   5 25111.3 2273.75   8
   1  -6   6 6264.75 1573.41   8
   1   5   6 6124.15 1654.61   8
   5  -6   6 5023.34 1321.24   8
  -5   6   6 3670.41 1340.84  10
  -6   5   6 5405.23 1401.28   8
   6  -1   6 4603.32 1665.63   7
   5   1   6 3697.05 1568.72   7
  -5  -1   6 7904.08 1682.29   8
   6  -1   6 4995.61 1345.29   8
  -5  -1   6 3153.57 1187.58  11
   5   1   6 5382.94 1454.56   8
  -5   6   6 5166.69 1269.87   8
   6  -5   6 3887.60 1263.20   8
  -1   6   6 2664.92 1245.55  10
  -6   1   6 4689.54 1506.38   8
  -1  -5   6 6090.54 1585.80   8
  -1   6   6 5699.25 1597.73   8
   1   5   6 2381.11 1295.02   7
  -6   5   6 3320.78 1402.13  11
  -6   1   6 4076.06 1359.72  11
   1   5   7 301.744 771.658   7
   5  -6   7 2597.88 883.817   8
  -6   5   7 1880.71 904.926   8
   6  -1   7 981.811 1114.39   7
   5   1   7 509.144 1069.95   7
  -6   1   7 4407.87 1294.72   8
  -5  -1   7 5764.06 1382.64   8
   6  -5   7 3641.64 999.421   8
   6  -5   7 3274.72 1232.83   7
  -5   6   7 3852.58 999.102   8
  -1  -5   7 4133.05 1293.14   8
   1  -6   7 2654.33 1119.66   8
   5   1   8 1335.56 638.499   7
   5  -6   8-132.478 462.243   7
  -5  -1   8 3619.74 756.750   8
   6  -1   8 1281.09 701.244   7
  -6   1   8 2017.53 609.558   8
   1  -6   8 1879.91 615.005   8
  -1  -5   8 3557.48 753.411   8
   6  -5   8-387.865 500.015   7
   0   6  -8 3397.07 745.984   6
   6   0  -8 2963.17 742.298   6
   0   6  -7 10851.4 1870.22   6
  -6   6  -7 7979.55 1519.82   6
   0   6  -6 7171.34 1974.10   6
  -6   6  -6 5317.31 1724.91   6
  -6   6  -5 29310.8 3199.24   6
   0   6  -5 27834.5 3017.04   6
   0   6  -4 86109.3 4424.23   5
  -6   6  -4 78529.4 4355.48   6
   0   6  -1 20432.8 2275.80   3
  -6   6   0 3102.14 1193.51   4
   0   6   0 3400.18 1267.91   4
  -6   0   0 2766.35 1054.01   1
   0   6   0 1601.09 1211.59   3
   6   0   0 4779.72 1198.23  12
   6  -6   0 5240.12 1445.67  12
   0   6   1 23611.2 2680.93   4
   6  -6   1 24139.0 2640.00  12
   0   6   1 20026.6 2957.38   3
  -6   0   1 18909.2 2442.50   1
  -6   6   1 18649.1 2530.58   1
   0  -6   1 17831.6 2000.90   2
   6   0   1 24193.9 2476.72  12
  -6   6   1 24444.0 2737.99   4
  -6   0   2 26180.5 3478.43   2
  -6   6   2 25959.0 3245.96   1
   6   0   2 30899.4 3678.85   3
  -6   6   2 19743.6 2835.53   4
  -6   0   2 27917.1 3438.85   1
   0  -6   2 29241.2 3063.03   2
   0   6   2 31495.2 3601.22   3
   0   6   2 19798.6 2937.63   4
  -6   6   3 4005.46 1771.40   1
   6   0   3 3015.44 1283.39   2
   0  -6   3 4040.89 1870.96   2
   0   6   3 1752.62 1358.28   3
  -6   0   3 5286.38 2359.93   1
   6   0   3 3782.24 1879.93   3
   0   6   3 3358.18 1904.70   4
  -6   0   3 3546.79 1917.80   2
  -6   6   3 3069.13 1754.97   4
  -6   6   4 79455.8 3521.85  11
   0  -6   4 80467.5 6728.27   2
   0   6   4 84301.2 3897.92  10
   0   6   4 71781.2 5802.51   3
   6   0   4 80791.1 3499.13   8
   0  -6   4 73344.6 3710.21   8
  -6   6   4 71212.5 3674.16  10
  -6   6   4 69609.5 6510.72   2
  -6   0   4 82192.4 3795.22   8
   6   0   4 91331.8 4499.65   7
   6  -6   4 80074.4 7351.45   2
  -6   6   4 73812.5 6591.79   1
  -6   0   4 72828.1 3697.92  11
   0   6   4 77286.6 3772.32   8
  -6   0   4 77754.1 7255.17   1
  -6   0   4 71114.3 6712.83   2
  -6   0   5 21490.0 4101.51   1
  -6   6   5 20101.8 4244.15   2
  -6   6   5 29532.9 2505.52  11
  -6   6   5 21461.6 4152.08   1
   0  -6   5 17642.2 3915.58   2
  -6   6   5 30120.6 2679.40  10
  -6   0   5 19100.8 4036.90   2
   6   0   5 31187.4 2584.28   8
   0  -6   5 34353.2 2763.55   8
  -6   0   5 38478.5 2846.49   8
  -6   0   5 28824.4 2508.42  11
   0   6   5 36081.8 3078.08   8
   6   0   5 37193.9 3331.92   7
   6  -6   5 22083.0 4480.02   2
   0  -6   5 18141.0 3938.32   1
   0   6   5 28849.3 2617.85  10
   6   0   6 5427.48 1704.09   7
  -6   6   6 5312.83 1338.66  10
  -6   0   6 10352.8 1791.44   8
   0   6   6 7424.74 1633.08   8
   6   0   6 5710.83 1444.90   8
   0  -6   6 9372.53 1715.06   8
  -6   0   6 6603.24 1433.62  11
  -6   6   6 7051.76 1562.27  11
   0  -6   7 10625.0 1557.88   8
   6  -6   7 4464.82 1295.42   7
  -6   0   7 11710.2 1641.62   8
   6   0   8 1759.46 652.983   7
   4   3  -8 2880.66 690.162   6
  -3   7  -8 2295.21 657.284   6
   3   4  -8 2366.99 657.660   6
  -4   7  -8 2175.44 640.516   6
  -3   7  -7 1697.08 1188.76   6
   4   3  -7-955.561 1181.19   6
  -4   7  -7 174.933 950.785   6
   3   4  -7 44.9038 1050.64   6
  -3   7  -6 2929.81 1538.81   6
  -4   7  -6 2515.49 1492.92   6
  -7   4  -6 1243.66 1040.65   6
  -7   3  -5-1070.50 930.923   6
  -3   7  -5 416.213 1190.92   6
  -4   7  -5 1179.77 1417.98   6
  -7   4  -5-1151.73 1047.66   6
   3   4  -5-106.964 1028.44   5
  -7   4  -4 11151.5 1719.46   6
  -4   7  -4 17155.6 2326.59   6
   3   4  -4 12049.2 2093.38   5
  -3   7  -4 16951.4 2265.07   6
   3   4  -2 74944.4 4324.23   3
   4   3  -1 4491.16 825.052  12
   3   4  -1 3924.82 1451.44   3
   3   4  -1 3062.79 1006.17   4
  -4   7   0 301332. 10040.0   4
  -3   7   0 291029. 8932.99   3
   7  -3   0 300837. 9351.81  12
   7  -4   0 287228. 9208.21  12
  -7   4   0 281861. 7038.21   4
   4   3   0 263054. 9564.86   3
  -3  -4   0 282514. 5986.24   1
  -4  -3   0 283890. 6082.13   1
   3  -7   0 325960. 7227.42  12
  -7   3   0 299393. 9267.89   1
  -3   7   0 285359. 9506.34   4
   3   4   0 302211. 10175.0   3
  -7   3   0 294764. 5873.24   4
   3   4   0 303515. 6651.82   4
   4  -7   0 309725. 7988.47  12
  -7   3   1 3909.52 1562.76   1
  -3   7   1 4340.73 1596.75   4
  -4   7   1 5507.16 1708.28   4
  -7   4   1 4930.49 1204.96   4
   3   4   1 5847.30 1342.80   4
  -3   7   1 5029.51 1790.87   3
  -3  -4   1 4278.53 1124.47   2
  -4  -3   1 3643.35 1183.74   2
   7  -3   1 5746.36 1475.01  12
   4   3   1 4120.97 1642.65   3
  -3  -4   1 4291.25 1471.24   1
  -7   4   1 3265.17 1375.39   1
   7  -4   1 5896.60 1566.19  12
   4  -7   1 5370.66 1162.71  12
  -7   3   1 4202.52 863.744   4
   3   4   1 4276.86 1726.05   3
  -4  -3   1 4316.53 1311.90   1
  -4  -3   2 69661.2 4883.34   2
  -3  -4   2 67532.0 4650.44   2
  -3   7   2 80616.2 5566.47   3
  -4   7   2 75045.8 4756.01   1
  -3   7   2 73400.9 5814.64   4
   3   4   2 73539.1 5483.93   3
  -7   4   2 72445.4 5317.49   1
   7  -3   2 83062.6 5350.02  12
   4   3   2 70025.9 5380.08   3
  -4   7   2 78565.5 5886.29   4
  -7   3   2 75414.4 5531.10   1
  -7   3   2 80643.1 5782.85   2
   7  -4   2 79957.3 5338.69  12
  -7   4   2 75348.8 4673.59   4
  -3  -4   2 68214.1 5163.63   1
  -4  -3   2 67953.2 5177.56   1
  -7   3   3 1439.63 1683.26   1
  -4   7   3 1549.24 1551.14   4
  -3   7   3 3023.87 2043.73   4
  -7   4   3 1171.38 1613.10   1
   7  -3   3 1467.24 1458.66   3
  -3   7   3 3091.10 2140.26   3
  -3  -4   3 1868.62 1540.85   1
  -3  -4   3 662.888 1298.03   2
  -4  -3   3 1859.02 1700.07   2
   3   4   3 690.187 1331.85   3
  -4  -3   3 947.384 1415.61   1
  -7   3   3 851.209 1544.24   2
   3  -7   3 1049.83 1666.56   2
  -7   4   3 2241.03 1885.08   2
  -4   7   3 550.542 1148.43   1
   4   3   3 377.013 1434.15   3
   7  -4   4 11192.0 3217.03   2
   7  -3   4 13821.7 3429.65   2
  -7   4   4 14157.9 3402.49   1
  -3   7   4 12400.6 1884.88  10
  -4  -3   4 12387.7 1905.33   8
   7  -3   4 17958.7 2304.75   7
   3  -7   4 13328.2 3294.70   2
  -7   3   4 12769.5 3329.24   1
  -7   4   4 11552.6 3322.51   2
   4   3   4 14595.3 2131.56   7
  -3  -4   4 10997.4 2658.35   2
   3   4   4 16497.7 3230.84   3
  -4  -3   4 12713.7 2901.18   2
   4   3   4 15654.3 3162.94   3
  -4  -3   4 15523.7 3311.09   1
  -4   7   4 12650.8 1870.86  10
  -7   4   4 12986.0 1854.74  11
  -7   3   4 12894.2 3622.26   2
  -3  -4   4 13147.4 3093.17   1
   4   3   4 16167.0 1855.17   8
   3   4   4 13726.1 1974.17   7
  -7   3   4 14458.4 1938.83  11
   4  -7   4 13948.0 3440.41   2
   3   4   4 17335.0 1830.16   8
  -3  -4   4 11618.3 1858.75   8
  -7   4   5-88.2716 977.487  11
  -3   7   5 190.689 1184.75  10
  -7   4   5-559.284 866.054  10
   7  -3   5-154.480 2017.78   2
  -4  -3   5 163.450 841.272  11
  -4   7   5 1276.02 1221.79  10
   4  -7   5 1437.35 2019.49   2
   7  -4   5 117.911 2049.10   2
  -3  -4   5-125.656 1748.57   1
   3  -7   5 663.830 1778.10   2
   3   4   5-147.697 1457.87   8
  -4  -3   5-812.817 1937.97   1
  -3  -4   5 733.388 1317.49   8
   4  -7   5-634.886 987.748   8
   4   3   5 184.500 1336.84   8
  -3   7   5 564.626 1079.84   8
   7  -3   5-445.545 988.239   8
  -3  -4   5 1833.31 1831.05   2
   7  -4   5 166.798 977.104   8
  -4  -3   5-879.311 2014.52   2
   3  -7   5 622.787 1068.25   8
  -7   3   5 1121.54 1118.76   8
   3   4   5-626.194 1284.07   7
  -7   3   5-796.863 1064.92  11
  -7   4   5 1882.42 1971.10   1
  -7   3   5-2463.70 2397.71   2
  -7   4   5 1988.39 2375.24   2
   7  -3   5 2148.25 1479.94   7
   4   3   5-572.017 1300.67   7
  -7   3   5-3202.16 2474.85   1
  -4  -3   5 1322.14 1375.70   8
  -7   3   6 2589.33 1210.63   8
  -3   7   6 1540.21 1195.11  10
  -7   4   6 1645.10 1179.83  11
  -4  -3   6 3324.84 1425.51   8
   3   4   6-571.751 1356.29   7
  -3   7   6 2297.82 1181.88   8
   7  -3   6 2278.31 1015.45   8
  -7   4   6 558.788 1048.09   8
   4  -7   6 94.1155 1060.11   8
  -4   7   6 1985.30 1092.64   8
  -3  -4   6 4229.03 1540.22   8
   7  -3   6 2663.05 1326.13   7
   7  -4   6 1382.47 973.387   8
  -4  -3   6 2256.60 967.388  11
  -4   7   6 1189.37 1172.69  10
   4   3   6 444.451 1250.56   7
   7  -4   6 2435.42 1491.07   7
   3  -7   6 644.246 1041.72   8
  -7   3   6 1641.24 1134.12  11
  -7   4   7 632.264 833.220   8
   7  -3   7-440.886 969.967   7
  -3  -4   7-66.8211 1006.79   8
   7  -4   7-710.818 927.013   7
   4  -7   7 266.879 757.433   8
  -7   3   7 49.4049 877.420   8
   3  -7   7 218.466 866.951   8
   3   4   7-420.647 818.018   7
   4   3   7-475.423 920.868   7
  -4  -3   7-30.3248 1015.36   8
  -4  -3   8 3372.80 712.378   8
  -3  -4   8 2764.78 664.622   8
   7  -3   8 1615.74 596.678   7
  -2   7  -8 1124.76 530.916   6
   5   2  -8 1537.20 590.529   6
  -5   7  -8 778.728 475.463   6
   2   5  -8 2188.98 635.245   6
   5   2  -7 155.843 1086.22   6
  -2   7  -7 1134.18 1123.25   6
  -5   7  -7 1123.69 1057.15   6
   2   5  -7 1331.54 1176.50   6
  -7   5  -7 93.8102 751.649   6
   2   5  -6 5174.89 1659.74   6
  -5   7  -6 7757.12 1908.39   6
  -7   5  -6 4030.51 1429.31   6
  -2   7  -6 7869.58 1990.58   6
  -5   7  -5 10388.4 2306.11   6
  -7   5  -5 6957.98 1669.49   6
  -2   7  -5 11817.0 2207.54   6
  -7   5  -4 11708.5 1781.82   6
  -5   7  -4 17977.2 2394.38   6
   2   5  -4 15952.6 2333.16   5
  -2   7  -4 16209.1 2251.52   6
   2   5  -1 3356.01 1284.81   3
  -2   7  -1 5207.44 1443.46   3
   2   5  -1 3593.06 1268.45   4
   7  -2   0 39816.2 3435.98  12
  -2   7   0 25109.8 2694.16   3
  -7   2   0 25943.7 2787.33   1
   2   5   0 31985.0 2596.09   4
  -5   7   0 32988.7 3452.72   4
   5   2   0 36883.5 2318.70  12
  -5  -2   0 24795.8 2092.37   1
   2   5   0 22691.7 3133.81   3
   5  -7   0 38626.5 3317.60  12
  -2  -5   0 23390.7 2015.07   1
  -2   7   0 27171.8 3063.73   4
  -7   5   0 30892.9 2717.60   4
   7  -5   0 40003.5 3624.14  12
  -5   7   1 3741.81 1403.90   4
  -7   5   1 4409.28 1185.01   4
   5   2   1 4542.86 1767.39   3
  -2  -5   1 3519.77 989.411   2
   7  -2   1 3437.03 1245.68  12
  -5  -2   1 3912.97 1416.83   1
  -2   7   1 3507.54 1483.11   3
  -7   2   1 4375.18 1492.00   1
   2   5   1 4141.73 1578.60   3
  -5  -2   1 3905.30 1339.12   2
   7  -5   1 5170.47 1532.44  12
   5  -7   1 3522.27 1091.62  12
  -2   7   1 2733.71 1321.81   4
   2   5   1 3726.16 1180.92   4
  -7   5   1 4022.27 1602.40   1
  -7   5   2 135950. 7219.62   1
   5   2   2 133032. 7400.29   3
  -2   7   2 137353. 7670.52   4
   2   5   2 131469. 7443.39   3
  -5  -2   2 135980. 7412.60   1
  -2   7   2 132422. 6997.61   3
  -5   7   2 141864. 6961.13   1
  -7   2   2 140751. 7663.69   2
  -5  -2   2 133818. 6962.96   2
  -7   2   2 127254. 7238.82   1
   7  -5   2 142456. 6914.45  12
  -5   7   2 132149. 7568.66   4
  -2  -5   2 124555. 6239.43   2
   2   5   2 139728. 6909.11   4
  -7   5   2 141799. 6935.55   4
  -2  -5   3-361.616 1424.40   1
   2  -7   3-1661.72 1653.88   2
  -2   7   3 584.062 1658.35   4
  -2  -5   3 1734.45 1453.05   2
  -5  -2   3-297.914 1702.86   1
  -7   5   3-977.672 1447.46   1
   7  -2   3 1080.05 1403.86   3
  -2   7   3 1510.76 1569.44   3
  -5   7   3 56.6490 1272.42   1
  -7   2   3-267.779 1731.13   2
   2   5   3 2027.00 1583.53   3
  -5  -2   3 1356.82 1632.76   2
   5   2   3-644.284 1731.55   3
  -7   2   3-1017.63 1682.68   1
  -7   5   3-1465.92 1652.25   2
  -5   7   3 1389.11 1658.00   4
  -5  -2   4 15559.5 2059.39   8
   2   5   4 15988.6 1885.52   8
   5  -7   4 14848.0 3378.45   2
  -7   5   4 15807.7 1952.73  11
   2   5   4 17911.0 1876.70  10
  -2  -5   4 16056.2 3472.56   1
   7  -2   4 16537.7 3333.96   2
  -7   2   4 16826.8 3809.73   1
   5   2   4 15078.9 1864.11   8
   2  -7   4 15995.8 3527.67   2
   2   5   4 12438.2 1940.16   7
  -7   2   4 13791.6 1850.88  11
  -5  -2   4 17660.8 3649.07   1
  -2  -5   4 16266.3 3162.31   2
  -7   5   4 15622.2 3404.85   1
  -5   7   4 12963.4 1861.46  10
  -2   7   4 15453.8 1844.76   8
   7  -2   4 15845.2 1750.46   8
   2   5   4 12246.6 2784.69   3
  -7   5   4 12570.4 3214.54   2
   5   2   4 14736.3 3242.71   3
  -2  -5   4 11557.4 1855.48   8
  -7   2   4 17732.2 3857.79   2
   5   2   4 13948.1 2092.61   7
   7  -2   4 17741.5 2257.76   7
   7  -5   4 16797.1 3953.11   2
  -7   5   4 16716.8 1993.74  10
  -2   7   4 11759.6 1859.00  10
   2  -7   4 17113.0 1799.51   8
  -7   2   4 19006.9 1851.14   8
  -5  -2   4 13714.3 1724.45  11
  -5   7   4 14734.2 1582.85  11
  -5  -2   4 16953.5 3453.74   2
  -5   7   4 14159.0 2997.67   1
  -7   2   5 5651.03 2911.09   2
  -5  -2   5 7817.92 1523.55  11
  -2  -5   5 3210.42 2640.45   1
   7  -5   5 5450.98 2755.08   2
  -2   7   5 10357.0 1975.97  10
   5  -7   5 8244.09 3242.69   2
  -5   7   5 8518.90 1827.02  10
   2   5   5 11921.0 2123.90   8
  -7   2   5 11961.4 1816.66   8
   5   2   5 8363.13 2005.99   7
  -2  -5   5 2660.48 1985.50   2
  -7   2   5 7550.48 1520.87  11
   2  -7   5 7055.14 2963.26   2
  -2  -5   5 11925.0 1921.30   8
  -5  -2   5 12817.0 2032.21   8
   2  -7   5 12509.8 1818.61   8
  -7   5   5 6808.31 2670.57   1
  -5  -2   5 8669.11 3097.88   1
   5   2   5 8541.56 1747.39   8
  -2   7   5 10435.2 1811.29   8
   7  -2   5 8672.07 1515.11   8
  -5   7   5 7644.40 1366.96  11
  -7   5   5 6858.02 2796.79   2
  -5  -2   5 3570.42 2223.69   2
  -7   5   5 8883.54 1558.99  10
  -7   5   5 8686.23 1640.97  11
   2   5   5 8375.09 1444.03  10
   7  -2   5 10187.4 1985.81   7
   2  -7   5 5374.46 2638.96   1
   2   5   5 6809.91 1917.87   7
  -7   2   5 4439.61 2590.38   1
  -2   7   6 4587.97 1402.95  10
   2  -7   6 8451.89 1532.08   8
  -7   2   6 8275.82 1669.02   8
  -2   7   6 7615.60 1600.05   8
   5   2   6 2730.44 1558.72   7
  -7   2   6 5701.04 1441.60  11
   7  -2   6 5863.46 1344.56   8
  -2  -5   6 9638.01 1725.62   8
  -5  -2   6 5996.84 1335.43  11
   7  -5   6 7198.74 1900.37   7
  -7   5   6 6543.22 1530.39  11
  -5   7   6 6062.11 1553.68  10
  -5  -2   6 9529.39 1757.22   8
   2   5   6 3119.07 1433.03   7
   7  -2   6 5310.75 1633.97   7
   2  -7   7 787.949 926.958   8
   7  -2   7-212.492 901.723   7
   7  -5   7 203.604 888.466   7
   5   2   7-714.018 963.362   7
  -7   2   7 1553.95 1040.33   8
   2   5   7 1608.35 847.641   7
  -2  -5   7 1118.56 1043.46   8
  -5  -2   7 519.268 985.428   8
  -2  -5   8 1208.62 553.717   8
   7  -2   8 1680.05 598.543   7
  -5  -2   8 2152.59 637.322   8
   6   1  -8 1904.38 579.117   6
  -1   7  -8 2087.04 566.617   6
   1   6  -8 2020.00 551.570   6
  -6   7  -7 2944.39 1172.80   6
  -1   7  -7 3112.22 1227.28   6
   1   6  -7 5520.58 1421.46   6
  -7   6  -7 2303.13 956.239   6
  -7   6  -6 7490.73 1719.16   6
   1   6  -6 11115.6 2118.05   6
  -6   7  -6 10232.8 2142.64   6
  -1   7  -6 13123.4 2283.06   6
   1   6  -5 12928.0 2238.41   6
  -1   7  -5 14299.0 2304.92   6
  -6   7  -5 11809.8 2161.94   6
  -7   6  -5 14660.1 2195.55   6
  -6   7  -4 50851.6 3660.87   6
   1   6  -4 51281.8 3564.41   5
  -1   7  -4 49233.2 3512.35   6
  -7   6  -4 38657.3 3091.45   6
   6   1  -1 9623.32 1593.97  12
   1   6  -1 9642.42 1814.98   3
  -1   7  -1 9525.28 1615.97   3
   1   6  -1 9337.26 1798.61   4
  -1   7  -1 9803.63 2054.80   4
   1   6   0 73883.6 4517.84   4
   6  -7   0 84985.2 5140.91  12
  -1   7   0 72498.4 4952.73   4
  -6  -1   0 72095.5 3853.59   1
  -1   7   0 66483.0 4488.61   3
   1   6   0 66370.7 4925.37   3
   7  -1   0 83671.5 4969.15  12
   7  -6   0 83966.7 5398.00  12
  -7   1   0 75655.2 4618.10   1
   6   1   0 76364.1 3969.16  12
  -7   6   0 73701.1 4549.96   4
  -6   7   0 77641.6 5366.24   4
   1   6   1 9648.15 2358.24   3
  -7   1   1 8820.86 1879.78   1
  -6   7   1 9585.90 2091.22   4
   7  -1   1 10140.3 1833.26  12
   7  -6   1 12290.7 2155.37  12
  -1   7   1 9918.08 2098.75   4
  -1   7   1 6681.72 1709.96   3
   6   1   1 10072.0 1651.96  12
   1   6   1 9261.48 1781.93   4
  -7   6   1 10195.2 1864.71   4
   6  -7   1 11396.6 1939.15  12
   1  -7   1 8903.53 1524.21   2
  -6  -1   1 8899.72 1884.45   1
  -1  -6   1 8661.58 1458.85   2
  -7   6   1 8872.73 2137.92   1
  -6  -1   2 73018.3 5621.35   1
  -6   7   2 62669.7 5197.14   4
  -1   7   2 70165.8 5307.67   3
  -1  -6   2 68606.6 4652.08   2
  -7   1   2 70515.2 5594.95   1
  -6  -1   2 70742.3 5466.12   2
   7  -6   2 61753.1 4777.48  12
   6   1   2 76158.2 6050.37   3
  -7   6   2 72076.0 5398.98   1
  -6   7   2 73663.8 5327.96   1
  -1   7   2 58180.0 5222.58   4
   1  -7   2 73360.5 5024.77   2
   1   6   2 73783.3 5620.75   3
   1   6   2 60577.6 4879.32   4
  -7   6   2 59656.7 4886.04   4
  -7   1   2 77784.1 5829.21   2
  -6   7   3 6923.58 2204.56   4
  -1  -6   3 7977.70 2159.79   2
   1  -7   3 8211.68 2325.35   2
  -6   7   3 9836.79 2369.41   1
   7  -1   3 9771.56 2561.78   3
  -1   7   3 7008.85 2193.97   3
  -6  -1   3 7187.18 2498.31   1
   1   6   3 10337.4 2486.86   3
  -6  -1   3 7707.46 2322.92   2
   6   1   3 9178.89 2768.48   3
  -7   1   3 8032.14 2550.36   2
  -1   7   3 8373.71 2650.95   4
  -7   1   3 9673.22 2740.45   1
   1   6   3 7277.09 2287.72   4
  -7   6   3 9551.98 2533.34   1
  -7   6   3 5860.32 2123.28   4
  -6  -1   4 56037.0 6219.46   1
  -6   7   4 44978.5 3069.15  10
  -7   6   4 42426.3 3269.79   9
  -7   6   4 45906.3 3029.49  10
   6   1   4 50674.7 3508.18   7
   6   1   4 60818.1 6027.84   3
  -1  -6   4 43644.3 3051.33   8
  -7   1   4 55258.1 3100.67   8
   6   1   4 44975.3 2807.73   8
  -7   6   4 49347.8 5737.94   1
  -1   7   4 41651.5 4811.49   3
   1   6   4 46910.5 3036.25   8
  -1   7   4 46316.7 2893.00   8
   7  -1   4 45081.0 2778.97   8
   1  -7   4 48591.8 2856.05   8
  -6  -1   4 44946.5 5380.54   2
  -7   1   4 45372.0 3038.52  11
  -7   1   4 49032.9 5940.85   2
  -7   6   4 45356.6 2922.09  11
  -7   1   4 61886.1 6607.42   1
   1  -7   4 60259.7 6088.71   2
  -6  -1   4 38538.2 3141.78   8
   7  -1   4 53729.3 3602.38   7
   7  -6   4 57843.4 6425.93   2
   6  -7   4 50919.7 6191.29   2
  -6   7   4 45774.6 2570.96  11
  -1  -6   4 51763.8 5943.15   1
  -6  -1   4 43657.9 2962.85  11
  -1   7   4 44564.7 2977.25  10
  -1  -6   4 54482.3 5526.07   2
  -6   7   4 46289.9 5281.16   1
   1   6   4 47029.9 5045.74   3
   1   6   4 48128.8 3019.68  10
   7  -6   5 17595.6 4140.47   2
  -7   6   5 17506.3 3705.76   1
   6   1   5 14290.2 2378.75   7
  -7   6   5 12487.3 1917.27  10
   1   6   5 15163.4 2203.73   8
   6   1   5 12544.9 1928.56   8
  -1   7   5 17185.3 2147.95   8
   7  -1   5 12826.3 1840.65   8
  -1  -6   5 14872.3 3345.29   2
   1   6   5 10954.6 1686.40  10
   1  -7   5 15087.2 1903.57   8
  -7   1   5 19282.5 2101.05   8
  -6  -1   5 17248.0 2126.44   8
  -7   1   5 11511.1 1766.65  11
  -1   7   5 13852.3 2075.25  10
  -6   7   5 14346.8 2063.38  10
   1   6   5 8614.76 1870.11   7
   7  -1   5 15868.1 2309.27   7
  -7   6   5 11533.8 1812.46  11
  -1  -6   5 17196.3 2199.33   8
  -6  -1   5 13431.5 1793.69  11
  -6   7   5 11122.7 1748.42  11
  -1   7   6 9093.00 1657.30  10
  -1  -6   6 13321.5 1990.61   8
   1  -7   6 13156.3 1751.86   8
  -7   1   6 14455.2 1972.43   8
  -6  -1   6 10010.7 1620.60  11
  -6   7   6 8485.27 1615.87  10
   6   1   6 5814.46 1906.85   7
  -7   6   6 9057.74 1633.48  11
   7  -1   6 6465.03 1798.15   7
  -6  -1   6 14750.9 2039.92   8
  -7   1   6 10062.4 1671.34  11
   6   1   7 510.635 863.437   7
   1  -7   7 1604.25 930.379   8
  -1  -6   7 3078.15 1195.09   8
  -6  -1   7 4212.43 1239.02   8
   7  -1   7-92.4608 988.514   7
   7  -6   7 666.061 888.843   7
   6  -7   7 2035.26 1062.03   7
  -7   1   7 3104.32 1099.06   8
  -7   7  -7 918.273 795.097   6
   0   7  -7 1874.80 1079.50   6
  -7   7  -6 4031.48 1517.28   6
   0   7  -6 5469.60 1672.80   6
   0   7  -5 11643.2 2086.65   6
  -7   7  -5 9892.14 1930.46   6
  -7   7  -4 68289.9 4051.98   6
   0   7  -4 64987.8 4171.46   5
   0   7  -4 68447.7 4172.74   6
   0   7  -1 65200.3 4140.84   3
  -7   7  -1 67179.1 4999.64   4
   0   7  -1 62887.5 4696.57   4
   7   0  -1 57576.2 3996.08  12
  -7   7   0 16368.6 2534.47   4
   0   7   0 12983.7 2364.35   3
   7   0   0 19292.4 2379.42  12
   0   7   0 17612.7 2553.47   4
  -7   0   0 14937.0 2101.23   1
   7  -7   0 21236.8 2994.04  12
   7  -7   1 59855.6 4586.42  12
  -7   7   1 58362.4 4555.64   4
  -7   0   1 69380.6 4724.98   1
   0   7   1 59325.3 4573.47   4
   0   7   1 70606.1 5460.32   3
   7   0   1 54985.9 3814.99  12
  -7   0   2 9437.70 2409.83   1
  -7   7   2 11918.0 2743.49   4
   0   7   2 10945.4 2407.88   4
  -7   7   2 9630.46 2468.68   1
   0   7   2 9180.97 2302.54   3
   0  -7   2 11599.5 2168.25   2
  -7   0   2 10902.0 2490.50   2
   7   0   2 9391.59 2574.54   3
   7  -7   2 11839.2 2223.38  12
   0   7   3 14621.4 2987.63   3
  -7   0   3 17236.3 3452.23   1
  -7   0   3 18508.5 3491.55   2
  -7   7   3 19124.1 3330.73   1
   7   0   3 19969.7 3863.69   3
   0   7   3 18596.0 3419.54   4
  -7   7   3 13430.4 2979.99   4
   0  -7   3 18513.6 3122.10   2
  -7   0   4 52665.6 6191.42   1
   0   7   4 68280.9 3543.36  10
  -7   7   4 67053.3 3283.09  11
   7  -7   4 50555.6 6410.66   2
  -7   7   4 48994.0 5693.58   1
  -7   0   4 67954.3 3672.91   8
   0  -7   4 60612.1 3424.51   8
   0  -7   4 57189.9 5878.80   2
   7   0   4 69762.3 4301.87   7
   0  -7   4 57751.9 6606.75   1
  -7   7   4 64900.2 3598.29  10
  -7   0   4 45431.9 5739.35   2
   0   7   4 55810.2 5487.15   3
  -7   0   4 67267.5 3687.45  11
   0   7   5 10378.6 1738.27  10
  -7   7   5 11147.4 1809.15  10
   7   0   5 10626.2 2067.65   7
  -7   0   5 15880.0 2102.16   8
  -7   0   5 10661.1 1709.26  11
   0  -7   5 13601.3 1959.65   8
  -7   7   5 8871.71 1581.52  11
  -7   0   6 6059.02 1457.66  11
  -7   7   6 3631.32 1179.25  10
   7   0   6 2050.80 1396.03   7
   0  -7   6 8668.45 1617.84   8
  -7   0   6 8337.78 1697.51   8
   0  -7   7 2105.96 1039.99   8
   7   0   7-855.073 895.794   7
   7  -7   7 836.028 810.620   7
  -7   0   7 766.386 968.117   8
   4   4  -7-581.382 938.089   6
  -4   8  -7-616.354 893.181   6
  -8   4  -6 1254.30 823.313   6
  -4   8  -6 4486.47 1651.77   6
   4   4  -5 616.196 1065.02   5
  -4   8  -5 1156.93 1281.30   6
  -8   4  -5-338.944 868.618   6
  -8   4  -4 15520.4 1963.74   6
   4   4  -4 15950.7 2321.28   5
  -4   8  -4 20260.1 2502.34   6
  -8   4  -1 3101.49 1116.30   4
  -4   8  -1 3469.06 1694.26   4
   4   4  -1 268.036 1252.13   3
   8  -4   0 102516. 6060.33  12
   4   4   0 118099. 7103.84   3
   4  -8   0 108799. 4804.61  12
  -4   8   0 110051. 6607.53   4
  -8   4   1 495.150 1246.41   1
  -4  -4   1-319.011 1078.51   1
   4   4   1 368.097 1389.91   3
  -4  -4   2 37712.3 3733.92   2
   8  -4   2 27431.4 3319.81  12
  -8   4   2 39748.2 4291.23   1
   4   4   2 39614.7 4485.02   3
  -4   8   2 28550.9 3888.32   4
  -4  -4   2 34334.5 3871.34   1
  -4  -4   3 1517.15 1567.18   1
  -4   8   3-585.876 1597.34   4
  -8   4   3-162.851 1874.38   1
  -4  -4   3-207.485 1447.74   2
   4   4   3-544.638 1738.36   3
   4  -8   3-815.126 1881.70   2
  -4  -4   4 15597.0 3481.55   1
  -8   4   4 14996.3 3610.98   1
   4  -8   4 20024.7 4176.62   2
  -8   4   4 15170.7 1982.62  11
  -4   8   4 14864.8 2121.98  10
   4   4   4 18236.7 3706.65   3
  -4  -4   4 13813.4 3053.67   2
   4   4   4 14481.9 2237.87   7
  -8   4   4 15216.0 3550.23   2
   8  -4   4 20759.7 2550.91   7
   8  -4   4 15270.1 3536.34   2
  -8   4   5 437.869 1069.23  11
   4   4   5-66.0101 1229.66   7
  -4  -4   5 1936.23 1462.79   8
  -4   8   5 874.187 1152.57  10
   8  -4   5 1533.33 1388.67   7
  -8   4   6 3349.43 1292.00  11
   4   4   6 514.328 1221.25   7
  -4  -4   6 4724.44 1525.72   8
  -4   8   6 3281.30 1432.03  10
   8  -4   6 2182.46 1406.38   7
   8  -4   7-916.932 919.002   7
  -4  -4   7 442.309 957.322   8
   4   4   7 2047.68 954.868   7
  -5   8  -7 572.880 890.765   6
   3   5  -7-87.5639 862.728   6
   5   3  -7-213.692 899.779   6
  -3   8  -7 519.682 965.948   6
  -3   8  -6 10293.3 2092.10   6
  -8   5  -6 6451.25 1502.21   6
  -5   8  -6 12792.8 2188.70   6
   3   5  -6 7812.48 1856.10   6
  -3   8  -5-51.9070 1117.17   6
  -5   8  -5-149.471 1195.22   6
   3   5  -5-454.538 1214.89   5
  -8   5  -5 577.244 920.268   6
  -8   5  -4 5322.98 1325.28   6
  -3   8  -4 6745.15 1694.80   6
   3   5  -4 6174.81 1747.21   5
  -5   8  -4 6972.68 1748.03   6
   5   3  -4 6996.10 1762.31   5
  -8   5  -1 30778.7 2862.74   4
   3   5  -1 37773.6 3835.96   3
  -5   8  -1 37416.0 4276.92   4
  -3   8  -1 36847.8 3933.11   4
   3   5  -1 37351.6 2881.35   4
   8  -3   0 40824.3 3938.87  12
  -8   5   0 36830.2 2900.06   4
   3   5   0 35313.8 2661.62   4
  -3   8   0 37157.1 3647.63   3
   5  -8   0 40443.2 3303.91  12
   3   5   0 37545.3 4130.56   3
   5   3   0 34735.1 4099.52   3
  -8   3   0 36402.0 3851.24   1
   8  -5   0 43796.8 4076.33  12
  -3   8   0 36360.9 3737.86   4
  -5   8   0 36384.3 3954.55   4
  -3   8   1 36575.0 3772.12   4
   5  -8   1 36636.7 3099.04  12
  -5   8   1 33925.1 3779.71   4
   8  -5   1 38869.0 3720.53  12
  -3   8   1 33433.9 3733.38   3
  -5  -3   1 31774.7 2896.90   2
   3   5   1 37263.4 4244.61   3
   5   3   1 33907.5 3943.82   3
  -8   3   1 37803.3 3799.01   1
  -8   5   1 36497.3 3967.72   1
  -5  -3   1 36278.0 3382.97   1
   8  -3   1 33659.6 3343.65  12
  -3  -5   1 32682.4 3272.67   1
   3   5   1 34830.9 3099.79   4
  -8   5   1 39164.5 3262.13   4
  -5  -3   2 73803.0 5350.40   2
   3   5   2 84549.5 6277.14   3
  -5  -3   2 74421.2 5702.53   1
  -3   8   2 79452.2 6271.28   4
  -3   8   2 83559.5 5960.21   3
   5   3   2 79866.7 6167.03   3
  -8   5   2 74256.1 5664.82   1
   8  -5   2 78347.0 5503.71  12
   3   5   2 72196.1 5148.30   4
  -8   5   2 82842.3 5192.64   4
  -3  -5   2 73092.8 5473.25   1
  -5   8   2 78292.5 6224.04   4
  -8   3   2 76936.2 5953.53   1
  -3  -5   2 68230.4 4832.77   2
  -8   3   3-979.930 1734.05   1
   3  -8   3 271.081 1645.45   2
  -3   8   3 2025.32 2072.55   3
  -5   8   3-1314.89 1383.34   1
  -3  -5   3 934.426 1538.86   1
  -3  -5   3-1195.57 1509.70   2
  -3   8   3 430.663 1482.62   4
   8  -3   3-663.037 1377.28   3
  -5  -3   3 404.818 1497.08   2
   3   5   3-428.257 1573.90   3
   5   3   3-980.051 1815.10   3
  -8   5   3 1130.59 1863.59   1
  -5   8   3 346.721 1479.94   4
  -8   3   3-349.486 1899.09   2
  -5  -3   3 752.564 1698.89   1
  -3  -5   4 7331.75 2473.89   2
   5  -8   4 6410.50 2861.28   2
  -5  -3   4 6510.79 2617.80   1
   8  -3   4 11326.2 3008.47   2
  -3   8   4 4744.60 1440.84  10
  -3  -5   4 6857.94 2452.87   1
  -5  -3   4 9783.62 2773.10   2
  -8   3   4 6530.23 2781.88   1
  -5  -3   4 7382.49 1375.14  11
   3   5   4 4971.34 1437.56   7
   3   5   4 10520.7 2855.97   3
  -8   5   4 5939.97 2552.18   1
   5   3   4 6956.36 2656.57   3
   3  -8   4 9457.90 3223.62   2
  -5   8   4 5681.01 1452.19  10
  -8   5   4 5561.25 1407.80  11
  -8   3   4 6895.51 2763.93   2
   8  -5   4 9864.38 1988.72   7
  -8   3   4 5507.22 1432.38  11
   8  -3   4 7259.25 1745.71   7
   5   3   4 6071.36 1585.29   7
  -5  -3   5 399.663 886.129  11
  -8   5   5-43.5684 1008.63  11
  -8   5   5-715.381 864.670  10
  -8   3   5-350.391 1016.36  11
   3   5   5-1197.72 1488.86   7
   5   3   5-458.653 1494.89   7
  -3   8   5-125.161 1029.48   8
   8  -3   5 527.792 1002.20   8
  -3  -5   5 299.287 1303.28   8
  -8   3   5-162.051 913.226   8
  -5  -3   5 632.684 1337.88   8
   8  -5   5 2099.81 1399.39   7
   3  -8   5 225.784 906.478   8
  -3   8   5 397.074 1133.67  10
   8  -3   5 509.841 1293.08   7
  -5   8   5 509.997 1252.11  10
   8  -3   6 6621.73 1647.06   7
   3   5   6 4473.82 1605.55   7
  -5   8   6 9173.91 1711.22  10
  -5  -3   6 9203.98 1439.00  11
  -8   3   6 7926.17 1620.44  11
   5   3   6 7609.43 1927.33   7
   3  -8   6 11340.5 1586.98   8
  -8   3   6 11741.2 1633.80   8
  -3  -5   6 13986.5 1920.08   8
  -8   5   6 9961.49 1648.85  11
  -5  -3   6 14485.2 1914.71   8
  -3   8   6 8648.99 1668.11  10
   8  -5   6 7720.00 1791.58   7
   5   3   7 1495.68 915.973   7
   8  -3   7-194.695 852.555   7
   3  -8   7 760.956 714.456   8
  -8   3   7 372.863 705.182   8
  -3  -5   7 427.426 897.537   8
   8  -5   7-502.394 820.498   7
   3   5   7 585.835 707.116   7
  -5  -3   7 1570.18 995.851   8
  -8   6  -7 1556.28 835.343   6
  -6   8  -7 5.49913 774.171   6
  -2   8  -7 405.393 884.754   6
   6   2  -7-1552.18 1003.68   6
   2   6  -7 524.700 983.507   6
  -8   6  -6 9982.58 1811.04   6
  -2   8  -6 13175.2 2247.87   6
  -6   8  -6 10143.7 1971.93   6
   2   6  -6 11381.3 2005.54   6
  -6   8  -5 2731.43 1393.79   6
  -2   8  -5 3166.42 1589.50   6
   2   6  -5 1950.76 1144.33   6
  -8   6  -5 3361.79 1291.43   6
  -2   8  -4 35993.2 3088.34   6
   2   6  -4 29823.0 2996.12   5
  -8   6  -4 25910.3 2554.60   6
   6   2  -4 31395.3 2902.88   5
  -6   8  -4 30033.2 2974.54   6
  -8   6  -1 54729.3 4180.67   4
   8  -2  -1 50705.8 4112.66  12
   2   6  -1 59679.8 4546.29   3
  -2   8  -1 58877.1 4889.28   4
   2   6  -1 58143.9 4017.12   4
  -6   8  -1 57117.0 5122.89   4
  -2   8  -1 58327.6 3917.31   3
   6   2  -1 55155.3 3397.65  12
   6   2   0 1601.52 692.034  12
   2   6   0 3004.95 1153.25   4
  -8   6   0 2365.56 997.897   4
  -2   8   0 1223.87 1141.76   4
  -8   2   0 1194.97 1099.46   1
  -2   8   0 1860.54 1323.83   3
   2   6   0 3330.36 1604.08   3
   8  -6   0 3084.92 1593.83  12
   6  -8   0 2781.29 1267.43  12
  -6   8   0 2304.39 1452.09   4
   8  -2   0 3173.77 1446.75  12
  -6  -2   1 55739.1 4167.01   1
  -2   8   1 51816.7 4540.66   3
   6  -8   1 53358.9 3942.01  12
  -6   8   1 53406.1 4738.06   4
  -8   2   1 59942.5 4639.21   1
   6   2   1 56449.0 4979.03   3
   8  -6   1 56696.3 4621.78  12
   2   6   1 49690.7 3834.51   4
  -8   6   1 54532.8 4111.75   4
  -8   6   1 55822.9 4885.55   1
   8  -2   1 48602.3 4019.64  12
  -2   8   1 54832.9 4648.15   4
   2   6   1 60169.6 5372.48   3
  -6  -2   2 33434.5 3961.65   2
  -6  -2   2 35782.1 4156.15   1
  -6   8   2 30622.5 4037.90   4
  -8   2   2 36453.0 4338.74   1
   2   6   2 35899.9 4250.90   3
   6   2   2 37051.7 4541.72   3
  -8   6   2 37438.7 4227.03   1
  -2  -6   2 35984.0 4008.84   1
  -2   8   2 30858.4 4049.58   4
  -2   8   2 35310.8 4102.54   3
   2  -8   2 33533.3 3663.22   2
   2   6   2 29158.8 3392.18   4
  -2  -6   2 34022.3 3514.05   2
  -8   6   2 32142.9 3686.52   4
   8  -6   2 31226.1 3654.35  12
  -6   8   3 1967.27 1844.07   4
  -8   2   3-1079.61 1953.22   2
  -6  -2   3 1958.58 1564.21   2
  -2  -6   3 1910.25 1507.52   2
  -6  -2   3 111.627 1537.11   1
  -2   8   3 3022.02 2003.52   3
   2   6   3 1925.62 1763.78   3
  -8   2   3 1831.19 1667.13   1
   6   2   3 1299.01 1834.46   3
  -2   8   3 2064.98 1719.67   4
  -6   8   3 1732.77 1489.81   1
   8  -2   3 2213.39 1836.91   3
  -2  -6   3 1484.69 1684.33   1
   2  -8   3 1445.56 1673.97   2
  -8   6   3 1432.52 1629.31   1
  -6  -2   4 26998.2 4514.48   1
  -2   8   4 29288.2 2573.80  10
   2   6   4 23017.3 3826.39   3
   2   6   4 34174.2 2461.62  10
  -8   2   4 25412.8 4491.66   2
  -6   8   4 29137.0 2678.18  10
   6   2   4 26337.1 4263.35   3
  -8   2   4 28253.4 2547.84  11
  -8   2   4 31313.4 5010.71   1
   2  -8   4 33819.8 2391.93   8
  -8   2   4 36990.0 2475.68   8
  -2  -6   4 24750.8 2490.46   8
  -6  -2   4 24191.2 2457.62   8
  -6   8   4 23743.4 3952.89   1
  -8   6   4 30589.5 2575.48  11
   6   2   4 29654.4 2978.80   7
   2  -8   4 31112.6 4678.33   2
  -2  -6   4 23906.4 4328.18   1
   2   6   4 25173.3 2628.16   7
   8  -2   4 32190.1 2969.36   7
   6  -8   4 26267.2 4592.16   2
  -8   6   4 24122.2 4259.03   1
  -8   6   4 32733.9 2618.58  10
  -6  -2   4 21779.3 3998.70   2
  -2  -6   4 22380.0 3761.72   2
  -6  -2   4 29776.2 2551.04  11
  -8   6   4 26905.5 2824.19   9
  -8   6   5 3240.58 1240.39  11
  -6  -2   5 3814.42 1246.53  11
  -6   8   5 3368.88 1434.56  10
  -8   6   5 3215.43 1187.50  10
   8  -2   5 5648.56 1726.89   7
   2   6   5 1794.48 914.668  10
  -2   8   5 3661.84 1485.89  10
  -8   2   5 2783.71 1343.04  11
  -8   2   5 5995.25 1438.86   8
  -2  -6   5 5413.13 1556.51   8
   6   2   5 2842.66 1565.54   7
   2   6   5 3164.32 1455.47   7
   8  -6   5 7528.73 1951.13   7
  -6  -2   5 6312.37 1707.14   8
  -6   8   5 2187.46 948.015  11
   2  -8   5 6322.47 1319.95   8
  -8   2   6 10012.8 1632.47  11
  -2   8   6 9558.26 1715.33  10
  -8   6   6 12743.6 1776.12  11
  -6  -2   6 17187.4 2107.45   8
   2   6   6 9687.60 1838.29   7
   2  -8   6 13109.6 1688.35   8
  -8   2   6 12700.8 1825.84   8
  -2  -6   6 17377.3 2037.03   8
  -6  -2   6 10684.1 1541.37  11
   8  -6   6 10141.1 1834.36   7
  -6   8   6 10914.3 1763.18  10
   6   2   6 7909.04 1945.32   7
   8  -2   6 8589.36 1842.70   7
   6  -8   7 1166.69 848.946   7
  -8   2   7-20.7754 771.049   8
   2  -8   7 221.644 717.246   8
  -2  -6   7-74.9113 952.134   8
  -6  -2   7-361.124 925.203   8
   8  -2   7-760.954 883.665   7
   6   2   7 2125.17 970.291   7
   8  -6   7-418.237 821.071   7
   1   7  -7 758.847 862.258   6
  -8   7  -7 1665.11 842.348   6
  -7   8  -7 1031.02 894.188   6
  -1   8  -7 1843.22 887.618   6
  -8   7  -6 2801.53 1298.83   6
  -7   8  -6 2479.73 1327.97   6
  -1   8  -6 6540.19 1665.66   6
   1   7  -6 4402.85 1623.05   6
  -8   7  -5 2694.74 1420.99   6
  -7   8  -5 3545.38 1471.73   6
  -1   8  -5 3300.82 1596.41   6
   1   7  -5 3929.25 1494.54   6
  -7   8  -4 31852.0 2928.99   6
   1   7  -4 32219.6 2888.02   6
  -8   7  -4 28845.7 2778.08   6
   1   7  -4 32546.1 3060.51   5
  -1   8  -4 33977.5 3032.62   6
  -1   8  -3 220.342 995.737   5
  -1   8  -1 400.436 1253.55   4
   8  -1  -1 1924.16 1091.54  12
   1   7  -1 422.294 849.728   4
   7   1  -1 3582.58 1217.69  12
   1   7  -1 518.734 942.990   3
  -8   7  -1 1677.53 1311.33   4
  -1   8  -1 65.5623 952.738   3
  -8   1   0 62322.2 4612.75   1
   1   7   0 56444.4 4406.53   4
  -1   8   0 54953.2 4393.71   3
   7  -8   0 65890.1 5107.33  12
   8  -7   0 69344.0 5426.95  12
   8  -1   0 60487.9 4566.15  12
  -8   7   0 60919.4 4607.63   4
   1   7   0 52125.0 4738.05   3
   7   1   0 59506.2 3747.19  12
  -1   8   0 54976.4 4836.89   4
  -7   8   0 63764.5 5299.54   4
   1   7   1 2110.89 1225.63   4
  -7  -1   1 1102.57 1217.18   1
   7  -8   1 3856.69 1746.24  12
   8  -7   1 3555.78 1608.24  12
   8  -1   1 2846.48 1183.74  12
  -1   8   1-609.239 1921.28   3
   1   7   1 1131.11 1642.73   3
  -8   1   1-616.000 1153.19   1
  -8   7   1 1972.44 1119.17   4
  -1   8   1 2981.19 1559.08   4
  -7   8   1 2464.54 1615.48   4
   1   7   2 20765.7 3469.71   3
  -7  -1   2 17536.2 3050.48   1
  -7  -1   2 18657.2 3104.18   2
  -1   8   2 19578.6 3309.59   3
  -8   7   2 16619.5 2909.76   4
  -1   8   2 16336.6 3037.87   4
  -7   8   2 21454.8 3360.25   4
   7   1   2 21031.5 3579.16   3
  -8   1   2 17420.8 3216.01   1
  -7   8   2 17436.0 3008.72   1
   1  -8   2 19146.2 2739.55   2
   1   7   2 18925.4 3058.50   4
  -8   7   2 18910.7 3186.70   1
   8  -7   2 19911.8 2977.86  12
  -8   7   3 2195.41 1643.00   4
  -7   8   3 1032.81 1625.27   4
  -8   1   3 73.5687 1919.49   2
   1  -8   3 2322.51 1503.40   2
  -7   8   3 1129.87 1542.06   1
  -1  -7   3 1886.48 1509.92   2
  -8   7   3 1726.23 1788.95   1
  -1   8   3 2880.81 1881.09   3
   1   7   3-1858.70 2212.95   3
  -8   1   3-81.3715 1616.73   1
   7   1   3 2959.20 2206.26   3
  -7  -1   3 2242.23 1842.16   2
  -7  -1   3 2377.27 1851.98   1
   8  -1   3 1754.94 1771.85   3
   1   7   3 365.057 1448.32   4
  -1   8   3 1273.33 1824.26   4
   7   1   3-1035.54 1030.59   7
  -8   7   4 26278.8 2707.32   9
  -1   8   4 26770.0 2485.18  10
  -1   8   4 32346.8 4504.31   3
  -1  -7   4 33054.5 4361.43   2
   1  -8   4 36451.0 4840.17   2
  -7  -1   4 35764.0 5156.43   1
  -8   1   4 29565.2 4936.53   2
   1   7   4 32861.3 2488.39  10
  -8   7   4 28180.0 2494.86  10
  -8   1   4 33783.8 2639.28   8
   1  -8   4 30932.3 2437.43   8
   7   1   4 33107.1 3054.45   7
   1   7   4 26387.8 4150.20   3
   8  -1   4 30216.9 2950.18   7
   7   1   4 34218.3 5104.35   3
  -8   1   4 38014.2 5440.41   1
  -7   8   4 31490.3 4747.97   1
  -7  -1   4 28023.4 2641.83   8
  -8   7   4 31216.3 4761.27   1
  -7   8   4 26920.0 2482.02  10
  -1  -7   4 24730.7 2485.19   8
  -8   1   4 30024.5 2713.87  11
  -7  -1   4 29193.6 4613.13   2
   7  -8   4 31618.2 5125.86   2
  -7  -1   4 28815.9 2582.66  11
  -8   7   4 28644.5 2417.85  11
  -1  -7   4 36204.6 5162.30   1
  -7   8   4 29119.1 2213.45  11
  -8   7   5 2444.93 1176.97  11
  -8   1   5 3558.36 1305.84  11
   1   7   5 4164.44 1219.89  10
  -1  -7   5 7265.12 1636.49   8
   7   1   5 3444.03 1581.67   7
  -7   8   5 4669.14 1522.78  10
  -1   8   5 5958.55 1566.66  10
  -7  -1   5 5099.21 1333.57  11
   1  -8   5 6426.09 1429.99   8
  -8   1   5 6200.82 1625.00   8
  -7  -1   5 6785.50 1727.80   8
  -8   7   5 4641.34 1390.52  10
   8  -1   5 2995.21 1485.99   7
  -7   8   5 4953.23 1217.93  11
  -8   1   6 5370.52 1402.78  11
   8  -7   6 4360.50 1531.87   7
  -7   8   6 3725.83 1190.48  10
   8  -1   6 2711.91 1379.09   7
   7   1   6 2284.70 1338.69   7
   1  -8   6 6871.15 1375.86   8
  -8   1   6 8994.94 1569.38   8
  -7  -1   6 7278.20 1628.32   8
  -1  -7   6 7428.15 1606.30   8
  -1   8   6 2973.92 1118.31  10
  -8   7   6 5220.07 1254.91  11
  -7  -1   6 5124.92 1305.18  11
   1  -8   7 73.0429 845.112   8
  -8   1   7-239.328 861.889   8
  -1  -7   7 485.527 909.695   8
  -7  -1   7 218.699 908.501   8
   8  -7   7 255.132 666.444   7
   8  -1   7 2477.70 1072.92   7
   7   1   7 2451.30 1035.60   7
   7  -8   7 607.164 667.697   7
   0   8  -7 199.416 764.458   6
  -8   8  -7 1647.61 823.405   6
  -8   8  -6 1505.32 1126.75   6
   0   8  -6 2378.69 1280.25   6
  -8   8  -5-9.71761 1110.49   6
   0   8  -5 1422.99 1166.23   6
   0   8  -4 44217.0 3360.44   6
   0   8  -4 38611.7 3283.80   5
  -8   8  -4 33091.0 3003.65   6
   0   8  -3 14160.7 2021.55   5
  -8   8  -3 15435.6 1839.37   6
   0   8  -2 35275.6 4490.24   4
   0   8  -1 2107.11 1049.30   3
   8  -8  -1 2524.68 1273.53  12
   0   8  -1 4349.93 1663.42   4
   8   0  -1 1922.16 1097.81  12
  -8   8  -1 2987.74 1592.36   4
   0   8   0 14058.8 2480.44   4
   8  -8   0 14629.9 2830.00  12
  -8   8   0 11609.8 2407.79   4
   8   0   0 14801.8 2244.73  12
   0   8   0 12038.7 2335.20   3
   0   8   1 3317.95 1704.72   4
  -8   8   1 4516.80 1739.03   4
  -8   0   1 3496.99 1335.75   1
   0   8   1 5613.94 2161.48   3
   8  -8   1 2152.95 1426.42  12
   8   0   1 1364.84 1019.43  12
   0   8   2 37628.7 4428.67   3
  -8   8   2 38713.9 4487.53   4
   8   0   2 40641.3 4955.81   3
   0   8   2 39587.4 4644.34   4
  -8   8   2 38479.9 4574.33   1
  -8   0   2 38067.3 4452.54   1
  -8   0   3 15475.9 1955.60  11
   0  -8   3 9310.30 2317.07   2
  -8   8   3 14011.7 1614.98  10
  -8   8   3 8213.43 2573.26   1
  -8   0   3 6077.42 2424.82   2
   8   0   3 17133.8 2225.99   7
   0   8   3 6001.24 2273.63   3
  -8   8   3 10125.7 2784.02   4
   0   8   3 14666.1 3296.34   4
  -8   0   3 6521.81 2320.92   1
   8   0   3 10077.2 3022.56   3
  -8   0   4 29710.3 4723.39   2
   0   8   4 32409.1 4660.96   3
   0   8   4 36089.6 2718.03  10
   0  -8   4 33560.1 2621.64   8
  -8   0   4 33360.6 2979.02   8
  -8   8   4 32640.4 2666.03  10
  -8   8   4 29029.8 4780.80   1
  -8   8   4 34002.7 2397.96  11
   8   0   4 39694.2 3363.88   7
   0  -8   4 34471.1 4566.76   2
   0  -8   4 38856.5 5578.98   1
  -8   0   4 37212.3 2909.34  11
  -8   0   4 36140.0 5236.71   1
   0   8   5 1855.42 1080.22  10
  -8   8   5 947.065 1073.14  10
   8   0   5-425.979 1517.04   7
   0  -8   5 1046.62 1240.38   8
  -8   0   5 3113.13 1445.94   8
  -8   0   5-475.603 1062.68  11
  -8   8   5 1316.72 927.099  11
  -8   0   6 1784.80 1063.53  11
  -8   8   6 1158.49 845.281  10
   0  -8   6 2427.19 1211.00   8
  -8   0   6 2698.76 1256.41   8
   8  -8   6 1804.81 1212.73   7
   8   0   6 160.347 1280.70   7
   8   0   7 1522.88 908.168   7
   0  -8   7-477.369 785.778   8
  -8   0   7-666.248 814.300   8
   8  -8   7 96.5018 589.769   7
  -5   9  -7 483.044 787.853   6
   4   5  -7 731.218 817.808   6
   5   4  -7 17.9750 723.678   6
  -4   9  -7 101.369 737.356   6
  -9   5  -6 15531.3 1988.44   6
  -4   9  -6 22184.9 2561.71   6
   4   5  -6 16804.5 2253.31   6
  -5   9  -6 16998.9 2320.02   6
  -9   5  -5 2014.22 1036.70   6
  -5   9  -5 1203.92 1235.00   6
  -4   9  -5 3662.81 1530.17   6
   4   5  -5 3741.74 1439.59   5
   5   4  -5 1974.84 1283.83   5
  -5   9  -4 13660.4 2127.51   6
  -4   9  -4 12633.1 2080.86   6
   4   5  -4 12062.0 2096.67   5
   5   4  -4 10336.7 2061.92   5
  -9   4  -4 11555.5 1717.72   6
  -9   5  -4 10846.8 1735.07   6
  -5   9  -3 1684.37 1104.43   6
   5   4  -3 96.3267 995.380   7
   4   5  -3 932.588 1185.57   5
   5   4  -3 1450.67 1255.81   5
  -4   9  -1 27615.6 3804.42   4
  -5   9  -1 24570.8 3673.27   4
   4   5  -1 22404.2 3402.09   3
   5   4  -1 22636.1 3648.84   3
   9  -4  -1 29199.3 3480.97  12
   9  -5  -1 29605.0 3456.48  12
   5  -9  -1 27448.6 2897.87  12
  -4   9   0 42182.0 4620.52   4
   4   5   0 48484.8 5041.72   3
   5   4   0 45662.3 4983.30   3
   5  -9   0 42335.9 3377.53  12
   9  -5   0 41643.1 4395.37  12
   9  -4   0 42643.8 4425.95  12
  -5   9   0 40423.7 4541.62   4
   9  -4   1 31984.4 3568.77  12
   4   5   1 23543.3 3676.36   3
   5   4   1 20061.8 3487.51   3
  -9   4   1 20978.6 3369.58   1
  -9   5   1 22838.3 3422.09   1
  -5   9   1 27582.8 3713.02   4
   9  -5   1 29564.2 3571.50  12
   5  -9   1 29038.2 2807.60  12
  -4   9   1 24088.1 3577.44   4
  -4   9   2 20420.4 3536.52   4
   9  -4   2 20900.1 3083.33  12
  -5  -4   2 20975.8 3339.16   1
  -4  -5   2 18130.1 2899.81   1
   4   5   2 21781.2 3531.32   3
   5   4   2 20659.9 3680.55   3
  -9   4   2 23374.2 3716.48   1
  -5   9   2 19634.5 3482.37   4
   9  -5   2 19265.1 3043.82  12
  -9   5   2 26894.8 3829.01   1
  -9   4   3 1198.02 1741.37   1
   4   5   3 136.382 1645.85   3
   4  -9   3 1668.75 1749.85   2
  -9   4   3 193.761 937.916  11
  -5   9   3 482.120 775.938  10
  -4   9   3 1205.53 908.693  10
   5   4   3 2676.65 1157.72   7
  -5  -4   3 477.273 1613.08   1
  -4   9   3 1282.93 1820.83   4
  -5   9   3 845.889 1545.86   4
  -9   4   3 239.282 1067.59   9
  -9   5   3-1433.52 1136.98   9
  -5  -4   3-117.115 1430.23   2
   5   4   3 322.000 1806.01   3
  -9   5   3 227.196 949.181  11
  -9   5   3 1226.20 1704.27   1
  -4  -5   3 790.074 1572.39   1
   4   5   3 1022.81 1124.65   7
  -4   9   4 10075.6 1840.14  10
  -5   9   4 10547.0 1827.72  10
   9  -4   4 9738.55 2979.05   2
  -5  -4   4 9689.72 2974.08   1
   5   4   4 9564.41 1969.49   7
   4  -9   4 10782.7 3209.90   2
  -9   5   4 9923.00 1690.84  11
   4   5   4 12547.2 3310.96   3
  -4  -5   4 11610.1 2860.97   2
   5   4   4 11702.7 3388.22   3
  -5  -4   4 8752.15 2629.34   2
  -9   5   4 11503.0 3381.26   1
   4   5   4 9238.03 1978.60   7
   9  -4   4 12824.0 2095.61   7
   9  -5   4 15464.4 2293.21   7
   5  -9   4 9831.60 3215.08   2
  -4   9   4 7761.79 2819.94   4
  -5   9   4 7197.02 2812.44   4
  -4  -5   4 10168.4 2972.69   1
  -9   4   4 10497.9 3264.58   1
  -9   4   4 9501.43 1691.43  11
  -4   9   5 2203.13 1422.95  10
  -9   5   5 1475.50 991.606  11
  -9   4   5 279.421 964.674  11
  -5   9   5 2152.74 1263.66  10
  -5  -4   5 3702.16 1565.46   8
   4   5   5 2455.86 1579.96   7
  -4  -5   5 2933.43 1503.74   8
   9  -4   5 2273.19 1283.88   7
   9  -5   5 3617.61 1523.76   7
   5   4   5 948.756 1482.96   7
  -5   9   6 18460.0 2186.04  10
  -4  -5   6 24551.3 2291.86   8
  -9   5   6 19933.5 2009.83  11
  -5  -4   6 25992.9 2278.12   8
   5   4   6 19955.1 2488.99   7
   9  -4   6 13185.8 1967.70   7
   9  -5   6 14105.3 1957.17   7
  -9   4   6 18767.3 2028.16  11
   4   5   6 15968.1 2309.99   7
  -4   9   6 20472.0 2151.20  10
   5  -9   7 2920.56 900.505   7
   9  -4   7-30.9414 775.608   7
  -4  -5   7 1511.09 937.548   8
  -5  -4   7 375.300 878.269   8
   9  -5   7-526.890 777.423   7
   5   4   7 749.957 705.307   7
  -6   9  -7 704.466 815.322   6
   3   6  -7 2023.63 867.508   6
   6   3  -7 656.584 732.391   6
  -3   9  -7 1653.69 859.775   6
  -6   9  -6 21048.1 2433.24   6
  -3   9  -6 20631.9 2449.52   6
   3   6  -6 19051.1 2320.42   6
  -9   6  -6 13663.7 1966.53   6
  -9   6  -5 127.375 897.600   6
  -6   9  -5-280.447 1221.96   6
  -3   9  -5 1023.57 1173.15   6
   3   6  -5-1937.84 1355.52   6
   3   6  -5-708.977 1194.83   5
  -3   9  -4 9692.49 1869.93   6
  -9   6  -4 6595.81 1491.82   6
  -6   9  -4 7898.17 1721.53   6
   3   6  -4 6159.17 1822.03   5
   6   3  -4 7188.20 1831.44   5
  -9   6  -3 10023.1 1552.76   6
  -6   9  -3 12315.9 1774.28   6
   3   6  -3 12218.6 1942.77   5
   6   3  -3 15643.8 2169.82   5
   6   3  -3 7715.41 1510.43   7
  -3   9  -1 53180.9 5305.31   4
  -6   9  -1 52841.8 5319.78   4
  -9   6  -1 52500.8 4131.44   4
   9  -6  -1 48532.9 4518.62  12
   3   6  -1 50966.3 4757.79   3
   6  -9  -1 50543.8 4148.52  12
   9  -3  -1 46218.6 4398.37  12
  -9   6   0 50486.7 3759.52   4
   6  -9   0 57721.6 4370.42  12
  -3   9   0 50424.0 4876.64   4
   3   6   0 60103.4 5610.75   3
  -6   9   0 55579.5 5386.93   4
   6   3   0 64832.7 6005.89   3
   9  -3   0 56424.4 4974.07  12
  -3   9   0 59777.4 4829.91   3
   9  -6   0 56613.1 5134.82  12
  -3   9   1 51346.4 4919.18   3
   9  -6   1 54533.2 4844.36  12
   6  -9   1 48849.9 3849.45  12
   3   6   1 54779.9 5390.68   3
  -6   9   1 54128.0 5183.38   4
   6   3   1 52532.0 5354.01   3
  -9   3   1 52089.2 4741.01   1
  -9   6   1 50901.2 4965.17   1
   3   6   1 46308.1 3768.66   4
   9  -3   1 52443.3 4476.44  12
  -3   9   1 53044.5 4944.88   4
  -6   9   2 18612.2 3411.52   4
  -3   9   2 24498.0 3863.05   3
   3   6   2 20104.1 3484.87   3
  -9   3   2 18960.6 3453.43   1
   6   3   2 19575.5 3666.88   3
  -9   6   2 23269.8 3655.19   1
  -6  -3   2 24192.2 3587.22   1
   3  -9   2 16779.6 2865.35   2
   3   6   2 22133.1 3044.37   4
  -3  -6   2 20993.8 3245.31   1
   9  -6   2 20434.0 3201.38  12
  -3   9   2 18092.3 3355.77   4
  -9   3   3 7961.95 2668.43   1
  -6   9   3 9737.67 2932.17   4
  -9   6   3 8809.05 2677.50   1
  -3   9   3 11980.8 1608.97  10
   3  -9   3 7246.68 2349.41   2
  -9   6   3 13263.3 1918.60   9
  -3   9   3 10473.0 2988.40   3
  -6  -3   3 6533.77 2324.48   1
   3   6   3 9730.13 2711.33   3
   6   3   3 8574.19 2880.36   3
  -6  -3   3 6787.83 2381.46   2
  -9   6   3 12726.9 1706.30  11
   6   3   3 12870.7 1963.09   7
   9  -3   3 14829.3 2122.44   7
  -9   3   3 9412.03 1819.30   9
   9  -3   3 10542.8 2621.35   3
  -3   9   3 9531.24 3044.76   4
  -9   3   3 10779.8 1672.98  11
  -3  -6   3 6838.20 2406.97   1
  -6   9   3 10359.2 1536.28  10
  -3  -6   4 6594.45 2479.02   1
   3  -9   4 8847.51 3236.52   2
  -9   3   4 6622.58 1575.51  11
  -6   9   4 7073.06 1528.16  10
   9  -3   4 8042.44 1803.94   7
  -9   6   4 6239.29 1549.50   9
  -9   3   4 8559.76 2964.92   1
   6   3   4 7603.23 1679.45   7
  -3   9   4 8609.62 1581.53  10
   3   6   4 6356.42 2322.40   3
  -6  -3   4 8029.92 2918.29   1
   6   3   4 5449.30 2688.09   3
  -6  -3   4 8018.89 2815.17   2
   3   6   4 9657.43 1972.64   7
  -6   9   4 4215.50 2314.47   4
   6  -9   4 9866.25 3221.59   2
  -6  -3   4 9480.52 1544.20  11
  -9   6   4 8930.78 1660.49  11
  -9   6   4 9192.43 2985.22   1
   9  -6   4 8780.21 1843.93   7
  -6  -3   5 114.966 865.157  11
  -6   9   5-409.356 1059.93  10
  -3   9   5-84.5502 1126.61  10
  -9   3   5 703.846 954.790  11
  -9   6   5-246.106 1079.01  11
  -3  -6   5 1750.94 1467.07   8
  -6  -3   5 904.384 1326.70   8
   3   6   5 2307.10 1456.29   7
   6   3   5-457.288 1583.37   7
   9  -3   5-1301.73 1388.64   7
   9  -6   5 1203.70 1366.03   7
  -3   9   6 21104.9 2111.18  10
  -6   9   6 18636.5 2081.79  10
  -9   3   6 19840.4 2077.00  11
  -3  -6   6 27151.9 2359.23   8
  -6  -3   6 19476.6 1759.70  11
  -6  -3   6 25627.0 2302.88   8
   3   6   6 13123.6 1977.41   7
   9  -3   6 14244.1 2176.34   7
   9  -6   6 11809.9 1925.86   7
  -9   6   6 21588.1 2092.20  11
   6   3   6 20661.9 2647.78   7
   6  -9   7 1986.72 727.914   7
  -3  -6   7 1652.96 943.196   8
   6   3   7 1767.42 823.480   7
  -6  -3   7 1518.93 932.772   8
   9  -3   7 2583.15 987.072   7
   9  -6   7-302.916 683.885   7
  -9   7  -7 192.995 636.729   6
  -7   9  -7 121.161 666.816   6
  -2   9  -7-53.3730 634.697   6
   2   7  -7 1112.91 746.361   6
   7   2  -7-907.517 767.982   6
  -9   7  -6 6991.39 1554.87   6
  -7   9  -6 8906.15 1774.55   6
   2   7  -6 10296.4 1836.63   6
  -2   9  -6 10680.2 1854.35   6
  -2   9  -5 1017.67 1187.59   6
  -9   7  -5 379.199 1065.64   6
   2   7  -5-523.504 1277.07   6
  -7   9  -5-397.887 1209.99   6
  -9   7  -4 27970.5 2654.32   6
   2   7  -4 35193.8 2986.55   6
  -2   9  -4 37089.5 3176.33   6
   2   7  -4 37557.0 3348.04   5
   7   2  -4 31344.5 2911.30   5
  -7   9  -4 35975.2 3124.44   6
  -9   7  -3 883.574 821.528   6
  -7   9  -3 1251.54 957.160   6
  -2   9  -3 1176.48 1006.64   6
  -2   9  -3-541.244 1191.72   5
   2   7  -3 287.735 1114.18   5
   7   2  -3 1783.83 1360.15   5
   7   2  -3 353.736 1014.01   7
   2   7  -2 14934.6 2786.76   4
  -2   9  -2 15908.1 3544.54   4
   2   7  -1 150.095 900.780   4
  -9   7  -1 734.914 947.863   4
  -7   9  -1 101.910 1271.54   4
   2   7  -1 946.833 1295.80   3
   9  -7  -1 285.025 1038.77  12
   9  -2  -1 623.288 1178.61  12
  -2   9  -1 1117.74 1293.47   4
   7  -9  -1 236.854 905.644  12
   2   7   0 8497.90 1807.35   4
  -2   9   0 11138.9 2405.11   3
  -7   9   0 12133.4 2684.58   4
   9  -7   0 14256.5 2800.39  12
  -2   9   0 10417.2 2494.54   4
   2   7   0 9789.39 2405.32   3
   7  -9   0 11729.4 2243.62  12
   9  -2   0 11926.1 2425.41  12
  -9   7   0 10606.5 2009.84   4
  -7   9   1-547.083 1462.88   4
  -2   9   1 282.444 1215.83   4
  -9   2   1-644.543 1150.86   1
  -2   9   1-776.530 1440.72   3
  -9   7   1 149.084 932.880   4
   7  -9   1-305.153 920.429  12
   9  -7   1 259.292 1125.83  12
   2   7   1-248.595 1677.19   3
  -7  -2   1 226.602 992.340   1
   9  -2   1-391.136 1048.65  12
   7   2   1 607.542 1568.26   3
   2   7   1 151.203 923.915   4
   9  -7   2 19085.2 3152.13  12
  -7  -2   2 14465.7 2991.81   2
  -7  -2   2 17671.4 3134.14   1
  -9   2   2 17446.4 3375.80   1
   2   7   2 15967.0 3137.67   3
  -9   7   2 17357.7 3343.01   1
   7   2   2 14679.3 3239.81   3
  -2  -7   2 15542.5 2926.25   1
   2  -9   2 14061.2 2549.58   2
   2   7   2 17621.4 2921.02   4
  -9   7   2 18149.3 3020.22   4
  -2   9   2 18186.9 3375.80   3
  -2   9   2 15026.8 3090.15   4
  -7   9   2 14863.7 3157.21   4
  -9   7   3 388.739 889.492  11
  -2   9   3 681.982 872.931  10
  -7  -2   3 2194.75 1003.67  11
  -7   9   3 1832.39 981.510  10
  -2   9   3 2676.23 1957.79   4
   2  -9   3 3301.87 1715.85   2
  -9   7   3 771.407 809.102   9
  -2   9   3 1819.70 2013.60   3
  -7   9   3 382.414 1579.61   4
   2   7   3 4015.73 2394.48   3
  -9   7   3 1455.51 1807.16   1
   7   2   3 1953.78 2293.48   3
   9  -2   3 231.220 1063.68   7
  -7  -2   3 120.963 1700.64   2
  -7  -2   3 2717.98 2017.24   1
   9  -2   3 800.343 1727.94   3
  -9   2   3 3307.09 2098.52   1
  -9   2   3 1336.16 1082.44  11
  -2  -7   3 2093.22 1809.17   1
   7   2   3 1369.70 1092.58   7
  -7  -2   4 27559.3 4588.93   1
  -7   9   4 31678.4 2699.13  10
  -9   7   4 32855.0 2731.06  10
   2   7   4 26966.7 4251.37   3
  -2   9   4 29835.5 2608.37  10
  -7  -2   4 28600.7 4634.98   2
  -9   7   4 31291.4 3038.18   9
  -2  -7   4 29579.5 4680.05   1
   7   2   4 37497.4 5410.25   3
  -2  -7   4 28875.2 2659.57   8
  -7  -2   4 27598.7 2818.81   8
  -9   7   4 23475.0 4557.37   1
  -9   2   4 31824.0 5092.11   1
   7   2   4 30973.1 3131.75   7
   9  -2   4 34633.8 3196.45   7
  -9   7   4 35527.8 2669.50  11
   7  -9   4 31108.9 5104.27   2
  -9   2   4 33109.9 2792.32  11
   2  -9   4 34786.0 4931.14   2
  -7  -2   4 32986.6 2701.00  11
  -9   7   5-178.139 968.403  11
  -7  -2   5-498.870 914.656  11
   9  -7   5 490.454 1244.78   7
  -2  -7   5 2317.14 1444.63   8
  -9   7   5 434.414 930.751  10
   9  -2   5-2954.99 1396.15   7
  -2   9   5 746.746 1199.38  10
   2   7   5 46.0053 749.138  10
  -9   2   5 510.227 1078.43  11
   2  -9   5 1373.50 1018.54   8
  -9   2   5 1894.78 1124.86   8
  -7  -2   5 989.563 1501.65   8
   7   2   5-1463.69 1788.34   7
  -7   9   5 210.100 1063.95  10
  -7   9   6 8257.78 1473.66  10
  -2   9   6 7764.69 1384.64  10
   2  -9   6 11351.7 1488.08   8
   9  -7   6 4582.66 1358.45   7
  -9   2   6 11181.2 1648.03   8
  -2  -7   6 14095.4 1845.88   8
  -7  -2   6 13623.8 1818.23   8
  -7  -2   6 9788.87 1427.78  11
   7   2   6 9981.00 1919.72   7
  -9   2   6 8670.19 1566.03  11
  -9   7   6 9123.73 1461.30  11
   9  -2   6 6588.82 1636.62   7
   9  -2   7 1391.96 927.489   7
   9  -7   7-426.379 669.407   7
  -2  -7   7-100.170 825.402   8
  -7  -2   7-83.8205 780.857   8
   7   2   7 18.2804 665.374   7
  -1   9  -7 356.695 620.662   6
   1   8  -7-74.8680 558.467   6
  -9   8  -7 937.999 706.421   6
  -8   9  -7 923.585 715.926   6
   8   1  -7-696.976 695.228   6
  -9   8  -6 628.475 955.440   6
  -8   9  -6-25.8385 1020.37   6
  -1   9  -6 1432.83 1073.23   6
   1   8  -6 1665.60 1111.23   6
  -9   8  -5-309.990 1099.91   6
  -8   9  -5-70.0078 1227.39   6
   1   8  -5 459.470 1106.77   6
  -1   9  -5 301.544 1187.62   6
   1   8  -4 38135.6 3161.60   6
  -8   9  -4 32430.0 3059.22   6
   1   8  -4 36330.8 3321.19   5
  -1   9  -4 38627.7 3183.74   6
  -9   8  -4 28276.8 2856.53   6
  -9   8  -3 1269.57 967.169   6
  -8   9  -3 136.329 842.477   6
  -1   9  -3-368.071 1175.52   5
   1   8  -3-22.1598 1197.89   5
   8   1  -3 234.318 890.421   7
   8   1  -3 882.805 1039.41   5
   1   8  -2 11802.0 2570.43   4
  -1   9  -2 12605.0 2869.00   4
  -9   8  -1 850.073 1125.52   4
   9  -1  -1 1155.69 1095.81  12
   1   8  -1 582.782 940.179   4
  -8   9  -1 963.810 1442.68   4
  -1   9  -1 1456.76 1476.21   4
   8  -9  -1 1299.78 1212.20  12
   9  -8  -1 1648.06 1203.38  12
   1   8   0 39554.5 4302.57   3
  -1   9   0 39947.8 4086.27   3
   1   8   0 46459.0 4252.85   4
  -1   9   0 40568.4 4406.57   4
  -8   9   0 42976.1 4776.02   4
   9  -8   0 42491.3 4722.15  12
   9  -1   0 44455.0 4183.81  12
   8  -9   0 43292.9 4546.52  12
  -9   8   0 42081.8 4186.38   4
   1   8   1 930.143 1297.77   4
  -1   9   1 1961.70 1522.84   4
  -1   9   1 158.215 1719.26   3
  -9   8   1 1176.96 1124.59   4
   1   8   1 2048.28 1887.28   3
  -8  -1   1 1390.55 1224.43   1
  -8   9   1 1089.01 1412.32   4
   8  -9   1 1562.66 1216.72  12
   9  -1   1 1416.55 1116.22  12
  -9   1   1 1011.40 1166.53   1
   9  -8   1 1808.30 1320.76  12
  -9   8   2 10509.9 2564.26   4
   1   8   2 16254.2 3394.42   3
  -8  -1   2 9719.61 2424.10   1
  -9   1   2 15223.3 3263.78   1
   1   8   2 10474.2 2568.15   4
  -1   9   2 14202.3 3057.46   3
  -9   8   2 12052.6 2885.69   1
   9  -8   2 9292.79 2383.45  12
   8   1   2 15846.4 3528.70   3
  -8   9   2 10790.0 2672.83   4
  -1   9   2 10192.1 2662.96   4
  -9   8   3 41.9819 841.071  11
  -8  -1   3 92.9402 991.923  11
  -8  -1   3-168.025 1537.97   1
  -8   9   3 191.568 789.678  10
  -9   8   3 1180.67 870.771  10
  -9   1   3 319.123 1677.08   1
  -9   1   3 586.544 1151.64  11
  -9   8   3 122.247 837.829   9
  -9   8   3 1102.39 1910.47   1
   9  -1   3 561.711 1149.69   7
  -1   9   3 2549.03 2065.44   3
   1   8   3-2318.22 2218.86   3
  -9   8   3 2275.30 1730.84   4
   8   1   3-418.346 1779.97   3
   9  -1   3 506.338 1557.14   3
  -1   9   3 417.624 1610.09   4
  -1  -8   3-455.228 1623.53   1
  -8  -1   3-867.688 1937.87   2
  -8   9   3-1464.43 1943.89   1
   1   8   3 1335.63 1647.16   4
  -1   9   3 666.095 839.353  10
   8   1   3 2750.00 1304.33   7
  -8   9   3-514.565 1764.29   4
  -8   9   4 21903.5 4005.49   1
  -9   8   4 32596.0 2520.46  11
  -8  -1   4 25233.2 4411.69   1
   1   8   4 33357.8 2578.74  10
  -1   9   4 35937.8 2774.30  10
  -9   8   4 20385.7 4228.30   1
  -8   9   4 31427.2 2669.68  10
  -9   1   4 21502.5 4332.80   1
  -1   9   4 28943.0 4528.55   3
   1   8   4 23979.6 4031.26   3
  -9   8   4 31638.4 2924.35   9
   8   1   4 25582.0 4548.14   3
  -9   1   4 39424.9 2917.83   8
  -1  -8   4 31110.6 2770.18   8
  -8  -1   4 34715.3 2943.77   8
  -8  -1   4 21564.9 4021.77   2
   8   1   4 32894.8 3357.28   7
   9  -1   4 36422.2 3365.46   7
   8  -9   4 27853.2 5002.02   2
  -1  -8   4 28891.8 4718.05   1
  -9   8   4 32201.4 2652.33  10
  -8  -1   4 34745.0 2849.56  11
  -9   1   4 34371.9 2830.18  11
   1  -9   4 39598.4 2651.14   8
  -9   8   5 1410.75 929.699  11
  -9   1   5 1173.35 1098.43  11
   9  -1   5-106.152 1358.86   7
  -1   9   5 2105.69 1227.17  10
   1   8   5 841.008 984.402  10
  -8  -1   5-167.671 1026.67  11
   8   1   5 452.685 1444.77   7
   1  -9   5 1389.47 1182.85   8
  -9   1   5 2749.10 1228.80   8
  -1  -8   5 2284.53 1415.74   8
  -8  -1   5 2023.71 1385.36   8
  -8   9   5 609.563 1125.51  10
  -9   8   5 1054.55 957.242  10
  -8   9   5 1153.37 870.729  11
  -9   1   6 1715.89 1007.99  11
  -8   9   6 1137.79 857.662  10
  -1   9   6 1016.37 847.960  10
   1  -9   6 2103.69 1045.41   8
  -9   1   6 1979.22 1033.50   8
  -1  -8   6 4130.33 1259.15   8
  -8  -1   6 4430.83 1300.69   8
   9  -1   6 2385.68 1222.21   7
  -9   8   6 1348.66 902.732  11
   9  -8   6-34.8808 909.908   7
   8   1   6 4085.89 1467.47   7
  -8  -1   6 1689.01 918.028  11
   8   1   7 19.2805 596.227   7
  -8  -1   7-173.827 734.180   8
   1  -9   7 235.634 579.093   8
  -9   1   7 261.354 598.508   8
  -1  -8   7 137.104 729.167   8
   9  -1   7 760.277 710.087   7
  -9   9  -7 1059.12 710.606   6
   0   9  -7-177.557 467.040   6
  -9   9  -6-436.317 982.332   6
   0   9  -6 931.878 894.613   6
  -9   9  -5 751.882 1214.38   6
   0   9  -5 586.092 1085.37   6
  -9   9  -4 11245.1 1978.83   6
   0   9  -4 13148.6 1972.25   6
   0   9  -4 11756.4 2155.43   5
   0   9  -3 5486.92 2434.54   4
   0   9  -3 4297.97 1519.57   5
   9   0  -3 2154.34 1236.70   5
  -9   9  -3 3558.61 1207.80   6
  -9   9  -2 57971.3 3185.04   6
   0   9  -2 52915.9 5508.23   4
  -9   9  -2 48415.8 5385.49   4
   0   9  -2 53711.6 3446.78   5
   9   0  -2 56352.2 3394.11   5
   9   0  -2 53841.9 3236.18   7
  -9   9  -1 1774.23 1409.70   4
   0   9  -1 1907.03 1345.66   4
   9  -9  -1 3797.35 1795.73  12
   9   0  -1 2285.36 1372.00  12
   9  -9   0 38214.7 4657.58  12
   0   9   0 25038.4 3379.20   3
  -9   9   0 33492.9 4190.18   4
   9   0   0 31467.5 3277.50  12
   0   9   0 33374.0 4108.78   4
   9  -9   1 3033.95 1732.77  12
  -9   9   1 3815.40 1796.03   4
  -9   0   1 1483.68 1331.03   1
   0   9   1 2708.80 1684.69   4
   0   9   1-995.269 1897.89   3
   9   0   1 3237.95 1320.80  12
   0   9   2 52180.9 5605.64   3
  -9   0   2 43949.5 5141.88   1
  -9   9   2 65696.3 3512.79   9
   9   0   2 53099.0 6142.86   3
   9   0   2 71618.6 4478.98   7
  -9   0   2 56011.8 3324.55  11
   0   9   2 49679.8 5464.84   4
  -9   9   2 45094.6 5242.95   4
  -9   9   3 2867.37 1866.45   4
  -9   0   3 1987.88 1919.17   1
   0   9   3 3393.81 1000.28  10
  -9   9   3 4175.77 1321.56   9
   0   9   3 3626.21 2226.15   4
   0   9   3 3048.64 2017.41   3
   9   0   3 3428.21 2393.74   3
  -9   9   3 3256.90 1117.31  10
  -9   9   3 1467.17 1863.37   1
   9   0   3 7326.07 1733.92   7
  -9   0   3 3198.75 1275.98  11
  -9   9   4 10240.9 1638.02  10
   0  -9   4 11711.4 1780.55   8
  -9   0   4 11948.0 1852.05   8
   9   0   4 18405.6 2672.25   7
  -9   9   4 11366.0 1514.29  11
  -9   0   4 11242.0 1853.23  11
   0   9   4 13357.6 1806.37  10
  -9   0   5 511.144 990.454  11
   9   0   5 2771.87 1657.68   7
   0   9   5 1960.46 1121.49  10
   0  -9   5 2385.48 1330.13   8
  -9   0   5 3174.90 1355.82   8
  -9   9   5 1501.26 1056.06  10
  -9   9   5 897.237 819.731  11
  -9   0   6 1050.41 911.571  11
  -9   9   6-141.235 690.505  10
   0  -9   6 2431.95 1080.94   8
  -9   0   6 1806.17 1128.74   8
   9   0   6 3773.11 1355.75   7
   0  -9   7-855.347 634.854   8
  -9   0   7-910.020 598.985   8
   9   0   7-1684.42 808.646   7
  -5  10  -7 152.096 626.990   6
   5   5  -7-28.0222 592.493   6
   5   5  -6 14897.3 1987.88   6
  -5  10  -6 17221.5 2061.45   6
 -10   5  -5-389.835 929.305   6
  -5  10  -5-198.405 1085.44   6
   5   5  -5 1590.12 1274.62   5
 -10   5  -4 26918.2 2538.48   6
   5   5  -4 27925.0 3040.66   5
  -5  10  -4 30443.4 2905.77   6
  -5  10  -3 3022.16 1295.98   6
   5   5  -3 1889.92 1428.16   5
 -10   5  -3 528.176 759.712   6
  -5  10  -2 5813.30 2510.54   4
  -5  10  -1 2281.08 1808.55   4
   5   5  -1 15.1549 1418.99   3
  10  -5  -1 4302.12 1734.49  12
   5   5   0 137893. 9203.36   3
  -5  10   0 147224. 8979.02   4
  10  -5   0 156835. 8777.51  12
  -5  10   1 3453.30 1773.89   4
 -10   5   1-535.443 1622.74   1
  10  -5   1 4246.90 1728.89  12
   5   5   1 546.271 1949.62   3
  -5  10   2 3258.71 1917.01   4
  10  -5   2 2361.66 1467.83  12
 -10   5   2 2574.95 1683.63   1
   5   5   2 26.1898 1923.74   3
 -10   5   3-2064.81 2131.50   1
  -5  10   3 589.477 1469.30   4
  -5  10   3 684.911 919.756  10
   5 -10   3-1113.78 2020.89   2
  -5  -5   3 1475.30 1872.70   1
 -10   5   3 1017.94 1041.95   9
   5   5   3-1412.42 2027.46   3
   5   5   3 1305.72 1254.71   7
  10  -5   3 1988.19 1258.93   7
 -10   5   3-160.078 1081.56  11
  -5  -5   4 18228.5 3804.90   1
  -5  10   4 26042.8 2691.64  10
   5   5   4 20451.5 4232.49   3
   5   5   4 30416.0 3208.84   7
  10  -5   4 33298.8 3280.72   7
  10  -5   4 14722.4 3596.49   2
  -5  10   4 20220.5 4292.54   4
   5 -10   4 21692.0 4562.92   2
 -10   5   4 19482.7 4292.66   1
 -10   5   4 27448.5 2687.07  11
 -10   5   5 468.996 1056.61  11
  -5  10   5 577.722 1189.91  10
  -5  -5   5-13.8953 1294.47   8
   5   5   5 2645.28 1551.92   7
  10  -5   5-562.343 1200.89   7
 -10   5   6 17198.4 1899.45  11
  -5  10   6 14231.8 1794.06  10
   5   5   6 13121.4 1981.10   7
  10  -5   6 11667.4 1791.55   7
  -5  -5   7 72.1811 694.385   8
   5   5   7 324.103 521.749   7
  10  -5   7 1529.28 708.286   7
  -6  10  -7 468.243 657.573   6
  -4  10  -7 409.997 618.304   6
   4   6  -7 855.696 670.687   6
   6   4  -7 243.573 610.415   6
 -10   6  -6 19736.5 2102.84   6
   4   6  -6 25233.2 2464.59   6
  -6  10  -6 22810.4 2369.62   6
  -4  10  -6 22575.4 2330.77   6
  -6  10  -5 524.375 1155.76   6
  -4  10  -5 1.26842 1084.90   6
   4   6  -5-1678.20 1330.11   6
 -10   6  -5 77.9225 924.527   6
   4   6  -5 50.1824 1134.66   5
   6   4  -5 2180.43 1126.96   5
   6   4  -4 1519.33 1327.28   5
 -10   6  -4 3949.81 1276.15   6
  -6  10  -4 3466.42 1409.13   6
  -4  10  -4 3793.25 1334.37   6
   4   6  -4 4633.35 1704.34   5
 -10   4  -3 7852.57 1389.45   6
 -10   6  -3 8146.39 1477.31   6
  -4  10  -3 8958.56 1612.86   6
  -6  10  -3 8546.44 1509.29   6
   4   6  -3 8187.74 1921.09   5
   6   4  -3 7623.50 1680.45   7
   6   4  -3 7854.87 1748.98   5
  -4  10  -2 11533.8 3272.34   4
  -6  10  -2 12559.2 3505.63   4
  -6  10  -1 3078.56 1951.22   4
  -4  10  -1 2373.24 1863.43   4
   6   4  -1 3003.87 2065.09   3
   4   6  -1 2070.34 1586.20   3
   6 -10  -1 1851.80 1180.97  12
  10  -6  -1 1910.42 1550.68  12
  10  -4  -1 1028.19 1293.28  12
  -4  10   0 76564.7 6408.30   4
   4   6   0 80937.7 7019.64   3
   6   4   0 83265.7 7242.69   3
  10  -6   0 84028.8 6513.32  12
  10  -4   0 84508.2 6622.75  12
  -6  10   0 78890.9 6771.95   4
  -4  10   1 2221.30 1576.27   4
  -6  10   1 1621.33 1526.41   4
 -10   6   1 1808.46 1559.91   1
 -10   4   1 2507.02 1712.98   1
   4   6   1-666.990 2174.25   3
   6   4   1 3726.36 2168.63   3
  10  -4   1 1943.19 1329.42  12
  10  -6   1 2512.10 1422.95  12
  10  -6   2 15221.6 2935.97  12
 -10   4   2 8146.29 2526.97   1
  -6  10   2 15308.7 3452.90   4
  -6  -4   2 10836.5 2600.04   1
   4   6   2 10095.5 2790.03   3
   6   4   2 12164.1 3136.84   3
  -4  10   2 13463.1 3181.76   4
 -10   6   2 8863.48 2698.50   1
 -10   6   3 6166.03 1372.33  11
 -10   4   3 8818.27 1643.51  11
  -4  10   3 4469.83 2352.02   4
  -6  10   3 5464.63 2528.49   4
  -4  -6   3 3843.10 2045.70   1
  -4  10   3 7704.34 1462.58  10
  -6  10   3 6433.01 1341.81  10
   6   4   3 7969.59 1717.50   7
 -10   4   3 6406.45 1593.77   9
 -10   6   3 9866.06 1875.52   9
   4 -10   3 3998.74 1872.91   2
 -10   6   3 7087.91 2666.23   1
  -6  -4   3 5680.64 2498.68   1
   4   6   3 7721.14 2712.91   3
   6   4   3 5338.83 2637.51   3
  10  -4   3 9387.65 1906.87   7
 -10   4   3 8144.82 2863.63   1
   4   6   3 6203.62 1693.51   7
 -10   6   4 2926.56 1236.63  11
   6 -10   4 7413.19 2799.25   2
  -6  10   4 2409.88 1267.76  10
  -4  -6   4 6473.38 2592.16   1
   4 -10   4 11062.3 3389.44   2
 -10   6   4 4033.46 2443.33   1
  -4  10   4 3347.63 1343.44  10
   4   6   4 4971.54 1706.08   7
   4   6   4 3052.66 1685.95   3
  -6  -4   4 6389.67 2473.13   1
   6   4   4 7752.64 2752.04   3
 -10   4   4 3352.34 1331.49  11
 -10   4   4 8064.53 3079.87   1
  -4  10   4 3353.05 2027.65   4
  -6  10   4 5570.19 2701.07   4
   6   4   4 6646.71 1847.81   7
  10  -4   4 3740.54 1537.53   7
  10  -6   4 4168.15 1543.63   7
 -10   6   5 461.956 965.783  11
  -6  10   5 1029.20 1190.06  10
  10  -4   5-832.734 1247.04   7
  -4  10   5 721.587 1246.95  10
  -4  -6   5 917.851 1365.32   8
  -6  -4   5 1173.23 1453.72   8
   6   4   5 4493.14 1764.95   7
   4   6   5 2496.09 1493.89   7
  10  -6   5-646.393 1253.55   7
 -10   4   5 347.729 1079.63  11
  -4  10   6 24493.6 2158.27  10
  -6  10   6 23618.6 2219.06  10
  -4  -6   6 34737.7 2488.87   8
  -6  -4   6 33214.4 2438.79   8
   4   6   6 12891.5 1815.51   7
   6   4   6 19408.3 2404.64   7
  10  -4   6 15491.6 2056.97   7
  10  -6   6 13252.0 1958.77   7
 -10   6   6 26732.9 2171.77  11
 -10   4   6 25201.5 2166.17  11
  10  -6   7 819.115 668.678   7
  -4  -6   7 1310.34 805.078   8
  -6  -4   7 346.340 764.647   8
  10  -4   7 1350.86 721.375   7
   6   4   7-1227.28 642.193   7
  -7  10  -7 1323.96 756.580   6
  -3  10  -7-26.5180 575.434   6
   3   7  -7 491.735 577.672   6
   7   3  -7 568.920 608.684   6
  -3  10  -6 26015.9 2362.82   6
 -10   7  -6 22226.2 2237.30   6
   3   7  -6 27616.9 2566.76   6
  -7  10  -6 23614.8 2381.92   6
 -10   7  -5 1094.41 1030.40   6
  -7  10  -5 407.837 1118.00   6
  -3  10  -5 1080.79 1193.95   6
   3   7  -5 621.246 1091.85   6
  -7  10  -4 20184.1 2464.39   6
   3   7  -4 21684.4 2424.04   6
   7   3  -4 17993.1 2456.47   5
   3   7  -4 21114.3 2694.88   5
  -3  10  -4 21777.5 2490.90   6
 -10   7  -4 21014.9 2364.69   6
  -7  10  -3 27431.0 2535.42   6
  -3  10  -3 28641.1 2552.93   6
   3   7  -3 24556.7 2704.99   5
   7   3  -3 25855.0 2761.22   5
 -10   7  -3 26772.1 2466.44   6
   7   3  -3 22258.3 2404.83   7
 -10   7  -2 18505.4 1859.14   6
  -3  10  -2 15410.5 3466.31   4
  -7  10  -2 15546.0 3316.77   4
   3   7  -2 18119.8 2181.32   5
   7   3  -2 17830.4 2155.98   5
   7   3  -2 17728.2 1922.13   7
  -3  10  -1 9215.05 2609.58   4
  -7  10  -1 9025.33 2606.00   4
  10  -7  -1 12351.2 2753.98  12
   3   7  -1 8362.56 2282.69   3
   7 -10  -1 11520.4 2391.03  12
   7   3  -1 8980.94 2646.58   3
  10  -3  -1 12234.2 2609.64  12
  -7  10   0 3294.02 1956.89   4
  -3  10   0 1371.32 1431.51   4
   7 -10   0 2906.28 1384.02  12
  10  -3   0 4603.29 1787.59  12
   3   7   0 2038.20 1703.12   3
  10  -7   0 2535.76 1656.25  12
   7   3   0 1646.14 1885.90   3
 -10   3   1 6224.36 2331.17   1
  -3  10   1 11681.6 2812.45   4
  -7  10   1 10311.2 2836.71   4
   3   7   1 3966.12 2222.79   3
  -3  10   1 8901.48 2820.41   3
   7 -10   1 13390.9 2305.66  12
   7   3   1 6801.25 2439.59   3
  10  -7   1 15473.8 3011.12  12
  10  -3   1 13763.2 2613.91  12
  -7  10   2 18624.9 1776.38  10
  -3  10   2 14288.0 3336.25   4
  -3  10   2 17702.3 3624.08   3
 -10   3   2 19982.4 2326.35   9
 -10   7   2 22358.7 2302.44   9
  -7  10   2 14573.8 3412.45   4
   3   7   2 14418.1 3396.44   3
   7   3   2 13753.6 3369.83   3
 -10   3   2 16246.2 1964.07  11
 -10   3   2 15111.3 3233.58   1
  -7  -3   2 13365.4 2843.42   1
 -10   7   2 14783.6 3177.12   1
  10  -7   2 16647.6 3110.98  12
   7   3   2 8045.30 1814.13   7
 -10   7   3 31422.2 2911.53   9
  -3  10   3 26668.2 2328.88  10
  -7  10   3 25933.4 2269.13  10
 -10   3   3 24859.7 2800.77   9
   3   7   3 26596.6 4383.45   3
 -10   3   3 25926.0 4481.28   1
   7   3   3 25299.2 4675.74   3
  -7  -3   3 20273.9 3831.56   1
  10  -3   3 22024.4 4126.37   3
 -10   7   3 26627.2 4420.86   1
   3   7   3 9618.57 1767.36   7
   7   3   3 28509.2 2834.71   7
  10  -3   3 36641.2 3424.75   7
 -10   3   3 26114.4 2574.39  11
   3 -10   3 25982.4 3844.34   2
  -3  10   3 20307.3 4300.94   4
  -7  10   3 20197.9 4151.30   4
  -3  -7   3 21221.8 3781.72   1
 -10   7   3 26680.3 2420.81  11
  -7  -3   3 24751.2 2353.00  11
  -3  -7   4 13043.2 3445.46   1
  -7  10   4 21093.6 2326.93  10
   7   3   4 22497.3 2836.66   7
 -10   7   4 19781.6 2541.01   9
   3   7   4 13680.6 3269.22   3
   7   3   4 14580.7 3704.34   3
  -3  10   4 18889.0 2285.89  10
  -7  -3   4 13008.2 3305.59   1
   3   7   4 19525.5 2394.37   7
  10  -3   4 20785.9 2702.49   7
  -7  10   4 14385.6 3589.61   4
 -10   7   4 22016.7 2275.40  11
  -7  -3   4 21149.8 2150.86  11
 -10   3   4 21758.9 2342.24  11
 -10   7   5 508.300 931.154  11
 -10   3   5 1784.19 1208.73  11
   3   7   5 875.668 1167.45   7
  -7  10   5 2225.12 1214.13  10
  -3  10   5 1489.02 1163.28  10
  10  -3   5 473.157 1356.22   7
  -7  -3   5 1096.72 872.622  11
  10  -7   5 729.311 1118.43   7
  -3  -7   5 1408.65 1440.87   8
  -7  -3   5 1800.89 1416.56   8
   7   3   5 3940.38 1736.01   7
  -7  10   6 23631.6 2136.53  10
 -10   7   6 27528.2 2129.49  11
  -3  10   6 24252.5 2088.88  10
  -3  -7   6 36274.3 2494.05   8
  -7  -3   6 34774.5 2431.66   8
   7   3   6 23185.9 2553.66   7
  10  -3   6 24491.3 2366.22   7
  10  -7   6 11911.2 1780.00   7
 -10   3   6 25431.5 2172.37  11
  -7  -3   6 22545.3 1690.59  11
   7   3   7-1829.92 766.841   7
  -3  -7   7-21.8210 664.504   8
  -7  -3   7 219.921 678.228   8
  10  -3   7 509.841 593.588   7
 -10   8  -7-244.640 503.302   6
  -8  10  -7 997.327 669.184   6
  -2  10  -7-175.334 450.815   6
   2   8  -7 652.640 523.483   6
   8   2  -7-308.929 594.495   6
  -8  10  -6 7565.47 1554.02   6
   2   8  -6 8689.67 1506.41   6
 -10   8  -6 7848.83 1543.52   6
  -2  10  -6 8152.30 1427.39   6
 -10   8  -5-270.276 1091.97   6
  -8  10  -5-239.025 1135.91   6
  -2  10  -5-97.2207 970.196   6
   2   8  -5-392.088 996.125   6
  -2  10  -4 14282.7 2095.41   6
  -8  10  -4 12676.7 2079.22   6
   2   8  -4 10379.9 1819.91   6
 -10   8  -4 12036.9 1944.41   6
   2   8  -4 13338.4 2303.68   5
   8   2  -4 8140.26 1743.26   5
 -10   8  -3 13426.4 1895.47   6
   8   2  -3 12576.3 2016.33   5
   2   8  -3 12301.0 2044.63   5
   8   2  -3 12119.1 1886.29   7
  -8  10  -3 14865.8 2009.99   6
  -2  10  -3 11262.9 3702.07   4
  -2  10  -2 18871.0 3693.45   4
 -10   8  -2 21778.5 2057.54   6
  -8  10  -2 20661.0 1948.73   6
 -10   8  -2 13721.1 2772.09   4
  -2  10  -2 18010.8 2187.26   5
  -8  10  -2 15074.1 3366.71   4
   2   8  -2 19568.1 2291.20   5
   8   2  -2 17743.0 2145.62   5
   2   8  -2 19830.0 2204.56   7
   8   2  -2 19731.3 2014.71   7
  10  -2  -2 14973.2 2802.66  12
  -2  10  -1 1060.17 1383.16   4
 -10   8  -1 911.676 1262.74   4
  -8  10  -1 687.797 1262.06   4
  10  -2  -1 319.816 1106.92  12
  10  -8  -1-366.025 1388.23  12
   8 -10  -1 2205.58 1478.86  12
  -2  10   0 46087.4 4567.81   3
   8 -10   0 51262.7 4786.83  12
   2   8   0 40780.9 4739.15   3
  10  -2   0 46879.2 4710.72  12
  -2  10   0 39883.2 4795.99   4
  10  -8   0 50813.3 5353.88  12
 -10   8   0 45685.4 4284.16   4
  -8  10   0 48165.8 5348.59   4
  -2  10   1 1811.77 1683.21   4
  -8  10   1 1127.60 1396.12   4
  10  -8   1-293.986 1339.63  12
  -2  10   1-881.330 1770.77   3
  10  -2   1 241.813 1007.97  12
   2   8   1 347.862 1769.41   3
   8   2   1 2496.50 2031.82   3
   8 -10   1 907.617 1220.08  12
 -10   2   1 917.786 1419.97   1
  -8  -2   2 12843.1 2873.83   1
  -2  10   2 20120.9 1884.33  10
 -10   8   2 23507.8 2288.66   9
  -2  10   2 18196.8 3756.55   3
 -10   2   2 18538.5 2311.80   9
   2   8   2 17602.5 3555.33   3
   8   2   2 5396.85 1609.64   7
  -8  10   2 19348.7 3803.22   4
 -10   2   2 17709.9 3485.97   1
   8   2   2 15166.0 3609.93   3
  10  -2   2 24195.9 2852.24   7
 -10   8   2 15414.3 3303.56   1
   2   8   2 14300.6 2889.07   4
  -2  10   2 17158.2 3682.93   4
  10  -8   2 21779.6 3577.70  12
  -8  -2   2 18506.0 1955.74  11
 -10   2   2 19173.6 2159.17  11
  -8  10   2 21325.0 1921.34  10
  -8  10   3 8921.87 2877.55   4
  -2  10   3 13540.7 1803.08  10
  -8  10   3 14716.5 1786.32  10
  -2  10   3 10333.4 3261.96   4
 -10   8   3 14328.3 2042.09   9
  -8  -2   3 12556.6 1917.33  11
  -2  10   3 16092.6 3667.86   3
   2   8   3 5589.09 2213.59   3
 -10   2   3 11672.4 3247.90   1
   8   2   3 12552.1 3600.41   3
  10  -2   3 10720.1 3103.96   3
   8   2   3 14964.1 2119.78   7
 -10   8   3 11812.6 1683.72  11
 -10   8   3 9963.27 3226.28   1
  10  -2   3 18171.0 2548.45   7
  -2  -8   3 9022.15 2778.10   1
  -8  -2   3 8055.08 2664.34   1
 -10   2   3 13786.9 2011.99  11
   8   2   4 13775.6 2347.39   7
  -2  10   4 12385.9 1818.51  10
  -8  10   4 12011.7 1839.30  10
 -10   8   4 12461.3 1773.05  11
 -10   8   4 9839.17 1881.41   9
  -2  -8   4 8046.34 1876.42   8
  -8  -2   4 9227.24 1954.17   8
  10  -2   4 14530.3 2382.59   7
  -8  -2   4 11241.0 1776.04  11
 -10   2   4 12298.2 1981.73  11
 -10   8   5-320.847 871.242  11
  -8  -2   5-45.3707 800.259  11
 -10   2   5 2032.66 1291.51  11
  -2  10   5 679.068 1241.35  10
 -10   8   5 279.447 799.879  10
  -8  10   5 850.150 1094.63  10
  -2  -8   5 892.442 1391.31   8
  -8  -2   5 766.427 1328.71   8
   8   2   5 2599.93 1698.76   7
  10  -2   5 2576.30 1519.86   7
  -8  10   6 6704.36 1278.29  10
  -2  10   6 6677.66 1264.10  10
  -2  -8   6 13610.2 1663.99   8
  -8  -2   6 12970.6 1681.80   8
  10  -2   6 9582.01 1649.09   7
   8   2   6 7653.49 1591.64   7
 -10   8   6 8588.09 1300.43  11
  -8  -2   6 6779.58 1131.24  11
 -10   2   6 6948.82 1341.43  11
  -2  -8   7-866.018 685.530   8
  -8  -2   7 271.078 604.654   8
   8   2   7-1577.69 685.429   7
  10  -2   7-1026.59 578.642   7
  -9  10  -7 649.404 559.142   6
  -1  10  -7-368.035 444.883   6
   1   9  -7-96.6643 391.353   6
   9   1  -7-299.122 517.794   6
 -10   9  -7 481.264 487.300   6
 -10   9  -6 1592.05 1037.07   6
  -9  10  -6 1523.79 1041.83   6
  -1  10  -6 1941.06 959.676   6
   1   9  -6 407.935 766.956   6
 -10   9  -5 825.681 1128.45   6
  -9  10  -5 1139.47 1224.98   6
   1   9  -5 1814.02 1152.43   6
  -1  10  -5 1221.52 1087.07   6
 -10   9  -4 2883.22 1406.09   6
  -9  10  -4 1789.95 1295.04   6
  -1  10  -4 3655.44 1327.64   6
   1   9  -4 3260.17 1573.61   5
   9   1  -4 2057.43 1082.60   5
  -1  10  -3-385.613 1698.12   4
 -10   9  -3 833.283 1027.35   6
  -9  10  -3 1294.13 1070.92   6
  -1  10  -3 1307.75 1222.02   5
   1   9  -3 1421.96 1353.76   5
   9   1  -3 1640.90 1173.25   7
   9   1  -3 1017.21 1198.09   5
  10  -1  -3 693.024 987.899   5
  -1  10  -2 59594.3 6357.36   4
 -10   9  -2 54427.6 5636.68   4
  10  -9  -2 57350.6 6209.29  12
 -10   9  -2 65825.2 3531.56   6
  -9  10  -2 63087.0 3460.69   6
  10  -1  -2 53864.9 5021.49  12
  -1  10  -2 64252.9 3793.42   5
   1   9  -2 58277.8 3668.43   5
   9   1  -2 62986.9 3729.07   5
  -9  10  -2 56070.9 6030.24   4
  10  -1  -2 66837.5 3628.40   7
   9   1  -2 63384.1 3608.81   7
   9 -10  -2 55792.5 5784.16  12
  -1  10  -1-981.527 1554.09   4
 -10   9  -1 132.193 1268.31   4
 -10   9  -1 164.351 765.001   6
  -9  10  -1 747.737 1486.15   4
  -9  10  -1 1326.87 842.070   6
   9 -10  -1 584.802 1544.02  12
  10  -9  -1-486.906 1290.21  12
   9   1  -1 575.775 969.842   7
   1   9  -1-896.473 1129.35   4
  10  -1  -1-420.056 947.826  12
  -9  10   0 51466.0 5548.35   4
  -1  10   0 47660.3 4702.00   3
   1   9   0 46376.6 4848.24   3
   9 -10   0 57875.4 5548.58  12
  10  -9   0 64962.3 6222.59  12
  10  -1   0 53165.2 4701.12  12
   1   9   0 59833.2 5161.07   4
  -1  10   0 52460.9 5401.88   4
 -10   9   0 53212.7 4967.26   4
 -10   9   1-266.834 1085.87   4
 -10   1   1 392.179 924.710  11
  -1  10   1-799.571 1544.22   4
  -9  10   1 262.577 1581.67   4
 -10   9   1-170.390 880.971   6
   1   9   1 286.529 1258.70   4
   9   1   1-13.3074 1274.11   7
 -10   9   1 89.9762 722.575   9
   9 -10   1 577.937 1125.83  12
  -1  10   1-2617.56 1850.40   3
   1   9   1 838.979 2139.15   3
   9   1   1-585.224 1790.94   3
 -10   1   1-22.5534 1543.52   1
  10  -9   1-152.346 1154.38  12
  10  -1   1-897.596 1208.00  12
  -9  10   2 64486.3 3295.27  10
  -1  10   2 61053.3 6203.14   3
   1   9   2 53874.6 5867.57   3
 -10   9   2 75059.0 3984.00   9
  -9  10   2 75359.2 3790.76   9
  -1  10   2 63123.4 3136.07  10
 -10   1   2 56952.5 5998.00   1
   9   1   2 60712.2 6722.76   3
  10  -1   2 60218.1 6457.14   3
 -10   9   2 60369.1 3020.22  10
   9   1   2 36078.6 3504.17   7
  10  -1   2 33504.0 3621.66   7
   1   9   2 57793.0 5713.41   4
 -10   9   2 53513.3 5627.60   4
  -1  10   2 51950.5 5980.54   4
  -9  10   2 51351.1 5873.13   4
  -9  -1   2 62484.2 3504.57  11
 -10   1   2 60439.1 3554.24  11
  -1  10   3 1459.33 1621.77   4
  -9  10   3 1081.58 930.687  10
  -9  10   3 1012.68 1519.29   4
  -9  -1   3 655.129 1619.52   1
 -10   9   3 2095.67 974.767  10
 -10   9   3 1602.09 1135.46   9
  -9  10   3 1648.38 976.976   9
  -1  10   3 1534.80 2219.40   3
   1   9   3-1403.75 2195.57   3
 -10   1   3-391.644 2373.68   1
  -1  10   3 1446.28 963.053  10
   9   1   3-215.558 1919.18   3
  10  -1   3-519.681 1866.61   3
  -1  -9   3 454.700 1709.59   1
 -10   1   3 1534.49 1183.05  11
   1   9   3 1248.65 1530.13   4
  -9  -1   3-53.4714 1061.98  11
   9   1   3 1623.78 1275.39   7
  10  -1   3 2507.44 1446.89   7
 -10   9   4 2136.06 939.711  11
 -10   1   4 1720.99 1101.52  11
  -1  10   4 1960.64 1091.76  10
 -10   9   4 2319.21 1108.34  10
  -9  10   4 908.777 951.424  10
 -10   9   4 268.703 1022.86   9
  -9  -1   4 2202.36 1249.08  11
   1 -10   4 2491.43 1101.50   8
 -10   1   4 2948.26 1280.76   8
  -1  -9   4-1065.68 1566.69   8
  -9  -1   4-780.222 1515.72   8
   1   9   4 1964.37 1008.04  10
   9   1   4 3319.77 1661.99   7
  10  -1   4 4886.18 1835.66   7
  -9  -1   5 1660.84 981.276  11
 -10   1   5 2090.67 1111.75  11
 -10   9   5 1878.18 1004.97  10
   1   9   5 187.614 708.686  10
  -9  10   5 1945.93 1192.86  10
   1 -10   5 2261.87 1066.22   8
 -10   1   5 3465.52 1221.44   8
  -1  -9   5 4062.12 1493.63   8
  -9  -1   5 2260.82 1307.19   8
   9   1   5 4335.45 1739.58   7
  10  -1   5 4198.61 1599.32   7
  -1  10   5 3079.69 1199.54  10
 -10   9   5 1062.38 883.867  11
  -9  10   6 810.574 704.230  10
   9   1   6 1354.54 1091.96   7
 -10   1   6 1432.35 879.487  11
   1 -10   6 693.260 776.656   8
 -10   1   6 2430.78 900.371   8
  -1  -9   6 3194.84 1045.37   8
  -9  -1   6 3095.40 1132.96   8
  10  -1   6 1767.97 1127.53   7
  -9  -1   6 989.698 717.316  11
   9   1   7-504.368 537.702   7
  10  -1   7-1153.86 593.317   7
  10   0  -7-87.6928 473.278   6
   0  10  -6 1428.08 769.192   6
 -10  10  -6 1248.66 952.277   6
   0  10  -5 4975.20 1325.13   6
 -10  10  -5 6345.76 1643.93   6
 -10  10  -4 3204.16 1440.21   6
 -10  10  -3 3931.33 2438.05   4
 -10  10  -3 5911.19 1548.27   6
   0  10  -3 5508.28 1652.96   5
  10   0  -3 3472.43 1298.43   5
 -10  10  -2 81235.9 3986.74   6
 -10  10  -2 63924.9 6381.20   4
   0  10  -2 76527.0 4126.41   5
  10   0  -2 71581.7 4067.86   5
  10   0  -2 74556.6 4085.21   7
  10 -10  -2 77834.6 7153.30  12
   0  10  -2 77114.8 6823.83   4
 -10  10  -1 9094.32 1509.00   6
   0  10  -1 8886.95 2388.53   4
 -10  10  -1 9712.41 2620.49   4
   0  10  -1 5632.79 1367.28   5
  10   0  -1 10934.2 1845.21   7
  10 -10  -1 9271.87 2761.71  12
 -10  10   0 94857.7 4365.30   6
   0  10   0 65445.8 5560.68   3
 -10  10   0 95676.8 4198.50   9
 -10   0   0 83944.5 4025.17  11
 -10  10   0 81325.5 3433.86  10
  10   0   0 84236.8 4566.29   7
  10 -10   0 88103.2 7363.47  12
   0  10   0 83248.1 6566.86   4
 -10  10   0 74996.2 6321.50   4
   0  10   1 8368.90 2577.45   4
 -10  10   1 8195.38 2356.82   4
 -10  10   1 8798.47 1643.26   6
 -10  10   1 8790.91 1320.30  10
 -10  10   1 10384.5 1589.92   9
   0  10   1 6997.54 2336.98   3
  10   0   1 11330.5 2041.64   7
  10 -10   1 7857.69 2258.47  12
 -10   0   1 9275.05 1569.94  11
 -10  10   2 72606.9 3415.12  10
   0  10   2 67310.6 6554.71   3
 -10  10   2 87652.3 4347.35   9
  10   0   2 69918.1 7181.92   3
  10   0   2 73963.0 4950.67   7
   0  10   2 65903.2 6620.42   4
 -10  10   2 66001.2 6642.29   4
 -10   0   2 76910.3 3957.55  11
 -10   0   3 3907.98 1317.62  11
   0  10   3 4551.82 1111.84  10
 -10  10   3 5365.18 1229.62  10
 -10  10   3 6187.69 1494.82   9
   0  10   3 5057.52 2207.93   4
   0  10   3 3315.22 2131.67   3
 -10   0   3 3420.54 1904.46   1
  10   0   3 1437.88 2107.94   3
   0 -10   3 1719.90 1605.08   1
  10   0   3 5426.94 1757.58   7
 -10   0   4 1777.03 1125.96  11
   0  10   4 2189.68 1083.35  10
 -10  10   4 2323.79 1085.24  10
 -10  10   4 1080.90 938.024   9
   0 -10   4 2610.68 1253.87   8
 -10   0   4 1654.62 1220.26   8
  10   0   4 3033.65 1653.96   7
   0  10   5 5718.56 1223.65  10
 -10  10   5 6458.78 1383.68  10
 -10   0   5 5091.81 1302.26  11
   0 -10   5 7323.27 1447.03   8
 -10   0   5 8991.47 1523.80   8
  10   0   5 7161.44 1807.05   7
   0 -10   6 2209.98 910.543   8
 -10   0   6 1436.38 820.824   8
  10   0   6 844.133 888.372   7
 -10   0   6 1072.71 711.026  11
  10   0   7 307.436 426.576   7
  -5  11  -7-761.078 521.169   6
   5   6  -7 31.5234 429.011   6
   6   5  -7-185.869 444.743   6
  -6  11  -7 765.681 516.862   6
  -6  11  -6 12478.6 1688.09   6
  -5  11  -6 13593.4 1693.56   6
   5   6  -6 13473.9 1773.62   6
   6   5  -6 15459.0 1839.73   6
 -11   6  -5 965.289 939.392   6
  -6  11  -5 1042.35 1080.12   6
  -5  11  -5 1069.00 1049.98   6
   5   6  -5 414.500 979.325   6
   5   6  -5 642.825 1184.82   5
   6   5  -5 1256.89 1113.61   5
 -11   6  -4 7763.14 1602.17   6
  -6  11  -4 7259.12 1638.76   6
  -5  11  -4 7353.61 1581.07   6
 -11   5  -4 6746.35 1485.72   6
   5   6  -4 6955.84 1847.77   5
   6   5  -4 6568.39 1748.01   5
  -5  11  -3 413.468 1756.65   4
  -6  11  -3 3713.16 2566.32   4
 -11   6  -3 1753.82 1011.38   6
  -6  11  -3 2184.32 1080.54   6
  -5  11  -3 2078.94 967.633   6
   5   6  -3 3267.93 1513.45   5
   6   5  -3 2215.03 1431.13   5
 -11   5  -3 5437.29 1355.02   6
  -5  11  -2 2348.70 2033.82   4
 -11   5  -2 2177.15 976.295   6
 -11   6  -2 1754.15 917.897   6
  -6  11  -2 3206.48 2293.99   4
  -6  11  -2 3299.51 936.629   6
   5   6  -2 3853.56 1524.34   5
   6   5  -2 3288.88 1434.08   5
   5   6  -2 2786.01 1218.17   7
  11  -6  -2 3106.86 1973.01  12
   6   5  -2 3155.62 1207.84   7
  11  -5  -2 2345.50 1793.71  12
  -5  11  -1 2273.43 1946.14   4
  -6  11  -1 1347.93 1588.14   4
  11  -6  -1 2167.73 1733.43  12
   5   6  -1 621.771 1641.22   3
   6   5  -1 2536.50 2202.72   3
   5   6  -1 2397.98 1318.71   5
   6   5  -1 1943.21 1208.99   5
   5   6  -1 1932.68 985.482   7
   6   5  -1 3300.89 1161.60   7
  11  -5  -1 2449.39 1748.99  12
   5   6   0 158071. 10536.8   3
  11  -6   0 147260. 9003.99  12
   6   5   0 156947. 10616.5   3
  -6  11   0 144514. 9648.77   4
  11  -5   0 161324. 9443.89  12
  -5  11   0 138088. 9474.57   4
 -11   5   1 1303.72 1029.16   6
 -11   5   1 1444.49 1061.92  11
  -5  11   1 940.366 1528.34   4
  -6  11   1 359.168 1600.50   4
 -11   6   1 1180.36 886.399   6
  11  -5   1 1849.99 1603.20  12
  -5  11   1 2077.81 929.503  10
 -11   5   1 3917.92 1209.98   9
 -11   6   1 2843.16 1082.86   9
  -6  11   1 2543.21 1000.97  10
   5   6   1-695.635 2459.35   3
   6   5   1 3340.59 2550.96   3
   6   5   1 65.3343 1213.53   7
  11  -6   1 1404.04 1316.49  12
 -11   5   2 1500.85 1692.93   1
 -11   6   2 2822.96 1231.74  11
 -11   5   2 3356.38 1237.84  11
  -6  11   2 3427.81 2324.16   4
  -5  11   2 2216.14 938.774  10
  -6  11   2 1099.40 845.725  10
 -11   5   2 2208.30 1355.71   9
 -11   6   2 4517.03 1513.07   9
  -5  11   2 1804.30 1851.40   4
   5   6   2 1612.94 2052.84   3
   6   5   2-906.680 2186.57   3
 -11   6   2 1567.77 1690.84   1
   5   6   2 3268.55 1360.64   7
   6   5   2 2032.23 1129.33   7
  11  -6   2 1360.84 1466.26  12
  -6  11   3 858.918 1633.98   4
 -11   5   3 1382.92 1244.96  11
   6 -11   3-236.758 2091.02   2
   5 -11   3-1196.31 1775.61   2
   6   5   3-1681.48 1327.71   7
  -5  11   3 2049.86 1063.11  10
  -6  11   3 2392.23 1080.96  10
 -11   6   3 1761.62 1215.01  11
 -11   5   3 1727.82 1248.33   9
 -11   6   3 1938.70 1245.14   9
 -11   5   3 447.152 1961.72   1
   5   6   3 344.730 1937.81   3
   6   5   3 869.534 1759.34   3
  -5  11   3 1067.63 1454.59   4
 -11   6   3 1495.45 1992.49   1
   5   6   3-2202.13 1508.61   7
 -11   5   4 8381.13 1754.84  11
  -6  11   4 7150.12 1649.59  10
  11  -5   4 11084.3 2140.86   7
 -11   6   4 7734.00 1681.63  11
   5   6   4 6112.88 1765.04   7
   6   5   4 7006.06 1773.69   7
  -5  11   4 7885.59 1705.81  10
  11  -6   4 7593.09 1834.93   7
 -11   6   5 841.243 1003.11  11
 -11   5   5 358.433 1057.10  11
  -6  11   5 882.305 1208.72  10
  -5  11   5 1408.25 1157.25  10
  11  -6   5 347.615 1165.92   7
  -5  -6   5 1241.46 1409.16   8
  -6  -5   5 1158.38 1393.85   8
   5   6   5-231.977 1242.99   7
   6   5   5 405.838 1205.26   7
  11  -5   5 1418.09 1303.23   7
  -5  11   6 13478.9 1616.88  10
  -6  11   6 15293.3 1713.55  10
  -5  -6   6 20493.1 1960.78   8
  -6  -5   6 18467.7 1863.61   8
  11  -5   6 13015.2 1773.95   7
  11  -6   6 11096.4 1679.41   7
   5   6   6 6481.28 1290.61   7
 -11   6   6 15571.9 1676.05  11
 -11   5   6 16166.9 1749.90  11
  -5  -6   7 157.830 578.244   8
  -6  -5   7-430.342 608.094   8
  -7  11  -7 1180.44 599.609   6
  -4  11  -7-23.3479 421.908   6
   7   4  -7 506.808 496.571   6
 -11   7  -6 17942.4 1945.88   6
  -7  11  -6 21579.2 2132.21   6
  -4  11  -6 20861.2 1987.34   6
   4   7  -6 24667.4 2170.40   6
   7   4  -6 21444.2 2099.10   6
 -11   7  -5-685.527 1056.60   6
  -7  11  -5 524.136 1013.62   6
  -4  11  -5-310.119 955.353   6
   4   7  -5-386.530 979.915   6
   4   7  -5-241.190 1073.94   5
   7   4  -5 419.791 979.259   5
  -7  11  -4 4702.56 1442.47   6
  -4  11  -4 5194.50 1384.23   6
   4   7  -4 5169.53 1790.92   5
   7   4  -4 3764.07 1416.94   5
 -11   7  -4 4782.98 1431.82   6
  -7  11  -3 26704.0 5040.08   4
 -11   7  -3 31976.0 2704.95   6
  -7  11  -3 33813.0 2754.19   6
  -4  11  -3 35197.2 2609.12   6
  -4  11  -3 27039.8 5438.54   4
   4   7  -3 31800.0 3050.93   5
   7   4  -3 31773.8 2935.28   5
   7   4  -3 28949.4 2941.31   7
  -7  11  -2 3156.63 2094.18   4
 -11   4  -2 5754.07 1265.69   6
  -4  11  -2 4506.62 2214.51   4
 -11   7  -2 5092.30 1234.98   6
  -7  11  -2 6080.89 1151.60   6
 -11   7  -2 4733.18 1121.39   9
   4   7  -2 4382.06 1545.42   5
   7   4  -2 5720.21 1572.08   5
   4   7  -2 6814.67 1529.49   7
   7   4  -2 6059.10 1463.10   7
  11  -7  -2 4472.62 2351.35  12
  11  -4  -2 4253.43 2076.87  12
 -11   7  -1 1545.39 963.935   6
 -11   4  -1 818.609 814.205  11
  -4  11  -1 1515.13 1463.74   4
  -7  11  -1-157.917 1577.72   4
  11  -4  -1 1641.36 1546.75  12
 -11   7  -1 1190.60 853.524   9
   4   7  -1 1194.29 1310.74   5
   7   4  -1 834.817 1754.97   3
   7   4  -1 459.485 1198.71   5
   4   7  -1 1532.64 1002.32   7
   7   4  -1 2164.27 1135.91   7
  11  -7  -1 2471.12 1929.31  12
  -7  11   0 65626.3 6721.07   4
   4   7   0 70016.6 6843.53   3
  11  -4   0 72156.1 6384.67  12
   7   4   0 69339.6 7176.50   3
   7   4   0 70699.9 3914.80   7
  11  -7   0 68588.6 6310.06  12
  -4  11   0 58907.0 6129.60   4
 -11   4   1 2211.76 1101.56  11
  -4  11   1 622.818 1671.43   4
  -7  11   1 1056.37 1903.98   4
  -4  11   1 1229.82 866.301  10
  -7  11   1 871.012 780.177  10
 -11   4   1 724.970 1570.95   1
 -11   4   1 2027.50 1000.94   9
 -11   7   1 2123.54 1048.63   9
 -11   7   1 956.274 884.855   6
   4   7   1 167.418 2098.96   3
   7   4   1 1353.22 2155.84   3
   7   4   1-428.242 1382.54   7
  11  -7   1 882.895 1390.65  12
  11  -4   1 1371.19 1626.48  12
 -11   4   2 5491.37 1542.42  11
  -4  11   2 3725.67 2040.62   4
  -7  11   2 4594.40 2293.62   4
  -7  11   2 4649.31 1154.35  10
  -4  11   2 5332.88 1209.66  10
 -11   7   2 6037.96 1415.08  11
 -11   4   2 4214.92 1294.07   9
 -11   7   2 7027.09 1616.05   9
   4   7   2 5246.95 2349.63   3
   7   4   2 7232.22 2904.45   3
 -11   4   2 3684.59 2177.10   1
   4   7   2 5926.69 1637.07   7
 -11   7   2 5831.82 2349.74   1
   7   4   2 5010.36 1475.88   7
  11  -4   2 4198.68 1340.78   7
  11  -7   2 4837.23 1958.19  12
  -7  11   3 31641.2 2605.34  10
  -4  11   3 33616.0 2620.85  10
 -11   4   3 19587.0 4048.59   1
 -11   7   3 20715.0 4153.33   1
 -11   4   3 34539.5 3471.55   9
 -11   7   3 38105.5 3363.83   9
   4   7   3 22105.2 4070.36   3
   7   4   3 22275.6 4502.90   3
   4   7   3 28573.0 2923.56   7
   7   4   3 21920.2 2431.58   7
  11  -4   3 48597.5 3854.99   7
  -4  11   3 26260.4 4782.45   4
  -7  11   3 24997.8 4764.24   4
 -11   7   3 33461.2 2862.47  11
 -11   4   3 35416.3 3042.73  11
 -11   7   4 4128.21 1432.08  11
 -11   4   4 4252.96 1506.08  11
  -7  11   4 5225.07 1472.80  10
 -11   7   4 2323.03 1268.18   9
  11  -4   4 7621.85 1987.96   7
  -4  11   4 3726.30 1322.46  10
   7   4   4 5351.78 1753.23   7
 -11   7   5 188.480 994.958  11
 -11   4   5 959.406 1082.86  11
  -4  11   5 984.740 1108.19  10
  -7  11   5 929.925 1149.05  10
  -4  -7   5-82.1843 1287.04   8
  -7  -4   5 2591.98 1502.96   8
   7   4   5 295.286 1298.82   7
   4   7   5-3774.34 1620.97   7
  11  -4   5 4532.19 1615.06   7
  -7  11   6 21117.1 1908.87  10
  -4  11   6 21393.2 1877.00  10
  -7  -4   6 34454.8 2274.12   8
  11  -4   6 17410.0 1987.34   7
  11  -7   6 12807.1 1782.55   7
  -4  -7   6 32384.4 2282.67   8
 -11   7   6 24944.3 2020.29  11
 -11   4   6 24486.8 2002.24  11
  -4  -7   7 38.1886 538.247   8
  -7  -4   7-174.124 558.450   8
  -8  11  -7 143.119 460.143   6
   3   8  -6 17992.1 1837.16   6
 -11   8  -6 17197.4 1908.29   6
  -8  11  -6 18659.7 2036.78   6
  -3  11  -6 14398.7 1650.88   6
 -11   8  -5-467.552 1036.96   6
  -8  11  -5 124.353 1122.43   6
  -3  11  -5 940.245 981.446   6
   3   8  -5 955.307 1050.50   6
 -11   8  -4 4209.01 1391.85   6
  -8  11  -4 4680.90 1543.30   6
  -3  11  -4 3992.19 1323.39   6
   3   8  -4 4692.23 1718.19   5
   8   3  -4 3232.15 1339.55   5
 -11   8  -3 15059.3 1997.04   6
  -8  11  -3 15322.9 2005.15   6
  -8  11  -3 13335.9 3747.60   4
  -3  11  -3 12916.2 3843.80   4
   3   8  -3 12951.7 2221.02   5
   8   3  -3 12095.8 2002.48   5
   8   3  -3 11185.0 2019.76   7
  -3  11  -2 28192.6 4881.34   4
  -8  11  -2 24027.0 4377.69   4
 -11   8  -2 29872.7 2552.92   6
  -8  11  -2 30569.0 2400.88   6
 -11   8  -2 32042.7 2626.14   9
   3   8  -2 29828.0 2783.95   5
   8   3  -2 31213.7 2832.86   5
   3   8  -2 31460.9 2815.68   7
   8   3  -2 29231.2 2562.47   7
  11  -8  -2 30120.0 4964.03  12
   8 -11  -2 26165.6 3868.28  12
  11  -3  -2 27420.0 3983.02  12
  -8  11  -1 12468.5 1505.46   6
 -11   3  -1 10489.3 1429.58  11
 -11   8  -1 13768.2 1765.53   6
  -3  11  -1 9861.01 2656.89   4
  -8  11  -1 10667.7 3009.51   4
 -11   8  -1 13002.6 1693.61   9
   3   8  -1 12245.9 1905.42   5
   8 -11  -1 11969.3 2707.06  12
   3   8  -1 12168.8 1623.67   7
   8   3  -1 13531.9 1938.86   7
   8   3  -1 9397.76 3233.28   3
   8   3  -1 11654.1 1976.63   5
  11  -8  -1 14284.5 3351.86  12
  11  -3  -1 11890.6 2822.43  12
 -11   8   0 13378.8 1833.08   6
  -3  11   0 11134.0 2869.18   4
  -8  11   0 11564.6 3183.17   4
  -3  11   0 9515.23 1364.32  10
  -8  11   0 11759.0 1618.65  10
 -11   8   0 12325.6 1698.63   9
  11  -3   0 10624.0 2661.57  12
   3   8   0 8676.13 2577.22   3
   8   3   0 11870.0 1839.86   7
   8   3   0 10094.0 3115.47   3
  11  -8   0 11572.4 2995.18  12
   8 -11   0 9564.70 2079.47  12
 -11   3   0 12881.2 1707.49  11
 -11   8   1 11689.0 1838.10   6
  -3  11   1 10283.3 2876.95   4
  -8  11   1 11489.5 3133.29   4
  -8  11   1 12777.5 1652.21  10
  -3  11   1 12846.1 3241.44   3
 -11   3   1 11019.7 1627.05   9
 -11   8   1 13443.3 1843.11   9
  -8  11   1 15049.2 1723.51   9
 -11   3   1 9573.23 2718.57   1
   3   8   1 13529.7 3698.20   3
  -3  11   1 13154.8 1521.49  10
   8   3   1 9704.66 3143.32   3
   8   3   1 10630.3 1991.72   7
  11  -3   1 11810.9 2762.43  12
  11  -8   1 10974.5 2719.72  12
 -11   3   1 14729.2 1949.07  11
  -3  11   2 28690.4 2276.96  10
  -8  -3   2 28340.3 2379.25  11
  -3  11   2 33962.2 4992.01   3
 -11   3   2 27254.5 2880.73   9
 -11   8   2 40902.5 3173.35   9
   3   8   2 26185.3 4342.54   3
  -8  11   2 31937.9 2472.37  10
   8   3   2 31913.2 5271.54   3
 -11   8   2 32794.2 2612.87  11
 -11   3   2 28308.1 4639.73   1
   8   3   2 27537.2 3039.90   7
  11  -3   2 13271.9 2500.56   7
  -3  11   2 25879.6 4325.60   4
  -8  11   2 24981.9 4524.50   4
  11  -8   2 27670.1 4226.62  12
 -11   3   2 29146.5 2712.50  11
  -8  11   3 9876.28 3186.58   4
  -3  11   3 14450.0 1884.45  10
  -8  11   3 12512.3 1802.72  10
 -11   8   3 13380.6 2140.80   9
   3   8   3 8025.45 2829.63   3
   8   3   3 9046.12 3274.32   3
 -11   8   3 7388.32 2746.93   1
  -3  11   3 11937.0 3328.84   4
 -11   3   3 10252.8 3080.69   1
  11  -3   3 9741.63 3100.56   3
  11  -3   3 17284.9 2492.51   7
   8   3   3 7305.00 1653.36   7
 -11   8   3 13028.0 1862.42  11
  -8  -3   3 13740.2 1863.68  11
 -11   3   3 14622.2 2129.64  11
 -11   8   4 6406.39 1539.26  11
  -8  -3   4 4830.76 1213.15  11
  -8  11   4 3607.99 1321.96  10
  -3  11   4 2775.60 1141.21  10
 -11   8   4 1670.76 1070.21   9
 -11   3   4 4332.26 1462.84  11
  -3  -8   4-870.674 1654.17   8
   8   3   4 4817.39 1784.59   7
  11  -3   4 7670.00 1916.61   7
 -11   8   5 301.983 860.365  11
  -8  -3   5 56.8919 720.275  11
 -11   3   5 1168.88 1136.97  11
  -3  11   5 1322.88 1223.47  10
  -8  11   5 557.382 1148.90  10
  -3  -8   5 795.694 1421.04   8
  -8  -3   5 123.248 1274.13   8
   8   3   5 2477.79 1419.41   7
  11  -3   5 4165.37 1612.41   7
  -8  11   6 16862.8 1714.35  10
  -3  -8   6 27363.7 2081.40   8
  -8  -3   6 26131.0 1995.22   8
  11  -3   6 15224.0 1790.82   7
  -3  11   6 16749.5 1659.19  10
 -11   8   6 20669.0 1710.56  11
 -11   3   6 20566.5 1832.43  11
  -3  -8   7-390.783 529.420   8
  -8  -3   7-212.714 495.361   8
  -9  11  -7-362.822 432.744   6
 -11   9  -6 3738.40 1134.52   6
  -9  11  -6 4976.92 1258.68   6
  -2  11  -6 4614.24 996.622   6
   2   9  -6 4925.35 1015.65   6
 -11   9  -5 2510.48 1268.90   6
  -9  11  -5 3057.79 1335.35   6
  -2  11  -5 3041.49 1130.29   6
   2   9  -5 2190.24 1006.08   6
  -2  11  -4 1420.95 1022.34   6
 -11   9  -4 3019.27 1322.58   6
  -9  11  -4 2778.91 1470.65   6
   2   9  -4 3227.48 1559.99   5
   9   2  -4 2639.39 1284.95   5
  -2  11  -3 3856.62 2569.26   4
  -9  11  -3 2215.04 2211.65   4
 -11   9  -3 4964.87 1447.14   6
  -9  11  -3 4460.08 1369.66   6
   2   9  -3 4315.46 1669.82   5
   9   2  -3 4250.56 1419.24   7
   9   2  -3 3548.60 1454.97   5
  -2  11  -2 47356.9 5975.04   4
  -9  11  -2 40157.8 5444.03   4
  -9  11  -2 49448.5 3095.93   6
  -2  11  -2 50355.1 3348.83   5
   2   9  -2 44450.1 3307.93   5
   9   2  -2 45488.5 3387.32   5
  11  -2  -2 52423.3 3287.96   7
   9 -11  -2 46454.4 5421.57  12
   9   2  -2 48363.3 3276.54   7
 -11   9  -2 48185.4 3222.12   6
  11  -9  -2 46473.7 5981.08  12
  11  -2  -2 41346.3 4742.30  12
  -9  -2  -1 1181.73 902.420  11
  -2  11  -1 1430.52 1507.08   4
  -9  11  -1 539.481 1420.03   4
 -11   9  -1 943.934 897.743   6
  -9  11  -1 1220.34 808.166   6
 -11   9  -1 2055.46 967.614   9
  -2  11  -1 1438.32 1019.66   5
 -11   2  -1 1136.83 838.408  11
   2   9  -1 1955.74 1255.00   5
  11  -2  -1 2493.72 1174.22   7
   9   2  -1 3112.70 1318.61   7
   9 -11  -1 931.532 1411.47  12
  11  -9  -1 1499.87 1730.76  12
  11  -2  -1 2360.48 1540.07  12
 -11   9   0 45648.4 3144.62   6
  -9  11   0 50356.2 3173.37   6
  -2  11   0 38948.7 2373.10  10
  -2  11   0 40171.4 4583.91   3
   2   9   0 37347.7 4580.28   3
 -11   9   0 48041.6 3169.86   9
 -11   2   0 41298.5 2900.82  11
   9   2   0 39549.7 5880.04   3
  -9  11   0 41904.7 2773.62  10
  11  -2   0 39202.2 3062.40   7
   9   2   0 41841.7 3447.79   7
  11  -9   0 41696.5 5244.51  12
   9 -11   0 43687.3 4797.21  12
  11  -2   0 40907.4 4463.03  12
  -2  11   0 37196.0 4741.29   4
  -9  11   0 43210.0 5349.62   4
  -9  -2   0 43741.7 2895.66  11
 -11   2   1 1781.03 1124.52  11
  -2  11   1 1058.15 1612.35   4
  -9  11   1 1950.98 1602.78   4
  -9  11   1 964.131 891.213   6
 -11   9   1 796.287 934.312   6
  11  -9   1 1761.02 1472.30  12
  -9  11   1 2100.31 966.611  10
 -11   2   1 940.984 790.751   9
 -11   9   1 724.099 888.358   9
  -9  -2   1 1805.78 993.992  11
  -9  11   1 1030.89 841.668   9
  -2  11   1 3999.68 2163.56   3
   2   9   1 540.148 1817.49   3
  -2  11   1 1226.49 843.891  10
   9   2   1 4263.78 2503.80   3
  11  -2   1 2511.75 1238.20   7
   9   2   1-1095.75 1500.10   7
   9 -11   1 759.165 1117.71  12
  11  -2   1 621.965 1092.11  12
  -2  11   2 51218.2 2951.47  10
  -9  11   2 53901.0 3119.30  10
  -2  11   2 48737.0 5805.17   3
 -11   2   2 39882.9 3337.49   9
   2   9   2 37416.8 5166.35   3
 -11   9   2 56811.9 3668.35   9
  -9  11   2 57264.2 3402.84   9
  -9  11   2 42085.6 5677.63   4
   9   2   2 46890.7 6125.14   3
  11  -2   2 44498.0 5729.29   3
 -11   2   2 38525.1 5231.84   1
   9   2   2 47513.0 3934.94   7
  11  -2   2 35846.9 3816.09   7
  -2  11   2 44057.1 5781.24   4
  -9  -2   2 44418.1 3073.37  11
 -11   2   2 48703.9 3298.84  11
 -11   9   3 2957.04 1035.81  11
  -2  11   3 3186.70 2489.22   3
 -11   2   3 4701.34 1448.24  11
  -9  11   3 3557.95 1245.87  10
  -9  11   3 2051.62 1665.83   4
  -9  -2   3 2843.88 1176.03  11
  -2  11   3 4493.54 1335.58  10
   9   2   3-1225.73 1409.28   7
 -11   9   3 4881.85 1539.61   9
   2   9   3 2720.20 2154.72   3
   9   2   3 2257.80 2288.58   3
  11  -2   3-2003.17 2055.63   3
  11  -2   3 5745.59 1839.56   7
  -2  11   3 1510.61 2034.74   4
 -11   2   3-881.325 1785.61   1
 -11   9   4 2846.04 1065.44  11
  -9  -2   4 1870.94 1037.48  11
 -11   2   4 1507.99 1213.55  11
  -2  11   4 1271.16 1046.42  10
 -11   9   4 190.481 1131.18   9
  -2  -9   4-420.520 1634.03   8
  -9  -2   4-1138.92 1721.16   8
   9   2   4 2029.03 1413.72   7
  11  -2   4 3054.45 1432.69   7
  -9  11   4 1371.25 1082.55  10
 -11   9   5 1909.89 981.456  11
 -11   2   5 4026.24 1291.08  11
  -2  11   5 4386.16 1362.44  10
  -9  11   5 3168.52 1242.64  10
  -2  -9   5 3928.42 1384.65   8
  -9  -2   5 5577.89 1566.37   8
  -9  -2   5 2395.46 918.139  11
   9   2   5 3028.40 1562.32   7
  11  -2   5 4080.19 1581.94   7
 -11   2   6 4653.15 1027.38  11
  -9  11   6 2826.61 833.266  10
  -2  -9   6 7401.14 1190.18   8
  -9  -2   6 7680.13 1236.24   8
   9   2   6-2198.99 1192.44   7
  11  -2   6 2712.83 970.168   7
  -9  -2   6 2922.27 745.886  11
 -11  10  -6 1332.36 886.547   6
 -10  11  -6 1634.08 937.945   6
  -1  11  -6 386.711 538.202   6
   1  10  -6 1487.87 651.049   6
 -11  10  -5 8598.81 1769.71   6
 -10  11  -5 9418.33 1815.34   6
  -1  11  -5 6969.90 1358.06   6
 -11  10  -4 11090.0 1937.53   6
 -10  11  -4 11868.7 2053.57   6
  10   1  -4 8856.83 1611.60   5
 -11  10  -3 16335.2 2212.09   6
 -10  11  -3 16351.4 2229.52   6
   1  10  -3 15398.4 2285.92   5
  10   1  -3 12858.3 2008.79   5
  11  -1  -3 12341.2 1861.27   5
 -10  11  -2 35589.5 5014.56   4
  11 -10  -2 41858.5 5781.72  12
 -11  10  -2 37677.0 2928.34   6
 -10  11  -2 37582.0 2867.09   6
  -1  11  -2 36593.8 2985.57   5
   1  10  -2 33060.9 2951.11   5
  10   1  -2 35135.5 3078.78   5
  11  -1  -2 35205.2 3077.00   5
  11  -1  -2 40173.5 2990.88   7
  10   1  -2 36415.0 2884.10   7
  10 -11  -2 36492.9 5087.32  12
  -1  11  -2 38982.6 5295.08   4
 -11   1  -1 4095.94 1140.68  11
 -10  -1  -1 3329.05 1009.45  11
  10 -11  -1 6183.71 2367.23  12
 -10  11  -1 3199.27 1765.15   4
 -11  10  -1 5059.21 1300.85   6
 -10  11  -1 4186.75 1150.09   6
 -11  10  -1 5882.59 1350.00   9
  -1  11  -1 4829.99 1376.10   5
   1  10  -1 4535.15 1401.82   5
  11  -1  -1 5171.52 1342.40   7
  10   1  -1 6052.06 1437.94   7
  -1  11  -1 5886.89 2134.03   4
  11 -10  -1 5837.15 2540.36  12
 -11  10   0 17700.4 2169.23   6
 -10  11   0 19295.1 2238.84   6
 -10  11   0 14233.6 3156.03   4
 -10  11   0 15312.8 1688.24  10
  11 -10   0 16538.5 3340.18  12
 -11   1   0 16318.4 1992.36  11
 -11  10   0 18418.3 2095.55   9
 -10  11   0 17309.8 1946.77   9
  -1  11   0 14238.4 2962.77   3
   1  10   0 11986.0 2822.75   3
 -11  10   0 13837.6 1476.81  10
  11  -1   0 13377.3 2001.95   7
  10   1   0 16692.0 2308.83   7
  10 -11   0 17260.3 3284.66  12
  -1  11   0 16997.2 3293.34   4
 -10  -1   0 16670.4 2016.43  11
 -10  -1   1 4584.30 1267.32  11
 -11   1   1 4146.95 1285.96  11
 -10  11   1 4227.20 2020.74   4
 -10  11   1 5528.66 1395.50   6
 -11  10   1 4476.31 1388.02   6
 -11  10   1 5789.96 1099.96  10
 -10  11   1 4618.96 1188.00  10
 -11  10   1 5444.20 1336.33   9
 -10  11   1 5107.01 1378.98   9
  -1  11   1 4474.60 2159.90   3
   1  10   1 2032.27 1882.21   3
  10   1   1 2175.70 1926.22   3
  10   1   1 4802.66 1547.43   7
  11  -1   1 4096.38 1545.18   7
  11 -10   1 5930.34 2232.67  12
  10 -11   1 3986.81 1666.28  12
  -1  11   1 5817.75 2280.06   4
  -1  11   2 38626.0 2609.48  10
 -10  11   2 35357.4 2589.64  10
  -1  11   2 36555.8 5207.88   3
   1  10   2 32150.9 4860.49   3
 -11  10   2 42887.3 3268.02   9
 -10  11   2 45566.7 3168.42   9
  10   1   2 37231.5 5611.09   3
  11  -1   2 35481.5 5351.51   3
 -11  10   2 36403.3 2451.51  10
  10   1   2 38643.6 3705.68   7
  11  -1   2 39887.0 3811.76   7
  -1  11   2 30059.7 4988.42   4
 -10  11   2 31205.8 4863.36   4
 -10  -1   2 37565.3 2845.63  11
 -11   1   2 34477.7 2869.98  11
  -1  11   3 14920.2 1867.42  10
 -11  10   3 14944.1 1793.30  10
 -10  11   3 14470.6 1857.18  10
 -11  10   3 16071.5 2210.20   9
 -10  11   3 16833.1 2132.33   9
 -10  -1   3 14557.7 1992.04  11
 -11   1   3 15886.4 2159.05  11
 -10  11   4 9169.12 1632.41  10
  -1  11   4 10472.2 1742.06  10
 -11  10   4 12438.8 1713.93  10
 -11  10   4 9978.43 1774.98   9
  -1 -10   4 11016.6 1792.98   8
 -10  -1   4 8410.81 1749.24   8
  10   1   4 8321.13 1720.34   7
  11  -1   4 9794.66 2120.23   7
 -10  -1   4 12533.7 1818.04  11
 -11   1   4 11079.0 1803.85  11
 -11   1   5 8356.39 1436.10  11
 -11  10   5 7149.07 1204.10  10
  -1  11   5 8791.36 1449.32  10
 -10  11   5 8189.16 1482.05  10
  -1 -10   5 10465.3 1690.94   8
 -10  -1   5 13197.0 1726.71   8
  11  -1   5 8163.75 1713.82   7
 -11  10   5 8712.97 1199.78  11
 -10  -1   5 9143.71 1363.15  11
  -1 -10   6 2365.57 819.663   8
 -10  -1   6 2165.82 803.702   8
  10   1   6-969.618 906.820   7
  11  -1   6-2785.28 1117.59   7
 -10  -1   6 789.690 599.385  11
 -11   1   6 456.901 646.819  11
 -11  11  -6 659.703 765.385   6
 -11  11  -5 6316.36 1569.70   6
 -11  11  -4 26888.1 2801.45   6
   0  11  -3 1031.28 1287.64   5
  11   0  -3 639.682 1125.15   5
 -11  11  -3 910.864 1205.66   6
 -11  11  -2 16809.2 2067.84   6
 -11  11  -2 15046.1 3632.11   4
   0  11  -2 16512.7 2240.69   5
  11   0  -2 15344.9 2277.44   5
  11   0  -2 16559.3 2191.74   7
  11 -11  -2 15689.7 3628.20  12
 -11  11  -1 603.640 1261.44   4
 -11  11  -1 1815.24 1003.68   6
 -11   0  -1 2256.08 1161.70  11
 -11  11  -1 2855.01 1166.66   9
   0  11  -1 2773.64 1239.23   5
  11   0  -1 2829.50 1266.91   7
  11 -11  -1 1937.79 1604.89  12
 -11  11   0 22991.4 2424.66   6
 -11  11   0 24148.9 2322.91   9
 -11  11   0 18381.8 1805.79  10
  11   0   0 22211.1 2709.81   7
  11 -11   0 18263.6 3533.01  12
 -11  11   0 17596.2 3396.79   4
 -11   0   0 21562.0 2423.76  11
 -11  11   1 2057.39 1664.44   4
 -11  11   1 3831.19 1037.30  10
 -11  11   1 2136.40 1086.91   9
   0  11   1 4384.31 2166.27   3
 -11  11   1 1087.24 1142.75   6
  11   0   1 3508.62 2441.64   3
 -11   0   1 1088.59 1087.66  11
  11   0   1 584.163 1656.27   7
  11 -11   1 1756.27 1572.27  12
 -11  11   2 16385.4 1737.83  10
 -11  11   2 20345.0 2284.65   9
   0  11   2 13149.0 3351.64   3
  11   0   2 20824.9 4426.85   3
  11   0   2 19323.5 2824.38   7
 -11   0   2 17397.1 2112.83  11
 -11   0   3-1522.15 1418.54  11
 -11  11   3 136.688 759.274  10
 -11  11   3 256.884 1018.64   9
  11   0   3-218.263 1480.66   7
   0  11   4 27855.9 2252.21  10
 -11  11   4 23449.6 2230.87  10
 -11  11   4 22616.5 2393.53   9
   0 -11   4 31602.4 2352.80   8
 -11   0   4 31488.3 2397.42   8
 -11   0   4 27430.4 2525.47  11
 -11   0   5 6526.57 1250.19  11
   0  11   5 4465.79 991.364  10
   0 -11   5 8156.58 1290.20   8
 -11   0   5 9246.65 1332.37   8
 -11  11   5 5266.88 1077.72  10
  11   0   6-70.0525 629.963   7
 -11   0   6 815.102 606.067  11
   6   6  -6 7607.71 1238.30   6
  -6  12  -6 7002.91 1181.56   6
  -6  12  -5 482.678 877.389   6
   6   6  -5 66.9922 831.461   6
   6   6  -5 902.524 978.568   5
 -12   6  -4 943.861 946.569   6
  -6  12  -4 767.060 899.562   6
   6   6  -4 2432.29 1423.28   5
 -12   6  -3-73.2969 943.500   6
  -6  12  -3-595.709 861.957   6
   6   6  -3 768.588 1299.93   5
  -6  12  -2 2080.18 2020.77   4
 -12   6  -2 1691.04 983.831   6
   6   6  -2 4314.18 1714.56   5
   6   6  -2 2845.08 1323.98   7
  12  -6  -2 2888.41 2040.47  12
  -6  12  -1 579.987 1730.38   4
 -12   6  -1 1828.69 1139.95   6
 -12   6  -1 1053.40 766.816   9
   6   6  -1 732.917 2218.85   3
   6   6  -1 1963.94 1408.24   5
   6   6  -1 1830.64 1161.04   7
 -12   6  -1 862.565 797.870  11
  12  -6  -1 328.434 1562.52  12
 -12   6   0 260329. 7968.19   6
 -12   6   0 245269. 6764.22   9
  -6  12   0 268757. 6732.04  10
   6   6   0 283033. 15066.2   3
   6   6   0 271174. 7825.05   5
   6   6   0 245027. 7358.54   7
 -12   6   0 270914. 7124.79  11
  12  -6   0 260207. 12590.0  12
  -6  12   0 255234. 13568.3   4
 -12   6   1 1388.13 1269.03  11
  -6  12   1 1068.32 1643.06   4
 -12   6   1 709.630 1105.54   6
  -6  12   1 1209.14 964.332  10
 -12   6   1 1606.01 1074.09   9
   6   6   1-443.197 2499.31   3
   6   6   1 131.376 1098.58   5
   6   6   1 261.495 1148.64   7
  12  -6   1 323.779 1245.70  12
  -6  12   2 1408.57 985.219  10
 -12   6   2 1306.89 1138.43   9
  -6  12   2 1900.24 1721.85   4
 -12   6   2 1458.62 1376.37  11
   6   6   2 2948.38 2513.53   3
   6   6   2 3011.28 1375.88   7
 -12   6   2-870.345 2004.43   1
 -12   6   3-895.145 1443.70  11
 -12   6   3-1460.13 1559.30   9
  -6  12   3-198.237 963.198  10
   6   6   3-6.63712 930.455   7
 -12   6   4 2239.57 1321.42  11
  -6  12   4 1790.63 1151.10  10
   6   6   4-110.748 1211.59   7
 -12   6   5-282.190 1044.66  11
  -6  12   5 706.456 1200.72  10
  -6  -6   5 352.352 1320.53   8
   6   6   5 107.302 1053.12   7
  12  -6   5 1542.11 1272.67   7
  -6  12   6 8143.21 1215.58  10
  -6  -6   6 11783.2 1444.29   8
   6   6   6 5022.88 1108.71   7
  12  -6   6 2517.24 829.451   7
 -12   6   6 8203.65 1274.64  11
  -7  12  -6 12877.4 1535.33   6
  -5  12  -6 12063.1 1411.48   6
   7   5  -6 12534.6 1521.54   6
   5   7  -6 12600.8 1417.26   6
 -12   7  -5 436.768 906.536   6
  -7  12  -5 524.587 950.420   6
  -5  12  -5 324.589 840.934   6
   5   7  -5 684.923 1052.68   5
   7   5  -5 1457.76 1007.24   5
 -12   7  -4 3191.67 1216.16   6
  -7  12  -4 5254.88 1487.79   6
  -5  12  -4 3494.48 1248.85   6
   5   7  -4 4786.56 1614.40   5
   7   5  -4 3109.25 1284.26   5
 -12   5  -3 256.786 883.257   6
 -12   7  -3-877.904 969.301   6
  -7  12  -3-1183.90 961.176   6
  -5  12  -3 89.5614 863.448   6
   5   7  -3-69.6086 1269.64   5
   7   5  -3-122.179 1254.60   5
  -5  12  -2 24866.2 4788.71   4
  -7  12  -2 27475.2 4805.20   4
 -12   5  -2 32290.2 2717.05   6
  -7  12  -2 32627.2 2366.78   6
 -12   7  -2 33383.7 2831.64   6
 -12   7  -2 35693.3 2828.30   9
   5   7  -2 33611.2 3044.08   5
   7   5  -2 35261.4 3064.39   5
   5   7  -2 30590.3 2749.31   7
   7   5  -2 29079.8 2571.54   7
  12  -7  -2 32767.0 5298.73  12
  12  -5  -2 33156.1 4937.41  12
 -12   7  -2 28423.7 2232.25  11
 -12   7  -1 26.2223 797.180  11
  -5  12  -1-96.3874 1631.79   4
 -12   5  -1 251.978 867.352  11
  -7  12  -1 455.438 1549.12   4
 -12   5  -1 1066.14 965.370   6
 -12   7  -1 2099.92 1276.57   6
 -12   7  -1 662.141 742.745   9
   7   5  -1 3994.63 2379.26   3
   5   7  -1 1012.02 1442.62   5
   7   5  -1 361.046 1212.61   5
   5   7  -1 301.730 870.664   7
   7   5  -1 237.563 1012.98   7
  12  -7  -1 463.696 1601.39  12
  12  -5  -1 668.769 1572.27  12
 -12   5   0 143422. 5892.20   6
 -12   7   0 162705. 6273.33   6
  -5  12   0 155473. 5026.37  10
  -7  12   0 153363. 5322.62  10
 -12   5   0 147597. 5103.89   9
 -12   7   0 162678. 5702.29   9
   5   7   0 139851. 10450.6   3
   7   5   0 146866. 11080.1   3
   5   7   0 151724. 5723.04   5
   7   5   0 155431. 6171.24   5
   5   7   0 144707. 5605.77   7
   7   5   0 148488. 5965.18   7
  12  -7   0 155904. 9750.33  12
  12  -5   0 170067. 10083.4  12
  -5  12   0 142560. 10026.8   4
  -7  12   0 143646. 10344.4   4
 -12   7   0 153427. 5317.41  11
 -12   5   0 155889. 5553.73  11
 -12   5   1-102.023 1085.15  11
  -5  12   1 797.142 1854.02   4
  -7  12   1 577.129 1696.64   4
 -12   7   1 107.843 1047.76   6
  -5  12   1 191.912 844.892  10
  -7  12   1 875.896 968.356  10
 -12   5   1 1496.49 1018.83   9
 -12   7   1 1139.24 1006.52   9
   5   7   1-1773.85 2571.30   3
   7   5   1 448.475 2162.75   3
 -12   7   1-137.911 964.724  11
   7   5   1 1014.79 1279.23   5
   5   7   1 386.784 1137.88   7
   7   5   1-461.972 1558.86   7
  12  -7   1 54.3145 1268.82  12
  12  -5   1 169.813 1213.36  12
 -12   7   2 35022.7 2955.66  11
 -12   5   2 20123.0 4108.70   1
  -5  12   2 34635.4 2556.50  10
  -7  12   2 30248.3 2586.64  10
 -12   5   2 38383.3 3464.38   9
 -12   7   2 42309.8 3527.28   9
   5   7   2 21935.3 4371.71   3
   7   5   2 22998.0 4569.09   3
   5   7   2 29465.8 2874.07   7
   7   5   2 33673.8 3198.14   7
  -5  12   2 26136.9 4812.03   4
  -7  12   2 27514.3 4971.91   4
 -12   5   2 34631.9 3088.79  11
 -12   5   3-494.987 1388.17  11
  -5  12   3 613.226 1021.68  10
 -12   5   3-438.495 1504.08   9
 -12   7   3-864.207 1303.24   9
  -7  12   3 166.305 943.008  10
 -12   7   3-563.849 1236.30  11
   5   7   3 1517.53 1215.20   7
   7   5   3-1168.43 1167.48   7
  12  -5   3 909.625 1179.96   7
 -12   7   4 4105.54 1409.84  11
 -12   5   4 4929.08 1495.80  11
  -5  12   4 3908.27 1357.36  10
  -7  12   4 3659.99 1406.42  10
   5   7   4 4276.37 1383.71   7
   7   5   4-1464.38 1489.79   7
  12  -5   4 4943.37 1631.82   7
 -12   7   5-33.1152 974.078  11
 -12   5   5 324.865 1070.22  11
  -5  12   5 1311.18 1062.27  10
  -7  12   5 902.531 1126.74  10
  -5  -7   5 1443.35 1338.66   8
  -7  -5   5 1382.03 1312.23   8
   5   7   5 1065.15 1008.74   7
   7   5   5-2925.35 1482.54   7
  12  -5   5 2782.75 1454.28   7
  -5  12   6 12419.7 1372.29  10
  -7  12   6 13042.0 1441.41  10
  -5  -7   6 19750.3 1717.43   8
  -7  -5   6 19857.1 1698.17   8
   7   5   6 9301.42 1390.48   7
 -12   7   6 14493.0 1516.80  11
 -12   5   6 16067.9 1575.67  11
 -12   8  -6 13558.7 1573.71   6
  -8  12  -6 15801.0 1671.43   6
  -4  12  -6 13879.8 1393.11   6
   8   4  -6 13846.1 1553.30   6
 -12   8  -5 234.504 885.800   6
  -8  12  -5 896.418 1023.85   6
  -4  12  -5 803.526 878.200   6
   8   4  -5 891.235 939.967   5
 -12   8  -4 3463.39 1324.31   6
  -8  12  -4 3972.51 1397.15   6
  -4  12  -4 3686.25 1188.87   6
   4   8  -4 3646.96 1635.21   5
   8   4  -4 2961.86 1321.92   5
 -12   8  -3 3072.85 1236.47   6
  -8  12  -3 2246.30 1160.94   6
 -12   8  -3 3292.52 1216.97   9
   4   8  -3 3280.66 1566.53   5
   8   4  -3 3845.41 1522.95   5
  -4  12  -2 18756.0 4189.75   4
  -8  12  -2 18447.0 3998.02   4
 -12   8  -2 19628.4 2199.01   6
  -8  12  -2 16473.7 1889.94   6
 -12   8  -2 20679.7 2297.32   9
   4   8  -2 19295.6 2456.48   5
   8   4  -2 18735.1 2502.65   5
   4   8  -2 17186.3 2249.43   7
   8   4  -2 18365.2 2124.46   7
  12  -8  -2 20165.6 4463.70  12
  12  -4  -2 17390.7 3473.26  12
  -8  -4  -1 1282.67 870.103  11
 -12   8  -1 1192.82 917.264   6
 -12   4  -1 2475.58 979.094   6
  -4  12  -1 1462.63 1726.05   4
  -8  12  -1 1281.02 898.880   6
 -12   8  -1 1967.05 1007.17   9
   4   8  -1 2253.70 1362.95   5
   8   4  -1-24.9435 1820.27   3
 -12   4  -1 1486.64 936.062  11
   8   4  -1 1753.10 1432.71   5
   4   8  -1 899.035 907.173   7
   8   4  -1 1501.96 1031.45   7
  -8  12  -1 2081.10 1757.15   4
  12  -8  -1 2465.89 1912.43  12
  12  -4  -1 3174.09 1865.25  12
 -12   4   0 15071.4 2019.87   6
 -12   8   0 19580.7 2285.12   6
  -8  12   0 20930.7 2095.88  10
 -12   4   0 15602.6 1723.45   9
 -12   8   0 20734.7 2287.01   9
   4   8   0 18591.1 2223.24   5
   8   4   0 21218.2 2647.90   5
   4   8   0 14662.1 3636.14   3
  -4  12   0 19161.5 1858.96  10
   8   4   0 17602.5 4168.20   3
   4   8   0 19202.8 2116.53   7
   8   4   0 19840.2 2512.80   7
  12  -8   0 17730.6 3557.70  12
  12  -4   0 17033.9 3439.80  12
  -4  12   0 17601.2 3553.18   4
  -8  12   0 18967.6 4047.94   4
 -12   8   0 19573.8 1973.09  11
 -12   4   0 20197.4 2224.46  11
 -12   8   1 1123.56 878.119  11
 -12   4   1 1239.40 1089.95  11
  -4  12   1 2821.81 2242.93   4
  -8  12   1 1293.65 1916.64   4
 -12   8   1 1873.64 1119.77   6
  -4  12   1 1476.23 995.138  10
  -8  12   1 3404.26 1145.41  10
 -12   4   1 1197.70 876.856   9
 -12   8   1 2887.61 1221.31   9
  -8  12   1 3061.55 1068.83   9
   4   8   1-77.2788 1976.99   3
   8   4   1 719.767 1928.00   3
   4   8   1 583.491 972.138   7
   8   4   1 548.805 1342.69   7
  12  -8   1 1068.38 1375.06  12
  12  -4   1 2154.59 1634.74  12
  -4  12   2 15089.6 3834.95   4
  -8  12   2 15324.0 3875.69   4
  -4  12   2 18684.7 1945.42  10
  -8  12   2 18579.8 2069.64  10
 -12   4   2 17917.6 2427.74   9
 -12   8   2 23640.9 2697.50   9
   4   8   2 16429.8 3821.51   3
 -12   4   2 15476.0 3827.09   1
   8   4   2 17350.6 4069.88   3
   4   8   2 17021.8 2181.58   7
   8   4   2 20513.8 2722.76   7
  12  -4   2 14284.0 2243.36   7
 -12   8   2 23307.5 2379.01  11
 -12   4   2 19906.1 2519.55  11
 -12   8   3 3144.01 1260.10  11
 -12   4   3 1901.32 1283.51  11
  -8  12   3 2977.89 1239.92  10
 -12   8   3 2572.44 1250.41   9
  -4  12   3 3670.77 1215.29  10
   4   8   3 3715.15 1276.00   7
   8   4   3 1662.48 1210.31   7
  12  -4   3 1713.58 1131.81   7
 -12   8   4 4406.96 1483.73  11
 -12   4   4 3100.68 1407.67  11
  -8  12   4 3350.91 1311.51  10
  -4  12   4 3431.66 1253.51  10
   4   8   4 5085.89 1408.50   7
  12  -4   4 3803.35 1582.07   7
 -12   8   5 999.746 974.487  11
 -12   4   5 789.552 1049.43  11
  -4  12   5 1163.76 1049.43  10
  -8  12   5 1648.14 1159.24  10
  -4  -8   5 3072.91 1458.51   8
  -8  -4   5 1985.23 1288.90   8
  12  -4   5 2299.37 1219.85   7
  -4  12   6 13855.9 1388.45  10
  -8  12   6 15320.2 1501.77  10
  -4  -8   6 22395.9 1768.38   8
  -8  -4   6 24347.7 1774.79   8
   8   4   6 11113.7 1483.62   7
 -12   8   6 17225.4 1494.11  11
 -12   4   6 15502.3 1573.42  11
  -9  12  -6 7345.30 1267.42   6
 -12   9  -6 6298.90 1223.70   6
  -3  12  -6 5089.76 892.642   6
   9   3  -6 5994.74 1092.90   6
 -12   9  -5-400.524 1054.42   6
  -9  12  -5 817.846 1083.03   6
  -3  12  -5 334.039 754.311   6
 -12   9  -4 23424.8 2647.18   6
  -9  12  -4 26355.9 2710.00   6
   3   9  -4 29785.4 2936.78   5
   9   3  -4 19928.1 2273.95   5
 -12   9  -3 11164.2 1851.21   6
  -9  12  -3 13644.5 1995.40   6
 -12   9  -3 9451.37 1738.98   9
   9   3  -3 12780.8 2094.41   5
   3   9  -3 10378.4 2059.05   5
  -3  12  -2 3202.16 1965.84   4
  -9  12  -2 3559.12 2056.22   4
 -12   9  -2 4765.30 1360.82   6
  -9  12  -2 4146.76 1199.09   6
 -12   9  -2 4690.37 1322.78   9
   3   9  -2 3157.39 1443.10   5
   3   9  -2 3589.70 1277.50   7
   9   3  -2 3934.84 1520.53   5
   9   3  -2 3717.05 1264.91   7
  12  -9  -2 5636.31 2797.97  12
  12  -3  -2 2146.17 1479.26  12
 -12   9  -1 11508.1 1757.92   6
 -12   3  -1 9109.58 1523.25  11
  -3  12  -1 10575.9 3119.18   4
  -9  12  -1 11325.4 1562.92   6
 -12   9  -1 13464.7 1849.67   9
   3   9  -1 10694.8 1908.35   5
  -9  12  -1 10400.6 2795.78   4
  12  -3  -1 8250.36 2361.72  12
   3   9  -1 12673.9 1697.42   7
   9   3  -1 12102.7 1865.54   7
   9   3  -1 8660.00 3112.30   3
   9   3  -1 11874.9 2134.00   5
  12  -9  -1 10253.2 2970.81  12
  -9  -3  -1 9967.53 1617.76  11
 -12   9   0 25459.4 2549.43   6
  -9  -3   0 24042.1 2342.71  11
  -9  12   0 22512.5 2148.56  10
 -12   9   0 24569.8 2486.79   9
  -9  12   0 30990.7 2593.83   6
  -3  12   0 21830.0 1889.56  10
   3   9   0 21521.0 2238.30   5
   3   9   0 17537.7 3615.11   3
   3   9   0 24699.7 2186.88   7
   9   3   0 21820.1 2683.03   7
   9   3   0 22066.2 4686.63   3
  12  -9   0 22739.2 3951.34  12
  12  -3   0 19639.9 3427.20  12
  -3  12   0 18475.0 3865.06   4
  -9  12   0 21276.6 4186.63   4
 -12   3   0 23373.8 2396.87  11
  -9  -3   1 10410.9 1566.73  11
 -12   3   1 10186.6 1755.55  11
  -3  12   1 11325.6 3179.49   4
  -9  12   1 9580.06 3010.60   4
 -12   9   1 8460.20 1692.95   6
  -3  12   1 11050.7 1528.60  10
  -9  12   1 11694.9 1710.70  10
 -12   3   1 9107.62 1555.46   9
 -12   9   1 14674.3 2173.63   9
  -9  12   1 11418.9 1628.59   9
   3   9   1 11399.3 3309.04   3
   9   3   1 11594.6 3619.71   3
   9   3   1 10205.0 2055.16   7
  12  -3   1 9201.89 1787.39   7
  12  -9   1 11541.4 2962.63  12
  12  -3   1 8224.59 2361.45  12
  -9  -3   2 3556.96 1227.75  11
 -12   3   2 3920.33 1448.44  11
  -3  12   2 1353.26 1533.27   4
  -9  12   2 4005.01 2215.30   4
  -3  12   2 3406.12 1171.11  10
  -9  12   2 4513.07 1286.65  10
 -12   3   2 1194.55 1057.58   9
 -12   3   2 5079.94 2616.77   1
 -12   9   2 4226.84 1495.69   9
  -9  12   2 5089.31 1305.75   9
   3   9   2 4829.66 2344.56   3
 -12   9   2 3408.47 1154.44  11
   9   3   2 4955.95 2836.23   3
   9   3   2 5253.36 1923.99   7
  12  -3   2 4721.54 1635.54   7
 -12   3   3 11620.5 2021.86  11
  -3  12   3 12486.4 1825.37  10
  -9  12   3 11035.5 1882.25  10
 -12   9   3 13187.5 2103.23   9
   9   3   3 8405.04 1794.68   7
  12  -3   3 4261.19 1414.31   7
 -12   9   3 10548.8 1597.24  11
  -9  -3   3 10668.7 1640.08  11
  -3  12   4 24693.2 2486.11  10
  -9  12   4 26988.0 2569.55  10
 -12   9   4 24306.2 2687.39   9
  -3  -9   4 21386.7 2473.75   8
  -9  -3   4 22851.2 2399.44   8
  12  -3   4 26794.9 2930.99   7
 -12   9   4 27037.6 2314.41  11
  -9  -3   4 28686.8 2223.97  11
 -12   3   4 27538.7 2631.77  11
 -12   9   5 507.088 792.696  11
 -12   3   5-387.130 1015.04  11
  -3  12   5 1174.10 1066.32  10
  -9  12   5 848.600 999.620  10
  -3  -9   5 987.645 1279.12   8
  -9  -3   5 2453.25 1283.73   8
   9   3   5-2995.32 1461.00   7
  12  -3   5 1499.01 1001.51   7
  -9  12   6 4631.05 927.795  10
  -3  -9   6 9201.01 1170.01   8
  -9  -3   6 9724.80 1188.62   8
   9   3   6 4076.83 1049.93   7
  12  -3   6 962.803 699.304   7
 -12   3   6 5820.33 1022.55  11
 -12  10  -6 2975.57 933.788   6
 -10  12  -6 3584.02 974.918   6
 -12  10  -5-628.649 1003.33   6
 -10  12  -5 690.302 1049.37   6
 -12  10  -4 22471.2 2622.41   6
 -10  12  -4 28265.4 2784.51   6
 -12  10  -4 29001.3 2667.42   9
   2  10  -4 30056.1 2856.04   5
  10   2  -4 22966.8 2241.79   5
 -12  10  -3 166.662 1048.96   6
 -10  12  -3 1416.27 1165.71   6
 -12  10  -3 923.205 1051.51   9
   2  10  -3 435.482 1332.09   5
  10   2  -3 487.164 1211.04   5
  12  -2  -3-614.560 1091.70   5
 -10  12  -2 11579.3 1730.80   6
 -10  12  -2 9221.81 3019.13   4
 -12  10  -2 9482.01 1699.98   6
  -2  12  -2 10207.2 3169.88   4
 -12  10  -2 10828.4 1811.27   9
   2  10  -2 8694.31 1825.69   5
  10   2  -2 10558.7 1844.95   7
  10   2  -2 8886.51 1839.81   5
  12  -2  -2 10316.3 1731.29   7
  12  -2  -2 10067.0 1936.71   5
  12 -10  -2 9624.94 3530.88  12
 -12   2  -1 4730.84 1361.40  11
 -10  -2  -1 3768.30 1261.21  11
  -2  12  -1 4172.03 2028.31   4
 -10  12  -1 3188.22 1645.68   4
 -12  10  -1 5643.74 1407.70   6
 -10  12  -1 5227.37 1235.06   6
  -2  12  -1 4674.09 1090.94  10
 -12  10  -1 7079.32 1545.92   9
   2  10  -1 4635.95 1427.42   5
  10   2  -1 5621.54 3075.05   3
  12  -2  -1 4884.33 1396.87   7
  10   2  -1 4222.75 1454.95   7
  10   2  -1 4273.27 1613.38   5
  12 -10  -1 6458.18 2533.74  12
  10 -12  -1 7740.51 2589.31  12
 -12   2   0 5192.77 1437.47  11
  -2  12   0 3009.58 1823.64   4
 -10  12   0 4990.15 2269.09   4
 -12  10   0 5952.25 1530.12   6
 -10  12   0 6081.66 1434.85   6
  -2  12   0 3377.43 921.486  10
 -10  12   0 4696.55 1153.55  10
 -10  -2   0 5941.27 1498.72  11
 -12  10   0 4668.65 1299.53   9
 -10  12   0 5230.34 1273.41   9
  10   2   0 2917.93 2627.38   3
  12  -2   0 4367.91 1501.77   7
  10   2   0 5717.25 1850.88   7
  12 -10   0 4447.27 2136.78  12
 -12   2   1 4880.15 1408.84  11
 -10  12   1 4273.95 1330.49   6
  -2  12   1 6526.89 2573.22   4
 -12  10   1 3264.97 1225.47   6
 -10  12   1 3758.91 2200.78   4
  -2  12   1 6054.07 2562.43   3
  -2  12   1 5892.32 1216.87  10
 -10  12   1 5911.11 1297.19  10
 -12   2   1 2486.32 954.310   9
 -12  10   1 5255.28 1355.61   9
 -10  12   1 6119.76 1452.16   9
   2  10   1 1076.05 1978.53   3
  10   2   1 9176.55 3227.93   3
 -10  -2   1 3493.97 1143.63  11
  10   2   1 4080.61 1644.88   7
  12  -2   1 4565.15 1636.87   7
  12 -10   1 6437.45 2373.77  12
  -2  12   2 11118.9 3318.38   4
 -10  12   2 7430.27 2686.81   4
 -12   2   2 10654.1 1845.86  11
  -2  12   2 10443.3 1542.39  10
 -10  12   2 11374.4 1705.89  10
  -2  12   2 11794.1 3523.05   3
 -12  10   2 11615.0 1986.11   9
 -10  12   2 11725.3 1864.32   9
   2  10   2 9628.34 3042.84   3
  10   2   2 6550.83 2878.16   3
  10   2   2 12897.0 2424.56   7
  12  -2   2 13337.2 2365.48   7
  12  -2   2 7594.24 3480.42   3
 -10  -2   2 11377.2 1770.53  11
 -12   2   3-2070.96 1474.70  11
  -2  12   3 886.215 1081.58  10
 -10  12   3 804.951 1032.69  10
 -10  -2   3-614.150 990.727  11
 -12  10   3 373.385 1077.33   9
  10   2   3-650.701 1285.87   7
  12  -2   3-850.787 1505.07   7
  -2  12   4 28080.4 2546.90  10
 -10  12   4 25163.4 2390.92  10
 -12  10   4 24972.3 2699.26   9
  -2 -10   4 24879.4 2475.54   8
 -10  -2   4 24651.1 2503.45   8
  10   2   4 20642.2 2758.49   7
 -12  10   4 26995.3 2065.93  11
 -10  -2   4 27507.0 2358.62  11
 -12   2   4 26151.0 2659.62  11
 -10  -2   5 356.670 648.779  11
 -12   2   5 163.807 940.187  11
  -2  12   5 1261.24 910.313  10
 -10  12   5 1381.27 1014.73  10
  -2 -10   5 2121.95 1222.10   8
 -10  -2   5 2690.55 1140.91   8
  10   2   5-865.102 1160.06   7
 -12  10   5 78.2469 627.035  11
  -2 -10   6 3064.62 775.386   8
  10   2   6 2604.11 875.024   7
  12  -2   6 1002.49 679.219   7
 -12   2   6 1884.07 733.535  11
 -12  11  -6 536.089 649.416   6
 -11  12  -6 508.805 649.053   6
 -11  12  -5 2647.82 1224.27   6
 -12  11  -5 516.549 1032.78   6
 -12  11  -4 8369.94 1775.74   6
 -12  11  -4 8107.90 1583.79   9
 -11  12  -4 9618.04 1876.68   6
  11   1  -4 7723.31 1455.11   5
 -12  11  -3 967.849 1155.84   6
 -11  12  -3 1778.25 1250.52   6
   1  11  -3 1917.38 1475.87   5
  11   1  -3 1961.64 1349.75   5
  12  -1  -3 1299.57 1055.74   5
 -12  11  -2 26051.8 2618.72   6
 -11  12  -2 25585.3 2558.58   6
 -12  11  -2 28003.6 2665.89   9
  -1  12  -2 21650.3 2459.13   5
   1  11  -2 24352.3 2668.27   5
  11   1  -2 22059.9 2651.79   5
  12  -1  -2 23626.7 2711.62   5
  12  -1  -2 25862.8 2544.52   7
  11   1  -2 26127.6 2684.10   7
 -12   1  -2 22697.9 2267.20  11
 -11  12  -1 7574.11 2459.89   4
 -11  -1  -1 5401.95 1422.54  11
 -12  11  -1 7123.39 1473.19   6
 -11  12  -1 8021.28 1631.96   6
 -12   1  -1 6822.64 1448.58  11
 -12  11  -1 7503.19 1593.77   9
 -11  12  -1 6868.57 1491.48   9
  -1  12  -1 7161.01 1596.40   5
   1  11  -1 7173.84 1606.55   5
 -12  11  -1 7296.73 1283.25  10
  12  -1  -1 7033.55 1596.09   7
  11   1  -1 7346.10 1628.02   7
  12 -11  -1 3861.68 2068.19  12
  11 -12  -1 7403.28 2734.39  12
 -11  12   0 14994.0 2096.05   6
  -1  12   0 10482.5 2972.18   4
 -11  12   0 8047.06 2597.97   4
 -12  11   0 12188.1 1920.35   6
 -12  11   0 9999.81 1289.26  10
 -11  12   0 9082.14 1392.57  10
 -12  11   0 13531.3 1975.23   9
 -11  12   0 9983.61 1737.89   9
  11   1   0 12112.7 3971.47   3
  12  -1   0 9449.66 1993.40   7
  11   1   0 12141.2 2177.49   7
  12 -11   0 8920.57 2681.32  12
  11 -12   0 10570.1 2882.17  12
 -11  -1   0 13064.3 1967.52  11
 -12   1   0 11507.6 1965.59  11
 -11  -1   1 7807.18 1636.84  11
 -12   1   1 7303.76 1650.10  11
 -11  12   1 5812.12 2229.93   4
 -12  11   1 6053.42 1548.05   6
 -11  12   1 4545.37 1404.85   6
 -11  12   1 6909.58 1371.74  10
 -12  11   1 6897.55 1609.38   9
 -11  12   1 8195.46 1572.40   9
  -1  12   1 12713.1 3237.17   3
   1  11   1 6275.10 2469.38   3
  11   1   1 3376.41 2477.36   3
  12  -1   1 8214.76 3024.57   3
  -1  12   1 5434.95 2254.05   4
  11   1   1 7327.77 2104.60   7
  12  -1   1 7247.67 1912.91   7
  12 -11   1 6257.24 2343.11  12
  11 -12   1 7017.19 2261.02  12
 -11  12   2 23383.2 2195.36  10
 -12  11   2 29873.6 2856.45   9
 -11  12   2 29805.8 2712.16   9
  11   1   2 25219.7 2942.54   7
  12  -1   2 26189.3 3146.44   7
 -11  -1   2 25466.6 2610.07  11
 -12   1   2 24035.0 2510.81  11
 -11  -1   3-337.605 1141.45  11
 -12   1   3 250.281 1144.57  11
  -1  12   3-82.9833 905.899  10
 -11  12   3 2020.18 1058.41  10
 -12  11   3 321.359 1032.51   9
 -11  12   3 1666.77 1112.84   9
  11   1   3 1837.08 1363.07   7
  12  -1   3 595.575 1260.98   7
 -12   1   4 9998.30 1713.11  11
  -1  12   4 10537.9 1542.09  10
 -11  12   4 7900.48 1439.75  10
 -12  11   4 7511.70 1579.80   9
  -1 -11   4 8839.28 1570.08   8
 -11  -1   4 9727.92 1586.32   8
  11   1   4 5975.68 1672.17   7
  12  -1   4 7247.04 1725.30   7
 -11  -1   4 9884.47 1617.41  11
 -11  -1   5 1467.70 806.539  11
 -12   1   5 911.065 793.942  11
  -1  12   5 1231.09 747.549  10
 -11  12   5 2980.79 957.625  10
  -1 -11   5 3625.09 1062.25   8
 -11  -1   5 1449.48 897.361   8
  11   1   5 73.9737 938.174   7
  12  -1   5 1036.17 891.287   7
  11   1   6 1417.07 678.358   7
  12  -1   6 1571.86 683.275   7
 -12   1   6 1641.54 589.066  11
 -12   0  -6-477.408 703.352  11
 -12  12  -6 2670.06 778.174   6
 -12  12  -5 6585.07 1421.41   6
 -12  12  -5 7410.31 1235.32   9
 -12  12  -4 7753.41 1723.10   6
 -12  12  -3 287.919 1131.18   6
  12   0  -3 2410.56 1308.95   5
 -12  12  -2 25877.5 2623.08   9
   0  12  -2 24845.1 2482.60   5
  12   0  -2 23503.6 2746.34   5
  12   0  -2 26123.2 2572.32   7
 -12  12  -2 25623.4 2629.67   6
 -12   0  -2 21314.4 2351.73  11
 -12   0  -1 2548.14 1328.15  11
 -12  12  -1 2696.85 1314.98   6
 -12  12  -1 2186.57 977.521  10
 -12  12  -1 3466.54 1307.21   9
   0  12  -1 4200.22 1291.83   5
  12   0  -1 4253.75 1429.36   7
 -12   0   0 4086.51 1515.48  11
 -12  12   0 5519.96 1505.64   6
 -12  12   0 4049.17 1075.37  10
 -12  12   0 5513.11 1484.58   9
  12   0   0 7185.51 1974.96   7
 -12   0   1 1459.98 1142.64  11
 -12  12   1 1933.68 1250.73   6
 -12  12   1 3832.25 1011.69  10
 -12  12   1 1925.54 1103.44   9
  12   0   1 2019.10 1560.25   7
 -12  12   2 24381.9 2109.08  10
 -12  12   2 27837.7 2790.50   9
  12   0   2 24674.7 3160.34   7
 -12   0   2 25340.7 2606.69  11
 -12  12   3 430.756 814.415  10
 -12  12   3-309.158 1153.46   9
 -12   0   3-2177.90 1299.14  11
  12   0   3 420.092 1256.11   7
 -12  12   4 8051.10 1333.17  10
 -12   0   4 7231.11 1423.31  11
  12   0   4 6803.54 1722.74   7
 -12  12   5 4172.07 785.096  10
  12   0   5 8294.98 1486.17   7
 -12   0   5 7500.29 1140.56  11
  12   0   6 1142.58 560.339   7
  -7  13  -6 6419.46 1000.23   6
  -6  13  -6 6807.03 988.485   6
 -13   6  -6 4043.15 846.896  11
 -13   7  -5 1066.57 963.519   6
  -7  13  -5 1951.78 921.718   6
  -6  13  -5 3048.35 1022.14   6
   6   7  -5 2213.39 981.335   5
   7   6  -5 1939.33 942.360   5
 -13   7  -4 3736.74 1411.76   6
  -7  13  -4 2738.77 1134.95   6
  -6  13  -4 2857.90 1203.87   6
   6   7  -4 4010.61 1483.35   5
   7   6  -4 2144.07 1253.15   5
 -13   6  -3 14793.4 2061.83   6
 -13   7  -3 14891.8 2111.81   6
  -7  13  -3 12719.0 1794.31   6
  -6  13  -3 11132.7 1649.15   6
   6   7  -3 12556.2 2164.13   5
   7   6  -3 11210.6 2012.73   5
 -13   7  -2 49158.0 3518.23   6
 -13   6  -2 48157.2 3453.06   6
   6   7  -2 48490.6 3686.32   5
   7   6  -2 51340.4 3771.89   5
   6   7  -2 42169.8 3266.22   7
   7   6  -2 43285.1 3184.97   7
 -13   7  -2 42943.7 2924.39  11
 -13   6  -2 43091.6 2963.18  11
  -6  13  -2 40214.2 6034.76   4
  -7  13  -2 42442.4 6133.19   4
 -13   6  -1 21820.4 2370.86   6
 -13   7  -1 25291.7 2634.85   6
 -13   6  -1 20507.4 2109.66   9
 -13   7  -1 21850.3 2177.63   9
  -7  13  -1 18052.4 4073.20   4
   6   7  -1 21359.3 2690.64   5
   7   6  -1 23526.4 2780.29   5
   6   7  -1 21069.4 2319.47   7
   7   6  -1 20730.8 2333.49   7
  13  -7  -1 21244.2 4216.39  12
  13  -6  -1 22174.5 4282.80  12
  -6  13  -1 16399.9 3892.21   4
 -13   7  -1 20046.1 2121.85  11
 -13   6  -1 22407.4 2224.66  11
 -13   6   0 67610.5 4242.20   6
 -13   7   0 70683.4 4356.11   6
  -6  13   0 76169.1 3691.24  10
  -7  13   0 76141.8 3813.92  10
 -13   6   0 69408.7 3778.41   9
 -13   7   0 74584.6 4009.99   9
   6   7   0 62856.5 7344.97   3
   7   6   0 64838.5 7687.41   3
   6   7   0 70117.6 4233.66   5
   7   6   0 72307.6 4346.81   5
   6   7   0 75023.3 4267.47   7
   7   6   0 75481.9 4430.01   7
  13  -7   0 70541.9 6853.56  12
  13  -6   0 77639.4 7076.21  12
  -6  13   0 70595.1 7495.38   4
  -7  13   0 66455.7 7378.80   4
 -13   7   0 70569.4 3705.56  11
 -13   6   0 76259.3 3955.00  11
  -6  13   1 18909.7 2099.08  10
  -7  13   1 22802.9 2275.24  10
 -13   6   1 23251.6 2540.32   9
 -13   7   1 25713.3 2773.68   9
   6   7   1 19522.0 2301.71   5
   7   6   1 18909.7 2383.03   5
   6   7   1 20698.2 4562.64   3
   7   6   1 18360.9 4360.08   3
   6   7   1 21966.8 2664.48   7
   7   6   1 22595.4 2778.06   7
  13  -7   1 18688.0 3731.50  12
  13  -6   1 20161.6 3900.40  12
  -6  13   1 19051.7 4253.39   4
  -7  13   1 21630.0 4648.60   4
 -13   7   1 19793.2 2294.70  11
 -13   6   1 21613.0 2493.93  11
  -6  13   2 45770.7 3125.12  10
 -13   6   2 54071.4 4145.75   9
 -13   7   2 58382.9 4289.65   9
   6   7   2 34755.4 5446.80   3
   7   6   2 33878.4 5605.82   3
   6   7   2 42851.9 3533.34   7
   7   6   2 41309.0 3530.43   7
  -7  13   2 42906.4 3142.91  10
  -6  13   2 38568.8 5995.93   4
  -7  13   2 42233.3 6371.06   4
 -13   7   2 53681.4 3729.01  11
 -13   6   2 49586.5 3817.28  11
 -13   7   3 12693.9 2129.85  11
 -13   6   3 11740.4 2109.70  11
  -6  13   3 12771.5 1898.80  10
  -7  13   3 12208.2 2015.37  10
 -13   6   3 10338.4 2083.51   9
 -13   7   3 12111.7 2213.77   9
   7   6   3 11502.4 1982.86   7
   6   7   3 10359.3 1823.91   7
 -13   7   4 5800.01 1591.92  11
  -6  13   4 2743.97 1170.25  10
  -7  13   4 2785.83 1232.38  10
 -13   6   4 4441.00 1559.28  11
   6   7   4 3722.10 1393.33   7
   7   6   4 4423.52 1518.56   7
 -13   7   5 2813.11 1091.57  11
 -13   6   5 2167.64 1111.67  11
  -6  13   5 3991.95 1211.44  10
  -7  13   5 3321.42 1253.05  10
  -6  -7   5 4228.12 1379.17   8
  -7  -6   5 4385.71 1426.80   8
   6   7   5 2392.49 1113.42   7
   7   6   5 4300.47 1358.27   7
  -6  13   6 7163.95 1027.42  10
  -7  13   6 6314.14 975.344  10
  -6  -7   6 10907.9 1186.70   8
  -7  -6   6 10374.5 1185.84   8
 -13   7   6 9050.70 1081.59  11
 -13   6   6 8012.93 1037.92  11
  -8  13  -6 8231.58 1106.06   6
  -5  13  -6 7698.22 962.416   6
 -13   5  -6 6514.36 1081.57  11
 -13   8  -5 401.970 973.230   6
  -8  13  -5 829.589 853.157   6
  -5  13  -5 275.029 716.806   6
   8   5  -5 860.333 833.273   5
 -13   8  -4 721.642 838.420  11
 -13   8  -4 1519.47 1148.97   6
  -8  13  -4 1964.72 1096.55   6
  -5  13  -4 1708.64 1000.41   6
   5   8  -4 1121.91 1294.84   5
   8   5  -4-97.8630 1117.70   5
 -13   8  -3 4883.29 1475.17   6
  -8  13  -3 5069.41 1467.59   6
   5   8  -3 3102.10 1489.09   5
   8   5  -3 4279.18 1545.24   5
 -13   8  -3 4304.34 1204.92  11
 -13   5  -2 19686.0 2141.07   6
 -13   8  -2 19163.4 2299.25   6
  -8  13  -2 17897.6 1897.66   6
 -13   8  -2 21893.9 2412.50   9
   5   8  -2 19215.3 2512.05   5
   8   5  -2 22755.2 2791.30   5
   5   8  -2 16972.4 2275.30   7
   8   5  -2 19383.8 2248.99   7
 -13   8  -2 18600.8 2008.63  11
 -13   5  -2 18573.6 2081.36  11
 -13   5  -1 14438.3 1896.78   6
 -13   8  -1 15431.8 2243.68   6
  -5  13  -1 14104.4 3550.31   4
  -8  13  -1 11674.6 3408.12   4
 -13   8  -1 15685.9 2011.69   9
   5   8  -1 15591.6 2274.80   5
   8   5  -1 15284.4 2372.15   5
   5   8  -1 12812.1 1826.56   7
   8   5  -1 13424.5 1954.07   7
  13  -8  -1 15323.8 3769.63  12
  13  -5  -1 13609.7 3054.36  12
 -13   8  -1 14325.0 1740.13  11
 -13   5  -1 14564.3 1860.48  11
 -13   5   0 93712.8 4834.31   6
 -13   8   0 108976. 5314.99   6
  -5  13   0 102802. 4330.73  10
  -8  13   0 113531. 4678.05  10
 -13   5   0 103086. 4422.55   9
 -13   8   0 116716. 5134.49   9
   5   8   0 94633.3 8611.98   3
   8   5   0 112693. 10279.3   3
   5   8   0 103395. 4968.41   5
   8   5   0 104378. 5316.68   5
   5   8   0 110971. 4922.71   7
   8   5   0 107796. 5500.95   7
  13  -8   0 100863. 8411.34  12
  13  -5   0 110220. 8428.20  12
  -5  13   0 107267. 9067.91   4
  -8  13   0 107672. 9173.85   4
 -13   8   0 106717. 4419.29  11
 -13   5   0 112064. 4852.01  11
 -13   8   1 13921.1 2261.68   6
  -5  13   1 14449.4 3700.31   4
  -8  13   1 12329.9 3587.25   4
  -5  13   1 15064.3 1816.80  10
  -8  13   1 15976.0 1990.71  10
 -13   5   1 13984.6 2009.65   9
 -13   8   1 17497.2 2334.07   9
  -8  13   1 16334.4 1928.76   9
   8   5   1 14913.1 2207.57   5
   5   8   1 13853.3 3709.39   3
   8   5   1 14847.6 4188.11   3
   5   8   1 16421.5 2237.28   7
   8   5   1 13938.9 2393.55   7
  13  -8   1 13663.5 3197.69  12
  13  -5   1 13825.9 3334.51  12
 -13   8   1 16154.3 2014.61  11
 -13   5   1 15650.6 2189.95  11
  -5  13   2 18389.4 2102.63  10
  -8  13   2 18309.3 2216.36  10
 -13   5   2 17599.5 2528.36   9
 -13   8   2 24490.8 2878.96   9
   5   8   2 17557.2 2348.87   7
   8   5   2 16092.3 2331.53   7
 -13   8   2 21170.6 2342.49  11
 -13   5   2 20737.2 2626.17  11
 -13   8   3 3449.94 1392.19  11
 -13   5   3 3554.99 1539.46  11
  -5  13   3 4715.32 1449.63  10
  -8  13   3 4367.73 1395.47  10
 -13   8   3 4206.41 1642.77   9
   5   8   3 4011.12 1311.31   7
   8   5   3 4984.15 1513.14   7
 -13   8   4 3254.17 1343.29  11
 -13   5   4 1105.06 1247.59  11
  -5  13   4 561.091 1063.33  10
  -8  13   4 454.419 1148.17  10
  -8  -5   4-2783.47 1850.48   8
   5   8   4 916.002 962.771   7
   8   5   4 1649.71 1234.85   7
 -13   8   5 10.6055 852.746  11
 -13   5   5 409.165 980.235  11
  -5  13   5 1294.93 1040.82  10
  -8  13   5 545.856 1038.21  10
  -5  -8   5 1872.83 1223.45   8
  -8  -5   5 2503.12 1299.83   8
   8   5   5 2617.49 1265.84   7
  13  -5   5-2001.63 1192.73   7
  -5  13   6 6919.15 940.060  10
  -8  13   6 8139.79 1074.01  10
  -5  -8   6 12076.6 1198.61   8
  -8  -5   6 12767.8 1239.13   8
   8   5   6 3804.41 862.993   7
 -13   8   6 9083.72 1030.04  11
 -13   5   6 9869.95 1136.23  11
 -13   9  -6 8994.06 1184.89   6
  -9  13  -6 6824.84 1032.98   6
 -13   9  -5 426.654 931.978   6
  -9  13  -5 184.741 842.579   6
  -4  13  -5-319.431 655.329   6
   9   4  -5 835.355 756.140   5
 -13   9  -4 12245.2 1987.99   6
  -9  13  -4 15544.9 2042.94   6
   4   9  -4 13474.1 2073.58   5
   9   4  -4 10159.6 1756.19   5
  -9  13  -3 9750.10 1712.05   6
 -13   9  -3 6400.93 1585.90   6
 -13   9  -3 7803.63 1601.26   9
   4   9  -3 7880.58 1939.06   5
   9   4  -3 6718.15 1728.46   5
 -13   4  -2 3978.59 1248.95  11
  -9  -4  -2 2141.64 911.448  11
 -13   9  -2 4714.84 1450.16   6
  -9  13  -2 4397.14 1207.01   6
 -13   9  -2 4064.30 1377.48   9
   4   9  -2 2545.72 1397.58   5
   4   9  -2 4590.02 1462.36   7
   9   4  -2 5497.94 1801.52   5
   9   4  -2 4996.21 1474.10   7
 -13   9  -1 16256.2 2264.09   6
  -9  13  -1 12292.8 1670.14   6
  -4  13  -1 10322.9 3066.12   4
  -9  13  -1 8932.03 2762.76   4
 -13   4  -1 10943.9 1721.11  11
  -4  13  -1 11650.0 1648.78  10
 -13   9  -1 15495.6 2040.55   9
   4   9  -1 12569.7 2057.37   5
   4   9  -1 12238.0 1767.34   7
   9   4  -1 8083.82 2955.62   3
   9   4  -1 13555.9 2134.10   7
   9   4  -1 11329.1 2244.04   5
  13  -9  -1 12677.1 3459.48  12
  13  -4  -1 11983.0 2986.12  12
  -9  -4  -1 10289.3 1597.43  11
 -13   9   0 29690.9 2912.95   6
  -4  13   0 27865.5 2200.12  10
  -9  13   0 30771.5 2496.79  10
 -13   4   0 26409.2 2322.90   9
 -13   9   0 31997.1 2824.08   9
   4   9   0 24223.7 4333.47   3
  -9  13   0 31165.9 2527.34   9
   9   4   0 31120.6 5685.77   3
   4   9   0 28028.1 2678.60   5
   9   4   0 29745.7 3125.67   5
   4   9   0 31563.5 2585.67   7
   9   4   0 30853.9 3308.47   7
  13  -9   0 27212.5 4335.14  12
  13  -4   0 25358.8 4053.49  12
  -4  13   0 27017.1 4680.03   4
  -9  13   0 31731.2 5051.59   4
 -13   4   0 29215.9 2649.60  11
  -4  13   1 8384.21 2801.26   4
 -13   4   1 11863.1 1980.01  11
  -9  13   1 9669.89 3228.44   4
 -13   9   1 10356.4 1866.23   6
  -4  13   1 12444.6 1665.69  10
  -9  13   1 12448.1 1859.44  10
 -13   4   1 11087.5 1783.38   9
 -13   9   1 17556.0 2349.55   9
  -9  13   1 15060.0 1946.08   9
   4   9   1 15888.8 3938.93   3
   9   4   1 8281.05 3218.16   3
   4   9   1 12837.4 1961.90   7
   9   4   1 11884.3 2057.52   5
   9   4   1 10157.4 2165.65   7
  13  -9   1 11029.3 3016.86  12
  13  -4   1 9182.96 2590.46  12
 -13   9   1 10865.5 1605.56  11
 -13   4   2 3148.29 1467.51  11
 -13   9   2 3660.15 1170.86  11
  -4  13   2 3799.66 1182.44  10
  -9  13   2 4310.17 1318.95  10
 -13   4   2 2746.75 1293.68   9
 -13   9   2 5906.67 1746.90   9
   4   9   2 2950.45 1150.01   7
   9   4   2 1455.64 1241.54   7
  13  -4   2 4438.59 1397.97   7
 -13   9   3 6628.93 1427.12  11
 -13   4   3 5730.53 1592.19  11
  -4  13   3 6603.03 1519.27  10
  -9  13   3 9231.45 1719.73  10
 -13   9   3 6918.73 1778.08   9
   9   4   3 5852.32 1679.50   7
  13  -4   3 5708.40 1669.15   7
  -4  13   4 10555.3 1751.70  10
  -9  13   4 13231.1 1978.57  10
  -4  -9   4 7130.66 1684.14   8
  -9  -4   4 7996.61 1686.08   8
   9   4   4 12108.7 2068.61   7
  13  -4   4 9853.18 1900.80   7
 -13   9   4 15822.2 1832.17  11
 -13   4   4 12945.7 2035.26  11
 -13   9   5 251.525 730.310  11
 -13   4   5 713.517 942.972  11
  -4  13   5 1767.26 1004.45  10
  -9  13   5 1387.56 1103.39  10
  -4  -9   5 1985.78 1158.96   8
  -9  -4   5 2419.82 1216.99   8
   9   4   5 2301.62 1283.19   7
  13  -4   5-490.040 931.736   7
  -9  13   6 4883.21 840.731  10
  -4  -9   6 10363.6 1068.80   8
  -9  -4   6 11790.8 1136.10   8
   9   4   6 2673.78 741.843   7
  13  -4   6 2750.21 743.798   7
 -13   4   6 7338.97 957.263  11
 -13   3  -6 809.644 670.812  11
 -10  13  -6 2696.84 756.489   6
 -13  10  -5-1653.06 1070.94   6
 -10  13  -5-344.649 835.594   6
 -13  10  -4 19654.9 2412.72   6
 -10  13  -4 23055.3 2417.55   6
   3  10  -4 22018.1 2487.86   5
  10   3  -4 19007.8 2045.40   5
 -13  10  -3 7804.80 1722.71   6
 -10  13  -3 8029.24 1693.75   6
 -13  10  -3 5169.05 1459.44   9
   3  10  -3 8159.53 1927.79   5
  10   3  -3 6267.46 1583.10   5
 -13   3  -2 3584.97 1308.25  11
 -10  -3  -2 2226.20 986.496  11
 -13  10  -2 5676.53 1653.54   6
 -10  13  -2 3971.81 1219.68   6
 -13  10  -2 5805.62 1454.19   9
   3  10  -2 2775.44 1382.55   5
  10   3  -2 4532.29 1725.10   5
  10   3  -2 3619.68 1331.75   7
  13  -3  -2 3708.03 1524.63   5
 -13  10  -1 10110.3 1941.06   6
 -10  13  -1 9047.21 1562.18   6
 -13   3  -1 7824.91 1678.90  11
 -10  -3  -1 7221.95 1492.35  11
  -3  13  -1 8579.90 2700.51   4
 -10  13  -1 9075.71 2813.18   4
  -3  13  -1 7868.93 1344.69  10
 -13  10  -1 8477.72 1689.92   9
   3  10  -1 7466.44 1706.14   5
   3  10  -1 10014.8 1618.67   7
  10   3  -1 8392.00 3016.00   3
  10   3  -1 7445.44 1970.38   5
  10   3  -1 9185.87 1824.40   7
 -13  10   0 13800.7 2113.74   6
 -10  13   0 16431.0 2054.29   6
  -3  13   0 8756.48 2778.35   4
 -10  13   0 14041.8 3576.72   4
  -3  13   0 14212.0 1612.41  10
 -10  13   0 12752.8 1685.07  10
 -13  10   0 14538.8 2069.71   9
 -10  13   0 13690.8 1893.42   9
   3  10   0 8841.74 1729.68   5
  10   3   0 11378.7 3956.94   3
  10   3   0 13885.2 2495.93   7
  10   3   0 12704.4 2327.91   5
  13 -10   0 13762.9 3393.75  12
 -10  -3   0 16412.4 2077.84  11
 -13   3   0 14542.4 2100.90  11
 -10  -3   1 9381.44 1615.37  11
 -13   3   1 7656.07 1683.99  11
  -3  13   1 7502.15 2915.28   4
 -10  13   1 7416.10 2856.93   4
 -13  10   1 6281.61 1578.35   6
  -3  13   1 8182.25 1323.44  10
 -10  13   1 9154.66 1572.18  10
 -10  13   1 9158.43 1614.07   9
 -13   3   1 5461.98 1303.55   9
 -13  10   1 9533.96 1824.63   9
   3  10   1 1371.10 2209.96   3
  10   3   1 9350.35 3237.43   3
  13  -3   1 7888.33 1698.94   7
  10   3   1 5936.60 2018.44   7
 -13   3   2 4990.22 1574.56  11
  -3  13   2 4312.78 1188.32  10
 -10  13   2 4548.96 1296.72  10
 -13  10   2 5568.55 1629.86   9
 -10  13   2 7245.62 1530.26   9
 -10  -3   2 5270.16 1398.97  11
  10   3   2 2396.53 1338.39   7
  13  -3   2 4293.14 1493.59   7
 -10  -3   3 7027.53 1358.51  11
 -13   3   3 6113.87 1659.31  11
  -3  13   3 7933.16 1508.17  10
 -10  13   3 8216.71 1657.95  10
 -13  10   3 6213.73 1634.49   9
  10   3   3 7865.56 1818.71   7
  13  -3   3 7556.79 1895.17   7
  -3  13   4 21043.8 2193.21  10
 -10  13   4 20781.4 2226.93  10
  -3 -10   4 18051.1 2107.53   8
 -10  -3   4 16622.0 2083.04   8
  10   3   4 20192.7 2485.64   7
  13  -3   4 16370.0 2299.34   7
 -13  10   4 24064.7 1892.51  11
 -10  -3   4 25912.1 1979.23  11
 -13   3   4 22085.0 2347.52  11
 -13   3   5-14.4765 851.588  11
  -3  13   5 1209.40 780.502  10
 -10  13   5 1092.11 978.396  10
  -3 -10   5 2152.52 1088.91   8
 -10  -3   5 828.487 939.216   8
  10   3   5 575.589 1161.05   7
  13  -3   5 163.054 816.326   7
 -13  10   5 221.074 552.399  11
  -3 -10   6 3919.07 714.770   8
 -10  -3   6 4477.33 734.405   8
  10   3   6 680.330 533.898   7
  13  -3   6 2027.99 645.720   7
 -13   3   6 3268.86 681.988  11
 -13   2  -6 351.412 610.242  11
 -11  -2  -6 143.989 429.099  11
 -13  11  -6 3766.81 797.638   6
 -11  13  -6 2485.65 711.693   6
 -13  11  -5-295.441 910.130   6
 -11  13  -5 557.400 861.328   6
 -13  11  -4 17379.7 2342.32   6
 -11  13  -4 19131.6 2265.49   6
 -13  11  -4 20781.9 2219.51   9
  11   2  -4 13186.8 1731.01   5
 -13  11  -3 1326.79 1254.06   6
 -11  13  -3 1398.30 1222.71   6
 -13  11  -3 582.648 966.640   9
   2  11  -3 2307.14 1472.25   5
  11   2  -3 2783.87 1411.90   5
  13  -2  -3 1586.00 1178.79   5
 -13   2  -2 8861.93 1653.72  11
 -11  -2  -2 7024.94 1449.58  11
 -13  11  -2 11212.9 1972.67   6
 -11  13  -2 9186.93 1666.99   6
 -13  11  -2 10862.8 1880.04   9
   2  11  -2 7335.63 1716.40   5
  11   2  -2 8716.12 2006.71   5
  13  -2  -2 9319.70 1689.93   7
  11   2  -2 9696.76 1857.36   7
  13  -2  -2 9723.61 2008.28   5
 -13  11  -1 15265.7 2269.87   6
 -11  13  -1 12691.9 1798.99   6
 -11  13  -1 9716.13 1548.15  10
 -13  11  -1 13827.7 2078.88   9
 -11  13  -1 13408.5 1926.99   9
   2  11  -1 10546.6 1825.50   5
  13  -2  -1 13159.3 1866.59   7
  11   2  -1 14290.3 2122.41   7
  11   2  -1 13352.7 2427.54   5
 -11  -2  -1 13664.6 1918.31  11
 -13   2  -1 12556.7 1968.09  11
 -11  -2   0 3315.52 1396.81  11
 -13   2   0 4406.02 1466.65  11
 -13  11   0 3714.48 1428.03   6
 -11  13   0 3894.36 1346.32   6
  -2  13   0 2684.89 915.636  10
 -11  13   0 2962.37 1090.58  10
 -13  11   0 3394.33 1321.88   9
 -11  13   0 3122.92 1212.67   9
  13  -2   0 4960.68 1580.62   7
  11   2   0 4484.73 1986.41   7
 -13   2   1 11529.6 2046.66  11
 -13  11   1 8559.58 1796.23   6
  -2  13   1 10579.2 1391.95  10
 -11  13   1 12286.1 1699.49  10
 -11  13   1 11946.4 1932.46   6
 -13  11   1 14291.4 2135.88   9
 -11  13   1 14886.5 1969.38   9
  13  -2   1 13367.1 2276.42   7
  11   2   1 13531.2 2526.65   7
 -11  -2   1 13398.2 2040.81  11
 -11  -2   2 9327.49 1718.48  11
 -13   2   2 9825.53 1970.55  11
  -2  13   2 10380.3 1481.83  10
 -11  13   2 8739.34 1516.59  10
 -13  11   2 10804.0 1998.72   9
 -11  13   2 11399.2 1864.94   9
  11   2   2 7255.78 1810.71   7
  13  -2   2 9410.08 2102.26   7
 -13   2   3-113.175 1345.60  11
 -11  -2   3 664.309 1030.35  11
  -2  13   3 857.534 809.369  10
 -11  13   3 1779.05 1068.28  10
 -13  11   3 356.637 1112.91   9
  11   2   3 2195.80 1369.25   7
  13  -2   3 1901.80 1329.38   7
  -2  13   4 21899.9 2045.37  10
 -11  13   4 17539.9 1990.85  10
  -2 -11   4 20021.1 2038.92   8
 -11  -2   4 20841.4 2011.70   8
  11   2   4 18879.5 2378.81   7
  13  -2   4 19338.1 2364.84   7
 -11  -2   4 21226.0 1869.13  11
 -13   2   4 19677.4 2142.85  11
 -11  -2   5 570.169 538.762  11
 -13   2   5 469.165 732.860  11
  -2  13   5 396.947 597.978  10
 -11  13   5 606.412 708.222  10
  -2 -11   5 1626.33 877.627   8
 -11  -2   5 2960.07 926.773   8
  11   2   5 2305.61 1087.26   7
  13  -2   5 919.071 845.692   7
  11   2   6 430.048 451.186   7
 -13   2   6 2287.76 553.380  11
 -13   1  -5-1789.42 1140.13  11
 -12  -1  -5-1361.63 1295.08  11
 -13  12  -5 1526.19 948.742   6
 -12  13  -5 1317.93 871.358   6
 -12  13  -5 2349.62 838.372   9
 -13  12  -4 18198.7 2345.60   6
 -12  13  -4 18416.3 2209.60   6
 -13  12  -4 19439.9 2139.27   9
 -12  13  -4 20730.1 2274.92   9
  12   1  -4 13083.7 1632.05   5
 -13   1  -3 216.201 1090.16  11
 -12  -1  -3 986.588 1073.90  11
 -13  12  -3 3250.66 1519.81   6
 -12  13  -3 2653.80 1388.29   6
 -13  12  -3 1697.20 1164.65   9
  12   1  -3 3053.48 1491.86   5
  13  -1  -3 2685.89 1242.30   5
 -12  13  -2 12272.2 1957.35   6
 -12  -1  -2 9531.97 1659.47  11
 -13   1  -2 10009.6 1789.12  11
 -13  12  -2 13433.1 1985.59   9
 -12  13  -2 13774.2 2082.77   9
 -13  12  -2 12317.4 2073.06   6
   1  12  -2 11603.4 1939.66   5
  13  -1  -2 11957.4 1800.41   7
  12   1  -2 12566.4 2035.69   7
  12   1  -2 9846.56 2113.73   5
  13  -1  -2 8965.80 1980.71   5
 -13   1  -1 9832.75 1937.68  11
 -13  12  -1 11345.0 2022.00   6
 -12  13  -1 11021.8 1831.92   6
 -12  -1  -1 9189.81 1799.54  11
 -13  12  -1 7418.20 1200.20  10
 -12  13  -1 7201.99 1366.45  10
 -12  13  -1 9326.82 1801.66   9
 -13  12  -1 9099.01 1717.99   9
   1  12  -1 8445.90 1622.20   5
  12   1  -1 10509.7 1923.15   7
  13  -1  -1 7932.51 1575.48   7
  12   1  -1 9140.47 2263.28   5
 -12  -1   0 3054.23 1461.25  11
 -13   1   0 1405.18 1250.89  11
 -13  12   0 1027.63 1130.09   6
 -12  13   0 1575.01 1079.74   6
 -12  13   0 2381.78 954.408  10
 -13  12   0 2155.78 1259.85   9
 -12  13   0 2491.69 1208.50   9
  13  -1   0 2868.44 1590.85   7
  12   1   0 4070.12 1957.95   7
 -12  -1   1 9757.62 1806.02  11
 -13   1   1 8251.72 1744.14  11
 -13  12   1 5521.58 1548.16   6
 -12  13   1 6494.80 1589.43   6
 -12  13   1 9146.09 1511.86  10
 -13  12   1 9837.22 1795.78   9
 -12  13   1 9437.32 1665.53   9
  13  -1   1 6400.99 1910.79   7
  12   1   1 7812.83 2098.43   7
 -12  13   2 11611.5 1612.01  10
 -13  12   2 13267.4 2048.80   9
 -12  13   2 12962.4 1998.71   9
  12   1   2 10293.7 2116.47   7
  13  -1   2 9996.66 2226.71   7
 -12  -1   2 13885.9 2084.76  11
 -13   1   2 11668.9 1952.84  11
 -12  -1   3 1245.40 1081.90  11
 -13   1   3 848.523 1270.79  11
 -12  13   3 2085.07 950.980  10
 -13  12   3 812.771 1037.75   9
 -12  13   3 1703.71 1068.09   9
  12   1   3 971.501 1217.03   7
  13  -1   3 176.908 1216.28   7
 -12  13   4 16711.6 1756.62  10
  -1 -12   4 22870.4 1860.41   8
  12   1   4 17424.5 2209.77   7
  13  -1   4 18085.3 2236.78   7
 -12  -1   4 20021.8 1887.00  11
 -13   1   4 18679.3 1964.23  11
 -12  -1   5 1294.55 636.349  11
 -13   1   5 1455.28 734.159  11
 -12  13   5 1297.73 550.016  10
  12   1   5 1050.33 851.796   7
  13  -1   5 1547.62 851.929   7
 -13   0  -5-144.546 1013.81  11
 -13  13  -5 1128.73 818.371   6
 -13  13  -5 2110.14 647.037   9
 -13   0  -4 3533.62 1383.69  11
 -13  13  -4 7409.00 1609.47   6
 -13  13  -4 7248.15 1434.69   9
 -13   0  -3 6412.41 1505.83  11
 -13  13  -3 9710.86 1975.01   6
 -13  13  -3 6434.57 1544.45   9
  13   0  -3 6521.38 1485.08   5
 -13  13  -2 30700.6 2861.68   6
 -13  13  -2 24950.2 2187.81  10
 -13  13  -2 31028.2 2829.60   9
  13   0  -2 26827.7 2986.61   5
  13   0  -2 29231.0 2656.05   7
 -13   0  -2 22517.5 2477.39  11
 -13   0  -1 2722.42 1332.91  11
 -13  13  -1 3299.43 1367.73   6
 -13  13  -1 843.583 730.227  10
 -13  13  -1 2041.09 1270.40   9
  13   0  -1 1761.87 1228.97   7
  13   0  -1 1960.26 1836.47   5
 -13   0   0 9411.11 1885.46  11
 -13  13   0 7095.08 1633.13   6
 -13  13   0 6265.46 1115.54  10
 -13  13   0 7391.68 1599.69   9
  13   0   0 9536.15 2010.21   7
 -13  13   1 158.182 1248.11   6
 -13   0   1 654.146 1168.99  11
 -13  13   1 938.936 762.308  10
 -13  13   1 1646.63 1107.82   9
  13   0   1 1190.36 1431.75   7
 -13  13   2 25271.1 2064.69  10
  13   0   2 22519.2 3024.83   7
 -13   0   2 28799.9 2778.33  11
 -13   0   3 6629.99 1444.34  11
 -13  13   3 4589.70 1032.46  10
 -13  13   3 7018.55 1484.90   9
  13   0   3 6964.70 1681.88   7
  13   0   4 6350.59 1422.28   7
 -13   0   4 8119.95 1283.87  11
 -13   0   5 1807.74 630.732  11
  13   0   5 1604.58 766.216   7
 -14   7  -5-1129.90 854.402  11
  -7  14  -5 938.765 735.277   6
 -14   7  -4 1301.70 955.764  11
 -14   7  -4 1480.07 993.610   6
  -7  14  -4 2908.78 1044.57   6
   7   7  -4 2505.28 1253.14   5
 -14   7  -3-296.535 1020.76  11
 -14   7  -3 1278.03 1123.99   6
  -7  14  -3 760.482 960.947   6
   7   7  -3-764.551 1307.02   5
 -14   7  -2 1680.68 1127.45  11
 -14   7  -2 3506.39 1369.10   6
   7   7  -2 2198.27 1523.70   5
   7   7  -2 1256.78 1108.11   7
 -14   7  -1 1515.59 1120.36  11
 -14   7  -1 722.991 1117.07   6
  -7  14  -1 687.948 949.562  10
 -14   7  -1 667.715 926.454   9
   7   7  -1 2957.52 1709.84   5
   7   7  -1-27.4765 1085.18   7
 -14   7   0 171163. 6870.06   6
  -7  14   0 189029. 5977.56  10
 -14   7   0 183761. 6361.18   9
   7   7   0 181578. 6684.03   5
   7   7   0 190285. 6923.57   7
 -14   7   0 175049. 5976.44  11
 -14   7   1 567.328 1138.64  11
  -7  14   1 607.919 1035.22  10
 -14   7   1 783.942 1099.93   9
   7   7   1 1751.45 1319.89   5
   7   7   1 848.013 1341.19   7
 -14   7   2 2741.86 1537.19  11
  -7  14   2 1230.28 1033.58  10
 -14   7   2 992.856 1290.85   9
   7   7   2 885.315 1272.22   7
 -14   7   3-890.514 1466.97  11
  -7  14   3 705.497 1155.90  10
 -14   7   3-1143.27 1699.98   9
   7   7   3-1890.69 1292.03   7
 -14   7   4 4353.87 1398.47  11
  -7  14   4 714.994 1187.59  10
  -7  -7   4-1958.45 1702.24   8
   7   7   4 1881.58 1087.51   7
 -14   7   5 174.655 753.877  11
  -7  14   5 947.141 932.458  10
  -7  -7   5 634.335 987.756   8
   7   7   5-718.910 906.108   7
  -7  -7   6 3541.46 708.883   8
 -14   7   6 1500.39 513.617  11
 -14   6  -5-429.751 907.466  11
 -14   8  -5 600.584 807.190   6
  -8  14  -5 806.291 727.383   6
  -6  14  -5 792.682 662.469   6
   8   6  -5 280.763 613.360   5
 -14   8  -4 639.043 841.838  11
 -14   6  -4-1250.38 1191.45  11
 -14   8  -4 2238.60 1169.12   6
  -8  14  -4 1132.65 959.218   6
  -6  14  -4 996.767 808.244   6
   6   8  -4 1472.90 1177.91   5
   8   6  -4 239.223 998.525   5
 -14   8  -3-486.920 992.629  11
 -14   6  -3-74.9294 1119.15  11
 -14   6  -3 1081.10 994.221   6
 -14   8  -3 1662.92 1241.42   6
  -8  14  -3 1862.08 1091.01   6
   6   8  -3 945.019 1370.44   5
   8   6  -3 1738.83 1284.66   5
 -14   6  -2 27377.6 2582.81   6
 -14   8  -2 27828.1 2805.19   6
 -14   8  -2 28944.0 2749.34   9
   6   8  -2 26389.2 2903.69   5
   8   6  -2 29261.9 3084.89   5
   6   8  -2 24733.0 2642.26   7
   8   6  -2 27247.3 2698.34   7
 -14   8  -2 28546.1 2513.60  11
 -14   6  -2 24758.7 2416.70  11
 -14   8  -1 2653.27 1070.84  11
 -14   6  -1 3678.73 1350.61  11
 -14   6  -1 2710.25 1156.00   6
 -14   8  -1 3871.01 1432.05   6
  -6  14  -1 2523.01 1041.62  10
  -8  14  -1 2498.55 1108.01  10
 -14   8  -1 2203.67 974.617   9
   6   8  -1 3445.36 1578.18   5
   8   6  -1 3520.29 1604.34   5
   6   8  -1 2502.30 1190.87   7
   8   6  -1 3079.61 1302.95   7
 -14   6   0 37753.6 3237.13   6
 -14   8   0 37369.2 3330.99   6
  -6  14   0 42839.8 2935.85  10
  -8  14   0 40368.8 2949.44  10
 -14   6   0 43062.1 3137.03   9
 -14   8   0 42368.5 3233.88   9
  -8  14   0 41458.7 2832.48   9
   6   8   0 40193.2 3243.64   5
   8   6   0 37992.7 3274.45   5
   6   8   0 43305.2 3251.13   7
   8   6   0 46505.5 3685.72   7
 -14   8   0 41079.0 2901.10  11
 -14   6   0 40236.4 2981.93  11
 -14   8   1 1502.45 1002.48  11
 -14   6   1 2944.58 1288.08  11
  -6  14   1 3261.31 1197.07  10
  -8  14   1 2171.37 1144.04  10
 -14   6   1 2228.48 1184.86   9
 -14   8   1 3775.34 1484.67   9
   8   6   1 1103.01 1225.44   5
   6   8   1 4756.45 1593.88   7
   8   6   1 1293.09 1466.04   7
  -6  14   2 26940.4 2486.10  10
  -8  14   2 25356.3 2563.93  10
 -14   6   2 27822.5 3090.81   9
 -14   8   2 34306.3 3404.07   9
   6   8   2 26353.5 2670.53   7
   8   6   2 23669.6 2731.73   7
 -14   8   2 30244.2 2823.79  11
 -14   6   2 27423.5 2927.15  11
 -14   8   3 204.097 1069.85  11
 -14   6   3-547.547 1436.72  11
  -6  14   3 429.728 1084.15  10
  -8  14   3 1083.53 1164.76  10
 -14   8   3-812.856 1576.72   9
   6   8   3-911.000 1122.02   7
   8   6   3-705.620 1113.22   7
 -14   8   4 4081.59 1256.60  11
 -14   6   4 2441.68 1326.98  11
  -6  14   4-271.800 1166.00  10
  -8  14   4 113.343 1244.84  10
  -6  -8   4-2967.15 1799.03   8
  -8  -6   4-4297.33 1775.56   8
   6   8   4 49.4734 1031.54   7
   8   6   4-599.979 1182.81   7
 -14   8   5-674.191 755.986  11
 -14   6   5-69.9260 831.928  11
  -6  14   5 1062.56 904.605  10
  -8  14   5 1578.06 1010.07  10
  -6  -8   5 1576.07 1073.98   8
  -8  -6   5 1371.45 1061.28   8
   6   8   5-353.008 784.629   7
   8   6   5-1393.27 1049.06   7
  -6  -8   6 5686.56 814.931   8
 -14   6   6 4303.82 683.293  11
 -14   5  -5-759.421 970.408  11
 -14   9  -5 1468.64 862.819   6
  -9  14  -5 1726.51 808.029   6
   9   5  -5 1439.24 733.856   5
 -14   5  -4 3918.04 1224.52  11
 -14   9  -4 7459.75 1646.87   6
  -9  14  -4 6401.63 1421.10   6
   5   9  -4 6445.89 1582.70   5
   9   5  -4 5425.90 1310.72   5
 -14   5  -3-7.91915 995.382  11
  -9  -5  -3 567.615 659.743  11
 -14   9  -3 629.248 1186.47   6
  -9  14  -3 1229.58 1081.47   6
   5   9  -3 1433.31 1407.78   5
   9   5  -3 1060.45 1313.21   5
 -14   9  -2 22576.7 2582.12   6
  -9  14  -2 17939.4 2005.94   6
 -14   9  -2 22121.1 2474.76   9
   5   9  -2 17980.6 2381.35   5
   9   5  -2 24303.0 2870.52   5
   9   5  -2 20535.6 2340.40   7
 -14   5  -2 18224.3 2188.46  11
 -14   5  -1 3991.90 1128.29   6
 -14   9  -1 6291.77 1638.55   6
  -5  14  -1 5358.83 1359.92  10
  -9  14  -1 4720.39 1321.20  10
 -14   9  -1 5412.57 1446.97   9
   5   9  -1 4815.98 1596.48   5
 -14   5  -1 6931.34 1568.60  11
   9   5  -1 4794.51 1758.80   5
   5   9  -1 5491.60 1346.05   7
   9   5  -1 5410.46 1545.49   7
 -14   9   0 1723.31 930.977  11
 -14   5   0 718.606 1011.89  11
 -14   9   0 973.947 1089.19   6
  -5  14   0 1664.59 994.605  10
  -9  14   0 1992.87 1097.13  10
 -14   5   0 1478.58 981.306   9
 -14   9   0 2861.72 1307.32   9
  -9  14   0 2019.41 995.400   9
   5   9   0 4308.04 1583.02   5
   9   5   0 434.525 1323.18   5
   5   9   0 846.204 1068.10   7
   9   5   0 4332.92 1721.29   7
 -14   9   1 5313.79 1303.76  11
 -14   5   1 6078.57 1544.47  11
  -5  14   1 6820.54 1447.95  10
  -9  14   1 7816.09 1600.53  10
 -14   5   1 4658.90 1312.78   9
 -14   9   1 7467.39 1776.42   9
  -9  14   1 7852.75 1476.41   9
   9   5   1 3110.26 1358.29   5
   5   9   1 7523.58 1670.86   7
   9   5   1 5357.78 1820.58   7
  -5  14   2 20297.9 2101.71  10
  -9  14   2 21310.3 2365.95  10
 -14   5   2 15359.5 2267.58   9
 -14   9   2 23330.0 2835.47   9
   5   9   2 19478.1 2280.22   7
   9   5   2 17317.2 2488.53   7
 -14   9   2 19215.8 2108.21  11
 -14   5   2 20467.4 2629.89  11
 -14   9   3-438.879 977.077  11
 -14   5   3-661.605 1488.80  11
  -5  14   3 975.290 1087.56  10
  -9  14   3 1863.94 1352.87  10
 -14   9   3 163.504 1404.57   9
   5   9   3 494.102 918.161   7
   9   5   3 359.107 1202.70   7
 -14   5   4 7702.97 1619.56  11
  -5  14   4 5029.10 1316.71  10
  -9  14   4 6163.84 1468.81  10
  -5  -9   4 1537.05 1444.86   8
  -9  -5   4 983.284 1432.56   8
   9   5   4 4920.93 1504.35   7
  14  -5   4 6023.79 1455.88   7
 -14   9   4 8098.58 1394.41  11
 -14   9   5 718.663 653.724  11
 -14   5   5 33.4467 775.380  11
  -5  14   5 1778.36 891.673  10
  -9  14   5 2593.43 1031.28  10
  -5  -9   5 3406.01 1075.15   8
  -9  -5   5 2969.53 1125.07   8
   9   5   5 791.007 892.026   7
  -5  -9   6 11045.1 926.010   8
  -9  -5   6 11509.6 940.148   8
 -14  10  -5 1216.68 876.723   6
 -10  14  -5-98.0955 721.092   6
 -14  10  -4 10906.8 1853.63   6
 -10  14  -4 10006.8 1622.64   6
 -14   4  -4 7583.49 1548.95  11
   4  10  -4 12079.1 1811.47   5
  10   4  -4 6419.28 1363.85   5
 -14   4  -3 951.975 1041.13  11
 -10  -4  -3 1827.19 883.904  11
 -14  10  -3 1851.99 1383.48   6
 -10  14  -3 2760.39 1159.79   6
 -14  10  -3 2582.20 1141.07   9
   4  10  -3 4254.32 1622.75   5
  10   4  -3 2946.84 1422.55   5
 -10  -4  -2 4712.50 1117.52  11
 -14   4  -2 6107.96 1522.84  11
 -14  10  -2 9742.18 1885.70   6
 -10  14  -2 4888.88 1314.61   6
  -4  14  -2 6780.58 1450.09  10
 -14  10  -2 6877.67 1601.14   9
   4  10  -2 6443.96 1747.49   5
  10   4  -2 6117.54 1927.42   5
  10   4  -2 6311.43 1622.26   7
  14  -4  -2 6286.86 1655.25   5
 -10  -4  -1 1181.13 922.866  11
 -14   4  -1 359.380 1199.10  11
 -14  10  -1 1732.16 1400.22   6
 -10  14  -1 554.916 871.315   6
  -4  14  -1 336.539 878.635  10
 -10  14  -1-203.156 877.152  10
 -14  10  -1 256.863 986.540   9
   4  10  -1-41.3843 1165.75   5
  10   4  -1-1012.36 1666.29   5
   4  10  -1 66.8141 849.396   7
  10   4  -1-687.334 1200.86   7
 -14  10   0 27532.7 2781.78   6
  -4  14   0 28862.9 2238.58  10
 -10  14   0 26441.0 2373.34  10
 -14  10   0 30439.1 2837.49   9
 -10  14   0 30378.8 2563.11   9
   4  10   0 24450.5 2485.23   5
  10   4   0 26647.9 2985.30   5
   4  10   0 30830.9 2483.62   7
  10   4   0 35397.7 3408.29   7
 -14   4   0 29057.6 2666.94  11
 -14   4   1-783.391 1302.64  11
  -4  14   1 450.509 791.869  10
 -10  14   1 777.790 1062.89  10
 -14   4   1-1274.07 1168.20   9
 -14  10   1 181.576 1113.92   9
 -10  14   1-68.9084 846.447   9
  10   4   1 289.123 1311.56   5
  10   4   1-230.934 1332.81   7
 -14   4   2 6776.31 1766.72  11
  -4  14   2 6142.02 1357.63  10
 -10  14   2 6984.71 1513.41  10
 -14  10   2 8191.05 1863.63   9
  10   4   2 6874.59 1734.64   5
  10   4   2 4401.49 1610.97   7
 -14  10   3 2559.69 973.408  11
 -14   4   3 814.437 1363.62  11
  -4  14   3 3420.62 1180.27  10
 -10  14   3 3672.99 1344.71  10
 -14  10   3 2258.78 1274.29   9
  10   4   3 1608.53 1245.15   7
  14  -4   3 1604.33 1124.86   7
  -4  14   4 10373.9 1556.27  10
 -10  14   4 8938.59 1543.50  10
  -4 -10   4 6762.16 1531.82   8
 -10  -4   4 7271.83 1454.56   8
  14  -4   4 10138.6 1711.59   7
  10   4   4 8212.50 1705.32   7
 -14  10   4 11589.2 1318.08  11
 -14   4   4 10654.4 1715.52  11
 -14   4   5 70.7275 717.007  11
  -4  14   5 2481.09 835.726  10
 -10  14   5 1309.93 884.119  10
  -4 -10   5 1406.73 900.629   8
 -10  -4   5 1985.99 902.878   8
  10   4   5-1547.76 1033.55   7
  14  -4   5-412.354 755.707   7
 -14  10   5 1177.99 576.131  11
 -14   3  -5-2371.10 1044.65  11
 -11  -3  -5-1989.68 980.156  11
 -14  11  -5 927.418 802.700   6
 -11  14  -5-1211.36 798.418   6
 -11  14  -5 858.621 701.813   9
 -14  11  -4 9998.64 1842.67   6
 -11  14  -4 10652.1 1672.17   6
 -14   3  -4 8105.80 1584.89  11
 -11  -3  -4 5546.75 1366.25  11
  11   3  -4 7817.93 1393.91   5
 -14   3  -3 4452.52 1345.22  11
 -11  -3  -3 3705.78 1137.79  11
 -14  11  -3 7466.08 1781.08   6
 -11  14  -3 6777.88 1548.41   6
  -3  14  -3 4769.08 1252.51  10
 -14  11  -3 6577.60 1472.37   9
   3  11  -3 7185.89 1743.00   5
  11   3  -3 6788.27 1691.41   5
  -3  14  -2 10688.1 1636.57  10
 -14  11  -2 12086.3 2186.99   6
 -11  14  -2 10013.5 1672.16   6
 -11  -3  -2 6489.24 1274.75  11
 -14   3  -2 8911.91 1759.40  11
 -14  11  -2 10081.1 1843.43   9
   3  11  -2 8926.76 1908.34   5
  11   3  -2 9489.28 2088.13   5
  11   3  -2 8512.01 1866.95   7
  14  -3  -2 10495.3 2078.67   5
 -11  -3  -1 4595.60 1366.44  11
 -14   3  -1 5476.36 1621.09  11
 -14  11  -1 5602.93 1575.54   6
 -11  14  -1 6313.88 1455.88   6
  -3  14  -1 4146.71 1131.73  10
 -11  14  -1 3797.63 1180.04  10
 -14  11  -1 4347.64 1422.05   9
 -11  14  -1 5260.25 1441.25   9
   3  11  -1 3290.23 1306.76   5
  11   3  -1 3890.77 1808.26   5
  11   3  -1 4025.69 1463.38   7
 -11  14   0 12695.3 1792.43   6
 -11  -3   0 10567.8 1709.99  11
 -14   3   0 11390.7 1956.69  11
 -14  11   0 9428.94 1875.53   6
  -3  14   0 11160.2 1456.76  10
 -11  14   0 9794.29 1522.48  10
 -11  14   0 10631.5 1698.19   9
 -14  11   0 10984.6 1848.50   9
  11   3   0 14697.1 2506.06   7
  11   3   0 9496.62 2032.87   5
 -14  11   1 2608.29 1298.42   6
 -11  -3   1 5212.35 1347.66  11
 -14   3   1 3226.15 1363.52  11
  -3  14   1 3138.34 960.539  10
 -11  14   1 5059.77 1301.56  10
 -14  11   1 4930.41 1518.58   9
 -11  14   1 4595.94 1272.44   9
  11   3   1 3234.11 1537.34   5
  14  -3   1 4692.49 1477.33   7
  11   3   1 4664.64 1861.70   7
 -14   3   2 10464.8 1990.41  11
  -3  14   2 9495.89 1474.46  10
 -11  14   2 9436.53 1571.97  10
 -14  11   2 11386.7 2071.81   9
 -11  14   2 10580.6 1734.28   9
  14  -3   2 9872.71 1959.50   7
  11   3   2 6534.00 1770.44   7
 -11  -3   2 10580.7 1648.18  11
 -11  -3   3 5419.20 1200.46  11
 -14   3   3 4433.54 1391.58  11
  -3  14   3 5503.89 1244.01  10
 -11  14   3 7308.32 1520.30  10
 -14  11   3 6716.80 1633.54   9
  11   3   3 4038.69 1405.50   7
  14  -3   3 4783.75 1461.97   7
  -3  14   4 10259.5 1481.73  10
 -11  14   4 9459.96 1504.36  10
  -3 -11   4 11544.0 1590.21   8
 -11  -3   4 10948.4 1500.59   8
  14  -3   4 9972.07 1684.31   7
  11   3   4 10138.5 1772.41   7
 -14   3   4 12415.9 1716.26  11
 -14   3   5-471.148 679.448  11
  -3  14   5 377.265 510.361  10
 -11  14   5 763.516 665.187  10
  -3 -11   5 1777.57 771.450   8
 -11  -3   5 1043.72 724.290   8
  11   3   5-495.939 865.320   7
  14  -3   5-631.574 790.820   7
 -14   2  -5-1554.82 995.970  11
 -12  -2  -5-2210.39 1042.38  11
 -14  12  -5 2088.57 873.820   6
 -12  14  -5-34.4759 672.546   6
 -12  14  -5 650.412 619.794   9
 -14  12  -4 17072.2 2170.08   6
 -12  14  -4 14656.2 1896.13   6
 -14  12  -4 14589.5 1711.32   9
 -12  14  -4 17212.5 2012.49   9
  12   2  -4 10996.2 1439.95   5
 -14   2  -4 11836.9 1803.31  11
 -12  -2  -4 8675.24 1769.54  11
 -14   2  -3-756.120 1298.64  11
 -12  -2  -3-1064.35 1112.50  11
 -14  12  -3 201.538 1157.38   6
 -12  14  -3-541.419 1088.61   6
 -14  12  -3 339.666 918.967   9
 -12  14  -3 524.911 1076.55   9
  12   2  -3-95.5548 1099.36   5
  14  -2  -3 0.99271 935.959   5
 -14  12  -2 17449.2 2378.96   6
 -12  14  -2 8828.90 1550.16  10
 -12  14  -2 11046.2 1779.60   6
 -14  12  -2 12603.4 1955.66   9
 -12  14  -2 14089.0 2093.21   9
   2  12  -2 13004.3 1989.35   5
  12   2  -2 12739.0 2293.74   5
  12   2  -2 10497.1 1778.35   7
  14  -2  -2 10377.2 2100.65   5
 -12  -2  -2 9734.28 1600.05  11
 -14   2  -2 10688.1 1949.38  11
 -12  -2  -1 4121.36 1337.36  11
 -14   2  -1 6026.22 1651.57  11
 -14  12  -1 6501.55 1712.00   6
 -12  14  -1 4923.40 1405.12   6
 -12  14  -1 3531.59 1108.82  10
 -14  12  -1 4746.29 1427.04   9
 -12  14  -1 5463.34 1523.25   9
   2  12  -1 4631.36 1421.28   5
  12   2  -1 5147.08 1896.87   5
  14  -2  -1 3874.69 1202.86   7
  12   2  -1 4473.12 1488.90   7
 -12  -2   0 961.710 1064.46  11
 -14   2   0 1830.04 1379.32  11
 -14  12   0 802.462 1107.71   6
 -12  14   0 866.888 934.200   6
 -12  14   0 1173.65 844.507  10
 -14  12   0 1077.42 1057.61   9
 -12  14   0 2734.76 1205.97   9
  14  -2   0-471.916 1084.44   7
  12   2   0 1223.67 1397.05   5
  12   2   0 4205.60 1728.22   7
 -12  -2   1 3574.33 1296.24  11
 -14   2   1 4396.89 1543.44  11
 -12  14   1 4832.62 1209.39  10
 -14  12   1 5034.74 1572.18   9
 -12  14   1 5242.33 1368.85   9
  14  -2   1 3303.79 1517.02   7
  12   2   1 4931.01 1853.36   7
  -2  14   2 11476.1 1415.85  10
 -12  14   2 10181.8 1522.85  10
 -14  12   2 13730.0 2115.25   9
 -12  14   2 13989.3 1971.73   9
  14  -2   2 9701.37 2042.62   7
  12   2   2 9622.09 1994.43   7
 -12  -2   2 14229.0 1997.71  11
 -14   2   2 11853.1 2022.81  11
 -12  -2   3 189.848 864.060  11
 -14   2   3-956.086 1219.69  11
  -2  14   3-865.984 797.044  10
 -12  14   3 384.725 851.069  10
 -14  12   3-553.703 1075.21   9
  12   2   3-992.621 1272.41   7
  14  -2   3-875.605 1192.87   7
  -2  14   4 15538.1 1446.94  10
 -12  14   4 12908.6 1516.79  10
  -2 -12   4 20848.3 1695.87   8
 -12  -2   4 21183.9 1694.21   8
  12   2   4 11723.4 1785.65   7
  14  -2   4 12378.9 1743.40   7
 -12  -2   4 17823.0 1540.23  11
 -14   2   4 14652.0 1715.33  11
 -14   2   5 554.521 542.554  11
 -12  14   5 136.661 409.542  10
 -12  -2   5 1496.60 576.948   8
  12   2   5-227.138 668.378   7
  14  -2   5-393.641 616.198   7
 -13  -1  -5-156.188 721.683  11
 -14   1  -5 776.811 746.675  11
 -14  13  -5 3967.04 977.271   6
 -13  14  -5 2575.57 810.750   6
 -13  14  -5 916.584 442.147  10
 -14  13  -4 12933.7 1859.96   6
 -13  14  -4 12856.1 1762.53   6
 -14   1  -4 8106.21 1648.12  11
 -13  -1  -4 7048.35 1596.12  11
 -14  13  -4 11281.1 1509.32   9
 -13  14  -4 12379.1 1631.17   9
 -13  -1  -3 673.608 942.164  11
 -14   1  -3-18.7186 1094.18  11
 -14  13  -3 4133.84 1518.13   6
 -13  14  -3 1394.63 1202.16   6
 -13  14  -3 644.935 823.224  10
 -14  13  -3 1416.70 1091.31   9
 -13  14  -3 738.629 990.571   9
  13   1  -3 2194.01 1218.43   5
  14  -1  -3 2325.99 1212.83   5
 -14  13  -2 11611.8 2061.48   6
 -13  14  -2 13522.5 2133.52   6
 -13  -1  -2 8402.33 1571.38  11
 -14   1  -2 8345.71 1691.79  11
 -13  14  -2 8399.70 1461.11  10
 -14  13  -2 10650.4 1822.60   9
 -13  14  -2 10444.8 1879.93   9
  13   1  -2 10960.2 2150.94   5
  14  -1  -2 8941.86 2012.75   5
  13   1  -2 9838.18 1838.12   7
 -13  -1  -1 1561.51 1228.33  11
 -14   1  -1-56.1577 1172.35  11
 -14  13  -1 2212.51 1252.51   6
 -13  14  -1 2020.12 1288.69   6
 -13  14  -1 1447.24 818.831  10
 -14  13  -1 1446.59 1238.31   9
 -13  14  -1 1834.05 1241.92   9
  14  -1  -1 1214.27 961.995   7
  13   1  -1-1883.85 1830.58   5
  13   1  -1 1158.77 1208.66   7
  14  -1  -1-670.342 1717.59   5
 -13  -1   0 1591.01 1290.57  11
 -14   1   0 1293.84 1276.68  11
 -14  13   0 18.7191 1109.64   6
 -13  14   0 829.478 965.198   6
 -13  14   0 1624.26 857.423  10
 -14  13   0 2111.67 1240.36   9
 -13  14   0 967.381 1075.91   9
  14  -1   0 1128.33 1189.79   7
  13   1   0 291.420 1494.42   7
  13   1   0 954.846 1405.27   5
 -13  -1   1 121.553 1177.78  11
 -14   1   1-316.360 1280.02  11
 -13  14   1 607.739 842.532  10
 -14  13   1 778.849 1099.80   9
 -13  14   1 609.526 1038.45   9
  14  -1   1 1793.95 1424.91   7
  13   1   1 2220.57 1612.71   7
 -14   1   2 10525.9 1886.46  11
 -13  14   2 8411.78 1283.50  10
 -14  13   2 11414.3 1897.85   9
 -13  14   2 12857.1 1926.97   9
  14  -1   2 6365.92 1682.80   7
  13   1   2 6051.25 1721.26   7
 -13  -1   2 10435.9 1882.71  11
 -13  -1   3 713.879 982.687  11
 -13  14   3 887.039 689.867  10
 -14  13   3 1249.18 1095.73   9
 -13  14   3 1160.03 897.275   9
  14  -1   3 368.523 1090.72   7
  13   1   3 433.338 1169.35   7
 -14   1   3 418.802 1020.85  11
 -13  14   4 8020.81 1058.76  10
  14  -1   4 9453.14 1476.07   7
  13   1   4 8345.88 1425.92   7
 -13  -1   4 13363.4 1348.20  11
 -14   1   4 12561.4 1455.62  11
 -14   1   5 2127.32 601.151  11
  14  -1   5 951.923 530.196   7
  13   1   5 1015.87 591.273   7
 -14   0  -5 280.136 613.079  11
 -14  14  -5 1189.32 608.365   6
 -14   0  -4 7327.27 1575.26  11
 -14  14  -4 4714.22 864.815  10
 -14  14  -4 7729.31 1237.89   9
 -14   0  -3 8348.85 1648.69  11
 -14  14  -3 6371.36 1171.36  10
 -14  14  -3 8034.08 1491.53   9
  14   0  -3 8811.88 1529.20   5
 -14   0  -2 6556.63 1541.54  11
 -14  14  -2 9568.82 1838.06   6
 -14  14  -2 6391.71 1155.60  10
 -14  14  -2 7282.62 1630.72   9
  14   0  -2 8564.59 1960.41   5
 -14   0  -1 2081.40 1287.59  11
 -14  14  -1 2968.84 1294.12   6
 -14  14  -1 1091.42 686.626  10
 -14  14  -1 1290.89 1171.65   9
  14   0  -1 1720.23 1165.89   7
  14   0  -1 879.912 1579.14   5
 -14   0   0 6760.21 1660.18  11
 -14  14   0 5473.07 1390.18   6
 -14  14   0 6705.58 1091.97  10
 -14  14   0 7120.37 1555.89   9
  14   0   0 6759.50 1734.21   7
  14   0   0 7065.84 1781.07   5
 -14   0   1 2466.91 1337.28  11
 -14  14   1 2189.83 841.380  10
 -14  14   1 1437.54 1050.26   9
  14   0   1 2433.79 1595.95   7
 -14   0   2 7530.18 1640.06  11
 -14  14   2 7523.25 1566.66   9
  14   0   2 6983.79 1711.27   7
 -14  14   3 7271.37 1384.50   9
  14   0   3 7279.61 1573.22   7
 -14   0   3 9666.27 1488.52  11
  14   0   4 6763.45 1211.80   7
 -14   0   4 9910.92 1163.63  11
 -15   7  -5 1153.21 724.797  11
  -8  15  -5-635.176 545.454   6
  -8  15  -4 7469.84 1242.09   6
 -15   7  -4 8282.24 1436.61  11
 -15   8  -4 9507.29 1588.44   6
   7   8  -4 9776.82 1597.18   5
   8   7  -4 8261.67 1503.66   5
 -15   8  -4 8862.13 1426.61  11
 -15   8  -3 2119.06 1168.39  11
 -15   7  -3-89.7963 979.561  11
 -15   7  -3 1217.17 1008.07   6
 -15   8  -3 194.295 931.625   6
   7   8  -3 1245.04 1404.72   5
   8   7  -3-1112.40 1425.21   5
 -15   8  -2 6101.22 1493.30  11
 -15   7  -2 7617.16 1589.29  11
 -15   7  -2 6494.99 1505.38   6
 -15   8  -2 5897.22 1492.72   6
  -7  15  -2 6123.77 1531.74  10
   7   8  -2 6657.15 1890.02   5
   7   8  -2 6837.91 1590.48   7
   8   7  -2 5208.29 1844.19   5
   8   7  -2 6820.77 1657.41   7
 -15   8  -1 5934.04 1413.99  11
 -15   7  -1 5141.08 1340.87  11
 -15   7  -1 3219.56 1193.60   6
 -15   8  -1 4107.80 1365.04   6
  -7  15  -1 4836.97 1361.78  10
  -8  15  -1 3548.92 1213.89  10
 -15   7  -1 4899.71 1357.14   9
 -15   8  -1 6215.02 1477.20   9
   7   8  -1 5314.67 1652.66   5
   8   7  -1 5276.81 1741.54   5
   7   8  -1 4928.04 1402.20   7
   8   7  -1 6515.85 1598.97   7
 -15   8   0 38478.8 3338.46   6
  -7  15   0 37367.0 2868.74  10
  -8  15   0 40183.2 2944.11  10
 -15   7   0 44069.1 3243.00   9
 -15   8   0 43829.5 3366.13   9
  -8  15   0 44412.6 2839.25   9
   7   8   0 39390.1 3202.08   5
   8   7   0 41258.1 3331.39   5
   7   8   0 44491.3 3362.82   7
   8   7   0 41872.2 3429.06   7
 -15   8   0 34815.4 2723.88  11
 -15   7   0 38305.5 2902.22  11
 -15   8   1 4931.81 1361.76  11
 -15   7   1 4115.43 1314.28  11
  -7  15   1 5529.71 1431.30  10
  -8  15   1 5150.00 1362.99  10
 -15   7   1 4373.41 1371.06   9
 -15   8   1 5398.04 1583.53   9
   8   7   1 4455.72 1458.26   5
   7   8   1 5572.66 1602.10   7
   8   7   1 7256.60 1852.51   7
 -15   8   2 5804.93 1443.53  11
 -15   7   2 7818.97 1777.21  11
  -7  15   2 7022.25 1503.16  10
  -8  15   2 7094.64 1656.87  10
 -15   7   2 5060.28 1575.61   9
 -15   8   2 7619.39 1880.93   9
   7   8   2 5904.73 1554.04   7
   8   7   2 5177.52 1501.45   7
 -15   8   3 570.649 1012.91  11
 -15   7   3-89.3312 1155.23  11
  -7  15   3 1346.26 1208.76  10
  -8  15   3-20.0470 1083.51  10
 -15   8   3-2090.75 1850.73   9
   7   8   3-395.150 1048.34   7
   8   7   3-694.826 1093.26   7
  -7  15   4 8660.61 1454.10  10
  -8  15   4 8988.56 1537.06  10
  -7  -8   4 5923.34 1458.25   8
  -8  -7   4 4602.14 1340.14   8
   7   8   4 6904.38 1370.65   7
   8   7   4 7601.92 1495.71   7
 -15   8   4 10921.8 1510.01  11
 -15   7   4 11243.9 1536.99  11
 -15   8   5 274.258 560.600  11
 -15   7   5-196.880 591.078  11
  -7  15   5 1503.91 716.861  10
  -8  15   5 2169.13 867.164  10
  -7  -8   5 988.371 790.129   8
  -8  -7   5 1548.49 824.346   8
   8   7   5-819.871 665.971   7
 -15   6  -5 504.169 724.756  11
  -9  15  -5 698.243 562.459   6
 -15   6  -4 3526.31 1189.24  11
 -15   9  -4 5075.00 1331.76   6
  -9  15  -4 5465.39 1179.81   6
   6   9  -4 5667.15 1372.80   5
   9   6  -4 4747.95 1210.15   5
 -15   6  -3 5180.44 1378.94  11
 -15   9  -3 5382.66 1513.10   6
  -9  15  -3 4522.70 1157.69   6
   6   9  -3 4439.08 1586.83   5
   9   6  -3 4269.44 1523.83   5
 -15   9  -2 8445.74 1552.53  11
 -15   6  -2 9294.58 1776.61  11
 -15   6  -2 5240.31 1321.69   6
 -15   9  -2 9053.35 1799.54   6
  -6  15  -2 9467.57 1610.33  10
 -15   9  -2 7195.07 1581.10   9
   6   9  -2 8024.80 1843.27   5
   9   6  -2 9593.73 1859.03   7
   9   6  -2 8536.56 2021.13   5
 -15   6  -1-482.418 927.055   6
 -15   9  -1-24.2109 878.493  11
 -15   6  -1 1.14660 1033.67  11
 -15   9  -1 826.228 1199.57   6
  -6  15  -1 565.798 895.373  10
  -9  15  -1 696.197 954.207  10
 -15   9  -1-875.375 928.956   9
   6   9  -1-340.651 1183.36   5
   9   6  -1 778.079 1550.76   5
   6   9  -1 499.334 1125.90   7
   9   6  -1 563.447 1217.22   7
 -15   9   0 20559.0 2510.49   6
  -6  15   0 23998.0 2170.92  10
  -9  15   0 22725.5 2267.50  10
 -15   6   0 24398.9 2424.78   9
 -15   9   0 27390.3 2715.64   9
  -9  15   0 25226.7 2225.66   9
   6   9   0 23306.9 2466.26   5
   9   6   0 23583.3 2670.33   5
   6   9   0 27443.1 2590.54   7
   9   6   0 25426.5 2830.81   7
 -15   9   0 21283.3 2068.43  11
 -15   6   0 21684.4 2385.35  11
 -15   9   1-488.109 859.044  11
 -15   6   1-590.772 1132.51  11
  -6  15   1 300.593 1063.18  10
  -9  15   1-395.438 1100.39  10
 -15   6   1-537.554 922.764   9
 -15   9   1 707.301 1285.60   9
   9   6   1-157.795 1144.62   5
   6   9   1-75.1793 997.879   7
   9   6   1 697.475 1308.74   7
 -15   9   2 5857.00 1289.16  11
 -15   6   2 9360.37 1816.43  11
  -6  15   2 7704.91 1486.88  10
  -9  15   2 7505.36 1618.75  10
 -15   6   2 6714.05 1633.26   9
 -15   9   2 7015.01 1779.91   9
   6   9   2 7327.16 1521.76   7
   9   6   2 7903.45 1716.07   7
 -15   9   3 3784.80 1124.40  11
 -15   6   3 5432.71 1527.74  11
  -6  15   3 6175.33 1385.66  10
  -9  15   3 6497.93 1568.02  10
 -15   9   3 1759.27 1339.29   9
   6   9   3 4793.84 1265.61   7
   9   6   3 2154.14 1152.32   7
 -15   9   4 5415.23 1031.34  11
 -15   6   4 7767.18 1417.55  11
  -6  15   4 5081.95 1176.46  10
  -9  15   4 4320.80 1213.66  10
  -6  -9   4 1781.46 1194.82   8
  -9  -6   4 1372.71 1173.80   8
   9   6   4 4406.75 1296.01   7
 -15   6   5 1156.30 665.281  11
  -6  15   5 2010.58 758.173  10
  -9  15   5 2878.32 874.895  10
  -6  -9   5 3084.10 885.303   8
  -9  -6   5 2620.08 849.663   8
   9   6   5 186.201 641.822   7
 -15   9   5 1363.05 578.141  11
 -15   5  -5 3163.55 909.161  11
 -15  10  -5 4141.73 960.187   6
 -10  15  -5 2905.63 772.836   6
  -5  15  -5 1526.07 540.397  10
 -15   5  -4 5611.53 1318.19  11
 -15  10  -4 7590.41 1501.32   6
 -10  15  -4 6684.87 1275.06   6
   5  10  -4 9099.62 1513.88   5
  10   5  -4 7742.47 1372.64   5
 -15   5  -3 905.777 1115.75  11
 -15  10  -3 2594.82 1218.84   6
 -10  15  -3 1924.82 1032.06   6
  -5  15  -3 1340.08 1072.29  10
   5  10  -3 2624.77 1445.38   5
  10   5  -3 2236.30 1359.78   5
 -15  10  -2 19426.4 2484.91   6
 -10  15  -2 16786.7 1927.67   6
  -5  15  -2 19388.7 2160.80  10
 -10  15  -2 18762.8 2130.16  10
 -15  10  -2 16966.5 2156.92   9
   5  10  -2 14877.3 2195.93   5
  10   5  -2 19824.4 2691.21   5
  15  -5  -2 17356.2 2237.20   5
  10   5  -2 16346.9 2323.41   7
 -15   5  -2 19393.0 2240.30  11
 -15   5  -1 3948.59 1440.91  11
 -15  10  -1 3711.51 1436.15   6
  -5  15  -1 3907.84 1256.90  10
 -10  15  -1 3189.04 1194.28  10
 -15  10  -1 4907.89 1473.05   9
 -10  15  -1 4492.68 1341.58   9
   5  10  -1 2199.48 1313.78   5
  10   5  -1 4647.82 1824.98   5
   5  10  -1 5225.21 1353.99   7
  10   5  -1 4302.03 1618.37   7
 -15   5   0 2462.97 1226.48  11
 -15  10   0 1639.16 1161.77   6
  -5  15   0 3119.20 1104.57  10
 -10  15   0 3398.59 1243.61  10
 -15   5   0 2677.37 1042.57   9
 -15  10   0 3897.09 1353.58   9
 -10  15   0 3586.83 1152.98   9
   5  10   0 2227.65 1193.10   5
  10   5   0 3273.29 1439.80   5
   5  10   0 4341.79 1267.57   7
  10   5   0 2422.31 1415.24   7
 -15   5   1 2258.05 1177.78  11
  -5  15   1 3319.94 1125.22  10
 -10  15   1 4592.20 1327.34  10
 -15   5   1 1375.91 941.135   9
 -15  10   1 4019.32 1517.78   9
 -10  15   1 3775.74 1118.58   9
  10   5   1 2439.80 1299.50   5
   5  10   1 4276.02 1235.16   7
  10   5   1 5812.39 1818.11   7
  -5  15   2 17668.4 1906.59  10
 -10  15   2 18312.1 2183.98  10
 -15  10   2 19198.7 2526.09   9
  10   5   2 18986.9 2190.05   5
  10   5   2 13217.6 2079.72   7
 -15  10   2 18132.9 1799.72  11
 -15   5   2 19051.9 2349.93  11
 -15  10   3 1657.33 809.268  11
 -15   5   3 659.287 1173.90  11
  -5  15   3 1504.72 1024.49  10
 -10  15   3 1910.37 1257.87  10
 -15  10   3-1137.55 1510.24   9
  10   5   3 705.041 1037.92   7
  -5  15   4 8735.52 1353.89  10
 -10  15   4 7166.78 1340.70  10
  -5 -10   4 5984.21 1320.47   8
  10   5   4 6672.14 1455.62   7
 -15  10   4 8991.38 1106.93  11
 -15   5   4 9544.72 1471.91  11
 -15   5   5 3447.06 751.835  11
  -5  15   5 2784.55 690.564  10
 -10  15   5 3678.89 850.772  10
  -5 -10   5 5393.51 925.621   8
 -10  -5   5 4593.75 881.657   8
  10   5   5 1974.20 774.206   7
 -15   4  -5 1043.92 748.303  11
 -15  11  -5 1273.49 733.475   6
 -11  15  -5 564.934 530.337   6
 -11  15  -5 829.110 555.680   9
 -15  11  -4 8435.05 1550.19   6
 -11  -4  -4 2966.03 877.057  11
 -15   4  -4 5977.91 1327.26  11
 -11  15  -4 7498.32 1335.84   6
  -4  15  -4 4710.28 889.957  10
  11   4  -4 6883.83 1265.43   5
 -11  -4  -3 273.301 717.399  11
 -15   4  -3-654.299 1203.91  11
 -15  11  -3 951.820 1151.19   6
 -11  15  -3 1041.85 1031.35   6
  -4  15  -3 358.947 793.636  10
 -15  11  -3-40.2641 770.935   9
   4  11  -3 334.710 1180.55   5
  11   4  -3 67.2203 1139.46   5
 -15  11  -2 23502.6 2609.50   6
 -11  15  -2 21831.0 2264.78   6
  -4  15  -2 21790.3 2106.27  10
 -11  15  -2 19438.6 1975.72  10
 -15  11  -2 19435.5 2219.54   9
   4  11  -2 19203.9 2356.53   5
  11   4  -2 24713.7 2927.07   5
  15  -4  -2 20930.2 2504.84   5
  11   4  -2 20992.5 2499.13   7
 -11  -4  -2 15069.1 1638.89  11
 -15   4  -2 20995.8 2382.70  11
 -11  -4  -1 5088.89 1182.18  11
 -15   4  -1 6308.34 1680.66  11
 -15  11  -1 5163.02 1529.43   6
 -11  15  -1 7223.04 1420.02   6
  -4  15  -1 6595.18 1271.75  10
 -11  15  -1 5457.63 1243.31  10
 -15  11  -1 4157.70 1337.48   9
 -11  15  -1 5922.24 1494.37   9
   4  11  -1 4336.51 1392.54   5
  11   4  -1 5351.94 1809.68   5
  11   4  -1 6303.41 1748.46   7
 -15   4   0 1582.13 1214.38  11
 -15  11   0 577.026 1136.77   6
  -4  15   0 1979.53 926.407  10
 -11  15   0 1983.64 1016.81  10
 -15  11   0 2927.55 1372.17   9
 -11  15   0 2314.41 1076.91   9
  11   4   0 1156.72 1293.10   5
  11   4   0 1263.61 1459.82   7
 -15   4   1 3678.55 1432.06  11
  -4  15   1 4897.52 1103.73  10
 -11  15   1 4315.33 1271.27  10
 -15  11   1 6475.01 1679.63   9
 -11  15   1 4740.49 1225.04   9
  11   4   1 3271.26 1371.93   5
  11   4   1 4872.64 1838.48   7
  -4  15   2 20868.7 1969.14  10
 -11  15   2 20893.8 2139.60  10
 -15  11   2 22805.9 2638.29   9
  11   4   2 19537.6 2368.71   5
  11   4   2 16839.1 2276.25   7
 -15   4   2 22144.0 2507.27  11
 -15   4   3-730.431 1272.54  11
  -4  15   3-936.500 908.457  10
 -11  15   3 1174.67 1076.95  10
 -15  11   3-1034.23 1342.47   9
  15  -4   3 662.728 971.840   7
  11   4   3-137.880 1182.47   7
  -4  15   4 8304.24 1216.08  10
 -11  15   4 8174.10 1358.81  10
  -4 -11   4 8762.66 1328.04   8
 -11  -4   4 8002.72 1317.89   8
  15  -4   4 5838.36 1160.55   7
  11   4   4 6291.52 1388.72   7
 -15   4   4 9414.48 1397.42  11
 -15   4   5 490.243 538.815  11
  -4  15   5 297.732 387.409  10
 -11  15   5 393.328 505.157  10
  -4 -11   5 1858.70 606.990   8
 -11  -4   5 1460.95 620.433   8
  11   4   5 272.595 608.741   7
 -15   3  -5 335.258 693.740  11
 -15  12  -5 647.217 657.664   6
 -12  15  -5 1125.84 591.928   6
 -12  15  -5-45.2568 406.763  10
 -12  15  -5-96.9835 402.648   9
 -12  -3  -4 1644.37 976.212  11
 -15   3  -4 2553.37 1101.52  11
 -15  12  -4 3744.38 1203.57   6
 -12  15  -4 3010.08 981.473   6
 -12  15  -4 4263.92 1129.62   9
  12   3  -4 2506.90 949.892   5
 -12  -3  -3 436.233 834.535  11
 -15   3  -3-85.8448 1158.79  11
 -15  12  -3 1834.27 1252.00   6
 -12  15  -3 143.119 917.633   6
 -12  15  -3 173.125 892.833  10
 -15  12  -3 679.406 895.010   9
 -12  15  -3 1276.59 1176.16   9
  12   3  -3 360.589 1105.63   5
 -15  12  -2 21972.8 2524.51   6
 -12  15  -2 21273.7 2221.78   6
 -12  15  -2 19515.1 2011.57  10
 -15  12  -2 20072.6 2248.69   9
 -12  15  -2 19416.1 2379.13   9
   3  12  -2 18848.3 2129.66   5
  12   3  -2 22028.6 2775.81   5
  15  -3  -2 18348.6 2487.45   5
  12   3  -2 22867.2 2571.93   7
 -12  -3  -2 15713.4 1725.66  11
 -15   3  -2 20563.0 2343.77  11
 -12  -3  -1 7207.03 1401.83  11
 -15   3  -1 7583.69 1729.55  11
 -15  12  -1 6696.83 1620.05   6
 -12  15  -1 6209.28 1414.93   6
  -3  15  -1 7808.18 1297.62  10
 -12  15  -1 6617.27 1324.59  10
 -15  12  -1 8385.99 1695.34   9
 -12  15  -1 7450.58 1547.28   9
   3  12  -1 7063.43 1540.49   5
  12   3  -1 7196.60 1896.58   5
  12   3  -1 8324.51 1889.33   7
 -12  15   0 11969.0 1671.51   6
 -15  12   0 11986.1 1926.30   6
  -3  15   0 15635.6 1612.25  10
 -12  15   0 13666.5 1685.80  10
 -15  12   0 17182.3 2248.50   9
 -12  15   0 15515.8 1984.89   9
  12   3   0 18309.3 2602.86   7
  12   3   0 12204.5 2092.58   5
 -12  -3   0 14566.4 1839.77  11
 -15   3   0 13987.7 2004.48  11
 -12  -3   1 7939.08 1482.97  11
 -15   3   1 6126.31 1561.43  11
  -3  15   1 6914.10 1209.30  10
 -12  15   1 7269.06 1385.50  10
 -15  12   1 8639.68 1777.91   9
 -12  15   1 7159.57 1411.06   9
  12   3   1 4800.36 1510.16   5
  15  -3   1 6987.77 1511.87   7
  12   3   1 8015.61 2001.54   7
  -3  15   2 20974.1 1825.97  10
 -12  15   2 18896.7 1929.40  10
 -15  12   2 20205.6 2370.33   9
 -12  15   2 23707.2 2275.02   9
  12   3   2 20410.2 2424.33   5
  15  -3   2 16736.6 2182.95   7
  12   3   2 16693.1 2269.04   7
 -12  -3   2 16586.6 1832.52  11
 -15   3   2 19432.3 2283.63  11
 -15   3   3 348.636 1024.24  11
  -3  15   3 146.321 725.105  10
 -12  15   3 421.637 826.620  10
 -15  12   3-1298.32 1151.09   9
  15  -3   3-365.680 981.087   7
  12   3   3-361.499 1062.70   7
 -15   3   4 3781.36 1026.94  11
  -3  15   4 3497.46 787.044  10
 -12  15   4 2590.20 804.845  10
  -3 -12   4 6562.61 1033.20   8
 -12  -3   4 4962.68 1013.98   8
  15  -3   4 3302.86 973.017   7
  12   3   4 2477.75 1014.52   7
 -15   3   5 215.683 425.422  11
  12   3   5-549.528 544.021   7
 -15   2  -5 1093.08 668.835  11
 -13  -2  -4 3007.27 1140.16  11
 -15   2  -4 2957.19 1189.43  11
 -15  13  -4 5339.97 1261.53   6
 -13  15  -4 6561.05 1241.12   6
 -13  15  -4 2974.12 823.793  10
 -15  13  -4 4320.00 888.291   9
 -13  15  -4 4497.10 1054.42   9
  13   2  -4 3012.58 822.608   5
 -13  -2  -3 822.377 937.625  11
 -15   2  -3-228.636 1021.47  11
 -15  13  -3 2009.10 1244.17   6
 -13  15  -3 3502.91 1304.14   6
 -13  15  -3 579.229 764.972  10
 -15  13  -3 41.1550 796.363   9
 -13  15  -3 1240.47 996.155   9
  13   2  -3-508.748 1041.91   5
  15  -2  -3 1054.47 936.689   5
 -13  15  -2 9615.11 1667.66   6
 -13  -2  -2 6423.27 1352.70  11
 -15   2  -2 9020.06 1771.86  11
 -13  15  -2 7829.53 1402.74  10
 -15  13  -2 10478.3 1900.62   6
 -13  15  -2 11184.1 1880.15   9
 -15  13  -2 8360.10 1595.89   9
  13   2  -2 10759.8 1840.66   7
  13   2  -2 10861.0 2061.88   5
  15  -2  -2 8707.07 2001.40   5
 -13  -2  -1 629.175 985.502  11
 -15   2  -1 1307.37 1299.19  11
 -15  13  -1 277.284 1075.12   6
 -13  15  -1 1023.47 959.192   6
 -13  15  -1 332.815 771.524  10
 -15  13  -1 135.890 1031.75   9
 -13  15  -1 684.678 1098.66   9
   2  13  -1 1011.67 1002.47   5
  13   2  -1-372.948 1471.24   5
  13   2  -1 891.390 1274.21   7
  15  -2  -1 832.853 1649.37   5
 -15  13   0 31900.6 2783.60   6
 -13  15   0 31070.6 2563.36   6
 -13  15   0 36695.1 2428.35  10
 -15  13   0 44713.0 3210.80   9
 -13  15   0 37776.8 2827.81   9
  13   2   0 33344.4 2948.74   5
  15  -2   0 37332.6 2711.03   7
  13   2   0 47295.3 3695.59   7
 -13  -2   0 34495.0 2636.61  11
 -15   2   0 42397.5 3178.53  11
 -13  -2   1 493.317 981.592  11
 -15   2   1-81.2862 1236.89  11
 -13  15   1 644.216 711.204  10
 -15  13   1 1189.64 1162.04   9
 -13  15   1 730.054 851.275   9
  13   2   1 87.2051 1318.75   5
  15  -2   1 1631.30 1114.50   7
  13   2   1 2208.53 1686.77   7
 -13  -2   2 7039.57 1333.58  11
 -13  15   2 8005.28 1267.64  10
 -13  15   2 8184.73 1521.94   9
 -15  13   2 9019.35 1611.25   9
  13   2   2 7794.23 1689.85   5
  15  -2   2 7557.04 1643.61   7
  13   2   2 8437.05 1767.56   7
 -15   2   2 10376.7 1845.26  11
 -13  -2   3 503.353 771.593  11
 -15   2   3-145.713 980.914  11
 -13  15   3 332.444 677.984  10
 -15  13   3-625.783 1006.91   9
  -2 -13   3-1391.30 973.958   8
 -13  -2   3-2071.96 1020.04   8
  15  -2   3-164.467 922.635   7
  13   2   3 130.661 970.216   7
 -13  15   4 3685.95 751.678  10
  15  -2   4 3362.17 934.690   7
  13   2   4 3230.64 986.198   7
 -15   2   4 5880.95 1085.54  11
 -14  -1  -4 3836.44 1235.56  11
 -15   1  -4 4417.82 1228.18  11
 -15  14  -4 4307.55 1034.97   6
 -14  15  -4 4424.02 1003.13   6
 -14  15  -4 2572.24 623.830  10
 -15  14  -4 3043.39 725.484   9
 -14  15  -4 3601.82 869.553   9
 -14  -1  -3 735.039 1025.34  11
 -15   1  -3 1149.07 1105.30  11
 -15  14  -3 1094.48 1100.62   6
 -14  15  -3 1383.92 1004.34   6
 -14  15  -3-139.966 596.562  10
 -15  14  -3-497.690 832.347   9
 -14  15  -3 636.304 860.811   9
  14   1  -3 1642.63 1068.07   5
  15  -1  -3 1357.86 920.186   5
 -15  14  -2 13013.9 1974.57   6
 -14  15  -2 12493.8 1812.41   6
 -14  15  -2 10151.9 1331.49  10
 -15  14  -2 11839.4 1785.37   9
 -14  15  -2 12093.5 1858.25   9
  14   1  -2 12954.5 2157.55   5
  15  -1  -2 13420.0 2146.41   5
 -14  -1  -2 12054.0 1682.38  11
 -15   1  -2 12347.5 1781.24  11
 -14  -1  -1 1544.59 1036.79  11
 -15   1  -1 1573.76 1224.70  11
 -15  14  -1 1880.05 1138.46   6
 -14  15  -1 910.073 926.055   6
 -14  15  -1 1250.35 746.546  10
 -15  14  -1 2230.54 1220.90   9
 -14  15  -1 2248.44 1230.43   9
  14   1  -1 498.545 1366.96   5
  15  -1  -1 1258.76 898.468   7
  14   1  -1 2041.88 1233.09   7
  15  -1  -1-810.348 1611.32   5
 -14  -1   0 4792.68 1211.63  11
 -15   1   0 6101.92 1493.64  11
 -15  14   0 4693.34 1278.68   6
 -14  15   0 5571.96 1287.42   6
 -14  15   0 5971.48 1053.78  10
 -15  14   0 6639.45 1532.06   9
 -14  15   0 6522.25 1404.84   9
  14   1   0 4372.47 1493.57   5
  15  -1   0 7323.81 1400.88   7
  14   1   0 7784.19 1636.02   7
  15  -1   0 5734.94 1703.97   5
 -14  -1   1 1711.33 1129.81  11
 -15   1   1 1471.97 1151.67  11
 -14  15   1 1926.14 769.848  10
 -15  14   1 2304.06 1103.73   9
 -14  15   1 1900.57 1000.23   9
  14   1   1 1307.70 1170.18   5
  15  -1   1-215.746 1007.02   7
  14   1   1 3907.84 1466.49   7
 -14  -1   2 9115.38 1466.23  11
 -15   1   2 9159.17 1568.56  11
 -14  15   2 9855.29 1206.10  10
 -15  14   2 11133.5 1621.56   9
 -14  15   2 12138.7 1667.04   9
  15  -1   2 11937.5 1859.03   7
  14   1   2 10186.1 1782.06   7
  14   1   2 11413.9 1843.91   5
 -14  -1   3 205.186 704.241  11
 -15   1   3-492.771 871.338  11
 -15  14   3-1274.92 982.313   9
  14   1   3-604.758 807.973   5
  15  -1   3-557.675 916.689   7
  14   1   3-459.307 927.509   7
 -15   1   4 3705.08 757.206  11
  15  -1   4 2530.20 780.110   7
  14   1   4 3284.90 891.574   7
 -15  15  -4 6367.76 1047.17   6
 -15   0  -4 6064.53 1181.21  11
 -15   0  -3 959.571 966.220  11
 -15  15  -3 1018.88 940.121   6
 -15  15  -3-272.220 757.645   9
  15   0  -3 729.956 845.712   5
 -15   0  -2 3964.19 1194.24  11
 -15  15  -2 3066.38 1162.19   6
 -15  15  -2 1960.11 1041.37   9
  15   0  -2 4402.11 1508.92   5
 -15   0  -1 10.3209 927.747  11
 -15  15  -1 379.212 908.994   6
 -15  15  -1 785.008 954.696   9
  15   0  -1-93.9303 1263.81   5
  15   0  -1 836.373 908.931   7
 -15   0   0 9319.73 1562.23  11
 -15  15   0 10638.1 1656.65   9
  15   0   0 10535.6 1660.04   7
  15   0   0 8351.58 1651.82   5
 -15   0   1 2164.07 1142.95  11
 -15  15   1 934.433 927.398   9
  15   0   1 1004.18 1020.06   7
  15   0   1 944.835 1133.43   5
 -15   0   2 146.359 921.791  11
 -15  15   2 2152.61 905.099   9
  15   0   2 3963.08 1397.18   5
  15   0   2 3663.66 1211.54   7
 -15   0   3-399.939 660.279  11
 -15  15   3-1742.79 819.713   9
  15   0   3 32.5247 714.969   5
  15   0   3 624.566 779.472   7
  15   0   4 3854.22 729.185   7
  -8  16  -5 706.113 465.638  10
  -8  16  -4 20480.7 1870.53  10
   8   8  -4 24401.7 2014.14   5
 -16   8  -4 24694.7 1944.59  11
 -16   8  -3 856.642 961.597  11
 -16   8  -3 1851.61 994.432   6
  -8  16  -3 11.5894 926.979  10
   8   8  -3-300.097 1186.62   5
 -16   8  -2 1456.45 1040.52  11
 -16   8  -2 207.519 1013.10   6
  -8  16  -2 1537.24 1075.00  10
   8   8  -2 559.411 1271.27   5
 -16   8  -1 3920.07 1412.51  11
 -16   8  -1 2718.11 1177.82   6
  -8  16  -1 3859.41 1217.02  10
 -16   8  -1 3161.28 1263.19   9
   8   8  -1 4878.75 1561.31   5
   8   8  -1 5521.88 1520.27   7
 -16   8   0 5509.74 1316.23  11
  -8  16   0 7257.14 1469.21  10
 -16   8   0 7557.10 1613.42   9
   8   8   0 6645.82 1541.60   5
   8   8   0 7180.63 1588.82   7
 -16   8   1 4012.52 1244.60  11
  -8  16   1 3620.33 1256.87  10
 -16   8   1 1321.97 1131.47   9
   8   8   1 1617.05 1161.13   7
 -16   8   2 249.279 1019.34  11
  -8  16   2 517.732 943.144  10
 -16   8   2-833.259 1349.03   9
   8   8   2 2063.60 1137.55   7
 -16   8   3-847.722 857.018  11
  -8  16   3 1489.71 1024.80  10
   8   8   3 593.870 924.655   7
  -8  16   4 28175.3 2102.71  10
  -8  -8   4 25384.1 2030.35   8
   8   8   4 23742.4 1965.56   7
 -16   8   4 26275.0 1727.47  11
  -8  16   5 705.957 457.979  10
  -8  -8   5 1538.65 649.673   8
  -9  16  -5 392.687 467.742  10
 -16   9  -4 8979.70 1362.61   6
  -7  16  -4 8906.83 1229.77  10
  -9  16  -4 9315.52 1351.35  10
   7   9  -4 11095.7 1445.56   5
   9   7  -4 10593.2 1434.55   5
 -16   7  -4 11370.4 1496.40  11
 -16   7  -3 7036.87 1426.54  11
 -16   9  -3 5017.29 1313.61   6
  -7  16  -3 7305.31 1448.19  10
  -9  16  -3 7222.27 1559.57  10
   7   9  -3 8165.37 1705.33   5
   9   7  -3 5476.54 1501.56   5
 -16   7  -2 10072.7 1664.37   6
 -16   9  -2 10669.1 1763.82   6
  -7  16  -2 12976.0 1826.54  10
  -9  16  -2 14650.9 1839.78  10
   7   9  -2 10711.6 1916.09   5
   9   7  -2 14616.4 2097.38   7
   9   7  -2 12198.0 2132.41   5
 -16   9  -2 14701.0 1786.27  11
 -16   7  -2 15728.3 1946.17  11
 -16   9  -1 8614.75 1675.47   6
  -7  16  -1 10932.6 1585.13  10
  -9  16  -1 10890.1 1711.77  10
 -16   9  -1 15281.1 2109.47   9
  -9  16  -1 10222.7 1558.39   9
   7   9  -1 8263.55 1771.96   5
   7   9  -1 13007.4 1897.04   7
   9   7  -1 11945.3 1940.36   7
   9   7  -1 9829.79 1978.77   5
 -16   9  -1 11538.4 1611.20  11
 -16   7  -1 11226.3 1758.28  11
 -16   9   0 501.325 888.343  11
 -16   7   0 1108.70 1063.81  11
  -7  16   0 1654.63 1080.62  10
  -9  16   0 2017.94 1074.76  10
 -16   7   0 1003.98 937.642   9
 -16   9   0 1634.47 1109.51   9
  -9  16   0 1325.50 878.887   9
   7   9   0 911.964 1068.31   5
   9   7   0 2845.11 1423.38   5
   7   9   0 2251.72 1159.95   7
   9   7   0 1512.11 1256.36   7
 -16   7   1 10570.5 1701.45  11
  -7  16   1 11179.0 1657.01  10
  -9  16   1 11928.3 1713.37  10
 -16   7   1 8398.83 1653.45   9
 -16   9   1 10729.1 1889.85   9
   9   7   1 11440.1 1853.13   5
   9   7   1 13013.5 1923.91   7
   7   9   1 11140.9 1696.71   7
 -16   9   1 11470.2 1608.28  11
 -16   7   2 12078.1 1712.98  11
  -7  16   2 14278.7 1779.21  10
  -9  16   2 14335.3 1875.87  10
 -16   7   2 8454.94 1579.95   9
 -16   9   2 11437.0 2047.00   9
   7   9   2 13806.7 1822.19   7
   9   7   2 9247.55 1698.15   7
 -16   9   2 11631.9 1559.55  11
 -16   9   3 6975.20 1150.60  11
 -16   7   3 6837.98 1317.96  11
  -7  16   3 7795.54 1396.67  10
  -9  16   3 8897.44 1528.95  10
   7   9   3 7164.75 1300.66   7
   9   7   3 5132.33 1304.20   7
  -7  16   4 11420.2 1417.29  10
  -9  16   4 12321.7 1483.99  10
  -7  -9   4 10035.7 1450.34   8
  -9  -7   4 8300.93 1417.40   8
   9   7   4 11382.9 1531.74   7
 -16   9   4 9817.98 1074.03  11
 -16   7   4 14362.2 1384.89  11
 -16   7   5 324.286 376.259  11
  -7  16   5-391.889 408.867  10
  -9  16   5 370.415 444.576  10
  -7  -9   5 1305.94 576.917   8
  -9  -7   5 1294.07 622.253   8
 -10  16  -5 623.791 441.214  10
 -10  16  -5 2024.50 571.644   9
 -16  10  -4 5290.36 1135.00   6
 -10  16  -4 5067.27 950.565   6
  -6  16  -4 4035.55 907.585  10
 -10  16  -4 6253.20 1171.37  10
  10   6  -4 6293.19 1161.76   5
 -16   6  -4 8079.41 1350.86  11
 -10  16  -3 9647.63 1443.57   6
 -16  10  -3 8837.73 1600.73   6
  -6  16  -3 8782.88 1456.37  10
 -10  16  -3 8021.81 1476.04  10
   6  10  -3 10084.8 1727.96   5
  10   6  -3 8061.14 1654.43   5
 -16   6  -3 11732.6 1699.78  11
 -16   6  -2 10709.2 1740.32  11
 -16  10  -2 7089.35 1587.75   6
  -6  16  -2 10066.6 1652.16  10
 -10  16  -2 8646.09 1550.94  10
 -16  10  -2 7156.32 1529.40   9
   6  10  -2 8361.11 1712.06   5
  10   6  -2 9526.46 1893.77   7
  10   6  -2 10617.1 2070.59   5
 -16  10  -1 10501.9 1861.73   6
  -6  16  -1 14030.8 1739.95  10
 -10  16  -1 12936.9 1686.65  10
 -16  10  -1 13848.6 1986.88   9
 -10  16  -1 14374.4 1758.16   9
  10   6  -1 15250.0 2221.19   5
   6  10  -1 10437.9 1771.58   5
   6  10  -1 15177.7 1872.40   7
  10   6  -1 16038.3 2255.15   7
 -16   6  -1 14385.7 1942.94  11
 -16   6   0 3498.78 1262.34  11
  -6  16   0 3922.12 1221.68  10
 -10  16   0 4035.26 1218.26  10
 -16   6   0 2008.54 975.966   9
 -16  10   0 4332.55 1426.67   9
 -10  16   0 3985.38 1105.10   9
   6  10   0 3315.40 1222.94   5
  10   6   0 4115.39 1496.16   5
   6  10   0 3604.23 1142.39   7
  10   6   0 3991.94 1534.00   7
 -16   6   1 11812.0 1779.05  11
  -6  16   1 11633.5 1565.27  10
 -10  16   1 12869.5 1747.63  10
 -16  10   1 14169.8 2137.84   9
 -16   6   1 9509.50 1517.50   9
  10   6   1 13204.1 1952.98   5
   6  10   1 12032.5 1640.22   7
  10   6   1 14420.9 2248.83   7
 -16  10   1 12173.7 1572.43  11
 -16  10   2 8148.94 1230.34  11
 -16   6   2 9424.69 1633.51  11
  -6  16   2 9168.04 1457.43  10
 -10  16   2 9577.17 1563.11  10
 -16  10   2 9203.84 1859.57   9
   6  10   2 8950.71 1400.48   7
  10   6   2 7648.94 1552.02   7
 -10  16   3 10694.2 1600.82  10
  -6  16   3 8628.22 1350.19  10
 -16  10   3 5233.98 1399.08   9
  10   6   3 6924.51 1446.99   7
 -16  10   3 10236.6 1204.27  11
 -16   6   3 9353.67 1488.16  11
  -6  16   4 8193.06 1189.25  10
 -10  16   4 7204.26 1221.24  10
  -6 -10   4 7057.53 1246.27   8
 -10  -6   4 6487.45 1198.09   8
  10   6   4 5048.70 1170.47   7
 -16  10   4 5789.90 791.570  11
 -16   6   4 9058.93 1172.77  11
 -16   6   5 1074.00 431.670  11
 -10  16   5 1197.02 485.625  10
 -16  11  -4 7423.04 1326.10   6
 -11  16  -4 7421.28 1121.62   6
  -5  16  -4 4571.34 781.465  10
 -11  16  -4 4957.23 1006.55  10
 -11  16  -4 7347.41 1220.45   9
  11   5  -4 6076.60 1105.05   5
 -16   5  -4 7850.09 1356.45  11
 -16   5  -3 3894.06 1250.07  11
 -16  11  -3 2226.40 1164.97   6
 -11  16  -3 4130.12 1069.08   6
  -5  16  -3 1971.12 815.757  10
 -11  16  -3 2092.81 1005.26  10
 -11  16  -3 2977.17 1195.96   9
   5  11  -3 2738.40 1192.29   5
  11   5  -3 2223.79 1218.70   5
 -11  16  -2 10946.8 1595.52   6
 -16  11  -2 8923.12 1685.90   6
  -5  16  -2 11685.2 1609.04  10
 -11  16  -2 9147.50 1566.32  10
 -16  11  -2 9213.48 1592.60   9
 -11  16  -2 12171.9 1833.11   9
   5  11  -2 11074.2 1821.78   5
  11   5  -2 9743.80 2018.92   7
  11   5  -2 9081.40 1912.73   5
  16  -5  -2 7994.28 1588.56   5
 -16   5  -2 12562.3 1818.50  11
 -16   5  -1 1661.13 1270.18  11
 -16  11  -1-425.409 1243.67   6
  -5  16  -1-454.896 846.552  10
 -11  16  -1 912.050 963.019  10
 -16  11  -1 628.481 1004.68   9
 -11  16  -1 751.005 939.695   9
   5  11  -1-142.936 1000.27   5
  11   5  -1 1583.33 1515.93   5
  11   5  -1 178.320 1277.03   7
 -16  11   0 10546.3 1825.54   6
 -16   5   0 11538.8 1803.27  11
  -5  16   0 15137.6 1670.73  10
 -11  16   0 13739.1 1697.72  10
 -16  11   0 15022.0 2049.03   9
 -11  16   0 13857.1 1738.74   9
  11   5   0 12169.8 2004.68   5
   5  11   0 18403.6 1847.64   7
  11   5   0 14743.0 2273.97   7
 -16   5   1 201.188 1047.27  11
  -5  16   1-268.344 764.139  10
 -11  16   1 925.081 1004.81  10
 -16  11   1-483.198 1155.92   9
 -11  16   1 392.416 832.561   9
  11   5   1-269.567 1074.55   5
  11   5   1 2458.90 1481.61   7
 -16   5   2 10992.4 1735.78  11
  -5  16   2 11288.8 1481.03  10
 -11  16   2 9552.44 1551.27  10
 -16  11   2 8122.94 1698.68   9
  11   5   2 7677.10 1563.04   7
 -16   5   3 2288.69 1067.28  11
  -5  16   3 1230.97 731.510  10
 -11  16   3 1995.41 1013.77  10
 -16  11   3-26.4073 1093.23   9
  11   5   3 2262.54 1076.46   7
  -5  16   4 7141.02 979.514  10
 -11  16   4 7162.78 1091.40  10
  -5 -11   4 9780.17 1182.60   8
 -11  -5   4 7722.61 1188.76   8
  11   5   4 6949.62 1245.83   7
 -16   5   4 9815.86 1185.56  11
 -16   4  -4 3228.36 1048.16  11
 -16  12  -4 2706.30 914.273   6
 -12  16  -4 3716.67 893.449   6
 -12  16  -4 1924.27 701.674  10
 -12  16  -4 3545.06 906.386   9
  12   4  -4 2312.68 800.817   5
 -12  -4  -3 2525.39 806.343  11
 -16   4  -3 1110.71 1056.45  11
 -16  12  -3 1508.78 1118.33   6
 -12  16  -3 1834.46 950.908   6
 -12  16  -3 222.151 776.767  10
 -16  12  -3 145.154 691.135   9
 -12  16  -3 188.358 866.593   9
  12   4  -3 394.959 1003.93   5
 -16  12  -2 21452.9 2347.20   6
 -12  16  -2 25092.5 2189.81   6
  -4  16  -2 24161.9 1933.29  10
 -12  16  -2 21243.5 2027.61  10
 -16  12  -2 20613.2 2091.77   9
 -12  16  -2 24260.1 2416.20   9
   4  12  -2 23327.6 2170.39   5
  12   4  -2 24149.0 2599.07   5
  16  -4  -2 21060.9 2339.73   5
 -12  -4  -2 16033.5 1520.73  11
 -16   4  -2 22746.9 2347.13  11
 -16   4  -1 734.693 1099.16  11
 -16  12  -1-1380.89 1270.60   6
 -12  16  -1 621.555 680.780   6
  -4  16  -1-175.264 763.181  10
 -12  16  -1 389.056 820.052  10
 -16  12  -1 1235.60 1062.11   9
 -12  16  -1 729.552 906.250   9
   4  12  -1 1077.66 1003.18   5
  12   4  -1 1208.18 1410.01   5
  12   4  -1 17.6759 1150.05   7
  16  -4  -1-948.721 1737.31   5
 -16  12   0 3142.18 1222.32   6
 -16   4   0 4741.98 1389.61  11
  -4  16   0 6179.30 1172.39  10
 -12  16   0 5077.64 1183.03  10
 -16  12   0 6600.90 1576.51   9
 -12  16   0 4449.02 1155.87   9
  12   4   0 4261.51 1500.22   5
  12   4   0 5375.15 1606.40   7
 -16   4   1 642.749 1139.68  11
  -4  16   1-0.75215 654.193  10
 -12  16   1-673.708 879.973  10
 -16  12   1 231.876 1060.06   9
 -12  16   1 289.311 715.326   9
  12   4   1-92.5434 1101.49   5
  12   4   1 535.215 1189.83   7
  -4  16   2 21930.9 1789.44  10
 -12  16   2 21466.1 1940.50  10
 -16  12   2 22566.0 2367.79   9
  12   4   2 23219.6 2234.20   5
  12   4   2 20037.1 2178.83   7
 -16   4   2 23116.9 2242.00  11
 -16   4   3-307.122 875.909  11
  -4  16   3-662.208 732.493  10
 -12  16   3-200.920 718.731  10
 -16  12   3-1813.54 1216.70   9
  -4 -12   3-2269.13 1198.22   8
 -12  -4   3-3164.60 1262.29   8
  12   4   3-332.971 877.805   7
 -16   4   4 4456.44 906.057  11
  -4  16   4 3070.73 621.601  10
 -12  16   4 2245.11 693.091  10
  -4 -12   4 4579.83 812.291   8
 -12  -4   4 3860.27 800.023   8
  12   4   4 3528.24 947.105   7
 -16   3  -4 1544.16 925.902  11
 -16  13  -4 2849.51 892.146   6
 -13  16  -4 2301.22 759.565   6
 -13  16  -4 956.779 520.873  10
 -13  16  -4 1513.96 669.903   9
 -13  -3  -3 2047.16 928.048  11
 -16   3  -3 1083.98 1058.48  11
 -16  13  -3 129.867 898.935   6
 -13  16  -3 860.183 792.293   6
 -13  16  -3-266.972 715.589  10
 -16  13  -3-446.671 702.232   9
 -13  16  -3-329.328 825.801   9
  13   3  -3-12.3614 904.617   5
 -16  13  -2 26491.4 2546.29   6
 -13  16  -2 25254.7 2221.31   6
 -13  16  -2 24267.9 1991.49  10
 -16  13  -2 19886.6 2062.05   9
 -13  16  -2 28124.1 2473.71   9
  13   3  -2 27973.9 2660.14   5
  16  -3  -2 24753.7 2521.38   5
 -13  -3  -2 19721.2 1777.91  11
 -16   3  -2 27477.0 2388.15  11
 -13  -3  -1 621.570 667.191  11
 -16   3  -1 445.288 1111.92  11
 -16  13  -1-93.1711 1200.91   6
 -13  16  -1 1729.62 885.775   6
 -13  16  -1 1639.18 878.125  10
 -16  13  -1 2587.18 1161.73   9
 -13  16  -1 2066.73 1130.48   9
  13   3  -1 2370.57 1438.52   5
  13   3  -1 2702.10 1378.74   7
  16  -3  -1 45.0804 1555.71   5
 -13  -3   0 8022.06 1239.58  11
 -16   3   0 9363.17 1655.08  11
 -13  16   0 10887.0 1376.32  10
 -16  13   0 11661.9 1835.00   9
 -13  16   0 9089.25 1472.77   9
  13   3   0 11924.7 2031.61   7
  13   3   0 8411.21 1638.75   5
 -13  -3   1 2213.22 865.548  11
 -16   3   1 1929.49 1278.93  11
 -13  16   1 1684.50 809.700  10
 -16  13   1 2545.26 1186.42   9
 -13  16   1 1783.82 902.874   9
  13   3   1 755.012 1086.43   5
  13   3   1 953.727 1164.58   7
 -13  16   2 22547.3 1811.14  10
 -16  13   2 23429.6 2259.92   9
 -13  16   2 27726.3 2049.66   9
  13   3   2 26805.9 2393.72   5
  13   3   2 20181.6 2240.29   7
 -16   3   2 21672.9 2119.33  11
 -16   3   3-373.254 830.469  11
 -13  16   3-478.674 687.718  10
 -16  13   3-1272.55 993.485   9
  -3 -13   3-1175.26 847.320   8
 -13  -3   3-2057.69 909.064   8
  13   3   3 133.395 823.948   7
 -16   3   4 755.693 553.490  11
 -13  16   4 1310.56 470.094  10
  13   3   4 2235.99 758.436   7
 -16   2  -4 1846.28 833.198  11
 -16  14  -4 62.5061 548.075   6
 -14  16  -4 1738.96 621.298   6
 -14  16  -4 615.221 477.365   9
 -14  -2  -3 3880.13 1101.79  11
 -16   2  -3 4230.79 1193.30  11
 -16  14  -3 668.017 865.293   6
 -14  16  -3 3251.56 976.338   6
 -14  16  -3 1251.69 652.041  10
 -16  14  -3 899.373 702.037   9
 -14  16  -3 1026.51 769.403   9
  14   2  -3 980.932 840.125   5
 -16  14  -2 13993.8 1944.61   6
 -14  16  -2 14871.7 1772.74   6
 -14  16  -2 14740.9 1515.63  10
 -16  14  -2 14622.9 1770.28   9
 -14  16  -2 18193.4 2029.74   9
  14   2  -2 14260.0 1903.71   5
  16  -2  -2 19538.7 2233.42   5
 -14  -2  -2 13412.1 1510.71  11
 -16   2  -2 17417.8 1969.19  11
 -14  -2  -1 2942.62 937.035  11
 -16   2  -1 4887.72 1331.70  11
 -16  14  -1 1443.74 1054.27   6
 -14  16  -1 2896.69 954.882   6
 -14  16  -1 3438.04 934.177  10
 -16  14  -1 4481.77 1255.09   9
 -14  16  -1 5059.55 1287.78   9
  14   2  -1 4606.57 1450.74   5
  14   2  -1 4878.92 1342.98   7
  16  -2  -1 3015.60 1492.48   5
 -14  16   0 20749.4 1673.85  10
 -16  14   0 24742.8 2389.80   9
 -14  16   0 22605.3 2108.20   9
  14   2   0 18097.7 2062.32   5
  16  -2   0 20791.2 2358.32   5
  14   2   0 25699.5 2431.17   7
 -14  -2   0 19390.0 1759.01  11
 -16   2   0 20748.3 2075.25  11
 -14  -2   1 6119.73 1157.78  11
 -16   2   1 4943.77 1415.53  11
 -14  16   1 3000.10 777.720  10
 -16  14   1 5890.88 1343.59   9
 -14  16   1 4299.01 1083.82   9
  14   2   1 4130.19 1318.91   5
  16  -2   1 5433.62 1174.21   7
  14   2   1 3944.22 1233.74   7
 -14  16   2 13333.4 1287.40  10
 -16  14   2 16030.3 1794.28   9
 -14  16   2 14932.9 1591.74   9
  14   2   2 14907.7 1822.89   5
  16  -2   2 13781.7 1602.38   7
  14   2   2 14416.0 1729.53   7
 -14  -2   2 14380.8 1403.83  11
 -16   2   2 12812.5 1651.20  11
 -16   2   3 453.805 685.204  11
 -14  16   3 1016.92 504.427  10
  16  -2   3 1216.28 707.840   7
  14   2   3 1400.46 871.428   7
 -16   2   4 683.125 417.919  11
  14   2   4 999.292 555.704   7
 -15  -1  -3 285.005 738.975  11
 -16   1  -3 2775.91 961.639  11
 -16  15  -3 2090.55 851.469   6
 -15  16  -3 2163.77 830.524   6
 -16  15  -3 1594.71 706.033   9
 -15  16  -3 1477.43 751.208   9
  15   1  -3 1383.42 754.959   5
 -15  -1  -2 2814.64 909.051  11
 -16   1  -2 2711.81 1016.25  11
 -16  15  -2 2898.14 1028.99   6
 -15  16  -2 3380.69 999.617   6
 -15  16  -2 3672.44 768.374  10
 -16  15  -2 4218.70 1074.96   9
 -15  16  -2 4817.59 1147.52   9
  15   1  -2 4275.10 1282.44   5
  16  -1  -2 4604.84 1342.79   5
 -15  -1  -1-538.487 781.701  11
 -16   1  -1 117.643 906.268  11
 -16  15  -1 48.9803 970.953   6
 -15  16  -1-867.550 813.725   6
 -15  16  -1 1099.01 603.623  10
 -16  15  -1 2230.31 1068.78   9
 -15  16  -1 1000.07 916.260   9
  15   1  -1 2849.97 1221.76   5
  16  -1  -1 1750.46 1236.09   5
  15   1  -1 1726.75 1033.47   7
 -15  16   0 19850.5 1456.94  10
 -16  15   0 23504.2 2169.30   9
 -15  16   0 23237.1 2115.64   9
  15   1   0 16951.4 1873.06   5
  16  -1   0 18271.3 2020.62   5
  16  -1   0 22646.2 1884.58   7
  15   1   0 24379.8 2192.11   7
 -15  -1   0 20181.0 1756.89  11
 -16   1   0 20331.9 1931.29  11
 -15  -1   1 2524.97 909.794  11
 -16   1   1 2543.42 1134.23  11
 -16  15   1 2289.71 995.292   9
 -15  16   1 1347.95 870.664   9
  15   1   1 455.716 922.556   5
  16  -1   1 1283.72 804.684   7
  15   1   1 1899.39 1005.97   7
  16  -1   1 1119.25 1021.34   5
 -15  -1   2 3053.99 766.143  11
 -16   1   2 4126.62 1004.72  11
 -16  15   2 2978.74 909.245   9
 -15  16   2 2912.82 803.413   9
  15   1   2 2520.07 984.069   5
  16  -1   2 2929.00 883.213   7
  16  -1   2 3268.51 1101.25   5
  15   1   2 3415.80 963.033   7
 -16   1   3 2430.52 671.281  11
  16  -1   3 1904.36 636.789   5
  16  -1   3 871.604 550.410   7
  15   1   3 2390.90 780.802   7
 -16   0  -3 2404.85 800.797  11
 -16  16  -3 2949.52 732.963   6
 -16  16  -3 4977.70 827.523   9
 -16   0  -2-32.4063 762.611  11
 -16  16  -2 194.480 670.630   6
 -16  16  -2 998.402 733.510   9
  16   0  -2 1241.01 874.429   5
 -16   0  -1 247.370 665.456  11
 -16  16  -1 962.397 795.010   9
  16   0  -1 1716.43 1013.73   5
 -16  16   0 18030.0 1800.09   9
  16   0   0 13530.0 1598.97   5
  16   0   0 18130.0 1600.96   7
 -16   0   0 14896.6 1507.04  11
 -16   0   1-342.335 733.879  11
 -16  16   1 1729.23 784.366   9
  16   0   1 752.915 804.371   5
  16   0   1 1982.04 819.803   7
 -16   0   2 633.189 553.979  11
 -16  16   2 271.012 510.189   9
  16   0   2 1000.67 763.753   5
  16   0   2 759.722 629.016   7
  -8  17  -4 4916.29 832.281  10
  -9  17  -4 5120.85 899.342  10
  -9  17  -4 6312.53 969.681   9
   9   8  -4 5843.11 960.600   5
 -17   9  -3 524.162 734.526   6
 -17   8  -3 608.608 882.597  11
  -8  17  -3-207.429 724.154  10
  -9  17  -3 68.8158 755.485  10
   8   9  -3 752.481 1025.72   5
   9   8  -3 1043.87 952.239   5
 -17   9  -2 9279.32 1543.89   6
  -8  17  -2 11190.2 1589.97  10
  -9  17  -2 12724.5 1646.64  10
  -9  17  -2 11284.2 1490.97   9
   8   9  -2 7985.16 1563.77   5
   9   8  -2 8916.48 1658.62   5
 -17   9  -2 11030.6 1545.98  11
 -17   8  -2 11275.2 1658.24  11
 -17   9  -1 6075.04 1244.04  11
 -17   8  -1 5286.99 1251.78  11
  -8  17  -1 6949.67 1336.46  10
  -9  17  -1 6480.65 1275.77  10
  -9  17  -1 6800.71 1152.10   9
  -8  17  -1 6926.02 1118.09   9
 -17   9  -1 6768.90 1450.31   9
   8   9  -1 4416.88 1301.47   5
   9   8  -1 7745.47 1543.46   5
   8   9  -1 7472.74 1508.20   7
   9   8  -1 8275.97 1588.20   7
 -17   9   0 3184.18 1065.54  11
 -17   8   0 1843.44 1002.21  11
  -8  17   0 3596.12 1196.74  10
  -9  17   0 2898.33 1067.40  10
 -17   8   0 1390.20 951.594   9
 -17   9   0 2920.83 1177.97   9
   8   9   0 2881.83 1217.29   5
   9   8   0 2320.36 1134.97   5
   8   9   0 4795.11 1295.36   7
   9   8   0 1865.00 1104.81   7
 -17   9   1 6635.07 1217.40  11
 -17   8   1 7071.17 1308.48  11
  -8  17   1 6145.80 1222.75  10
  -9  17   1 6711.17 1296.66  10
 -17   8   1 4073.95 1228.96   9
 -17   9   1 5050.12 1390.33   9
   8   9   1 4919.72 1186.53   7
   9   8   1 5500.37 1275.60   7
 -17   8   2 8636.43 1289.00  11
  -8  17   2 10244.4 1473.64  10
  -9  17   2 11080.0 1499.08  10
 -17   9   2 6325.54 1448.82   9
   8   9   2 9620.63 1345.49   7
   9   8   2 6475.74 1318.67   7
 -17   9   2 9047.43 1224.55  11
 -17   9   3 1371.32 647.197  11
 -17   8   3 570.446 707.794  11
  -8  17   3 29.7382 768.984  10
  -9  17   3-631.895 887.733  10
   8   9   3-302.662 705.517   7
   9   8   3 1668.47 816.405   7
  -8  17   4 6516.79 974.090  10
  -9  17   4 6364.28 973.607  10
  -8  -9   4 8071.78 1073.83   8
  -9  -8   4 7991.39 1097.25   8
 -17   9   4 5267.87 670.566  11
 -17   8   4 5855.56 759.093  11
  -7  17  -4 8401.11 918.781  10
 -10  17  -4 9709.98 1098.74  10
 -10  17  -4 11490.3 1196.46   9
  10   7  -4 11829.3 1250.05   5
 -17   7  -4 10250.6 1149.68  11
 -17   7  -3 2491.52 1038.56  11
 -17  10  -3 1290.71 787.883   6
  -7  17  -3 1356.98 751.419  10
 -10  17  -3 1756.00 879.082  10
 -10  17  -3 1672.82 854.503   9
   7  10  -3 2253.98 1031.43   5
  10   7  -3 1245.38 1041.56   5
 -17   7  -2 8380.93 1420.14  11
 -17  10  -2 5060.65 1246.14   6
  -7  17  -2 8227.77 1415.63  10
 -10  17  -2 8722.00 1461.42  10
 -10  17  -2 9070.10 1444.83   9
   7  10  -2 9330.19 1577.80   5
  10   7  -2 7598.12 1578.90   5
 -17   7  -1 5767.54 1353.03  11
  -7  17  -1 5826.04 1237.79  10
 -10  17  -1 5225.31 1211.15  10
 -17  10  -1 4404.59 1224.67   9
 -10  17  -1 5604.89 1175.73   9
   7  10  -1 4512.69 1331.78   5
  10   7  -1 5741.13 1458.33   5
  10   7  -1 6601.72 1544.62   7
 -17   7   0 2616.95 1094.64  11
  -7  17   0 2732.31 985.793  10
 -10  17   0 1948.87 963.984  10
 -17   7   0 1333.48 934.812   9
 -17  10   0 1569.81 981.059   9
 -10  17   0 1223.28 738.855   9
   7  10   0 1837.84 1010.21   5
  10   7   0 3873.87 1284.91   5
   7  10   0 3338.94 1095.95   7
  10   7   0 1858.84 1123.53   7
 -17  10   1 3791.06 929.780  11
 -17   7   1 6057.53 1340.73  11
  -7  17   1 6140.93 1239.43  10
 -10  17   1 5190.07 1168.08  10
 -17  10   1 3982.28 1267.14   9
  10   7   1 6604.05 1412.78   5
   7  10   1 5759.72 1147.92   7
  10   7   1 5971.89 1374.76   7
 -17  10   2 7196.87 1014.59  11
 -17   7   2 6462.61 1218.55  11
  -7  17   2 10053.7 1368.22  10
 -10  17   2 8624.70 1385.94  10
 -17  10   2 7469.33 1536.47   9
   7  10   2 7458.55 1126.03   7
  10   7   2 7505.50 1351.93   7
 -17  10   3 2252.73 627.628  11
 -17   7   3 1906.39 784.910  11
  -7  17   3 1201.45 719.025  10
 -10  17   3 908.189 791.861  10
  10   7   3 3164.82 1017.97   7
  -7  17   4 11662.0 1107.23  10
 -10  17   4 13649.8 1241.65  10
  -7 -10   4 16314.7 1315.49   8
 -10  -7   4 15617.2 1303.51   8
  10   7   4 12652.0 1202.03   7
 -17   7   4 11016.0 987.528  11
 -11  17  -4 10496.3 1081.47  10
 -11  17  -4 12726.2 1228.47   9
  11   6  -4 13098.0 1217.05   5
 -17   6  -4 11965.0 1282.36  11
 -17  11  -3 5459.35 1155.06   6
  -6  17  -3 5131.11 900.398  10
 -11  17  -3 6478.35 1169.37  10
 -11  17  -3 6742.39 1210.38   9
   6  11  -3 7489.59 1261.59   5
  11   6  -3 5265.60 1242.20   5
 -17   6  -3 7211.98 1271.07  11
 -17   6  -2 9558.78 1509.18  11
 -17  11  -2 6603.42 1335.03   6
  -6  17  -2 8191.13 1303.01  10
 -11  17  -2 9345.79 1458.23  10
 -17  11  -2 7694.42 1326.00   9
 -11  17  -2 10504.0 1527.91   9
   6  11  -2 9485.66 1503.02   5
  11   6  -2 9031.08 1723.50   5
 -17  11  -1 10411.9 1684.58   6
  -6  17  -1 17170.5 1696.03  10
 -11  17  -1 13073.8 1606.97  10
 -17  11  -1 14462.1 1841.73   9
 -11  17  -1 11930.9 1528.55   9
   6  11  -1 12417.3 1640.67   5
  11   6  -1 12070.9 1858.16   5
  11   6  -1 16765.7 2138.75   7
  17  -6  -1 13141.0 2099.50   5
 -17   6  -1 11586.1 1624.65  11
 -17   6   0 1395.12 1050.21  11
  -6  17   0 1199.23 833.715  10
 -11  17   0 1974.96 953.437  10
 -17  11   0 1878.54 1169.82   9
 -11  17   0 525.777 618.181   9
  11   6   0 2382.83 1139.47   5
   6  11   0 1523.68 823.775   7
  11   6   0 1692.05 1155.05   7
  -6  17   1 12790.7 1452.41  10
 -11  17   1 12068.6 1521.59  10
 -17  11   1 13220.8 1868.04   9
  11   6   1 14171.6 1790.66   5
  11   6   1 11393.8 1650.87   7
 -17   6   1 13621.9 1747.31  11
 -17   6   2 7111.27 1275.71  11
  -6  17   2 8736.37 1255.43  10
 -11  17   2 8780.96 1362.14  10
 -17  11   2 7467.01 1472.83   9
  11   6   2 8829.48 1393.85   7
 -17   6   3 5377.25 980.229  11
  -6  17   3 4948.46 910.485  10
 -11  17   3 5847.11 1039.35  10
  -6 -11   3 2825.43 1035.32   8
  11   6   3 6028.54 1188.01   7
  -6  17   4 11087.3 956.705  10
 -11  17   4 14166.2 1172.90  10
  -6 -11   4 17164.8 1212.91   8
 -11  -6   4 16413.0 1201.03   8
  11   6   4 13301.9 1242.62   7
 -17   6   4 13121.3 1024.55  11
 -12  17  -4 5320.83 745.075  10
 -12  17  -4 6802.24 896.718   9
 -17   5  -4 6984.51 1010.17  11
 -17   5  -3 1670.77 914.353  11
 -17  12  -3 1320.16 873.373   6
 -12  17  -3 1111.64 750.645  10
 -12  17  -3 1180.19 784.346   9
  12   5  -3 398.217 826.716   5
 -17   5  -2 7882.99 1436.64  11
 -17  12  -2 6152.14 1371.66   6
  -5  17  -2 8132.02 1143.31  10
 -12  17  -2 7984.26 1287.72  10
 -17  12  -2 7136.58 1296.36   9
 -12  17  -2 7172.13 1344.90   9
   5  12  -2 8009.77 1313.65   5
  12   5  -2 6644.48 1478.33   5
 -17   5  -1 6530.43 1333.23  11
 -17  12  -1 4991.31 1286.50   6
  -5  17  -1 9069.18 1298.21  10
 -12  17  -1 8164.52 1262.95  10
 -12  17  -1 8059.14 1332.14   9
 -17  12  -1 7451.98 1380.47   9
   5  12  -1 9091.08 1378.29   5
  12   5  -1 7250.56 1510.36   5
  12   5  -1 8665.62 1677.41   7
  17  -5  -1 8431.01 1827.80   5
  -5  17   0 22180.4 1842.57  10
 -12  17   0 20581.9 1755.04  10
 -17  12   0 23413.2 2309.87   9
 -12  17   0 20188.8 1783.73   9
  12   5   0 20049.4 2076.33   5
  12   5   0 22057.3 2216.38   7
 -17   5   0 18232.3 1934.23  11
 -17   5   1 6769.23 1407.78  11
  -5  17   1 7810.03 1161.10  10
 -12  17   1 6204.74 1169.59  10
 -17  12   1 8049.12 1504.23   9
  12   5   1 9964.89 1584.21   5
  12   5   1 7286.82 1407.55   7
 -17   5   2 6601.32 1254.36  11
  -5  17   2 6443.49 1053.63  10
 -12  17   2 6384.45 1113.67  10
 -17  12   2 7006.63 1410.21   9
  12   5   2 8298.77 1352.97   7
 -17   5   3 540.924 686.662  11
  -5  17   3 880.969 555.801  10
 -12  17   3 17.2026 595.632  10
  -5 -12   3-484.733 870.117   8
 -12  -5   3-1278.90 972.536   8
  12   5   3 1492.45 838.122   7
  12   5   4 7857.82 951.358   7
 -17   5   4 6857.89 778.137  11
 -17   4  -3 1416.17 866.750  11
 -17  13  -3-35.7679 696.335   6
 -13  17  -3-171.560 525.626   6
 -13  17  -3 54.9269 537.113  10
 -13  17  -3 450.233 652.551   9
  13   4  -3 254.880 786.830   5
 -17  13  -2 15852.6 1880.46   6
 -13  17  -2 15513.2 1547.25   6
 -13  17  -2 15640.9 1564.25  10
 -17  13  -2 14548.0 1619.28   9
 -13  17  -2 17325.0 1800.48   9
  13   4  -2 15755.4 1869.85   5
  17  -4  -2 17919.1 1806.45   5
 -17   4  -2 15903.8 1766.45  11
 -17   4  -1-734.569 962.402  11
 -17  13  -1-1131.73 1075.27   6
 -13  17  -1 769.728 725.887  10
 -17  13  -1 104.338 822.853   9
 -13  17  -1-90.4349 777.863   9
  13   4  -1 1087.41 1008.11   5
  13   4  -1 35.6215 1038.50   7
  17  -4  -1-906.461 1415.84   5
 -13  17   0 20811.2 1718.24  10
 -17  13   0 23389.7 2237.51   9
 -13  17   0 21552.4 1861.10   9
  13   4   0 21188.8 2045.55   5
  13   4   0 24588.1 2258.25   7
 -17   4   0 20923.9 2050.90  11
 -17   4   1 1205.48 1053.54  11
 -13  17   1 359.736 602.115  10
 -17  13   1-274.966 921.235   9
 -13  17   1-171.634 588.192   9
  13   4   1 613.188 1037.29   5
  13   4   1-729.654 931.573   7
 -13  17   2 16110.1 1453.24  10
 -17  13   2 14618.0 1725.53   9
  13   4   2 19467.3 1686.89   5
  13   4   2 13399.1 1582.34   7
 -17   4   2 16329.4 1635.23  11
 -17   4   3 609.859 670.483  11
 -13  17   3 466.840 502.150  10
  -4 -13   3 830.231 628.125   8
 -13  -4   3-446.285 667.310   8
  13   4   3 1650.03 807.010   7
 -17   3  -3-720.651 813.451  11
 -17  14  -3 31.3053 633.853   6
 -14  17  -3 185.684 475.209   6
 -14  17  -3 467.010 476.568  10
 -14  17  -3 60.2080 533.338   9
  14   3  -3-375.741 640.772   5
 -17  14  -2 13162.0 1668.01   6
 -14  17  -2 11342.5 1359.56   6
 -14  17  -2 12095.3 1266.33  10
 -17  14  -2 11879.3 1465.06   9
 -14  17  -2 14477.1 1642.26   9
  14   3  -2 13118.3 1618.90   5
  17  -3  -2 14636.0 1656.78   5
 -14  -3  -2 6975.22 915.033  11
 -17   3  -2 12962.4 1537.37  11
 -17  14  -1-1133.91 986.988   6
 -14  -3  -1 435.582 481.010  11
 -17   3  -1-460.010 901.191  11
 -14  17  -1 499.916 649.793  10
 -17  14  -1 668.634 798.765   9
 -14  17  -1-520.035 832.751   9
  14   3  -1 1467.45 1004.85   5
  14   3  -1-646.934 984.691   7
  17  -3  -1 85.0218 1112.35   5
 -14  17   0 12242.2 1258.29  10
 -17  14   0 14922.2 1754.53   9
 -14  17   0 12178.3 1489.38   9
  14   3   0 13555.2 1622.82   5
  17  -3   0 13656.0 1860.97   5
  14   3   0 16639.9 1793.80   7
 -17   3   0 14181.7 1642.72  11
 -17   3   1 1748.61 970.777  11
 -14  17   1 753.121 574.581  10
 -17  14   1 224.355 802.054   9
 -14  17   1-16.3102 615.086   9
  14   3   1 797.567 876.101   5
  14   3   1-95.6007 816.660   7
 -14  17   2 10882.4 1116.91  10
 -17  14   2 10661.8 1370.10   9
  14   3   2 14313.6 1451.07   5
  14   3   2 11958.0 1381.56   7
 -17   3   2 12961.9 1428.25  11
 -17   3   3 851.745 574.423  11
  14   3   3-137.914 549.071   7
  17  -3   3 534.222 579.105   5
 -17   2  -3-217.532 662.102  11
 -17  15  -3-593.835 605.802   6
 -15  17  -3-83.6864 457.796   9
 -15  17  -2 6641.80 1026.67   6
 -15  -2  -2 4608.96 835.918  11
 -17   2  -2 6206.40 1085.07  11
 -17  15  -2 7274.75 1199.43   6
 -15  17  -2 5550.05 758.471  10
 -17  15  -2 7070.74 1114.96   9
 -15  17  -2 7996.44 1181.53   9
  15   2  -2 7667.17 1186.80   5
  17  -2  -2 8074.02 1232.16   5
 -15  -2  -1 814.536 558.434  11
 -17   2  -1 1013.57 790.795  11
 -15  17  -1 393.768 466.656  10
 -17  15  -1 1401.69 836.079   9
 -15  17  -1 1885.60 827.616   9
  15   2  -1 1861.61 922.388   5
  17  -2  -1 1195.51 995.609   5
 -17   2   0 6236.39 1183.56  11
 -15  17   0 5228.91 802.828  10
 -17  15   0 6308.89 1222.65   9
 -15  17   0 6484.78 1132.94   9
  15   2   0 5835.10 1155.34   5
  15   2   0 6843.00 1200.89   7
  17  -2   0 3989.08 1097.91   5
 -15  -2   0 5144.53 831.711  11
 -17   2   1 1228.22 783.362  11
 -15  17   1 1232.54 552.222  10
 -17  15   1 28.6770 714.282   9
 -15  17   1 1358.02 669.513   9
  15   2   1 658.822 774.854   5
  15   2   1 1174.23 731.915   7
  17  -2   1 457.149 816.341   5
 -17  15   2 6417.66 1024.02   9
  15   2   2 8197.05 1057.70   5
  17  -2   2 7125.58 1165.70   5
  15   2   2 7780.95 1043.99   7
 -17   2   2 7240.52 1023.58  11
 -17   1  -2 786.857 655.043  11
 -17  16  -2 1751.63 678.766   9
 -16  17  -2 1532.84 652.941   9
  16   1  -2 1433.53 669.389   5
 -16  -1  -1 1109.41 585.902  11
 -17   1  -1 95.0264 598.426  11
 -17  16  -1 1482.91 770.875   9
 -16  17  -1 1676.23 745.726   9
  16   1  -1 949.238 701.893   5
  17  -1  -1 1075.75 831.745   5
 -17  16   0 23332.6 1840.86   9
 -16  17   0 23496.7 1785.26   9
  16   1   0 17300.0 1529.17   5
  17  -1   0 18067.8 1597.05   5
  16   1   0 19027.4 1514.17   7
 -16  -1   0 18781.9 1328.01  11
 -17   1   0 21046.9 1565.97  11
 -16  -1   1-176.499 429.844  11
 -17   1   1-99.8650 602.682  11
 -17  16   1 241.960 554.105   9
 -16  17   1 393.376 541.415   9
  16   1   1 1221.93 704.235   5
  17  -1   1 64.3968 708.757   5
  16   1   1 891.593 569.936   7
  17  -1   2 643.900 548.051   5
 -17  17  -1 1197.06 605.142   9
  17   0  -1 1458.97 627.446   5
 -17  17   0 20639.7 1531.47   9
  17   0   0 16373.0 1297.70   5
  17   0   1 683.883 532.874   5
  -9  18  -3 456.025 537.794  10
  -9  18  -3-151.860 461.987   9
   9   9  -3 1301.17 759.362   5
 -18   9  -2 4835.19 939.383  11
  -9  18  -2 6182.50 1151.63  10
  -9  18  -2 6337.99 1009.04   9
   9   9  -2 5516.80 1162.45   5
 -18   9  -1 168.651 745.750  11
  -9  18  -1-31.1983 702.275  10
   9   9  -1 78.6587 793.813   5
  -9  18   0 14903.4 1537.37  10
 -18   9   0 9920.37 1508.51   9
   9   9   0 10897.1 1404.43   5
   9   9   0 15417.5 1608.38   7
 -18   9   0 14087.8 1526.23  11
 -18   9   1-1536.97 788.866  11
  -9  18   1 377.727 696.456  10
 -18   9   1-1596.88 1026.72   9
   9   9   1 917.022 725.942   7
 -18   9   2 4731.56 843.340  11
  -9  18   2 5597.77 1006.32  10
   9   9   2 4818.10 859.948   7
 -18   9   3-411.577 429.897  11
  -9  18   3-798.031 641.369  10
  -9  -9   3-2267.69 970.250   8
  -8  18  -3 292.614 495.009  10
 -10  18  -3 381.834 608.246  10
 -10  18  -3-431.507 500.818   9
  -8  18  -3 746.700 493.619   9
   8  10  -3 314.865 620.440   5
  10   8  -3 515.520 688.783   5
  -8  18  -2 18730.0 1602.38  10
 -10  18  -2 18645.8 1660.04  10
 -10  18  -2 14778.2 1469.70   9
   8  10  -2 14860.5 1525.39   5
  10   8  -2 12231.3 1517.64   5
 -18   8  -2 15175.5 1525.20  11
 -18   8  -1 4213.82 1017.25  11
  -8  18  -1 7774.34 1207.28  10
 -10  18  -1 6438.28 1198.39  10
 -10  18  -1 5512.49 961.333   9
 -18  10  -1 5220.72 1143.85   9
   8  10  -1 4075.88 1037.43   5
  10   8  -1 3947.15 1061.52   5
  10   8  -1 6295.94 1297.58   7
 -18   8   0 2339.14 915.984  11
  -8  18   0 1216.20 807.213  10
 -10  18   0 625.586 757.951  10
 -18  10   0 778.939 759.062   9
   8  10   0 1424.93 812.955   5
  10   8   0 855.174 823.428   5
   8  10   0 1953.19 804.654   7
  10   8   0 1614.59 879.580   7
 -18  10   1 4822.82 901.404  11
 -18   8   1 5754.44 1051.51  11
  -8  18   1 5925.15 1068.29  10
 -10  18   1 5935.45 1077.51  10
 -18  10   1 4408.48 1048.24   9
   8  10   1 5931.72 974.824   7
  10   8   1 5280.52 1052.47   7
  -8  18   2 17453.3 1516.59  10
 -10  18   2 16261.2 1527.00  10
   8  10   2 13250.2 1195.96   7
  10   8   2 13903.4 1354.05   7
 -18  10   2 14832.9 1180.85  11
 -18   8   2 13939.9 1302.66  11
 -18   8   3 1239.64 557.896  11
  -8  18   3-349.365 548.755  10
 -10  18   3-786.415 619.056  10
  -8 -10   3-1628.73 920.528   8
 -10  -8   3-1235.87 939.802   8
  10   8   3-475.689 525.687   7
 -18   7  -3-845.478 673.867  11
  -7  18  -3-241.853 414.796  10
 -11  18  -3 213.423 539.606  10
 -11  18  -3-523.474 533.724   9
  11   7  -3-128.042 624.055   5
 -18   7  -2 6882.96 1161.83  11
  -7  18  -2 9382.66 1145.83  10
 -11  18  -2 8462.56 1227.07  10
 -11  18  -2 6803.19 1092.95   9
   7  11  -2 8675.34 1188.37   5
  11   7  -2 5404.41 1128.07   5
 -18   7  -1 3197.30 982.720  11
  -7  18  -1 3391.46 897.019  10
 -11  18  -1 4126.05 985.057  10
 -18  11  -1 3727.53 1009.40   9
 -11  18  -1 3341.43 867.852   9
   7  11  -1 3221.03 908.169   5
  11   7  -1 3057.91 988.190   5
  11   7  -1 4813.61 1174.55   7
  18  -7  -1 1631.33 937.353   5
 -18   7   0 1863.19 927.240  11
  -7  18   0 1220.25 722.649  10
 -11  18   0 2104.61 843.534  10
 -18  11   0 887.484 827.088   9
  11   7   0 902.682 810.490   5
  11   7   0 2992.86 987.402   7
 -18   7   1 2370.21 903.125  11
  -7  18   1 4076.97 897.001  10
 -11  18   1 4125.13 936.894  10
 -18  11   1 3279.91 1016.91   9
  11   7   1 3642.56 950.874   5
  11   7   1 3050.31 895.662   7
 -18   7   2 6626.38 1014.66  11
  -7  18   2 7634.10 1043.22  10
 -11  18   2 8828.22 1112.16  10
  11   7   2 6218.93 1009.68   7
 -18   7   3 704.315 516.466  11
  -7  18   3-509.397 479.329  10
 -11  18   3-810.957 576.868  10
  -7 -11   3-1084.38 763.177   8
 -11  -7   3-1659.93 814.980   8
  11   7   3-518.004 533.307   7
 -18   6  -3-370.013 652.915  11
 -12  18  -3-233.214 468.031  10
 -12  18  -3 693.044 528.751   9
  12   6  -3 493.026 585.025   5
 -18   6  -2 4876.70 1012.97  11
 -12  18  -2 6135.76 1011.56  10
  -6  18  -2 4512.98 772.731  10
 -12  18  -2 5511.50 1029.76   9
  12   6  -2 4751.46 1019.75   5
 -18   6  -1 1249.81 844.343  11
  -6  18  -1 1940.96 777.442  10
 -12  18  -1 1820.69 789.870  10
 -18  12  -1 887.443 761.614   9
 -12  18  -1 1461.07 704.029   9
   6  12  -1 1198.99 663.817   5
  12   6  -1 917.350 804.346   5
  12   6  -1 1427.56 940.868   7
  18  -6  -1 622.594 902.723   5
 -18   6   0 987.656 840.765  11
  -6  18   0 1606.03 723.463  10
 -12  18   0 1385.53 700.335  10
 -18  12   0 1172.08 864.800   9
 -12  18   0 885.152 554.725   9
  12   6   0 2140.75 919.295   5
  12   6   0 1596.85 817.084   7
 -18   6   1 1732.27 806.156  11
  -6  18   1 1889.48 711.343  10
 -12  18   1 1648.53 706.105  10
 -18  12   1 897.367 818.367   9
  12   6   1 1463.19 812.847   5
  12   6   1 1382.80 750.320   7
 -18   6   2 4445.30 915.882  11
  -6  18   2 4339.09 764.215  10
 -12  18   2 4697.18 881.225  10
 -18  12   2 3221.66 895.669   9
  12   6   2 5189.81 925.428   7
 -18   6   3 540.373 447.888  11
 -12  18   3-192.162 438.455  10
  -6 -12   3-617.069 558.279   8
 -12  -6   3-588.736 616.509   8
  12   6   3-45.4526 479.598   7
 -13  18  -3 915.843 499.697   9
  13   5  -3 704.073 547.267   5
 -18   5  -2 6415.15 1052.82  11
 -13  18  -2 7864.82 1020.05  10
 -18  13  -2 6761.72 1010.69   9
 -13  18  -2 7380.70 1083.86   9
  13   5  -2 4738.78 960.913   5
 -18   5  -1 7142.21 1173.98  11
 -13  18  -1 6984.71 1030.87  10
 -13  18  -1 7106.82 1094.94   9
 -18  13  -1 6411.82 1133.94   9
  13   5  -1 6856.26 1120.71   5
  18  -5  -1 8161.20 1402.12   5
 -18   5   0 2603.86 933.493  11
 -13  18   0 2966.95 772.007  10
 -18  13   0 3720.19 1012.91   9
 -13  18   0 3317.05 797.111   9
  13   5   0 3488.00 961.824   5
  13   5   0 3479.30 964.685   7
  18  -5   0 2417.11 1176.27   5
 -18   5   1 6301.56 1120.27  11
 -13  18   1 7712.02 986.812  10
 -18  13   1 8347.07 1284.99   9
  13   5   1 9126.04 1256.92   5
  13   5   1 7388.31 1104.16   7
 -18   5   2 6561.09 948.422  11
 -13  18   2 6679.89 888.844  10
 -18  13   2 5869.51 1053.36   9
  -5 -13   2 3687.28 797.194   8
  13   5   2 6816.58 968.084   7
 -18   5   3 1759.92 515.405  11
  13   5   3 916.305 494.914   7
 -18   4  -2 2369.20 792.682  11
 -14  18  -2 1998.78 579.088  10
 -18  14  -2 2298.77 664.881   9
 -14  18  -2 2837.70 751.853   9
  14   4  -2 2061.50 720.221   5
 -18   4  -1 705.304 670.712  11
 -14  18  -1 1759.47 612.840  10
 -18  14  -1 1415.24 783.442   9
 -14  18  -1 2702.23 804.986   9
  14   4  -1 2463.72 849.812   5
  18  -4  -1 984.992 876.940   5
 -14  18   0 20900.2 1452.19  10
 -18  14   0 23357.3 1920.61   9
 -14  18   0 23241.7 1635.07   9
  14   4   0 19316.8 1597.67   5
  18  -4   0 21363.5 1939.50   5
  14   4   0 24371.2 1827.99   7
 -18   4   0 23491.0 1761.29  11
 -18   4   1 752.302 644.800  11
 -14  18   1 2036.52 607.200  10
 -18  14   1 1647.14 779.138   9
  14   4   1 2473.61 828.931   5
  14   4   1 2087.18 744.942   7
  18  -4   1 1926.08 937.527   5
 -18   4   2 2174.04 661.145  11
 -14  18   2 1634.90 474.556  10
 -18  14   2 1586.14 618.577   9
  14   4   2 2650.38 678.543   7
  18  -4   2 2264.54 771.359   5
 -18   3  -2 2171.08 701.104  11
 -15  18  -2 2496.85 592.635   9
  15   3  -2 1724.45 581.640   5
 -18   3  -1 569.559 632.975  11
 -18  15  -1 794.804 632.704   9
 -15  18  -1 73.3098 509.580   9
  15   3  -1 820.346 630.625   5
  18  -3  -1 478.512 723.820   5
 -15  18   0 12376.1 986.747  10
 -18  15   0 15761.8 1523.22   9
 -15  18   0 14705.9 1282.72   9
  15   3   0 11021.4 1170.35   5
  18  -3   0 13215.7 1417.71   5
  15   3   0 14681.4 1329.44   7
 -18   3   0 14762.0 1391.91  11
 -18   3   1-375.535 629.073  11
 -18  15   1 74.0100 567.137   9
  15   3   1 46.2801 572.651   5
  15   3   1-433.079 537.021   7
  18  -3   1-837.682 740.501   5
 -18   3   2 2780.38 575.481  11
  18  -3   2 2018.85 627.306   5
  15   3   2 1765.11 509.499   7
 -18  16  -1 2902.26 684.193   9
  16   2  -1 1680.12 551.691   5
 -18   2   0 4160.43 745.057  11
 -18  16   0 5166.81 889.151   9
  16   2   0 4588.88 748.942   5
  18  -2   0 4335.33 815.694   5
  18  -2   1 1105.92 551.514   5
  -9  19  -2 6520.16 833.197  10
 -10  19  -2 7193.05 893.418  10
   9  10  -2 5234.33 770.009   5
  10   9  -2 6477.17 849.338   5
  -9  19  -1 2500.72 737.176  10
 -10  19  -1 3168.46 802.996  10
   9  10  -1 2137.36 681.320   5
  10   9  -1 1984.42 683.825   5
  -9  19   0 16343.4 1384.06  10
 -10  19   0 16377.6 1375.85  10
  19  -9   0 12088.1 1317.07   5
 -19   9   0 15364.5 1296.77  11
 -19   9   1 2713.97 668.743  11
  -9  19   1 2940.80 713.103  10
 -10  19   1 2390.02 665.758  10
   9  10   1 2330.05 603.439   7
  10   9   1 2647.85 687.220   7
  -9  19   2 7049.62 862.132  10
 -10  19   2 6743.51 849.596  10
 -11  19  -2 14355.8 1191.37  10
  11   8  -2 10977.0 1049.81   5
 -19   8  -1 891.731 664.435  11
  -8  19  -1-267.955 525.626  10
 -11  19  -1-17.2449 570.043  10
   8  11  -1-414.346 476.291   5
  11   8  -1-288.762 555.752   5
 -19   8   0 1818.05 731.322  11
  -8  19   0 1904.14 672.957  10
 -11  19   0 2241.72 720.200  10
 -19  11   0 502.151 546.350   9
  11   8   0 1548.10 672.229   5
  11   8   0 1984.74 665.885   7
  19  -8   0 1537.90 824.497   5
 -19   8   1 62.3188 527.413  11
  -8  19   1 667.995 538.139  10
 -11  19   1 120.503 501.813  10
  11   8   1 674.807 528.830   7
  -8  19   2 10956.1 980.915  10
 -11  19   2 12448.2 1047.79  10
  11   8   2 10890.0 969.849   7
 -12  19  -2 9002.30 930.690  10
  12   7  -2 7323.34 868.406   5
 -19   7  -1 3358.19 771.433  11
  -7  19  -1 2902.79 613.926  10
 -12  19  -1 3211.85 723.082  10
  12   7  -1 2690.98 717.234   5
 -19   7   0 1921.91 707.845  11
  -7  19   0 1654.19 607.783  10
 -12  19   0 969.362 564.372  10
 -19  12   0 198.956 570.036   9
  12   7   0 110.234 556.570   5
  12   7   0 1802.76 668.852   7
  19  -7   0-74.4625 806.378   5
 -19   7   1 2195.01 642.436  11
  -7  19   1 3310.65 683.927  10
 -12  19   1 3270.95 679.736  10
 -19  12   1 1333.71 619.318   9
  12   7   1 1831.62 593.701   7
 -12  19   2 8147.13 837.066  10
  12   7   2 9083.78 896.796   7
 -19   6  -1 1330.65 648.630  11
 -13  19  -1 971.680 504.711  10
  13   6  -1 656.128 517.037   5
 -19   6   0 3650.99 766.593  11
 -13  19   0 3611.00 661.553  10
 -19  13   0 3438.30 795.044   9
  13   6   0 2010.37 650.426   5
  13   6   0 3548.46 743.227   7
  19  -6   0 2923.03 860.148   5
 -19   6   1 748.629 546.545  11
 -13  19   1 1238.62 499.763  10
 -19  13   1 59.4756 559.167   9
  13   6   1 1201.47 538.620   7
  19  -6   1 1120.19 718.602   5
 -19   5  -1 1194.05 540.002  11
  14   5  -1 175.567 415.827   5
 -19   5   0 1257.11 565.337  11
 -19  14   0 1114.20 535.753   9
 -19   5   1-63.6481 452.866  11
 -19  14   1-555.345 566.915   9
  14   5   1 257.142 396.102   7
  19  -5   1-389.294 609.072   5
   0   0   0    0.00    0.00   0
TITL FJU-56-180Degree in P6(3)mc
REM P6(3)mc (#186 in standard setting)
CELL 1.54184  15.968752  15.968752   6.954060  90.0000  90.0000 120.0000
ZERR   22.00   0.000834   0.000834   0.000690   0.0000   0.0000   0.0000
LATT -1
SYMM -y, x-y, z
SYMM -x+y,-x, z
SYMM -x,-y, z+1/2
SYMM  y,-x+y, z+1/2
SYMM  x-y, x, z+1/2
SYMM -y,-x, z
SYMM -x+y, y, z
SYMM  x, x-y, z
SYMM  y, x, z+1/2
SYMM  x-y,-y, z+1/2
SYMM -x,-x+y, z+1/2
SFAC C H N O Co
UNIT 22.00 22.00 22.00 22.00 22.00
TREF
HKLF 4
END
;
_shelx_hkl_checksum              54189
_shelx_fab_checksum              43258
_shelx_fab_file
;
   -1    2    0    -11.61      0.00
   -1    3    0     -3.73      0.00
   -2    4    0      7.40      0.00
   -1    4    0     -7.34      0.00
   -2    5    0      6.66      0.00
   -1    5    0      0.14      0.00
    0    5    0      5.19      0.00
   -3    6    0     -4.49      0.00
   -2    6    0     -3.54      0.00
   -1    6    0     -2.10      0.00
    0    6    0     -1.72      0.00
   -3    7    0      0.17      0.00
   -2    7    0      3.03      0.00
   -1    7    0     -0.29      0.00
    0    7    0      3.41      0.00
   -4    8    0     -0.15      0.00
   -3    8    0      0.05      0.00
   -2    8    0     -0.55      0.00
   -1    8    0      0.24      0.00
    0    8    0     -1.03      0.00
   -4    9    0      0.52      0.00
   -3    9    0     -1.46      0.00
   -2    9    0      0.01      0.00
   -1    9    0     -0.66      0.00
    0    9    0     -0.14      0.00
   -5   10    0      1.05      0.00
   -4   10    0      0.58      0.00
   -3   10    0      1.06      0.00
   -2   10    0     -0.15      0.00
   -1   10    0      0.40      0.00
    0   10    0      1.37      0.00
   -5   11    0     -1.13      0.00
   -4   11    0      0.02      0.00
   -3   11    0     -1.23      0.00
   -2   11    0     -0.60      0.00
   -1   11    0     -0.20      0.00
    0   11    0     -1.31      0.00
   -6   12    0     -0.83      0.00
   -5   12    0      0.54      0.00
   -4   12    0      1.06      0.00
   -3   12    0      0.64      0.00
   -2   12    0      0.84      0.00
   -1   12    0      0.15      0.00
    0   12    0      0.17      0.00
   -6   13    0      0.11      0.00
   -5   13    0     -0.61      0.00
   -4   13    0     -0.13      0.00
   -3   13    0     -0.05      0.00
   -2   13    0      0.09      0.00
   -1   13    0     -0.16      0.00
    0   13    0      1.24      0.00
   -7   14    0      0.42      0.00
   -6   14    0     -0.08      0.00
   -5   14    0      0.06      0.00
   -4   14    0     -1.01      0.00
   -3   14    0     -0.44      0.00
   -2   14    0     -0.45      0.00
   -1   14    0     -0.34      0.00
    0   14    0     -0.18      0.00
   -7   15    0      0.44      0.00
   -6   15    0     -0.35      0.00
   -5   15    0      1.21      0.00
   -4   15    0      0.40      0.00
   -3   15    0      0.44      0.00
   -2   15    0      0.16      0.00
   -1   15    0      0.01      0.00
    0   15    0     -0.04      0.00
   -8   16    0     -0.79      0.00
   -7   16    0      0.04      0.00
   -6   16    0     -0.39      0.00
   -5   16    0     -0.09      0.00
   -4   16    0     -0.08      0.00
   -3   16    0     -0.43      0.00
   -2   16    0      0.27      0.00
   -1   16    0     -0.12      0.00
    0   16    0      0.23      0.00
   -8   17    0     -0.01      0.00
   -7   17    0     -0.01      0.00
   -6   17    0     -0.24      0.00
   -5   17    0      0.29      0.00
   -4   17    0     -0.65      0.00
   -3   17    0      0.21      0.00
   -2   17    0      0.05      0.00
   -1   17    0     -0.27      0.00
    0   17    0      0.11      0.00
   -9   18    0      0.29      0.00
   -8   18    0      0.32      0.00
   -7   18    0     -0.29      0.00
   -6   18    0      0.38      0.00
   -5   18    0      0.14      0.00
   -4   18    0      0.57      0.00
   -3   18    0      0.26      0.00
   -2   18    0      0.33      0.00
   -9   19    0     -0.05      0.00
   -8   19    0     -0.25      0.00
   -7   19    0      0.15      0.00
   -6   19    0     -0.24      0.00
   -5   19    0     -0.19      0.00
    0    1    1     -8.17      0.00
    0    2    1     -4.52      0.00
   -1    3    1      2.58      0.00
    0    3    1     -4.72      0.00
   -1    4    1      4.68      0.00
    0    4    1     -6.02      0.00
   -2    5    1     -0.49      0.00
   -1    5    1      3.32      0.00
    0    5    1      2.06      0.00
   -2    6    1     -4.03      0.00
   -1    6    1      1.56      0.00
    0    6    1     -3.76      0.00
   -3    7    1     -1.76      0.00
   -1    7    1      0.47      0.00
    0    7    1     -0.33      0.00
   -3    8    1      0.79      0.00
   -2    8    1     -1.22      0.00
   -1    8    1      1.95      0.00
    0    8    1     -1.15      0.00
   -4    9    1      1.18      0.00
   -3    9    1      0.27      0.00
   -2    9    1     -0.45      0.00
   -1    9    1      0.38      0.00
    0    9    1     -0.29      0.00
   -4   10    1     -0.23      0.00
   -3   10    1      1.07      0.00
   -2   10    1     -1.13      0.00
   -1   10    1      0.50      0.00
    0   10    1     -0.95      0.00
   -5   11    1     -0.14      0.00
   -4   11    1      0.30      0.00
   -3   11    1     -0.38      0.00
   -2   11    1      0.17      0.00
   -1   11    1      0.28      0.00
    0   11    1     -0.42      0.00
   -5   12    1      0.25      0.00
   -4   12    1     -1.71      0.00
   -3   12    1      1.28      0.00
   -2   12    1     -0.15      0.00
   -1   12    1      0.14      0.00
    0   12    1      0.92      0.00
   -6   13    1      0.93      0.00
   -5   13    1     -0.09      0.00
   -4   13    1     -0.31      0.00
   -3   13    1      0.08      0.00
   -2   13    1     -0.30      0.00
   -1   13    1     -0.32      0.00
    0   13    1      0.34      0.00
   -6   14    1     -0.68      0.00
   -5   14    1      1.88      0.00
   -4   14    1     -1.18      0.00
   -3   14    1      0.37      0.00
   -2   14    1     -0.52      0.00
   -1   14    1     -0.12      0.00
    0   14    1     -0.54      0.00
   -7   15    1     -0.61      0.00
   -6   15    1      0.37      0.00
   -5   15    1     -0.23      0.00
   -4   15    1      0.31      0.00
   -3   15    1      0.48      0.00
   -2   15    1      0.93      0.00
   -1   15    1     -0.38      0.00
    0   15    1      0.86      0.00
   -7   16    1     -0.20      0.00
   -6   16    1     -0.46      0.00
   -5   16    1      0.22      0.00
   -4   16    1     -0.91      0.00
   -3   16    1      0.15      0.00
   -2   16    1     -0.30      0.00
   -1   16    1     -0.47      0.00
    0   16    1      0.34      0.00
   -8   17    1      0.71      0.00
   -7   17    1     -0.32      0.00
   -6   17    1      0.42      0.00
   -5   17    1      0.38      0.00
   -4   17    1     -0.08      0.00
   -3   17    1      0.05      0.00
   -2   17    1      0.36      0.00
   -1   17    1     -0.45      0.00
    0   17    1      0.48      0.00
   -8   18    1      0.01      0.00
   -7   18    1     -0.01      0.00
   -6   18    1     -0.47      0.00
   -5   18    1     -0.22      0.00
   -4   18    1     -0.34      0.00
   -3   18    1      0.33      0.00
   -2   18    1      0.19      0.00
   -9   19    1      0.09      0.00
   -8   19    1     -0.23      0.00
   -7   19    1      0.61      0.00
   -6   19    1     -0.07      0.00
   -5   19    1      0.39      0.00
    0    0    2    -15.01      0.00
    0    1    2      1.95      0.00
   -1    2    2      2.16      0.00
    0    2    2     -0.55      0.00
   -1    3    2      0.08      0.00
    0    3    2      0.38      0.00
   -2    4    2     -1.55      0.00
   -1    4    2     -0.98      0.00
    0    4    2      2.15      0.00
   -2    5    2     -0.22      0.00
   -1    5    2     -1.19      0.00
    0    5    2      4.31      0.00
   -3    6    2      0.87      0.00
   -2    6    2     -0.58      0.00
   -1    6    2     -1.23      0.00
    0    6    2     -0.87      0.00
   -3    7    2      0.57      0.00
   -2    7    2      2.56      0.00
   -1    7    2     -1.88      0.00
    0    7    2      1.67      0.00
   -4    8    2     -1.86      0.00
   -3    8    2      0.73      0.00
   -2    8    2     -1.12      0.00
   -1    8    2     -0.22      0.00
    0    8    2      1.42      0.00
   -4    9    2     -0.50      0.00
   -3    9    2     -0.32      0.00
   -2    9    2      0.42      0.00
   -1    9    2     -0.66      0.00
    0    9    2     -0.33      0.00
   -5   10    2      1.79      0.00
   -4   10    2     -0.83      0.00
   -3   10    2      0.68      0.00
   -2   10    2      1.29      0.00
   -1   10    2     -0.63      0.00
    0   10    2      0.78      0.00
   -5   11    2      0.23      0.00
   -4   11    2     -0.80      0.00
   -3   11    2      0.34      0.00
   -2   11    2     -0.26      0.00
   -1   11    2     -0.28      0.00
    0   11    2      0.47      0.00
   -6   12    2      0.18      0.00
   -5   12    2      0.34      0.00
   -4   12    2     -1.02      0.00
   -3   12    2     -0.42      0.00
   -2   12    2      0.08      0.00
   -1   12    2     -0.47      0.00
    0   12    2      0.31      0.00
   -6   13    2      0.09      0.00
   -5   13    2      0.95      0.00
   -4   13    2     -0.17      0.00
   -3   13    2      0.93      0.00
   -2   13    2     -0.01      0.00
   -1   13    2      0.18      0.00
    0   13    2     -0.19      0.00
   -7   14    2     -0.41      0.00
   -6   14    2     -0.74      0.00
   -5   14    2     -0.25      0.00
   -4   14    2      0.21      0.00
   -3   14    2     -0.02      0.00
   -2   14    2     -0.09      0.00
   -1   14    2     -0.26      0.00
    0   14    2      0.12      0.00
   -7   15    2      0.30      0.00
   -6   15    2      0.47      0.00
   -5   15    2     -0.19      0.00
   -4   15    2     -0.22      0.00
   -3   15    2     -0.08      0.00
   -2   15    2      0.21      0.00
   -1   15    2     -0.09      0.00
    0   15    2      0.26      0.00
   -8   16    2      0.38      0.00
   -7   16    2     -0.36      0.00
   -6   16    2     -0.14      0.00
   -5   16    2      0.07      0.00
   -4   16    2     -0.19      0.00
   -3   16    2      0.33      0.00
   -2   16    2     -0.19      0.00
   -1   16    2      0.18      0.00
    0   16    2      0.32      0.00
   -8   17    2      0.07      0.00
   -7   17    2      0.19      0.00
   -6   17    2      0.02      0.00
   -5   17    2     -0.02      0.00
   -4   17    2      0.31      0.00
   -3   17    2     -0.12      0.00
   -2   17    2     -0.34      0.00
   -1   17    2      0.00      0.00
   -9   18    2     -0.33      0.00
   -8   18    2     -0.21      0.00
   -7   18    2      0.19      0.00
   -6   18    2     -0.24      0.00
   -5   18    2      0.06      0.00
   -4   18    2     -0.15      0.00
   -3   18    2     -0.32      0.00
   -9   19    2      0.15      0.00
   -8   19    2      0.13      0.00
   -7   19    2     -0.01      0.00
    0    1    3      1.78      0.00
    0    2    3      2.71      0.00
   -1    3    3      0.25      0.00
    0    3    3     -0.40      0.00
   -1    4    3     -0.29      0.00
    0    4    3     -0.19      0.00
   -2    5    3     -2.21      0.00
   -1    5    3      0.48      0.00
    0    5    3     -1.32      0.00
   -2    6    3      0.63      0.00
   -1    6    3      0.88      0.00
    0    6    3     -0.95      0.00
   -3    7    3      0.26      0.00
   -2    7    3      0.09      0.00
   -1    7    3      1.03      0.00
    0    7    3     -0.74      0.00
   -3    8    3      0.59      0.00
   -2    8    3     -1.33      0.00
   -1    8    3      0.41      0.00
    0    8    3     -0.85      0.00
   -4    9    3      0.05      0.00
   -3    9    3     -0.84      0.00
   -2    9    3      0.44      0.00
   -1    9    3      0.10      0.00
    0    9    3     -0.41      0.00
   -4   10    3     -0.40      0.00
   -3   10    3      0.36      0.00
   -2   10    3      0.72      0.00
   -1   10    3     -0.01      0.00
    0   10    3      0.68      0.00
   -5   11    3     -0.84      0.00
   -4   11    3      0.29      0.00
   -3   11    3      0.08      0.00
   -2   11    3     -0.54      0.00
   -1   11    3     -0.06      0.00
    0   11    3     -0.39      0.00
   -5   12    3      0.05      0.00
   -4   12    3      0.72      0.00
   -3   12    3     -0.36      0.00
   -2   12    3     -0.01      0.00
   -1   12    3     -0.13      0.00
    0   12    3      0.32      0.00
   -6   13    3     -0.19      0.00
   -5   13    3     -0.37      0.00
   -4   13    3     -0.03      0.00
   -3   13    3     -0.06      0.00
   -2   13    3     -0.07      0.00
   -1   13    3      0.06      0.00
    0   13    3      0.35      0.00
   -6   14    3      0.00      0.00
   -5   14    3     -0.72      0.00
   -4   14    3      0.92      0.00
   -3   14    3     -0.45      0.00
   -2   14    3      0.72      0.00
   -1   14    3     -0.33      0.00
    0   14    3      0.03      0.00
   -7   15    3     -0.21      0.00
   -6   15    3      0.25      0.00
   -5   15    3      0.26      0.00
   -4   15    3      0.05      0.00
   -3   15    3     -0.36      0.00
   -2   15    3     -0.22      0.00
   -1   15    3      0.03      0.00
    0   15    3      0.23      0.00
   -7   16    3      0.11      0.00
   -6   16    3      0.00      0.00
   -5   16    3     -0.32      0.00
   -4   16    3      0.35      0.00
   -3   16    3     -0.53      0.00
   -2   16    3     -0.04      0.00
   -1   16    3     -0.07      0.00
    0   16    3     -0.48      0.00
   -8   17    3     -0.19      0.00
   -7   17    3      0.18      0.00
   -6   17    3      0.08      0.00
   -5   17    3     -0.12      0.00
   -4   17    3      0.49      0.00
   -3   17    3     -0.09      0.00
   -2   17    3      0.91      0.00
   -8   18    3     -0.20      0.00
   -7   18    3     -0.23      0.00
   -6   18    3      0.14      0.00
   -5   18    3     -0.46      0.00
    0    0    4      1.90      0.00
    0    1    4      0.43      0.00
   -1    2    4     -1.07      0.00
    0    2    4     -0.91      0.00
   -1    3    4      0.74      0.00
    0    3    4     -0.53      0.00
   -2    4    4     -0.56      0.00
   -1    4    4      0.77      0.00
    0    4    4     -0.20      0.00
   -2    5    4      0.45      0.00
   -1    5    4     -0.72      0.00
    0    5    4     -0.17      0.00
   -3    6    4     -1.33      0.00
   -2    6    4      0.45      0.00
   -1    6    4      0.01      0.00
    0    6    4      0.27      0.00
   -3    7    4     -0.20      0.00
   -2    7    4      0.14      0.00
   -1    7    4      0.00      0.00
    0    7    4      0.67      0.00
   -4    8    4     -0.64      0.00
   -3    8    4      0.63      0.00
   -2    8    4      0.43      0.00
   -1    8    4     -0.76      0.00
    0    8    4     -0.02      0.00
   -4    9    4      0.13      0.00
   -3    9    4     -0.26      0.00
   -2    9    4      0.44      0.00
   -1    9    4     -0.92      0.00
    0    9    4      1.07      0.00
   -5   10    4      0.74      0.00
   -4   10    4     -0.61      0.00
   -3   10    4      0.33      0.00
   -2   10    4     -0.09      0.00
   -1   10    4      0.06      0.00
    0   10    4      0.52      0.00
   -5   11    4     -0.51      0.00
   -4   11    4      0.13      0.00
   -3   11    4     -0.06      0.00
   -2   11    4     -0.27      0.00
   -1   11    4      0.14      0.00
    0   11    4      0.09      0.00
   -6   12    4     -0.82      0.00
   -5   12    4      0.69      0.00
   -4   12    4      0.32      0.00
   -3   12    4      0.08      0.00
   -2   12    4      0.13      0.00
   -1   12    4     -0.44      0.00
    0   12    4      0.23      0.00
   -6   13    4     -0.04      0.00
   -5   13    4      0.41      0.00
   -4   13    4     -0.13      0.00
   -3   13    4     -0.50      0.00
   -2   13    4      0.07      0.00
   -1   13    4     -0.22      0.00
    0   13    4     -0.08      0.00
   -7   14    4     -0.03      0.00
   -6   14    4      0.00      0.00
   -5   14    4     -0.43      0.00
   -4   14    4      0.10      0.00
   -3   14    4     -0.40      0.00
   -2   14    4      0.43      0.00
   -1   14    4      0.40      0.00
    0   14    4     -0.01      0.00
   -7   15    4     -0.03      0.00
   -6   15    4     -0.22      0.00
   -5   15    4      0.47      0.00
   -4   15    4      0.03      0.00
   -3   15    4      0.33      0.00
   -2   15    4     -0.15      0.00
   -1   15    4     -0.13      0.00
    0   15    4     -0.43      0.00
   -8   16    4     -0.42      0.00
   -7   16    4      0.28      0.00
   -6   16    4      0.24      0.00
   -5   16    4     -0.31      0.00
   -4   16    4      0.25      0.00
   -3   16    4     -0.10      0.00
   -2   16    4      0.23      0.00
   -8   17    4     -0.21      0.00
   -7   17    4     -0.02      0.00
   -6   17    4      0.00      0.00
   -5   17    4     -0.27      0.00
    0    1    5      0.64      0.00
    0    2    5     -1.13      0.00
   -1    3    5     -0.36      0.00
    0    3    5      1.24      0.00
   -1    4    5     -0.55      0.00
    0    4    5      0.77      0.00
   -2    5    5      1.68      0.00
   -1    5    5     -0.62      0.00
    0    5    5      0.23      0.00
   -2    6    5     -0.39      0.00
   -1    6    5     -0.27      0.00
    0    6    5     -0.45      0.00
   -3    7    5     -0.11      0.00
   -2    7    5      0.35      0.00
   -1    7    5     -0.17      0.00
    0    7    5      0.45      0.00
   -3    8    5      0.21      0.00
   -2    8    5      0.07      0.00
   -1    8    5      0.32      0.00
    0    8    5      0.18      0.00
   -4    9    5      0.88      0.00
   -3    9    5     -0.32      0.00
   -2    9    5     -0.08      0.00
   -1    9    5      0.00      0.00
    0    9    5     -0.75      0.00
   -4   10    5      0.59      0.00
   -3   10    5     -0.56      0.00
   -2   10    5     -0.39      0.00
   -1   10    5      0.53      0.00
    0   10    5     -0.25      0.00
   -5   11    5     -0.96      0.00
   -4   11    5      0.63      0.00
   -3   11    5     -0.41      0.00
   -2   11    5     -0.05      0.00
   -1   11    5      0.36      0.00
    0   11    5      0.19      0.00
   -5   12    5     -0.42      0.00
   -4   12    5      0.46      0.00
   -3   12    5     -0.88      0.00
   -2   12    5      0.56      0.00
   -1   12    5     -0.31      0.00
    0   12    5     -0.97      0.00
   -6   13    5      0.65      0.00
   -5   13    5     -0.06      0.00
   -4   13    5      1.09      0.00
   -3   13    5      0.23      0.00
   -2   13    5      0.68      0.00
   -1   13    5      0.24      0.00
    0   13    5      0.08      0.00
   -6   14    5      0.66      0.00
   -5   14    5     -1.42      0.00
   -4   14    5     -0.14      0.00
   -3   14    5     -0.90      0.00
   -2   14    5     -0.77      0.00
   -1   14    5     -0.10      0.00
    0   14    5     -0.10      0.00
   -7   15    5      0.65      0.00
   -6   15    5     -0.13      0.00
   -5   15    5      0.14      0.00
   -4   15    5      0.53      0.00
   -3   15    5      0.41      0.00
   -2   15    5      0.73      0.00
   -7   16    5     -0.51      0.00
   -6   16    5      0.53      0.00
    0    0    6      1.59      0.00
    0    1    6     -0.59      0.00
   -1    2    6     -0.05      0.00
    0    2    6      0.86      0.00
   -1    3    6     -0.32      0.00
    0    3    6      0.76      0.00
   -2    4    6     -0.12      0.00
   -1    4    6     -0.48      0.00
    0    4    6     -0.53      0.00
   -2    5    6      0.22      0.00
   -1    5    6      0.37      0.00
    0    5    6      0.26      0.00
   -3    6    6      0.92      0.00
   -2    6    6     -0.34      0.00
   -1    6    6      0.10      0.00
    0    6    6     -0.23      0.00
   -3    7    6     -0.11      0.00
   -2    7    6     -0.22      0.00
   -1    7    6     -0.21      0.00
    0    7    6      0.23      0.00
   -4    8    6     -0.06      0.00
   -3    8    6     -0.03      0.00
   -2    8    6     -0.20      0.00
   -1    8    6      0.09      0.00
    0    8    6      0.30      0.00
   -4    9    6      0.27      0.00
   -3    9    6     -0.37      0.00
   -2    9    6      0.43      0.00
   -1    9    6      0.25      0.00
    0    9    6     -0.40      0.00
   -5   10    6     -0.19      0.00
   -4   10    6     -0.04      0.00
   -3   10    6      0.03      0.00
   -2   10    6     -0.16      0.00
   -1   10    6     -0.23      0.00
    0   10    6      0.18      0.00
   -5   11    6      0.36      0.00
   -4   11    6      0.02      0.00
   -3   11    6     -0.10      0.00
   -2   11    6      0.21      0.00
   -1   11    6     -0.43      0.00
    0   11    6     -0.15      0.00
   -6   12    6     -0.40      0.00
   -5   12    6      0.25      0.00
   -4   12    6     -0.22      0.00
   -3   12    6     -0.02      0.00
   -2   12    6      0.35      0.00
   -1   12    6      0.21      0.00
    0   12    6      0.05      0.00
   -6   13    6     -0.16      0.00
   -5   13    6     -0.58      0.00
   -4   13    6     -0.13      0.00
   -3   13    6      0.32      0.00
   -2   13    6     -0.16      0.00
   -7   14    6      0.70      0.00
   -6   14    6     -0.06      0.00
   -5   14    6      0.81      0.00
    0    1    7     -0.06      0.00
    0    2    7      0.33      0.00
   -1    3    7      0.20      0.00
    0    3    7     -0.22      0.00
   -1    4    7     -0.03      0.00
    0    4    7     -0.16      0.00
   -2    5    7     -0.25      0.00
   -1    5    7     -0.13      0.00
    0    5    7     -0.14      0.00
   -2    6    7      0.54      0.00
   -1    6    7      0.05      0.00
    0    6    7      1.02      0.00
   -3    7    7     -0.05      0.00
   -2    7    7     -0.36      0.00
   -1    7    7     -0.25      0.00
    0    7    7     -0.60      0.00
   -3    8    7     -0.33      0.00
   -2    8    7      0.70      0.00
   -1    8    7     -0.32      0.00
    0    8    7      0.22      0.00
   -4    9    7     -0.15      0.00
   -3    9    7     -0.02      0.00
   -2    9    7     -0.25      0.00
   -1    9    7      0.21      0.00
    0    9    7      0.09      0.00
   -4   10    7     -0.16      0.00
   -3   10    7      0.24      0.00
   -2   10    7      0.10      0.00
   -1   10    7     -0.11      0.00
    0   10    7      0.02      0.00
   -5   11    7      0.30      0.00
   -4   11    7     -0.08      0.00
   -3   11    7      0.01      0.00
   -2   11    7      0.11      0.00
    0    0    8      0.66      0.00
    0    1    8     -0.01      0.00
   -1    2    8     -0.11      0.00
    0    2    8     -0.14      0.00
   -1    3    8     -0.07      0.00
    0    3    8      0.02      0.00
   -2    4    8      0.39      0.00
   -1    4    8     -0.01      0.00
    0    4    8     -0.15      0.00
   -2    5    8      0.27      0.00
   -1    5    8     -0.13      0.00
    0    5    8      0.24      0.00
   -3    6    8     -0.31      0.00
   -2    6    8     -0.40      0.00
   -1    6    8     -0.01      0.00
    0    6    8     -0.21      0.00
   -3    7    8      0.15      0.00
   -2    7    8      0.32      0.00
   -1    7    8      0.10      0.00
    0    1    0     -9.72      0.00
    0    2    0     16.96      0.00
    0    3    0      5.78      0.00
    0    4    0     -2.70      0.00
   -4   19    0     -0.45      0.00
   -2    7    1     -0.06      0.00
   -6   19    2      0.17      0.00
   -4   17    4     -0.15      0.00
   -5   16    5     -0.77      0.00
   -1   13    6      0.25      0.00
   -4   14    6     -0.23      0.00
    0    7    8      0.02      0.00
   -4    8    8     -0.06      0.00
   -3    8    8     -0.06      0.00
    0    0    0      0.00      0.00
# SQUEEZE RESULTS (Version = 120716)
# Note: Data are Listed for all Voids in the P1 Unit Cell
# i.e. Centre of Gravity, Solvent Accessible Volume,
# Recovered number of Electrons in the Void and
# Details about the Squeezed Material
loop_
  _platon_squeeze_void_nr
  _platon_squeeze_void_average_x
  _platon_squeeze_void_average_y
  _platon_squeeze_void_average_z
  _platon_squeeze_void_volume
  _platon_squeeze_void_count_electrons
  _platon_squeeze_void_content
   1  0.000  0.500 -0.016       103        12 ' '
   2  0.500  0.000 -0.017       103        12 ' '
   3  0.500  0.500 -0.017       103        12 ' '
   4  0.667  0.333  0.250        21         1 ' '
   5  0.309  0.155  0.250         9         1 ' '
   6  0.845  0.155  0.250         9         1 ' '
   7  0.845  0.690  0.250         9         1 ' '
   8  0.333  0.667  0.750        21         1 ' '
   9  0.155  0.310  0.750         9         1 ' '
  10  0.155  0.845  0.750         9         1 ' '
  11  0.690  0.845  0.750         9         1 ' '
# Missing Reflections Below sin(th)/lambda = 0.25
loop_
  _platon_missing_refln_index_h
  _platon_missing_refln_index_k
  _platon_missing_refln_index_l
  _platon_missing_refln_theta
    0    1    0     3.196
    0    2    0     6.401
    0    3    0     9.627
    0    4    0    12.884
   -2    7    1    21.430
_platon_squeeze_void_probe_radius                  1.20
_platon_squeeze_details
)
TITL FJU-56-180DegreeP 63/m m c   R = 0.09
CELL   15.9688   15.9688    6.9541     90.00     90.00    120.00
SPGR P63/mmc
# Solvent Accessible Volume =       403
# Electrons Found in S.A.V. =        41
# Note: Atoms in Void as Cxxx and Qxxx all others
Q101 0.336 0.667 0.110 !       1.05 eA-3
Q102 1.001 1.002 0.155 !       0.91 eA-3
Q103 0.280 0.717 0.378 !       0.54 eA-3
Q104 0.953 0.033 0.011 !       0.51 eA-3
Q105 0.999 0.405 0.005 !       0.50 eA-3
)
;
_shelx_shelxl_version_number     2014/7
loop_
_space_group_symop_operation_xyz
'x, y, z'
'x-y, x, z+1/2'
'-y, x-y, z'
'-x, -y, z+1/2'
'-x+y, -x, z'
'y, -x+y, z+1/2'
'x-y, -y, -z'
'-x, -x+y, -z'
'y, x, -z'
'-y, -x, -z+1/2'
'-x+y, y, -z+1/2'
'x, x-y, -z+1/2'
'-x, -y, -z'
'-x+y, -x, -z-1/2'
'y, -x+y, -z'
'x, y, -z-1/2'
'x-y, x, -z'
'-y, x-y, -z-1/2'
'-x+y, y, z'
'x, x-y, z'
'-y, -x, z'
'y, x, z-1/2'
'x-y, -y, z-1/2'
'-x, -x+y, z-1/2'
loop_
_atom_site_label
_atom_site_type_symbol
_atom_site_fract_x
_atom_site_fract_y
_atom_site_fract_z
_atom_site_U_iso_or_equiv
_atom_site_adp_type
_atom_site_occupancy
_atom_site_site_symmetry_order
_atom_site_calc_flag
_atom_site_refinement_flags_posn
_atom_site_refinement_flags_adp
_atom_site_refinement_flags_occupancy
Co1 Co 0.0000 0.0000 0.5000 0.0222(5) Uani 1 12 d S T P
N2 N 0.2033(3) 0.10165(13) 0.5908(5) 0.0312(8) Uani 1 2 d S TU P
C1 C 0.2562(4) 0.1281(2) 0.7500 0.0311(12) Uani 1 4 d S TU P
C2 C 0.3626(5) 0.1813(2) 0.7500 0.0392(13) Uani 1 4 d S TU P
N1 N 0.1135(2) 0.05675(11) 0.6548(5) 0.0252(7) Uani 1 2 d S TU P
C5 C 0.5639(5) 0.2819(3) 0.7500 0.0620(18) Uani 1 4 d S TU P
N3 N 0.6667 0.3333 0.7500 0.068(2) Uani 1 12 d S TU P
C4 C 0.5145(6) 0.3036(6) 0.8806(16) 0.0646(15) Uani 0.5 1 d . U .
H4 H 0.5494 0.3524 0.9757 0.078 Uiso 0.5 1 d R U .
C3 C 0.4147(6) 0.2539(6) 0.8825(14) 0.0590(15) Uani 0.5 1 d . U .
H3 H 0.3800 0.2684 0.9771 0.071 Uiso 0.5 1 d R U .
loop_
_atom_site_aniso_label
_atom_site_aniso_U_11
_atom_site_aniso_U_22
_atom_site_aniso_U_33
_atom_site_aniso_U_23
_atom_site_aniso_U_13
_atom_site_aniso_U_12
Co1 0.0188(6) 0.0188(6) 0.0290(8) 0.000 0.000 0.0094(3)
N2 0.0227(15) 0.0274(13) 0.0421(19) 0.0023(7) 0.0045(14) 0.0114(8)
C1 0.023(2) 0.0241(17) 0.046(3) 0.000 0.000 0.0113(11)
C2 0.029(3) 0.0280(19) 0.061(3) 0.000 0.000 0.0144(13)
N1 0.0182(14) 0.0234(11) 0.0323(16) 0.0009(6) 0.0019(12) 0.0091(7)
C5 0.032(3) 0.028(2) 0.128(5) 0.000 0.000 0.0162(14)
N3 0.030(3) 0.030(3) 0.143(6) 0.000 0.000 0.0152(13)
C4 0.044(2) 0.050(3) 0.102(3) -0.009(3) -0.004(2) 0.025(2)
C3 0.041(2) 0.050(3) 0.086(3) -0.009(2) -0.001(2) 0.023(2)
loop_
_atom_type_symbol
_atom_type_description
_atom_type_scat_dispersion_real
_atom_type_scat_dispersion_imag
_atom_type_scat_source
C C 0.0181 0.0091 'International Tables Vol C Tables 4.2.6.8 and 6.1.1.4'
H H 0.0000 0.0000 'International Tables Vol C Tables 4.2.6.8 and 6.1.1.4'
Co Co -2.3653 3.6143 'International Tables Vol C Tables 4.2.6.8 and 6.1.1.4'
N N 0.0311 0.0180 'International Tables Vol C Tables 4.2.6.8 and 6.1.1.4'
loop_
_geom_angle_atom_site_label_1
_geom_angle_atom_site_label_2
_geom_angle_atom_site_label_3
_geom_angle
_geom_angle_site_symmetry_1
_geom_angle_site_symmetry_3
N1 Co1 N1 180.0 . 13_556
N1 Co1 N1 88.84(13) 3 17_556
N1 Co1 N1 88.84(13) . 17_556
N1 Co1 N1 91.16(13) 15_556 17_556
N1 Co1 N1 180.00(18) 15_556 3
N1 Co1 N1 88.84(13) 15_556 5
N1 Co1 N1 91.16(13) . 3
N1 Co1 N1 88.84(13) . 15_556
N1 Co1 N1 88.84(13) 13_556 3
N1 Co1 N1 91.16(13) . 5
N1 Co1 N1 180.00(15) 17_556 5
N1 Co1 N1 91.16(13) 13_556 15_556
N1 Co1 N1 91.16(13) 3 5
N1 Co1 N1 91.16(13) 13_556 17_556
N1 Co1 N1 88.84(13) 13_556 5
N1 N2 C1 103.7(4) . .
N2 C1 N2 113.1(5) . 12_556
N2 C1 C2 123.5(3) . .
N2 C1 C2 123.5(3) 12_556 .
C3 C2 C1 121.3(4) 16_557 .
C3 C2 C1 121.3(4) 20 .
C3 C2 C1 121.3(4) 12_556 .
C3 C2 C1 121.3(4) . .
C3 C2 C3 83.3(8) 20 12_556
C3 C2 C3 64.9(7) . 20
C3 C2 C3 117.4(8) . 12_556
C3 C2 C3 64.9(7) 16_557 12_556
C3 C2 C3 83.3(8) . 16_557
C3 C2 C3 117.4(8) 16_557 20
N2 N1 Co1 125.8(3) . .
N2 N1 N1 109.7(2) . 12_556
N1 N1 Co1 124.44(9) 12_556 .
C4 C5 N3 120.3(5) 16_557 .
C4 C5 N3 120.3(5) . .
C4 C5 N3 120.3(5) 20 .
C4 C5 N3 120.3(5) 12_556 .
C4 C5 C4 119.5(9) 16_557 20
C4 C5 C4 119.5(9) . 12_556
C4 C5 C4 66.1(8) 12_556 16_557
C4 C5 C4 84.1(9) . 16_557
C4 C5 C4 84.1(9) 12_556 20
C4 C5 C4 66.1(8) . 20
C5 N3 C5 119.998(2) 3_655 14_667
C5 N3 C5 120.0 3_655 .
C5 N3 C5 120.002(1) 14_667 .
C5 C4 C4 56.9(4) . 20
C5 C4 C4 48.0(4) . 16_557
C5 C4 H4 119.5 . .
C5 C4 C3 120.8(9) . .
C5 C4 C3 87.0(6) . 20
C4 C4 C4 90.000(1) 20 16_557
C4 C4 H4 133.5 16_557 .
C4 C4 H4 121.5 20 .
C4 C4 C3 90.4(5) 16_557 20
C4 C4 C3 42.9(3) 20 20
C3 C4 C4 90.5(7) . 16_557
C3 C4 C4 90.2(5) . 20
C3 C4 H4 119.7 . .
C3 C4 H4 136.1 20 .
C3 C4 C3 47.2(6) . 20
C2 C3 C4 87.5(5) . 20
C2 C3 C3 57.5(4) . 20
C2 C3 C3 48.3(4) . 16_557
C2 C3 H3 118.7 . .
C4 C3 C2 120.8(8) . .
C4 C3 C4 46.9(6) . 20
C4 C3 C3 89.5(7) . 16_557
C4 C3 C3 89.8(5) . 20
C4 C3 H3 120.5 . .
C4 C3 H3 137.1 20 .
C3 C3 C4 42.9(3) 20 20
C3 C3 C4 89.6(5) 16_557 20
C3 C3 C3 90.000(1) 20 16_557
C3 C3 H3 121.9 20 .
C3 C3 H3 133.3 16_557 .
loop_
_geom_bond_atom_site_label_1
_geom_bond_atom_site_label_2
_geom_bond_distance
_geom_bond_site_symmetry_2
Co1 N1 1.903(3) .
Co1 N1 1.903(3) 17_556
Co1 N1 1.903(3) 15_556
Co1 N1 1.903(3) 5
Co1 N1 1.903(3) 3
Co1 N1 1.903(3) 13_556
N2 C1 1.327(5) .
N2 N1 1.319(5) .
C1 N2 1.327(5) 12_556
C1 C2 1.472(9) .
C2 C3 1.386(9) 16_557
C2 C3 1.386(9) 12_556
C2 C3 1.386(9) .
C2 C3 1.386(9) 20
N1 N1 1.324(6) 12_556
C5 N3 1.421(7) .
C5 C4 1.356(10) 20
C5 C4 1.356(10) 16_557
C5 C4 1.356(10) 12_556
C5 C4 1.356(10) .
N3 C5 1.422(7) 3_655
N3 C5 1.421(8) 14_667
C4 C4 1.82(2) 16_557
C4 C4 1.480(17) 20
C4 H4 0.9600 .
C4 C3 2.026(12) 20
C4 C3 1.380(11) .
C3 C4 2.026(12) 20
C3 C3 1.487(17) 20
C3 C3 1.842(19) 16_557
C3 H3 0.9598 .
loop_
_geom_torsion_atom_site_label_1
_geom_torsion_atom_site_label_2
_geom_torsion_atom_site_label_3
_geom_torsion_atom_site_label_4
_geom_torsion
_geom_torsion_site_symmetry_1
_geom_torsion_site_symmetry_4
N2 C1 C2 C3 141.1(4) . .
N2 C1 C2 C3 38.9(4) 12_556 20
N2 C1 C2 C3 -141.1(4) 12_556 16_557
N2 C1 C2 C3 -141.1(4) . 20
N2 C1 C2 C3 38.9(4) . 16_557
N2 C1 C2 C3 141.1(4) 12_556 12_556
N2 C1 C2 C3 -38.9(4) 12_556 .
N2 C1 C2 C3 -38.9(4) . 12_556
C1 N2 N1 Co1 180.000(1) . .
C1 N2 N1 N1 0.000(1) . 12_556
C1 C2 C3 C4 -179.8(7) . .
C1 C2 C3 C4 145.5(3) . 20
C1 C2 C3 C3 -122.8(5) . 16_557
C1 C2 C3 C3 112.8(4) . 20
N1 N2 C1 N2 0.000(1) . 12_556
N1 N2 C1 C2 180.000(1) . .
C5 C4 C3 C2 -0.5(14) . .
C5 C4 C3 C4 50.7(8) . 20
C5 C4 C3 C3 -39.3(8) . 16_557
C5 C4 C3 C3 50.7(8) . 20
N3 C5 C4 C4 -112.3(5) . 20
N3 C5 C4 C4 121.7(5) . 16_557
N3 C5 C4 C3 -179.8(7) . .
N3 C5 C4 C3 -145.1(3) . 20
C4 C5 N3 C5 50.8(5) 20 3_655
C4 C5 N3 C5 129.2(5) 12_556 14_667
C4 C5 N3 C5 129.2(5) . 3_655
C4 C5 N3 C5 -129.2(5) 20 14_667
C4 C5 N3 C5 -50.8(5) 12_556 3_655
C4 C5 N3 C5 50.8(5) 16_557 14_667
C4 C5 N3 C5 -50.8(5) . 14_667
C4 C5 N3 C5 -129.2(5) 16_557 3_655
C4 C5 C4 C4 125.9(6) 16_557 20
C4 C5 C4 C4 -58.3(5) 12_556 16_557
C4 C5 C4 C4 67.7(5) 12_556 20
C4 C5 C4 C4 -125.9(6) 20 16_557
C4 C5 C4 C3 -32.8(6) 20 20
C4 C5 C4 C3 58.5(11) 16_557 .
C4 C5 C4 C3 93.2(6) 16_557 20
C4 C5 C4 C3 34.9(3) 12_556 20
C4 C5 C4 C3 -67.4(10) 20 .
C4 C5 C4 C3 0.2(7) 12_556 .
C4 C4 C3 C2 38.8(7) 16_557 .
C4 C4 C3 C2 -51.2(7) 20 .
C4 C4 C3 C4 90.001(5) 16_557 20
C4 C4 C3 C3 90.002(5) 16_557 20
C4 C4 C3 C3 0.000(0) 20 20
C4 C4 C3 C3 0.000(1) 16_557 16_557
C4 C4 C3 C3 -90.001(5) 20 16_557
C3 C2 C3 C4 67.5(10) 20 .
C3 C2 C3 C4 -57.0(10) 16_557 .
C3 C2 C3 C4 0.2(7) 12_556 .
C3 C2 C3 C4 32.8(6) 20 20
C3 C2 C3 C4 -91.7(5) 16_557 20
C3 C2 C3 C4 -34.5(3) 12_556 20
C3 C2 C3 C3 57.2(5) 12_556 16_557
C3 C2 C3 C3 124.5(6) 20 16_557
C3 C2 C3 C3 -124.5(6) 16_557 20
C3 C2 C3 C3 -67.2(4) 12_556 20
C3 C4 C3 C2 -51.2(7) 20 .
C3 C4 C3 C4 0.000(0) 20 20
C3 C4 C3 C3 -90.002(5) 20 16_557
