#------------------------------------------------------------------------------
#$Date: 2019-11-10 01:02:07 +0200 (Sun, 10 Nov 2019) $
#$Revision: 225487 $
#$URL: file:///home/coder/svn-repositories/cod/cif/4/51/53/4515324.cif $
#------------------------------------------------------------------------------
#
# This file is available in the Crystallography Open Database (COD),
# http://www.crystallography.net/
#
# All data on this site have been placed in the public domain by the
# contributors.
#
data_4515324
loop_
_publ_author_name
'Rouhani, Farzaneh'
'Morsali, Ali'
'Retailleau, Pascal'
_publ_section_title
;
 Simple One-Pot Preparation of a Rapid Response AIE Fluorescent
 Metal-Organic Framework.
;
_journal_issue                   42
_journal_name_full               'ACS applied materials &amp; interfaces'
_journal_page_first              36259
_journal_page_last               36266
_journal_paper_doi               10.1021/acsami.8b12404
_journal_volume                  10
_journal_year                    2018
_chemical_formula_moiety         'C22 H18 N4 O4 Zn, C3 H7 N O'
_chemical_formula_sum            'C25 H27 N5 O5 Zn'
_chemical_formula_weight         542.88
_space_group_crystal_system      monoclinic
_space_group_IT_number           14
_space_group_name_Hall           '-P 2ybc'
_space_group_name_H-M_alt        'P 1 21/c 1'
_atom_sites_solution_hydrogens   mixed
_atom_sites_solution_primary     direct
_audit_creation_date             2018-06-27
_audit_creation_method
;
Olex2 1.2
(compiled 2017.08.10 svn.r3458 for OlexSys, GUI svn.r5381)
;
_cell_angle_alpha                90
_cell_angle_beta                 90.627(2)
_cell_angle_gamma                90
_cell_formula_units_Z            4
_cell_length_a                   9.9194(7)
_cell_length_b                   16.8045(11)
_cell_length_c                   14.9034(10)
_cell_measurement_reflns_used    6457
_cell_measurement_temperature    173(2)
_cell_measurement_theta_max      65.3
_cell_measurement_theta_min      3.5
_cell_volume                     2484.1(3)
_computing_molecular_graphics    'Olex2 (Dolomanov et al., 2009)'
_computing_publication_material  'Olex2 (Dolomanov et al., 2009)'
_computing_structure_refinement  'ShelXL (Sheldrick, 2015)'
_computing_structure_solution    'ShelXS (Sheldrick, 2008)'
_diffrn_ambient_temperature      173
_diffrn_detector_area_resol_mean 10.42
_diffrn_measured_fraction_theta_full 0.998
_diffrn_measured_fraction_theta_max 0.997
_diffrn_measurement_device_type  'Bruker Photon 2'
_diffrn_measurement_method       '\f and \w shutterless scans'
_diffrn_radiation_monochromator  'silicon 111'
_diffrn_radiation_type           MoK\a
_diffrn_radiation_wavelength     0.71073
_diffrn_reflns_av_R_equivalents  0.0871
_diffrn_reflns_av_unetI/netI     0.0683
_diffrn_reflns_Laue_measured_fraction_full 0.998
_diffrn_reflns_Laue_measured_fraction_max 0.997
_diffrn_reflns_limit_h_max       11
_diffrn_reflns_limit_h_min       -12
_diffrn_reflns_limit_k_max       20
_diffrn_reflns_limit_k_min       -20
_diffrn_reflns_limit_l_max       18
_diffrn_reflns_limit_l_min       -18
_diffrn_reflns_number            23150
_diffrn_reflns_point_group_measured_fraction_full 0.998
_diffrn_reflns_point_group_measured_fraction_max 0.997
_diffrn_reflns_theta_full        25.242
_diffrn_reflns_theta_max         25.690
_diffrn_reflns_theta_min         2.384
_diffrn_source
;
Advanced Light Source, station 11.3.1
;
_exptl_absorpt_coefficient_mu    1.035
_exptl_absorpt_correction_T_max  0.792
_exptl_absorpt_correction_T_min  0.754
_exptl_absorpt_correction_type   multi-scan
_exptl_crystal_colour            clear
_exptl_crystal_colour_lustre     clear
_exptl_crystal_density_diffrn    1.452
_exptl_crystal_description       block
_exptl_crystal_F_000             1128
_exptl_crystal_size_max          0.1
_exptl_crystal_size_mid          0.07
_exptl_crystal_size_min          0.05
_refine_diff_density_max         0.569
_refine_diff_density_min         -0.705
_refine_diff_density_rms         0.083
_refine_ls_extinction_coef       0.0024(3)
_refine_ls_extinction_expression Fc^*^=kFc[1+0.001xFc^2^\l^3^/sin(2\q)]^-1/4^
_refine_ls_extinction_method     'SHELXL-2017/1 (Sheldrick 2017)'
_refine_ls_goodness_of_fit_ref   1.071
_refine_ls_hydrogen_treatment    constr
_refine_ls_matrix_type           full
_refine_ls_number_parameters     328
_refine_ls_number_reflns         4712
_refine_ls_number_restraints     4
_refine_ls_restrained_S_all      1.075
_refine_ls_R_factor_all          0.0859
_refine_ls_R_factor_gt           0.0554
_refine_ls_shift/su_max          0.001
_refine_ls_shift/su_mean         0.000
_refine_ls_structure_factor_coef Fsqd
_refine_ls_weighting_details
'w=1/[\s^2^(Fo^2^)+(0.0158P)^2^+6.9006P] where P=(Fo^2^+2Fc^2^)/3'
_refine_ls_weighting_scheme      calc
_refine_ls_wR_factor_gt          0.1057
_refine_ls_wR_factor_ref         0.1151
_reflns_Friedel_coverage         0.000
_reflns_number_gt                3508
_reflns_number_total             4712
_reflns_threshold_expression     'I > 2\s(I)'
_iucr_refine_instructions_details
;
TITL final1_a.res in P2(1)/c
    final1(1).res
    created by SHELXL-2017/1 at 00:20:55 on 27-Jun-2018
REM Old TITL final1 in P2(1)/c
REM SHELXT solution in P2(1)/c
REM R1 0.127, Rweak 0.012, Alpha 0.045, Orientation as input
REM Formula found by SHELXT: C26 N5 O4 Zn
CELL 0.71073 9.9194 16.8045 14.9034 90 90.627 90
ZERR 4 0.0007 0.0011 0.001 0 0.002 0
LATT 1
SYMM -X,0.5+Y,0.5-Z
SFAC C H N O Zn
UNIT 100 108 20 20 4
DELU 0.001 0.01 Zn01 O002
RIGU Zn01 O002

L.S. 4
PLAN  20
SIZE 0.1 0.05 0.07
TEMP -100.15
BOND $H
list 4
fmap 2
acta
REM <olex2.extras>
REM <HklSrc "%.\\final1%20(1).hkl">
REM </olex2.extras>

WGHT    0.015800    6.900600
EXTI    0.002400
FVAR       0.41982
ZN01  5    1.014667    0.746265    0.228510    11.00000    0.01783    0.02135 =
         0.01810   -0.00553   -0.00382    0.00031
O002  4    0.917310    0.628736    0.190421    11.00000    0.03503    0.02669 =
         0.02569   -0.01407    0.00288    0.00128
O003  4    1.112513    0.667961    0.139547    11.00000    0.03008    0.02606 =
         0.03387   -0.01159   -0.00703   -0.00110
O004  4    1.063808    0.852455    0.176108    11.00000    0.02944    0.03107 =
         0.02337    0.00377   -0.00610    0.00719
N005  3    0.168904    0.749867    0.325724    11.00000    0.01952    0.02511 =
         0.01508   -0.00190   -0.00373    0.00327
O006  4    0.900534    0.804326    0.090135    11.00000    0.03191    0.03206 =
         0.03782    0.00589   -0.00682   -0.00055
N007  3    0.857731    0.772182    0.311984    11.00000    0.01555    0.02323 =
         0.01818   -0.00421   -0.00649   -0.00068
N008  3    0.397169    0.803062    0.618009    11.00000    0.03273    0.02992 =
         0.01699    0.00004   -0.00049   -0.01063
AFIX   3
H008  2    0.360409    0.757812    0.629049    11.00000   -1.20000
AFIX   0
N009  3    0.647493    0.878419    0.587866    11.00000    0.02434    0.03922 =
         0.02204   -0.00758    0.00012   -0.01521
AFIX  43
H009  2    0.732449    0.892994    0.584075    11.00000   -1.20000
AFIX   0
C00A  1    0.916628    0.494687    0.073715    11.00000    0.01352    0.02203 =
         0.01657    0.00219    0.00367    0.00520
AFIX  43
H00A  2    0.859146    0.490962    0.124110    11.00000   -1.20000
AFIX   0
C00B  1    0.991865    0.931356    0.052449    11.00000    0.01919    0.02818 =
         0.01846   -0.00392   -0.00138    0.00692
C00C  1    0.671192    0.812369    0.445426    11.00000    0.01543    0.02610 =
         0.01923   -0.00251   -0.00877   -0.00024
C00D  1    0.274190    0.798458    0.310731    11.00000    0.01895    0.03204 =
         0.01425    0.00091   -0.00015    0.00540
AFIX  43
H00D  2    0.281665    0.822425    0.253268    11.00000   -1.20000
AFIX   0
C00E  1    0.371863    0.815196    0.374720    11.00000    0.01476    0.02929 =
         0.01790    0.00122   -0.00122   -0.00203
AFIX  43
H00E  2    0.443834    0.850276    0.360951    11.00000   -1.20000
AFIX   0
C00F  1    0.908089    0.438439    0.006287    11.00000    0.01379    0.01677 =
         0.02536    0.00329   -0.00154    0.00029
AFIX  43
H00F  2    0.845112    0.396062    0.010669    11.00000   -1.20000
AFIX   0
C00G  1    0.364736    0.780453    0.459833    11.00000    0.01333    0.02038 =
         0.02150   -0.00240    0.00125    0.00646
C00H  1    0.982860    0.857119    0.109021    11.00000    0.02079    0.03280 =
         0.02151   -0.00190    0.00320    0.00790
C00I  1    1.008407    0.556380    0.068228    11.00000    0.01794    0.01559 =
         0.01667    0.00081   -0.00264    0.00702
C00J  1    0.456911    0.804330    0.533236    11.00000    0.02062    0.02252 =
         0.01534   -0.00080   -0.00012    0.00236
C00K  1    0.585773    0.831263    0.522128    11.00000    0.02361    0.02514 =
         0.01780   -0.00275   -0.00304   -0.00112
C00L  1    0.671432    0.737163    0.405079    11.00000    0.01220    0.02299 =
         0.02832   -0.00100   -0.00621   -0.00126
AFIX  43
H00L  2    0.608326    0.697873    0.422968    11.00000   -1.20000
AFIX   0
C00M  1    0.917722    1.008651   -0.074250    11.00000    0.03453    0.03594 =
         0.02132    0.00210   -0.01197    0.00721
AFIX  43
H00M  2    0.861273    1.013987   -0.125804    11.00000   -1.20000
AFIX   0
C00N  1    0.856153    0.845252    0.348797    11.00000    0.02266    0.02625 =
         0.02280   -0.00600   -0.00325   -0.00757
AFIX  43
H00N  2    0.919331    0.883571    0.328557    11.00000   -1.20000
AFIX   0
C00O  1    0.162315    0.716067    0.406599    11.00000    0.01923    0.02391 =
         0.02393    0.00149   -0.00158   -0.00311
AFIX  43
H00O  2    0.088769    0.681563    0.418461    11.00000   -1.20000
AFIX   0
C00P  1    0.257104    0.728612    0.474287    11.00000    0.02400    0.02475 =
         0.01647    0.00157   -0.00130    0.00069
AFIX  43
H00P  2    0.248817    0.702048    0.530223    11.00000   -1.20000
AFIX   0
C00Q  1    0.763757    0.720415    0.339231    11.00000    0.01714    0.01898 =
         0.02844   -0.00603   -0.00772   -0.00091
AFIX  43
H00Q  2    0.760646    0.669463    0.311671    11.00000   -1.20000
AFIX   0
C00R  1    0.766628    0.866955    0.414751    11.00000    0.02771    0.02326 =
         0.02208   -0.00509   -0.00455   -0.00303
AFIX  43
H00R  2    0.769872    0.919083    0.439346    11.00000   -1.20000
AFIX   0
C00S  1    1.013243    0.620135    0.137881    11.00000    0.02649    0.02407 =
         0.01940   -0.00148   -0.00699    0.01042
C00T  1    0.908816    0.940662   -0.021350    11.00000    0.02825    0.03197 =
         0.03089    0.00054   -0.01308   -0.00657
AFIX  43
H00T  2    0.845067    0.900466   -0.036267    11.00000   -1.20000
AFIX   0

N00U  3    0.429091    0.459132    0.360854    11.00000    0.03903    0.03294 =
         0.06284    0.01303    0.01578   -0.00361
C00V  1    0.480683    0.830395    0.692420    11.00000    0.03646    0.03812 =
         0.01928   -0.00563   -0.00814   -0.00877
AFIX  23
H00B  2    0.541235    0.786963    0.712617    11.00000   -1.20000
H00C  2    0.422967    0.845737    0.743360    11.00000   -1.20000
AFIX   0
C00W  1    0.564559    0.902088    0.662550    11.00000    0.03846    0.03825 =
         0.02234   -0.00888    0.00123   -0.01073
AFIX  23
H00G  2    0.504214    0.946248    0.644213    11.00000   -1.20000
H00H  2    0.622317    0.920784    0.712876    11.00000   -1.20000
AFIX   0

O00X  4    0.575773    0.558799    0.390811    11.00000    0.16321    0.04674 =
         0.07148    0.01375   -0.03198   -0.04503
C00Y  1    0.546501    0.487971    0.385675    11.00000    0.09062    0.04569 =
         0.04488    0.01493   -0.00935   -0.02137
AFIX  43
H00Y  2    0.615014    0.450737    0.401053    11.00000   -1.20000
AFIX   0
C00Z  1    0.407605    0.373925    0.354848    11.00000    0.04097    0.04226 =
         0.09602    0.01250    0.00065   -0.01212
AFIX 137
H00I  2    0.385205    0.359550    0.292725    11.00000   -1.50000
H00J  2    0.333211    0.358629    0.393993    11.00000   -1.50000
H00K  2    0.489878    0.346019    0.373766    11.00000   -1.50000
AFIX   0
C010  1    0.318968    0.510857    0.338353    11.00000    0.05616    0.07937 =
         0.23198    0.08218    0.06398    0.01442
AFIX 137
H01A  2    0.339783    0.564992    0.358657    11.00000   -1.50000
H01B  2    0.237068    0.492080    0.367833    11.00000   -1.50000
H01C  2    0.304736    0.510876    0.273178    11.00000   -1.50000
AFIX   0
HKLF 4




REM  final1_a.res in P2(1)/c
REM R1 =  0.0554 for    3508 Fo > 4sig(Fo)  and  0.0859 for all    4712 data
REM    328 parameters refined using      4 restraints

END  
     
WGHT      0.0158      6.9005 

REM Highest difference peak  0.569,  deepest hole -0.705,  1-sigma level  0.083
Q1    1   0.4698  0.5881  0.4171  11.00000  0.05    0.57
Q2    1   0.8780  0.5970  0.1829  11.00000  0.05    0.52
Q3    1   0.2949  0.8159  0.6190  11.00000  0.05    0.51
Q4    1   0.9353  0.6588  0.2020  11.00000  0.05    0.46
Q5    1   1.0444  0.7492  0.3061  11.00000  0.05    0.46
Q6    1   0.7442  0.8502  0.6119  11.00000  0.05    0.43
Q7    1   1.0776  0.7974  0.2336  11.00000  0.05    0.33
Q8    1   0.9316  0.7579  0.2672  11.00000  0.05    0.31
Q9    1   1.0523  0.7032  0.2562  11.00000  0.05    0.31
Q10   1   0.9384  0.5467  0.0611  11.00000  0.05    0.30
Q11   1   0.2973  0.7832  0.4785  11.00000  0.05    0.29
Q12   1   0.4214  0.8078  0.5686  11.00000  0.05    0.29
Q13   1   0.2391  0.5057  0.3062  11.00000  0.05    0.28
Q14   1   0.3705  0.4841  0.3254  11.00000  0.05    0.28
Q15   1   0.8225  0.7401  0.3608  11.00000  0.05    0.28
Q16   1   0.3006  0.5137  0.2982  11.00000  0.05    0.28
Q17   1   0.3036  0.4991  0.1549  11.00000  0.05    0.28
Q18   1   0.5901  0.4259  0.4163  11.00000  0.05    0.26
Q19   1   0.1199  0.7436  0.3579  11.00000  0.05    0.26
Q20   1   0.3540  0.5903  0.4251  11.00000  0.05    0.26

  REM The information below was added by Olex2.
  REM
  REM R1 = 0.0554 for 3508 Fo > 4sig(Fo) and 0.0859 for all 23584 data
  REM n/a parameters refined using n/a restraints
  REM Highest difference peak 0.57, deepest hole -0.71
  REM Mean Shift 0, Max Shift -0.001.

  REM +++ Tabular Listing of Refinement Information +++
  REM R1_all = 0.0859
  REM R1_gt = 0.0554
  REM wR_ref = 0.1151
  REM GOOF = 1.071
  REM Shift_max = -0.001
  REM Shift_mean = 0
  REM Reflections_all = 23584
  REM Reflections_gt = 3508
  REM Parameters = n/a
  REM Hole = -0.71
  REM Peak = 0.57
  REM Flack = n/a

  
;
_cod_data_source_file            am8b12404_si_002.cif
_cod_data_source_block           final1(1)
_cod_database_code               4515324
_shelx_shelxl_version_number     2017/1
_shelx_space_group_comment
;
The symmetry employed for this shelxl refinement is uniquely defined
by the following loop, which should always be used as a source of
symmetry information in preference to the above space-group names.
They are only intended as comments.
;
_shelx_estimated_absorpt_t_max   0.950
_shelx_estimated_absorpt_t_min   0.904
_olex2_refinement_description
;
1. Fixed Uiso
 At 1.2 times of:
  All C(H) groups, All C(H,H) groups, All N(H) groups
 At 1.5 times of:
  All C(H,H,H) groups
2. Rigid bond restraints
 Zn01, O002
 with sigma for 1-2 distances of 0.001 and sigma for 1-3 distances of 0.01
3. Rigid body (RIGU) restrains
 Zn01, O002
 with sigma for 1-2 distances of 0.004 and sigma for 1-3 distances of 0.004
4.a Riding coordinates:
 N008(H008)
4.b Secondary CH2 refined with riding coordinates:
 C00V(H00B,H00C), C00W(H00G,H00H)
4.c Aromatic/amide H refined with riding coordinates:
 N009(H009), C00A(H00A), C00D(H00D), C00E(H00E), C00F(H00F), C00L(H00L),
 C00M(H00M), C00N(H00N), C00O(H00O), C00P(H00P), C00Q(H00Q), C00R(H00R),
 C00T(H00T), C00Y(H00Y)
4.d Idealised Me refined as rotating group:
 C00Z(H00I,H00J,H00K), C010(H01A,H01B,H01C)
;
_olex2_submission_special_instructions 'No special instructions were received'
loop_
_space_group_symop_operation_xyz
'x, y, z'
'-x, y+1/2, -z+1/2'
'-x, -y, -z'
'x, -y-1/2, z-1/2'
loop_
_atom_site_label
_atom_site_type_symbol
_atom_site_fract_x
_atom_site_fract_y
_atom_site_fract_z
_atom_site_U_iso_or_equiv
_atom_site_adp_type
_atom_site_occupancy
_atom_site_site_symmetry_order
_atom_site_calc_flag
_atom_site_refinement_flags_posn
_atom_site_refinement_flags_adp
Zn01 Zn 1.01467(4) 0.74626(3) 0.22851(3) 0.01912(15) Uani 1 1 d . U
O002 O 0.9173(3) 0.62874(16) 0.19042(19) 0.0291(7) Uani 1 1 d . U
O003 O 1.1125(3) 0.66796(16) 0.1395(2) 0.0301(7) Uani 1 1 d . .
O004 O 1.0638(3) 0.85246(16) 0.17611(19) 0.0280(7) Uani 1 1 d . .
N005 N 0.1689(3) 0.74987(19) 0.3257(2) 0.0199(7) Uani 1 1 d . .
O006 O 0.9005(3) 0.80433(17) 0.0901(2) 0.0340(7) Uani 1 1 d . .
N007 N 0.8577(3) 0.77218(18) 0.3120(2) 0.0190(7) Uani 1 1 d . .
N008 N 0.3972(4) 0.8031(2) 0.6180(2) 0.0265(8) Uani 1 1 d . .
H008 H 0.360409 0.757812 0.629049 0.032 Uiso 1 1 d R .
N009 N 0.6475(4) 0.8784(2) 0.5879(2) 0.0285(8) Uani 1 1 d . .
H009 H 0.732449 0.892994 0.584075 0.034 Uiso 1 1 calc R .
C00A C 0.9166(4) 0.4947(2) 0.0737(3) 0.0173(8) Uani 1 1 d . .
H00A H 0.859146 0.490962 0.124110 0.021 Uiso 1 1 calc R .
C00B C 0.9919(4) 0.9314(2) 0.0524(3) 0.0220(9) Uani 1 1 d . .
C00C C 0.6712(4) 0.8124(2) 0.4454(3) 0.0203(9) Uani 1 1 d . .
C00D C 0.2742(4) 0.7985(2) 0.3107(3) 0.0218(9) Uani 1 1 d . .
H00D H 0.281665 0.822425 0.253268 0.026 Uiso 1 1 calc R .
C00E C 0.3719(4) 0.8152(2) 0.3747(3) 0.0207(9) Uani 1 1 d . .
H00E H 0.443834 0.850276 0.360951 0.025 Uiso 1 1 calc R .
C00F C 0.9081(4) 0.4384(2) 0.0063(3) 0.0187(8) Uani 1 1 d . .
H00F H 0.845112 0.396062 0.010669 0.022 Uiso 1 1 calc R .
C00G C 0.3647(4) 0.7805(2) 0.4598(3) 0.0184(8) Uani 1 1 d . .
C00H C 0.9829(4) 0.8571(2) 0.1090(3) 0.0250(10) Uani 1 1 d . .
C00I C 1.0084(4) 0.5564(2) 0.0682(3) 0.0168(8) Uani 1 1 d . .
C00J C 0.4569(4) 0.8043(2) 0.5332(3) 0.0195(9) Uani 1 1 d . .
C00K C 0.5858(4) 0.8313(2) 0.5221(3) 0.0222(9) Uani 1 1 d . .
C00L C 0.6714(4) 0.7372(2) 0.4051(3) 0.0212(9) Uani 1 1 d . .
H00L H 0.608326 0.697873 0.422968 0.025 Uiso 1 1 calc R .
C00M C 0.9177(4) 1.0087(3) -0.0742(3) 0.0307(10) Uani 1 1 d . .
H00M H 0.861273 1.013987 -0.125804 0.037 Uiso 1 1 calc R .
C00N C 0.8562(4) 0.8453(2) 0.3488(3) 0.0239(9) Uani 1 1 d . .
H00N H 0.919331 0.883571 0.328557 0.029 Uiso 1 1 calc R .
C00O C 0.1623(4) 0.7161(2) 0.4066(3) 0.0224(9) Uani 1 1 d . .
H00O H 0.088769 0.681563 0.418461 0.027 Uiso 1 1 calc R .
C00P C 0.2571(4) 0.7286(2) 0.4743(3) 0.0217(9) Uani 1 1 d . .
H00P H 0.248817 0.702048 0.530223 0.026 Uiso 1 1 calc R .
C00Q C 0.7638(4) 0.7204(2) 0.3392(3) 0.0216(9) Uani 1 1 d . .
H00Q H 0.760646 0.669463 0.311671 0.026 Uiso 1 1 calc R .
C00R C 0.7666(4) 0.8670(2) 0.4148(3) 0.0244(9) Uani 1 1 d . .
H00R H 0.769872 0.919083 0.439346 0.029 Uiso 1 1 calc R .
C00S C 1.0132(4) 0.6201(2) 0.1379(3) 0.0234(9) Uani 1 1 d . .
C00T C 0.9088(4) 0.9407(3) -0.0213(3) 0.0305(10) Uani 1 1 d . .
H00T H 0.845067 0.900466 -0.036267 0.037 Uiso 1 1 calc R .
N00U N 0.4291(4) 0.4591(2) 0.3609(3) 0.0448(11) Uani 1 1 d . .
C00V C 0.4807(5) 0.8304(3) 0.6924(3) 0.0313(10) Uani 1 1 d . .
H00B H 0.541235 0.786963 0.712617 0.038 Uiso 1 1 calc R .
H00C H 0.422967 0.845737 0.743360 0.038 Uiso 1 1 calc R .
C00W C 0.5646(5) 0.9021(3) 0.6625(3) 0.0330(11) Uani 1 1 d . .
H00G H 0.504214 0.946248 0.644213 0.040 Uiso 1 1 calc R .
H00H H 0.622317 0.920784 0.712876 0.040 Uiso 1 1 calc R .
O00X O 0.5758(6) 0.5588(2) 0.3908(3) 0.0941(18) Uani 1 1 d . .
C00Y C 0.5465(7) 0.4880(3) 0.3857(4) 0.0605(17) Uani 1 1 d . .
H00Y H 0.615014 0.450737 0.401053 0.073 Uiso 1 1 calc R .
C00Z C 0.4076(6) 0.3739(3) 0.3548(5) 0.0598(17) Uani 1 1 d . .
H00I H 0.385205 0.359550 0.292725 0.090 Uiso 1 1 calc GR .
H00J H 0.333211 0.358629 0.393993 0.090 Uiso 1 1 calc GR .
H00K H 0.489878 0.346019 0.373766 0.090 Uiso 1 1 calc GR .
C010 C 0.3190(7) 0.5109(4) 0.3384(7) 0.122(4) Uani 1 1 d . .
H01A H 0.339783 0.564992 0.358657 0.183 Uiso 1 1 calc GR .
H01B H 0.237068 0.492080 0.367833 0.183 Uiso 1 1 calc GR .
H01C H 0.304736 0.510876 0.273178 0.183 Uiso 1 1 calc GR .
loop_
_atom_site_aniso_label
_atom_site_aniso_U_11
_atom_site_aniso_U_22
_atom_site_aniso_U_33
_atom_site_aniso_U_23
_atom_site_aniso_U_13
_atom_site_aniso_U_12
Zn01 0.0178(2) 0.0213(2) 0.0181(2) -0.0055(2) -0.00382(16) 0.0003(2)
O002 0.0350(18) 0.0267(13) 0.0257(16) -0.0141(12) 0.0029(14) 0.0013(11)
O003 0.0301(17) 0.0261(15) 0.0339(18) -0.0116(13) -0.0070(14) -0.0011(13)
O004 0.0294(17) 0.0311(16) 0.0234(16) 0.0038(13) -0.0061(14) 0.0072(13)
N005 0.0195(17) 0.0251(16) 0.0151(16) -0.0019(15) -0.0037(13) 0.0033(16)
O006 0.0319(18) 0.0321(17) 0.0378(19) 0.0059(14) -0.0068(15) -0.0005(14)
N007 0.0156(17) 0.0232(17) 0.0182(17) -0.0042(13) -0.0065(14) -0.0007(13)
N008 0.033(2) 0.0299(19) 0.0170(18) 0.0000(15) -0.0005(16) -0.0106(16)
N009 0.024(2) 0.039(2) 0.0220(19) -0.0076(16) 0.0001(16) -0.0152(16)
C00A 0.014(2) 0.022(2) 0.017(2) 0.0022(16) 0.0037(16) 0.0052(16)
C00B 0.019(2) 0.028(2) 0.018(2) -0.0039(17) -0.0014(18) 0.0069(17)
C00C 0.015(2) 0.026(2) 0.019(2) -0.0025(17) -0.0088(16) -0.0002(17)
C00D 0.019(2) 0.032(2) 0.014(2) 0.0009(17) -0.0002(17) 0.0054(18)
C00E 0.015(2) 0.029(2) 0.018(2) 0.0012(17) -0.0012(17) -0.0020(17)
C00F 0.014(2) 0.0168(19) 0.025(2) 0.0033(16) -0.0015(17) 0.0003(15)
C00G 0.013(2) 0.0204(19) 0.022(2) -0.0024(16) 0.0013(17) 0.0065(15)
C00H 0.021(2) 0.033(2) 0.022(2) -0.0019(18) 0.0032(19) 0.0079(19)
C00I 0.018(2) 0.0156(19) 0.017(2) 0.0008(15) -0.0026(17) 0.0070(16)
C00J 0.021(2) 0.023(2) 0.015(2) -0.0008(16) -0.0001(17) 0.0024(16)
C00K 0.024(2) 0.025(2) 0.018(2) -0.0027(17) -0.0030(17) -0.0011(17)
C00L 0.0122(19) 0.023(2) 0.028(2) -0.0010(17) -0.0062(16) -0.0013(16)
C00M 0.035(3) 0.036(2) 0.021(2) 0.0021(19) -0.012(2) 0.007(2)
C00N 0.023(2) 0.026(2) 0.023(2) -0.0060(17) -0.0033(18) -0.0076(18)
C00O 0.019(2) 0.024(2) 0.024(2) 0.0015(17) -0.0016(18) -0.0031(16)
C00P 0.024(2) 0.025(2) 0.016(2) 0.0016(16) -0.0013(17) 0.0007(16)
C00Q 0.017(2) 0.0190(19) 0.028(2) -0.0060(17) -0.0077(18) -0.0009(16)
C00R 0.028(2) 0.023(2) 0.022(2) -0.0051(17) -0.0046(18) -0.0030(18)
C00S 0.026(2) 0.024(2) 0.019(2) -0.0015(17) -0.0070(19) 0.0104(18)
C00T 0.028(2) 0.032(2) 0.031(3) 0.001(2) -0.013(2) -0.0066(19)
N00U 0.039(3) 0.033(2) 0.063(3) 0.013(2) 0.016(2) -0.0036(19)
C00V 0.036(3) 0.038(2) 0.019(2) -0.0056(19) -0.008(2) -0.009(2)
C00W 0.038(3) 0.038(3) 0.022(2) -0.0089(19) 0.001(2) -0.011(2)
O00X 0.163(5) 0.047(3) 0.071(3) 0.014(2) -0.032(3) -0.045(3)
C00Y 0.091(5) 0.046(3) 0.045(4) 0.015(3) -0.009(3) -0.021(3)
C00Z 0.041(3) 0.042(3) 0.096(5) 0.013(3) 0.001(3) -0.012(3)
C010 0.056(5) 0.079(5) 0.232(11) 0.082(6) 0.064(6) 0.014(4)
loop_
_atom_type_symbol
_atom_type_description
_atom_type_scat_dispersion_real
_atom_type_scat_dispersion_imag
_atom_type_scat_source
C C 0.0033 0.0016 'International Tables Vol C Tables 4.2.6.8 and 6.1.1.4'
H H 0.0000 0.0000 'International Tables Vol C Tables 4.2.6.8 and 6.1.1.4'
N N 0.0061 0.0033 'International Tables Vol C Tables 4.2.6.8 and 6.1.1.4'
O O 0.0106 0.0060 'International Tables Vol C Tables 4.2.6.8 and 6.1.1.4'
Zn Zn 0.2839 1.4301 'International Tables Vol C Tables 4.2.6.8 and 6.1.1.4'
loop_
_geom_angle_atom_site_label_1
_geom_angle_atom_site_label_2
_geom_angle_atom_site_label_3
_geom_angle
_geom_angle_site_symmetry_1
_geom_angle_site_symmetry_3
O002 Zn01 C00H 113.91(13) . .
O002 Zn01 C00S 29.68(11) . .
O003 Zn01 O002 59.84(10) . .
O003 Zn01 C00H 94.00(12) . .
O003 Zn01 C00S 30.35(12) . .
O004 Zn01 O002 141.29(11) . .
O004 Zn01 O003 101.20(12) . .
O004 Zn01 N005 93.71(12) . 1_655
O004 Zn01 N007 103.66(12) . .
O004 Zn01 C00H 28.82(13) . .
O004 Zn01 C00S 122.67(13) . .
N005 Zn01 O002 120.24(12) 1_655 .
N005 Zn01 O003 96.60(12) 1_655 .
N005 Zn01 C00H 122.42(13) 1_655 .
N005 Zn01 C00S 113.30(13) 1_655 .
N007 Zn01 O002 90.73(11) . .
N007 Zn01 O003 150.53(12) . .
N007 Zn01 N005 97.34(12) . 1_655
N007 Zn01 C00H 100.17(12) . .
N007 Zn01 C00S 120.36(13) . .
C00S Zn01 C00H 103.70(13) . .
C00S O002 Zn01 86.1(2) . .
C00S O003 Zn01 92.6(2) . .
C00H O004 Zn01 101.9(3) . .
C00D N005 Zn01 117.7(3) . 1_455
C00O N005 Zn01 124.7(3) . 1_455
C00O N005 C00D 117.0(3) . .
C00N N007 Zn01 117.0(3) . .
C00Q N007 Zn01 125.5(3) . .
C00Q N007 C00N 117.2(3) . .
C00J N008 H008 111.7 . .
C00J N008 C00V 116.1(3) . .
C00V N008 H008 111.9 . .
C00K N009 H009 121.7 . .
C00K N009 C00W 116.6(3) . .
C00W N009 H009 121.7 . .
C00F C00A H00A 119.8 . .
C00F C00A C00I 120.3(3) . .
C00I C00A H00A 119.8 . .
C00M C00B C00H 120.8(4) 3_775 .
C00T C00B C00H 120.1(4) . .
C00T C00B C00M 119.0(4) . 3_775
C00L C00C C00K 122.3(4) . .
C00R C00C C00K 120.8(3) . .
C00R C00C C00L 116.6(4) . .
N005 C00D H00D 118.4 . .
N005 C00D C00E 123.3(4) . .
C00E C00D H00D 118.4 . .
C00D C00E H00E 120.0 . .
C00D C00E C00G 119.9(4) . .
C00G C00E H00E 120.0 . .
C00A C00F H00F 119.9 . .
C00A C00F C00I 120.3(3) . 3_765
C00I C00F H00F 119.9 3_765 .
C00E C00G C00J 121.5(3) . .
C00P C00G C00E 116.5(4) . .
C00P C00G C00J 121.6(3) . .
O004 C00H Zn01 49.32(19) . .
O004 C00H C00B 116.6(4) . .
O006 C00H Zn01 73.5(2) . .
O006 C00H O004 122.8(4) . .
O006 C00H C00B 120.6(4) . .
C00B C00H Zn01 165.9(3) . .
C00A C00I C00F 119.4(3) . 3_765
C00A C00I C00S 120.9(3) . .
C00F C00I C00S 119.6(3) 3_765 .
N008 C00J C00G 113.6(3) . .
C00K C00J N008 121.3(4) . .
C00K C00J C00G 125.0(3) . .
N009 C00K C00C 114.7(3) . .
C00J C00K N009 120.4(3) . .
C00J C00K C00C 124.9(4) . .
C00C C00L H00L 120.2 . .
C00Q C00L C00C 119.6(4) . .
C00Q C00L H00L 120.2 . .
C00B C00M H00M 119.7 3_775 .
C00B C00M C00T 120.6(4) 3_775 .
C00T C00M H00M 119.7 . .
N007 C00N H00N 118.6 . .
N007 C00N C00R 122.8(4) . .
C00R C00N H00N 118.6 . .
N005 C00O H00O 118.2 . .
N005 C00O C00P 123.5(4) . .
C00P C00O H00O 118.2 . .
C00G C00P H00P 120.1 . .
C00O C00P C00G 119.7(4) . .
C00O C00P H00P 120.1 . .
N007 C00Q C00L 123.5(3) . .
N007 C00Q H00Q 118.2 . .
C00L C00Q H00Q 118.2 . .
C00C C00R H00R 119.9 . .
C00N C00R C00C 120.2(4) . .
C00N C00R H00R 119.9 . .
O002 C00S Zn01 64.2(2) . .
O002 C00S O003 120.7(4) . .
O002 C00S C00I 120.1(4) . .
O003 C00S Zn01 57.1(2) . .
O003 C00S C00I 119.1(4) . .
C00I C00S Zn01 168.3(3) . .
C00B C00T C00M 120.3(4) . .
C00B C00T H00T 119.8 . .
C00M C00T H00T 119.8 . .
C00Y N00U C00Z 120.8(5) . .
C00Y N00U C010 121.0(5) . .
C010 N00U C00Z 118.3(5) . .
N008 C00V H00B 109.8 . .
N008 C00V H00C 109.8 . .
N008 C00V C00W 109.5(3) . .
H00B C00V H00C 108.2 . .
C00W C00V H00B 109.8 . .
C00W C00V H00C 109.8 . .
N009 C00W C00V 108.8(3) . .
N009 C00W H00G 109.9 . .
N009 C00W H00H 109.9 . .
C00V C00W H00G 109.9 . .
C00V C00W H00H 109.9 . .
H00G C00W H00H 108.3 . .
N00U C00Y H00Y 117.1 . .
O00X C00Y N00U 125.8(6) . .
O00X C00Y H00Y 117.1 . .
N00U C00Z H00I 109.5 . .
N00U C00Z H00J 109.5 . .
N00U C00Z H00K 109.5 . .
H00I C00Z H00J 109.5 . .
H00I C00Z H00K 109.5 . .
H00J C00Z H00K 109.5 . .
N00U C010 H01A 109.5 . .
N00U C010 H01B 109.5 . .
N00U C010 H01C 109.5 . .
H01A C010 H01B 109.5 . .
H01A C010 H01C 109.5 . .
H01B C010 H01C 109.5 . .
loop_
_geom_bond_atom_site_label_1
_geom_bond_atom_site_label_2
_geom_bond_distance
_geom_bond_site_symmetry_2
Zn01 O002 2.268(3) .
Zn01 O003 2.112(3) .
Zn01 O004 2.010(3) .
Zn01 N005 2.096(3) 1_655
Zn01 N007 2.050(3) .
Zn01 C00H 2.594(4) .
Zn01 C00S 2.513(4) .
O002 C00S 1.247(5) .
O003 C00S 1.271(5) .
O004 C00H 1.278(5) .
N005 C00D 1.346(5) .
N005 C00O 1.335(5) .
O006 C00H 1.236(5) .
N007 C00N 1.345(5) .
N007 C00Q 1.341(5) .
N008 H008 0.8600 .
N008 C00J 1.402(5) .
N008 C00V 1.452(5) .
N009 H009 0.8800 .
N009 C00K 1.396(5) .
N009 C00W 1.447(5) .
C00A H00A 0.9500 .
C00A C00F 1.382(5) .
C00A C00I 1.383(5) .
C00B C00H 1.509(6) .
C00B C00M 1.386(6) 3_775
C00B C00T 1.376(6) .
C00C C00K 1.465(5) .
C00C C00L 1.400(5) .
C00C C00R 1.399(5) .
C00D H00D 0.9500 .
C00D C00E 1.381(6) .
C00E H00E 0.9500 .
C00E C00G 1.399(5) .
C00F H00F 0.9500 .
C00F C00I 1.395(5) 3_765
C00G C00J 1.474(6) .
C00G C00P 1.396(5) .
C00I C00S 1.492(5) .
C00J C00K 1.368(5) .
C00L H00L 0.9500 .
C00L C00Q 1.379(5) .
C00M H00M 0.9500 .
C00M C00T 1.391(6) .
C00N H00N 0.9500 .
C00N C00R 1.381(5) .
C00O H00O 0.9500 .
C00O C00P 1.388(6) .
C00P H00P 0.9500 .
C00Q H00Q 0.9500 .
C00R H00R 0.9500 .
C00T H00T 0.9500 .
N00U C00Y 1.311(7) .
N00U C00Z 1.450(6) .
N00U C010 1.433(8) .
C00V H00B 0.9900 .
C00V H00C 0.9900 .
C00V C00W 1.533(6) .
C00W H00G 0.9900 .
C00W H00H 0.9900 .
O00X C00Y 1.227(6) .
C00Y H00Y 0.9500 .
C00Z H00I 0.9800 .
C00Z H00J 0.9800 .
C00Z H00K 0.9800 .
C010 H01A 0.9800 .
C010 H01B 0.9800 .
C010 H01C 0.9800 .
loop_
_refln_index_h
_refln_index_k
_refln_index_l
_refln_F_squared_meas
_refln_F_squared_sigma
-2 0 0 8323.47 457.25
2 0 0 8454.85 457.45
-3 0 0 2791.52 151.28
3 0 0 2654.83 151.38
-4 0 0 20.5 6.4
-4 0 0 20.2 7.6
4 0 0 30 7
-5 0 0 600.34 38.8
-5 0 0 593.14 41.9
5 0 0 614.04 39.7
-6 0 0 89.89 14.9
-6 0 0 105.19 18.1
6 0 0 92.79 15.3
-7 0 0 680.43 46.1
-7 0 0 723.63 52.19
7 0 0 663.63 47.3
-8 0 0 601.54 43.9
-8 0 0 589.44 40.7
-8 0 0 575.84 49.2
8 0 0 692.73 47.1
-9 0 0 564.94 45.2
-9 0 0 596.34 52.19
-10 0 0 184.38 29.2
-10 0 0 245.98 41.4
-10 0 0 146.39 24.1
-11 0 0 207.58 41.1
-11 0 0 273.77 32.2
-12 0 0 409.26 66.39
-12 0 0 413.26 44.5
-12 0 1 -2.8 20.9
-12 0 1 84.39 40.5
-11 0 1 50.69 31.1
-11 0 1 -3.1 16.6
10 0 -1 -39.9 19.6
-10 0 1 -2.6 26.5
-10 0 1 -12.7 12.8
-10 0 1 -5.3 18
9 0 -1 -8.5 17.2
-9 0 1 -3.1 10.2
-9 0 1 2.5 14.9
8 0 -1 18.4 13.9
-8 0 1 -5.2 15
-8 0 1 -4.9 8.7
-8 0 1 -8.2 10.8
7 0 -1 -3.4 10.7
-7 0 1 -2.8 6.6
-7 0 1 -9.1 12.6
-7 0 1 10.2 9.8
6 0 -1 11.6 9.4
-6 0 1 2.6 7.6
-6 0 1 -4.4 5.1
-6 0 1 1.2 10.3
5 0 -1 -5.8 6.2
-5 0 1 12.6 6.9
-5 0 1 2.6 4.3
4 0 -1 -1.7 5
-4 0 1 -2 3.1
-4 0 1 6.1 4.9
3 0 -1 1.4 3.8
-3 0 1 3.6 3.7
-3 0 1 -0.4 2.3
2 0 -1 -1.2 2.2
-2 0 1 1.1 1.5
-2 0 1 -0.9 2.2
1 0 -1 0.3 0.6
1 0 -1 0 1.1
-1 0 1 0.4 0.7
-1 0 1 0.8 1.3
-1 0 -1 -0.2 1.2
1 0 1 2.6 1.5
-2 0 -1 -2.5 2.5
-2 0 -1 -0.1 2.5
-3 0 -1 4.5 4.1
-3 0 -1 -2.5 3.8
-4 0 -1 4 5.4
-4 0 -1 -7.5 5.7
4 0 1 2 5.2
-5 0 -1 -0.8 6.9
-5 0 -1 7.3 8.9
5 0 1 2.7 6.4
-6 0 -1 -1.6 9.4
-6 0 -1 -12.5 7.5
-7 0 -1 -4.4 11.6
-7 0 -1 -3.5 9.6
-8 0 -1 -3.9 12.1
-8 0 -1 -8.9 14.3
-9 0 -1 13.4 15.6
-9 0 -1 9.9 18.6
-10 0 -1 5 15.9
-10 0 -1 2.3 22.3
-10 0 -1 16.1 19.5
-11 0 -1 -15.1 35.5
-11 0 -1 7.7 19
-11 0 -1 -38.9 27.6
-12 0 -1 13.5 24.2
-12 0 -1 7.5 36.7
-12 0 2 69.19 40.3
-12 0 2 52.69 21.2
11 0 -2 73.59 29.7
-11 0 2 47.9 17.3
-11 0 2 19.2 32.2
10 0 -2 127.09 27.5
-10 0 2 128.49 20.2
-10 0 2 61.79 29.8
-10 0 2 153.88 25
9 0 -2 87.79 22.5
-9 0 2 80.09 26.5
-9 0 2 85.99 19
-9 0 2 99.39 14.6
8 0 -2 126.89 21.7
-8 0 2 122.89 20.8
-8 0 2 118.49 15.3
-8 0 2 118.59 25.1
7 0 -2 459.45 38.7
-7 0 2 538.25 33.2
-7 0 2 485.45 42.5
-7 0 2 529.65 36.4
6 0 -2 810.32 51.29
-6 0 2 747.83 48.9
-6 0 2 782.92 46.4
5 0 -2 154.48 17
-5 0 2 183.88 13.5
-5 0 2 182.88 16
4 0 -2 1373.16 81.09
-4 0 2 1425.46 78.49
-4 0 2 1399.96 80.29
3 0 -2 285.27 19.3
-3 0 2 276.27 17.1
-3 0 2 284.97 18.7
2 0 -2 113.49 9.4
-2 0 2 133.39 9.4
-2 0 2 132.29 8.4
1 0 -2 1957.6 107.19
1 0 -2 2008.2 107.59
-1 0 2 1904.31 107.49
-1 0 2 1956.4 107.19
0 0 -2 16.9 2.6
-1 0 -2 1400.26 69.29
1 0 2 1111.69 69.09
-2 0 -2 2773.32 147.89
2 0 2 2582.44 147.79
-3 0 -2 108.89 11.1
-3 0 -2 126.79 11.4
-4 0 -2 1641.84 94.09
-4 0 -2 1627.44 94.79
-5 0 -2 1361.06 85.79
-5 0 -2 1519.15 85.19
-6 0 -2 810.92 51.59
-6 0 -2 781.82 53.49
-7 0 -2 969.5 60.89
-7 0 -2 912.21 63.59
-8 0 -2 171.78 23.2
-8 0 -2 155.98 25.9
-9 0 -2 106.49 24
-9 0 -2 118.09 22.7
-10 0 -2 435.16 41.4
-10 0 -2 377.96 43.9
-11 0 -2 -12.7 23.7
-11 0 -2 16.2 21.6
-12 0 -2 67.39 28.1
-12 0 -2 67.79 41.2
11 0 -3 22.7 28.3
-11 0 3 54.79 33.7
-11 0 3 -12.2 22.9
-11 0 3 -8 14.5
10 0 -3 14.4 21.7
-10 0 3 16.7 18.7
-10 0 3 -17.7 26.7
9 0 -3 35.3 18.9
-9 0 3 -3.9 21.5
-9 0 3 -2.1 9.4
-9 0 3 8.3 14.3
8 0 -3 -14.8 14.2
-8 0 3 0.7 11.3
-8 0 3 1.7 16.5
-8 0 3 4.3 8.1
7 0 -3 -1.3 10.6
-7 0 3 -3.8 6
-7 0 3 10.3 9.3
6 0 -3 0.5 8.8
-6 0 3 14.9 8.1
-6 0 3 5.1 5
5 0 -3 2.4 6.8
-5 0 3 -2.5 3.7
-5 0 3 0.6 5.9
4 0 -3 3.4 5.2
-4 0 3 0.9 4.5
-4 0 3 0.9 2.9
3 0 -3 -2 3.6
3 0 -3 -3.1 2.1
-3 0 3 -1 2
-3 0 3 3 3.7
2 0 -3 1.9 2
2 0 -3 5.3 3.1
-2 0 3 1.9 2.8
-2 0 3 1.8 2.1
1 0 -3 0.9 1.9
1 0 -3 -0.1 2
-1 0 3 1.6 2.3
0 0 -3 0.1 2
0 0 3 2.2 2.4
-1 0 -3 -0.6 2.4
1 0 3 -0.3 1.4
-2 0 -3 1.1 2.5
2 0 3 0.2 2.8
-3 0 -3 0.5 3.5
3 0 3 5.3 4.6
-4 0 -3 -9.2 5.4
-4 0 -3 -4.6 4.7
-5 0 -3 6.9 7.7
-5 0 -3 -5.5 7.4
-6 0 -3 6.4 9.2
-6 0 -3 -9.4 9
-7 0 -3 -3.4 11.2
-7 0 -3 10.8 11.2
-8 0 -3 8.9 13.3
-8 0 -3 0.3 14.3
-9 0 -3 12.8 16.7
-9 0 -3 0.4 18.6
-10 0 -3 0.3 19.6
-10 0 -3 -6.3 20.5
11 0 -4 12.4 28.7
-11 0 4 33 22.6
-11 0 4 45.4 15.7
-11 0 4 -20.4 33.1
10 0 -4 52.19 25.2
-10 0 4 21.5 12
-10 0 4 45.9 30.5
-10 0 4 42.3 18.6
9 0 -4 190.48 29.8
-9 0 4 163.58 19.5
-9 0 4 235.18 27.5
-9 0 4 238.68 38
-8 0 4 7.9 11.3
-8 0 4 24 8.5
-8 0 4 6.7 19.3
7 0 -4 78.99 17.1
-7 0 4 103.19 15.9
-7 0 4 105.69 12
6 0 -4 9.7 9.5
-6 0 4 28.8 9.1
-6 0 4 25.7 6.3
5 0 -4 125.09 14.8
-5 0 4 126.59 13.9
-5 0 4 119.49 10.5
4 0 -4 1162.38 66.89
4 0 -4 1124.19 69.29
-4 0 4 1217.68 66.69
-4 0 4 1216.98 68.79
3 0 -4 179.28 14.5
3 0 -4 185.38 12.9
-3 0 4 210.38 14.8
2 0 -4 397.36 25.8
2 0 -4 456.45 27.2
-2 0 4 445.36 26.9
-2 0 4 463.05 26.4
1 0 -4 2078.89 118.49
1 0 -4 2293.97 118.89
-1 0 4 2050.09 118.79
0 0 -4 2871.01 154.08
0 0 4 2710.03 154.38
-1 0 -4 1820.12 98.99
1 0 4 1842.62 97.19
1 0 4 1621.74 98.69
-2 0 -4 3078.89 172.68
2 0 4 3210.68 172.98
-3 0 -4 1791.52 89.29
3 0 4 1362.26 88.89
-4 0 -4 3527.55 196.38
-5 0 -4 70.39 12.8
-5 0 -4 76.09 13.3
-6 0 -4 839.42 55.39
-6 0 -4 876.21 55.89
-7 0 -4 159.28 22.4
-7 0 -4 90.19 17.2
-8 0 -4 346.07 33.5
-8 0 -4 275.47 31.4
-9 0 -4 692.23 55.69
-9 0 -4 747.13 56.59
-10 0 -4 131.89 35
-11 0 -4 289.57 47.4
11 0 -5 1.8 28.9
-11 0 5 13.4 35.6
-11 0 5 -8.2 14.7
10 0 -5 -30 22.8
-10 0 5 -36.3 29.4
-10 0 5 -18.9 11.3
-10 0 5 -0.9 18.5
9 0 -5 23.5 19.7
-9 0 5 6.7 14.5
-9 0 5 17.3 9.8
-9 0 5 41.2 23.5
8 0 -5 6.2 15.1
-8 0 5 -2.2 12.4
-8 0 5 2.8 7.6
7 0 -5 9.2 12.1
-7 0 5 6.1 6.7
-7 0 5 -3.5 10.1
6 0 -5 12.3 10
-6 0 5 7 8.6
-6 0 5 -4.4 5
5 0 -5 -1.5 4.2
5 0 -5 1.1 7.3
-5 0 5 11.6 7.5
-5 0 5 2.6 4.6
4 0 -5 17.2 7
4 0 -5 3.2 3.8
-4 0 5 3.7 4.1
-4 0 5 8.1 6.1
3 0 -5 1.1 4.5
3 0 -5 2 3.4
-3 0 5 -6.7 3.5
-3 0 5 4 4.8
2 0 -5 1.5 3.2
2 0 -5 5.2 3.9
-2 0 5 1.5 4
1 0 -5 -0.4 3.4
1 0 -5 -2.5 3.2
-1 0 5 2.1 3.8
0 0 -5 -5.1 3.1
0 0 5 0 3.9
-1 0 -5 -2.2 4.1
1 0 5 -1.6 4.1
-2 0 -5 1.6 4.9
2 0 5 2.2 2.9
-3 0 -5 3 3.4
3 0 5 -0.9 4.2
-4 0 -5 0.7 5
-5 0 -5 -1.7 6.4
-6 0 -5 2.6 9
-6 0 -5 -0.2 10.4
-7 0 -5 -8.4 12.8
-7 0 -5 -1.9 11
-8 0 -5 20.7 14.9
-8 0 -5 15.9 16
-9 0 -5 -25.5 18
-9 0 -5 -34.8 16.1
-11 0 -5 -41.1 24.9
11 0 -6 3.3 32
-11 0 6 17 37.2
-11 0 6 -8.6 24.5
10 0 -6 -27.3 23.2
-10 0 6 9.6 12.5
-10 0 6 40.2 33.8
9 0 -6 64.59 22.3
-9 0 6 -29.2 24.1
-9 0 6 31.7 16.3
-9 0 6 23.7 11
8 0 -6 110.09 23
-8 0 6 96.99 15.1
-8 0 6 91.69 18
7 0 -6 334.77 31.1
-7 0 6 352.06 28.2
-7 0 6 343.57 24.6
6 0 -6 392.16 26.5
6 0 -6 405.46 31.5
-6 0 6 372.26 29.3
-6 0 6 407.06 26.6
5 0 -6 250.67 22.9
5 0 -6 269.57 18.7
-5 0 6 250.37 20.7
-5 0 6 254.47 18.9
4 0 -6 350.56 25.3
4 0 -6 356.96 22.8
-4 0 6 347.67 24.7
-4 0 6 342.77 23.1
3 0 -6 1911.91 102.39
3 0 -6 1840.22 104.09
-3 0 6 1696.03 102.49
-3 0 6 1860.31 103.69
2 0 -6 350.36 23.6
2 0 -6 368.66 23.1
-2 0 6 345.57 23.6
1 0 -6 1030.1 60.19
1 0 -6 1052.49 60.19
-1 0 6 1025.6 60.19
0 0 -6 73.69 9.3
0 0 6 75.59 9.2
-1 0 -6 215.08 16.3
1 0 6 199.38 16.8
-2 0 -6 1014.3 56.99
2 0 6 888.61 53.69
-3 0 -6 3670.43 180.68
-3 0 -6 3381.76 183.78
3 0 6 2773.12 180.58
-4 0 -6 853.61 47
4 0 6 703.63 47.4
-5 0 -6 917.11 55.69
-6 0 -6 1260.77 78.19
-6 0 -6 1356.06 81.29
-7 0 -6 776.12 53.89
-7 0 -6 748.63 51.39
-8 0 -6 303.77 34.2
-8 0 -6 255.07 29.1
-9 0 -6 735.33 55.79
-10 0 -6 362.46 40.8
11 0 -7 -40.9 32.8
-11 0 7 9.5 39.4
10 0 -7 13.4 25.6
-10 0 7 -28.7 30.2
-10 0 7 27 14.5
9 0 -7 49.8 22.2
-9 0 7 -28.7 26.8
-9 0 7 38.5 17.4
-9 0 7 18.8 12
8 0 -7 7.4 16.8
-8 0 7 3.4 9.5
-8 0 7 11.9 13.9
-7 0 7 22.2 11.8
-7 0 7 10.2 8.7
6 0 -7 17.2 11.1
6 0 -7 17.3 6.9
-6 0 7 3.4 7.3
-6 0 7 12.9 9.1
5 0 -7 -4 4.9
5 0 -7 10.7 8.6
-5 0 7 4 8
-5 0 7 -1.8 6.4
4 0 -7 -0.6 6.7
4 0 -7 -1.5 4.5
-4 0 7 -0.4 5.3
-4 0 7 0.2 7.4
3 0 -7 8.6 6.3
3 0 -7 -0.2 3.9
-3 0 7 1 6.5
2 0 -7 -2.8 5.1
2 0 -7 -1 4.7
-2 0 7 -0.5 5.5
1 0 -7 0 4.7
1 0 -7 1.5 4.8
-1 0 7 4.9 5.7
0 0 -7 5.7 5.2
0 0 7 -2.7 5.4
-1 0 -7 3.1 5.8
1 0 7 -0.4 6.1
-2 0 -7 7.7 6.6
2 0 7 -1.5 3.5
-3 0 -7 -2.3 7.6
3 0 7 4 5
-4 0 -7 4 5
-4 0 -7 8.1 9.1
4 0 7 -0.5 6.3
-5 0 -7 -4.1 5.8
-6 0 -7 6.4 8.2
-7 0 -7 -13.9 14.2
-7 0 -7 -3.8 10.3
-8 0 -7 -9.3 18.1
-8 0 -7 -16.3 12.8
-9 0 -7 20.3 17.3
-10 0 -7 -5.2 23.8
10 0 -8 67.09 30.9
-10 0 8 -14.8 33.4
-10 0 8 5.7 16.1
9 0 -8 -9.8 22.4
-9 0 8 43.4 18.5
-9 0 8 -23.9 31
-9 0 8 15.3 12.8
8 0 -8 21.9 18.3
-8 0 8 81.19 17.8
-8 0 8 43.9 13
7 0 -8 21.8 9.3
7 0 -8 20.4 16.8
-7 0 8 42 13.9
-7 0 8 52.69 11.1
6 0 -8 172.78 16.2
6 0 -8 177.18 21.9
-6 0 8 164.78 20.3
-6 0 8 158.38 17.8
5 0 -8 104.19 12.5
5 0 -8 121.79 17.9
-5 0 8 139.09 17.2
4 0 -8 76.39 13.3
4 0 -8 102.99 11.1
-4 0 8 88.09 13.4
3 0 -8 157.28 13.3
3 0 -8 136.49 14.9
-3 0 8 135.79 14.8
2 0 -8 2389.06 133.89
2 0 -8 2332.67 133.19
-2 0 8 2382.36 133.99
1 0 -8 152.88 14.6
1 0 -8 140.59 15
-1 0 8 169.48 15.9
0 0 -8 3.7 5.9
0 0 8 14 7.9
-1 0 -8 75.19 12
1 0 8 99.19 14.2
-2 0 -8 103.49 13.6
2 0 8 86.79 9.3
-3 0 -8 218.68 20.2
3 0 8 164.18 17.5
-4 0 -8 16.8 10.3
4 0 8 16.8 7.5
-5 0 -8 1747.83 95.69
-5 0 -8 1575.94 99.99
-6 0 -8 319.17 25.7
-6 0 -8 354.06 31.8
-7 0 -8 787.92 50.79
-7 0 -8 750.52 56.09
-8 0 -8 954.6 62.69
-9 0 -8 201.48 29.1
10 0 -9 -13.4 27.7
-10 0 9 17.9 17.3
-10 0 9 35.6 39.2
9 0 -9 6.5 23.5
-9 0 9 21.2 19.1
-9 0 9 -10.7 30.8
-9 0 9 -3 14.1
8 0 -9 5.7 17.9
-8 0 9 22.7 12.9
-8 0 9 -6 15
7 0 -9 -6.2 8.6
7 0 -9 -11.2 14.2
-7 0 9 0.4 12.4
-7 0 9 -14 11
6 0 -9 0.4 7.4
-6 0 9 9.2 11.2
5 0 -9 -3 10.3
5 0 -9 -4.1 6.4
-5 0 9 -0.3 10.2
4 0 -9 6.2 6.4
4 0 -9 13 8.9
3 0 -9 14.3 8.1
3 0 -9 7.2 6.1
-3 0 9 -1.7 8.1
2 0 -9 8.1 6.9
2 0 -9 7.8 7.8
-2 0 9 -10.5 7.6
1 0 -9 4.8 7
1 0 -9 4 7
-1 0 9 7.7 8.4
0 0 -9 11.7 7.4
0 0 9 7.1 7.9
-1 0 -9 -4.2 7
1 0 9 -0.3 8
-2 0 -9 -10.2 8.1
-3 0 -9 5.6 9.4
-4 0 -9 5.5 10.6
4 0 9 -1.1 7.2
-5 0 -9 -2.1 12.2
-6 0 -9 1.3 7.9
-6 0 -9 13.4 15.3
-7 0 -9 13.4 10.2
-7 0 -9 -13.8 16.4
-8 0 -9 -13.5 12
-8 0 -9 54.59 22.7
-10 0 -9 7.3 21.3
10 0 -10 3.2 31.8
-10 0 10 46.4 43.1
9 0 -10 3 24.9
-9 0 10 -10.6 33
8 0 -10 22.5 22
-8 0 10 29.7 18.6
7 0 -10 29.9 17.8
7 0 -10 7.4 9.8
-7 0 10 21.5 16.1
6 0 -10 43.1 10.6
6 0 -10 43.1 16.2
-6 0 10 35.4 14.4
5 0 -10 93.09 13.6
5 0 -10 80.39 16.5
-5 0 10 88.59 15.6
4 0 -10 26.7 8.6
4 0 -10 18.7 10.9
-4 0 10 16.6 10.5
3 0 -10 20.6 8.2
3 0 -10 30.8 10.3
2 0 -10 9.8 7.9
2 0 -10 9.1 8.8
-2 0 10 12 9.3
1 0 -10 6.6 8.2
1 0 -10 6.3 7.9
-1 0 10 -1.2 8.4
0 0 -10 30.3 9.6
0 0 10 26.8 10.4
-1 0 -10 65.09 12.8
1 0 10 56.79 13.3
-2 0 -10 368.96 27.9
2 0 10 315.97 22.5
-3 0 -10 767.22 47
3 0 10 591.84 45.3
-4 0 -10 223.58 25.3
4 0 10 252.47 20.1
-5 0 -10 372.86 48.1
-6 0 -10 103.09 21.3
-7 0 -10 542.65 49.3
-8 0 -10 219.98 33.9
-9 0 -10 171.58 35.4
-9 0 -10 189.18 27.9
-10 0 -10 13.2 36.6
9 0 -11 -14.1 26.8
-9 0 11 7.4 25.8
-9 0 11 -50.49 34.2
8 0 -11 9.8 12.4
8 0 -11 3.3 23.4
-8 0 11 19.9 20.9
7 0 -11 26.9 11.2
7 0 -11 -6.1 17.3
-7 0 11 23.2 16.3
6 0 -11 -2.8 15.7
6 0 -11 10.6 10.1
-6 0 11 9.5 14.6
5 0 -11 -4 12.6
5 0 -11 -1.9 8.2
-5 0 11 16.7 12.9
4 0 -11 13.8 8.6
4 0 -11 9.9 11.8
-4 0 11 20.7 12.3
3 0 -11 -2.5 8.3
3 0 -11 6.1 9.8
-3 0 11 -7.5 10.9
2 0 -11 4.6 9.2
2 0 -11 2.7 9
-2 0 11 -9.3 9.9
1 0 -11 9.3 9.5
1 0 -11 -3 9.6
-1 0 11 17 13.6
0 0 -11 9.4 10
0 0 11 10.6 22.1
-1 0 -11 -7.4 10.3
1 0 11 -4.3 11.9
-2 0 -11 -5.6 10.8
2 0 11 11.4 6.5
-3 0 -11 -10.4 11.2
3 0 11 -1.4 7.3
-4 0 -11 -12 20.2
4 0 11 4.8 8.1
-5 0 -11 -3 15.7
-6 0 -11 57.49 20.6
-7 0 -11 15.6 21
-8 0 -11 -17.5 24.6
-9 0 -11 1.5 31.1
9 0 -12 98.19 36
-9 0 12 78.59 46.5
8 0 -12 422.26 46.5
7 0 -12 118.99 25.7
7 0 -12 120.19 20.5
-7 0 12 94.99 22.8
6 0 -12 186.98 27.8
-6 0 12 176.08 28.5
5 0 -12 159.88 26
5 0 -12 203.48 20.9
-5 0 12 192.18 27.1
4 0 -12 353.16 27.5
4 0 -12 337.37 30.6
-4 0 12 333.37 30.8
3 0 -12 83.49 14
-3 0 12 61.59 16.6
2 0 -12 524.35 36.4
2 0 -12 491.45 36.9
-2 0 12 478.65 37.5
1 0 -12 4.5 11.1
1 0 -12 -6 10
-1 0 12 8.4 12.2
0 0 -12 37.4 12.9
0 0 -12 11.8 11
0 0 12 22.7 13.9
-1 0 -12 745.13 49.8
1 0 12 727.23 51.39
-2 0 -12 50.79 14.6
2 0 12 27.9 8.4
-3 0 -12 96.89 19
3 0 12 63.99 10.8
-4 0 -12 190.28 25.1
4 0 12 124.19 20.1
-5 0 -12 -6.4 16.3
-6 0 -12 -9.8 20
-7 0 -12 -0.9 23.5
-8 0 -12 -0.8 29.6
8 0 -13 36.1 29.5
-8 0 13 -12.4 23.7
7 0 -13 -10.7 21.9
-7 0 13 24 24.5
6 0 -13 -1.3 11.5
6 0 -13 0 18.1
-6 0 13 4.2 18.6
5 0 -13 10.6 16.5
5 0 -13 -0.8 11.3
-5 0 13 -2.1 17.3
4 0 -13 15.3 14.3
4 0 -13 0.4 11.1
-4 0 13 -17.1 15.7
3 0 -13 1.3 10.7
3 0 -13 -29 11.1
-3 0 13 11.7 14.7
2 0 -13 8.9 12.6
2 0 -13 -2.5 11.8
-2 0 13 18.1 14.6
1 0 -13 -14.4 12.3
1 0 -13 -21.3 11.2
-1 0 13 11.2 15.1
0 0 -13 4.3 12.9
0 0 -13 6.8 12.6
0 0 13 -18.3 13.2
-1 0 -13 13.4 13.2
-2 0 -13 0.6 13.7
2 0 13 -6.3 7.8
-3 0 -13 5.2 16.2
3 0 13 13.5 12.2
-4 0 -13 27.1 17
-5 0 -13 15.3 18.1
-6 0 -13 0.7 22.1
-7 0 -13 -23.3 23.6
-8 0 -13 18.2 30.6
7 0 -14 95.79 29.2
6 0 -14 147.39 28.1
-6 0 14 125.69 26.1
5 0 -14 144.69 24.4
-5 0 14 116.69 26.3
4 0 -14 227.88 31
-4 0 14 230.48 33
3 0 -14 11.8 15.2
3 0 -14 18.7 14
-3 0 14 9.1 17
2 0 -14 161.58 24.8
2 0 -14 214.18 26.7
-2 0 14 218.48 30.4
1 0 -14 230.58 26.2
1 0 -14 200.88 27.6
-1 0 14 211.78 30.9
0 0 -14 -1.7 13.6
0 0 14 28.9 17.5
-1 0 -14 283.67 29.5
-2 0 -14 3.1 15.8
2 0 14 12.4 9.3
-3 0 -14 124.29 23.7
-4 0 -14 90.59 22.6
-5 0 -14 60.39 24.1
-6 0 -14 99.59 28.6
-7 0 -14 24 29.1
6 0 -15 -17.1 23.7
5 0 -15 0.8 21.3
5 0 -15 -3.3 14.6
-5 0 15 38.3 23.6
4 0 -15 11.5 20
4 0 -15 11.3 15
-4 0 15 16.9 22.9
3 0 -15 -8.4 16.9
-3 0 15 -14 19.3
2 0 -15 23.7 16.4
2 0 -15 -18.6 15.2
-2 0 15 -14.2 19.1
1 0 -15 31 16.9
1 0 -15 -4.6 16.4
-1 0 15 -3.5 19.2
0 0 -15 -3.4 16.7
0 0 -15 29 17
0 0 15 30.7 20.3
-1 0 -15 -20.8 25.7
-1 0 -15 -7.4 15.8
1 0 15 11.9 11.5
-2 0 -15 1 16.7
2 0 15 -1.7 10.2
-3 0 -15 6.8 18.8
-4 0 -15 -17.6 21
-6 0 -15 57.69 29.9
5 0 -16 278.77 32.2
5 0 -16 312.37 43.3
4 0 -16 157.88 29.8
4 0 -16 227.78 30.3
3 0 -16 115.49 21.6
3 0 -16 66.59 22.7
-3 0 16 133.89 27.1
2 0 -16 28.8 19.4
2 0 -16 20 18.7
-2 0 16 17.3 23.4
1 0 -16 12.2 19.9
1 0 -16 18.4 18.2
-1 0 16 61.79 23.8
0 0 -16 26.5 18.9
0 0 -16 28.8 19.8
0 0 16 8.3 25.7
-1 0 -16 2.6 19
1 0 16 26.7 13.7
-2 0 -16 75.39 22.5
2 0 16 50.89 13.1
-3 0 -16 40.1 24.1
-4 0 -16 -26.4 24.7
-5 0 -16 14.2 27.9
4 0 -17 -36.2 24.5
-4 0 17 91.19 31
3 0 -17 -13.4 24
3 0 -17 10.4 23.9
2 0 -17 -27.2 21.3
2 0 -17 32.7 22.2
1 0 -17 32.1 21.4
1 0 -17 -30.4 21.7
-1 0 17 8.9 31
0 0 -17 -4.3 20
0 0 -17 -57.29 20.2
-1 0 -17 -19.5 20.6
-1 0 -17 18.9 22.4
1 0 17 18.8 14.3
-2 0 -17 -25.5 25.5
-2 0 -17 43.6 23
2 0 17 25.9 15
-3 0 -17 4.7 24.4
-4 0 -17 -12.3 26.3
1 0 -18 90.19 29.4
-1 0 18 64.99 33.8
0 0 -18 -6.7 26.3
0 0 -18 18.8 26.8
-1 0 -18 123.09 30
-1 0 -18 133.29 29.6
-1 -1 -18 75.29 31
-1 -1 -18 67.99 28.3
0 -1 -18 101.49 30.3
0 -1 -18 45.4 29.5
1 -1 -18 37.4 27.3
-4 -1 -17 -23.9 26.9
-3 -1 -17 24.5 26.7
-2 -1 -17 40.3 24.1
1 1 17 5.9 11.6
-1 -1 -17 -27.1 21.9
-1 -1 -17 -6.3 21.8
0 -1 -17 13.5 21.2
0 -1 -17 54.39 24
-1 1 17 23.9 27.3
1 -1 -17 20.9 21
1 -1 -17 -18.2 21.5
-2 1 17 12.6 28.6
2 -1 -17 57.29 23.4
2 -1 -17 53.89 23.5
3 -1 -17 36 20.7
3 -1 -17 -1.4 23.9
4 -1 -17 110.39 28
4 -1 -17 53.69 22.2
-5 -1 -16 156.48 34
-4 -1 -16 389.46 44.7
-3 -1 -16 154.08 29.2
-2 -1 -16 335.37 40.2
1 1 16 141.49 19.6
-1 -1 -16 208.98 32.5
-1 -1 -16 130.59 27.2
0 -1 -16 116.39 23.6
0 -1 -16 51.39 21.3
-1 1 16 330.47 42.2
1 -1 -16 384.86 38.1
1 -1 -16 305.57 35.9
-2 1 16 43.1 23.7
2 -1 -16 96.69 21.1
2 -1 -16 66.69 21
-3 1 16 123.59 29.1
3 -1 -16 183.78 29.1
3 -1 -16 130.09 26
-4 1 16 160.08 32.5
4 -1 -16 223.28 34.6
4 -1 -16 261.87 29.7
5 -1 -16 9.9 25
-6 -1 -15 -30.8 26.1
-5 -1 -15 10.8 23.3
-4 -1 -15 18.9 22.3
-3 -1 -15 62.89 22.2
2 1 15 1.6 7.3
-2 -1 -15 26.6 18.8
1 1 15 93.09 16.3
-1 -1 -15 96.09 21.9
0 -1 -15 88.09 20.9
0 -1 -15 38 18.9
-1 1 15 92.69 24.8
1 -1 -15 101.89 20.4
1 -1 -15 117.59 23.4
-2 1 15 39.2 21.4
2 -1 -15 33 17.3
-3 1 15 15.7 21.6
3 -1 -15 4.5 18.3
-4 1 15 -13.4 21.9
4 -1 -15 29.1 16.2
4 -1 -15 45.9 19.2
-5 1 15 1.2 22.5
5 -1 -15 -19.1 20.2
6 -1 -15 -11.3 23.5
-7 -1 -14 179.58 37
-6 -1 -14 175.98 33.5
-5 -1 -14 260.37 38.3
-4 -1 -14 227.78 32.4
-3 -1 -14 677.73 51.69
2 1 14 554.84 35.4
-2 -1 -14 577.64 44.9
1 1 14 50.69 10.7
-1 -1 -14 60.39 18.3
0 1 14 228.18 31.5
0 -1 -14 236.78 28.2
0 -1 -14 231.58 28.2
-1 1 14 206.48 30.1
1 -1 -14 231.98 26.9
1 -1 -14 242.98 28.8
-2 1 14 113.99 22.9
2 -1 -14 143.29 22.9
2 -1 -14 100.49 18.6
-3 1 14 322.17 34.9
3 -1 -14 263.47 28.5
3 -1 -14 298.87 30.5
-4 1 14 9.8 18.6
4 -1 -14 27.4 16.8
-5 1 14 98.99 24.2
5 -1 -14 109.29 22.6
5 -1 -14 98.69 17.3
-6 1 14 66.49 24.6
6 -1 -14 42.5 23.3
-7 1 14 91.29 39
7 -1 -14 61.99 29.4
-8 -1 -13 -8.6 30.5
-7 -1 -13 55.19 27.7
-6 -1 -13 40.2 23.3
-5 -1 -13 17.4 20.7
-4 -1 -13 42.3 18.3
-3 -1 -13 129.99 22.4
2 1 13 9.3 7
-2 -1 -13 -1.6 14
-1 -1 -13 112.09 18.8
0 1 13 74.99 17.8
0 -1 -13 76.49 19.3
-1 1 13 42.4 15
1 -1 -13 -31.7 10.9
1 -1 -13 8.5 11.7
-2 1 13 26.1 15.5
2 -1 -13 38.9 12.7
2 -1 -13 11.8 13.4
-3 1 13 58.49 17.5
3 -1 -13 34 14
3 -1 -13 15.8 12.6
-4 1 13 -22.3 14.5
4 -1 -13 40.6 15.4
4 -1 -13 -24 10.3
-5 1 13 4.3 17.2
5 -1 -13 -21.4 14.7
-6 1 13 5.7 17.9
6 -1 -13 12.1 19.8
6 -1 -13 -0.9 11.2
-7 1 13 2.1 21
7 -1 -13 -10.8 23.1
7 -1 -13 12.4 17.3
-8 1 13 17 41.1
8 -1 -13 72.89 28.9
-8 -1 -12 86.69 30.1
-7 -1 -12 227.48 34.5
-6 -1 -12 440.76 42.3
-5 -1 -12 403.46 38.1
-4 -1 -12 391.16 35.4
3 1 12 459.05 27.6
2 1 12 -1.7 5.9
-2 -1 -12 5.4 13
-1 -1 -12 1492.05 90.29
0 1 12 595.14 44.2
0 -1 -12 624.54 42.8
-1 1 12 377.46 31.1
1 -1 -12 378.06 30.4
1 -1 -12 368.86 31
-2 1 12 600.04 43.6
2 -1 -12 608.94 41.9
2 -1 -12 619.94 42.7
-3 1 12 211.78 25.2
3 -1 -12 159.68 32.4
3 -1 -12 251.17 22.7
-4 1 12 398.76 35.1
4 -1 -12 401.06 30.2
4 -1 -12 443.86 35.4
-5 1 12 252.57 28.9
5 -1 -12 203.68 27.9
5 -1 -12 227.78 21.5
-6 1 12 221.18 29
6 -1 -12 215.48 21.6
6 -1 -12 198.38 30.8
-7 1 12 592.44 49.3
7 -1 -12 627.04 52.69
7 -1 -12 649.54 42.6
-8 1 12 311.47 55.89
8 -1 -12 369.66 46.2
-9 1 12 -14.7 43.6
9 -1 -12 34.6 31.3
-9 -1 -11 -13.9 31.3
-8 -1 -11 48.2 28.5
-7 -1 -11 12.6 21.5
-6 -1 -11 53.19 19.9
-5 -1 -11 19.2 16.4
-4 -1 -11 -2.8 14.3
3 1 11 3.6 5
-3 -1 -11 12.2 13
2 1 11 9.9 5.2
-2 -1 -11 14 12.4
-1 -1 -11 9.4 10.8
0 1 11 12.7 10.4
0 -1 -11 4.1 9.8
-1 1 11 87.29 14.6
1 -1 -11 49.6 11.7
1 -1 -11 44.8 11.9
2 -1 -11 5.9 9.8
2 -1 -11 5.5 8.7
-3 1 11 6.8 10.6
3 -1 -11 7.3 10.1
3 -1 -11 4.7 8.7
-4 1 11 4.8 12.1
4 -1 -11 12 11.8
4 -1 -11 13 8.3
-5 1 11 2.8 13.5
5 -1 -11 9.5 8.4
5 -1 -11 -14.1 11.7
-6 1 11 8.4 14.4
6 -1 -11 25.3 9.6
6 -1 -11 -6.2 14.2
-7 1 11 -2.4 17.3
7 -1 -11 -0.1 9.8
7 -1 -11 -24.9 16.8
-8 1 11 40.2 18.9
-8 1 11 40.6 32
8 -1 -11 -16.1 20.3
-9 1 11 20.8 35.3
9 -1 -11 -15.8 27.9
-10 -1 -10 44.6 34.3
-9 -1 -10 62.69 17.4
-9 -1 -10 40.6 29.5
-8 -1 -10 245.68 37.8
-7 -1 -10 779.62 60.19
-6 -1 -10 328.07 35.8
-5 -1 -10 841.02 63.19
-4 -1 -10 222.78 25.3
3 1 10 11.5 5.1
-3 -1 -10 17.7 11.3
2 1 10 217.48 15.5
-2 -1 -10 235.28 21.9
-1 -1 -10 401.66 30.3
0 1 10 1284.87 77.39
0 -1 -10 1290.07 76.89
-1 1 10 728.83 45.8
1 -1 -10 653.73 44.6
1 -1 -10 702.53 44.9
-2 1 10 570.84 38.8
2 -1 -10 589.94 39
2 -1 -10 548.95 37.9
-3 1 10 549.85 37.8
3 -1 -10 537.85 36.3
3 -1 -10 578.84 38.4
-4 1 10 1084.99 66.69
4 -1 -10 1069.69 67.19
4 -1 -10 1092.89 64.19
-5 1 10 638.34 43.5
5 -1 -10 647.84 45
5 -1 -10 638.74 40.4
-6 1 10 594.74 42.9
6 -1 -10 573.14 44.8
6 -1 -10 577.74 37.8
-7 1 10 621.84 45.3
7 -1 -10 636.04 48.3
7 -1 -10 585.74 39.8
-8 1 10 25.7 30.2
-8 1 10 26.6 18.8
8 -1 -10 52.99 22.8
-9 1 10 179.38 42.4
9 -1 -10 116.79 32.8
-10 1 10 172.78 48.7
10 -1 -10 60.59 34.4
-8 -1 -9 12.7 12.9
-8 -1 -9 22.9 34.6
-7 -1 -9 40.2 11.1
-6 -1 -9 14 7.6
-6 -1 -9 0.2 17.9
-5 -1 -9 -8.5 12.8
-4 -1 -9 83.39 16.4
3 1 9 26.4 5.8
-3 -1 -9 46.5 12.2
2 1 9 29.7 5.3
-2 -1 -9 17.3 9.1
-1 -1 -9 18.2 8.4
0 1 9 40.6 10.1
0 -1 -9 34.7 9.1
-1 1 9 193.48 17.7
1 -1 -9 172.08 16.7
-2 1 9 12.1 9
2 -1 -9 20.6 7.8
2 -1 -9 17.8 8
-3 1 9 279.07 22.1
3 -1 -9 283.37 22.2
3 -1 -9 255.37 20.5
-4 1 9 35 9.8
4 -1 -9 27.7 7.5
4 -1 -9 25.9 10
-5 1 9 3.7 9.7
5 -1 -9 5.1 6.4
5 -1 -9 26.1 10.7
-6 1 9 3.3 11.1
6 -1 -9 5.9 6.9
-7 1 9 25.7 15
7 -1 -9 18 8.7
7 -1 -9 28.5 15.9
-8 1 9 1.3 25.2
-8 1 9 21.2 16.6
8 -1 -9 5 17.8
-9 1 9 43.6 20
-9 1 9 15.2 32.6
9 -1 -9 19.8 23.2
-10 1 9 1 25.5
-10 1 9 10 38.3
10 -1 -9 4.5 28.6
-8 -1 -8 411.86 34.8
-7 -1 -8 127.79 18.6
-6 -1 -8 205.38 18.9
-5 -1 -8 512.65 31.6
-5 -1 -8 461.55 37.4
-4 -1 -8 110.99 16.8
3 1 8 315.67 20.8
-3 -1 -8 341.47 26.7
2 1 8 163.18 11.9
-2 -1 -8 182.68 17
-1 -1 -8 585.24 37.9
0 1 8 1193.08 69.99
0 -1 -8 1171.78 69.49
-1 1 8 2327.47 134.99
1 -1 -8 2457.35 135.09
-2 1 8 348.37 25.7
2 -1 -8 366.16 25.1
2 -1 -8 375.46 25.8
-3 1 8 1635.64 97.09
3 -1 -8 1735.13 95.99
3 -1 -8 1698.03 97.69
-4 1 8 718.53 45.6
4 -1 -8 759.32 46.8
4 -1 -8 702.33 43.4
-5 1 8 220.88 24.5
5 -1 -8 230.58 17.5
5 -1 -8 235.18 22
-6 1 8 522.05 38.3
6 -1 -8 561.44 35.3
6 -1 -8 593.34 41.3
-7 1 8 16.7 9.6
-7 1 8 10.5 12.2
7 -1 -8 15.4 14.5
-8 1 8 433.66 36.9
-8 1 8 393.66 49.99
-8 1 8 447.26 31.5
8 -1 -8 420.16 40.1
-9 1 8 212.18 40.4
-9 1 8 159.78 21.5
-9 1 8 143.59 24.6
9 -1 -8 125.69 28.1
-10 1 8 342.67 58.29
-10 1 8 250.77 28.1
10 -1 -8 219.78 38.5
-11 -1 -7 3.5 25
-9 -1 -7 60.99 19
-8 -1 -7 16.3 18.5
-8 -1 -7 -11.8 13.5
-7 -1 -7 -4.3 16.3
-7 -1 -7 1.2 10.3
-6 -1 -7 19.5 9
-5 -1 -7 35 7.7
-4 -1 -7 15.7 4.8
3 1 7 0.4 3.9
-3 -1 -7 -4.4 7.3
2 1 7 413.46 26.4
-2 -1 -7 519.95 31.6
-1 -1 -7 230.18 18.5
0 1 7 36.7 8
0 -1 -7 14.2 6
-1 1 7 64.09 10.1
1 -1 -7 65.39 9.5
-2 1 7 156.58 14.3
2 -1 -7 149.39 12.8
2 -1 -7 155.48 14.1
-3 1 7 208.38 17.1
3 -1 -7 205.48 17.3
3 -1 -7 195.78 14.9
-4 1 7 149.59 15.1
4 -1 -7 135.09 15
4 -1 -7 135.49 11.6
-5 1 7 99.89 13.7
5 -1 -7 108.19 15.5
5 -1 -7 117.89 11
-6 1 7 21.6 7.5
-6 1 7 -11.1 8.6
6 -1 -7 -7.7 4.9
6 -1 -7 -6.8 11
-7 1 7 81.39 15.4
-7 1 7 83.89 13.4
7 -1 -7 55.49 27.3
-8 1 7 8 24.6
-8 1 7 11.8 9.4
-8 1 7 3.3 13.1
8 -1 -7 10.4 16.3
-9 1 7 26.3 16.9
-9 1 7 24.5 28.6
-9 1 7 12.6 11.1
9 -1 -7 5.8 21.2
-10 1 7 -8.9 13.3
-10 1 7 31.2 32.8
10 -1 -7 -17.3 24.7
-11 1 7 69.39 42.6
11 -1 -7 17.9 33.4
-10 -1 -6 32.2 21.3
-9 -1 -6 15.5 16.8
-8 -1 -6 231.88 30.5
-8 -1 -6 226.48 27.7
-7 -1 -6 42.2 16.8
-7 -1 -6 14.5 10.8
-6 -1 -6 79.19 13.5
-5 -1 -6 184.08 16.8
-4 -1 -6 1824.92 102.59
-3 -1 -6 71.79 7.1
2 1 6 1095.79 67.19
-2 -1 -6 1352.36 71.39
-1 -1 -6 837.12 50.09
0 1 6 116.89 11.6
0 -1 -6 128.19 11.4
-1 1 6 40.4 7
1 -1 -6 37.7 6.9
-2 1 6 2082.79 117.39
2 -1 -6 2118.19 116.89
2 -1 -6 2081.69 117.59
-3 1 6 522.25 33.4
3 -1 -6 520.05 33.6
3 -1 -6 546.45 31.8
-4 1 6 284.17 21.4
-4 1 6 275.37 19.3
4 -1 -6 293.77 21.9
4 -1 -6 287.67 18.8
-5 1 6 640.74 39.1
-5 1 6 674.93 41.6
5 -1 -6 632.64 43.2
5 -1 -6 664.33 38.9
-6 1 6 617.24 38.2
6 -1 -6 648.34 43.9
-7 1 6 130.59 26.1
-7 1 6 126.79 13.6
-7 1 6 134.79 18.7
7 -1 -6 132.99 21.4
-8 1 6 454.15 30.5
-8 1 6 466.25 48.3
-8 1 6 448.46 35.9
8 -1 -6 449.16 39.7
-9 1 6 279.37 28.4
-9 1 6 234.48 41
-9 1 6 244.98 22.2
9 -1 -6 234.78 33.9
-10 1 6 227.88 24.3
-10 1 6 281.97 47.7
10 -1 -6 239.88 39.8
-11 1 6 110.39 18
-11 1 6 140.59 44
11 -1 -6 82.79 34.5
-11 -1 -5 2.5 26.8
-10 -1 -5 -14.5 21.8
-9 -1 -5 11.7 18.3
-9 -1 -5 16.8 31.2
-8 -1 -5 32.4 17.2
-8 -1 -5 -8.2 14.9
-7 -1 -5 0.7 11.1
-7 -1 -5 -3.6 13.2
-6 -1 -5 74.19 13.6
-6 -1 -5 74.09 18.9
-5 -1 -5 114.39 13.9
-4 -1 -5 3.4 4.6
-3 -1 -5 6.1 3.5
2 1 5 724.33 43.1
-2 -1 -5 816.52 46.4
-1 -1 -5 8.1 4.2
0 1 5 351.06 24.1
0 -1 -5 425.26 24.8
-1 1 5 479.75 29.7
1 -1 -5 493.65 29.7
-2 1 5 291.07 18.7
2 -1 -5 269.47 17.6
2 -1 -5 264.17 18.4
-3 1 5 927.31 54.99
3 -1 -5 972.8 55.69
3 -1 -5 932.91 53.39
-4 1 5 68.99 10.3
-4 1 5 76.99 8
4 -1 -5 79.89 7.5
4 -1 -5 76.89 11.3
-5 1 5 20.7 5.1
-5 1 5 19.4 7.3
5 -1 -5 14.2 4.8
5 -1 -5 16.4 8.1
-6 1 5 18.8 8.4
-6 1 5 10.1 5.1
6 -1 -5 -3 9.5
-7 1 5 166.58 28.2
-7 1 5 117.59 17.9
-7 1 5 141.29 13.2
7 -1 -5 127.39 22.1
-8 1 5 -1.8 11.7
-8 1 5 25.9 7.9
8 -1 -5 29.3 15.9
-9 1 5 40.9 10.2
-9 1 5 34.8 25.9
-9 1 5 75.29 17.4
9 -1 -5 68.49 22.4
-10 1 5 7.9 11.1
-10 1 5 15.7 19.5
-10 1 5 7.7 28.2
10 -1 -5 -58.69 22.3
-11 1 5 11 14
-11 1 5 55.59 37.5
-11 1 5 21.4 22
11 -1 -5 59.59 31.3
-11 -1 -4 36 27.2
-9 -1 -4 31.6 18.8
-9 -1 -4 150.88 25.7
-8 -1 -4 21.6 15.9
-8 -1 -4 15.3 14.8
-7 -1 -4 408.36 34.6
-7 -1 -4 412.26 34.5
-6 -1 -4 -2.1 10
-6 -1 -4 15.4 9.5
-5 -1 -4 337.47 26.8
-5 -1 -4 339.77 25.8
-4 -1 -4 7.7 5.4
-3 -1 -4 1186.78 67.49
-2 -1 -4 961.2 53.59
1 1 4 51.89 3.9
-1 -1 -4 66.59 7.3
0 1 4 746.23 45.2
0 -1 -4 830.92 45.6
-1 1 4 465.35 28.2
1 -1 -4 481.75 28.3
-2 1 4 955.8 55.09
2 -1 -4 974.4 54.29
2 -1 -4 966.5 55.39
-3 1 4 708.13 41.7
-3 1 4 666.63 40.1
3 -1 -4 731.03 40.1
3 -1 -4 713.03 42.3
-4 1 4 790.42 45.8
-4 1 4 835.12 48.2
4 -1 -4 791.22 45.9
4 -1 -4 804.52 49
-5 1 4 726.73 46.9
-5 1 4 774.12 44.3
5 -1 -4 810.62 49.1
-6 1 4 190.58 18
-6 1 4 198.58 14.5
6 -1 -4 204.28 20.6
-7 1 4 87.29 14.5
-7 1 4 81.59 10.5
-7 1 4 74.19 19.7
7 -1 -4 77.19 16.6
-8 1 4 53.69 9.5
-8 1 4 44.2 22.3
-8 1 4 53.49 14.3
-9 1 4 549.25 43.1
-9 1 4 569.14 36.7
-9 1 4 579.94 55.39
9 -1 -4 548.95 47.6
-10 1 4 393.56 36.9
-10 1 4 414.06 55.99
-10 1 4 385.26 29.9
10 -1 -4 415.06 44.1
-11 1 4 60.99 37
-11 1 4 66.89 26.2
-11 1 4 62.39 15.7
11 -1 -4 70.19 30.9
-11 -1 -3 59.09 27.8
-10 -1 -3 26.9 22.8
-9 -1 -3 32.9 18.3
-9 -1 -3 6.9 17.7
-8 -1 -3 225.88 26.7
-8 -1 -3 225.28 29.3
-7 -1 -3 27.4 12.9
-7 -1 -3 27.9 14.1
-6 -1 -3 38.3 11.9
-6 -1 -3 46.6 12.1
-5 -1 -3 8.1 7.1
-5 -1 -3 0.1 8.2
-4 -1 -3 5.6 6.5
-4 -1 -3 7.3 5.3
-3 -1 -3 496.55 30.8
-2 -1 -3 80.69 6.7
0 1 3 31.3 4.2
0 -1 -3 36.4 4.4
-1 1 3 752.82 43
1 -1 -3 766.32 43.1
-2 1 3 30.5 3.7
-2 1 3 42.7 6.3
2 -1 -3 28.7 4.8
2 -1 -3 34.7 4.2
-3 1 3 71.89 8
-3 1 3 67.89 5.7
3 -1 -3 62.19 8
3 -1 -3 73.59 5.9
-4 1 3 8.5 4.9
-4 1 3 7.6 2.9
4 -1 -3 5.3 5.4
-5 1 3 98.09 12.1
-5 1 3 110.49 9.1
5 -1 -3 101.49 13.4
-6 1 3 -6.4 10.5
-6 1 3 15.4 5.1
-6 1 3 11.5 8.5
6 -1 -3 21.7 10.3
-7 1 3 28.1 15.9
-7 1 3 15.6 6
-7 1 3 8.4 9.4
7 -1 -3 0.7 11.1
-8 1 3 7.7 11.2
-8 1 3 15.4 7.3
-8 1 3 10.9 17.7
8 -1 -3 -7.5 13.6
-9 1 3 40.5 10.1
-9 1 3 46.8 23.5
-9 1 3 7.8 15.5
9 -1 -3 22.5 18.4
-10 1 3 62.39 20.9
-10 1 3 82.69 14
-10 1 3 56.39 30
10 -1 -3 84.29 25.3
-11 1 3 70.39 40.1
-11 1 3 17.3 23
11 -1 -3 22.2 27.9
-11 -1 -2 68.39 22.7
-10 -1 -2 12.1 21.3
-9 -1 -2 -12.2 15.7
-9 -1 -2 25.3 19.5
-8 -1 -2 147.69 27.1
-8 -1 -2 163.48 24.8
-7 -1 -2 247.48 24.3
-7 -1 -2 227.38 26.5
-6 -1 -2 755.02 50.49
-6 -1 -2 790.02 52.09
-5 -1 -2 78.99 12.8
-5 -1 -2 81.19 12.9
-4 -1 -2 221.58 18.5
-4 -1 -2 243.08 19.3
-3 -1 -2 311.67 21.2
-3 -1 -2 304.77 21.2
-1 -1 -2 200.98 11.6
0 1 2 502.55 28.4
-1 1 2 642.64 35.4
1 -1 -2 621.24 34.9
1 -1 -2 623.04 35.4
-2 1 2 8302.67 431.66
-2 1 2 7183.98 430.76
2 -1 -2 7301.27 431.06
2 -1 -2 8863.41 432.26
-3 1 2 1343.77 74.09
-3 1 2 1300.57 72.19
3 -1 -2 1281.37 74.49
-4 1 2 1207.58 68.09
-4 1 2 1210.88 70.29
4 -1 -2 1244.08 71.39
-5 1 2 321.47 28.5
-5 1 2 311.27 22.5
-5 1 2 306.47 19.7
5 -1 -2 293.87 23.8
-6 1 2 60.69 15.6
-6 1 2 85.99 9.5
-6 1 2 74.39 12.6
6 -1 -2 48.6 12.5
-7 1 2 646.54 40.4
-7 1 2 706.73 51.89
-7 1 2 635.74 43.9
7 -1 -2 677.83 46.7
-8 1 2 380.36 31.4
-8 1 2 388.26 39.7
-8 1 2 345.77 25.7
8 -1 -2 328.77 32.8
-9 1 2 317.47 25
-9 1 2 315.87 40.8
-9 1 2 239.98 30
9 -1 -2 335.87 34.3
-10 1 2 937.71 65.39
-10 1 2 964.3 59.79
-10 1 2 982.2 77.49
10 -1 -2 969.6 72.29
-11 1 2 312.87 54.39
-11 1 2 367.46 32.3
11 -1 -2 352.06 49.5
-12 1 2 145.59 22.9
-12 1 2 125.89 47
-12 -1 -1 -20.7 24.1
-11 -1 -1 15.9 23.3
-11 -1 -1 16.5 29.9
-11 -1 -1 17.2 20.7
-10 -1 -1 114.69 20.3
-10 -1 -1 68.19 26.2
-9 -1 -1 22.3 20.6
-9 -1 -1 5.1 16.2
-8 -1 -1 3.4 15.1
-8 -1 -1 3.1 13
-7 -1 -1 64.59 14.7
-7 -1 -1 87.59 18.6
-6 -1 -1 35.4 10.5
-6 -1 -1 39.3 12.9
-5 -1 -1 45.8 10.9
-5 -1 -1 55.49 10.8
-4 -1 -1 10.3 5.9
-3 -1 -1 241.78 17.2
-2 -1 -1 32.9 4.9
-1 1 1 55.89 4.1
-1 1 1 58.39 6.5
1 -1 -1 55.89 5.5
-2 1 1 265.47 18.7
-2 1 1 255.47 15.3
-2 1 1 273.57 16.6
2 -1 -1 275.87 16.9
-3 1 1 127.89 10.4
-3 1 1 105.59 12.7
3 -1 -1 127.09 10.6
-4 1 1 168.38 17.7
-4 1 1 176.98 14.2
4 -1 -1 167.28 14.9
-5 1 1 98.99 12.4
-5 1 1 83.69 15.1
5 -1 -1 90.29 13.5
-6 1 1 -10.4 7.3
-6 1 1 -0.3 5.5
-6 1 1 26.1 12.2
6 -1 -1 9.3 9
-7 1 1 22.1 14.7
-7 1 1 -3.7 6.4
-7 1 1 5.3 10.3
7 -1 -1 2.1 11.3
-8 1 1 161.58 28
-8 1 1 166.98 17.8
-8 1 1 184.88 21.9
8 -1 -1 145.59 23.2
-9 1 1 39 12
-9 1 1 72.59 17.4
9 -1 -1 51.59 20.2
-10 1 1 52.09 20.7
-10 1 1 86.99 29.8
10 -1 -1 39.5 25.1
-11 1 1 46.9 17.2
-11 1 1 34.5 31.3
-12 1 1 -4.7 19.6
-12 1 1 -4.9 36.5
-12 -1 0 184.08 45.9
-12 -1 0 305.87 40.1
-11 -1 0 295.47 44.6
-11 -1 0 360.66 53.59
-11 -1 0 397.06 37.9
-10 -1 0 30.4 15.9
-10 -1 0 66.69 28.7
-10 -1 0 43.5 20
-9 -1 0 450.95 37.4
-9 -1 0 431.96 33.8
-9 -1 0 406.06 43.4
8 1 0 576.74 45.4
-8 -1 0 638.74 45
-8 -1 0 588.44 49.3
-8 -1 0 628.64 41.5
7 1 0 364.16 30.3
-7 -1 0 344.67 28.9
-7 -1 0 366.26 33.2
6 1 0 328.97 27.8
-6 -1 0 357.96 26.9
5 1 0 363.86 27.6
-5 -1 0 390.46 27
4 1 0 53.09 9
-4 -1 0 56.59 9.1
3 1 0 44.2 7.1
-3 -1 0 36.7 6.3
2 1 0 107.29 8.4
-2 -1 0 99.59 8.4
1 1 0 7.3 2.2
-1 -1 0 8.1 2.1
-1 1 0 1.3 1.7
1 -1 0 1.7 1.9
-2 1 0 110.69 8.6
-2 1 0 111.99 10
2 -1 0 116.69 8.8
2 -1 0 111.49 9.9
-3 1 0 32.8 7.4
-3 1 0 36.4 6
3 -1 0 44.5 6.8
-4 1 0 49.2 8.3
-4 1 0 65.19 11.3
4 -1 0 68.39 9.4
-5 1 0 390.66 27.9
-5 1 0 400.56 31.4
5 -1 0 415.06 28.9
-6 1 0 384.06 28.1
-6 1 0 360.56 31.8
6 -1 0 348.77 28.4
-7 1 0 314.97 33
-7 1 0 349.67 28.9
7 -1 0 366.06 30.7
-8 1 0 563.14 47
-8 1 0 590.34 41.4
8 -1 0 514.45 42.5
-9 1 0 367.96 42.8
-9 1 0 423.36 31.5
-9 1 0 364.66 34.5
9 -1 0 380.66 38
-10 1 0 81.29 27
-10 1 0 58.49 21.4
-10 1 0 25.3 15.2
-11 1 0 302.37 49.5
-11 1 0 280.47 32.7
-12 1 0 197.68 46.2
-12 1 0 282.57 36.4
-12 -1 1 -36.4 35.4
-12 -1 1 -9.2 21.8
-11 -1 1 45.6 31.7
-11 -1 1 51.59 29.1
-11 -1 1 28.5 19.4
10 1 -1 75.89 26.3
-10 -1 1 28.9 26.8
-10 -1 1 58.69 16.3
-10 -1 1 51.69 22.5
9 1 -1 66.19 20
-9 -1 1 46.4 13.5
-9 -1 1 42.7 18
-9 -1 1 43.9 35.5
8 1 -1 148.09 23
-8 -1 1 135.79 17.3
-8 -1 1 122.29 25.2
-8 -1 1 131.19 20
7 1 -1 1.8 10.8
-7 -1 1 -0.8 7
-7 -1 1 11.5 9.8
6 1 -1 -1.7 8.3
-6 -1 1 8.4 8.4
-6 -1 1 4.4 6.2
5 1 -1 104.89 13.2
-5 -1 1 91.79 12.8
-5 -1 1 89.49 10.3
4 1 -1 154.78 14.2
-4 -1 1 151.18 13.6
-4 -1 1 159.48 12
3 1 -1 120.29 10.9
-3 -1 1 130.29 10.7
2 1 -1 279.57 17.2
2 1 -1 255.47 16.3
-2 -1 1 269.57 16.2
-2 -1 1 263.97 16.9
1 1 -1 59.09 4.7
-1 -1 1 56.59 4.4
-1 -1 1 63.49 4.8
1 -1 1 13 2.6
-2 1 -1 36.4 5
-2 1 -1 36.8 5.9
2 -1 1 28.3 5.4
-3 1 -1 251.37 17.4
-3 1 -1 255.97 18.5
3 -1 1 250.47 17.5
3 -1 1 219.58 18.1
-4 1 -1 7.7 6.5
-4 1 -1 -0.3 5.5
4 -1 1 12 5.9
-5 1 -1 49.3 9.9
-5 1 -1 47.5 11.5
5 -1 1 27.9 8.5
-6 1 -1 66.29 13.1
-6 1 -1 79.89 16.1
6 -1 1 53.29 12
-7 1 -1 87.79 18.7
-7 1 -1 84.39 15.3
-8 1 -1 1.2 12.3
-8 1 -1 -8.6 15.2
-9 1 -1 7.5 19.7
-9 1 -1 -2.1 16.6
-10 1 -1 48 25.6
-10 1 -1 116.89 24.4
-11 1 -1 23.1 29.1
-11 1 -1 65.69 19.8
-12 1 -1 21.5 34.5
-12 1 -1 -2.9 23.3
-12 -1 2 156.58 46.5
-12 -1 2 134.79 25.9
11 1 -2 383.16 50.79
-11 -1 2 324.57 33.8
-11 -1 2 300.27 40.6
-11 -1 2 347.27 58.39
10 1 -2 957.2 72.39
-10 -1 2 955.7 61.39
-10 -1 2 964.9 78.49
-10 -1 2 991.6 66.59
9 1 -2 269.57 32.8
-9 -1 2 286.87 29
-9 -1 2 266.97 27.7
-9 -1 2 229.08 39.8
8 1 -2 360.46 33
-8 -1 2 359.56 26.4
-8 -1 2 320.57 29.6
-8 -1 2 310.37 39.1
7 1 -2 708.43 48.1
-7 -1 2 684.13 45.6
-7 -1 2 658.93 42.4
6 1 -2 48.8 12.3
-6 -1 2 65.09 10.4
-6 -1 2 59.39 11.7
5 1 -2 323.07 25.7
-5 -1 2 341.27 24.4
-5 -1 2 341.77 22.4
4 1 -2 1224.48 71.59
-4 -1 2 1218.68 70.89
-4 -1 2 1228.68 69.29
3 1 -2 1328.97 74.39
3 1 -2 1268.17 72.89
-3 -1 2 1276.07 75.49
-3 -1 2 1323.07 73.89
2 1 -2 7573.74 397.76
2 1 -2 6911.61 396.76
-2 -1 2 7147.58 396.76
-2 -1 2 7508.15 397.56
1 1 -2 726.03 39.5
1 1 -2 700.73 39.6
-1 -1 2 703.23 39.6
-1 -1 2 671.63 39.4
0 1 -2 495.55 28.5
0 1 -2 491.55 28.9
0 -1 2 509.55 28.6
-1 1 -2 324.67 19.8
-1 1 -2 327.17 19.4
1 -1 2 297.47 18.9
1 -1 2 319.87 19.4
-2 1 -2 6802.82 377.96
2 -1 2 7030.5 378.16
-3 1 -2 254.77 18.8
-3 1 -2 281.77 19.4
3 -1 2 266.77 19.7
-4 1 -2 248.48 20.2
-4 1 -2 242.78 19.1
-5 1 -2 73.19 12.4
-5 1 -2 81.39 13.5
-6 1 -2 741.93 51.29
-6 1 -2 775.72 49.5
-7 1 -2 213.28 23.9
-7 1 -2 290.67 28.2
-8 1 -2 157.28 26
-8 1 -2 156.28 22.7
-9 1 -2 36.6 17.5
-9 1 -2 3.6 19.4
-10 1 -2 4.9 21
-10 1 -2 44.7 23.6
-11 1 -2 62.69 30.1
-11 1 -2 55.39 31.8
11 1 -3 -7.5 27.6
-11 -1 3 15.2 31.8
-11 -1 3 -17.6 23.9
-11 -1 3 10.4 16.4
10 1 -3 50.79 25.4
-10 -1 3 64.09 28.5
-10 -1 3 65.79 15.4
-10 -1 3 112.69 22.2
9 1 -3 -29.9 16.5
-9 -1 3 -6.2 21.7
-9 -1 3 57.99 16.3
-9 -1 3 24.5 10.7
8 1 -3 4.5 14.3
-8 -1 3 24.4 9.2
-8 -1 3 21.8 12.3
7 1 -3 -0.4 12
-7 -1 3 4.6 7.6
-7 -1 3 4.1 9.4
6 1 -3 12.9 10.5
-6 -1 3 14.1 6.4
-6 -1 3 25.4 9
5 1 -3 117.29 14.9
-5 -1 3 114.39 10.8
-5 -1 3 115.09 13.1
4 1 -3 7 5.8
4 1 -3 2.8 3.7
-4 -1 3 1.9 3.6
-4 -1 3 7.1 5.7
3 1 -3 74.69 9
3 1 -3 74.39 7.3
-3 -1 3 79.59 8.5
-3 -1 3 74.09 7
2 1 -3 32.2 5.2
2 1 -3 36.7 4.4
-2 -1 3 38.8 4.5
-2 -1 3 33.2 5.5
1 1 -3 797.52 43.9
1 1 -3 778.72 43.7
-1 -1 3 787.62 43.9
-1 -1 3 708.53 43.6
0 1 -3 32.4 4.2
0 -1 3 39.9 4.9
-1 1 -3 560.54 34.1
1 -1 3 590.34 33.4
1 -1 3 586.74 34.4
-2 1 -3 89.59 8.1
2 -1 3 96.29 8.7
-3 1 -3 567.24 36.5
3 -1 3 630.14 37.3
-4 1 -3 -1.2 5.6
-4 1 -3 -2 4.9
4 -1 3 2 6.1
-5 1 -3 -0.2 6.6
-5 1 -3 24.6 8.7
-6 1 -3 38.1 12.2
-6 1 -3 42.4 12.4
-7 1 -3 27.5 13.2
-7 1 -3 26.1 14
-8 1 -3 227.78 28.8
-8 1 -3 275.77 28.3
-9 1 -3 22.4 17.5
-9 1 -3 34.2 19.4
-10 1 -3 113.39 25.4
-10 1 -3 48.4 24.8
-11 1 -3 37.2 29.1
11 1 -4 84.89 32.2
-11 -1 4 62.69 17.6
10 1 -4 327.07 41.5
-10 -1 4 248.08 34.8
-10 -1 4 307.07 48.9
-10 -1 4 360.06 28.9
9 1 -4 554.04 47.3
-9 -1 4 556.34 55.29
-9 -1 4 519.95 37
-9 -1 4 545.65 42.6
-8 -1 4 52.49 11
-8 -1 4 47.8 15.1
7 1 -4 70.19 16.2
-7 -1 4 74.39 13.9
-7 -1 4 62.89 10.3
6 1 -4 203.98 20.6
-6 -1 4 174.18 18.2
-6 -1 4 201.88 16
5 1 -4 783.92 49.5
5 1 -4 762.42 46.3
-5 -1 4 761.72 45.8
-5 -1 4 806.72 48.2
4 1 -4 788.42 46.6
4 1 -4 830.52 49.1
-4 -1 4 773.62 47.8
-4 -1 4 795.22 46.3
3 1 -4 716.43 42.1
3 1 -4 724.03 43.6
-3 -1 4 712.93 43.2
-3 -1 4 738.83 42.1
2 1 -4 986.6 56.89
2 1 -4 1008.1 56.09
-2 -1 4 1010.5 56.79
-2 -1 4 949.31 56.19
1 1 -4 462.95 27.6
1 1 -4 483.75 27.8
-1 -1 4 450.75 27.7
-1 -1 4 438.16 27.7
0 1 -4 821.22 46
0 -1 4 769.52 46.3
-1 1 -4 47.5 6.6
1 -1 4 52.79 7.1
-2 1 -4 1146.19 60.59
-2 1 -4 1038.4 61.79
2 -1 4 1005.6 60.69
-3 1 -4 1422.96 82.19
3 -1 4 1468.05 82.89
-4 1 -4 23.5 6.5
4 -1 4 25.9 7.8
-5 1 -4 415.76 29.5
-5 1 -4 377.66 29.9
-6 1 -4 11.4 9.7
-6 1 -4 1.8 8.8
-7 1 -4 378.46 33.6
-7 1 -4 431.56 34.9
-8 1 -4 42.1 16.1
-8 1 -4 27.1 16
-9 1 -4 105.19 23.6
-9 1 -4 168.78 31
-10 1 -4 131.69 28.6
-10 1 -4 7.7 21.9
-11 1 -4 27.8 27.2
11 1 -5 35.7 32.3
-11 -1 5 50.39 36.6
10 1 -5 -32.1 22.1
-10 -1 5 -28.5 29.9
-10 -1 5 -12.3 20.4
-10 -1 5 16.2 12.9
9 1 -5 53.99 22.3
-9 -1 5 49.7 18
-9 -1 5 46.2 11.8
8 1 -5 39.7 17
-8 -1 5 11 13
-8 -1 5 8.9 8.8
7 1 -5 169.18 22
-7 -1 5 159.18 20.2
-7 -1 5 146.29 15.5
6 1 -5 3.5 9.8
-6 -1 5 10.5 6.6
5 1 -5 7.8 8.1
5 1 -5 18.1 5.9
-5 -1 5 10.8 7.2
-5 -1 5 15.7 6
4 1 -5 64.19 10.6
4 1 -5 54.89 8.2
-4 -1 5 85.79 10.4
-4 -1 5 69.49 8.7
3 1 -5 988.7 56.09
3 1 -5 919.11 54.29
-3 -1 5 908.91 54.59
-3 -1 5 967.9 55.69
2 1 -5 258.27 18.5
2 1 -5 277.17 17.8
-2 -1 5 273.47 18.7
-2 -1 5 265.97 18.2
1 1 -5 490.85 29.3
1 1 -5 471.95 29.3
-1 -1 5 459.55 29.2
0 1 -5 418.36 25.9
0 -1 5 403.96 26.2
-1 1 -5 10.4 4.6
1 -1 5 -2.1 4.2
-2 1 -5 773.02 46
2 -1 5 745.73 44.3
-3 1 -5 18.6 7.1
3 -1 5 9.9 5.1
-4 1 -5 11.2 5.8
4 -1 5 6.3 6.7
-5 1 -5 136.49 15.7
5 -1 5 143.19 17.5
-6 1 -5 78.29 15.9
-6 1 -5 85.09 15.8
-7 1 -5 -16.4 12.2
-7 1 -5 17.2 12.5
-8 1 -5 37.1 17.4
-8 1 -5 34.6 15.8
-9 1 -5 4.8 17.4
-9 1 -5 37.9 21.2
-10 1 -5 -15.7 22
-11 1 -5 11.9 28.4
11 1 -6 104.19 35.7
-11 -1 6 82.39 20
-11 -1 6 125.89 42.3
10 1 -6 274.07 43
-10 -1 6 228.58 26.2
-10 -1 6 199.38 42.7
9 1 -6 232.78 33.6
-9 -1 6 237.98 22.7
-9 -1 6 160.18 26.7
8 1 -6 419.46 39.7
-8 -1 6 442.56 32
-8 -1 6 508.65 37.4
7 1 -6 139.39 21.7
-7 -1 6 130.59 19
-7 -1 6 161.68 16
6 1 -6 611.54 43
6 1 -6 599.64 38.3
-6 -1 6 616.24 40.7
-6 -1 6 602.24 38
5 1 -6 647.34 41.5
5 1 -6 688.13 45.3
-5 -1 6 694.73 41.8
-5 -1 6 702.23 43.8
4 1 -6 283.17 22.7
4 1 -6 297.67 20.5
-4 -1 6 292.77 20.9
-4 -1 6 325.97 22.9
3 1 -6 554.84 32.8
3 1 -6 529.35 34.2
-3 -1 6 511.05 33.3
-3 -1 6 543.75 34.3
2 1 -6 2159.28 120.39
2 1 -6 2162.18 119.89
-2 -1 6 2102.79 120.39
1 1 -6 30.6 6.3
1 1 -6 40.5 7
-1 -1 6 38.7 7
0 1 -6 122.39 11.8
0 -1 6 127.29 12.1
-1 1 -6 827.12 49.9
1 -1 6 840.42 50.29
-2 1 -6 1405.96 89.59
2 -1 6 1737.13 93.89
-3 1 -6 56.59 10.2
3 -1 6 56.39 9.5
-4 1 -6 1790.52 108.19
-4 1 -6 1970.2 105.99
4 -1 6 1824.32 106.89
-5 1 -6 161.98 16.1
5 -1 6 155.78 18.4
-6 1 -6 96.59 15.9
-6 1 -6 81.59 16.9
-7 1 -6 9.5 11.6
-7 1 -6 13.8 14.1
-8 1 -6 243.98 30.3
-9 1 -6 18.8 18.4
-9 1 -6 3.6 19.9
-10 1 -6 57.19 44.2
11 1 -7 -12.7 33
-11 -1 7 79.69 41.9
-11 -1 7 -14.6 18.1
10 1 -7 46.8 27.2
-10 -1 7 27.3 15.7
-10 -1 7 24.5 34
9 1 -7 6.9 21.2
-9 -1 7 26.7 12.6
-9 -1 7 51.09 18.3
8 1 -7 23.3 17.3
-8 -1 7 7.3 10.4
-8 -1 7 -3.3 14.2
-7 -1 7 76.89 13
-7 -1 7 110.19 17.7
6 1 -7 7.8 10.5
6 1 -7 -1.8 6.7
-6 -1 7 8.3 9.5
-6 -1 7 -5.9 7.6
5 1 -7 99.79 11.9
5 1 -7 114.79 15.6
-5 -1 7 77.69 12.7
-5 -1 7 111.89 18.3
4 1 -7 140.99 12.9
4 1 -7 135.59 15.8
-4 -1 7 128.79 15.4
-4 -1 7 129.79 14.1
3 1 -7 204.08 16.6
3 1 -7 184.18 14.8
-3 -1 7 201.08 17.3
-3 -1 7 159.98 15.1
2 1 -7 150.98 14.2
2 1 -7 154.58 13.6
-2 -1 7 192.78 15.8
1 1 -7 56.69 8.6
1 1 -7 56.09 8.8
-1 -1 7 49.99 9.3
0 1 -7 26.5 7.1
0 -1 7 21 7.4
-1 1 -7 236.38 18.4
1 -1 7 213.28 18.7
-2 1 -7 468.05 31.8
2 -1 7 471.45 29.4
-3 1 -7 3.1 7.3
3 -1 7 9.9 6.2
-4 1 -7 17.2 6.3
-4 1 -7 24.2 9.7
4 -1 7 11.6 7.7
-5 1 -7 34 8.3
-5 1 -7 31.9 12
5 -1 7 16.9 10.2
-6 1 -7 22.8 9.6
-7 1 -7 16.1 16.6
-7 1 -7 16.7 10.9
-8 1 -7 29.2 18.7
-8 1 -7 10.3 14.7
-9 1 -7 43 19.2
-10 1 -7 -13.6 29.4
-10 1 -7 18.1 24
10 1 -8 202.48 37.6
-10 -1 8 243.28 46.5
-10 -1 8 218.18 29.8
-10 -1 8 216.28 34.7
9 1 -8 119.79 28.1
-9 -1 8 134.09 22.1
-9 -1 8 139.39 24
8 1 -8 410.56 39.8
-8 -1 8 405.16 32
-8 -1 8 404.36 34.8
7 1 -8 34.8 10.3
7 1 -8 30.8 15
-7 -1 8 31.4 11.3
-7 -1 8 19.5 12.3
6 1 -8 579.74 37.7
6 1 -8 571.74 42.2
-6 -1 8 587.84 40.5
-6 -1 8 578.84 38.5
5 1 -8 240.68 19.1
5 1 -8 257.47 23.8
-5 -1 8 235.48 21.6
-5 -1 8 231.28 20.5
4 1 -8 765.92 48.1
4 1 -8 775.52 45.5
-4 -1 8 763.02 47.2
-4 -1 8 666.53 45.9
3 1 -8 1806.02 99.39
3 1 -8 1691.53 97.49
-3 -1 8 1641.14 98.79
2 1 -8 359.16 24.8
2 1 -8 340.37 24
-2 -1 8 328.97 24.9
1 1 -8 2250.57 132.19
1 1 -8 2486.15 132.49
-1 -1 8 2276.87 132.49
0 1 -8 1194.28 66.89
0 -1 8 1052.29 66.79
-1 1 -8 630.84 38.2
1 -1 8 527.95 37.9
-2 1 -8 191.48 17.2
2 -1 8 152.08 13.8
3 -1 8 244.28 19.2
-4 1 -8 157.78 18.5
4 -1 8 127.59 15.9
-5 1 -8 477.55 36.9
-5 1 -8 515.95 32.8
5 -1 8 450.95 34.8
-6 1 -8 143.79 24.9
-6 1 -8 170.78 18.6
-7 1 -8 189.48 29
-7 1 -8 135.59 19.5
-7 1 -8 95.89 23.9
-9 1 -8 20.5 17.2
10 1 -9 21.8 30.3
-10 -1 9 -29 36.5
-10 -1 9 -29.6 18.5
9 1 -9 27.6 23.9
-9 -1 9 1.4 25
8 1 -9 -4.1 19.6
-8 -1 9 14 13.4
-8 -1 9 29.7 17.1
7 1 -9 35.7 11.2
7 1 -9 41.7 18.1
-7 -1 9 26.1 14.7
-7 -1 9 54.99 12.8
6 1 -9 13.2 8.1
-6 -1 9 10.7 12
-6 -1 9 18.9 10.9
5 1 -9 -3.9 10.1
5 1 -9 27.2 8.4
-5 -1 9 11.1 10.7
4 1 -9 41.7 8.7
4 1 -9 16.1 9.6
-4 -1 9 34.2 10.6
3 1 -9 290.37 22.5
3 1 -9 254.57 19.7
-3 -1 9 209.28 20.8
2 1 -9 7.5 6.6
2 1 -9 -0.9 7
-2 -1 9 14.6 8.5
1 1 -9 167.18 16.5
1 1 -9 146.59 16.6
-1 -1 9 183.88 18.2
0 1 -9 31.3 9.1
0 -1 9 26.9 10.1
-1 1 -9 -0.3 7.7
1 -1 9 11.7 9.5
-2 1 -9 33.2 10.6
2 -1 9 29.8 7.4
-3 1 -9 39.1 11.8
3 -1 9 21.7 7.9
-4 1 -9 74.59 15.1
4 -1 9 60.69 11.6
-5 1 -9 3.8 13.4
5 -1 9 -1.2 9.9
-6 1 -9 11.2 15.9
-6 1 -9 -5 8.1
-7 1 -9 16.1 18.6
-7 1 -9 63.29 13.3
-8 1 -9 12.5 13.4
-8 1 -9 -14.1 20.7
-9 1 -9 -57.29 24.9
-10 1 -9 -13.9 20.7
-10 1 -9 -28.4 31.3
10 1 -10 168.68 39.5
-10 -1 10 126.79 24.9
-10 -1 10 116.59 44.9
9 1 -10 176.88 36.9
-9 -1 10 174.68 24.7
8 1 -10 43.1 13.3
8 1 -10 32.9 22.3
-8 -1 10 22.2 18.6
7 1 -10 595.44 48.5
-7 -1 10 651.23 47.5
6 1 -10 578.24 39.9
6 1 -10 657.53 45.7
-6 -1 10 567.74 43.8
5 1 -10 633.24 41.3
5 1 -10 588.54 47.3
-5 -1 10 677.93 45.1
4 1 -10 1119.49 65.09
4 1 -10 1074.29 67.69
-4 -1 10 1050.19 67.09
3 1 -10 598.84 40.2
3 1 -10 583.14 38.5
-3 -1 10 566.14 40.2
2 1 -10 556.24 38.5
2 1 -10 603.84 38.4
-2 -1 10 547.65 43.3
1 1 -10 695.73 45.2
1 1 -10 690.83 45
-1 -1 10 691.23 46.1
0 1 -10 1307.47 79.99
0 1 -10 1334.77 79.19
0 -1 10 1337.27 79.99
-1 1 -10 426.96 31.1
1 -1 10 408.16 32.7
-2 1 -10 234.48 23
2 -1 10 255.17 19.7
-3 1 -10 36.6 12
3 -1 10 24.9 8.2
-4 1 -10 182.18 23.8
4 -1 10 174.28 18.6
5 -1 10 710.03 47.3
-6 1 -10 322.37 33.6
-7 1 -10 681.63 53.59
-8 1 -10 234.58 37.6
-9 1 -10 60.49 29.6
-9 1 -10 23.5 18.8
-10 1 -10 15.3 36.9
9 1 -11 11 28.8
8 1 -11 27.5 13.8
8 1 -11 7.3 22
-8 -1 11 -20.7 26.4
7 1 -11 11.8 11.9
7 1 -11 14 19.5
-7 -1 11 6.8 16.9
6 1 -11 12.3 10.5
6 1 -11 46.4 16.7
-6 -1 11 -10.1 14.3
5 1 -11 2.8 9.2
5 1 -11 20.2 13.9
-5 -1 11 14.6 14.6
4 1 -11 10.4 13.3
4 1 -11 9.6 8.4
-4 -1 11 -13.1 11.9
3 1 -11 4.3 10.9
3 1 -11 -7.9 7.4
-3 -1 11 9.7 11
2 1 -11 15.3 9.4
2 1 -11 1.3 9.8
-2 -1 11 10.7 10.3
1 1 -11 44.6 12.4
1 1 -11 55.99 12.7
-1 -1 11 36.8 12.8
0 1 -11 2.8 9.2
0 1 -11 5.8 9.6
0 -1 11 -3.5 10.3
-1 1 -11 0.5 9.4
1 -1 11 3 12
-2 1 -11 21.1 11.2
2 -1 11 7.6 7.1
-3 1 -11 3.9 12
3 -1 11 9.2 8.2
4 -1 11 8.2 9.6
-5 1 -11 -6.8 14
5 -1 11 3.8 11.5
-6 1 -11 29.4 19.3
-7 1 -11 16.4 21.9
-8 1 -11 -16.6 25.1
-9 1 -11 3.6 30.6
9 1 -12 -18 30.3
8 1 -12 317.17 44.7
7 1 -12 610.84 51.79
7 1 -12 646.64 43.5
-7 -1 12 557.64 49.1
6 1 -12 237.88 30.3
6 1 -12 193.18 22
-6 -1 12 221.78 28.3
5 1 -12 214.88 22.7
5 1 -12 204.18 26.8
-5 -1 12 267.37 28.7
4 1 -12 424.76 30.9
4 1 -12 361.96 34.5
-4 -1 12 445.76 36.1
3 1 -12 208.98 26.9
3 1 -12 207.68 22.8
-3 -1 12 258.87 26.8
2 1 -12 631.34 43.5
2 1 -12 638.94 44.6
-2 -1 12 633.84 45.1
1 1 -12 333.57 29.4
1 1 -12 323.17 29
-1 -1 12 406.86 32.6
0 1 -12 661.13 45.2
0 1 -12 621.84 44
0 -1 12 623.54 46
-1 1 -12 1533.05 91.99
1 -1 12 1514.55 93.19
-2 1 -12 -9.6 12.6
2 -1 12 1.4 8.4
-3 1 -12 553.14 40.4
3 -1 12 475.05 34.4
-4 1 -12 447.66 36.4
4 -1 12 366.16 30
-5 1 -12 377.36 36
5 -1 12 324.07 29.4
-6 1 -12 439.76 42.3
-7 1 -12 273.77 41.3
-8 1 -12 90.79 32.5
8 1 -13 39.6 28.5
7 1 -13 -29 21.6
6 1 -13 2.4 18.2
6 1 -13 8.7 13.6
-6 -1 13 -11 19.4
5 1 -13 34 17.8
-5 -1 13 36.5 19.5
4 1 -13 -9.4 11.3
4 1 -13 1.5 14.4
-4 -1 13 22 16.1
3 1 -13 24.7 14.2
3 1 -13 33.3 13
-3 -1 13 17.8 16
2 1 -13 28.3 12.3
2 1 -13 20.2 13.5
-2 -1 13 25.2 15.9
1 1 -13 -6.5 11.8
1 1 -13 21.2 13.4
-1 -1 13 -0.7 14.6
0 1 -13 49.2 16.1
0 1 -13 49 14.9
0 -1 13 74.39 18.8
-1 1 -13 96.89 18.1
1 -1 13 154.88 25.8
-2 1 -13 24.2 14.4
2 -1 13 29 10.1
-3 1 -13 159.98 24
3 -1 13 92.39 17.2
-4 1 -13 19.9 17.5
4 -1 13 46.6 12.7
-5 1 -13 49.99 20.3
5 -1 13 37.3 14
-6 1 -13 2.2 21.8
-7 1 -13 28.5 28.8
-8 1 -13 -43.8 30.6
7 1 -14 82.79 29.5
-7 -1 14 76.09 28
6 1 -14 88.39 17.8
6 1 -14 53.79 23.6
5 1 -14 103.59 23.2
-5 -1 14 101.39 24.4
4 1 -14 25.3 18.5
-4 -1 14 18.3 19.4
3 1 -14 270.77 29
3 1 -14 280.77 30.2
-3 -1 14 296.47 33.1
2 1 -14 170.28 22.9
2 1 -14 140.89 22.9
-2 -1 14 160.88 26
1 1 -14 250.67 31.6
1 1 -14 272.57 28.5
-1 -1 14 233.88 32.2
0 1 -14 173.18 26
0 1 -14 227.88 27.6
0 -1 14 179.58 27.8
-1 1 -14 38.9 17
-1 1 -14 48 17.2
1 -1 14 37.3 20
-2 1 -14 650.13 47.1
2 -1 14 595.94 41.4
-3 1 -14 684.73 50.79
3 -1 14 637.74 43.6
-4 1 -14 180.78 31
4 -1 14 214.08 23.2
-5 1 -14 153.68 29
-6 1 -14 261.27 39.3
-7 1 -14 156.68 35.9
6 1 -15 -5.4 17.1
6 1 -15 -5.3 25.4
-6 -1 15 26.8 25.4
5 1 -15 -5.2 16.2
5 1 -15 4.5 21.8
4 1 -15 25.6 15.5
4 1 -15 33.3 21.3
-4 -1 15 46 23.8
3 1 -15 -2.9 17.7
3 1 -15 -10.3 14.2
-3 -1 15 -12.4 20
2 1 -15 29.3 17.8
2 1 -15 17.9 17.2
-2 -1 15 21.1 21.2
1 1 -15 177.88 25.7
1 1 -15 75.59 20.2
-1 -1 15 123.79 26.1
0 1 -15 81.09 19.5
0 -1 15 33.4 22.7
-1 1 -15 87.49 21.7
-1 1 -15 110.19 23.7
1 -1 15 86.99 16.3
-2 1 -15 -10 18.2
2 -1 15 10.2 12.7
-3 1 -15 73.89 22.6
-4 1 -15 4.6 22.7
4 -1 15 28.9 13.3
-5 1 -15 -0.3 23.8
-6 1 -15 25.5 28.2
5 1 -16 36.3 19.2
5 1 -16 72.09 27.7
-5 -1 16 40.3 29.5
4 1 -16 256.57 38.9
3 1 -16 181.78 28.6
3 1 -16 140.89 31.3
2 1 -16 49.5 21
2 1 -16 5.7 19.4
-2 -1 16 0.4 24.2
1 1 -16 421.76 40
1 1 -16 408.96 39.2
-1 -1 16 389.66 43.1
0 1 -16 136.19 26.5
0 1 -16 138.49 27.1
0 -1 16 148.19 29.7
-1 1 -16 151.58 26
-1 1 -16 118.39 26.7
1 -1 16 123.49 20
-2 1 -16 312.57 41.5
-2 1 -16 469.15 43.4
2 -1 16 363.46 32.7
-3 1 -16 202.58 33.1
3 -1 16 127.09 22.4
-4 1 -16 258.67 39.8
-5 1 -16 86.09 31.3
4 1 -17 159.08 31.1
4 1 -17 62.69 24.3
3 1 -17 46.1 21.7
3 1 -17 40.8 25.5
-3 -1 17 40 29.1
2 1 -17 38.8 23.4
2 1 -17 -0.3 22.1
1 1 -17 28.6 22.9
1 1 -17 9.7 22.5
0 1 -17 63.89 23.3
0 1 -17 -5.4 21.2
-1 1 -17 13.9 22.7
1 -1 17 12.1 17
-2 1 -17 60.39 26
-2 1 -17 34.3 25.3
2 -1 17 17.6 16
-3 1 -17 -19.7 26.2
-3 1 -17 -13.6 26.9
-4 1 -17 0.2 27.6
1 1 -18 44.8 28.2
1 1 -18 100.69 27.6
0 1 -18 86.49 30.3
0 1 -18 92.69 30.3
-1 1 -18 80.49 29.6
-1 1 -18 129.99 31.1
-1 -2 -18 161.98 33.6
-1 -2 -18 142.59 34
0 -2 -18 -42.9 25.7
1 -2 -18 145.89 30.1
1 -2 -18 130.89 29.3
-3 -2 -17 41.8 27.3
-2 -2 -17 70.39 25.3
1 2 17 56.09 10.7
-1 -2 -17 119.19 25.7
0 2 17 -2.7 15.5
0 -2 -17 -3.8 23.8
0 -2 -17 23.7 21.7
-1 2 17 22.9 20.6
1 -2 -17 15.3 22.4
1 -2 -17 0.6 21.9
-2 2 17 69.79 30
-2 2 17 81.99 26.8
2 -2 -17 110.69 25.3
-3 2 17 17.5 28.8
-3 2 17 63.29 28.8
3 -2 -17 19 22.2
3 -2 -17 5.6 19.3
-4 2 17 -20.6 32.7
-4 2 17 37.2 33.3
4 -2 -17 -14.9 24.8
-5 -2 -16 -2.7 28.8
-4 -2 -16 40.3 25.3
-3 -2 -16 83.09 24.4
-2 -2 -16 149.88 28
1 2 16 106.09 15.1
-1 -2 -16 81.39 23.7
0 2 16 204.98 25.6
0 -2 -16 162.88 29.2
0 -2 -16 213.68 30.6
-1 2 16 172.58 31.3
-1 2 16 183.28 31
1 -2 -16 194.58 29.1
1 -2 -16 270.97 31.5
-2 2 16 63.19 25.4
2 -2 -16 124.29 23.8
2 -2 -16 117.19 23.4
-3 2 16 91.49 25.8
-3 2 16 60.39 28
3 -2 -16 89.89 23.8
3 -2 -16 163.88 27.1
-4 2 16 258.37 35
-4 2 16 221.58 68.79
4 -2 -16 284.57 38.3
-5 2 16 193.58 33.5
-5 2 16 239.38 44
5 -2 -16 231.28 36
-6 -2 -15 47.3 31
-5 -2 -15 8.4 25.9
-4 -2 -15 18.6 21.8
-3 -2 -15 163.78 27.9
-2 -2 -15 -13.4 16.8
1 2 15 31.3 9.6
-1 -2 -15 9.1 17.8
0 -2 -15 90.69 19.7
-1 2 15 21.1 20.6
1 -2 -15 -3.8 18.2
1 -2 -15 -10.6 16.4
-2 2 15 9 20.8
2 -2 -15 4 16.2
-3 2 15 13 20.4
3 -2 -15 53.29 20
-4 2 15 57.19 22.8
4 -2 -15 -29.2 17.4
4 -2 -15 6.4 14.1
-5 2 15 31.8 24.2
-5 2 15 11.7 29
5 -2 -15 23.8 21.9
-6 2 15 20.4 37.2
-6 2 15 42.4 26.6
6 -2 -15 45.4 24.7
-7 -2 -14 36.7 30.3
-6 -2 -14 65.49 26.8
-5 -2 -14 22.8 22
-4 -2 -14 9.9 19.3
-3 -2 -14 24.8 17.8
-2 -2 -14 74.49 20
-1 -2 -14 -7 13.4
0 -2 -14 170.98 25.7
-1 2 14 -4.1 16.5
1 -2 -14 4.2 14
1 -2 -14 -35.2 12.2
-2 2 14 16.8 16.9
2 -2 -14 3.6 13.6
2 -2 -14 19.1 14.1
-3 2 14 47.7 18.4
3 -2 -14 13.9 13.2
3 -2 -14 24.2 15.5
-4 2 14 158.88 26
4 -2 -14 229.38 24.2
4 -2 -14 176.58 25.5
-5 2 14 192.58 30.9
5 -2 -14 146.99 21.7
5 -2 -14 168.88 26.8
-6 2 14 169.38 38.8
-6 2 14 206.98 30
6 -2 -14 219.38 33.9
-7 2 14 28.4 39
-7 2 14 96.79 28.9
7 -2 -14 96.59 29.4
-8 -2 -13 41.6 31.5
-7 -2 -13 43.8 28.6
-6 -2 -13 9.3 22.6
-5 -2 -13 11.9 19.6
-4 -2 -13 39.6 20.3
-3 -2 -13 -29.8 13.6
-2 -2 -13 86.19 19.3
-1 -2 -13 354.86 31.8
-1 2 13 102.89 19.3
1 -2 -13 74.09 16.3
-2 2 13 164.88 25.6
2 -2 -13 200.88 24
2 -2 -13 168.48 22.7
-3 2 13 9.4 14.7
3 -2 -13 -10 12.1
3 -2 -13 3.5 11
-4 2 13 110.29 20.9
4 -2 -13 74.09 18.8
4 -2 -13 124.19 19.1
-5 2 13 -10.3 17.2
5 -2 -13 10.2 16.3
5 -2 -13 -4 10
-6 2 13 10.4 18.9
-6 2 13 36.2 28.9
6 -2 -13 17.2 19.2
6 -2 -13 -0.2 10.7
-7 2 13 -14.1 32.9
-7 2 13 -0.6 21.2
7 -2 -13 18.5 23.4
-8 2 13 -14.6 37.6
8 -2 -13 11.8 27.5
-8 -2 -12 94.89 31.6
-7 -2 -12 127.39 28.8
-6 -2 -12 203.08 32.6
-5 -2 -12 186.58 29.4
-4 -2 -12 76.49 19.6
-2 -2 -12 -9.3 12.4
-1 -2 -12 262.67 26.5
0 2 12 26.8 15.5
0 -2 -12 31.3 12.4
-1 2 12 53.99 16.4
1 -2 -12 37.7 13.5
-2 2 12 145.89 20.5
2 -2 -12 106.79 17
2 -2 -12 145.49 18.9
-3 2 12 233.78 24.2
3 -2 -12 182.08 20.6
3 -2 -12 197.08 22.5
-4 2 12 6.1 12.6
4 -2 -12 -2.1 13.1
4 -2 -12 14.7 9.7
-5 2 12 103.49 19.7
5 -2 -12 135.59 22.4
5 -2 -12 72.89 12.9
-6 2 12 6.8 24.3
-6 2 12 14.4 17
6 -2 -12 -3.6 16.6
6 -2 -12 20.3 9.9
-7 2 12 11.5 19.2
-7 2 12 31.5 29
7 -2 -12 -10.4 11.6
7 -2 -12 -21.1 19.3
-8 2 12 127.29 42.5
-8 2 12 242.58 34.4
8 -2 -12 191.18 34.1
-9 2 12 38 28.4
-9 2 12 47.1 45.1
9 -2 -12 94.49 32.4
-9 -2 -11 32.1 31.4
-8 -2 -11 7.5 24.1
-7 -2 -11 -8.1 20.9
-6 -2 -11 179.48 29.3
-5 -2 -11 38 18.6
-4 -2 -11 39.7 16
-3 -2 -11 276.77 28.5
-2 -2 -11 6.6 11.4
-1 -2 -11 172.68 20.6
0 2 11 74.39 15.1
0 -2 -11 65.99 13.4
-1 2 11 28.5 11.6
1 -2 -11 31.4 11
-2 2 11 13.9 10.8
2 -2 -11 -1.7 8.4
2 -2 -11 16.7 10.1
3 -2 -11 13.8 9.5
3 -2 -11 24.1 10.9
-4 2 11 16.9 11.9
4 -2 -11 16.6 11.8
4 -2 -11 12.7 8.2
-5 2 11 25.1 13.3
5 -2 -11 12.2 8.1
5 -2 -11 21.3 13.6
-6 2 11 15.1 14
6 -2 -11 9.1 8.2
6 -2 -11 7 15.5
-7 2 11 21.3 27.2
-7 2 11 -0.8 17.1
7 -2 -11 -0.7 9
7 -2 -11 9.5 18.4
-8 2 11 0.1 20.3
-8 2 11 -10.5 30.7
8 -2 -11 23.7 22.9
-9 2 11 -63.49 34.8
9 -2 -11 0.1 29.4
-9 -2 -10 148.39 31.3
-8 -2 -10 289.77 44
-8 -2 -10 293.47 39.1
-8 -2 -10 260.87 27.3
-7 -2 -10 143.69 27
-6 -2 -10 72.79 21.4
-5 -2 -10 99.19 22.8
-4 -2 -10 86.69 17.7
-3 -2 -10 157.58 21.3
-2 -2 -10 264.77 24
-1 -2 -10 -14.1 7.8
0 2 10 11.3 9.9
0 -2 -10 15.3 7.9
-1 2 10 6.3 9.1
1 -2 -10 -6 7.6
-2 2 10 91.59 13.6
2 -2 -10 70.69 11.6
2 -2 -10 75.79 12.5
-3 2 10 14.3 10
3 -2 -10 13.9 7.5
3 -2 -10 28.3 10.2
4 -2 -10 3.8 6.6
4 -2 -10 8.3 10.3
-5 2 10 21.8 11.6
5 -2 -10 15.6 12.7
5 -2 -10 13.8 7.1
-6 2 10 83.49 16.6
6 -2 -10 60.09 10.1
6 -2 -10 82.69 17.6
-7 2 10 392.26 31.3
-7 2 10 227.88 42.9
7 -2 -10 331.37 24.5
7 -2 -10 344.67 36.7
-8 2 10 187.88 38
-8 2 10 131.99 23.4
8 -2 -10 129.19 26.5
-9 2 10 8.7 21.8
-9 2 10 12.1 35
9 -2 -10 23.9 25.3
-10 2 10 51.39 30.2
-10 2 10 28.6 45.8
10 -2 -10 120.39 38.4
-9 -2 -9 -29.8 25.6
-9 -2 -9 8.6 15.6
-8 -2 -9 29.9 23.1
-7 -2 -9 42.7 10.8
-6 -2 -9 121.29 13.5
-5 -2 -9 1.2 13.1
-4 -2 -9 157.68 20.7
-3 -2 -9 190.78 21
-2 -2 -9 38.3 10.3
-1 -2 -9 468.35 32.9
0 2 9 18.4 9.7
0 -2 -9 31.4 9.2
-1 2 9 0.7 7.6
1 -2 -9 16.2 8
-2 2 9 16.1 8.1
2 -2 -9 22.6 8.1
2 -2 -9 6.4 6.6
-3 2 9 274.67 22.3
3 -2 -9 259.77 22.3
3 -2 -9 265.07 20.1
-4 2 9 1.6 8.3
4 -2 -9 7.9 9
4 -2 -9 6.1 6.1
-5 2 9 3.6 10.1
5 -2 -9 -11 10.1
5 -2 -9 12.2 6
-6 2 9 89.49 15.1
-6 2 9 55.39 21.6
6 -2 -9 49 17.6
6 -2 -9 77.19 11.6
-7 2 9 20 14.7
-7 2 9 38.9 24
7 -2 -9 51.19 17.9
-8 2 9 5.2 27.1
-8 2 9 -24.6 14.8
8 -2 -9 2.7 18.7
-9 2 9 79.69 37.2
-9 2 9 40.4 19.9
9 -2 -9 -14.7 25.6
-10 2 9 -34 37.2
10 -2 -9 -51.69 29
-10 -2 -8 295.07 49.5
-9 -2 -8 376.16 62.59
-8 -2 -8 500.85 48.3
-8 -2 -8 604.54 42.4
-7 -2 -8 240.18 22.9
-6 -2 -8 543.15 35.5
-5 -2 -8 430.66 27.3
-4 -2 -8 849.32 55.09
-3 -2 -8 810.72 51.99
-2 -2 -8 305.67 23.9
-1 -2 -8 565.44 36.9
0 2 8 11.1 7.3
0 -2 -8 34.8 8.5
-1 2 8 496.35 32.5
1 -2 -8 498.55 32.7
-2 2 8 664.93 40.5
2 -2 -8 617.04 39.8
2 -2 -8 650.63 40.6
-3 2 8 908.31 53.59
3 -2 -8 892.01 52.19
3 -2 -8 855.51 53.79
-4 2 8 10.1 7.3
4 -2 -8 10.7 4.8
4 -2 -8 10.2 8
-5 2 8 194.98 19
5 -2 -8 149.79 19.2
5 -2 -8 185.78 14.4
-6 2 8 177.78 18.5
-6 2 8 97.69 24.2
6 -2 -8 138.39 13.3
6 -2 -8 157.08 20.8
-7 2 8 23.8 13.8
-7 2 8 -6.4 22.6
7 -2 -8 25.1 15.7
-8 2 8 6.3 25.2
-8 2 8 20.8 14.8
8 -2 -8 35.9 19.2
-9 2 8 22.9 17.9
-9 2 8 30.8 31.1
9 -2 -8 27.3 21.8
-10 2 8 57.39 38.2
10 -2 -8 10.1 28.2
-9 -2 -7 -53.59 33.5
-9 -2 -7 6.3 17.2
-8 -2 -7 58.29 21.5
-8 -2 -7 49.3 15.5
-7 -2 -7 66.59 13.6
-7 -2 -7 54.69 18.5
-6 -2 -7 19.3 8.3
-5 -2 -7 29.1 7.1
-4 -2 -7 182.58 13.3
-3 -2 -7 22.6 8.9
-2 -2 -7 45.9 9.3
-1 -2 -7 204.18 16.8
0 2 7 -3.1 5.2
0 -2 -7 -3.4 4.9
-1 2 7 422.76 27.6
1 -2 -7 418.46 27.4
-2 2 7 60.39 9.8
2 -2 -7 62.59 9
2 -2 -7 65.39 8.9
-3 2 7 462.85 29.1
3 -2 -7 420.76 29.4
3 -2 -7 439.26 27.4
-4 2 7 7.9 7.1
4 -2 -7 9.2 4.3
4 -2 -7 8.8 7.3
-5 2 7 2.2 7.2
5 -2 -7 -9.7 4.2
5 -2 -7 0.8 8.2
-6 2 7 159.18 27.9
-6 2 7 172.28 19.1
6 -2 -7 166.68 13.5
6 -2 -7 143.99 20.4
-7 2 7 33.1 8.1
-7 2 7 27.1 21.3
-7 2 7 24.8 12.2
7 -2 -7 36.8 22.9
-8 2 7 34 8.9
-8 2 7 17.7 14.4
-8 2 7 31.4 24.4
8 -2 -7 50.49 19.6
-9 2 7 92.09 30.7
-9 2 7 48.7 11.2
-9 2 7 12.2 16.3
9 -2 -7 13.7 21
-10 2 7 -6.2 11.4
-10 2 7 -19.3 19.6
-10 2 7 5.5 34.2
10 -2 -7 -23.7 25.5
-11 2 7 76.79 44.3
11 -2 -7 27.3 34.2
-10 -2 -6 410.96 43.9
-8 -2 -6 149.49 24.1
-8 -2 -6 211.58 29.1
-7 -2 -6 877.31 58.79
-7 -2 -6 796.82 54.29
-6 -2 -6 711.13 46.1
-5 -2 -6 450.25 30.1
-4 -2 -6 187.48 14.3
-3 -2 -6 2096.89 115.19
-2 -2 -6 1002 59.59
-1 -2 -6 57.09 9.1
0 2 6 54.79 8.2
0 -2 -6 47.7 7.7
-1 2 6 471.75 29.1
1 -2 -6 460.95 29.2
-2 2 6 156.78 12.7
2 -2 -6 154.38 12.9
2 -2 -6 146.69 12
-3 2 6 492.65 30.2
3 -2 -6 440.36 28.2
3 -2 -6 503.35 31
-4 2 6 29.4 7.5
4 -2 -6 14.3 7.1
4 -2 -6 21 4.2
-5 2 6 19.6 7.6
5 -2 -6 26.2 9.2
5 -2 -6 22.3 4.7
-6 2 6 163.78 16.8
-6 2 6 144.99 12.7
-6 2 6 113.69 23.2
6 -2 -6 134.19 19.4
-7 2 6 106.49 12.4
-7 2 6 133.49 17.4
-7 2 6 132.49 26.6
7 -2 -6 151.48 21.2
-8 2 6 8.2 21.9
-8 2 6 15.9 7.5
-8 2 6 36.8 14
8 -2 -6 20.6 16.6
-9 2 6 12.1 9
-9 2 6 4.1 14.9
-9 2 6 32.1 26.7
9 -2 -6 5.2 19.3
-10 2 6 23 11.3
-10 2 6 -27.3 31.1
-10 2 6 -3.7 17.9
10 -2 -6 39.1 26.6
-11 2 6 -27.7 37.3
-11 2 6 64.59 24.9
-11 2 6 31.3 27.9
11 -2 -6 18.9 32.3
-11 -2 -5 4.3 28.4
-10 -2 -5 44.9 22.3
-9 -2 -5 0 18.9
-9 -2 -5 24.3 17.2
-8 -2 -5 97.19 19.9
-8 -2 -5 139.59 24.2
-7 -2 -5 11 12.1
-7 -2 -5 22.4 15.1
-6 -2 -5 26 10.2
-6 -2 -5 22 15.5
-5 -2 -5 7.3 7
-4 -2 -5 107.99 11
-1 -2 -5 98.79 9.5
0 -2 -5 7 4
-1 2 5 38.5 6
1 -2 -5 39.9 5.7
-2 2 5 146.69 11.6
2 -2 -5 140.59 11.4
2 -2 -5 148.39 10.6
-3 2 5 835.12 47.9
3 -2 -5 819.12 46.1
3 -2 -5 787.32 48.3
-4 2 5 4.1 5.3
4 -2 -5 7.6 3.1
4 -2 -5 4 5.9
-5 2 5 145.69 14.5
-5 2 5 116.69 21.4
-5 2 5 129.99 10.6
5 -2 -5 148.69 16.3
-6 2 5 1.1 13.3
-6 2 5 9.2 4.9
-6 2 5 11.6 8.9
6 -2 -5 4.1 10.2
-7 2 5 6.4 5.2
-7 2 5 3.9 17.2
-7 2 5 13.2 9.9
7 -2 -5 -5.7 11.8
-8 2 5 15.3 12.4
-8 2 5 25 7.2
8 -2 -5 47.3 17.6
-9 2 5 136.49 15.9
-9 2 5 161.08 26.1
-9 2 5 181.68 34
9 -2 -5 180.38 30.2
-10 2 5 -30.3 30.9
-10 2 5 3.8 10.1
-10 2 5 30.3 19.1
10 -2 -5 58.99 26.1
-11 2 5 -1.8 23.7
-11 2 5 36.5 36.7
-11 2 5 2.7 12.1
11 -2 -5 -11 28.5
-11 -2 -4 332.77 46.9
-10 -2 -4 181.28 32
-9 -2 -4 541.05 44.5
-9 -2 -4 353.26 40.4
-8 -2 -4 259.97 30.3
-8 -2 -4 237.18 31.6
-7 -2 -4 430.66 36.6
-7 -2 -4 443.96 35.6
-6 -2 -4 506.65 37.7
-6 -2 -4 556.54 38.9
-5 -2 -4 1458.55 87.89
-5 -2 -4 1503.15 86.99
-4 -2 -4 2279.67 128.39
-3 -2 -4 2682.73 148.39
-2 -2 -4 3870.41 210.98
0 2 4 1110.29 61.99
0 -2 -4 1088.09 62.09
-1 2 4 440.76 26.7
1 -2 -4 461.15 26.9
-2 2 4 808.32 46.2
2 -2 -4 794.82 45.2
2 -2 -4 806.12 46.4
-3 2 4 164.88 12.1
-3 2 4 129.69 16
3 -2 -4 150.48 12.3
-4 2 4 1857.91 104.59
-4 2 4 1754.92 98.49
-4 2 4 1707.43 96.09
4 -2 -4 1760.62 99.69
4 -2 -4 1659.43 96.09
-5 2 4 452.65 35.4
-5 2 4 413.46 27.9
-5 2 4 403.36 24.6
5 -2 -4 407.26 29.6
-6 2 4 101.89 9.1
-6 2 4 112.29 13.6
-6 2 4 91.09 20.2
6 -2 -4 100.49 16.2
-7 2 4 564.64 34
-7 2 4 582.74 39
-7 2 4 556.84 48
7 -2 -4 557.94 42.5
-8 2 4 28.5 19.3
-8 2 4 19.7 6.9
-8 2 4 20.8 12.3
-9 2 4 15.3 8.2
-9 2 4 38.6 15.6
-9 2 4 -5.6 24.1
9 -2 -4 11.4 17.8
-10 2 4 58.69 19.2
-10 2 4 32.3 10.9
-10 2 4 3.4 28.1
10 -2 -4 4 23.5
-11 2 4 -8.8 12.3
-11 2 4 -11.8 33.4
11 -2 -4 11.8 29.7
-11 -2 -3 34.5 29.7
-9 -2 -3 48.2 20
-9 -2 -3 89.49 20.8
-8 -2 -3 90.69 20
-8 -2 -3 86.89 19.3
-7 -2 -3 107.89 20.4
-7 -2 -3 116.09 19.7
-6 -2 -3 -1.2 9
-6 -2 -3 5.2 10.7
-5 -2 -3 -0.1 7.8
-5 -2 -3 2.5 6.7
-4 -2 -3 68.99 10.6
-4 -2 -3 58.29 10.1
0 2 3 15.5 2.8
0 -2 -3 19.8 3.3
-1 2 3 122.99 10.5
-1 2 3 119.29 8.4
1 -2 -3 120.59 8.5
-2 2 3 1894.21 101.89
-2 2 3 1568.74 104.29
2 -2 -3 1918.51 100.69
2 -2 -3 1963.4 102.39
-3 2 3 220.38 15.4
-3 2 3 234.58 13.3
-3 2 3 229.38 19.7
3 -2 -3 225.38 16
3 -2 -3 214.88 13.2
-4 2 3 528.25 30.5
-4 2 3 537.85 33.3
-4 2 3 542.05 38.8
4 -2 -3 545.25 34.5
-5 2 3 15.1 10.4
-5 2 3 -4.3 5.3
-5 2 3 5.8 3
5 -2 -3 8 7.3
-6 2 3 26.4 13.8
-6 2 3 22.2 4.9
-6 2 3 10.6 8
6 -2 -3 26.8 11.6
-7 2 3 8.1 5.3
-7 2 3 -8.9 14.3
-7 2 3 2 8.6
7 -2 -3 24.1 12.7
-8 2 3 19.5 19.5
-8 2 3 11.7 6.9
-8 2 3 36.3 12.7
8 -2 -3 0.4 14.7
-9 2 3 -19.6 21.8
-9 2 3 2.8 14.1
-9 2 3 3.2 8
9 -2 -3 11.6 18.2
-10 2 3 13.4 10.6
-10 2 3 24.2 28.5
-10 2 3 54.79 20
10 -2 -3 46.1 24.4
-11 2 3 47.1 13.9
-11 2 3 -11.4 33.1
11 -2 -3 94.79 31.2
-11 -2 -2 139.89 28.6
-10 -2 -2 864.01 56.99
-10 -2 -2 729.93 63.29
-9 -2 -2 182.38 30
-9 -2 -2 195.08 27.7
-8 -2 -2 297.57 33.1
-8 -2 -2 289.77 29.6
-7 -2 -2 637.94 45.1
-7 -2 -2 620.84 47.3
-6 -2 -2 435.36 32.6
-6 -2 -2 435.26 34.4
-5 -2 -2 750.62 47.9
-4 -2 -2 2009.3 114.39
-3 -2 -2 524.45 32.7
0 2 2 3168.38 167.48
0 -2 -2 2963.9 167.58
-1 2 2 5804.12 314.27
-1 2 2 5835.92 312.37
1 -2 -2 5226.98 313.97
1 -2 -2 6090.79 312.57
-2 2 2 4871.21 271.27
-2 2 2 5055.89 274.27
2 -2 -2 4983.5 271.67
-3 2 2 401.66 24.7
-3 2 2 402.46 22.5
-3 2 2 399.76 28.4
3 -2 -2 397.16 25.3
-4 2 2 687.13 39
-4 2 2 601.14 42.9
-4 2 2 632.34 36.2
4 -2 -2 630.74 39.8
-5 2 2 349.87 21.2
-5 2 2 328.77 23.9
-5 2 2 318.77 29.1
5 -2 -2 369.26 26.4
-6 2 2 502.05 33.9
-6 2 2 492.75 30.6
-6 2 2 496.35 40.5
6 -2 -2 535.55 37.1
-7 2 2 224.38 30
-7 2 2 238.18 17.6
-7 2 2 194.38 23.4
7 -2 -2 271.87 25.4
-8 2 2 347.67 25
-8 2 2 363.66 30.7
-8 2 2 412.36 40.1
8 -2 -2 328.97 34.4
-9 2 2 46.7 24.4
-9 2 2 66.19 12.1
-9 2 2 86.29 18.4
9 -2 -2 84.99 20.8
-10 2 2 -29.5 24.9
-10 2 2 12.5 17.8
-10 2 2 61.79 12.7
10 -2 -2 26.6 22.5
-11 2 2 94.99 19.5
-11 2 2 127.59 37.7
11 -2 -2 63.39 30.5
-12 -2 -1 83.79 47.4
-12 -2 -1 93.49 28.4
-11 -2 -1 249.08 35.8
-10 -2 -1 16.1 17.5
-10 -2 -1 13.4 21.3
-9 -2 -1 59.89 18.5
-9 -2 -1 82.49 23.2
-9 -2 -1 48.7 15.9
-8 -2 -1 19.3 13.6
-8 -2 -1 -23.8 13.9
-7 -2 -1 27.6 12.3
-7 -2 -1 32.2 13.9
-6 -2 -1 -7.8 8.7
-5 -2 -1 32 8.9
-4 -2 -1 12.7 6.5
-3 -2 -1 565.34 34.7
-2 -2 -1 419.16 25.4
0 2 1 106.09 6.9
0 -2 -1 95.39 6.8
-1 2 1 77.89 5.3
-1 2 1 81.29 7.5
1 -2 -1 88.79 7.4
1 -2 -1 89.69 4.9
1 -2 -1 78.99 5.5
-2 2 1 119.19 11.4
-2 2 1 148.39 9.5
2 -2 -1 143.59 9.9
2 -2 -1 123.59 13.1
-3 2 1 1051.59 62.69
-3 2 1 1013.5 59.29
3 -2 -1 1058.09 60.19
-4 2 1 4 4.8
-4 2 1 3.9 6.7
4 -2 -1 3.9 5.5
-5 2 1 62.99 10.4
-5 2 1 56.29 13.9
5 -2 -1 74.69 11.7
-6 2 1 14.1 8
-6 2 1 18.6 13.4
6 -2 -1 22 10
-7 2 1 -18.4 14.7
-7 2 1 9 6.5
-7 2 1 7.7 13
7 -2 -1 10.3 11
-8 2 1 0.1 11.2
-8 2 1 2.6 7.8
-8 2 1 -11.6 16.6
8 -2 -1 -4.3 14.7
-9 2 1 39.3 16.2
-9 2 1 7.1 21.6
-9 2 1 25.6 10.6
9 -2 -1 41.6 19.6
-10 2 1 46.5 25.9
-10 2 1 35.4 12.9
-10 2 1 37.3 18.4
10 -2 -1 37.1 21.6
-11 2 1 108.09 19.1
-11 2 1 70.39 35.7
-12 2 1 51.19 38.2
-12 2 1 46.3 19.6
-12 -2 0 54.09 26.7
-12 -2 0 -42.3 35.6
-11 -2 0 19.8 20
-11 -2 0 -8.5 30.6
-10 -2 0 -0.8 15.6
-10 -2 0 8.7 24.4
-9 -2 0 43.2 16.7
-9 -2 0 18.5 13.1
-9 -2 0 15.3 21.5
8 2 0 728.73 52.29
-8 -2 0 744.13 50.99
-8 -2 0 740.53 55.99
7 2 0 541.95 38.1
-7 -2 0 450.15 35.6
-7 -2 0 480.15 33.5
6 2 0 1313.47 79.79
-6 -2 0 1378.16 79.29
-6 -2 0 1273.17 76.99
5 2 0 950.9 58.09
-5 -2 0 947.81 57.79
4 2 0 348.77 24.8
-4 -2 0 378.36 25.1
3 2 0 607.54 36.9
-3 -2 0 611.24 36.9
2 2 0 131.69 9.9
-2 -2 0 141.69 10.2
-2 -2 0 128.39 9.7
1 2 0 1103.99 60.89
1 2 0 1072.09 61.29
-1 -2 0 1143.19 61.39
-1 -2 0 1085.39 60.99
0 -2 0 6660.33 362.26
-1 2 0 1156.38 62.19
-1 2 0 1120.69 63.49
-1 2 0 1204.28 61.99
1 -2 0 1186.38 63.79
1 -2 0 1085.59 63.19
1 -2 0 1023.3 61.99
-2 2 0 121.29 10.7
-2 2 0 126.19 9.3
2 -2 0 129.39 9.5
2 -2 0 128.89 15.7
-3 2 0 600.54 35.4
-3 2 0 602.54 37.7
3 -2 0 580.54 35.7
3 -2 0 566.94 37.4
-4 2 0 365.46 27.3
-4 2 0 369.46 24.3
4 -2 0 339.47 24.7
-5 2 0 945.41 57.59
-5 2 0 958.3 61.79
5 -2 0 967 58.79
-6 2 0 1283.17 82.39
-6 2 0 1349.56 78.19
6 -2 0 1291.47 79.29
-7 2 0 464.35 38.7
-7 2 0 481.15 42.1
7 -2 0 512.95 37.7
-8 2 0 711.13 55.79
-8 2 0 709.63 48.9
8 -2 0 734.63 52.59
-9 2 0 15.5 15.2
-9 2 0 50.89 12.5
9 -2 0 34.1 19.2
-10 2 0 3.6 19
-10 2 0 31.9 25.7
-11 2 0 81.69 33.4
-12 2 0 -1.4 20.4
-12 2 0 -16.2 36.2
-12 -2 1 -56.89 37.1
-12 -2 1 33.3 23.6
-11 -2 1 61.49 21.2
-11 -2 1 120.39 37.4
10 2 -1 48 23.3
-10 -2 1 -0.1 24.9
-10 -2 1 5.2 15.6
9 2 -1 8.2 17.8
-9 -2 1 -25.8 20.6
-9 -2 1 -4.3 15.1
-9 -2 1 28.5 13.2
8 2 -1 0.6 13.9
-8 -2 1 5.3 9.7
-8 -2 1 9.6 12.6
7 2 -1 11.9 12
-7 -2 1 17.3 10.5
-7 -2 1 16 8.6
6 2 -1 26.9 10.7
-6 -2 1 23.3 9.5
-6 -2 1 26.2 8.1
5 2 -1 68.39 12.2
-5 -2 1 91.79 12.1
-5 -2 1 57.79 9.7
4 2 -1 -1.9 4.8
-4 -2 1 -1.3 4.9
-4 -2 1 1.8 4.1
3 2 -1 1071.39 62.39
-3 -2 1 1063.49 61.99
-3 -2 1 1099.39 61.39
2 2 -1 141.69 10.1
2 2 -1 145.29 10.5
-2 -2 1 146.59 10.1
-2 -2 1 130.39 10.2
1 2 -1 94.59 6.7
1 2 -1 78.69 6.3
-1 -2 1 84.99 6.4
-1 -2 1 99.49 6.7
0 2 -1 92.89 5.8
0 -2 1 90.99 5.9
0 -2 1 88.19 6.3
-1 2 -1 184.58 11.9
-1 2 -1 157.28 10.9
1 -2 1 180.18 12
1 -2 1 173.18 11.2
-2 2 -1 462.75 27.5
-2 2 -1 443.16 28.3
2 -2 1 466.55 30.3
-3 2 -1 541.65 34.3
-3 2 -1 545.25 32.7
3 -2 1 485.65 33.9
3 -2 1 553.54 33
-4 2 -1 10.1 6
-4 2 -1 15.8 7.3
4 -2 1 5.9 5.6
4 -2 1 4.8 6.8
-5 2 -1 5.3 8
-5 2 -1 28.9 8.6
5 -2 1 13.3 8.9
-6 2 -1 -0.1 10.5
-6 2 -1 10.5 8.9
6 -2 1 -0.6 9
-7 2 -1 19.4 13.7
-7 2 -1 44.4 12.4
-8 2 -1 2.2 12.9
-8 2 -1 22.3 15.3
-9 2 -1 40.5 22.4
-9 2 -1 48.9 17.7
-10 2 -1 3.9 17.9
-10 2 -1 49.6 24
-11 2 -1 178.68 25.3
-11 2 -1 175.18 37.7
-12 2 -1 73.49 24.5
-12 2 -1 58.29 38.8
11 2 -2 64.89 31
-11 -2 2 114.69 22.2
-11 -2 2 62.39 27.7
-11 -2 2 112.89 35.1
10 2 -2 74.29 23.8
-10 -2 2 22.8 14.7
-10 -2 2 0.5 25.5
9 2 -2 53.69 20.4
-9 -2 2 64.69 25.7
-9 -2 2 73.99 18.6
-9 -2 2 84.59 15.4
8 2 -2 367.76 34.2
-8 -2 2 399.56 28.3
-8 -2 2 349.77 32.4
7 2 -2 240.88 25.5
-7 -2 2 280.47 21.6
-7 -2 2 254.87 24.9
6 2 -2 506.45 37
-6 -2 2 506.05 33.2
-6 -2 2 547.75 35.9
5 2 -2 333.47 25.7
-5 -2 2 333.17 24.8
-5 -2 2 355.76 23.2
4 2 -2 615.44 40.4
-4 -2 2 655.33 38.5
-4 -2 2 664.43 39.9
3 2 -2 409.56 26.1
3 2 -2 378.06 24.9
-3 -2 2 402.96 25.7
-3 -2 2 425.76 24.9
2 2 -2 4881.81 271.37
2 2 -2 4862.61 270.97
-2 -2 2 5128.29 274.67
1 2 -2 6042 340.27
1 2 -2 6397.76 340.47
-1 -2 2 6138.19 340.37
-1 -2 2 6394.46 340.47
0 2 -2 3445.96 187.08
0 2 -2 3120.89 187.28
0 -2 2 3563.04 187.28
0 -2 2 3564.84 187.68
-1 2 -2 9861.71 531.65
1 -2 2 9435.06 531.75
1 -2 2 9999 532.15
-2 2 -2 2197.98 119.59
2 -2 2 2079.79 124.09
-3 2 -2 485.15 32.1
-3 2 -2 503.95 31.7
3 -2 2 530.15 33.1
-4 2 -2 1911.11 107.29
-4 2 -2 1930.21 105.99
4 -2 2 1718.03 106.79
-5 2 -2 743.83 49.2
-5 2 -2 758.92 47.7
-6 2 -2 491.95 33.7
-6 2 -2 420.66 34.7
-7 2 -2 670.13 48.9
-7 2 -2 609.04 44
-8 2 -2 270.17 32.1
-8 2 -2 314.37 30.4
-9 2 -2 161.38 28.9
-9 2 -2 228.88 28.2
-10 2 -2 956.9 73.39
-10 2 -2 946.91 66.79
-11 2 -2 129.89 37.4
11 2 -3 115.69 31.8
-11 -2 3 33.9 18.6
-11 -2 3 5.1 31.9
10 2 -3 -24.5 23.2
-10 -2 3 46.6 27.2
-10 -2 3 26.5 18.7
-10 -2 3 15.8 14.1
9 2 -3 27.8 19
-9 -2 3 -16.5 10
-9 -2 3 3.6 14.5
8 2 -3 36.9 17
-8 -2 3 21.7 9.7
-8 -2 3 18 12.3
7 2 -3 22.1 12.6
-7 -2 3 -1.3 10
-7 -2 3 -3 7
6 2 -3 16 9.7
-6 -2 3 21.3 9
-6 -2 3 20.3 7.4
5 2 -3 4 6.9
-5 -2 3 2.1 5.1
-5 -2 3 4.5 6.4
4 2 -3 500.75 32.4
4 2 -3 554.44 34.5
-4 -2 3 574.34 34.1
-4 -2 3 500.45 32
3 2 -3 242.48 18
3 2 -3 239.88 16.8
-3 -2 3 251.77 17.6
-3 -2 3 253.07 16.5
2 2 -3 1958.7 108.49
2 2 -3 1946.61 108.99
-2 -2 3 1948.21 108.49
-2 -2 3 1965.3 108.89
1 2 -3 114.49 8.9
1 2 -3 126.59 9.1
-1 -2 3 125.49 9.3
-1 -2 3 120.19 10.5
0 2 -3 17.5 3.7
0 2 -3 23.8 3.8
0 -2 3 26.3 4.2
0 -2 3 20.8 6.4
-1 2 -3 312.77 19.6
1 -2 3 297.77 19.7
1 -2 3 309.97 19.4
-2 2 -3 1686.93 86.09
-2 2 -3 1548.84 86.09
2 -2 3 1318.77 87.09
-3 2 -3 243.68 18.1
3 -2 3 233.58 18.6
-4 2 -3 59.69 10.7
-4 2 -3 49.99 9.9
4 -2 3 64.19 11.9
-5 2 -3 5.7 7.3
-5 2 -3 0 7.5
5 -2 3 -11.5 8.1
-6 2 -3 17.1 9.9
-6 2 -3 9 11.1
-7 2 -3 112.69 20.1
-7 2 -3 106.39 18.2
-8 2 -3 117.99 20
-8 2 -3 87.99 21
-9 2 -3 34.6 19.1
-9 2 -3 67.99 20.1
-10 2 -3 72.09 25.3
-10 2 -3 117.29 24.6
-11 2 -3 20.7 29
-11 2 -3 98.89 37.1
11 2 -4 10.3 31.1
-11 -2 4 18.8 18
10 2 -4 33 24.2
-10 -2 4 1.5 17.2
-10 -2 4 -61.49 26.1
-10 -2 4 54.19 15.3
9 2 -4 14.1 20.1
-9 -2 4 23 16.1
-9 -2 4 22.9 11.6
-8 -2 4 -1.5 8.8
-8 -2 4 7.9 12.1
7 2 -4 514.45 41
-7 -2 4 578.54 36.4
-7 -2 4 561.54 39.1
6 2 -4 87.09 15.8
-6 -2 4 112.09 12.8
-6 -2 4 129.09 15.4
5 2 -4 430.76 29.6
5 2 -4 374.76 26.5
-5 -2 4 382.96 27.7
-5 -2 4 408.36 26
4 2 -4 1693.93 99.19
4 2 -4 1771.52 101.09
-4 -2 4 1789.72 100.39
-4 -2 4 1785.82 98.99
3 2 -4 128.99 12.6
-3 -2 4 144.09 11.9
-3 -2 4 169.68 12.9
2 2 -4 824.92 47.3
2 2 -4 772.22 47.7
-2 -2 4 877.31 48
-2 -2 4 802.42 47.5
1 2 -4 431.16 26.4
1 2 -4 430.56 26.5
-1 -2 4 447.96 26.9
-1 -2 4 426.96 26.7
0 2 -4 1103.39 62.99
0 2 -4 1125.49 62.49
0 -2 4 1071.39 62.69
-1 2 -4 322.47 21.2
1 -2 4 327.27 21.6
-2 2 -4 4180.98 233.58
-2 2 -4 4518.55 233.18
2 -2 4 3998.7 233.08
-3 2 -4 2866.81 152.48
-3 2 -4 2777.62 153.08
3 -2 4 2539.65 152.58
-4 2 -4 2530.35 135.39
4 -2 4 2237.98 135.49
-5 2 -4 1603.04 90.19
-5 2 -4 1490.95 89.89
5 -2 4 1456.45 90.49
-6 2 -4 551.34 40.4
-6 2 -4 571.94 40.7
-7 2 -4 460.25 36.6
-7 2 -4 452.25 37.3
-8 2 -4 252.87 31.7
-8 2 -4 333.67 33.5
-9 2 -4 602.54 49.99
-9 2 -4 593.44 48.2
-10 2 -4 232.48 40
-11 2 -4 155.18 36.6
11 2 -5 4.3 30.9
-11 -2 5 -45.9 17
-11 -2 5 -17.7 35.7
10 2 -5 -7 24.3
-10 -2 5 19.6 28.6
-10 -2 5 -4.3 13.6
9 2 -5 159.48 27.7
-9 -2 5 129.39 21.8
-9 -2 5 154.08 20
8 2 -5 20.1 16.5
-8 -2 5 33.2 13.7
-8 -2 5 32.1 10.6
7 2 -5 7.3 12.8
-7 -2 5 5.3 9.8
-7 -2 5 -11 7.3
6 2 -5 14.3 10.7
-6 -2 5 8.7 7
-6 -2 5 16.9 9.3
5 2 -5 153.08 13.8
5 2 -5 130.89 16
-5 -2 5 128.49 14.6
-5 -2 5 138.59 12.8
4 2 -5 11.8 7.1
4 2 -5 7.6 4.7
-4 -2 5 6.9 6.4
-4 -2 5 8.1 4.9
3 2 -5 844.32 50.59
3 2 -5 882.91 49.6
-3 -2 5 816.42 49.5
-3 -2 5 833.02 50.29
2 2 -5 148.39 12.5
2 2 -5 149.49 11.9
-2 -2 5 151.98 12.5
-2 -2 5 164.58 13.1
1 2 -5 42.5 6.5
1 2 -5 31.3 5.8
-1 -2 5 47.9 7
-1 -2 5 38.4 6.6
0 2 -5 -2.3 3.7
0 2 -5 3.8 4
0 -2 5 5.8 4.4
-1 2 -5 106.79 10.1
1 -2 5 88.79 10.6
-2 2 -5 1 4.7
2 -2 5 7.5 4.4
-3 2 -5 1283.37 68.49
-3 2 -5 1172.08 69.49
3 -2 5 1071.29 68.49
-4 2 -5 129.29 15.5
-4 2 -5 142.69 13.6
4 -2 5 109.79 15
-5 2 -5 6.2 7.5
5 -2 5 2 8.9
-6 2 -5 19.4 10.7
-6 2 -5 21.1 11.3
-7 2 -5 49.99 14.5
-7 2 -5 48.6 15.5
-8 2 -5 159.58 25.1
-8 2 -5 146.39 25.3
-9 2 -5 3 18.5
-9 2 -5 -17.7 18.1
-10 2 -5 72.99 24.9
-11 2 -5 44.8 25.5
11 2 -6 52.69 36
-11 -2 6 1.8 39.1
-11 -2 6 92.39 21.3
10 2 -6 -21.5 23.4
-10 -2 6 20.5 15.2
9 2 -6 32.2 21.8
-9 -2 6 1.2 16.7
-9 -2 6 17 12.6
8 2 -6 31.3 16.9
-8 -2 6 -9.2 9.3
-8 -2 6 -15.8 12.8
7 2 -6 89.19 18
-7 -2 6 96.79 16
-7 -2 6 93.29 14.5
6 2 -6 132.19 20.4
6 2 -6 149.29 15.3
-6 -2 6 140.69 15.5
-6 -2 6 157.88 17.5
5 2 -6 11.2 9
5 2 -6 26.3 7.1
-5 -2 6 16.6 7.3
-5 -2 6 25.2 8.8
4 2 -6 12.7 5.6
4 2 -6 9.9 7
-4 -2 6 24.4 7
-4 -2 6 23.9 7.6
3 2 -6 445.56 30.3
3 2 -6 443.46 29.1
-3 -2 6 475.45 30.2
-3 -2 6 485.65 30.6
2 2 -6 154.78 12.7
2 2 -6 145.49 13.2
-2 -2 6 156.18 13.6
-2 -2 6 151.38 13.4
1 2 -6 424.76 28.5
1 2 -6 463.75 28.6
-1 -2 6 450.75 28.9
0 2 -6 41.4 8
0 2 -6 49.6 8.1
0 -2 6 53.39 8.7
-1 2 -6 72.59 9.9
1 -2 6 67.19 10.3
-2 2 -6 976.8 58.79
2 -2 6 991.3 57.59
-3 2 -6 1953.3 110.19
3 -2 6 1876.91 108.89
-4 2 -6 203.68 16.5
-4 2 -6 159.58 18
4 -2 6 170.28 17.7
-5 2 -6 433.06 29.8
-5 2 -6 380.36 31.8
5 -2 6 401.66 31.6
-6 2 -6 712.93 46.5
-6 2 -6 662.63 47.9
-7 2 -6 848.12 59.69
-7 2 -6 907.41 58.89
-8 2 -6 143.89 24.6
-9 2 -6 634.84 53.09
-9 2 -6 668.73 52.49
-10 2 -6 376.46 44.1
-11 2 -6 98.79 30.8
11 2 -7 8.8 35
-11 -2 7 1.8 20.3
-11 -2 7 16 39.7
10 2 -7 4.3 26.9
-10 -2 7 35.7 16.8
9 2 -7 27 22.1
-9 -2 7 50.39 18.9
-9 -2 7 54.79 14.7
8 2 -7 43.1 19.7
-8 -2 7 56.79 15.4
-8 -2 7 41.4 12.3
7 2 -7 11.3 9.7
-7 -2 7 16.3 10.1
-7 -2 7 45.5 13.2
6 2 -7 182.18 17.2
6 2 -7 201.78 22
-6 -2 7 167.38 17.8
-6 -2 7 153.38 18.9
5 2 -7 -10.4 8
5 2 -7 8.9 6.4
-5 -2 7 5.5 9.3
-5 -2 7 -0.1 7.9
4 2 -7 5.4 5.9
4 2 -7 9.7 7.9
-4 -2 7 15.2 7.4
-4 -2 7 12.8 7.7
3 2 -7 438.46 29.1
3 2 -7 444.56 30.4
-3 -2 7 476.05 30.9
-3 -2 7 453.55 30.1
2 2 -7 78.89 10.1
2 2 -7 62.39 9.4
-2 -2 7 79.59 10.9
1 2 -7 425.26 28.6
1 2 -7 435.26 28.5
-1 -2 7 436.86 29
0 2 -7 1 5.6
0 2 -7 -0.3 4.9
0 -2 7 2 6.1
-1 2 -7 220.38 18.2
1 -2 7 214.28 18.8
-2 2 -7 50.59 10.3
2 -2 7 57.49 10.8
2 -2 7 57.29 9.5
-3 2 -7 26.9 9
3 -2 7 18.8 7.5
-4 2 -7 206.78 16.3
-4 2 -7 164.58 18.7
4 -2 7 131.69 17.3
-5 2 -7 37.1 9.6
-5 2 -7 30.5 12
5 -2 7 45.3 11.7
-6 2 -7 -2.9 12.9
-6 2 -7 26.6 10.5
6 -2 7 34.4 13.5
-7 2 -7 71.79 18.9
-7 2 -7 79.69 15.9
-8 2 -7 74.79 17.8
-8 2 -7 69.19 21.4
-9 2 -7 49.4 23.9
-9 2 -7 16.1 18.3
-10 2 -7 4.7 22.3
-10 2 -7 14 31.9
10 2 -8 28.3 28
-10 -2 8 53.79 19.6
9 2 -8 -14 22.5
-9 -2 8 28.8 15.1
-9 -2 8 3.7 17.3
8 2 -8 29.9 17.7
-8 -2 8 -12.6 14.8
7 2 -8 25.7 10
7 2 -8 11.3 14.8
-7 -2 8 16.2 13.5
-7 -2 8 3.7 11.1
6 2 -8 126.19 16.5
6 2 -8 139.89 21.2
-6 -2 8 167.48 18.8
-6 -2 8 162.38 19.3
5 2 -8 210.38 21.1
5 2 -8 192.08 17.6
-5 -2 8 203.98 20.7
-5 -2 8 165.98 18.7
4 2 -8 18.2 7
4 2 -8 15.6 8.9
-4 -2 8 9.7 8.7
-4 -2 8 12 9.8
3 2 -8 823.32 52.59
3 2 -8 920.51 54.39
-3 -2 8 901.61 54.39
2 2 -8 642.34 40.9
2 2 -8 657.93 40.4
-2 -2 8 625.74 41
1 2 -8 486.55 32.4
1 2 -8 490.75 32.2
-1 -2 8 473.95 32.8
0 2 -8 36.6 8.5
0 2 -8 21 7.9
0 -2 8 28.1 8.7
-1 2 -8 564.44 37
1 -2 8 553.94 37.9
-2 2 -8 331.17 25.2
2 -2 8 320.17 22.9
2 -2 8 303.97 25.6
-3 2 -8 785.42 50.49
3 -2 8 787.52 48.5
-4 2 -8 844.92 50.49
4 -2 8 678.03 47.6
-5 2 -8 456.55 30.7
-5 2 -8 418.36 34.2
5 -2 8 413.36 33.1
-6 2 -8 564.84 44.6
-6 2 -8 581.64 39.6
6 -2 8 562.84 43.1
-7 2 -8 236.48 31.7
-7 2 -8 290.97 31.8
-7 2 -8 271.67 26.8
-8 2 -8 606.44 51.09
-8 2 -8 653.53 47
-8 2 -8 588.94 53.49
-9 2 -8 277.07 33.2
-9 2 -8 260.67 43.2
-10 2 -8 277.17 46.3
-10 2 -8 365.16 52.39
10 2 -9 15.3 31.4
-10 -2 9 -3 19.9
9 2 -9 64.39 26.8
-9 -2 9 27.8 17.2
8 2 -9 0 19.1
-8 -2 9 -9.5 15.3
-8 -2 9 4.8 14.4
7 2 -9 33.9 18.4
7 2 -9 26.4 11.8
-7 -2 9 20.8 14.1
6 2 -9 78.99 21.3
6 2 -9 78.49 13.1
-6 -2 9 120.69 20.1
-6 -2 9 66.19 14.5
5 2 -9 5.2 10.6
5 2 -9 8.9 7.7
-5 -2 9 5.5 9.1
-5 -2 9 10.1 11.2
4 2 -9 9.1 9.3
4 2 -9 5.5 7.1
-4 -2 9 18.8 10
3 2 -9 270.87 21.2
3 2 -9 298.27 22.8
-3 -2 9 228.28 26.2
2 2 -9 15.2 7.6
2 2 -9 29.2 8.9
-2 -2 9 18.2 8.9
1 2 -9 11 7.2
1 2 -9 17.5 8
-1 -2 9 24.9 9.4
0 2 -9 27.7 9.5
0 2 -9 32.8 9
0 -2 9 17 9.4
-1 2 -9 462.05 32.4
1 -2 9 449.26 33.2
-2 2 -9 10.8 9.4
2 -2 9 15.2 10.4
2 -2 9 20 7.6
-3 2 -9 190.68 21.3
3 -2 9 194.78 18.5
-4 2 -9 167.98 20.7
4 -2 9 173.78 19.6
-5 2 -9 -7.9 12.7
5 -2 9 9.3 11
-6 2 -9 118.29 21.2
-6 2 -9 98.09 16.1
6 -2 9 102.19 18.7
-7 2 -9 40.9 13.7
-7 2 -9 66.89 21.8
-8 2 -9 -12.9 13.2
-8 2 -9 6.1 24.5
-8 2 -9 28.3 21.9
-9 2 -9 23.8 26.6
-10 2 -9 5.1 34.2
10 2 -10 -11 31.2
-10 -2 10 29.7 24.2
9 2 -10 45.1 26
-9 -2 10 22.2 19.5
-9 -2 10 37.9 24.5
8 2 -10 99.59 18.3
8 2 -10 105.19 25.9
-8 -2 10 161.68 25.7
-8 -2 10 104.19 22.4
7 2 -10 385.26 36.1
7 2 -10 306.57 30.6
-7 -2 10 321.17 33.8
-7 -2 10 346.37 31.8
6 2 -10 63.59 12.6
6 2 -10 67.59 18.1
-6 -2 10 48.5 15.8
5 2 -10 22.7 9.7
-5 -2 10 30.9 13.2
4 2 -10 -13.4 9.6
4 2 -10 15.3 8.3
-4 -2 10 18 10.9
3 2 -10 16.3 9.9
3 2 -10 31.4 9.4
-3 -2 10 16.9 10.6
2 2 -10 84.19 13.6
2 2 -10 94.89 14.6
-2 -2 10 90.99 15.9
1 2 -10 9.3 8.5
1 2 -10 9.5 8.6
-1 -2 10 5.7 12.3
0 2 -10 -10 8.1
0 2 -10 1 7.5
0 -2 10 -2.5 9.4
-1 2 -10 -0.6 7.9
-2 2 -10 267.67 23.3
2 -2 10 250.67 20.6
2 -2 10 213.28 24.3
-3 2 -10 185.38 22.3
3 -2 10 189.98 18.9
-4 2 -10 52.99 15.2
4 -2 10 79.89 13.7
5 -2 10 119.59 18.6
-6 2 -10 48.5 19.1
6 -2 10 70.29 17.7
-7 2 -10 150.28 26.7
-8 2 -10 361.16 42.4
-9 2 -10 180.38 35.6
9 2 -11 28.6 28.4
8 2 -11 52.09 25.1
7 2 -11 3.3 12.3
7 2 -11 7.6 18.6
-7 -2 11 19.9 18.4
6 2 -11 -2.2 15.2
6 2 -11 5.3 10.9
-6 -2 11 -16.9 15.1
5 2 -11 3.4 9.4
5 2 -11 -8.4 12.6
-5 -2 11 16.1 14.2
-4 -2 11 43.9 14.3
3 2 -11 21.8 11.2
3 2 -11 43.2 11.3
-3 -2 11 32.6 13.1
2 2 -11 13.2 9.2
2 2 -11 10.3 9.5
-2 -2 11 13 11.7
1 2 -11 33.3 10.3
1 2 -11 27.4 11
-1 -2 11 21.7 12.1
0 2 -11 102.29 17
0 2 -11 72.99 15
0 -2 11 81.09 16.3
-1 2 -11 133.99 19.5
-1 2 -11 127.89 17.9
1 -2 11 150.68 21
-2 2 -11 -17.2 9.3
2 -2 11 6.9 8.3
-3 2 -11 262.67 26.9
3 -2 11 303.97 24.6
4 -2 11 25.4 12.2
-5 2 -11 70.59 18.3
5 -2 11 34.4 14.7
-6 2 -11 194.98 29.4
6 -2 11 195.78 28
-7 2 -11 -5 20.9
-8 2 -11 19.4 28.4
-9 2 -11 38.4 31.7
9 2 -12 -29.8 30.9
8 2 -12 215.38 36.9
-8 -2 12 176.68 30.9
7 2 -12 -3.6 13.6
7 2 -12 24.4 21.4
-7 -2 12 -13.5 19.5
6 2 -12 15.7 17
-6 -2 12 14.4 18
5 2 -12 96.09 19.7
5 2 -12 101.69 15.6
-5 -2 12 93.69 20
4 2 -12 -2 9.8
4 2 -12 21.1 13.9
-4 -2 12 10.2 14.2
3 2 -12 191.78 19.9
3 2 -12 154.48 22.8
-3 -2 12 130.19 22.3
2 2 -12 111.89 18.7
2 2 -12 137.79 18.7
-2 -2 12 118.69 20.4
1 2 -12 45.9 14.2
1 2 -12 47.3 13.1
-1 -2 12 75.59 16.9
0 2 -12 29.2 12.5
0 2 -12 18.2 12.5
0 -2 12 31.8 15
-1 2 -12 226.58 23.3
-1 2 -12 165.28 24
1 -2 12 225.38 27.5
-2 2 -12 16.4 19.9
2 -2 12 -9.2 9
-3 2 -12 16.1 14.1
3 -2 12 8.5 10.6
-4 2 -12 96.79 19.7
4 -2 12 82.19 16.1
-5 2 -12 201.28 28.3
5 -2 12 182.68 25.6
-6 2 -12 231.28 31.5
6 -2 12 130.59 22.5
-7 2 -12 110.09 29.6
-8 2 -12 119.29 34.3
8 2 -13 26.3 27.6
7 2 -13 11.1 15.9
7 2 -13 23.2 25.2
6 2 -13 21.8 20.8
-6 -2 13 40.1 21
5 2 -13 13.8 17.5
-5 -2 13 14.7 16.9
4 2 -13 120.49 18.4
4 2 -13 82.79 18.6
-4 -2 13 88.29 21.4
3 2 -13 11.4 11.3
3 2 -13 -33.9 11.8
-3 -2 13 -10 15.7
2 2 -13 172.88 22
2 2 -13 156.58 23.4
-2 -2 13 150.98 25
1 2 -13 81.99 16.9
1 2 -13 91.99 18.2
-1 -2 13 111.39 20.6
0 2 -13 19.4 12.8
0 2 -13 7.2 12.7
0 -2 13 31.4 17.4
-1 2 -13 325.67 36.5
-1 2 -13 341.27 31.4
1 -2 13 315.27 33.3
-2 2 -13 52.79 15.4
2 -2 13 57.29 13.2
-3 2 -13 6.6 15.1
3 -2 13 3 11.6
-4 2 -13 0.6 16.3
4 -2 13 -8.9 13.1
-5 2 -13 -22.8 18.1
5 -2 13 8.3 15.3
-6 2 -13 -27.5 21.9
6 -2 13 -8.9 17.2
-7 2 -13 28.4 26.9
-8 2 -13 -25.9 30.7
7 2 -14 120.59 33.5
7 2 -14 88.49 23.7
6 2 -14 228.28 35.1
5 2 -14 145.69 24.3
5 2 -14 212.18 30.3
-5 -2 14 147.69 28
4 2 -14 236.58 31.2
4 2 -14 223.38 26.2
-4 -2 14 237.78 33.9
3 2 -14 3.3 15.1
3 2 -14 40.1 15.9
-3 -2 14 26.5 19.7
2 2 -14 24.2 15
-2 -2 14 -6.2 18
1 2 -14 11.5 15
1 2 -14 27.9 18.1
-1 -2 14 -2 17.8
0 2 -14 181.18 27.2
0 2 -14 139.09 22.7
0 -2 14 167.98 26.7
-1 2 -14 -13.6 14.9
-1 2 -14 0.2 14.8
1 -2 14 48.7 20.7
-2 2 -14 68.99 20.1
-2 2 -14 70.49 18.4
2 -2 14 45.4 14.2
-3 2 -14 23.3 18.2
3 -2 14 24.8 14
-4 2 -14 6.9 19.8
4 -2 14 3.2 14.5
-5 2 -14 18.6 21.7
5 -2 14 22.3 17.2
-6 2 -14 43.3 26
-7 2 -14 52.19 32.5
6 2 -15 -14.1 24.8
6 2 -15 30.8 17.6
5 2 -15 6.2 16.4
5 2 -15 -5.2 22.2
4 2 -15 -17.1 15.7
4 2 -15 25.4 20.6
-4 -2 15 5.6 24.7
3 2 -15 55.99 17.6
3 2 -15 6.8 19.2
-3 -2 15 29.1 23.7
2 2 -15 2.4 17
2 2 -15 5 15.4
-2 -2 15 12.2 21.9
1 2 -15 34.7 17.9
1 2 -15 16.8 17.3
-1 -2 15 -8 20.2
0 2 -15 26.3 18.2
0 -2 15 1.6 21.9
-1 2 -15 48.8 18.4
-1 2 -15 29.2 17.6
1 -2 15 42.8 22.4
1 -2 15 36 15.2
-2 2 -15 40.1 20.4
-2 2 -15 -7.6 17.7
2 -2 15 3.8 13.9
-3 2 -15 202.68 32.6
3 -2 15 154.38 26.4
-4 2 -15 21.3 21.6
4 -2 15 19.3 16.5
-5 2 -15 5 23.8
5 -2 15 2.4 17.5
-6 2 -15 54.29 28.4
5 2 -16 185.48 33.4
5 2 -16 159.98 27
4 2 -16 370.16 42.2
-4 -2 16 212.08 55.09
3 2 -16 35.4 22.7
3 2 -16 190.18 29.4
2 2 -16 98.99 23.3
2 2 -16 68.29 21.8
1 2 -16 193.98 32.2
1 2 -16 149.29 26.5
-1 -2 16 83.79 26.4
0 2 -16 260.17 32.9
0 2 -16 194.68 42.7
-1 2 -16 104.89 25
-1 2 -16 87.49 23.3
1 -2 16 130.49 21.3
-2 2 -16 97.39 24
-2 2 -16 114.29 26.6
2 -2 16 80.29 19.5
-3 2 -16 55.39 24.4
-3 2 -16 31.4 23.8
3 -2 16 45.9 18
-4 2 -16 50.29 24.7
4 -2 16 2.5 16.9
-5 2 -16 19.2 29.1
4 2 -17 34.3 26.7
4 2 -17 26 20.2
3 2 -17 -27.3 24.8
2 2 -17 65.59 25.1
2 2 -17 40.9 23.2
-2 -2 17 71.09 31.7
1 2 -17 30.8 24.2
1 2 -17 47.2 23.1
0 2 -17 16.1 22
0 2 -17 4 24.8
-1 2 -17 73.29 27.2
-1 2 -17 137.69 28.7
1 -2 17 82.49 22
-2 2 -17 25.5 23.3
-2 2 -17 -2.1 26.1
2 -2 17 13.9 18.4
-3 2 -17 74.49 29.7
-3 2 -17 -14.7 24.1
1 2 -18 51.59 26.9
1 2 -18 101.29 29.6
0 2 -18 30.5 27.7
0 2 -18 12.4 26.9
-1 2 -18 118.69 32.5
-1 2 -18 172.78 34.6
-3 -3 -17 64.69 29.1
-2 -3 -17 25 25
-1 -3 -17 21.9 23.1
0 3 17 -3.5 12.5
0 -3 -17 14.5 23.7
0 -3 -17 10.3 21.9
-1 3 17 18.3 18.5
1 -3 -17 3.3 22.6
1 -3 -17 36.9 22.5
-2 3 17 6 26.6
-2 3 17 27.9 24
2 -3 -17 7.7 23.8
2 -3 -17 41.2 24
-3 3 17 6.5 27.6
-3 3 17 29.6 28.6
3 -3 -17 34.4 24.5
-4 3 17 9.3 29.3
-4 3 17 29.2 33.9
4 -3 -17 25.8 26.3
-5 -3 -16 131.99 35.1
-4 -3 -16 220.68 36.5
-3 -3 -16 347.67 43.1
-2 -3 -16 322.87 40.5
-1 -3 -16 214.88 31.8
0 3 16 51.09 13.8
0 -3 -16 105.19 23.4
-1 3 16 37.2 17.3
1 -3 -16 42.8 20
1 -3 -16 20.8 19.7
-2 3 16 108.09 25.9
-2 3 16 90.19 24
2 -3 -16 49.9 21
2 -3 -16 57.89 23.1
-3 3 16 78.29 27.9
-3 3 16 96.39 26.4
3 -3 -16 46 23.4
-4 3 16 146.69 34.7
-4 3 16 96.29 27.8
4 -3 -16 116.29 26.7
-5 3 16 39.4 28.4
-5 3 16 30.8 34.8
5 -3 -16 7.7 24.9
-6 -3 -15 -34 27.2
-5 -3 -15 18.1 25
-4 -3 -15 28.5 23.9
-3 -3 -15 23.2 20.7
-2 -3 -15 267.87 33.2
-1 -3 -15 -30.3 16.6
0 3 15 43.3 12.6
0 -3 -15 42.8 17.8
-1 3 15 70.39 17.9
1 -3 -15 97.89 21.3
-2 3 15 106.69 23.2
-2 3 15 75.69 23
2 -3 -15 156.98 24.6
-3 3 15 29.6 22.4
-3 3 15 -7.2 19.4
3 -3 -15 3.7 17.2
-4 3 15 36.9 22.1
-4 3 15 50.99 26.7
4 -3 -15 50.09 21.7
-5 3 15 -18.2 23
-5 3 15 49.8 30.8
5 -3 -15 -43.6 19.3
-6 3 15 3.6 24.6
-6 3 15 -4 35.7
6 -3 -15 18.7 24.4
-7 -3 -14 196.98 39.8
-6 -3 -14 172.88 32.2
-5 -3 -14 62.49 25.8
-4 -3 -14 343.27 39.5
-3 -3 -14 274.07 32.2
-2 -3 -14 533.45 43.5
1 3 14 486.15 28.5
-1 -3 -14 514.65 40.2
0 3 14 291.87 26.4
0 -3 -14 390.56 33.6
-1 3 14 988.2 63.29
-1 3 14 819.42 59.99
1 -3 -14 957.4 61.99
1 -3 -14 984.2 63.09
-2 3 14 479.85 41.7
-2 3 14 473.25 40.8
2 -3 -14 504.45 40.3
2 -3 -14 493.05 37.9
-3 3 14 308.67 38.5
-3 3 14 296.37 34
3 -3 -14 364.86 30.8
3 -3 -14 345.97 34
-4 3 14 208.48 37.1
-4 3 14 185.98 29.7
4 -3 -14 188.28 29.8
4 -3 -14 168.48 23.2
-5 3 14 62.39 35.8
-5 3 14 77.79 22.8
5 -3 -14 68.49 14.8
5 -3 -14 100.09 23.4
-6 3 14 105.39 37.2
-6 3 14 115.99 26.3
6 -3 -14 73.19 24.4
-7 3 14 79.99 26.6
-7 3 14 8.5 36.4
7 -3 -14 47 26.2
-8 -3 -13 46.9 32.5
-7 -3 -13 3.4 25.9
-6 -3 -13 31 24
-5 -3 -13 21.8 19.3
-4 -3 -13 71.79 20.4
-3 -3 -13 25.7 16.6
-2 -3 -13 29.7 15.4
1 3 13 205.88 14
0 3 13 97.79 16.6
-1 3 13 51.89 14
-1 3 13 34.1 15.7
-2 3 13 -11 12.7
-2 3 13 -9.1 14.7
2 -3 -13 0 11.9
2 -3 -13 21.5 13.6
-3 3 13 1.1 13.6
-3 3 13 -8.2 15.9
3 -3 -13 -6.8 10.6
3 -3 -13 19 13.1
-4 3 13 -17.7 15.1
-4 3 13 -13.4 20.2
4 -3 -13 4.5 14.3
-5 3 13 26.8 17.3
-5 3 13 11.3 24.3
5 -3 -13 6.8 15.8
5 -3 -13 6.7 10
-6 3 13 24.6 19.4
-6 3 13 28.9 28.1
6 -3 -13 17.9 10.5
6 -3 -13 4.1 20
-7 3 13 49.3 21.7
-7 3 13 -36.7 32.6
7 -3 -13 19.7 22.1
-8 3 13 30.6 39.9
-8 3 13 11.9 24
8 -3 -13 28.1 28.2
-8 -3 -12 8.1 29
-7 -3 -12 54.99 25.8
-6 -3 -12 411.66 44
-5 -3 -12 280.97 35.1
-4 -3 -12 587.04 46.5
-2 -3 -12 72.99 15.7
-1 -3 -12 770.82 51.59
0 3 12 384.46 30.1
0 -3 -12 506.65 34.7
-1 3 12 439.86 33.8
-1 3 12 383.46 32.4
1 -3 -12 474.65 34
-2 3 12 89.49 26.3
-2 3 12 132.69 22.5
2 -3 -12 103.49 17.4
2 -3 -12 97.59 17.2
-3 3 12 141.89 26
-3 3 12 96.29 17.9
3 -3 -12 108.69 16.7
3 -3 -12 97.19 16.2
-4 3 12 33.6 14.5
-4 3 12 24.7 19.2
4 -3 -12 41.3 11.2
4 -3 -12 37.6 13.9
-5 3 12 6.9 21.1
-5 3 12 64.09 16.9
5 -3 -12 29 10.2
5 -3 -12 60.39 16.8
-6 3 12 181.28 35.5
-6 3 12 214.78 28
6 -3 -12 168.88 18.2
6 -3 -12 182.18 29.7
-7 3 12 234.28 41.8
-7 3 12 251.37 32.7
7 -3 -12 238.78 33.8
-8 3 12 116.09 26
-8 3 12 165.68 42.8
8 -3 -12 118.39 28.8
-9 -3 -11 80.99 34.4
-8 -3 -11 39.6 27.5
-7 -3 -11 43.3 24.9
-6 -3 -11 -7.1 19.3
-5 -3 -11 94.49 20.8
-4 -3 -11 259.87 29.4
-3 -3 -11 29.1 13.9
-2 -3 -11 6.3 11.8
1 3 11 30.2 8.9
-1 -3 -11 56.59 12.6
0 3 11 185.68 18
0 -3 -11 216.08 20.8
-1 3 11 153.68 19.2
1 -3 -11 124.49 16.5
-2 3 11 213.08 22.2
2 -3 -11 209.68 21.5
2 -3 -11 221.58 21.1
-3 3 11 33.2 15.9
-3 3 11 47.3 12.8
3 -3 -11 32.9 9.9
3 -3 -11 41.2 12.1
-4 3 11 -14.9 16
-4 3 11 12.5 12.2
4 -3 -11 12.1 10.5
4 -3 -11 7.8 7.8
-5 3 11 -2.4 20.3
-5 3 11 15.2 13.1
5 -3 -11 7.5 12.4
5 -3 -11 -8.2 7
-6 3 11 33.8 15.1
6 -3 -11 10.3 7.7
6 -3 -11 10.5 14.6
-7 3 11 72.59 29.7
-7 3 11 10.1 16.4
7 -3 -11 6.8 8.1
7 -3 -11 13.1 18.9
-8 3 11 -5.3 18.4
-8 3 11 -7.9 32.5
8 -3 -11 -16.6 21.6
-9 3 11 11.7 23.8
-9 3 11 71.09 43.6
9 -3 -11 -23.1 27.8
-8 -3 -10 58.79 28.2
-8 -3 -10 55.09 12.6
-6 -3 -10 457.25 42.2
-5 -3 -10 444.96 39.3
-4 -3 -10 203.28 23.8
-3 -3 -10 115.59 19.3
-2 -3 -10 739.03 48.7
1 3 10 880.91 51.49
-1 -3 -10 965.4 57.69
0 3 10 1623.44 100.29
0 -3 -10 1941.11 103.49
-1 3 10 955.9 57.49
1 -3 -10 903.21 56.99
-2 3 10 787.32 48.9
2 -3 -10 746.03 47.8
2 -3 -10 769.52 48.6
-3 3 10 710.93 44.6
-3 3 10 562.94 48
3 -3 -10 707.93 43
3 -3 -10 739.93 45.2
-4 3 10 149.88 26.5
-4 3 10 173.08 19.7
4 -3 -10 164.78 18.7
4 -3 -10 177.38 15.7
-5 3 10 267.07 36.8
-5 3 10 326.37 26
5 -3 -10 264.97 26.3
5 -3 -10 290.17 21
-6 3 10 257.57 25.4
-6 3 10 218.08 35.9
6 -3 -10 234.28 18.7
6 -3 -10 260.07 28.3
-7 3 10 331.17 31.5
-7 3 10 315.77 48
7 -3 -10 316.47 22.9
7 -3 -10 345.87 36.5
-8 3 10 105.09 34.5
-8 3 10 49.5 19.9
8 -3 -10 58.39 23.2
-9 3 10 143.59 43.4
-9 3 10 52.29 22.9
9 -3 -10 144.99 30.5
-10 3 10 120.69 44.9
-10 3 10 146.09 50.39
10 -3 -10 170.78 40.8
-9 -3 -9 6.9 27.6
-9 -3 -9 64.99 17.3
-8 -3 -9 58.69 24.7
-7 -3 -9 40.1 9.8
-6 -3 -9 29.3 6.9
-5 -3 -9 69.49 16.8
-4 -3 -9 49.9 14
-3 -3 -9 10.8 9.7
-2 -3 -9 5.4 8.9
1 3 9 68.69 6.3
-1 -3 -9 78.79 12.7
0 3 9 7.7 5.6
0 -3 -9 8.4 7.8
-1 3 9 43.7 9.9
-1 3 9 36.1 9.1
1 -3 -9 32.5 9.1
-2 3 9 75.09 12.1
2 -3 -9 68.09 11.3
-3 3 9 7.5 8.2
-3 3 9 13.9 11.9
3 -3 -9 -3.7 5.7
3 -3 -9 -1.4 7.2
-4 3 9 44.4 17.3
-4 3 9 74.99 12.1
4 -3 -9 67.99 9.7
4 -3 -9 82.69 13.6
-5 3 9 93.59 14.7
-5 3 9 74.29 20.8
5 -3 -9 110.49 16.7
5 -3 -9 79.29 10.2
-6 3 9 123.59 19.5
-6 3 9 100.79 25.6
6 -3 -9 152.58 24.1
6 -3 -9 142.39 12.7
-7 3 9 -4.3 21.6
-7 3 9 -1.9 13.1
7 -3 -9 3.9 15.6
-8 3 9 -3.1 26.3
-8 3 9 3.7 15.8
8 -3 -9 31.8 19.5
-9 3 9 2.7 18.7
-9 3 9 39.7 33.3
9 -3 -9 -21.9 24
-10 3 9 -31.2 36.7
10 -3 -9 7.4 30.5
-9 -3 -8 -23 25.1
-8 -3 -8 74.09 24.1
-8 -3 -8 78.99 16.4
-7 -3 -8 173.08 19.6
-6 -3 -8 14.6 7.6
-5 -3 -8 668.43 39.3
-3 -3 -8 194.68 19.5
-2 -3 -8 866.51 53.59
1 3 8 444.66 25.6
-1 -3 -8 472.55 31.3
0 3 8 1693.73 90.69
0 -3 -8 1497.75 91.79
-1 3 8 467.55 28.9
-1 3 8 351.16 28.9
1 -3 -8 469.85 29
-2 3 8 472.55 32.7
2 -3 -8 546.35 33.5
-3 3 8 820.32 51.09
3 -3 -8 872.01 51.89
3 -3 -8 850.91 49.9
-4 3 8 771.32 58.29
-4 3 8 867.01 52.69
4 -3 -8 889.01 50.29
4 -3 -8 914.11 54.29
-5 3 8 923.81 68.79
-5 3 8 1047.7 61.59
5 -3 -8 1022.6 63.39
5 -3 -8 1039.4 58.09
-6 3 8 140.09 18.1
-6 3 8 156.98 28.9
6 -3 -8 115.49 13.8
6 -3 -8 135.89 21.6
-7 3 8 332.77 29.6
7 -3 -8 353.86 34
-8 3 8 546.45 56.49
-8 3 8 532.15 40.7
8 -3 -8 592.44 48.7
-9 3 8 193.98 42.2
-9 3 8 242.98 30.9
9 -3 -8 231.28 36.6
-10 3 8 224.48 34.9
-10 3 8 212.08 48.1
10 -3 -8 225.48 38.1
-9 -3 -7 12.3 16.4
-9 -3 -7 32.4 24.5
-8 -3 -7 88.09 18.2
-8 -3 -7 109.49 24.5
-7 -3 -7 7.2 10
-7 -3 -7 14.3 16.2
-6 -3 -7 20.1 8.7
-5 -3 -7 260.67 18.9
-2 -3 -7 347.17 25.6
-1 -3 -7 424.26 28.5
0 3 7 123.89 11.5
0 -3 -7 153.78 13
-1 3 7 97.49 10.3
-1 3 7 65.39 10.9
1 -3 -7 63.29 9.6
-2 3 7 19 6
-2 3 7 -0.2 7.5
2 -3 -7 17.9 6
-3 3 7 338.47 29.6
-3 3 7 364.56 25.1
3 -3 -7 387.46 26.1
3 -3 -7 396.76 23.8
-4 3 7 488.45 37.9
-4 3 7 435.16 29.6
4 -3 -7 426.26 26.7
4 -3 -7 452.75 31.1
-5 3 7 132.49 14.5
-5 3 7 96.89 20.6
5 -3 -7 100.99 9.1
5 -3 -7 96.99 14.9
-6 3 7 94.09 23
-6 3 7 102.49 16.4
6 -3 -7 99.69 17.1
-7 3 7 131.09 28.8
-7 3 7 179.98 20.9
7 -3 -7 193.28 35.2
-8 3 7 56.09 14.5
-8 3 7 42.8 26.7
8 -3 -7 21.1 18.9
-9 3 7 -0.5 28.5
-9 3 7 31.2 17.9
9 -3 -7 31.7 20.8
-10 3 7 5.5 33.4
-10 3 7 25 19.7
10 -3 -7 23.8 27.5
-11 3 7 -6.8 26.2
-11 3 7 54.59 43.1
11 -3 -7 -20.2 32.8
-11 -3 -6 4.2 26.2
-10 -3 -6 24.8 27.1
-9 -3 -6 19 17.4
-9 -3 -6 26.2 21.9
-8 -3 -6 17.2 18.5
-8 -3 -6 43.1 15
-7 -3 -6 36.2 12.5
-7 -3 -6 37.3 16.7
-6 -3 -6 35.3 9.6
-5 -3 -6 130.19 14
-4 -3 -6 351.56 22.6
-3 -3 -6 331.87 19
-1 -3 -6 380.86 25.3
0 3 6 124.09 10.7
0 -3 -6 149.39 12.1
-1 3 6 367.56 23.8
-1 3 6 415.86 25.8
1 -3 -6 343.17 23.7
-2 3 6 1500.25 90.49
-2 3 6 1555.24 87.39
2 -3 -6 1586.24 87.89
-3 3 6 231.08 16.8
-3 3 6 237.08 22.8
3 -3 -6 216.38 14.8
3 -3 -6 226.88 17.5
-4 3 6 1010.4 65.49
-4 3 6 1031.9 59.19
4 -3 -6 993.5 60.29
4 -3 -6 992.6 56.49
-5 3 6 441.26 38.9
-5 3 6 487.25 31.4
5 -3 -6 457.95 27.4
5 -3 -6 474.35 33.3
-6 3 6 961.1 67.09
-6 3 6 942.11 57.19
6 -3 -6 916.01 60.19
-7 3 6 312.97 37.6
-7 3 6 315.17 25.9
7 -3 -6 285.07 29.3
-8 3 6 166.98 21.3
-8 3 6 138.79 30.9
8 -3 -6 200.58 27.3
-9 3 6 646.14 47.4
-9 3 6 663.83 39.1
-9 3 6 611.74 65.19
9 -3 -6 620.54 52.59
-10 3 6 214.08 19.6
-10 3 6 198.98 44.5
-10 3 6 232.28 30.5
10 -3 -6 277.07 43.3
-11 3 6 175.78 48.6
-11 3 6 138.29 32.2
11 -3 -6 140.89 35.5
-10 -3 -5 75.99 24.1
-9 -3 -5 27.9 18.5
-9 -3 -5 41.4 21
-8 -3 -5 139.69 24.8
-8 -3 -5 126.29 23.5
-7 -3 -5 11 11.3
-7 -3 -5 10.5 13.4
-6 -3 -5 12.1 9.5
-5 -3 -5 500.85 33.6
-4 -3 -5 113.09 11.2
-3 -3 -5 34.9 5.9
-1 -3 -5 70.99 8.4
0 -3 -5 78.59 8.1
-1 3 5 544.15 36.5
-1 3 5 625.54 35.2
1 -3 -5 621.44 35.5
-2 3 5 132.59 14.4
-2 3 5 125.69 10.4
2 -3 -5 135.89 10.8
-3 3 5 104.09 10.2
-3 3 5 99.79 16
3 -3 -5 116.19 8
3 -3 -5 109.09 10.7
-4 3 5 341.27 22.5
-4 3 5 327.47 29.7
4 -3 -5 309.17 23.1
-5 3 5 16 12.9
-5 3 5 28.9 7.5
5 -3 -5 36.4 9.9
-6 3 5 72.59 12
-6 3 5 59.39 7.1
-6 3 5 79.49 19.1
6 -3 -5 71.19 14.1
-7 3 5 115.69 25.2
-7 3 5 129.49 12.4
-7 3 5 143.89 16.7
7 -3 -5 120.49 19.9
-8 3 5 148.89 13
-8 3 5 152.78 30.6
-8 3 5 155.58 21.8
8 -3 -5 134.09 24
-9 3 5 14 27.3
-9 3 5 41.5 16
9 -3 -5 4.7 17.6
-10 3 5 5.6 17.3
-10 3 5 -3.2 9
-10 3 5 -10.5 30.6
10 -3 -5 2.8 24.4
-11 3 5 71.89 40.1
-11 3 5 5.8 11.8
11 -3 -5 33.6 31.7
-11 -3 -4 -15.7 26.3
-10 -3 -4 67.09 24.9
-9 -3 -4 29.3 19.3
-9 -3 -4 30.3 19.6
-8 -3 -4 88.89 20.9
-8 -3 -4 39.4 17.1
-7 -3 -4 50.39 15.7
-7 -3 -4 33.7 12.9
-6 -3 -4 475.15 35.6
-6 -3 -4 469.25 35
-5 -3 -4 72.49 12.8
-5 -3 -4 53.69 10.4
-1 -3 -4 249.48 14.3
0 3 4 13.8 3.9
0 -3 -4 15.8 3.6
-1 3 4 204.28 12.7
-1 3 4 175.48 14.5
1 -3 -4 193.18 12.8
-2 3 4 1220.48 72.49
-2 3 4 1225.78 68.99
2 -3 -4 1247.98 69.49
-3 3 4 2082.49 119.59
-3 3 4 2099.39 114.79
3 -3 -4 2078.49 115.59
3 -3 -4 1996.6 112.69
-4 3 4 2776.72 155.48
-4 3 4 2763.72 149.29
4 -3 -4 2512.55 150.18
-5 3 4 1299.57 74.59
-5 3 4 1391.86 78.29
-5 3 4 1369.06 85.39
5 -3 -4 1361.26 79.99
-6 3 4 1841.52 104.49
-6 3 4 1837.72 112.89
-6 3 4 1813.32 100.39
6 -3 -4 1789.82 106.89
-7 3 4 464.15 34.1
-7 3 4 501.75 44.3
7 -3 -4 497.05 38.7
-8 3 4 371.36 29.5
-8 3 4 358.46 23
-8 3 4 345.57 48.1
8 -3 -4 323.17 50.09
-9 3 4 628.34 59.99
-9 3 4 691.03 47
-9 3 4 636.54 39.5
9 -3 -4 676.53 52.79
-10 3 4 439.76 50.79
-10 3 4 281.27 22.3
-10 3 4 206.18 32.9
10 -3 -4 304.97 40.1
-11 3 4 311.77 54.39
-11 3 4 208.68 21.6
11 -3 -4 219.98 39.2
-11 -3 -3 26.9 27.8
-11 -3 -3 -1.4 24.8
-9 -3 -3 47.5 20.7
-9 -3 -3 81.69 22.2
-8 -3 -3 37.6 15.8
-8 -3 -3 25.4 15.1
-7 -3 -3 -2.5 11.4
-7 -3 -3 -10.6 11
-6 -3 -3 77.89 14.9
-6 -3 -3 47.8 12.8
-5 -3 -3 20 9.4
-4 -3 -3 25.9 7.6
-1 -3 -3 1102.99 60.79
0 3 3 1262.67 71.39
0 -3 -3 1301.97 71.49
0 -3 -3 1277.97 70.99
-1 3 3 1029.2 56.69
-1 3 3 1000.8 58.99
1 -3 -3 1040.4 57.09
-2 3 3 1502.65 81.89
-2 3 3 1453.85 85.29
2 -3 -3 1469.35 82.29
-3 3 3 827.62 53.89
-3 3 3 886.81 49.6
3 -3 -3 874.51 50.49
-4 3 3 394.66 25.3
-4 3 3 387.36 30.9
-4 3 3 385.46 22
4 -3 -3 408.36 26.8
-5 3 3 592.44 33.7
-5 3 3 630.54 37.7
-5 3 3 589.94 43.9
5 -3 -3 572.34 39
-6 3 3 105.09 13.5
-6 3 3 100.89 20.7
-6 3 3 107.59 8.6
6 -3 -3 108.69 17
-7 3 3 192.08 13.9
-7 3 3 164.68 28
7 -3 -3 203.08 24
-8 3 3 130.99 20.5
-8 3 3 108.59 25.9
-8 3 3 128.89 12.5
8 -3 -3 157.88 26.9
-9 3 3 87.39 17.2
-9 3 3 64.79 10
-9 3 3 55.39 25.1
9 -3 -3 56.99 21.1
-10 3 3 9.2 9.4
-10 3 3 -15.8 17
-10 3 3 20.4 27
10 -3 -3 13.9 23.5
-11 3 3 4.4 11.7
-11 3 3 37.4 35.3
11 -3 -3 -1.6 27.8
-11 -3 -2 149.79 35
-11 -3 -2 246.68 34.6
-10 -3 -2 42.6 23
-10 -3 -2 51.99 19.6
-9 -3 -2 14.8 19
-9 -3 -2 6.5 16.7
-8 -3 -2 134.29 22.6
-8 -3 -2 136.29 24.4
-7 -3 -2 366.86 33.5
-7 -3 -2 460.35 35.6
-6 -3 -2 429.56 32.4
-5 -3 -2 320.97 24.9
-4 -3 -2 113.19 12.5
0 3 2 2803.12 167.08
0 -3 -2 3265.17 166.68
-1 3 2 32.2 2.4
-1 3 2 29.7 5.6
1 -3 -2 33.4 5.8
-2 3 2 388.26 22.2
-2 3 2 366.36 25.5
2 -3 -2 386.66 22.7
2 -3 -2 369.76 25.6
-3 3 2 168.58 12.1
-3 3 2 172.88 16.2
3 -3 -2 147.29 15.9
3 -3 -2 180.88 13.2
-4 3 2 642.24 38.2
-4 3 2 629.84 43.1
-4 3 2 626.74 35.3
4 -3 -2 631.84 39.4
-5 3 2 56.09 13.4
-5 3 2 50.79 8.8
-5 3 2 54.69 5.9
5 -3 -2 77.39 11.4
-6 3 2 2.7 11.4
-6 3 2 10.6 7.7
-6 3 2 19.1 5.5
6 -3 -2 15.4 10
-7 3 2 231.88 16.8
-7 3 2 259.17 31.7
7 -3 -2 214.18 24.1
-8 3 2 336.57 36.4
-8 3 2 262.77 20.1
-8 3 2 267.57 25.4
8 -3 -2 249.68 30.5
-9 3 2 47.1 23.8
-9 3 2 36.9 15.4
-9 3 2 36.9 9.5
9 -3 -2 4.6 16.8
-10 3 2 370.86 28.3
-10 3 2 360.46 37
-10 3 2 360.16 49.8
10 -3 -2 408.56 44.4
-11 3 2 193.88 51.29
-11 3 2 126.49 21.7
11 -3 -2 197.78 36.9
-11 -3 -1 82.19 23.1
-10 -3 -1 37.7 24.4
-10 -3 -1 111.79 20.8
-9 -3 -1 -24.7 19.4
-9 -3 -1 2.4 16.4
-9 -3 -1 30.3 15
-8 -3 -1 23 15.6
-8 -3 -1 0.2 11.1
-8 -3 -1 1.2 13.6
-7 -3 -1 21.1 11.9
-6 -3 -1 131.19 17.8
-5 -3 -1 147.99 15.6
-4 -3 -1 31.4 7.7
-3 -3 -1 412.16 26.5
-2 -3 -1 427.16 25.8
0 3 1 3662.93 189.88
0 -3 -1 3232.48 188.18
0 -3 -1 3444.96 188.78
-1 3 1 2202.58 116.59
-1 3 1 2137.39 114.39
1 -3 -1 2003.6 116.49
1 -3 -1 1991.5 114.19
1 -3 -1 2132.59 114.29
-2 3 1 850.71 46.4
-2 3 1 797.12 49.2
2 -3 -1 784.42 49.2
2 -3 -1 861.31 47
-3 3 1 671.13 43
-3 3 1 683.63 39.6
3 -3 -1 712.33 40.5
3 -3 -1 637.44 42.7
-4 3 1 1087.79 63.79
-4 3 1 1108.09 68.19
4 -3 -1 1115.79 65.09
-5 3 1 18.4 10.3
-5 3 1 17.8 6.9
5 -3 -1 6.7 7.1
-6 3 1 84.49 14.1
-6 3 1 122.89 21.2
6 -3 -1 100.19 15.7
-7 3 1 21.5 15.4
7 -3 -1 8 10.9
-8 3 1 16.4 13.2
-8 3 1 17.5 17.9
-8 3 1 15.5 8.1
8 -3 -1 4.9 14.2
-9 3 1 100.69 26.8
-9 3 1 50.29 16.6
-9 3 1 92.79 15.6
9 -3 -1 80.09 22
-10 3 1 18.2 18.2
-10 3 1 15.3 24.9
-10 3 1 17.6 11.7
10 -3 -1 20.6 22.6
-11 3 1 19 15.4
-11 3 1 14.3 33.1
-11 -3 0 116.59 33.5
-11 -3 0 119.49 25.4
-10 -3 0 1 24
-10 -3 0 29.7 17.1
-9 -3 0 206.68 34.3
-9 -3 0 275.27 28
-9 -3 0 253.07 31.1
-8 -3 0 579.14 39.3
-8 -3 0 525.85 41.6
7 3 0 109.59 18.4
-7 -3 0 124.09 16
-7 -3 0 125.39 19.5
6 3 0 474.05 33.4
-6 -3 0 424.66 32.6
-6 -3 0 477.45 31.7
5 3 0 495.75 32.8
-5 -3 0 454.15 32
-5 -3 0 459.25 30.8
4 3 0 178.88 15.4
-4 -3 0 189.08 15.6
-4 -3 0 180.08 15.1
3 3 0 759.72 46
-3 -3 0 799.52 46.3
-3 -3 0 779.92 45.8
2 3 0 465.05 27.4
-2 -3 0 448.36 27.7
-2 -3 0 467.15 27.6
1 3 0 1798.12 98.79
-1 -3 0 1778.02 97.89
-1 -3 0 1769.52 98.59
0 3 0 13.1 2.4
0 -3 0 1.8 1.6
-1 3 0 1920.61 98.09
-1 3 0 1774.62 95.59
-1 3 0 1734.33 95.99
1 -3 0 1728.93 96.09
1 -3 0 1743.93 97.99
1 -3 0 1540.15 96.69
1 -3 0 1817.82 96.09
-2 3 0 455.05 26.2
-2 3 0 448.96 25.5
-2 3 0 451.25 28.5
2 -3 0 453.05 28.9
2 -3 0 424.06 26.6
-3 3 0 759.62 42.9
-3 3 0 740.03 45.6
3 -3 0 734.33 43.5
3 -3 0 687.73 45.4
-4 3 0 183.48 18.2
-4 3 0 176.68 15
4 -3 0 191.68 18.7
4 -3 0 190.08 15.9
-5 3 0 476.35 35.8
-5 3 0 482.55 31.9
5 -3 0 465.55 32.7
-6 3 0 429.96 36.5
-6 3 0 453.75 31.7
6 -3 0 465.45 34.2
-7 3 0 145.39 24
7 -3 0 111.59 18.8
-8 3 0 588.94 49
-8 3 0 497.75 39.1
8 -3 0 545.15 43.6
-9 3 0 297.47 29.5
-9 3 0 252.77 39.6
9 -3 0 288.47 33.4
-10 3 0 39.9 25.5
-10 3 0 23.8 13
-10 3 0 3.2 18.6
-11 3 0 58.89 35.4
-11 3 0 98.19 19.3
-11 -3 1 16.3 30.1
-11 -3 1 29.6 20
-10 -3 1 53.49 27.4
-10 -3 1 22.6 16.5
9 3 -1 68.39 22.5
-9 -3 1 79.19 18.8
-9 -3 1 68.39 16.4
8 3 -1 11.1 14.8
-8 -3 1 19.6 13.5
-8 -3 1 10.2 9.8
7 3 -1 6.3 11.7
-7 -3 1 10.7 9.3
-7 -3 1 7.3 10.3
6 3 -1 83.59 14.3
-6 -3 1 83.89 13.8
-6 -3 1 85.99 12.1
5 3 -1 25.7 8.3
-5 -3 1 20.6 6.6
-5 -3 1 11 7.3
4 3 -1 1061.49 63.09
-4 -3 1 1089.29 62.09
-4 -3 1 1052.39 62.69
3 3 -1 730.23 42.8
-3 -3 1 691.33 42.5
-3 -3 1 724.73 42.2
2 3 -1 917.81 52.39
2 3 -1 908.51 52.19
-2 -3 1 910.61 52.19
-2 -3 1 919.41 52.19
1 3 -1 2167.98 123.59
1 3 -1 2182.58 122.99
-1 -3 1 2290.67 123.59
-1 -3 1 2319.17 123.09
0 3 -1 3481.75 191.28
0 3 -1 3428.26 191.98
0 -3 1 3441.96 191.38
0 -3 1 3695.93 192.18
-1 3 -1 3133.59 153.58
-1 3 -1 2646.64 151.88
-1 3 -1 2758.32 151.68
-1 3 -1 2466.25 151.68
1 -3 1 2899.91 153.58
1 -3 1 2716.63 152.08
1 -3 1 2798.12 151.98
-2 3 -1 453.85 27.1
-2 3 -1 463.45 28.6
-2 3 -1 449.86 27.1
2 -3 1 434.56 28.7
-3 3 -1 399.86 26.9
-3 3 -1 401.36 25.3
3 -3 1 394.26 25.6
3 -3 1 373.16 27.1
-4 3 -1 25.8 6.8
-4 3 -1 16.5 7.4
4 -3 1 25.1 7.1
4 -3 1 32.7 9.3
-5 3 -1 128.09 17.8
-5 3 -1 139.29 14.3
5 -3 1 108.79 17.6
5 -3 1 131.69 15.9
-6 3 -1 92.69 14.5
-6 3 -1 82.19 16.4
6 -3 1 100.99 15.8
-7 3 -1 30.7 11.9
-7 3 -1 4.1 13.5
-8 3 -1 -8.2 16.6
-8 3 -1 31.3 13
-9 3 -1 4.8 16.2
-10 3 -1 65.79 21.5
-10 3 -1 65.39 29.2
-11 3 -1 53.59 30.3
-11 3 -1 53.19 19.2
11 3 -2 58.09 29.5
-11 -3 2 110.19 21.9
-11 -3 2 104.79 36.8
10 3 -2 405.76 43.5
-10 -3 2 395.46 48.9
-10 -3 2 407.86 34.2
9 3 -2 23.4 19.2
-9 -3 2 12.1 16.8
-9 -3 2 32.7 13.4
8 3 -2 318.97 30.1
-8 -3 2 220.28 25.8
-8 -3 2 256.77 26.4
7 3 -2 224.48 24.7
-7 -3 2 167.08 20.9
-7 -3 2 225.28 19.8
6 3 -2 5.8 9.1
-6 -3 2 19.5 9.9
-6 -3 2 25.6 8.1
5 3 -2 58.99 11.2
-5 -3 2 64.49 11
-5 -3 2 58.99 9.3
4 3 -2 671.43 42.2
-4 -3 2 687.13 40.7
-4 -3 2 664.53 41.4
3 3 -2 168.28 13.7
3 3 -2 161.98 13.2
-3 -3 2 191.38 13.5
-3 -3 2 181.28 13.7
2 3 -2 389.86 24.7
2 3 -2 399.66 24.7
-2 -3 2 391.26 25.6
-2 -3 2 423.96 24.7
1 3 -2 31.9 4
1 3 -2 30.2 4.4
-1 -3 2 31.6 4.3
-1 -3 2 34.8 4.8
0 3 -2 3289.17 182.28
0 3 -2 3640.44 183.08
0 -3 2 3299.67 182.48
0 -3 2 3107.89 182.88
-1 3 -2 24.3 4
-1 3 -2 11.4 3.2
1 -3 2 13.5 3.5
1 -3 2 17.3 7.9
-2 3 -2 30.7 5.3
-2 3 -2 24.9 5.4
2 -3 2 42.1 7
-3 3 -2 693.83 40.2
-3 3 -2 615.94 40.7
3 -3 2 668.33 41.6
-4 3 -2 104.59 13.4
-4 3 -2 97.19 11.9
4 -3 2 118.09 14.6
-5 3 -2 288.47 22.7
-5 3 -2 284.77 24.4
5 -3 2 267.37 24.9
-6 3 -2 455.95 33.7
-6 3 -2 448.26 36.3
-7 3 -2 409.56 32.7
-7 3 -2 396.96 35.5
-8 3 -2 118.09 24.5
-8 3 -2 136.69 20.9
-9 3 -2 32.6 16.6
-9 3 -2 -5.4 22.1
-10 3 -2 31.7 20.6
-10 3 -2 8 22.5
-11 3 -2 180.78 37.4
11 3 -3 55.89 31.6
-11 -3 3 16.5 18.7
-11 -3 3 43.5 33.7
10 3 -3 -14.2 22.4
-10 -3 3 6.8 15.3
9 3 -3 94.69 22
-9 -3 3 42.2 16.4
-9 -3 3 35.3 13.6
8 3 -3 143.19 22.6
-8 -3 3 112.09 19.6
7 3 -3 195.38 22.9
-7 -3 3 214.18 18.9
-7 -3 3 150.98 20.1
6 3 -3 117.89 17.8
-6 -3 3 108.69 14.8
-6 -3 3 86.29 12.1
5 3 -3 597.74 39
-5 -3 3 566.14 35.9
-5 -3 3 568.84 37.7
4 3 -3 373.06 25.9
4 3 -3 398.66 27.2
-4 -3 3 399.66 25.6
-4 -3 3 411.76 26.7
3 3 -3 940.51 53.09
3 3 -3 896.81 53.49
-3 -3 3 921.41 53.29
-3 -3 3 875.81 52.49
2 3 -3 1521.75 89.99
2 3 -3 1609.14 90.09
-2 -3 3 1558.54 89.89
-2 -3 3 1729.83 90.29
1 3 -3 1130.19 62.19
1 3 -3 1114.49 61.79
-1 -3 3 1041.4 62.19
0 3 -3 1255.57 71.19
0 3 -3 1295.27 70.69
0 -3 3 1263.17 70.89
0 -3 3 1236.18 71.39
-1 3 -3 1160.58 64.79
-1 3 -3 1089.59 65.09
1 -3 3 1181.78 65.59
-2 3 -3 1290.87 71.99
-2 3 -3 1256.77 71.49
2 -3 3 1212.28 72.19
-3 3 -3 206.78 16.1
-3 3 -3 197.08 15.6
3 -3 3 177.08 16.3
-4 3 -3 13.3 6.4
-4 3 -3 27.5 7.9
4 -3 3 16 8.4
-5 3 -3 38.3 10.2
-5 3 -3 27.2 9.4
5 -3 3 19.8 10.7
-6 3 -3 71.19 14.5
-6 3 -3 59.59 13.3
6 -3 3 68.39 16.9
-7 3 -3 20.5 13.3
-7 3 -3 5 11.8
-8 3 -3 22.9 14.4
-8 3 -3 -6.3 14.8
-9 3 -3 66.79 19.8
-9 3 -3 67.09 23
-10 3 -3 23.4 23.1
-10 3 -3 27.2 21.4
-11 3 -3 -28.7 25
-11 3 -3 56.29 29.8
11 3 -4 217.48 40.1
-11 -3 4 250.47 32.4
10 3 -4 300.77 44
-10 -3 4 312.17 31.2
9 3 -4 728.03 55.09
-9 -3 4 679.13 47
8 3 -4 302.37 53.19
-8 -3 4 407.36 33.5
7 3 -4 481.75 37.5
-7 -3 4 463.55 34.8
-7 -3 4 469.75 32.6
6 3 -4 1855.41 110.79
-6 -3 4 1909.01 107.29
5 3 -4 1416.66 82.29
5 3 -4 1376.06 80.19
-5 -3 4 1320.47 79.39
-5 -3 4 1425.76 81.29
4 3 -4 2683.93 151.28
4 3 -4 2664.43 152.48
-4 -3 4 2735.13 151.98
-4 -3 4 2749.12 150.88
3 3 -4 2139.39 116.89
3 3 -4 2158.68 116.19
-3 -3 4 2120.39 116.59
-3 -3 4 1869.71 115.59
2 3 -4 1322.87 76.19
2 3 -4 1345.17 76.59
-2 -3 4 1264.67 76.29
-2 -3 4 1453.35 76.79
1 3 -4 186.18 14.6
1 3 -4 224.18 14.9
-1 -3 4 219.88 15.5
-1 -3 4 222.88 15.1
0 3 -4 19.2 4.6
0 3 -4 14.4 4.2
0 -3 4 22.6 5.1
0 -3 4 12.8 5
-1 3 -4 259.07 17.8
-1 3 -4 273.37 18.6
1 -3 4 274.07 18.3
1 -3 4 250.77 18.3
-2 3 -4 62.49 8.6
2 -3 4 65.59 10
2 -3 4 83.99 10
-3 3 -4 4105.69 226.18
-3 3 -4 4038.7 226.28
3 -3 4 4095.79 226.98
4 -3 4 90.09 13.5
-5 3 -4 89.29 14.3
-5 3 -4 83.69 13.7
5 -3 4 54.39 13
-6 3 -4 508.45 36.5
-6 3 -4 466.55 35.7
6 -3 4 459.95 38.1
-7 3 -4 43 14
-7 3 -4 34.4 14.2
-8 3 -4 105.49 20.7
-8 3 -4 121.49 21.5
-9 3 -4 56.09 20.2
-9 3 -4 35.6 19.6
-10 3 -4 15 22.2
-10 3 -4 20.7 23.7
-11 3 -4 24.4 28.7
11 3 -5 35.7 31
-11 -3 5 2.9 19.4
10 3 -5 13.9 24.1
-10 -3 5 -4.1 15
9 3 -5 -22.2 19.5
-9 -3 5 52.49 17.9
-9 -3 5 51.49 13.9
8 3 -5 155.18 24.8
-8 -3 5 111.69 18.8
-8 -3 5 155.68 22.5
7 3 -5 124.69 20.7
-7 -3 5 135.49 16.5
-7 -3 5 154.08 19.1
6 3 -5 49.6 10.3
6 3 -5 51.99 13.8
-6 -3 5 57.49 12.3
-6 -3 5 62.99 11.3
5 3 -5 35 8
5 3 -5 34.8 10.5
-5 -3 5 33.7 8.3
-5 -3 5 46.5 10.1
4 3 -5 308.27 22.8
4 3 -5 327.77 24.4
-4 -3 5 328.17 22.6
-4 -3 5 349.07 24.3
3 3 -5 111.39 11.8
3 3 -5 118.59 10.9
-3 -3 5 109.69 11.8
-3 -3 5 107.29 11.7
2 3 -5 140.09 11.8
2 3 -5 135.29 12.2
-2 -3 5 148.99 13
-2 -3 5 157.18 12.9
1 3 -5 658.33 38.4
1 3 -5 633.94 37.9
-1 -3 5 636.64 38.4
-1 -3 5 604.54 38.6
0 3 -5 79.49 9.2
0 3 -5 84.69 8.7
0 -3 5 94.09 9.6
-1 3 -5 69.09 8.8
-1 3 -5 57.49 8.9
1 -3 5 82.29 10.1
-2 3 -5 117.89 11.7
2 -3 5 116.79 11.7
2 -3 5 99.89 12.2
-3 3 -5 47.2 9.5
-3 3 -5 60.09 9.4
3 -3 5 54.89 9.8
-4 3 -5 122.79 15
-4 3 -5 121.89 14.3
4 -3 5 134.09 15.5
-5 3 -5 693.03 45.6
-5 3 -5 712.93 45.8
-5 3 -5 706.53 45
5 -3 5 620.34 46
-6 3 -5 11.3 11
-6 3 -5 13.2 9.9
6 -3 5 8.6 13.1
-7 3 -5 14.2 14.1
-7 3 -5 18.8 12.1
-8 3 -5 150.98 24.3
-8 3 -5 113.29 22.4
-9 3 -5 16.1 18.4
-9 3 -5 27.6 20.4
-10 3 -5 59.69 24.5
-11 3 -5 46.4 30.4
11 3 -6 142.39 38.5
-11 -3 6 146.19 25.6
-11 -3 6 138.29 44.2
10 3 -6 184.48 35.3
-10 -3 6 206.28 27.9
9 3 -6 653.13 55.69
-9 -3 6 578.24 47.9
-9 -3 6 707.63 45.7
8 3 -6 150.08 25.4
-8 -3 6 144.29 24.3
-8 -3 6 172.78 20.5
7 3 -6 313.27 31.1
-7 -3 6 335.67 26.2
-7 -3 6 327.07 28.9
6 3 -6 949.21 59.39
6 3 -6 852.91 55.69
-6 -3 6 956.3 55.79
-6 -3 6 892.31 57.59
5 3 -6 523.65 35.3
5 3 -6 455.75 32.3
-5 -3 6 477.55 34
-5 -3 6 508.55 32.6
4 3 -6 1041.5 61.39
4 3 -6 955.6 59.29
-4 -3 6 1017.4 59.89
-4 -3 6 1009.4 60.49
3 3 -6 218.38 16.6
3 3 -6 214.38 17.9
-3 -3 6 201.28 17.2
-3 -3 6 227.28 18.2
2 3 -6 1644.84 91.69
2 3 -6 1639.54 91.29
-2 -3 6 1572.74 91.79
-2 -3 6 1559.94 91.69
1 3 -6 357.06 24.3
1 3 -6 398.76 24.5
-1 -3 6 377.26 24.7
-1 -3 6 311.77 24.5
0 3 -6 154.28 13.5
0 3 -6 145.29 13.1
0 -3 6 167.18 14.2
-1 3 -6 379.76 26.8
-1 3 -6 441.96 28.2
1 -3 6 406.56 28.1
-2 3 -6 579.14 37.1
2 -3 6 554.44 36.5
2 -3 6 618.04 38.4
-3 3 -6 299.37 23.2
3 -3 6 304.87 23.3
-4 3 -6 344.77 27.3
-4 3 -6 399.36 26.5
4 -3 6 325.97 27.7
-5 3 -6 144.39 17
-5 3 -6 148.99 19.5
5 -3 6 167.78 20.6
-6 3 -6 25.4 12.7
-6 3 -6 28.2 10.5
-6 3 -6 35.7 13.4
6 -3 6 29.6 13
-7 3 -6 50.89 16.6
-7 3 -6 37.5 13.1
-8 3 -6 8.9 14
-8 3 -6 -9 16.4
-9 3 -6 -1.5 21.5
-9 3 -6 21.7 16.7
-10 3 -6 9.9 23.7
-11 3 -6 57.89 28
11 3 -7 15.7 36.6
-11 -3 7 55.39 22.9
10 3 -7 43 27.7
-10 -3 7 -0.9 20
-10 -3 7 5.3 17
9 3 -7 68.69 25.4
-9 -3 7 27.3 14.8
-9 -3 7 47.8 19.4
8 3 -7 1.9 18.7
-8 -3 7 44.7 16
-8 -3 7 50.89 13.1
7 3 -7 161.68 19.5
-7 -3 7 148.79 22.3
-7 -3 7 184.88 20
6 3 -7 80.89 17.1
6 3 -7 92.09 15.3
-6 -3 7 106.79 16
-6 -3 7 98.09 16.7
5 3 -7 93.59 16.2
5 3 -7 128.89 14.6
-5 -3 7 122.19 15.6
-5 -3 7 96.59 14.9
4 3 -7 442.46 31.4
4 3 -7 446.36 29.7
-4 -3 7 411.86 30.8
-4 -3 7 474.65 30.7
3 3 -7 384.66 26
3 3 -7 389.26 27.2
-3 -3 7 352.16 27.2
-3 -3 7 412.66 27.5
2 3 -7 9.6 6.1
2 3 -7 13.8 6
-2 -3 7 19.1 7
-2 -3 7 12.1 6.6
1 3 -7 61.79 10.1
1 3 -7 90.49 10.3
-1 -3 7 81.09 11.3
0 3 -7 141.49 13.5
0 3 -7 149.19 14.6
0 -3 7 160.08 15.1
-1 3 -7 422.96 28.9
-1 3 -7 413.56 27.9
1 -3 7 380.16 28.7
-2 3 -7 410.96 29.2
2 -3 7 428.66 28.4
2 -3 7 404.56 30
-3 3 -7 87.79 14
3 -3 7 92.69 13.6
-4 3 -7 153.58 18
4 -3 7 144.19 18.2
-5 3 -7 265.37 25.6
-5 3 -7 299.87 23.7
5 -3 7 256.27 26.2
-6 3 -7 14.2 9.6
-6 3 -7 19.6 14.6
6 -3 7 32.8 15
-7 3 -7 1.2 15.5
-7 3 -7 5.6 11.4
-7 3 -7 52.39 29
-8 3 -7 87.29 18.6
-8 3 -7 112.79 23.6
-8 3 -7 106.89 24.4
-9 3 -7 27.8 22.9
-9 3 -7 7.4 18.1
-9 3 -7 37.2 24.3
-10 3 -7 -6.6 28.6
-10 3 -7 54.79 22.4
10 3 -8 289.97 43.9
-10 -3 8 263.17 35.5
9 3 -8 209.48 33.7
-9 -3 8 202.18 27.5
8 3 -8 546.05 46.5
-8 -3 8 464.35 39.6
-8 -3 8 488.15 38.2
7 3 -8 308.17 27.6
7 3 -8 358.06 33.3
-7 -3 8 302.47 30.6
-7 -3 8 331.47 28.8
6 3 -8 154.58 18
6 3 -8 201.68 22.8
-6 -3 8 125.49 18.7
-6 -3 8 139.39 19.8
5 3 -8 1051.09 61.89
5 3 -8 1064.29 64.29
-5 -3 8 951.4 61.79
-5 -3 8 1006.8 63.49
4 3 -8 940.11 56.19
4 3 -8 932.41 54.29
-4 -3 8 770.82 57.09
-4 -3 8 890.81 54.89
3 3 -8 811.42 51.29
3 3 -8 866.01 50.59
-3 -3 8 821.52 51.79
-3 -3 8 803.62 51.39
2 3 -8 501.95 33.5
2 3 -8 534.75 34
-2 -3 8 496.95 34.2
1 3 -8 477.95 31.7
1 3 -8 483.85 32.2
-1 -3 8 460.15 32.4
0 3 -8 1579.54 90.09
0 3 -8 1519.05 90.69
0 -3 8 1561.74 90.99
-1 3 -8 462.85 30.8
-1 3 -8 405.16 31.3
1 -3 8 471.15 32.2
-2 3 -8 920.51 58.39
2 -3 8 964.9 59.79
2 -3 8 970.6 57.49
-3 3 -8 154.98 18.8
3 -3 8 195.88 18.3
-4 3 -8 914.51 56.69
4 -3 8 830.62 55.19
-5 3 -8 657.43 44.8
5 -3 8 592.14 43.8
-6 3 -8 20.6 10.1
-6 3 -8 16.9 15
6 -3 8 7.7 14.3
-7 3 -8 206.38 28.9
-7 3 -8 206.18 29.1
-7 3 -8 197.78 24.5
-8 3 -8 60.29 21.9
-8 3 -8 55.09 23.7
-8 3 -8 76.99 18.8
-9 3 -8 -31.1 17.5
-9 3 -8 29.8 25.4
-10 3 -8 20.4 23.1
-10 3 -8 48.1 31.7
10 3 -9 25.1 32.9
-10 -3 9 -1.6 22.2
9 3 -9 -10.5 22.9
-9 -3 9 1.4 18.1
8 3 -9 -18 18.9
-8 -3 9 -3.2 14.7
-8 -3 9 2 16.3
7 3 -9 7.4 11.4
7 3 -9 -9 16.2
-7 -3 9 0 13.2
-7 -3 9 3.9 13.4
6 3 -9 124.69 18.4
6 3 -9 158.48 24.3
-6 -3 9 127.49 20.4
-6 -3 9 132.79 20.7
5 3 -9 85.79 13.9
5 3 -9 91.09 16.8
-5 -3 9 84.59 15
-5 -3 9 87.49 16.5
4 3 -9 72.49 14
4 3 -9 84.39 13.9
-4 -3 9 86.59 15.2
-4 -3 9 80.99 14.9
3 3 -9 20.9 7.6
3 3 -9 12.4 8.5
-3 -3 9 4.1 9.2
2 3 -9 70.89 12.2
2 3 -9 67.79 11.4
-2 -3 9 81.49 13.8
1 3 -9 30.5 9
1 3 -9 28.9 9.2
-1 -3 9 37.7 10.6
0 3 -9 1 7.6
0 3 -9 14.6 9.1
0 -3 9 3.8 8.4
-1 3 -9 92.39 13.8
-1 3 -9 69.19 13.5
1 -3 9 82.19 14.2
-2 3 -9 10.4 9.5
2 -3 9 10.8 7.8
2 -3 9 5.1 10
-3 3 -9 3.1 10.1
3 -3 9 3.1 8.2
-4 3 -9 41.1 12.9
4 -3 9 48.1 12.6
-5 3 -9 96.09 18.7
5 -3 9 66.99 16.1
-6 3 -9 16.2 16.3
6 -3 9 20.1 15.4
-7 3 -9 36.7 13.8
-7 3 -9 59.09 20.4
-8 3 -9 -10 22.3
-8 3 -9 16.2 15.8
-8 3 -9 -30.8 21.8
-9 3 -9 45.6 28.1
-10 3 -9 -12.3 33.2
-10 3 -9 -9.8 24.7
10 3 -10 113.09 36.4
-10 -3 10 23.2 25.5
9 3 -10 60.79 29.4
-9 -3 10 53.49 22.5
8 3 -10 52.39 24.2
-8 -3 10 -2.7 29.2
-8 -3 10 54.79 19.5
7 3 -10 354.66 36
7 3 -10 324.67 30
-7 -3 10 368.26 35.6
-7 -3 10 354.16 32.8
6 3 -10 306.87 30.3
6 3 -10 277.07 25.1
-6 -3 10 268.37 26.5
-6 -3 10 223.98 27.3
5 3 -10 268.97 22.9
-5 -3 10 275.67 26.5
-5 -3 10 254.17 25.4
4 3 -10 164.98 21.1
4 3 -10 169.38 18.9
-4 -3 10 171.98 21.9
3 3 -10 733.23 48.6
3 3 -10 796.42 47.8
-3 -3 10 698.03 48.7
2 3 -10 784.42 50.19
2 3 -10 769.92 49.4
-2 -3 10 777.42 50.79
1 3 -10 987 59.79
1 3 -10 965.8 59.29
-1 -3 10 909.81 60.59
0 3 -10 2079.09 114.79
0 3 -10 2088.39 115.89
0 -3 10 1746.23 117.99
-1 3 -10 963.8 61.99
-1 3 -10 980.6 60.69
1 -3 10 985.3 62.79
-2 3 -10 839.22 53.39
2 -3 10 847.52 51.69
2 -3 10 768.72 54.39
-3 3 -10 104.79 17.2
3 -3 10 95.19 17
-4 3 -10 130.59 21.6
4 -3 10 197.08 22.4
-5 3 -10 367.56 40.7
5 -3 10 388.76 33.9
-6 3 -10 484.05 41.1
6 -3 10 476.25 40.8
-7 3 -10 232.78 35.7
-8 3 -10 24.9 16.2
-8 3 -10 28.7 24.5
-9 3 -10 127.69 35
9 3 -11 -49.7 27.8
-9 -3 11 25.2 23.8
8 3 -11 29.9 16.2
8 3 -11 15.2 23.5
-8 -3 11 24.2 20.4
7 3 -11 33 19.8
-7 -3 11 24 17
-7 -3 11 -0.4 17.7
6 3 -11 20 15.8
6 3 -11 -6.4 11.2
-6 -3 11 33.9 17.3
5 3 -11 -3.9 13.3
5 3 -11 11.4 10.3
-5 -3 11 11 13.9
4 3 -11 12.7 9.1
4 3 -11 -21.7 12.2
-4 -3 11 -7.2 11.9
3 3 -11 39.3 12.5
3 3 -11 38.5 11
-3 -3 11 40.7 13.8
2 3 -11 223.78 21.9
2 3 -11 218.58 21.5
-2 -3 11 207.28 23.4
1 3 -11 151.18 19.1
1 3 -11 148.19 19.4
-1 -3 11 177.58 21.4
0 3 -11 274.27 23.9
0 3 -11 259.87 24.8
0 -3 11 245.68 26.8
-1 3 -11 44.8 12.7
-1 3 -11 35.5 13
1 -3 11 40.2 14.5
-2 3 -11 32.3 12.4
2 -3 11 15.7 14.6
2 -3 11 29.6 10.8
-3 3 -11 3.9 12.2
3 -3 11 -2 10.4
-4 3 -11 209.68 25.8
4 -3 11 202.98 24.2
-5 3 -11 43.1 18.3
5 -3 11 54.99 16.7
-6 3 -11 -8.9 17.1
6 -3 11 6.4 16.9
-7 3 -11 63.19 25.2
-8 3 -11 74.69 27.5
-8 3 -11 38.1 26.5
-9 3 -11 193.68 39.3
8 3 -12 131.49 23.9
8 3 -12 137.89 31.2
7 3 -12 256.67 34.2
7 3 -12 207.38 35.3
6 3 -12 191.98 28.2
-6 -3 12 165.78 26.7
5 3 -12 45.2 18.1
5 3 -12 35.9 13.4
-5 -3 12 22.3 16.9
4 3 -12 44.5 16.1
4 3 -12 44.5 13.6
-4 -3 12 89.79 18.9
3 3 -12 102.49 18
3 3 -12 94.69 16.3
-3 -3 12 99.19 20
2 3 -12 121.49 18.4
-2 -3 12 90.89 18.4
1 3 -12 447.56 34.7
1 3 -12 453.85 34.5
-1 -3 12 435.66 37.2
0 3 -12 481.15 36.8
0 3 -12 501.25 39.2
0 -3 12 512.55 40.7
-1 3 -12 776.52 51.09
-1 3 -12 727.23 52.49
1 -3 12 754.32 53.99
-2 3 -12 73.79 17.5
2 -3 12 61.09 18.3
2 -3 12 64.29 13.9
-3 3 -12 495.45 38.6
3 -3 12 426.16 34.7
-4 3 -12 486.35 42
4 -3 12 501.65 38.8
-5 3 -12 272.27 33.9
5 -3 12 243.58 30.1
-6 3 -12 407.46 40.7
6 -3 12 389.06 39.3
-7 3 -12 52.39 25.3
-8 3 -12 44 29.8
8 3 -13 -1.6 28
7 3 -13 30.4 25.6
7 3 -13 28.1 30.2
-7 -3 13 -10.9 22.9
6 3 -13 -7.6 19.8
6 3 -13 11.1 14.2
5 3 -13 28 18.3
-5 -3 13 52.19 20.2
4 3 -13 0.3 11.7
4 3 -13 -38.8 13.3
-4 -3 13 -3.7 15.7
3 3 -13 -0.7 13.6
3 3 -13 -7.3 11.7
-3 -3 13 25.3 16.6
2 3 -13 -17.2 11.8
2 3 -13 1.4 12.9
-2 -3 13 -5.3 15.2
1 3 -13 56.79 16.5
1 3 -13 46.9 15.1
-1 -3 13 66.79 18
0 3 -13 133.79 21.6
0 3 -13 150.88 22.7
0 -3 13 172.38 28.1
-1 3 -13 229.18 25.9
-1 3 -13 192.38 30.1
1 -3 13 149.09 25.5
-2 3 -13 28 16.9
-2 3 -13 32.3 15.5
2 -3 13 33 13.3
-3 3 -13 32.3 16.9
3 -3 13 31.7 14.6
-4 3 -13 51.89 19.6
4 -3 13 62.49 17.9
-5 3 -13 23.2 21
5 -3 13 43.1 17.8
-6 3 -13 31.2 23.7
6 -3 13 41.1 19.9
-7 3 -13 0.2 27.7
-8 3 -13 -35.3 30.8
7 3 -14 67.39 29.7
7 3 -14 67.69 19.8
6 3 -14 69.89 25.1
6 3 -14 118.19 20.3
5 3 -14 81.69 22.9
5 3 -14 78.99 18.3
4 3 -14 136.69 24.7
4 3 -14 230.08 26.3
-4 -3 14 159.28 28.3
3 3 -14 328.27 33.8
3 3 -14 360.96 31.6
-3 -3 14 358.06 36.8
2 3 -14 519.85 40.2
2 3 -14 498.85 41.8
-2 -3 14 498.35 43.7
1 3 -14 1090.09 69.29
1 3 -14 1084.99 69.69
-1 -3 14 982.8 71.49
0 3 -14 380.26 36.2
0 3 -14 451.65 38
0 -3 14 463.35 42.4
-1 3 -14 545.45 41.9
-1 3 -14 488.05 43.2
1 -3 14 515.05 46.9
-2 3 -14 523.85 44.7
-2 3 -14 505.15 42.4
2 -3 14 534.15 40.5
-3 3 -14 282.27 32.2
-3 3 -14 305.87 35.3
3 -3 14 276.77 30.3
-4 3 -14 248.38 36
4 -3 14 282.37 32.3
-5 3 -14 112.79 26.6
5 -3 14 123.69 23.6
-6 3 -14 130.59 31
6 -3 14 240.08 35.7
-7 3 -14 198.48 38.4
6 3 -15 39.4 26.9
6 3 -15 26.9 18.3
5 3 -15 -28.3 22.1
-5 -3 15 -15.2 25.7
4 3 -15 45.1 17.7
4 3 -15 4.9 19.6
3 3 -15 8.9 18.2
3 3 -15 15.3 15.3
-3 -3 15 20.1 21.8
2 3 -15 117.49 21.4
2 3 -15 82.49 22
-2 -3 15 157.08 27.3
1 3 -15 97.59 20.9
-1 -3 15 109.09 25.7
0 3 -15 56.59 19
0 3 -15 56.29 19.5
0 -3 15 44.1 23.4
-1 3 -15 -0.2 16
-1 3 -15 -10.4 17.6
1 -3 15 8 14.8
1 -3 15 -37.1 22.2
-2 3 -15 197.48 30.7
-2 3 -15 242.08 36.9
2 -3 15 250.77 29.2
-3 3 -15 2.1 18.3
-3 3 -15 5.2 20.4
3 -3 15 8.9 16.8
-4 3 -15 70.89 24.2
4 -3 15 71.29 21.2
-5 3 -15 72.99 27.3
5 -3 15 10.1 20.5
-6 3 -15 1.8 29.1
6 -3 15 3 37
5 3 -16 42.8 27.7
5 3 -16 58.19 20.6
4 3 -16 113.09 27.5
4 3 -16 123.99 24.6
3 3 -16 105.29 25
3 3 -16 74.39 21.6
2 3 -16 44.1 22.7
2 3 -16 52.19 20.3
1 3 -16 55.49 20.6
1 3 -16 21 19.8
0 3 -16 89.59 24.5
0 3 -16 72.29 23.2
-1 3 -16 159.58 28.3
-1 3 -16 182.58 29.7
-2 3 -16 203.58 34.5
-2 3 -16 340.87 36.8
2 -3 16 267.07 33.7
-3 3 -16 390.56 44.8
-3 3 -16 413.76 46.6
3 -3 16 387.16 39.8
-4 3 -16 172.48 33.3
-4 3 -16 186.38 34
4 -3 16 158.78 26
-5 3 -16 161.28 34.1
4 3 -17 25.8 26.4
4 3 -17 -21.9 21.5
3 3 -17 23.9 25.2
3 3 -17 0.5 25.5
2 3 -17 38.5 21.6
2 3 -17 -30.5 21.2
1 3 -17 -25.2 21.3
1 3 -17 -0.3 20.2
0 3 -17 19.3 24.2
0 3 -17 -4.7 22.5
-1 3 -17 15 23.5
-1 3 -17 -2.1 22.6
1 -3 17 -2 20.5
-2 3 -17 95.09 27.3
-2 3 -17 10.7 27.9
2 -3 17 68.29 22.6
-3 3 -17 -37.9 26.3
-3 3 -17 -20.8 26.8
-3 -4 -17 -5.6 27.9
-2 -4 -17 -19 22.4
-1 -4 -17 14.3 22.6
0 -4 -17 -27.8 21.3
-1 4 17 5.2 16.1
1 -4 -17 46.4 22.7
-2 4 17 50.99 23.4
2 -4 -17 8.5 22.5
2 -4 -17 11.5 20.3
-3 4 17 41.9 28
-3 4 17 34 28.3
3 -4 -17 14.9 22.3
3 -4 -17 -4.7 23.3
-5 -4 -16 39.9 29.7
-4 -4 -16 66.79 28.5
-3 -4 -16 51.69 25.3
-2 -4 -16 60.59 25.1
-1 -4 -16 93.99 25.1
0 4 16 40.1 9.9
0 -4 -16 55.59 21.8
-1 4 16 153.68 25.2
1 -4 -16 106.69 23.3
1 -4 -16 135.69 26.7
-2 4 16 94.39 23.2
2 -4 -16 125.09 22.7
2 -4 -16 84.19 23.7
-3 4 16 99.09 27.2
-3 4 16 102.79 28
3 -4 -16 128.69 24.7
3 -4 -16 100.09 22.2
-4 4 16 114.49 28.5
-4 4 16 121.79 34.3
4 -4 -16 150.28 29.6
-5 4 16 202.38 42.1
-5 4 16 161.38 33.2
5 -4 -16 297.97 40.4
-6 -4 -15 67.79 31.2
-5 -4 -15 46.8 26.8
-4 -4 -15 -33.7 23
-3 -4 -15 20.4 21.3
-2 -4 -15 49.99 21.4
-1 -4 -15 0.2 17.4
0 4 15 9.7 9
0 -4 -15 8.4 17
-1 4 15 6.1 14
1 -4 -15 0 20.7
1 -4 -15 33.6 16.1
-2 4 15 34.8 18.9
-2 4 15 50.49 20
2 -4 -15 37.3 18.2
-3 4 15 33.8 22.2
-3 4 15 -2.3 19.5
3 -4 -15 27.8 15.6
3 -4 -15 18 18.2
-4 4 15 16.7 21.6
-4 4 15 6.2 25.2
4 -4 -15 31.2 19.8
-5 4 15 21.5 23
-5 4 15 12.5 30
5 -4 -15 -2.4 19.2
-6 4 15 37.1 36.4
-6 4 15 25.6 25.6
6 -4 -15 15 24.2
-7 -4 -14 297.37 50.49
-6 -4 -14 216.38 37.1
-5 -4 -14 107.59 28.1
-4 -4 -14 42.2 20.5
-3 -4 -14 21.8 19.3
-2 -4 -14 412.06 37.8
-1 -4 -14 161.38 24.5
0 4 14 6.5 8.9
0 -4 -14 5.9 15.3
-1 4 14 106.09 17.4
1 -4 -14 118.89 21.1
-2 4 14 21.1 17
-2 4 14 40.4 17.3
2 -4 -14 23.2 16.8
2 -4 -14 43.6 16.3
-3 4 14 147.19 23
-3 4 14 126.39 25.8
3 -4 -14 186.98 23.7
3 -4 -14 203.58 25.1
-4 4 14 156.18 24.2
-4 4 14 151.08 30.8
4 -4 -14 140.59 22.1
4 -4 -14 177.68 26.3
-5 4 14 18.6 19.8
5 -4 -14 16.5 18.8
5 -4 -14 32.9 12.6
-6 4 14 1.4 30.9
-6 4 14 27.1 22.9
6 -4 -14 12.8 21.7
-7 4 14 33.9 26.2
-7 4 14 62.29 39.6
7 -4 -14 46.5 27.2
-8 -4 -13 -62.39 30.2
-7 -4 -13 24.2 28.2
-6 -4 -13 50.89 25.2
-5 -4 -13 41.5 21.7
-4 -4 -13 8 18.7
-3 -4 -13 17.2 16.2
-2 -4 -13 17.3 14.6
0 4 13 9.1 8.1
0 -4 -13 -1.1 14.7
-1 4 13 4.8 12.1
1 -4 -13 -13 18.7
-2 4 13 145.79 24.9
-2 4 13 65.79 25.6
2 -4 -13 128.69 20.5
2 -4 -13 125.49 21.4
-3 4 13 45.1 15.9
-3 4 13 26.9 18
3 -4 -13 32.6 13.1
3 -4 -13 14.9 15.1
-4 4 13 19.5 15.1
-4 4 13 -3.5 19.4
4 -4 -13 -4.4 14.3
4 -4 -13 2.9 10.4
-5 4 13 20.1 17.7
-5 4 13 -10.3 23.4
5 -4 -13 27 17.8
5 -4 -13 -8.6 9
-6 4 13 32.9 28.8
-6 4 13 -1.4 19
6 -4 -13 1.5 19.8
-7 4 13 5.8 32.6
-7 4 13 -21.3 20.6
7 -4 -13 -19.5 21.8
-8 4 13 38.5 25.7
-8 4 13 -19.9 41.3
8 -4 -13 -8.8 28.1
-8 -4 -12 85.19 33.9
-7 -4 -12 71.79 27.1
-6 -4 -12 190.88 30.3
-5 -4 -12 146.59 25.6
-4 -4 -12 54.29 18
-3 -4 -12 68.49 21.4
-2 -4 -12 6.5 13.7
-1 -4 -12 107.19 18.7
0 4 12 18 7.6
0 -4 -12 3.1 11.1
-1 4 12 101.59 18
1 -4 -12 102.29 17.4
-2 4 12 9.3 11.5
-2 4 12 6.4 12.4
2 -4 -12 -12 10.1
2 -4 -12 9 10.4
-3 4 12 -9.6 14.8
-3 4 12 10.9 12.9
3 -4 -12 6.9 9.6
3 -4 -12 6.5 12.1
-4 4 12 4.4 18.5
-4 4 12 20.9 13.8
4 -4 -12 27.8 14.3
4 -4 -12 24.3 9.6
-5 4 12 201.78 25.7
-5 4 12 238.58 35.2
5 -4 -12 191.18 18.7
5 -4 -12 204.08 27.3
-6 4 12 45.4 18
-6 4 12 0.6 27.4
6 -4 -12 56.19 10.3
6 -4 -12 40.7 19.2
-7 4 12 44 31.9
-7 4 12 87.89 21
7 -4 -12 64.39 23.7
-8 4 12 164.78 42.5
-8 4 12 148.09 27.8
8 -4 -12 125.19 31.2
-9 -4 -11 77.69 33.4
-8 -4 -11 0.4 26.6
-7 -4 -11 24.1 23.5
-6 -4 -11 -3.9 17.4
-5 -4 -11 -4.2 15.6
-4 -4 -11 24 14.6
-3 -4 -11 129.49 20.3
-2 -4 -11 9.1 11
-1 -4 -11 139.19 19.8
0 4 11 23.8 7.2
0 -4 -11 32.2 11.2
-1 4 11 31 12
-1 4 11 45.9 11.4
1 -4 -11 43.7 11.4
-2 4 11 75.79 14.7
-2 4 11 90.69 16.5
2 -4 -11 93.89 15.3
-3 4 11 18.5 15
-3 4 11 57.79 12.5
3 -4 -11 41.5 12.4
3 -4 -11 34.4 10.2
-4 4 11 -0.6 15.6
-4 4 11 -4.5 10.4
4 -4 -11 6.5 7.8
4 -4 -11 2.3 11.8
-5 4 11 32.1 21.9
-5 4 11 4.4 12.7
5 -4 -11 8.9 7.1
5 -4 -11 22 14.9
-6 4 11 20 14.2
6 -4 -11 14.4 7.4
6 -4 -11 2 15.4
-7 4 11 25.4 17.1
-7 4 11 52.49 30.2
7 -4 -11 -8.5 19
-8 4 11 13.8 19.5
-8 4 11 60.79 35.4
8 -4 -11 95.79 26.6
-9 4 11 -44.5 39.5
-9 4 11 -39.6 21.2
9 -4 -11 33.2 31.1
-8 -4 -10 350.36 48.3
-5 -4 -10 321.17 33.5
-4 -4 -10 222.78 26.2
-3 -4 -10 441.76 34.9
-2 -4 -10 170.58 19.5
-1 -4 -10 61.89 12.1
0 4 10 5.4 6
0 -4 -10 15.9 9.1
-1 4 10 19.6 9.2
-1 4 10 18.2 8.8
1 -4 -10 3.8 8.2
-2 4 10 11.9 9
-2 4 10 15.7 10.6
2 -4 -10 19.7 9.1
-3 4 10 19.6 9.6
-3 4 10 23.9 13.4
3 -4 -10 4.6 7.1
3 -4 -10 6.3 9.3
-4 4 10 15.2 10.5
-4 4 10 32.6 16.3
4 -4 -10 33.3 12.3
4 -4 -10 31 7.8
-5 4 10 58.89 21.8
5 -4 -10 54.49 8.5
5 -4 -10 50.09 13.7
-6 4 10 134.69 29.5
-6 4 10 133.09 20.8
6 -4 -10 130.69 12.7
6 -4 -10 146.09 22.5
-7 4 10 446.26 53.09
-7 4 10 373.06 34.1
7 -4 -10 459.65 41.1
-8 4 10 132.29 34.5
-8 4 10 76.49 20.3
8 -4 -10 98.39 26
-9 4 10 -5.8 21
-9 4 10 95.59 38.9
9 -4 -10 19.3 26.4
-9 -4 -9 63.19 17.7
-9 -4 -9 86.09 31.3
-8 -4 -9 56.19 25.7
-7 -4 -9 240.98 20.3
-6 -4 -9 6.4 5.3
-4 -4 -9 200.98 23.4
-3 -4 -9 28.2 11.6
-2 -4 -9 9.3 9.8
-1 -4 -9 42.7 10.5
0 4 9 263.07 18.5
0 -4 -9 245.08 21
-1 4 9 19.5 7.8
-1 4 9 18.6 8.3
1 -4 -9 -0.8 7.1
-2 4 9 31.6 9.2
-2 4 9 56.39 12.5
2 -4 -9 49.2 10.1
-3 4 9 6.7 8.2
-3 4 9 12.7 12
3 -4 -9 19.5 8.3
3 -4 -9 17.9 6.6
-4 4 9 23.5 9.4
-4 4 9 5 13.3
4 -4 -9 31.6 6.4
4 -4 -9 31 9.8
-5 4 9 59.29 20.2
-5 4 9 41 10.9
5 -4 -9 58.49 13.5
5 -4 -9 52.49 8.5
-6 4 9 213.08 22.6
-6 4 9 216.08 36.9
6 -4 -9 226.28 16.7
6 -4 -9 248.18 25.6
-7 4 9 45.1 25.7
-7 4 9 23.5 13.4
7 -4 -9 46.4 18.1
-8 4 9 1.1 26.5
-8 4 9 0.6 15.2
8 -4 -9 5.8 19.9
-9 4 9 0.1 17.8
-9 4 9 -34.1 32.3
9 -4 -9 -19.2 23.9
-10 4 9 -29 27.5
-10 4 9 48.3 41.7
10 -4 -9 -6.3 31
-9 -4 -8 492.65 53.89
-8 -4 -8 163.38 23.9
-8 -4 -8 156.58 28.7
-7 -4 -8 281.27 24.4
-6 -4 -8 232.78 18.8
-5 -4 -8 48.9 8.6
-3 -4 -8 782.32 50.09
-2 -4 -8 514.25 35
-1 -4 -8 227.98 19.1
0 4 8 80.59 9.8
0 -4 -8 91.39 11.9
-1 4 8 99.79 13.1
-1 4 8 98.69 11.9
1 -4 -8 103.59 11.9
-2 4 8 219.18 17.5
-2 4 8 203.88 21
2 -4 -8 222.18 17.9
-3 4 8 16.1 7.3
-3 4 8 1.3 9.7
3 -4 -8 6.2 4.8
3 -4 -8 25.2 7.7
-4 4 8 72.39 16.6
-4 4 8 102.49 13
4 -4 -8 86.79 13.5
4 -4 -8 66.59 8.5
-5 4 8 39.5 10.1
-5 4 8 39.2 17.7
5 -4 -8 41 6.6
5 -4 -8 73.79 13.6
-6 4 8 121.79 19.8
-6 4 8 155.98 27.7
6 -4 -8 147.49 21.2
-7 4 8 240.88 24.7
7 -4 -8 268.17 29.9
-8 4 8 99.99 18.1
-8 4 8 12.6 27.3
8 -4 -8 85.69 22.7
-9 4 8 77.39 20.6
-9 4 8 99.49 35.5
9 -4 -8 113.89 26.7
-10 4 8 -9.3 38.7
-10 4 8 11 21.9
10 -4 -8 11.1 30
-9 -4 -7 95.09 28.1
-8 -4 -7 22.1 14.6
-8 -4 -7 9.1 19.6
-7 -4 -7 -6.5 10.4
-7 -4 -7 4 15.6
-6 -4 -7 2.8 7.9
-5 -4 -7 21.9 6.2
-4 -4 -7 81.29 6.9
-2 -4 -7 21.2 8
-1 -4 -7 70.49 10.6
0 4 7 3.2 4.2
0 -4 -7 -1.1 4.6
-1 4 7 91.79 11.3
-1 4 7 75.09 9.7
1 -4 -7 66.29 9.6
-2 4 7 279.47 21.5
-2 4 7 211.38 16.9
2 -4 -7 228.68 17.6
-3 4 7 5.3 9.8
-3 4 7 14.7 6
3 -4 -7 7.1 3.9
3 -4 -7 11 6
-4 4 7 128.59 13.6
-4 4 7 125.09 20.5
4 -4 -7 123.29 13.9
4 -4 -7 132.09 9.8
-5 4 7 63.19 10.9
-5 4 7 37.6 16.3
5 -4 -7 69.49 13
5 -4 -7 71.19 6.6
-6 4 7 80.89 13.6
-6 4 7 54.49 19.8
6 -4 -7 71.19 15.1
-7 4 7 45.6 22.9
-7 4 7 68.89 13.6
7 -4 -7 84.79 27.4
-8 4 7 -11.1 24.5
-8 4 7 24.4 14
8 -4 -7 38.3 18.4
-9 4 7 -14.2 16.1
-9 4 7 26.8 30.7
9 -4 -7 20.6 21.2
-10 4 7 -43.1 33.4
-10 4 7 -9.2 19.1
10 -4 -7 -9.7 26.8
-11 -4 -6 125.69 35.9
-10 -4 -6 593.44 58.09
-9 -4 -6 184.88 30.1
-9 -4 -6 269.67 36.6
-8 -4 -6 98.39 19.3
-8 -4 -6 171.98 26
-7 -4 -6 380.86 30.5
-7 -4 -6 319.17 35
-6 -4 -6 62.79 12
-5 -4 -6 61.69 11
-4 -4 -6 210.48 15.3
-3 -4 -6 1221.08 66.99
-1 -4 -6 1059.09 61.69
0 4 6 1267.47 74.39
0 -4 -6 1385.16 75.69
-1 4 6 1447.06 86.89
-1 4 6 1525.85 86.29
1 -4 -6 1581.14 85.89
-2 4 6 829.32 52.79
-2 4 6 893.31 49.4
2 -4 -6 819.52 49.7
-3 4 6 63.69 8.5
-3 4 6 93.89 15.2
3 -4 -6 59.19 6.6
3 -4 -6 52.39 8.6
-4 4 6 -6.2 9.8
-4 4 6 5.1 5.7
4 -4 -6 18.6 7
-5 4 6 6.9 6.9
-5 4 6 -7.1 13.1
5 -4 -6 0.7 8.1
-6 4 6 -13.4 15
-6 4 6 2.8 7.9
6 -4 -6 5.7 10.2
-7 4 6 -5.2 18.9
-7 4 6 12.1 9.8
7 -4 -6 23.5 13.6
-8 4 6 72.99 15.2
-8 4 6 94.99 28
8 -4 -6 130.19 22.4
-9 4 6 29.5 26.6
-9 4 6 35 16.1
9 -4 -6 20.4 20.2
-10 4 6 4.4 18.1
-10 4 6 32.2 34
10 -4 -6 23.3 27.1
-11 4 6 36 41.9
11 -4 -6 -5.7 31.9
-10 -4 -5 22.6 22
-10 -4 -5 36.5 26
-9 -4 -5 29.6 18.7
-9 -4 -5 41.4 23
-8 -4 -5 5.2 17.7
-8 -4 -5 -0.5 14.3
-7 -4 -5 463.15 35.9
-7 -4 -5 437.26 38.6
-6 -4 -5 1.3 8.7
-5 -4 -5 185.08 17.3
-4 -4 -5 18.8 5.8
0 4 5 12 3.6
0 -4 -5 5.9 3.9
-1 4 5 145.79 12.8
-1 4 5 138.79 10.1
1 -4 -5 137.39 10.7
-2 4 5 706.63 44.9
-2 4 5 683.33 41.2
2 -4 -5 744.83 41.8
-3 4 5 495.35 29.4
-3 4 5 470.45 34.8
3 -4 -5 446.46 28.1
3 -4 -5 531.25 30.7
-4 4 5 549.25 32.3
-4 4 5 455.25 38.2
4 -4 -5 532.65 33.7
-5 4 5 -1.4 5.8
-5 4 5 10.4 12.5
5 -4 -5 9.4 8.1
-6 4 5 85.19 20.2
-6 4 5 70.09 11.6
6 -4 -5 50.69 13.1
-7 4 5 44 13.8
-7 4 5 19.3 17.7
7 -4 -5 40.5 14.6
-8 4 5 46.9 25.3
-8 4 5 -1.1 12.1
8 -4 -5 14.6 16.7
-9 4 5 82.19 30.1
-9 4 5 84.69 18.8
-9 4 5 97.09 9.4
9 -4 -5 87.79 25.5
-10 4 5 -28 17.7
-10 4 5 6.1 6.3
-10 4 5 40 30.6
10 -4 -5 -12.3 23.6
-11 4 5 -28.1 36.8
11 -4 -5 2.8 30.7
-11 -4 -4 104.59 33.2
-10 -4 -4 260.67 37.6
-10 -4 -4 205.58 33.7
-9 -4 -4 287.47 36
-9 -4 -4 337.67 37.2
-8 -4 -4 697.83 52.99
-8 -4 -4 768.92 55.19
-7 -4 -4 136.79 22.2
-7 -4 -4 125.69 19.8
-6 -4 -4 447.36 33.8
-5 -4 -4 1572.54 92.99
-1 -4 -4 1918.41 105.59
0 4 4 1746.03 94.09
0 -4 -4 1790.52 93.89
0 -4 -4 1536.35 94.19
-1 4 4 1822.82 104.99
1 -4 -4 1909.71 103.19
1 -4 -4 1859.81 105.89
-2 4 4 587.64 32.6
-2 4 4 532.45 36.5
-3 4 4 1603.44 89.89
-3 4 4 1523.75 84.19
3 -4 -4 1482.15 85.19
3 -4 -4 1432.76 81.99
-4 4 4 1213.18 67.29
-4 4 4 1173.48 73.59
4 -4 -4 1133.49 68.49
-5 4 4 227.68 18.1
-5 4 4 253.27 26.4
5 -4 -4 220.58 19.7
-6 4 4 177.38 26.7
-6 4 4 217.88 18.1
6 -4 -4 150.08 19.2
-7 4 4 594.64 49
-7 4 4 560.74 31.9
7 -4 -4 533.85 42
-8 4 4 242.68 45.3
-8 4 4 354.36 28.2
-8 4 4 344.77 20.7
8 -4 -4 329.87 37.8
-9 4 4 35.6 15.4
-9 4 4 51.49 25.7
9 -4 -4 31.9 19.7
-10 4 4 -2.2 28.2
-10 4 4 13.6 7.7
-10 4 4 32.6 17.4
10 -4 -4 -22.5 22.1
-11 4 4 -33.6 37.3
-11 4 4 19.4 9.3
11 -4 -4 20.1 29.1
-11 -4 -3 27.5 23.9
-11 -4 -3 37.9 28.7
-10 -4 -3 6.6 22.4
-10 -4 -3 -8.4 18.8
-9 -4 -3 -8.1 18.7
-9 -4 -3 3 17.5
-8 -4 -3 8.8 14.5
-8 -4 -3 -10 14.2
-7 -4 -3 340.47 32
-6 -4 -3 42.3 14
-5 -4 -3 27 10.1
-4 -4 -3 187.18 17.2
-1 -4 -3 1051.09 58.79
0 4 3 65.79 6.4
0 -4 -3 60.79 6.7
-1 4 3 539.15 33.1
1 -4 -3 603.44 30.9
1 -4 -3 450.35 36.8
-2 4 3 223.18 13.1
-2 4 3 203.38 17.1
2 -4 -3 198.48 17.4
2 -4 -3 212.08 13.8
-3 4 3 117.89 14.3
-3 4 3 119.29 10.5
3 -4 -3 105.19 10.1
3 -4 -3 109.69 14.7
-4 4 3 112.39 16.8
-4 4 3 126.89 11
4 -4 -3 131.99 13.1
-5 4 3 68.89 15.8
-5 4 3 82.09 10.6
5 -4 -3 63.39 11.7
-6 4 3 93.69 7.1
-6 4 3 91.99 19.2
-6 4 3 116.69 13.9
6 -4 -3 92.79 15.5
-7 4 3 30.3 17.3
-7 4 3 18.9 9.9
-7 4 3 27.4 4.7
7 -4 -3 10.1 12.2
-8 4 3 86.29 9.7
-8 4 3 92.69 24.3
-8 4 3 124.89 17.9
-9 4 3 67.39 25.4
-9 4 3 61.99 8.9
-9 4 3 79.89 18.2
9 -4 -3 68.79 22.1
-10 4 3 -5.8 28.3
-10 4 3 6.3 16.9
-10 4 3 11.3 8.2
10 -4 -3 -16.7 22.1
-11 4 3 7.6 10.1
-11 4 3 -59.09 33.7
11 -4 -3 18.6 29.2
-11 -4 -2 44.8 30
-11 -4 -2 53.09 25.3
-10 -4 -2 334.07 40.6
-10 -4 -2 331.17 34.9
-10 -4 -2 280.27 36.6
-9 -4 -2 206.08 32.2
-9 -4 -2 247.18 30.3
-9 -4 -2 215.78 28.2
-8 -4 -2 386.66 35.6
-7 -4 -2 935.41 61.49
-6 -4 -2 1715.03 101.59
-5 -4 -2 2116.59 121.79
-4 -4 -2 1552.04 89.69
0 4 2 495.15 28.2
0 -4 -2 446.36 28.2
-1 4 2 1212.78 68.49
1 -4 -2 1183.08 65.69
1 -4 -2 1199.08 66.29
-2 4 2 2221.88 130.49
-2 4 2 2408.36 126.79
2 -4 -2 2171.38 130.59
2 -4 -2 2345.27 127.49
2 -4 -2 2412.66 126.09
-3 4 2 209.38 15.5
-3 4 2 196.18 18
3 -4 -2 201.88 18.3
3 -4 -2 186.68 14.3
-4 4 2 1099.19 58.99
-4 4 2 1027.4 64.19
-4 4 2 968.7 55.69
4 -4 -2 990 60.09
4 -4 -2 1020.2 64.29
-5 4 2 1066.19 64.19
-5 4 2 1077.09 70.49
-5 4 2 1109.39 60.89
5 -4 -2 1148.69 66.69
-6 4 2 884.11 55.19
-6 4 2 894.91 51.49
-6 4 2 970.8 63.99
6 -4 -2 927.01 58.49
-7 4 2 654.73 38
-7 4 2 567.44 50.39
-7 4 2 704.63 43.5
7 -4 -2 641.74 46.2
-8 4 2 275.37 26.9
-8 4 2 297.17 38.8
-8 4 2 275.67 19.9
8 -4 -2 339.17 32.8
-9 4 2 59.29 25.2
-9 4 2 88.19 13
-9 4 2 94.99 19.5
9 -4 -2 100.59 22.4
-10 4 2 -35.5 27.2
-10 4 2 15.3 9.9
-10 4 2 22.6 18
10 -4 -2 1.1 23.6
-11 4 2 -12 11.2
11 -4 -2 -4.5 29.2
-11 -4 -1 26.3 23.7
-10 -4 -1 24.1 17.2
-10 -4 -1 17.3 23.1
-9 -4 -1 147.19 23.4
-9 -4 -1 109.89 19.5
-9 -4 -1 86.29 24.8
-8 -4 -1 36.3 13.4
-8 -4 -1 22 14.4
-7 -4 -1 7.3 9.5
-7 -4 -1 18 11.8
-6 -4 -1 -1.5 8.4
-5 -4 -1 -6.4 7.2
-4 -4 -1 43.4 8.9
-3 -4 -1 120.79 11.2
-2 -4 -1 157.58 11.4
-1 -4 -1 72.09 7
0 -4 -1 63.19 6.5
0 -4 -1 70.09 6
-1 4 1 22.5 4.8
1 -4 -1 22.6 3
1 -4 -1 24.2 2.3
1 -4 -1 19.9 1.9
1 -4 -1 15.6 4.9
-2 4 1 740.03 39.5
-2 4 1 658.83 42.8
-2 4 1 726.83 39.1
2 -4 -1 704.73 40.3
2 -4 -1 692.13 43.5
2 -4 -1 692.63 39.2
-3 4 1 122.89 13.5
-3 4 1 122.09 7.5
3 -4 -1 89.79 13.2
3 -4 -1 127.09 10.8
-4 4 1 95.49 14
-4 4 1 76.89 9.4
4 -4 -1 74.19 10.6
4 -4 -1 80.09 14.1
-5 4 1 84.29 15.9
-5 4 1 101.79 12.3
5 -4 -1 119.99 14.6
-6 4 1 6.2 11.7
-6 4 1 14.8 8.9
6 -4 -1 3.2 9.1
-7 4 1 1.6 14.6
-7 4 1 22.3 10.3
7 -4 -1 1.5 12.7
-8 4 1 43.9 13.3
-8 4 1 51.89 9.4
-8 4 1 19.7 19.3
8 -4 -1 35.9 17
-9 4 1 17.3 9.2
-9 4 1 32.4 16.1
-9 4 1 18.4 20.9
9 -4 -1 4 17.9
-10 4 1 65.99 13.1
-10 4 1 32 28.1
-10 4 1 64.39 19.8
10 -4 -1 61.49 25.9
-11 4 1 39.6 33.6
-11 4 1 65.59 15.5
-11 -4 0 44 34
-11 -4 0 125.39 26.7
-10 -4 0 37.9 17.9
-10 -4 0 20.2 24.1
-9 -4 0 123.69 22.7
-9 -4 0 98.29 18.6
-8 -4 0 135.39 21.9
-8 -4 0 149.39 19.9
-7 -4 0 534.35 39.4
6 4 0 825.72 54.19
-6 -4 0 823.42 53.99
-6 -4 0 908.41 53.29
5 4 0 321.17 25.2
-5 -4 0 349.87 25.3
-5 -4 0 327.07 24.2
4 4 0 660.13 40.7
-4 -4 0 648.44 40.9
-4 -4 0 655.63 40.5
3 4 0 428.26 25.9
-3 -4 0 390.86 25.9
-3 -4 0 395.86 26
-2 -4 0 13.9 4.4
-2 -4 0 15.7 3.9
1 4 0 936.81 55.59
-1 -4 0 1045.6 54.49
-1 -4 0 947.41 55.49
0 4 0 2281.57 132.49
0 -4 0 2397.16 132.49
0 -4 0 2547.45 133.69
-1 4 0 1056.29 59.39
-1 4 0 986.5 57.29
1 -4 0 1020.8 59.69
1 -4 0 1077.09 57.59
1 -4 0 1017 56.99
-2 4 0 20.4 3.4
-2 4 0 20.3 3.3
-2 4 0 19.2 5.6
-2 4 0 18.7 3.6
2 -4 0 18.6 5.9
2 -4 0 32.4 4.7
-3 4 0 381.36 23.9
-3 4 0 393.26 28.2
-3 4 0 427.86 25.6
3 -4 0 434.16 26.4
3 -4 0 407.16 29.1
-4 4 0 614.24 41.1
-4 4 0 629.14 37.1
4 -4 0 568.04 40.9
4 -4 0 603.04 38.2
-5 4 0 280.57 26.3
-5 4 0 294.17 22.3
5 -4 0 314.97 27.5
5 -4 0 308.77 24.4
-6 4 0 895.01 54.59
-6 4 0 924.51 60.99
6 -4 0 835.92 56.19
-7 4 0 509.15 42.9
-7 4 0 484.95 39.9
7 -4 0 545.45 39.4
-8 4 0 153.88 27.8
-8 4 0 134.79 21.9
8 -4 0 165.28 25.1
-9 4 0 104.39 20.9
-9 4 0 79.39 25.3
9 -4 0 49.3 19.7
-10 4 0 33.5 20.7
-10 4 0 49.8 26.6
-10 4 0 36.9 13.5
-11 4 0 71.59 35.5
-11 4 0 134.59 32.6
-11 -4 1 47.8 21
-11 -4 1 93.99 34.7
-10 -4 1 53.89 18.2
-10 -4 1 72.29 27.3
9 4 -1 -31.9 17.7
-9 -4 1 5.1 15.8
-9 -4 1 6.4 13.1
8 4 -1 42.2 16.2
-8 -4 1 58.69 14.2
-8 -4 1 59.29 15.9
7 4 -1 12.4 12.5
-7 -4 1 -0.2 10.4
-7 -4 1 15 11.8
6 4 -1 -5.9 8.6
-6 -4 1 6.2 7.2
-6 -4 1 -3.8 8.3
5 4 -1 104.29 13.4
-5 -4 1 100.69 12.2
-5 -4 1 102.69 13.1
4 4 -1 95.89 11.8
-4 -4 1 85.99 11.3
-4 -4 1 94.39 10.7
3 4 -1 136.19 11.7
-3 -4 1 131.19 11.5
-3 -4 1 128.79 11.3
2 4 -1 714.63 41.7
2 4 -1 686.73 42.3
-2 -4 1 736.93 42.2
-2 -4 1 740.33 41.8
1 4 -1 23.4 3.7
1 4 -1 22.4 4.2
-1 -4 1 23.6 3.5
-1 -4 1 19.8 4
0 4 -1 64.69 6
0 4 -1 76.09 4.7
0 -4 1 61.09 5
0 -4 1 69.59 6.4
-1 4 -1 81.39 6.6
-1 4 -1 86.99 8.4
-1 4 -1 78.79 6.2
1 -4 1 77.09 7
1 -4 1 90.29 8.9
1 -4 1 85.49 6.6
-2 4 -1 179.58 11.5
-2 4 -1 148.49 11
-2 4 -1 170.68 13.6
-2 4 -1 148.49 11.3
2 -4 1 155.38 14
-3 4 -1 123.09 10.7
-3 4 -1 117.79 12.7
3 -4 1 129.69 11.3
3 -4 1 114.29 13.6
-4 4 -1 41.5 7.9
-4 4 -1 37 9.5
4 -4 1 23.6 9.6
4 -4 1 39.8 8.4
-5 4 -1 10.1 9.3
-5 4 -1 -0.7 7
5 -4 1 13.8 10.2
5 -4 1 17.8 8.3
-6 4 -1 10.8 8.8
-6 4 -1 0.2 10.9
6 -4 1 4.7 12.2
6 -4 1 0.2 9.3
-7 4 -1 5.8 13.7
-7 4 -1 4.8 12.5
-8 4 -1 22.7 17.7
-8 4 -1 33.4 14.8
-9 4 -1 142.89 23.7
-9 4 -1 104.49 27.2
-10 4 -1 24.5 25.4
-10 4 -1 2.2 19.5
-11 4 -1 8.3 32.9
-11 4 -1 -1.5 17.5
-11 -4 2 0.1 19.8
-11 -4 2 3 31.4
10 4 -2 26.2 22.2
-10 -4 2 8.8 16
9 4 -2 111.79 23.6
-9 -4 2 107.19 21.4
-9 -4 2 132.89 21.9
8 4 -2 268.97 29.1
-8 -4 2 231.88 26.9
-8 -4 2 280.77 24.4
7 4 -2 637.14 45.6
-7 -4 2 696.93 43
-7 -4 2 591.54 43.8
6 4 -2 913.01 58.49
-6 -4 2 893.51 57.39
-6 -4 2 942.21 55.99
5 4 -2 1151.78 68.89
-5 -4 2 1107.19 67.79
-5 -4 2 1158.68 67.09
4 4 -2 968.6 60.89
4 4 -2 1038.5 61.79
-4 -4 2 1093.49 60.89
-4 -4 2 1053.19 61.39
3 4 -2 199.78 15.8
3 4 -2 190.78 15.7
-3 -4 2 228.68 16
-3 -4 2 233.28 15.9
2 4 -2 2510.75 138.69
2 4 -2 2633.44 139.39
-2 -4 2 2382.46 138.49
-2 -4 2 2494.65 138.99
1 4 -2 1206.18 71.49
1 4 -2 1238.98 70.79
-1 -4 2 1429.96 71.19
-1 -4 2 1198.08 71.49
0 4 -2 460.15 25.9
0 4 -2 464.35 26.9
0 -4 2 412.66 26.9
0 -4 2 454.15 26.3
-1 4 -2 771.72 43.3
-1 4 -2 735.73 43.8
1 -4 2 775.42 43.9
1 -4 2 817.32 45.7
1 -4 2 717.63 44.1
-2 4 -2 326.57 21.7
-2 4 -2 280.47 19.8
-2 4 -2 300.17 19.8
-2 4 -2 374.36 25.5
2 -4 2 307.47 22.2
-3 4 -2 2085.89 111.19
-3 4 -2 1974.6 110.89
-3 4 -2 2049.99 112.69
3 -4 2 1768.62 112.59
-4 4 -2 1582.94 85.99
-4 4 -2 1468.65 87.39
4 -4 2 1394.16 87.99
-5 4 -2 1897.31 110.39
-5 4 -2 1944.11 107.99
5 -4 2 1767.72 110.59
-6 4 -2 1567.14 97.79
-6 4 -2 1768.52 95.39
6 -4 2 1484.45 98.29
-7 4 -2 919.71 60.79
-7 4 -2 996.3 65.29
-8 4 -2 378.46 32.6
-8 4 -2 379.36 37.9
-9 4 -2 194.88 29
-9 4 -2 233.78 37.9
-10 4 -2 309.77 43.3
-10 4 -2 261.87 36.7
-11 4 -2 45.3 29.6
11 4 -3 12.5 30.1
-11 -4 3 7.1 31.2
-11 -4 3 34.4 21.1
10 4 -3 -24.3 22.4
-10 -4 3 -7.6 14.6
9 4 -3 55.79 21
-9 -4 3 2 15.4
-9 -4 3 57.29 15.1
8 4 -3 111.49 21.2
-8 -4 3 71.69 16.6
-8 -4 3 95.49 14.5
7 4 -3 17.5 14.1
-7 -4 3 16.8 9.1
-7 -4 3 21.8 12.1
6 4 -3 91.89 15.4
-6 -4 3 82.09 14.2
-6 -4 3 94.29 13.4
5 4 -3 69.59 12.5
-5 -4 3 66.79 10.4
-5 -4 3 76.69 11.9
4 4 -3 114.79 13.5
4 4 -3 111.69 12.2
-4 -4 3 121.89 11.8
-4 -4 3 121.89 12.9
3 4 -3 116.49 11.4
3 4 -3 130.09 11.4
-3 -4 3 106.09 10.7
-3 -4 3 117.89 11
2 4 -3 226.28 15.8
2 4 -3 207.58 15.4
-2 -4 3 229.48 15.8
-2 -4 3 217.58 15.4
1 4 -3 599.24 35.3
1 4 -3 578.94 35.8
-1 -4 3 622.04 35.6
-1 -4 3 617.54 36.2
0 4 -3 69.69 7.3
0 4 -3 78.19 6.7
0 -4 3 69.59 7.9
0 -4 3 71.09 8.1
-1 4 -3 959.5 57.29
-1 4 -3 1008.6 56.79
1 -4 3 1047.3 58.59
1 -4 3 984.8 57.59
-2 4 -3 63.39 8.2
-2 4 -3 90.29 9.5
-2 4 -3 74.29 8.5
2 -4 3 83.69 10.3
2 -4 3 73.79 9.3
-3 4 -3 235.38 17.8
-3 4 -3 261.47 19
-3 4 -3 229.78 18.3
3 -4 3 226.18 19.7
-4 4 -3 161.88 16.1
-4 4 -3 198.88 17.5
-4 4 -3 171.88 16.3
4 -4 3 184.88 18.7
-5 4 -3 27.9 9.9
-5 4 -3 10.9 8.8
5 -4 3 27.3 11.3
-6 4 -3 57.29 13.7
-6 4 -3 57.19 12.7
6 -4 3 38.5 14.1
-7 4 -3 394.06 36.6
-7 4 -3 393.96 33.1
-8 4 -3 16.1 14.6
-8 4 -3 2.4 15.1
-9 4 -3 23.4 23.8
-9 4 -3 25.5 17.1
-10 4 -3 60.19 23.7
-10 4 -3 -31.6 21.9
-11 4 -3 26.4 31.1
-11 4 -3 0 26.2
11 4 -4 17.7 29.9
-11 -4 4 -11.8 19.3
10 4 -4 -9.9 24.6
-10 -4 4 -7.5 16
9 4 -4 16.3 19.3
-9 -4 4 48.9 15
-8 -4 4 346.27 32.5
-8 -4 4 403.86 30.2
7 4 -4 569.74 43
-7 -4 4 585.04 38.8
-7 -4 4 532.85 40.3
6 4 -4 156.48 20.9
-6 -4 4 203.88 20.4
-6 -4 4 190.58 17.2
5 4 -4 227.88 21
5 4 -4 239.08 19.8
-5 -4 4 247.38 18.9
-5 -4 4 223.88 19.8
4 4 -4 1256.67 73.39
4 4 -4 1235.88 72.49
-4 -4 4 1209.78 72.59
-4 -4 4 1269.27 72.19
3 4 -4 1579.74 90.09
3 4 -4 1550.84 90.29
-3 -4 4 1595.44 89.99
-3 -4 4 1597.54 90.19
2 4 -4 560.74 35.8
2 4 -4 586.24 36
-2 -4 4 628.74 36.5
-2 -4 4 601.54 36.1
1 4 -4 1968.9 112.29
1 4 -4 1935.11 112.59
-1 -4 4 2015.9 112.69
-1 -4 4 2145.99 113.49
0 4 -4 1894.51 104.19
0 4 -4 1993.6 105.09
0 -4 4 1772.92 105.09
0 -4 4 1805.22 104.49
-1 4 -4 2275.57 127.79
-1 4 -4 2257.17 126.99
1 -4 4 2289.87 127.79
1 -4 4 2309.27 128.19
-2 4 -4 2455.85 136.49
-2 4 -4 2378.16 136.69
2 -4 4 2443.96 137.19
2 -4 4 2482.85 137.69
-3 4 -4 1938.61 108.49
-3 4 -4 2019.1 109.19
3 -4 4 1759.62 109.39
-4 4 -4 1043.6 63.59
-4 4 -4 1131.49 64.29
-4 4 -4 1038.2 63.39
4 -4 4 992.3 64.99
-5 4 -4 1496.05 87.89
-5 4 -4 1527.05 88.09
-5 4 -4 1538.35 88.79
5 -4 4 1361.46 89.49
-6 4 -4 704.83 49.4
-6 4 -4 770.02 49.6
6 -4 4 677.53 50.59
-7 4 -4 134.09 21.2
-7 4 -4 143.69 23.9
7 -4 4 134.99 24.5
-8 4 -4 829.82 58.59
-8 4 -4 875.81 62.09
-9 4 -4 422.26 39.1
-10 4 -4 126.69 27.3
-11 4 -4 185.38 43.6
11 4 -5 0.2 32
-11 -4 5 -25.1 19.8
10 4 -5 34.5 25.1
-10 -4 5 -8.4 15.2
9 4 -5 66.79 23.3
-9 -4 5 123.39 18.5
8 4 -5 39.1 18.3
-8 -4 5 38.8 14
-8 -4 5 27.1 11.9
7 4 -5 2.4 13.3
-7 -4 5 28.3 12.2
6 4 -5 63.69 11.5
6 4 -5 69.79 14.6
-6 -4 5 71.79 13.6
-6 -4 5 50.09 10.7
5 4 -5 1.5 6.6
5 4 -5 -2.5 8.3
-5 -4 5 5 7.1
-5 -4 5 19.5 8.4
4 4 -5 567.44 36.7
4 4 -5 490.65 34.6
-4 -4 5 557.84 35.7
-4 -4 5 575.54 35.1
3 4 -5 560.44 34.5
3 4 -5 533.15 34.9
-3 -4 5 548.35 34.7
-3 -4 5 545.25 34.7
2 4 -5 720.13 42.2
2 4 -5 658.33 41.9
-2 -4 5 686.13 42.2
-2 -4 5 725.33 42.8
1 4 -5 136.99 11.6
1 4 -5 123.99 11.6
-1 -4 5 148.19 13
-1 -4 5 128.49 12.3
0 4 -5 5.4 4.1
0 4 -5 6.8 4.6
0 -4 5 -0.6 4.5
0 -4 5 11.6 5.5
-1 4 -5 154.68 14.3
-1 4 -5 177.18 13.8
1 -4 5 179.48 15.2
-2 4 -5 15.2 5.9
-2 4 -5 20.7 6.7
2 -4 5 19.5 7.2
2 -4 5 13.4 6.4
-3 4 -5 626.24 40
-3 4 -5 675.43 40.3
3 -4 5 590.44 40.8
-4 4 -5 35.2 9.7
-4 4 -5 34.5 8.4
4 -4 5 21.6 10.1
-5 4 -5 189.88 21.3
-5 4 -5 180.68 18.9
-5 4 -5 206.48 21.4
5 -4 5 213.38 23.6
-6 4 -5 3.6 10.5
-6 4 -5 1.6 11.4
-6 4 -5 10.5 11.1
6 -4 5 22.8 14.1
-7 4 -5 395.06 34.2
-7 4 -5 394.66 34.5
7 -4 5 432.56 38.3
-8 4 -5 11.8 16.4
-8 4 -5 4.9 16.9
-9 4 -5 12.2 18.8
-11 4 -5 1.7 28.1
11 4 -6 2 32.7
-11 -4 6 -5.2 21.7
10 4 -6 104.79 29.7
-10 -4 6 -3 17.8
9 4 -6 25.8 20.7
-9 -4 6 23 14.8
8 4 -6 100.29 22.3
-8 -4 6 107.59 16.8
-8 -4 6 91.29 18.4
7 4 -6 31.8 15.1
-7 -4 6 5.4 11
-7 -4 6 10.6 10.9
6 4 -6 11.1 11.5
6 4 -6 3.5 8.9
-6 -4 6 9.6 9.5
-6 -4 6 2.6 8.6
5 4 -6 7.6 7.3
5 4 -6 8.1 9.7
-5 -4 6 21.2 8
4 4 -6 17.5 7.1
4 4 -6 18.3 8.7
-4 -4 6 5.5 7.2
-4 -4 6 3.9 6.7
3 4 -6 67.29 10
3 4 -6 77.19 10.9
-3 -4 6 71.69 11.1
-3 -4 6 87.49 12.2
2 4 -6 925.91 53.89
2 4 -6 907.11 53.69
-2 -4 6 828.02 54.19
-2 -4 6 952.1 54.49
1 4 -6 1654.73 88.89
1 4 -6 1531.45 89.09
-1 -4 6 1462.75 89.59
-1 -4 6 1577.04 89.29
0 4 -6 1404.16 78.99
0 4 -6 1364.06 79.69
0 -4 6 1359.56 79.69
-1 4 -6 1164.48 65.79
-1 4 -6 1115.89 66.49
1 -4 6 1089.89 66.49
-2 4 -6 6085.09 329.67
-2 4 -6 5910.71 330.17
2 -4 6 5910.11 330.47
2 -4 6 6010.6 329.87
-3 4 -6 1203.48 72.09
3 -4 6 1217.68 72.69
-4 4 -6 244.28 23
-4 4 -6 269.87 21.3
4 -4 6 257.67 24.4
-5 4 -6 125.79 16.4
-5 4 -6 98.19 16.7
5 -4 6 72.09 16.5
-6 4 -6 131.19 21.1
-6 4 -6 92.49 16.5
-6 4 -6 88.89 17.8
6 -4 6 115.39 20.5
-7 4 -6 361.56 33.5
-7 4 -6 373.96 31.9
-7 4 -6 367.56 34.3
7 -4 6 344.37 37
-8 4 -6 141.89 24.4
-8 4 -6 139.59 24.3
-8 4 -6 138.39 26.4
-9 4 -6 294.77 42.1
-9 4 -6 222.48 35.2
-10 4 -6 652.53 57.89
-11 4 -6 286.07 49.1
10 4 -7 -8.4 27.5
-10 -4 7 -7.2 18.1
9 4 -7 23.2 23.9
-9 -4 7 -7.7 13.8
8 4 -7 62.39 19.8
-8 -4 7 11.7 14
-8 -4 7 16.3 13.5
7 4 -7 53.49 13.9
7 4 -7 53.79 21.2
-7 -4 7 65.99 15.3
-7 -4 7 49.99 13.4
6 4 -7 63.39 16.5
6 4 -7 81.69 13.7
-6 -4 7 65.39 15.7
-6 -4 7 89.89 15.3
5 4 -7 56.99 13.4
5 4 -7 79.29 12.7
-5 -4 7 94.49 15.1
-5 -4 7 48.1 12
4 4 -7 159.98 15.9
4 4 -7 129.69 17.1
-4 -4 7 143.59 16.5
-4 -4 7 166.38 17
3 4 -7 -7.2 5.6
3 4 -7 10.5 7.1
-3 -4 7 7.4 7.4
-3 -4 7 24.5 8.7
2 4 -7 245.98 18.9
2 4 -7 227.88 18.2
-2 -4 7 202.68 19.2
-2 -4 7 225.88 18.9
1 4 -7 83.69 11.2
1 4 -7 76.59 10.5
-1 -4 7 88.89 11.7
0 4 -7 18.6 6.9
0 4 -7 6.2 5.7
0 -4 7 4.6 7.2
-1 4 -7 66.09 11.2
-1 4 -7 70.09 10.4
1 -4 7 72.69 12.2
-2 4 -7 20.2 8.5
-2 4 -7 34.9 8.7
2 -4 7 34.5 8.9
2 -4 7 24.5 9.8
-3 4 -7 168.08 18.2
3 -4 7 176.08 18.5
-4 4 -7 100.09 15.7
4 -4 7 73.99 14.7
-5 4 -7 26.6 10.1
-5 4 -7 29.7 12.7
5 -4 7 18.4 11.9
-6 4 -7 28.3 10.8
-6 4 -7 -23.2 11.7
-6 4 -7 -11.3 12.5
6 -4 7 -3.9 14.6
-7 4 -7 26.5 16.3
-7 4 -7 35.7 29.1
-7 4 -7 3.1 12
7 -4 7 19.4 17.3
-8 4 -7 35.1 19.4
-8 4 -7 22.6 19.2
-8 4 -7 32.2 16.7
-9 4 -7 70.09 24.8
-9 4 -7 73.39 26.7
-9 4 -7 68.79 25.9
-10 4 -7 24.3 32.8
-10 4 -7 32.8 24.1
-10 4 -7 17 30.2
10 4 -8 72.89 34.1
-10 -4 8 58.79 23.2
9 4 -8 86.19 27.4
-9 -4 8 91.09 20.4
8 4 -8 78.19 22.7
-8 -4 8 59.19 16.6
7 4 -8 257.77 24.2
7 4 -8 245.88 31
-7 -4 8 247.68 26.4
-7 -4 8 243.28 26.4
6 4 -8 138.69 23.5
6 4 -8 125.99 17.3
-6 -4 8 168.78 21.7
-6 -4 8 133.89 19.9
5 4 -8 56.69 14.2
5 4 -8 34.5 10.5
-5 -4 8 49.6 12.6
-5 -4 8 35.6 12
4 4 -8 65.89 11.2
4 4 -8 75.79 13.6
-4 -4 8 71.89 13.1
-4 -4 8 78.59 13.6
3 4 -8 6.4 7.5
3 4 -8 12.3 7.1
-3 -4 8 18.4 8.3
-3 -4 8 11.5 8.7
2 4 -8 188.38 17.4
2 4 -8 191.68 17.1
-2 -4 8 205.58 19
-2 -4 8 187.08 18.7
1 4 -8 117.09 13.7
1 4 -8 123.59 13.4
-1 -4 8 111.89 14.7
0 4 -8 75.39 12.4
0 4 -8 83.99 11.9
0 -4 8 80.69 13.2
-1 4 -8 227.88 21.1
-1 4 -8 252.87 20.1
1 -4 8 247.98 22.3
-2 4 -8 487.25 34.3
-2 4 -8 473.25 35.2
2 -4 8 500.65 36.2
2 -4 8 516.85 34.1
-3 4 -8 746.03 48.5
3 -4 8 751.02 48.7
-4 4 -8 1365.26 78.49
4 -4 8 1197.78 77.89
-5 4 -8 73.99 16
5 -4 8 59.39 15.9
-6 4 -8 249.97 24.3
-6 4 -8 232.68 28.7
6 -4 8 202.28 28.8
-7 4 -8 370.86 37.3
-7 4 -8 321.57 34.5
7 -4 8 316.77 36.5
-8 4 -8 167.28 27.6
-8 4 -8 164.78 28.4
-8 4 -8 184.88 28.4
-9 4 -8 468.55 48.5
-9 4 -8 445.16 49.1
-10 4 -8 151.28 35.7
-10 4 -8 92.89 30.9
10 4 -9 65.59 32.9
-10 -4 9 -14.2 23.6
9 4 -9 -10.5 25.1
-9 -4 9 5.3 19.4
-9 -4 9 29 24
8 4 -9 22.7 20.6
-8 -4 9 27.8 17.7
-8 -4 9 25.9 16.6
7 4 -9 41.3 14.3
7 4 -9 48.1 18.8
-7 -4 9 68.59 18.1
-7 -4 9 14.8 14.4
6 4 -9 241.88 22.3
6 4 -9 213.38 26.2
-6 -4 9 180.58 24.6
-6 -4 9 214.28 24.7
5 4 -9 27 9.7
5 4 -9 31.5 13.6
-5 -4 9 37.7 12.8
-5 -4 9 30.8 11.9
4 4 -9 28.2 9.7
4 4 -9 20 10.9
-4 -4 9 35.6 11.5
3 4 -9 24 9.6
3 4 -9 14.3 7.6
-3 -4 9 16.6 10.1
-3 -4 9 29.9 10.6
2 4 -9 56.59 10.7
2 4 -9 60.19 11.5
1 4 -9 11.7 8.8
1 4 -9 27.2 8.9
-1 -4 9 11.7 9.6
0 4 -9 273.97 21.9
0 4 -9 259.67 22.9
0 -4 9 250.27 23.1
-1 4 -9 51.79 12.3
-1 4 -9 48.9 11.4
1 -4 9 29.1 11.9
-2 4 -9 25.1 10.7
-2 4 -9 16.8 9.9
2 -4 9 20.9 10
-3 4 -9 22.8 10.6
3 -4 9 21.2 10.8
-4 4 -9 134.29 20.1
4 -4 9 158.68 21.4
-5 4 -9 8.6 13.7
5 -4 9 19.3 14.1
-6 4 -9 37.2 17.3
6 -4 9 22 16
-7 4 -9 263.97 32.6
-7 4 -9 195.58 32.7
-7 4 -9 286.77 28.6
7 -4 9 211.18 34.3
-8 4 -9 61.89 25
-8 4 -9 57.39 17.3
-8 4 -9 42.2 23.9
-9 4 -9 113.69 47.4
-9 4 -9 84.99 28.6
-9 4 -9 104.79 24.4
-10 4 -9 -29 31.9
9 4 -10 25.4 28.4
-9 -4 10 15.2 21.9
8 4 -10 113.09 26.1
-8 -4 10 59.79 20.7
7 4 -10 432.06 41.4
-7 -4 10 389.96 36.8
-7 -4 10 393.46 36.3
6 4 -10 130.59 24.2
6 4 -10 142.89 20.4
-6 -4 10 159.58 25.1
-6 -4 10 127.29 21.9
5 4 -10 58.79 19.5
5 4 -10 69.69 14.1
-5 -4 10 75.49 15.8
-5 -4 10 52.69 15.8
4 4 -10 37.5 12.2
4 4 -10 18.4 10.1
-4 -4 10 22.7 13
-4 -4 10 14.6 12.4
3 4 -10 27.1 9.2
3 4 -10 26 10.9
-3 -4 10 31.8 11.8
2 4 -10 18.5 9.1
2 4 -10 17.2 9.4
-2 -4 10 3.9 10.8
1 4 -10 19.6 9.8
1 4 -10 -1 8.5
-1 -4 10 1.3 10.5
0 4 -10 21.3 10.4
0 4 -10 10.2 9.3
0 -4 10 31.4 12.5
-1 4 -10 35 11.6
-1 4 -10 72.89 13.3
1 -4 10 66.09 14.9
-2 4 -10 202.98 21.5
-2 4 -10 145.59 21
2 -4 10 199.88 20.7
2 -4 10 182.68 22.9
-3 4 -10 370.86 30.6
3 -4 10 369.16 30.6
-4 4 -10 148.29 22.3
4 -4 10 180.28 23.1
-5 4 -10 303.87 32
5 -4 10 261.97 30.2
-6 4 -10 115.89 22.8
6 -4 10 136.89 24.3
-7 4 -10 75.39 22.1
7 -4 10 53.59 22.2
-8 4 -10 304.37 40.6
-9 4 -10 86.89 30.1
9 4 -11 63.39 32
-9 -4 11 10.2 24.7
8 4 -11 55.19 21.9
8 4 -11 46.8 25.9
-8 -4 11 42.9 25
-8 -4 11 42.2 21
7 4 -11 40.6 21.5
-7 -4 11 59.49 20.9
-7 -4 11 -7.6 17.3
6 4 -11 27.1 17.9
6 4 -11 13.8 12.2
-6 -4 11 28.4 17.6
-6 -4 11 -1.1 16
5 4 -11 1.4 14.5
5 4 -11 11 11.6
-5 -4 11 -1.7 13.3
4 4 -11 -9.2 9.3
4 4 -11 7.6 12.5
-4 -4 11 -1.4 13.2
3 4 -11 42.5 11.8
3 4 -11 39.2 12.9
-3 -4 11 18.6 13.3
2 4 -11 104.89 16.6
2 4 -11 88.59 15.5
-2 -4 11 73.39 16.8
1 4 -11 37.8 12.2
1 4 -11 16.9 11.7
-1 -4 11 24 14.3
0 4 -11 27 11.2
0 4 -11 41 13.2
0 -4 11 39.3 14.3
-1 4 -11 98.19 17.1
-1 4 -11 118.79 19.4
1 -4 11 129.69 20.7
-2 4 -11 -5.6 11.8
-2 4 -11 15.2 11.8
2 -4 11 15.7 11
2 -4 11 3.9 13.4
-3 4 -11 133.59 21.1
3 -4 11 152.88 21.8
-4 4 -11 -5 14.3
4 -4 11 -7.2 12.9
-5 4 -11 -27.4 14.2
5 -4 11 -16.5 14.6
-6 4 -11 -0.1 18.6
-7 4 -11 78.29 24.5
7 -4 11 27.5 23.4
-8 4 -11 39.1 27.1
-8 4 -11 17.4 25.7
-9 4 -11 -7.2 32.1
8 4 -12 163.18 33.5
8 4 -12 239.58 32.1
7 4 -12 49.3 23.7
6 4 -12 25 20
-6 -4 12 65.79 20.1
5 4 -12 197.98 22.8
5 4 -12 179.38 27.4
-5 -4 12 235.18 28.3
4 4 -12 39.8 12.8
4 4 -12 10.3 14.6
-4 -4 12 33.6 16.6
3 4 -12 2 10.1
3 4 -12 14.5 12.4
-3 -4 12 -0.8 14.6
2 4 -12 -2.5 11
2 4 -12 12.3 14.8
-2 -4 12 -5.2 13.5
1 4 -12 107.29 17.8
1 4 -12 102.99 19.5
-1 -4 12 109.09 20.1
0 4 -12 4.4 11.8
0 4 -12 11.1 12.5
0 -4 12 15.1 14.5
-1 4 -12 97.59 19.3
-1 4 -12 129.99 22.1
1 -4 12 103.99 20.9
-2 4 -12 24.4 15.1
-2 4 -12 -10.9 14.9
2 -4 12 9.7 16.3
2 -4 12 1.1 12
-3 4 -12 36.4 15.4
-3 4 -12 29.9 16.3
3 -4 12 30.9 14
-4 4 -12 33.7 16.9
4 -4 12 12.2 15.3
-5 4 -12 117.39 22.7
5 -4 12 82.89 20.7
-6 4 -12 243.18 36.3
-7 4 -12 146.49 30
7 -4 12 89.39 27.7
-8 4 -12 99.69 32.2
8 4 -13 -42.3 28.7
8 4 -13 -29.1 30.1
7 4 -13 -32 16.9
7 4 -13 -2.5 25.6
6 4 -13 28 14.9
6 4 -13 42.1 22.2
5 4 -13 14.7 17.8
-5 -4 13 -20.4 18
4 4 -13 -28.6 14.5
-4 -4 13 8.6 17.6
3 4 -13 38.8 16.1
3 4 -13 44.8 14.8
-3 -4 13 43.3 19.2
2 4 -13 110.99 19.2
2 4 -13 131.29 21.3
-2 -4 13 94.39 20.8
1 4 -13 27.9 13.8
-1 -4 13 -2.9 16.1
0 4 -13 27.5 14
0 4 -13 29.8 17.7
0 -4 13 -12.2 16.5
-1 4 -13 117.39 21.1
-1 4 -13 112.39 19.4
1 -4 13 119.89 23.5
-2 4 -13 2.5 13.9
-2 4 -13 -14.1 14.6
2 -4 13 -1.5 17.7
2 -4 13 -1 12.5
-3 4 -13 15.9 15.4
-3 4 -13 4.1 15
3 -4 13 6.5 14.4
-4 4 -13 23.5 18.8
4 -4 13 28.8 17.1
-5 4 -13 31.7 21.6
5 -4 13 2.2 18.9
-6 4 -13 34.1 24.2
-7 4 -13 -12 24.5
7 -4 13 24.1 26.1
-8 4 -13 -37.5 30.5
7 4 -14 63.99 22.5
7 4 -14 29 30.9
6 4 -14 37.8 24.4
5 4 -14 34.5 21.2
5 4 -14 64.79 17.2
4 4 -14 163.38 27.5
4 4 -14 152.68 23
-4 -4 14 85.49 25.2
3 4 -14 181.58 24.5
3 4 -14 187.68 27
-3 -4 14 137.79 26.6
2 4 -14 19 15.1
2 4 -14 30.2 16.8
-2 -4 14 26.3 19.3
1 4 -14 141.89 23.8
1 4 -14 142.99 22.4
-1 -4 14 125.19 24.7
0 4 -14 17.9 15.9
0 4 -14 11.7 15
0 -4 14 -16 18.1
-1 4 -14 105.29 20.2
-1 4 -14 187.88 26.8
1 -4 14 99.19 24.7
-2 4 -14 427.86 41.5
-2 4 -14 477.55 39.4
2 -4 14 462.15 38.5
2 -4 14 413.16 43.8
-3 4 -14 36.3 21.1
-3 4 -14 26.8 18.4
3 -4 14 28.8 17.4
-4 4 -14 8.8 21.5
-4 4 -14 2.7 19.8
4 -4 14 2.2 18.1
-5 4 -14 73.49 25.3
5 -4 14 84.59 23.7
-6 4 -14 170.58 31.4
6 -4 14 169.68 38.5
-7 4 -14 183.68 38
7 -4 14 123.69 31.6
6 4 -15 6 19.2
6 4 -15 18.3 27.3
5 4 -15 -15.2 21.6
5 4 -15 15.6 18.8
4 4 -15 -0.2 16.4
4 4 -15 -34.6 20.4
3 4 -15 21.8 17.3
3 4 -15 5.7 18.6
2 4 -15 35.8 19
2 4 -15 76.59 21.2
-2 -4 15 66.49 24.9
1 4 -15 15.2 18.2
-1 -4 15 75.69 24.8
0 4 -15 -8.7 16.6
0 4 -15 44.2 18.8
0 -4 15 51.39 24.1
-1 4 -15 4.1 18
-1 4 -15 -1.7 18.5
1 -4 15 13.5 22.3
1 -4 15 7.4 16.6
-2 4 -15 18.6 19.1
-2 4 -15 33 21.2
-3 4 -15 3.8 19.5
-3 4 -15 -25.6 20.4
3 -4 15 -21.5 17.5
-4 4 -15 13.8 21
-4 4 -15 9.9 22.3
4 -4 15 10.6 21.4
-5 4 -15 8.9 27.2
-5 4 -15 -16.5 25.1
5 -4 15 37.2 30.8
-6 4 -15 -46.6 28.7
5 4 -16 180.78 34.9
5 4 -16 148.89 26.3
4 4 -16 167.48 31.6
4 4 -16 149.69 30.8
3 4 -16 121.49 23.2
3 4 -16 133.79 28.6
-3 -4 16 76.09 33.8
2 4 -16 158.78 25.2
2 4 -16 129.19 26
1 4 -16 124.79 25.7
1 4 -16 145.09 27.2
0 4 -16 82.19 21.7
0 4 -16 44.6 22
-1 4 -16 105.49 24.6
-1 4 -16 49.6 22.5
1 -4 16 69.69 22.4
-2 4 -16 72.29 26.1
-2 4 -16 51.29 23.9
2 -4 16 28.2 20.7
-3 4 -16 62.99 24.7
-3 4 -16 99.39 27.5
-4 4 -16 99.39 29.4
-4 4 -16 35.8 28.2
4 -4 16 30.2 35.9
-5 4 -16 67.39 29.4
-5 4 -16 29.6 31.2
3 4 -17 -29.8 22.3
3 4 -17 8.5 25.7
2 4 -17 25.9 23.9
2 4 -17 68.19 26.8
1 4 -17 18.4 24.8
1 4 -17 45.3 23.4
0 4 -17 42.1 25.9
0 4 -17 34.8 23.1
-1 4 -17 6.3 24.8
-1 4 -17 -19.6 23.9
1 -4 17 4.8 22.6
-2 4 -17 1.3 25.8
-2 4 -17 40 25.5
2 -4 17 -4.5 22.8
-3 4 -17 47.7 29.9
-3 4 -17 -25.7 25.2
3 -4 17 -17.2 28
-2 -5 -17 53.29 27
-1 -5 -17 24.2 24.9
0 -5 -17 94.69 26.4
-1 5 17 23.2 15.3
1 -5 -17 21 23.8
1 -5 -17 29.7 23.8
-2 5 17 -1.9 20.6
2 -5 -17 7.2 23.3
2 -5 -17 33 29.6
-3 5 17 44.9 27.1
3 -5 -17 33.1 25
-4 -5 -16 33.5 27.5
-3 -5 -16 220.88 35.3
-2 -5 -16 167.28 30.5
-1 -5 -16 220.88 33.1
0 -5 -16 120.39 24.6
-1 5 16 52.09 15.5
1 -5 -16 5.1 18.9
1 -5 -16 24.1 19.9
-2 5 16 136.49 25.1
2 -5 -16 191.98 32.1
2 -5 -16 119.59 26
-3 5 16 57.09 25.5
3 -5 -16 72.29 22.5
-4 5 16 82.79 31.2
-4 5 16 93.89 27.8
4 -5 -16 104.89 27.5
-5 5 16 39 27.2
-5 5 16 14.3 33.5
5 -5 -16 14.6 24.6
-6 -5 -15 19.2 29
-5 -5 -15 -38.7 23.9
-4 -5 -15 15 24.3
-3 -5 -15 -29.1 19.6
-2 -5 -15 17.4 19.3
-1 -5 -15 26.4 18.9
0 -5 -15 30.9 17.9
-1 5 15 -5.1 12.7
1 -5 -15 15.1 17.5
-2 5 15 52.89 19.8
2 -5 -15 98.29 21.4
-3 5 15 61.99 20.4
-3 5 15 42.2 22
3 -5 -15 3.2 16.4
3 -5 -15 4.4 18.2
-4 5 15 38.1 26.2
-4 5 15 13.7 20.8
4 -5 -15 12.2 19.2
-5 5 15 90.79 34.2
-5 5 15 12.3 23.4
5 -5 -15 -1 21.3
-6 5 15 43.3 37.7
-6 5 15 74.69 26.7
6 -5 -15 12 23.9
-7 -5 -14 165.68 36.6
-6 -5 -14 208.38 38.7
-5 -5 -14 226.08 35.4
-4 -5 -14 476.55 44.3
-3 -5 -14 210.88 30.9
-2 -5 -14 443.66 39.3
-1 -5 -14 292.57 30.4
0 5 14 96.99 12.6
0 -5 -14 131.79 21.6
-1 5 14 224.38 25.2
1 -5 -14 300.17 29.6
-2 5 14 194.68 27.7
2 -5 -14 186.08 26.1
2 -5 -14 186.28 28.4
-3 5 14 45.2 17.3
-3 5 14 40.4 20.8
3 -5 -14 36.8 15.5
3 -5 -14 49.1 18.3
-4 5 14 86.09 21.1
-4 5 14 94.89 26.7
4 -5 -14 80.39 16
4 -5 -14 86.29 19.7
-5 5 14 37.1 19.5
5 -5 -14 66.89 20.1
-6 5 14 94.09 24.3
-6 5 14 84.39 35.7
6 -5 -14 64.39 25.1
-7 5 14 88.39 41.4
-7 5 14 39.4 25.6
7 -5 -14 78.09 27.3
-7 -5 -13 -39.3 29.4
-6 -5 -13 -8.1 25
-5 -5 -13 -0.1 21.6
-4 -5 -13 35 19.5
-3 -5 -13 51.99 17.5
-2 -5 -13 1 15.5
-1 -5 -13 22 24.7
0 5 13 175.08 15.9
0 -5 -13 197.78 24.7
-1 5 13 97.29 15.8
1 -5 -13 81.79 17.6
-2 5 13 44.9 15.8
-2 5 13 59.99 15.1
-3 5 13 14.3 17
-3 5 13 56.29 17.6
3 -5 -13 13.5 13.8
-4 5 13 10.6 19.9
-4 5 13 15.4 15.2
4 -5 -13 29.6 11.4
4 -5 -13 1.3 14.1
-5 5 13 -18.4 22.2
-5 5 13 8.2 16.2
5 -5 -13 -0.6 17.2
5 -5 -13 5.3 9.1
-6 5 13 18.6 28.4
-6 5 13 21.2 18.8
6 -5 -13 -35.2 18.6
-7 5 13 -9.8 20.8
-7 5 13 -4.9 32.4
7 -5 -13 -29.4 21.8
-8 5 13 -58.89 38.4
-8 5 13 -34.7 24.2
8 -5 -13 -6.9 27.9
-8 -5 -12 53.99 32.8
-7 -5 -12 286.57 41.3
-6 -5 -12 393.16 43.9
-5 -5 -12 338.57 38.4
-4 -5 -12 473.65 42.1
-3 -5 -12 333.77 33.9
-2 -5 -12 675.83 47.9
-1 -5 -12 567.64 41.7
0 5 12 2110.89 124.39
0 -5 -12 2375.26 129.89
-1 5 12 868.41 55.49
1 -5 -12 908.21 57.39
-2 5 12 963.6 60.99
-2 5 12 982.2 63.39
2 -5 -12 977 61.99
-3 5 12 477.25 34.7
-3 5 12 437.66 40.2
3 -5 -12 446.66 33.3
3 -5 -12 462.65 34.6
-4 5 12 121.19 20.8
-4 5 12 146.19 26.8
4 -5 -12 100.59 16
4 -5 -12 127.79 21.6
-5 5 12 167.38 31.1
-5 5 12 138.59 22.9
5 -5 -12 130.19 21.3
5 -5 -12 94.19 14.5
-6 5 12 248.08 43.5
-6 5 12 165.78 27.7
6 -5 -12 169.68 26.9
-7 5 12 153.98 25.5
-7 5 12 209.18 41.6
7 -5 -12 199.98 30.1
-8 5 12 102.19 25.1
-8 5 12 81.49 41.9
8 -5 -12 74.09 28.1
-7 -5 -11 109.69 28.9
-6 -5 -11 5.2 20.5
-5 -5 -11 60.39 20.1
-4 -5 -11 75.79 18.7
-3 -5 -11 44.6 14.4
-2 -5 -11 160.08 21.8
-1 -5 -11 -0.1 9.8
0 5 11 361.96 24.5
0 -5 -11 386.66 29.6
-1 5 11 5.6 9.3
1 -5 -11 -0.4 8.7
-2 5 11 37.3 13.5
-2 5 11 74.79 13.4
2 -5 -11 66.39 13.3
-3 5 11 16 10.8
-3 5 11 17.8 15.2
3 -5 -11 6.6 10.5
3 -5 -11 -2.1 8.6
-4 5 11 148.39 19
-4 5 11 146.59 25.8
4 -5 -11 143.49 19.3
4 -5 -11 147.49 15.7
-5 5 11 10.1 20.5
5 -5 -11 21.2 7.4
5 -5 -11 30.2 14.8
-6 5 11 -11.7 38.6
-6 5 11 -0.4 13.1
6 -5 -11 -7.6 15.3
-7 5 11 7.7 29
-7 5 11 -8.6 15.5
7 -5 -11 10.8 20.2
-8 5 11 31.8 19.9
-8 5 11 68.99 38.4
8 -5 -11 81.39 25.6
-9 5 11 37.4 41.1
-9 5 11 -1.3 23.5
9 -5 -11 -22.3 30.3
-8 -5 -10 -23.3 24.9
-5 -5 -10 535.65 43.5
-4 -5 -10 229.18 27.5
-3 -5 -10 244.58 25.7
-2 -5 -10 773.42 50.79
-1 -5 -10 625.74 42.3
0 5 10 462.75 30
0 -5 -10 510.05 33.9
-1 5 10 385.66 29.8
1 -5 -10 462.15 30.9
-2 5 10 223.18 23.4
-2 5 10 238.48 20.1
2 -5 -10 193.28 19.9
-3 5 10 164.88 17.6
-3 5 10 149.29 23.6
3 -5 -10 165.48 18.7
3 -5 -10 162.78 16.1
-4 5 10 178.28 18.9
-4 5 10 171.48 28.1
4 -5 -10 121.79 18.9
4 -5 -10 159.08 14.7
-5 5 10 59.69 22.1
-5 5 10 51.79 12.6
5 -5 -10 43.4 13.2
5 -5 -10 26.7 6.7
-6 5 10 327.87 40.4
-6 5 10 297.57 27.4
6 -5 -10 313.87 31.6
-7 5 10 186.68 37.3
-7 5 10 147.99 24.4
7 -5 -10 193.78 28.6
-8 5 10 86.89 35
-8 5 10 43.6 19.3
8 -5 -10 61.99 23.8
-9 5 10 26.2 20.6
-9 5 10 91.59 38.1
9 -5 -10 41.2 28.6
-9 -5 -9 -42.2 29.6
-8 -5 -9 24.7 11.8
-8 -5 -9 55.19 24.9
-3 -5 -9 71.79 15
-2 -5 -9 -9 9.2
-1 -5 -9 7.1 8.2
0 5 9 -0.6 4.6
0 -5 -9 -0.9 7.3
-1 5 9 20.1 8.4
1 -5 -9 21.1 7.7
-2 5 9 8.2 9.3
-2 5 9 22.5 7.7
2 -5 -9 12.8 7.6
-3 5 9 3.9 11.2
-3 5 9 14.8 8
3 -5 -9 6.9 6.1
3 -5 -9 6.9 8.2
-4 5 9 16.9 9.3
-4 5 9 23.8 14.5
4 -5 -9 30.7 6.4
4 -5 -9 21.7 9.7
-5 5 9 461.05 42.8
-5 5 9 424.26 31.2
5 -5 -9 430.26 32.9
-6 5 9 93.99 17.8
-6 5 9 69.39 24.5
6 -5 -9 100.69 18.5
-7 5 9 20.9 13.1
-7 5 9 35.5 25.3
7 -5 -9 5.5 16.2
-8 5 9 -6.9 15.3
-8 5 9 -9.6 27.6
8 -5 -9 4.3 19.1
-9 5 9 47.2 35.2
-9 5 9 24.9 20.7
9 -5 -9 -13.3 25.1
-10 5 9 -18.9 40.3
-10 5 9 -7.5 22.8
10 -5 -9 54.19 32.2
-9 -5 -8 -31.1 25
-9 -5 -8 14.5 16.1
-8 -5 -8 31.1 23.3
-7 -5 -8 -7.3 9
-6 -5 -8 2.2 6.3
-2 -5 -8 224.28 20.3
-1 -5 -8 1602.54 92.69
0 5 8 982.9 59.39
0 -5 -8 1102.89 61.99
-1 5 8 720.83 46.8
1 -5 -8 802.02 46.6
-2 5 8 715.23 45.3
-2 5 8 668.53 40.9
2 -5 -8 649.34 41.7
-3 5 8 382.56 25.9
-3 5 8 356.06 31.1
3 -5 -8 371.46 24.9
3 -5 -8 417.36 27.2
-4 5 8 663.03 51.69
-4 5 8 737.93 44.5
4 -5 -8 754.32 41.8
4 -5 -8 705.53 45.7
-5 5 8 630.24 50.19
-5 5 8 643.94 40.1
5 -5 -8 620.04 35.5
5 -5 -8 592.14 42.3
-6 5 8 63.49 21.6
-6 5 8 27 11
6 -5 -8 27 14
-7 5 8 268.47 39.1
-7 5 8 218.88 24
7 -5 -8 268.87 30.6
-8 5 8 424.86 53.19
-8 5 8 372.26 33.6
8 -5 -8 388.46 39.9
-9 5 8 216.68 42.7
-9 5 8 198.18 29.5
9 -5 -8 212.38 34
-10 5 8 222.78 35.3
-10 5 8 148.19 46
10 -5 -8 304.17 48.2
-9 -5 -7 -1.8 25.2
-8 -5 -7 87.19 16.8
-8 -5 -7 91.39 24.7
-7 -5 -7 127.89 19.7
-7 -5 -7 203.38 28
-6 -5 -7 13.2 8.3
-5 -5 -7 17.2 6
-4 -5 -7 316.07 18.9
-1 -5 -7 3.1 5.8
0 5 7 6.8 4.3
0 -5 -7 8.6 5.9
-1 5 7 -1.2 5.8
1 -5 -7 -2 5
-2 5 7 11.1 7.9
-2 5 7 8.4 5.1
2 -5 -7 6.7 5.5
-3 5 7 -0.1 9.8
-3 5 7 6.3 5.5
3 -5 -7 2.8 3.7
3 -5 -7 2.5 5.4
-4 5 7 351.66 32
-4 5 7 364.06 24.6
4 -5 -7 355.66 26
4 -5 -7 367.46 21.5
-5 5 7 12.6 14
-5 5 7 3 7.1
5 -5 -7 15.6 9.7
-6 5 7 195.68 19.7
-6 5 7 226.38 34.3
6 -5 -7 228.38 23.1
-7 5 7 33.5 11.7
7 -5 -7 -8 23.8
-8 5 7 52.49 26.9
-8 5 7 54.69 15
8 -5 -7 37.9 19.3
-9 5 7 49.9 17.2
-9 5 7 5.2 28.9
9 -5 -7 6.4 21.6
-10 5 7 12.2 19.3
-10 5 7 -5.3 35.4
10 -5 -7 -35.3 25.6
-10 -5 -6 49 28.7
-9 -5 -6 -25.5 23.4
-9 -5 -6 1.9 17.4
-8 -5 -6 89.59 18
-8 -5 -6 93.09 24.2
-7 -5 -6 90.09 16.1
-7 -5 -6 71.49 19
-6 -5 -6 218.58 20.8
-5 -5 -6 98.09 12.8
-4 -5 -6 183.08 14.2
-3 -5 -6 1098.19 60.99
-1 -5 -6 822.02 48.8
0 5 6 283.17 19
0 -5 -6 299.17 19.8
-1 5 6 1186.08 73.39
1 -5 -6 1351.56 72.29
-2 5 6 1314.87 73.39
2 -5 -6 1298.77 74.49
-3 5 6 2222.28 124.39
-3 5 6 2062.49 118.29
3 -5 -6 2071.19 117.19
3 -5 -6 2162.78 119.59
-4 5 6 1651.13 97.29
-4 5 6 1539.25 89.49
4 -5 -6 1636.44 86.59
4 -5 -6 1507.15 91.09
-5 5 6 1483.95 88.59
-5 5 6 1585.44 98.09
5 -5 -6 1599.04 91.39
-6 5 6 1373.46 81.79
-6 5 6 1447.26 92.89
6 -5 -6 1411.86 85.29
-7 5 6 720.43 59.29
7 -5 -6 706.13 50.89
-8 5 6 330.67 44.2
-8 5 6 346.97 29.5
8 -5 -6 339.97 34.3
-9 5 6 841.52 70.79
-9 5 6 727.83 51.79
9 -5 -6 724.73 59.69
-10 5 6 394.96 59.99
-10 5 6 461.85 39.5
10 -5 -6 332.97 46
-11 5 6 163.78 49.3
11 -5 -6 208.98 41.1
-10 -5 -5 22.3 28.3
-10 -5 -5 43.1 28.3
-9 -5 -5 27.1 17.6
-9 -5 -5 34.9 23.2
-8 -5 -5 8.2 14.9
-8 -5 -5 -1.1 17.3
-7 -5 -5 -4.2 11
-7 -5 -5 3.7 14.5
-6 -5 -5 53.59 11.8
-2 -5 -5 41.8 4.8
-1 -5 -5 3.1 3
0 5 5 348.87 22
0 -5 -5 349.27 21.9
-1 5 5 10.7 5.5
1 -5 -5 15.5 4.2
1 -5 -5 3.9 5.4
-2 5 5 12.4 6.4
-2 5 5 7.9 3.3
2 -5 -5 8 4
-3 5 5 397.66 30.8
-3 5 5 390.66 24.2
3 -5 -5 392.46 22.5
3 -5 -5 384.66 25.4
-4 5 5 8 10.3
-4 5 5 16.7 5.3
4 -5 -5 12.1 6.7
-5 5 5 12.4 6.5
-5 5 5 4.6 12.3
5 -5 -5 -1 8
-6 5 5 76.79 13.1
-6 5 5 80.79 20.8
6 -5 -5 101.69 16.9
-7 5 5 90.19 14.1
-7 5 5 133.99 26.9
7 -5 -5 55.09 16.8
-8 5 5 -19.5 20.3
-8 5 5 1.3 11.1
8 -5 -5 24.2 15.2
-9 5 5 64.79 29.6
-9 5 5 98.49 18.5
9 -5 -5 18.9 21
-10 5 5 6.6 30.4
-10 5 5 23.4 19
10 -5 -5 40.9 26.3
-11 5 5 26.2 39.8
11 -5 -5 23.8 31.4
-10 -5 -4 56.69 24.5
-10 -5 -4 52.09 26.1
-9 -5 -4 48.2 20.8
-9 -5 -4 -5 18
-8 -5 -4 2.8 16.3
-8 -5 -4 9.9 14.6
-7 -5 -4 38 14.5
-6 -5 -4 5.3 10.8
-5 -5 -4 44.9 11.6
-1 -5 -4 526.95 31.1
0 5 4 26 4.8
0 -5 -4 22 5.2
-1 5 4 29.4 6.3
1 -5 -4 19.2 5.9
1 -5 -4 12.2 3.1
-2 5 4 -0.9 5.9
-2 5 4 2.1 2.1
2 -5 -4 16.1 6.9
2 -5 -4 5.3 3.1
-3 5 4 1543.05 90.29
-3 5 4 1565.44 84.59
3 -5 -4 1590.94 85.79
3 -5 -4 1347.57 89.39
-4 5 4 235.08 25.6
-4 5 4 269.97 17.9
4 -5 -4 262.57 19.7
-5 5 4 927.91 61.79
-5 5 4 948.71 53.59
5 -5 -4 846.12 55.59
-6 5 4 364.16 26.2
-6 5 4 375.66 35.6
6 -5 -4 355.26 29.3
-7 5 4 137.89 26.3
-7 5 4 138.39 17.6
7 -5 -4 198.88 21.9
-8 5 4 185.98 22.3
-8 5 4 192.58 35.1
8 -5 -4 186.58 26.5
-9 5 4 200.58 37.7
-9 5 4 228.18 26.7
9 -5 -4 203.78 31.4
-10 5 4 133.09 39.1
-10 5 4 187.48 28.7
10 -5 -4 137.19 31.7
-11 5 4 85.29 31.4
-11 5 4 175.38 44.2
11 -5 -4 140.39 36.2
-11 -5 -3 1.4 29.3
-10 -5 -3 16.1 23.7
-10 -5 -3 -5.1 21.1
-9 -5 -3 106.39 25.1
-9 -5 -3 145.69 27.1
-8 -5 -3 127.89 22.2
-7 -5 -3 6 13.3
-6 -5 -3 162.08 20
-5 -5 -3 163.48 18.3
-4 -5 -3 122.09 14.1
-1 -5 -3 161.68 11.6
0 5 3 128.09 10.1
0 -5 -3 118.69 10.5
-1 5 3 9.6 4.3
1 -5 -3 -1.4 4.3
1 -5 -3 5.3 2.2
-2 5 3 28.3 7.5
-2 5 3 33.6 3.3
2 -5 -3 31.3 7.8
2 -5 -3 33 3.5
2 -5 -3 36.1 4.6
-3 5 3 15.5 7.9
-3 5 3 5 2.9
3 -5 -3 6.5 7.4
3 -5 -3 1.6 3.8
-4 5 3 -1.5 8.4
-4 5 3 -3.9 3.7
4 -5 -3 -1.7 5.1
4 -5 -3 -6 8.9
-5 5 3 48.1 8.2
-5 5 3 51.69 15.3
5 -5 -3 35.5 9.7
-6 5 3 101.59 20
-6 5 3 79.09 12.8
6 -5 -3 96.39 15.3
-7 5 3 15 9.7
-7 5 3 11.2 2.6
-7 5 3 -16.7 14.9
7 -5 -3 18.7 12.5
-8 5 3 90.79 7.9
-8 5 3 97.89 16.9
-8 5 3 74.09 29.4
-9 5 3 107.49 18.7
-9 5 3 73.99 27.5
9 -5 -3 57.69 22.6
-10 5 3 -19.3 27.3
-10 5 3 44.9 18.7
10 -5 -3 40.8 24.6
-11 5 3 -7.2 33.8
-11 5 3 5.8 26.2
11 -5 -3 5.5 30.9
-11 -5 -2 150.78 33.1
-11 -5 -2 114.99 34
-10 -5 -2 104.29 23.9
-10 -5 -2 54.39 24.9
-10 -5 -2 100.79 26.8
-9 -5 -2 17.6 18.1
-9 -5 -2 37.2 19.2
-9 -5 -2 16.1 16.8
-8 -5 -2 71.79 19.6
-8 -5 -2 71.99 16.9
-7 -5 -2 90.19 17
-6 -5 -2 65.09 13.7
-5 -5 -2 158.68 17
-4 -5 -2 179.18 15.9
-3 -5 -2 9 5.1
0 -5 -2 1439.66 81.69
-1 5 2 225.18 16.8
1 -5 -2 238.98 17.3
1 -5 -2 224.98 14.2
-2 5 2 464.95 29
2 -5 -2 438.26 25
2 -5 -2 355.06 28.4
2 -5 -2 437.86 24.2
-3 5 2 122.49 9.2
-3 5 2 119.09 14.5
3 -5 -2 135.19 11
3 -5 -2 148.69 16.3
-4 5 2 1114.19 67.59
-4 5 2 1117.99 61.29
4 -5 -2 1121.39 63.29
4 -5 -2 917.21 66.39
-5 5 2 564.54 29.4
-5 5 2 556.54 40.4
-5 5 2 515.85 29.3
-5 5 2 483.45 32.9
5 -5 -2 539.55 35.6
5 -5 -2 493.05 39.8
-6 5 2 347.17 31.9
-6 5 2 327.47 23.4
-6 5 2 283.87 17.9
6 -5 -2 283.77 25.6
-7 5 2 820.02 59.89
-7 5 2 768.82 45.3
-7 5 2 810.62 50.69
7 -5 -2 811.92 54.79
-8 5 2 401.66 32.4
-8 5 2 411.06 49.1
-8 5 2 400.36 25.1
-9 5 2 260.97 39.5
-9 5 2 215.78 17.3
-9 5 2 213.38 27.1
9 -5 -2 262.17 34.9
-10 5 2 153.58 26.2
-10 5 2 178.68 38
-10 5 2 164.18 16.9
10 -5 -2 229.78 37.8
-11 5 2 229.18 44.8
-11 5 2 170.78 35
-11 5 2 168.68 18.7
11 -5 -2 248.98 39.3
-11 -5 -1 -35.4 27.3
-11 -5 -1 48.7 22.6
-10 -5 -1 -5.2 23.7
-10 -5 -1 5.1 19.7
-10 -5 -1 -0.5 18.9
-9 -5 -1 22.3 17.6
-9 -5 -1 30.1 16.1
-8 -5 -1 8.4 12.9
-8 -5 -1 11.2 14.9
-7 -5 -1 7.5 12.5
-7 -5 -1 -2.6 10.5
-6 -5 -1 160.88 19.1
-6 -5 -1 169.98 18.1
-5 -5 -1 251.47 21.5
-5 -5 -1 278.87 22.8
-4 -5 -1 62.89 10.9
-4 -5 -1 79.39 11.1
-3 -5 -1 207.38 15.8
-3 -5 -1 211.38 16.2
-2 -5 -1 38.4 6.5
-2 -5 -1 40.8 5.7
-1 -5 -1 985.5 56.59
0 -5 -1 9.1 4.2
-1 5 1 252.17 16.7
-1 5 1 188.08 14
1 -5 -1 244.28 14.1
1 -5 -1 223.28 17
-2 5 1 481.85 31.3
-2 5 1 461.75 26.5
2 -5 -1 521.65 27.6
2 -5 -1 448.26 28
2 -5 -1 487.35 32.2
-3 5 1 925.31 56.29
-3 5 1 937.91 50.29
-3 5 1 853.21 51.19
3 -5 -1 967.3 53.09
3 -5 -1 853.31 56.29
-4 5 1 110.49 9.9
-4 5 1 91.89 7.9
-4 5 1 91.59 14.7
4 -5 -1 105.29 12.1
4 -5 -1 79.19 14.9
-5 5 1 16.3 6.3
-5 5 1 17.2 9.8
5 -5 -1 9.3 7.8
5 -5 -1 8.8 11.2
-6 5 1 20.6 8
-6 5 1 17.7 13.4
6 -5 -1 28 11.2
-7 5 1 54.79 17.5
-7 5 1 54.99 12.3
7 -5 -1 54.99 15
-8 5 1 12.8 18.9
-8 5 1 10.6 11.7
8 -5 -1 22.8 16.6
-9 5 1 19.2 8.9
-9 5 1 35.5 15.9
-9 5 1 39.1 23.4
9 -5 -1 51.29 19.5
-10 5 1 75.39 19.8
-10 5 1 37 11.6
-10 5 1 85.29 31.2
10 -5 -1 47.7 24.8
-11 5 1 3 12.1
-11 -5 0 76.79 25
-11 -5 0 55.19 31.6
-10 -5 0 75.59 24.5
-10 -5 0 103.39 23.4
-9 -5 0 168.78 27.3
-9 -5 0 171.28 29
-8 -5 0 322.37 31.4
-8 -5 0 375.66 30.7
-7 -5 0 183.38 22.5
-7 -5 0 227.18 22.3
-6 -5 0 476.05 34.1
-6 -5 0 511.95 36.1
5 5 0 24.7 8.2
-5 -5 0 26.8 8.3
-5 -5 0 31.1 9.4
4 5 0 137.49 13.4
-4 -5 0 131.89 13.6
-4 -5 0 140.39 13.7
-3 -5 0 14.3 5.2
-3 -5 0 12.5 5.2
-2 -5 0 176.08 13.3
-2 -5 0 166.48 12.3
1 5 0 475.25 29.9
-1 -5 0 512.65 29.8
-1 -5 0 486.75 28.1
0 5 0 10.5 2.9
0 -5 0 11.5 2.9
0 -5 0 12.7 4.3
-1 5 0 477.55 28
-1 5 0 504.05 30.4
1 -5 0 465.75 27.1
1 -5 0 457.85 30.5
1 -5 0 493.55 28.1
-2 5 0 176.38 14.9
-2 5 0 167.68 10.7
-2 5 0 173.78 11.2
2 -5 0 168.28 11.6
2 -5 0 165.68 12
2 -5 0 176.38 15.6
-3 5 0 9.4 6.3
-3 5 0 15.9 4.8
-3 5 0 8.3 3.1
-3 5 0 11.9 4.4
3 -5 0 9.3 5.1
3 -5 0 9 7.2
-4 5 0 131.09 10.4
-4 5 0 135.19 12.2
-4 5 0 136.59 16.1
4 -5 0 151.58 14.2
4 -5 0 133.39 17.1
-5 5 0 21 7.6
-5 5 0 25.8 10.7
5 -5 0 36.5 9.6
5 -5 0 9.7 11.2
-6 5 0 519.05 32.3
-6 5 0 455.55 37.7
6 -5 0 347.07 36.8
6 -5 0 472.55 34.5
-7 5 0 190.38 20.5
-7 5 0 175.98 26.8
7 -5 0 191.28 24.1
-8 5 0 340.77 38.2
-8 5 0 349.57 30.8
-9 5 0 236.08 37.1
-9 5 0 216.98 28.4
9 -5 0 175.78 30.1
-10 5 0 122.49 23
-10 5 0 71.99 15
-10 5 0 101.19 29.8
-11 5 0 138.49 38.4
-11 5 0 87.29 17.8
-11 -5 1 -18.4 20
-11 -5 1 9.1 31.6
-10 -5 1 41.9 18.4
-10 -5 1 55.09 24.6
-9 -5 1 16.4 14.3
-9 -5 1 44.7 17.5
8 5 -1 22.8 15.2
-8 -5 1 7.8 11.2
-8 -5 1 1.9 12.7
7 5 -1 50.89 14
-7 -5 1 74.89 15
-7 -5 1 50.69 12.4
6 5 -1 34.5 11.1
-6 -5 1 22.5 10.2
-6 -5 1 14.3 8.6
5 5 -1 10.4 8.3
-5 -5 1 19.6 7.4
-5 -5 1 16.5 8.4
4 5 -1 94.59 12.3
-4 -5 1 124.39 12.6
-4 -5 1 132.09 12.8
3 5 -1 913.91 55.29
3 5 -1 924.21 54.39
-3 -5 1 954.9 54.89
-3 -5 1 935.51 54.59
2 5 -1 496.45 28.9
2 5 -1 442.66 29.9
-2 -5 1 498.15 29.9
-2 -5 1 489.05 29.1
1 5 -1 250.77 16.1
1 5 -1 192.98 14.3
-1 -5 1 232.48 15.7
-1 -5 1 248.48 14.5
0 5 -1 8.6 3.4
0 -5 1 11.2 3.3
0 -5 1 8.6 2.2
-1 5 -1 1078.09 60.79
-1 5 -1 1052.99 57.29
-1 5 -1 996.8 58.49
-1 5 -1 1054.69 57.09
1 -5 1 994.7 59.09
1 -5 1 1026.1 60.79
1 -5 1 1062.59 58.19
-2 5 -1 46.2 8
-2 5 -1 47.8 5.4
-2 5 -1 42.7 5.2
-2 5 -1 29.6 5
2 -5 1 34.9 8
-3 5 -1 193.68 13.8
-3 5 -1 190.48 14.5
-3 5 -1 204.48 17.6
-3 5 -1 220.08 15.1
3 -5 1 198.18 15.7
3 -5 1 201.08 19.1
-4 5 -1 73.99 12.6
-4 5 -1 69.39 9.9
4 -5 1 61.09 12.7
4 -5 1 71.19 10.5
-5 5 -1 251.47 23.8
-5 5 -1 259.97 20.2
5 -5 1 240.48 21.1
5 -5 1 225.28 24.8
-6 5 -1 169.68 22.1
-6 5 -1 162.98 17.6
6 -5 1 150.78 19.1
-7 5 -1 15.7 15
-8 5 -1 -8.9 15.5
-8 5 -1 19 12.7
-9 5 -1 0.9 16.2
-9 5 -1 22.8 20.5
-10 5 -1 26.1 25.1
-10 5 -1 26.6 19.8
-11 5 -1 -5.1 29.2
-11 -5 2 234.48 36.4
10 5 -2 220.98 34.9
-10 -5 2 194.48 30.6
9 5 -2 209.98 33.4
-9 -5 2 254.77 30.9
-9 -5 2 238.38 26.1
8 5 -2 481.55 41.1
-8 -5 2 477.45 38.7
-8 -5 2 477.65 35.6
7 5 -2 827.32 55.49
-7 -5 2 768.42 51.39
-7 -5 2 851.91 54.29
6 5 -2 311.17 26.7
-6 -5 2 327.77 24.4
-6 -5 2 299.57 25.5
5 5 -2 583.64 38.7
-5 -5 2 577.44 37.1
-5 -5 2 564.24 37.7
4 5 -2 1116.99 65.49
4 5 -2 1148.79 65.49
-4 -5 2 1151.28 65.09
-4 -5 2 996 64.29
3 5 -2 138.69 12.2
3 5 -2 112.49 12
-3 -5 2 121.89 11.4
-3 -5 2 138.49 12.1
2 5 -2 456.95 27.9
2 5 -2 477.35 28.9
-2 -5 2 442.16 27.8
-2 -5 2 454.75 28.6
1 5 -2 227.48 15.4
1 5 -2 225.88 14.2
-1 -5 2 209.38 14.3
-1 -5 2 215.48 15.4
0 5 -2 1778.82 96.59
0 5 -2 1731.63 97.89
0 -5 2 1751.02 98.29
0 -5 2 1752.82 97.09
-1 5 -2 99.89 7.9
-1 5 -2 117.59 9.1
1 -5 2 114.69 9.1
1 -5 2 107.29 9.5
1 -5 2 113.09 11.2
-2 5 -2 60.79 8.3
-2 5 -2 60.99 6.9
-2 5 -2 66.29 9.1
-2 5 -2 62.09 7
2 -5 2 62.09 10.2
2 -5 2 62.39 8.3
-3 5 -2 9.4 4.6
-3 5 -2 19.8 6.8
-3 5 -2 20.9 5.6
-3 5 -2 18.8 5.6
3 -5 2 12.7 7.6
-4 5 -2 193.68 16.8
-4 5 -2 196.68 16.7
-4 5 -2 189.78 18.3
4 -5 2 169.58 19.7
-5 5 -2 130.49 17.5
-5 5 -2 151.38 16.1
5 -5 2 114.09 19
-6 5 -2 80.09 13.4
-6 5 -2 48.4 14.6
-7 5 -2 75.19 15
-7 5 -2 76.49 19.4
7 -5 2 45.4 17.9
-8 5 -2 100.49 22.7
-8 5 -2 109.99 19
-9 5 -2 -4.6 16.4
-9 5 -2 18.1 22.1
-10 5 -2 49.9 23.2
-10 5 -2 100.39 27.5
-11 5 -2 76.09 34.9
11 5 -3 27.2 30.7
-11 -5 3 13.7 19.6
10 5 -3 28.4 26.6
-10 -5 3 13.9 17.7
9 5 -3 90.49 23.4
-9 -5 3 72.59 16.9
-9 -5 3 65.99 19.2
8 5 -3 114.89 21.6
-8 -5 3 51.69 16.9
-8 -5 3 104.59 17.3
7 5 -3 -9 12.2
-7 -5 3 3.3 11.3
-7 -5 3 -2.1 8.9
6 5 -3 93.59 15.8
-6 -5 3 90.19 14.4
5 5 -3 50.89 11.5
5 5 -3 37.2 9.6
-5 -5 3 52.39 10.8
-5 -5 3 43.9 9.2
4 5 -3 5.3 5.8
4 5 -3 14.3 6.5
-4 -5 3 4.3 5.7
-4 -5 3 10.8 6
3 5 -3 6.8 5.4
3 5 -3 14.6 5.7
-3 -5 3 2.8 4.8
-3 -5 3 8.5 5.3
2 5 -3 45.8 7.4
2 5 -3 44.1 6.4
-2 -5 3 34.7 6.2
-2 -5 3 28.7 6.3
1 5 -3 1.7 3
1 5 -3 6.4 4
-1 -5 3 5.5 4.1
-1 -5 3 11.7 3.8
0 5 -3 111.69 9.8
0 5 -3 116.99 8.9
0 -5 3 104.49 10
0 -5 3 134.59 11
-1 5 -3 143.69 10.8
-1 5 -3 154.98 11.8
1 -5 3 152.78 13.7
1 -5 3 141.79 12.3
1 -5 3 144.19 11.8
-2 5 -3 239.98 16.6
-2 5 -3 245.78 18.5
-2 5 -3 227.88 16.7
2 -5 3 233.18 19.1
2 -5 3 231.98 17.4
-3 5 -3 59.99 8.7
-3 5 -3 77.79 10.1
-3 5 -3 63.49 10.3
-3 5 -3 56.69 8.6
3 -5 3 70.19 12.6
-4 5 -3 109.39 12.9
-4 5 -3 131.79 14.9
-4 5 -3 120.89 14
4 -5 3 81.59 15.9
-5 5 -3 151.68 18
-5 5 -3 118.89 16.5
-5 5 -3 144.79 16.2
5 -5 3 141.49 21.3
-6 5 -3 147.19 20
-6 5 -3 121.79 17.2
-7 5 -3 -2.8 10.7
-7 5 -3 3.5 13.2
7 -5 3 26.3 15.8
-8 5 -3 80.09 21.3
-8 5 -3 85.09 18.3
-9 5 -3 208.98 35.8
-9 5 -3 197.28 31.2
-10 5 -3 -8.3 20.6
-10 5 -3 17 25
-11 5 -3 -0.8 29.5
-11 5 -3 14.2 28.4
11 5 -4 202.38 40.4
-11 -5 4 144.39 26.6
10 5 -4 149.59 31.2
-10 -5 4 188.58 26
9 5 -4 195.18 31.2
-9 -5 4 175.28 25.2
8 5 -4 244.88 39.3
-8 -5 4 208.58 24.8
-8 -5 4 258.87 27.7
7 5 -4 182.58 23.9
-7 -5 4 194.28 22.7
-7 -5 4 209.48 20.2
6 5 -4 416.56 32.2
-6 -5 4 410.66 30.5
-6 -5 4 356.46 28
5 5 -4 876.71 55.29
5 5 -4 931.81 56.49
-5 -5 4 840.12 54.19
-5 -5 4 949.71 55.59
4 5 -4 256.37 20.9
4 5 -4 277.97 21
-4 -5 4 272.87 20.4
-4 -5 4 266.57 20.9
3 5 -4 1606.14 95.59
3 5 -4 1707.03 95.69
-3 -5 4 1643.04 95.49
-3 -5 4 1747.73 95.59
2 5 -4 11.2 4.8
2 5 -4 16.3 5
-2 -5 4 9.3 5.3
-2 -5 4 10.1 4.9
1 5 -4 19.8 4.5
1 5 -4 21.5 5.4
-1 -5 4 20.4 5.3
-1 -5 4 16.8 6.4
0 5 -4 29.2 5.3
0 5 -4 32.5 5.9
0 -5 4 31.3 6.5
0 -5 4 23.3 5.6
-1 5 -4 465.95 30.4
-1 5 -4 541.55 31.9
1 -5 4 507.05 31.8
1 -5 4 505.85 32.7
-2 5 -4 147.89 13.2
-2 5 -4 180.88 14.5
2 -5 4 161.18 15.2
2 -5 4 184.78 16.1
-3 5 -4 37.3 7.9
3 -5 4 47.4 10.5
-4 5 -4 39.4 9.9
-4 5 -4 49.7 9.9
-4 5 -4 38.5 9.6
4 -5 4 35.2 11.4
-5 5 -4 49 11.6
-5 5 -4 47.8 11.4
-5 5 -4 88.59 14.1
5 -5 4 62.19 14.9
-6 5 -4 21.7 11.6
-6 5 -4 -2.6 10.8
-6 5 -4 23.6 12.2
-7 5 -4 15.8 13.1
-7 5 -4 40.2 14.8
7 -5 4 31.7 17
-8 5 -4 23.8 16.7
-8 5 -4 -8.3 16.4
-9 5 -4 0.1 18.7
-9 5 -4 13 19.4
-10 5 -4 86.39 24.9
11 5 -5 -36.7 30.8
-11 -5 5 20.7 22.2
10 5 -5 73.09 28.6
-10 -5 5 26.8 18.8
9 5 -5 83.29 25.5
-9 -5 5 94.49 18.2
8 5 -5 10.7 16.6
-8 -5 5 -17.1 10.4
-8 -5 5 -12.3 12.7
7 5 -5 145.19 23
-7 -5 5 69.69 15.4
-7 -5 5 81.59 14
6 5 -5 109.89 17.6
6 5 -5 94.49 15
-6 -5 5 108.39 16.2
-6 -5 5 90.29 16.1
5 5 -5 2.6 7.5
5 5 -5 16.2 9.7
-5 -5 5 12.5 8
-5 -5 5 4.6 8
4 5 -5 17 7.2
4 5 -5 21.4 8.1
-4 -5 5 9.8 7.1
-4 -5 5 18.4 7.9
3 5 -5 435.66 27.8
3 5 -5 379.56 27.7
-3 -5 5 405.86 27.8
-3 -5 5 417.26 28.1
2 5 -5 4.6 5.6
2 5 -5 8.9 5
-2 -5 5 8.5 6.4
-2 -5 5 13.9 6.2
1 5 -5 13.2 4.5
1 5 -5 12.9 5.1
-1 -5 5 8.5 5.1
-1 -5 5 10.3 6
0 5 -5 376.46 24.6
0 5 -5 362.96 23.5
0 -5 5 339.37 25.1
0 -5 5 368.96 24.6
-1 5 -5 1.4 5.1
-1 5 -5 3.7 4.7
1 -5 5 -7.7 5
-2 5 -5 47.6 8.9
-2 5 -5 46.1 8.5
2 -5 5 46.5 9.2
2 -5 5 48.2 9.2
-3 5 -5 28.6 8.3
-3 5 -5 55.19 9.5
3 -5 5 33 10.1
-4 5 -5 -2.8 6.6
-4 5 -5 4.5 8.5
4 -5 5 3 9.6
-5 5 -5 48.3 11.4
-5 5 -5 52.49 12.6
-5 5 -5 18.2 10.4
5 -5 5 53.39 13.9
-6 5 -5 60.59 15
-6 5 -5 56.99 14
-6 5 -5 32.9 12.3
-7 5 -5 9.3 14.5
-7 5 -5 7.8 12
-7 5 -5 -6.2 13.9
7 -5 5 8.7 18
-8 5 -5 10.7 17.1
-8 5 -5 -6.3 18.9
-8 5 -5 15.4 17
-9 5 -5 29.7 21.2
-9 5 -5 47.3 22.2
-11 5 -5 6 30.6
11 5 -6 98.49 37.5
-11 -5 6 158.78 29
10 5 -6 510.95 52.69
-10 -5 6 395.86 39.7
9 5 -6 759.02 61.59
-9 -5 6 825.82 55.19
8 5 -6 331.27 36.3
-8 -5 6 207.18 27.8
-8 -5 6 318.27 27.1
7 5 -6 661.43 50.39
-7 -5 6 647.24 46.9
-7 -5 6 730.23 45.8
6 5 -6 1367.16 83.09
6 5 -6 1462.75 85.19
-6 -5 6 1370.86 82.99
-6 -5 6 1336.17 83.09
5 5 -6 1555.44 91.59
5 5 -6 1600.64 92.89
-5 -5 6 1522.05 91.69
-5 -5 6 1567.74 91.09
4 5 -6 1645.74 95.49
4 5 -6 1694.33 94.99
-4 -5 6 1648.73 94.89
-4 -5 6 1558.54 94.79
3 5 -6 2321.47 125.39
3 5 -6 2284.37 124.99
-3 -5 6 2109.79 124.89
-3 -5 6 2097.19 125.19
2 5 -6 1360.16 76.89
2 5 -6 1329.57 76.99
-2 -5 6 1283.47 77.69
-2 -5 6 1333.97 77.29
1 5 -6 1368.26 77.99
1 5 -6 1387.36 77.39
-1 -5 6 1395.66 78.19
-1 -5 6 1224.68 78.39
0 5 -6 299.77 21
0 5 -6 317.47 22.1
0 -5 6 285.67 22
-1 5 -6 826.12 54.49
-1 5 -6 950.6 53.89
1 -5 6 937.71 55.39
-2 5 -6 269.67 20.5
-2 5 -6 260.87 21.4
2 -5 6 278.17 21.9
2 -5 6 265.97 22.3
-3 5 -6 917.11 59.19
-3 5 -6 963.4 58.69
3 -5 6 1023.9 60.89
-4 5 -6 316.87 24.7
-4 5 -6 289.77 24.2
4 -5 6 290.77 27.3
-5 5 -6 141.79 19.8
5 -5 6 154.68 21.5
-6 5 -6 191.48 23.8
-6 5 -6 223.88 22.9
-6 5 -6 195.18 25.2
-7 5 -6 130.19 22.5
-7 5 -6 129.39 21.9
-7 5 -6 118.09 22.3
7 -5 6 65.79 22.1
-8 5 -6 81.49 23.3
-8 5 -6 107.79 22.4
-8 5 -6 107.69 24.2
8 -5 6 88.49 27.3
-9 5 -6 28.5 23.6
-9 5 -6 29.1 21.4
-9 5 -6 24.6 20.6
-10 5 -6 35.5 26
-10 5 -6 22.7 27.8
10 5 -7 -8.7 28.3
-10 -5 7 23.8 20
9 5 -7 -42.5 21.4
-9 -5 7 36.1 15.9
8 5 -7 61.49 21.7
-8 -5 7 45.7 16.7
7 5 -7 25.4 11.6
7 5 -7 -3.3 18
-7 -5 7 2.7 12.6
-7 -5 7 -11.5 11.4
6 5 -7 223.38 26
6 5 -7 226.78 22.6
-6 -5 7 216.08 22.8
-6 -5 7 213.38 23
5 5 -7 20.5 11.4
5 5 -7 19.2 8.9
-5 -5 7 4.1 9.1
4 5 -7 350.56 28.5
4 5 -7 394.16 28
-4 -5 7 420.36 29.2
3 5 -7 -7.1 7
3 5 -7 3.3 6.2
-3 -5 7 3.8 7.9
-3 -5 7 10 8
2 5 -7 10.7 7.2
2 5 -7 6.7 5.5
-2 -5 7 4.4 7.1
-2 -5 7 -1.6 7.1
1 5 -7 10.8 6.2
1 5 -7 13.3 6.3
-1 -5 7 -7.9 6.7
-1 -5 7 5.3 7.2
0 5 -7 10.6 6.5
0 5 -7 0.1 6.2
0 -5 7 7.7 7.6
-1 5 -7 11 7.3
-1 5 -7 -4 5.9
1 -5 7 3.8 7.5
-2 5 -7 30 8.6
-2 5 -7 10.9 8.4
2 -5 7 34.7 9.6
2 -5 7 24.8 10
-3 5 -7 20.7 9.5
-3 5 -7 42.1 10.2
3 -5 7 22.6 10
-4 5 -7 352.46 27.7
4 -5 7 339.87 29.4
-5 5 -7 50.79 12.2
-5 5 -7 34.3 12.9
5 -5 7 28.1 14.6
-6 5 -7 12 10.9
-6 5 -7 4.4 12.6
-6 5 -7 10.2 14
6 -5 7 18.8 15.2
-7 5 -7 174.78 27.1
-7 5 -7 174.88 25.4
7 -5 7 153.08 27.5
-8 5 -7 71.49 18.4
-8 5 -7 27.1 20.6
-8 5 -7 93.89 22.4
8 -5 7 55.69 25.9
-9 5 -7 7.6 24.6
-9 5 -7 17.6 20.2
-9 5 -7 28.3 23.1
-10 5 -7 -28.6 31.3
-10 5 -7 -0.6 23.5
-10 5 -7 36.8 30
10 5 -8 156.98 39.2
-10 -5 8 219.48 36.1
9 5 -8 208.88 33.9
-9 -5 8 194.48 31.5
8 5 -8 395.36 38.9
-8 -5 8 323.07 32
7 5 -8 249.88 25.8
7 5 -8 200.18 28.6
-7 -5 8 217.58 25.8
-7 -5 8 228.18 25.3
6 5 -8 46.3 12.7
6 5 -8 26.4 14.9
-6 -5 8 43.4 14.3
-6 -5 8 57.09 13.9
5 5 -8 632.94 42.8
5 5 -8 668.63 45.6
-5 -5 8 624.04 44.4
-5 -5 8 658.63 43.9
4 5 -8 784.42 49.2
4 5 -8 758.92 47.5
-4 -5 8 690.03 48.1
3 5 -8 396.06 29.4
3 5 -8 396.16 28.3
-3 -5 8 391.66 30.4
2 5 -8 691.53 43.3
2 5 -8 656.63 43.1
-2 -5 8 677.13 44.8
-2 -5 8 691.93 44.5
1 5 -8 851.21 51.29
1 5 -8 817.82 51.79
-1 -5 8 833.22 52.29
0 5 -8 1083.59 64.69
0 5 -8 1046.6 65.49
0 -5 8 1123.29 66.39
-1 5 -8 1706.63 94.99
-1 5 -8 1511.25 92.99
1 -5 8 1614.64 94.89
-2 5 -8 247.38 22.6
-2 5 -8 245.38 21.7
2 -5 8 247.28 22.4
2 -5 8 233.08 23.7
-3 5 -8 363.16 28.3
-3 5 -8 354.46 29.5
3 -5 8 380.66 30.1
-4 5 -8 404.46 31.7
4 -5 8 387.86 33.2
-5 5 -8 102.59 18.5
5 -5 8 116.79 20.4
-6 5 -8 2.7 11.2
-6 5 -8 16.8 14.6
6 -5 8 8.1 15.5
-7 5 -8 31.4 14.5
-7 5 -8 -12.4 16.6
-7 5 -8 7.7 17
7 -5 8 21.6 21.2
-8 5 -8 32.2 22.4
-8 5 -8 53.09 21.4
-8 5 -8 52.49 19.3
8 -5 8 19.9 24.7
-9 5 -8 4.2 19.5
-9 5 -8 33 26.9
-10 5 -8 32.1 25.3
-10 5 -8 36.5 31.9
10 5 -9 29.4 33
-10 -5 9 2.2 25.2
9 5 -9 65.49 29.2
-9 -5 9 -18.3 20.9
8 5 -9 48.7 23.8
-8 -5 9 3.2 17.5
7 5 -9 4.6 17.9
7 5 -9 24 13.2
-7 -5 9 20.9 17.3
-7 -5 9 18.2 16.4
6 5 -9 94.09 19.3
6 5 -9 86.39 16.9
-6 -5 9 129.09 19.8
-6 -5 9 100.29 18.7
5 5 -9 460.15 33.2
5 5 -9 464.25 35.6
-5 -5 9 458.05 34.9
-5 -5 9 409.96 34.5
4 5 -9 37.1 12.1
4 5 -9 32.9 10.3
-4 -5 9 17.4 11.5
-4 -5 9 36.4 12.9
3 5 -9 23.9 8.9
3 5 -9 19.3 10.5
-3 -5 9 10.8 9.9
-3 -5 9 6 10.2
2 5 -9 14.2 7.9
2 5 -9 16.4 8.7
-2 -5 9 14.4 10.6
1 5 -9 14.3 8.8
1 5 -9 12.5 8.2
0 5 -9 11.7 8.2
0 5 -9 16.4 8.9
0 -5 9 1.8 10.1
-1 5 -9 12.2 8.4
-1 5 -9 2.7 8.4
-2 5 -9 2.1 9.9
-2 5 -9 0.5 8.5
2 -5 9 -2.1 9.7
2 -5 9 0.9 10.9
-3 5 -9 55.69 13.5
-3 5 -9 66.19 15.1
3 -5 9 76.49 14.9
-4 5 -9 16 12.1
4 -5 9 -10.6 12.2
-5 5 -9 27.6 14.3
5 -5 9 7.4 14.8
-6 5 -9 -5.9 15.8
6 -5 9 3.3 17.3
-7 5 -9 -5.3 14.2
-7 5 -9 13.9 18.8
-7 5 -9 6.2 18.9
7 -5 9 5.7 19.9
-8 5 -9 34.9 23.1
-8 5 -9 58.29 25.2
-8 5 -9 53.29 18.9
8 -5 9 81.59 29.3
-9 5 -9 11.3 20.7
-9 5 -9 30.3 31.1
-9 5 -9 17 29.4
-10 5 -9 6.1 36.2
9 5 -10 79.39 29
-9 -5 10 47.7 24.4
8 5 -10 67.09 33.7
8 5 -10 14.6 23.3
-8 -5 10 55.89 21
7 5 -10 193.48 27.9
7 5 -10 186.78 30.2
-7 -5 10 209.78 30.6
6 5 -10 323.87 27.8
6 5 -10 309.27 31.7
-6 -5 10 207.18 28.7
-6 -5 10 322.97 32.4
5 5 -10 46.5 13
5 5 -10 42.1 15.4
-5 -5 10 44.4 15.5
-5 -5 10 44.7 15.8
4 5 -10 160.18 18.6
4 5 -10 181.78 21
-4 -5 10 179.18 21.8
-4 -5 10 130.49 20.3
3 5 -10 149.09 18.8
3 5 -10 159.48 17.8
-3 -5 10 153.98 20.1
2 5 -10 195.78 20.5
2 5 -10 211.38 20.6
-2 -5 10 238.68 22.9
1 5 -10 443.56 32.1
1 5 -10 435.76 33
-1 -5 10 444.46 34
0 5 -10 589.94 38.4
0 5 -10 544.05 39.1
0 -5 10 524.75 39.8
-1 5 -10 619.64 43
-1 5 -10 627.44 41.7
1 -5 10 574.24 43.3
-2 5 -10 733.63 51.19
-2 5 -10 779.72 50.09
2 -5 10 786.02 50.19
2 -5 10 706.83 51.49
-3 5 -10 269.87 25.1
-3 5 -10 211.18 25.5
3 -5 10 258.17 26.2
-4 5 -10 301.97 27.2
4 -5 10 218.78 27.6
-5 5 -10 477.95 41.7
5 -5 10 551.04 44.2
-6 5 -10 546.75 43.4
6 -5 10 479.75 45.2
-7 5 -10 36.6 20.6
-7 5 -10 15.7 22.6
7 -5 10 -8.4 22.4
-8 5 -10 6.9 23.4
8 -5 10 37 29
-9 5 -10 77.09 30.7
-9 5 -10 -15.7 28.9
9 5 -11 -45.8 29.4
-9 -5 11 49.5 28.3
8 5 -11 -10.4 24.2
8 5 -11 62.39 19.6
-8 -5 11 32.2 21.5
7 5 -11 16.7 20.1
-7 -5 11 39.5 21
6 5 -11 -7.2 11.9
6 5 -11 0.2 17.6
-6 -5 11 1.1 17.1
-6 -5 11 22.5 20.4
5 5 -11 34.9 15.8
5 5 -11 33.2 12.4
-5 -5 11 31.7 16.1
-5 -5 11 -9.3 16.8
4 5 -11 174.88 24
4 5 -11 139.39 19.1
-4 -5 11 149.69 22.9
3 5 -11 25.8 12.8
3 5 -11 -5.2 9.2
-3 -5 11 5.4 12.5
2 5 -11 61.19 12.9
2 5 -11 64.39 13.7
-2 -5 11 52.29 15.5
1 5 -11 30 11.5
1 5 -11 8.3 10.6
-1 -5 11 -5 11.2
0 5 -11 414.86 32.8
0 5 -11 416.26 31.4
0 -5 11 358.76 33
-1 5 -11 51.89 13.2
-1 5 -11 54.19 14.2
1 -5 11 6.5 13.8
-2 5 -11 143.59 22.3
-2 5 -11 145.69 20.1
2 -5 11 122.09 21.6
2 -5 11 174.58 22
-3 5 -11 56.19 16.2
-3 5 -11 56.59 16.9
3 -5 11 68.69 16.3
-4 5 -11 116.49 21.9
-4 5 -11 81.79 18.6
4 -5 11 82.89 18.3
-5 5 -11 37.7 17.3
-6 5 -11 21.3 19.9
6 -5 11 22.5 20.4
-7 5 -11 129.09 28.9
7 -5 11 140.59 29.6
-8 5 -11 -7.3 27.2
-8 5 -11 -5.5 43.5
8 -5 11 -22.3 29.3
-9 5 -11 83.09 33.5
8 5 -12 60.09 22.4
8 5 -12 78.09 31.8
-8 -5 12 88.59 29.3
7 5 -12 220.18 32.4
7 5 -12 134.29 24.2
-7 -5 12 177.98 29.1
-7 -5 12 155.28 39.8
6 5 -12 176.48 26.1
6 5 -12 197.98 33.4
5 5 -12 102.19 27.9
5 5 -12 124.69 24.1
-5 -5 12 112.09 23
4 5 -12 121.49 20.4
4 5 -12 119.49 18.5
-4 -5 12 132.59 23
3 5 -12 415.66 36.7
3 5 -12 465.85 35.5
-3 -5 12 499.15 40.2
2 5 -12 1041.1 63.39
2 5 -12 953.5 62.49
-2 -5 12 934.01 64.79
1 5 -12 1042.6 65.09
-1 -5 12 958.6 65.89
0 5 -12 2155.68 137.49
0 5 -12 2449.05 136.49
0 -5 12 2343.17 137.39
-1 5 -12 576.84 42.5
1 -5 12 463.75 41.2
-2 5 -12 515.75 44
-2 5 -12 540.25 41.6
2 -5 12 607.24 42.8
2 -5 12 586.44 45.8
-3 5 -12 256.07 31.8
-3 5 -12 345.77 31.7
3 -5 12 294.27 30.8
-4 5 -12 568.94 45.2
-4 5 -12 496.75 42.8
4 -5 12 492.65 47.7
-5 5 -12 335.57 39.3
5 -5 12 417.36 40.7
-6 5 -12 296.27 37.8
6 -5 12 345.17 42.6
-7 5 -12 260.37 38.7
7 -5 12 308.97 46.7
-8 5 -12 113.29 32.6
8 -5 12 89.19 35.6
8 5 -13 46.5 31.6
7 5 -13 17 24.9
6 5 -13 -28.4 14.6
6 5 -13 23.1 21.2
5 5 -13 36.5 20.4
5 5 -13 -31.6 12.2
-5 -5 13 -8.2 18.4
4 5 -13 9.9 17.7
4 5 -13 17.8 14.4
-4 -5 13 -6.9 17.5
3 5 -13 23.4 13.7
3 5 -13 39.9 16.8
-3 -5 13 25.3 18.2
2 5 -13 56.89 15.7
2 5 -13 31.4 16
-2 -5 13 42.8 17.9
1 5 -13 126.09 20.9
1 5 -13 137.99 21.5
-1 -5 13 146.09 24.5
0 5 -13 230.68 26.4
0 5 -13 266.57 28.2
0 -5 13 194.98 29.4
-1 5 -13 33.5 15.8
-1 5 -13 31.5 16.5
1 -5 13 -1.1 18.3
-2 5 -13 13.6 17.3
-2 5 -13 -10.9 14.3
2 -5 13 21.1 19.8
-3 5 -13 64.49 19.6
-3 5 -13 46.1 17.8
-4 5 -13 27.7 18.6
-4 5 -13 35.8 20.9
4 -5 13 10.4 21.8
-5 5 -13 -16.9 21.2
-5 5 -13 38.3 20.8
5 -5 13 4.2 20.3
-6 5 -13 -9.3 23.3
6 -5 13 -7.6 23.7
-7 5 -13 -59.69 24.6
7 -5 13 -5.2 29.2
7 5 -14 51.19 22.4
7 5 -14 53.19 31.7
6 5 -14 8.4 24.9
5 5 -14 94.39 20.5
5 5 -14 79.19 23.9
4 5 -14 67.09 20.9
4 5 -14 92.69 19.1
3 5 -14 38.3 16.4
3 5 -14 54.49 18.2
-3 -5 14 24.8 21.8
2 5 -14 223.78 28.1
-2 -5 14 219.78 32.8
1 5 -14 286.17 31.4
1 5 -14 350.96 31.9
-1 -5 14 251.37 34.9
0 5 -14 69.19 20
0 5 -14 104.19 20.6
0 -5 14 111.09 24.7
-1 5 -14 309.57 34
-1 5 -14 367.36 35.3
1 -5 14 242.88 38.4
1 -5 14 338.47 34.1
-2 5 -14 424.46 38.7
-2 5 -14 448.86 41
2 -5 14 443.26 39.7
2 -5 14 413.96 44
-3 5 -14 195.88 31.9
-3 5 -14 157.88 26.4
3 -5 14 170.88 31
-4 5 -14 510.05 42.3
-4 5 -14 384.36 45
4 -5 14 422.16 43.5
-5 5 -14 246.98 40.4
-5 5 -14 239.68 38.8
5 -5 14 202.68 32
-6 5 -14 231.98 37.6
-6 5 -14 229.28 35.8
6 -5 14 142.39 33.7
-7 5 -14 139.19 36.6
7 -5 14 146.99 35.8
6 5 -15 16.7 20.2
6 5 -15 8.5 28.8
5 5 -15 21 24.3
5 5 -15 24.5 19.6
4 5 -15 -6.7 21.3
4 5 -15 3.5 16.5
-4 -5 15 2.9 25.2
3 5 -15 27.3 18
3 5 -15 50.19 21.4
2 5 -15 68.29 21.7
2 5 -15 83.59 24.4
1 5 -15 26.8 18.2
1 5 -15 49.99 20
-1 -5 15 -9.5 27.1
0 5 -15 9.5 17.7
0 5 -15 16.5 18.4
0 -5 15 4.7 26
-1 5 -15 3.8 18.3
-1 5 -15 1.6 18.6
1 -5 15 47.3 19.7
-2 5 -15 112.89 25.5
-2 5 -15 70.79 21.8
2 -5 15 67.89 22
-3 5 -15 -37.1 20.9
-3 5 -15 -15.1 18.7
3 -5 15 -24.2 19.9
-4 5 -15 2.3 21.9
-4 5 -15 18.2 23.2
4 -5 15 34.5 23.4
-5 5 -15 18.2 25.4
-5 5 -15 -21.9 25.7
5 -5 15 2.5 26.8
-6 5 -15 -49.99 28.9
-6 5 -15 13.8 32.1
6 -5 15 -12.8 28.9
5 5 -16 -4.9 23.5
5 5 -16 34.9 27.2
4 5 -16 110.79 30.4
4 5 -16 119.09 25.2
3 5 -16 92.59 25.2
3 5 -16 80.79 22.1
2 5 -16 160.38 29.3
2 5 -16 143.39 26.5
-2 -5 16 132.99 35.8
1 5 -16 51.89 21.6
1 5 -16 53.79 22.1
-1 -5 16 93.69 28.9
0 5 -16 121.09 25.3
0 5 -16 104.79 25.9
0 -5 16 129.99 34.9
-1 5 -16 226.08 36.5
-1 5 -16 207.88 33.3
1 -5 16 246.78 36.4
1 -5 16 141.09 34.1
-2 5 -16 274.87 37.7
-2 5 -16 242.48 37.8
2 -5 16 152.18 29.1
-3 5 -16 201.48 35.3
-3 5 -16 223.98 33.1
3 -5 16 158.48 30.6
-4 5 -16 53.59 30.4
-4 5 -16 0.3 26.3
4 -5 16 64.19 27
3 5 -17 35 27.7
3 5 -17 5.2 23.6
2 5 -17 33.6 23.4
2 5 -17 14.4 25.1
1 5 -17 1.7 22.7
1 5 -17 25.9 24.6
0 5 -17 78.79 26.5
0 5 -17 76.89 27
-1 5 -17 42.6 26.7
-1 5 -17 11.9 24.6
1 -5 17 -9 25.2
-2 5 -17 45 27.7
-2 5 -17 -12.1 24.9
2 -5 17 5.5 25.9
-2 -6 -17 -4.5 25.7
-1 -6 -17 64.79 25.1
0 -6 -17 24 23.9
1 -6 -17 -21 34.5
1 -6 -17 -12.7 22.5
-2 6 17 -10.4 25.9
2 -6 -17 -20.5 28.4
2 -6 -17 -36.2 23.7
-3 -6 -16 150.68 30.8
-2 -6 -16 16.6 22
-1 -6 -16 31 22.5
0 -6 -16 161.58 27.1
-1 6 16 -2.6 11.9
1 -6 -16 17.8 20.4
-2 6 16 112.19 21.7
2 -6 -16 49.9 25.5
2 -6 -16 92.29 22.8
-3 6 16 95.29 26.7
3 -6 -16 110.09 24.2
-4 6 16 42.7 30.9
4 -6 -16 136.39 28.2
-5 -6 -15 -40.9 25.1
-4 -6 -15 14.5 24.2
-3 -6 -15 31 21.1
-2 -6 -15 13.6 19.3
-1 -6 -15 22.9 18.2
0 -6 -15 31.4 18
-1 6 15 0.6 11.8
1 -6 -15 -16.6 16.6
-2 6 15 78.59 19.8
2 -6 -15 85.99 19.3
2 -6 -15 93.89 21
-3 6 15 -4.1 20.3
3 -6 -15 -19.1 16.4
-4 6 15 10.5 25.1
-4 6 15 38.4 20.6
4 -6 -15 8.9 18.8
-5 6 15 5.4 30.5
-5 6 15 33.5 22.8
5 -6 -15 48.6 22.8
-6 -6 -14 16 29.4
-5 -6 -14 -25.1 24.1
-4 -6 -14 56.69 22.5
-3 -6 -14 3.6 19.7
-2 -6 -14 177.28 26
-1 -6 -14 -0.6 15.6
0 -6 -14 -14.2 13.3
-1 6 14 2.3 11.1
1 -6 -14 9.7 14.4
-2 6 14 115.79 20.5
2 -6 -14 128.39 20.9
-3 6 14 169.68 32.9
3 -6 -14 221.88 29.2
3 -6 -14 257.77 26.2
-4 6 14 352.36 43.5
4 -6 -14 354.76 35.2
4 -6 -14 401.26 31.4
-5 6 14 171.88 42.1
-5 6 14 161.48 25.1
5 -6 -14 151.88 25.6
-6 6 14 114.19 24.9
-6 6 14 112.79 35.2
6 -6 -14 31.1 24.2
-7 -6 -13 53.59 30.5
-6 -6 -13 -30 25.3
-5 -6 -13 -3.5 22.7
-4 -6 -13 56.89 20.4
-3 -6 -13 13 16.1
-2 -6 -13 46.9 18.4
-1 -6 -13 -17.3 21.4
0 6 13 80.59 10.7
0 -6 -13 93.89 17.5
-1 6 13 -2.4 10.1
1 -6 -13 -0.9 12.8
-2 6 13 6 14.3
-3 6 13 66.69 19.9
-3 6 13 62.99 16
3 -6 -13 57.79 14.2
3 -6 -13 43.9 15.4
-4 6 13 20.1 20.8
-4 6 13 27.6 15.1
4 -6 -13 46 11.8
4 -6 -13 12.3 15.1
-5 6 13 39.8 24.5
-5 6 13 -0.9 15.9
5 -6 -13 10.2 18
5 -6 -13 25.2 10.9
-6 6 13 -0.4 17.6
-6 6 13 18.9 30.4
6 -6 -13 -25.1 19
-7 6 13 -12.1 35.2
-7 6 13 27.4 21.4
7 -6 -13 15.1 23.3
-8 -6 -12 102.49 34.3
-7 -6 -12 218.68 37.3
-6 -6 -12 334.67 42.3
-5 -6 -12 280.77 36.4
-4 -6 -12 17.5 16.9
-3 -6 -12 35.7 15.3
-2 -6 -12 0.8 12.5
-1 -6 -12 142.29 21.6
0 6 12 18.9 6.5
0 -6 -12 33.1 11.9
-1 6 12 68.29 12.4
1 -6 -12 61.19 13.9
-2 6 12 -8.1 12.4
2 -6 -12 44 13.1
-3 6 12 7.2 12.1
-3 6 12 14.1 16.2
3 -6 -12 13.5 11.9
3 -6 -12 24.8 10.9
-4 6 12 42.4 19.8
-4 6 12 34.9 13.8
4 -6 -12 53.59 10.7
4 -6 -12 26.7 15.6
-5 6 12 114.29 18.2
-5 6 12 127.09 28.1
5 -6 -12 80.19 13.2
5 -6 -12 100.99 21
-6 6 12 52.59 17.1
-6 6 12 54.59 27.9
6 -6 -12 49.1 19.8
-7 6 12 34.6 20.4
-7 6 12 64.29 34.4
7 -6 -12 48 23.9
-8 6 12 31.7 36.8
-8 6 12 35.2 22.5
8 -6 -12 19 28.1
-6 -6 -11 6.7 19.7
-5 -6 -11 47.3 18.4
-4 -6 -11 87.49 19.4
-3 -6 -11 -13.7 12.6
-2 -6 -11 41.2 13
-1 -6 -11 15.3 11.1
0 6 11 -3.3 5.3
0 -6 -11 -3.2 9.6
-1 6 11 175.68 20
1 -6 -11 253.87 21.8
-2 6 11 6.2 11.3
2 -6 -11 -18.9 9.4
-3 6 11 1.3 10
-3 6 11 6.5 13.9
3 -6 -11 5.6 10
3 -6 -11 -4.9 8.4
-4 6 11 204.48 21.9
-4 6 11 190.98 30.5
4 -6 -11 239.28 24.1
4 -6 -11 234.38 19
-5 6 11 12.1 21
-5 6 11 29.4 12.8
5 -6 -11 31.6 7
5 -6 -11 18.2 15.5
-6 6 11 -3.8 23.5
-6 6 11 -19 19.3
6 -6 -11 20.4 16.5
-7 6 11 54.79 17.6
-7 6 11 63.59 31.8
7 -6 -11 10.3 19.6
-8 6 11 21.3 34.3
-8 6 11 54.29 20.2
8 -6 -11 33.8 25.3
-9 6 11 11.3 24
-9 6 11 20.3 42.1
9 -6 -11 7 29.7
-8 -6 -10 349.77 47.6
-4 -6 -10 529.85 40.9
-3 -6 -10 408.56 33
-2 -6 -10 191.88 21.6
-1 -6 -10 37.2 10.7
0 6 10 23.4 5.9
0 -6 -10 13.6 9.1
-1 6 10 -0.9 7.9
1 -6 -10 8.8 8.5
-2 6 10 85.49 15.6
2 -6 -10 92.19 14.5
-3 6 10 7.4 8.4
-3 6 10 6.3 12.9
3 -6 -10 12 9.4
3 -6 -10 3.4 7.3
-4 6 10 217.08 20.4
-4 6 10 237.88 30.1
4 -6 -10 233.78 22.3
4 -6 -10 185.88 16.6
-5 6 10 24.7 11.1
-5 6 10 47.1 20
5 -6 -10 25.3 12.4
5 -6 -10 12.9 4.9
-6 6 10 121.19 32.9
-6 6 10 145.09 20.5
6 -6 -10 158.28 23.2
-7 6 10 143.29 35
-7 6 10 118.69 19.1
7 -6 -10 157.58 25.4
-8 6 10 37.2 31.7
-8 6 10 13.9 17.7
8 -6 -10 72.09 25.4
-9 6 10 22.9 21.1
-9 6 10 21.2 38
9 -6 -10 27.2 27.1
-9 -6 -9 46 31.7
-8 -6 -9 3.5 26.2
-3 -6 -9 -3 10.8
-2 -6 -9 48 12.2
-1 -6 -9 24.5 9.7
0 6 9 121.79 11.4
0 -6 -9 132.39 15
-1 6 9 -8.5 6.9
1 -6 -9 8.1 6.8
-2 6 9 12.1 9.8
2 -6 -9 35.7 8.8
-3 6 9 61.79 15.1
-3 6 9 46.9 9.2
3 -6 -9 50.59 10.7
-4 6 9 71.39 11
-4 6 9 56.49 18
4 -6 -9 51.29 11.6
4 -6 -9 62.29 9
-5 6 9 24.7 18.6
-5 6 9 60.49 11.8
5 -6 -9 37.4 12.1
5 -6 -9 46.6 6
-6 6 9 56.49 12.2
-6 6 9 54.09 24.6
6 -6 -9 56.49 16.4
-7 6 9 -22.3 24.3
-7 6 9 12.3 12.5
7 -6 -9 20.8 17.1
-8 6 9 18.2 30.7
-8 6 9 14.7 15.4
8 -6 -9 27 22.6
-9 6 9 21 19.3
-9 6 9 43 37.1
9 -6 -9 2.6 24.6
-9 -6 -8 231.08 31.3
-9 -6 -8 294.77 42.5
-8 -6 -8 65.29 24.4
-7 -6 -8 82.99 21.7
-7 -6 -8 60.29 12.1
-6 -6 -8 18.8 7.1
-5 -6 -8 4.8 3.5
-2 -6 -8 654.73 42.6
-1 -6 -8 729.23 45.6
0 6 8 40.6 7.7
0 -6 -8 60.69 9.7
-1 6 8 8.5 6.6
1 -6 -8 13.4 6.1
-2 6 8 5.2 8.9
2 -6 -8 -8.3 5.7
-3 6 8 15.5 11.2
-3 6 8 21.9 6.7
3 -6 -8 -6.2 6.8
-4 6 8 19.1 7.5
-4 6 8 9 13.8
4 -6 -8 11.2 4
4 -6 -8 24 8.6
-5 6 8 156.08 29.1
-5 6 8 147.79 16.2
5 -6 -8 150.98 18.6
-6 6 8 -3 18.8
-6 6 8 52.39 11.3
6 -6 -8 38.1 14.1
-7 6 8 296.67 43.9
7 -6 -8 284.47 30.3
-8 6 8 109.09 18.1
-8 6 8 75.59 31.5
8 -6 -8 113.69 24
-9 6 8 119.89 21.7
-9 6 8 43.1 35.4
9 -6 -8 104.69 27.7
-10 6 8 14.6 21.8
-10 6 8 70.29 41.9
10 -6 -8 -64.19 29
-9 -6 -7 22.3 24.7
-8 -6 -7 1.4 14
-8 -6 -7 -24.6 19.5
-7 -6 -7 88.89 15.1
-7 -6 -7 85.99 20.5
-6 -6 -7 168.18 17.7
-5 -6 -7 151.28 13.8
-4 -6 -7 43.7 6.2
-1 -6 -7 13.6 6.9
0 6 7 205.88 14.9
0 -6 -7 191.98 16
-1 6 7 11.8 6.8
1 -6 -7 13.2 5.8
-2 6 7 7.7 7.8
2 -6 -7 3.7 5.1
-3 6 7 142.49 12.2
-3 6 7 169.38 20.1
3 -6 -7 124.79 13.5
-4 6 7 134.69 23.3
-4 6 7 153.38 13.8
4 -6 -7 140.99 15.3
-5 6 7 40.7 17.2
-5 6 7 34.4 8.6
5 -6 -7 16.7 9.6
-6 6 7 13 17.6
-6 6 7 13.4 9.2
6 -6 -7 23.7 12.2
-7 6 7 22.5 12
-7 6 7 48.1 28.9
-8 6 7 16.3 13.3
-8 6 7 65.19 27.1
8 -6 -7 2.8 17.3
-9 6 7 34.4 17
-9 6 7 25.6 31.1
9 -6 -7 63.79 25.4
-10 6 7 -11.2 37.3
-10 6 7 35.6 20.6
10 -6 -7 -4.5 29.1
-10 -6 -6 311.17 49.99
-9 -6 -6 143.09 29.3
-8 -6 -6 348.67 33.2
-7 -6 -6 216.98 24.4
-6 -6 -6 543.95 37.8
-6 -6 -6 574.04 42.8
-3 -6 -6 1660.93 91.79
-2 -6 -6 1461.85 81.09
-1 -6 -6 115.69 10.2
0 6 6 284.17 18.7
0 -6 -6 271.87 18.9
-1 6 6 169.08 15.6
1 -6 -6 217.68 17.4
1 -6 -6 163.58 13.4
-2 6 6 94.39 13.3
2 -6 -6 62.69 8.5
-3 6 6 344.47 21.5
-3 6 6 317.07 27.8
3 -6 -6 348.77 23.1
-4 6 6 354.76 22.1
-4 6 6 310.57 30.1
4 -6 -6 320.67 24.1
-5 6 6 115.89 21.4
-5 6 6 112.49 12.6
5 -6 -6 103.69 15.6
-6 6 6 457.55 41.7
-6 6 6 426.66 29.7
6 -6 -6 409.26 33.1
-7 6 6 176.28 18.5
-7 6 6 130.59 33.1
7 -6 -6 155.38 22.8
-8 6 6 22.8 12.6
-8 6 6 61.49 26.3
8 -6 -6 47.4 18.9
-9 6 6 -15.7 14.7
-9 6 6 14.4 29.4
9 -6 -6 12 21.7
-10 6 6 -6.1 32.9
-10 6 6 31.6 20
10 -6 -6 43.4 28.6
-11 -6 -5 -35.4 26.9
-10 -6 -5 50.09 29
-9 -6 -5 24.1 21.9
-9 -6 -5 27.7 18.6
-8 -6 -5 5 14.6
-8 -6 -5 -17.4 18.2
-7 -6 -5 231.08 25.1
-6 -6 -5 -7.1 19.2
-2 -6 -5 1068.49 60.29
-1 -6 -5 1.2 3.5
0 6 5 -0.3 3.7
0 -6 -5 -1.8 3.2
0 -6 -5 -1.4 4.7
-1 6 5 132.49 12.4
1 -6 -5 124.69 9.6
1 -6 -5 86.39 12.8
-2 6 5 76.79 12.3
2 -6 -5 63.99 7.3
2 -6 -5 42.4 9.9
-3 6 5 59.29 12.7
-3 6 5 58.09 6.5
3 -6 -5 65.69 5.2
3 -6 -5 69.19 9
-4 6 5 33.8 12.8
-4 6 5 31.9 5.9
4 -6 -5 25.6 7.8
-5 6 5 39.4 7.8
-5 6 5 47 16
5 -6 -5 33.7 10.4
-6 6 5 24.9 16.9
-6 6 5 5.2 7.6
6 -6 -5 34.7 11.2
-7 6 5 45.1 11
-7 6 5 44.9 22.4
7 -6 -5 31.9 14.1
-8 6 5 12.1 24.8
-8 6 5 14.5 11.5
8 -6 -5 -25 16.4
-9 6 5 40.3 15.9
-9 6 5 -15.4 26.2
9 -6 -5 20.3 20.7
-10 6 5 19.7 19.2
-10 6 5 -4.2 31.9
10 -6 -5 11.5 26.6
-11 6 5 -15.7 39.9
-11 6 5 32.9 24.6
11 -6 -5 65.19 35.5
-10 -6 -4 412.06 47.4
-10 -6 -4 267.97 42.6
-9 -6 -4 509.45 45.7
-9 -6 -4 505.95 47.6
-8 -6 -4 700.43 53.99
-7 -6 -4 282.17 30.3
-6 -6 -4 359.76 31.2
-5 -6 -4 190.08 20.1
-1 -6 -4 2820.32 156.08
0 6 4 3568.84 177.08
0 -6 -4 2823.92 176.98
-1 6 4 3040.7 162.78
1 -6 -4 2657.43 162.98
1 -6 -4 3036.6 159.78
-2 6 4 1683.23 99.29
2 -6 -4 1764.12 95.49
2 -6 -4 1705.33 94.89
-3 6 4 1360.26 75.99
-3 6 4 1274.87 82.09
3 -6 -4 1446.16 74.99
3 -6 -4 1388.76 77.89
-4 6 4 30.3 5.3
-4 6 4 27.7 11.8
4 -6 -4 9.5 11
4 -6 -4 20.6 6.4
-5 6 4 50.89 7.9
-5 6 4 46.2 15.1
5 -6 -4 46.4 10.2
-6 6 4 37.7 8.8
-6 6 4 45.9 17.2
6 -6 -4 12.4 10
-7 6 4 35 10.3
-7 6 4 28.7 19.6
7 -6 -4 37.5 14.6
-8 6 4 140.49 30.8
-8 6 4 181.38 21.2
8 -6 -4 198.08 27.6
-9 6 4 9.7 14.3
-9 6 4 7.7 25.3
9 -6 -4 17.8 20.6
-10 6 4 19 18.1
-10 6 4 -36.2 30.7
10 -6 -4 -1.2 23.6
-11 6 4 -13.5 23.1
-11 6 4 -18.6 37.5
11 -6 -4 44.7 32.8
-11 -6 -3 13.9 31.9
-10 -6 -3 -5.9 23.8
-10 -6 -3 22.3 27.9
-10 -6 -3 29.7 21.1
-9 -6 -3 68.39 22.7
-9 -6 -3 43.7 20.2
-9 -6 -3 45.9 20.1
-8 -6 -3 25.6 16.6
-7 -6 -3 201.08 26.7
-6 -6 -3 75.19 15.7
-5 -6 -3 63.49 12.1
-4 -6 -3 22.9 8
-1 -6 -3 424.16 27.9
0 -6 -3 53.89 8
-1 6 3 203.78 15.3
1 -6 -3 171.38 11.1
1 -6 -3 182.18 16.2
1 -6 -3 208.48 13.2
-2 6 3 154.48 15.3
2 -6 -3 145.49 15.4
2 -6 -3 152.68 9.8
2 -6 -3 136.39 10
-3 6 3 296.17 18
-3 6 3 285.97 24.6
3 -6 -3 300.47 26
3 -6 -3 337.87 20.5
-4 6 3 127.19 10
-4 6 3 107.59 17.5
4 -6 -3 121.39 12.6
4 -6 -3 107.09 17.6
-5 6 3 279.77 19.5
-5 6 3 260.47 27.6
5 -6 -3 276.07 22.7
5 -6 -3 280.87 28
-6 6 3 21.1 14.7
-6 6 3 25.8 8.2
6 -6 -3 19.2 10.7
-7 6 3 -3.6 8.5
-7 6 3 19.6 18.2
7 -6 -3 -5.9 12.6
-8 6 3 7.9 11.1
-8 6 3 2.4 21.1
8 -6 -3 9.7 17.6
-9 6 3 91.99 17.8
-9 6 3 89.39 27.1
9 -6 -3 47.7 20.5
-10 6 3 17.6 18.1
-10 6 3 -13.8 30.5
10 -6 -3 37.9 25.2
-11 6 3 100.79 25.8
-11 6 3 108.49 42.5
11 -6 -3 105.39 33.6
-11 -6 -2 99.09 33.6
-10 -6 -2 227.68 39.9
-10 -6 -2 250.77 33.5
-10 -6 -2 198.18 33.2
-9 -6 -2 187.58 28.4
-9 -6 -2 232.18 34.4
-8 -6 -2 139.49 22.9
-8 -6 -2 144.39 23
-7 -6 -2 515.75 39
-7 -6 -2 538.95 40.8
-6 -6 -2 698.43 48.5
-6 -6 -2 790.42 50.29
-5 -6 -2 1135.89 68.69
-4 -6 -2 1103.59 65.59
-3 -6 -2 246.68 18.1
-2 -6 -2 458.75 29.6
-1 -6 -2 583.74 35.5
0 -6 -2 837.82 48.9
0 -6 -2 809.32 47.5
-1 6 2 1095.69 62.79
1 -6 -2 1093.79 60.29
1 -6 -2 1021.1 63.29
-2 6 2 2016.3 113.19
2 -6 -2 1940.11 108.89
2 -6 -2 1804.92 113.29
2 -6 -2 2131.69 108.79
-3 6 2 789.42 50.69
-3 6 2 786.32 44.9
-3 6 2 774.92 44.3
3 -6 -2 746.63 50.99
3 -6 -2 862.91 46.6
-4 6 2 46.1 6.5
-4 6 2 51.79 12.1
4 -6 -2 35.3 8.1
4 -6 -2 28.6 11.8
-5 6 2 768.52 51.89
-5 6 2 786.72 44.1
5 -6 -2 671.93 51.29
5 -6 -2 699.03 46.4
-6 6 2 113.19 21.4
-6 6 2 137.59 14.5
-6 6 2 104.99 7
-6 6 2 115.69 7
6 -6 -2 88.89 15.2
-7 6 2 354.46 21
-7 6 2 371.86 38.1
-7 6 2 360.66 27.6
7 -6 -2 369.36 31.5
-8 6 2 27.5 12.4
-8 6 2 20.6 21
-8 6 2 44.7 6.6
-8 6 2 44.5 6.6
-9 6 2 98.49 28.7
-9 6 2 86.89 18.7
9 -6 -2 95.99 22.2
-10 6 2 6.7 29.5
-10 6 2 13.6 7.4
-10 6 2 -18.1 16.7
10 -6 -2 -14.8 21.8
-11 6 2 15.5 35.3
-11 6 2 0.9 23.2
11 -6 -2 -58.99 27.2
-11 -6 -1 -8.5 30.1
-10 -6 -1 0.9 23.2
-10 -6 -1 -6.9 18.9
-9 -6 -1 -23.8 15.5
-9 -6 -1 -24.6 17.5
-8 -6 -1 103.49 20.4
-8 -6 -1 125.59 19.6
-7 -6 -1 93.29 17.4
-7 -6 -1 86.89 15.6
-6 -6 -1 60.59 13.1
-6 -6 -1 38.3 11.7
-5 -6 -1 517.55 36
-5 -6 -1 522.45 35.6
-4 -6 -1 343.57 24.2
-4 -6 -1 299.47 23.4
-3 -6 -1 911.41 54.89
-3 -6 -1 963 56.09
-2 -6 -1 20 5.7
-2 -6 -1 20.4 4.5
-1 -6 -1 474.45 29.3
0 6 1 8.7 3.9
0 -6 -1 13 4.7
0 -6 -1 2 3.1
-1 6 1 665.53 41.5
-1 6 1 779.92 44.2
1 -6 -1 731.13 42.4
1 -6 -1 722.43 44.7
-2 6 1 91.59 11.1
-2 6 1 81.39 7.1
2 -6 -1 91.49 12.2
2 -6 -1 94.69 7.3
2 -6 -1 81.19 7.2
-3 6 1 683.63 37.9
-3 6 1 690.23 37.9
-3 6 1 663.93 38.4
-3 6 1 668.73 43.5
3 -6 -1 621.04 44.1
3 -6 -1 665.23 39.9
-4 6 1 81.49 8.4
-4 6 1 61.49 13.1
4 -6 -1 68.69 13.9
4 -6 -1 64.89 10.8
-5 6 1 67.29 6.3
-5 6 1 75.19 15.7
-5 6 1 57.09 9.8
5 -6 -1 52.39 11.4
5 -6 -1 50.79 15
-6 6 1 -20.7 10.8
-6 6 1 2.7 3.9
-6 6 1 6.5 7.7
6 -6 -1 8.1 12.9
6 -6 -1 3.6 9.5
-7 6 1 194.88 28.1
-7 6 1 162.38 19.2
7 -6 -1 194.18 23.7
-8 6 1 197.28 23.1
-9 6 1 2.3 14.8
-9 6 1 -13.5 21.1
-9 6 1 -6 7.4
9 -6 -1 38.9 20.4
-10 6 1 6.7 9.5
-10 6 1 26.7 27.9
-10 6 1 45 19.9
10 -6 -1 -6 23.9
-11 6 1 51.29 24.7
-11 6 1 65.49 12.6
-11 -6 0 133.49 31.6
-11 -6 0 150.38 36.6
-10 -6 0 20 19.6
-10 -6 0 65.59 23.9
-9 -6 0 160.38 25.6
-9 -6 0 171.58 25.8
-8 -6 0 347.67 31.1
-8 -6 0 367.56 33.2
-7 -6 0 726.43 50.79
-7 -6 0 750.72 49.2
-6 -6 0 1435.56 83.89
-6 -6 0 1346.97 83.39
-5 -6 0 2165.78 126.19
-5 -6 0 2255.77 126.59
-4 -6 0 1650.93 97.99
-4 -6 0 1778.42 98.79
-3 -6 0 1231.28 71.49
-3 -6 0 1255.67 72.39
-2 -6 0 414.26 26.7
-2 -6 0 414.46 25.4
1 6 0 1837.22 106.19
-1 -6 0 1996.7 104.09
-1 -6 0 1826.72 105.69
0 6 0 180.78 12.8
0 -6 0 181.58 12.4
0 -6 0 184.78 14.2
0 -6 0 158.88 9.8
-1 6 0 1909.81 102.99
-1 6 0 1884.61 100.59
1 -6 0 1928.81 103.69
1 -6 0 1860.21 99.09
1 -6 0 1624.54 100.09
1 -6 0 1650.13 100.29
-2 6 0 372.56 23.1
-2 6 0 426.86 24.6
-2 6 0 461.45 28.8
2 -6 0 419.66 25.1
2 -6 0 414.76 25.2
2 -6 0 414.16 29.4
-3 6 0 1154.98 67.09
-3 6 0 1288.17 67.09
-3 6 0 1234.08 67.59
-3 6 0 1161.88 71.89
3 -6 0 1178.58 73.09
3 -6 0 1162.88 68.89
-4 6 0 1686.33 91.59
-4 6 0 1656.53 97.79
-4 6 0 1679.83 92.79
-4 6 0 1668.43 93.49
4 -6 0 1533.25 98.29
4 -6 0 1641.14 94.79
-5 6 0 2229.28 125.79
-5 6 0 2074.69 119.39
-5 6 0 2177.88 117.59
5 -6 0 2021.3 125.59
5 -6 0 2078.59 121.59
-6 6 0 1413.76 87.49
-6 6 0 1383.96 80.79
6 -6 0 1277.07 87.39
6 -6 0 1435.86 83.69
-7 6 0 700.03 54.19
-7 6 0 715.23 46.7
7 -6 0 725.23 50.39
-8 6 0 365.26 31.7
-9 6 0 244.38 41.1
-9 6 0 181.48 27
-10 6 0 60.69 29
-10 6 0 21.5 18.6
-10 6 0 30.5 12.7
-11 6 0 135.79 42.2
-11 6 0 112.89 17.2
-11 6 0 66.19 31.6
-11 -6 1 48 23.6
-10 -6 1 15.4 18.6
-10 -6 1 67.19 24
-9 -6 1 18.2 18.4
-9 -6 1 -2.4 15.6
-8 -6 1 236.48 27.3
-8 -6 1 255.07 28.7
7 6 -1 160.48 21.7
-7 -6 1 165.08 20.7
-7 -6 1 134.19 18.9
6 6 -1 -1.9 9.1
-6 -6 1 1.4 9.6
-6 -6 1 0.8 9.2
5 6 -1 53.59 11.1
-5 -6 1 64.09 11.2
-5 -6 1 67.39 11.2
4 6 -1 63.19 10.3
-4 -6 1 83.69 11.1
-4 -6 1 66.09 11.2
3 6 -1 640.44 41.8
3 6 -1 677.23 40.4
-3 -6 1 695.63 40.9
-3 -6 1 686.73 41.5
2 6 -1 72.69 9.9
2 6 -1 96.89 8.3
-2 -6 1 94.29 10
-2 -6 1 107.19 9.5
1 6 -1 723.13 42.1
-1 -6 1 700.23 41.7
-1 -6 1 692.33 40.1
0 6 -1 1.5 3.4
0 -6 1 9.4 2.3
0 -6 1 13.2 4
-1 6 -1 574.74 32.3
1 -6 1 523.85 31.4
1 -6 1 563.04 35.1
1 -6 1 511.95 32.5
-2 6 -1 26.9 4.4
-2 6 -1 23.2 4.4
-2 6 -1 27.1 4.2
-2 6 -1 37.4 7.8
2 -6 1 26.1 5.3
2 -6 1 32.5 5.9
2 -6 1 31.7 8.2
-3 6 -1 951.1 53.79
-3 6 -1 924.81 57.19
-3 6 -1 923.51 53.49
-3 6 -1 945.71 53.29
3 -6 1 899.51 58.39
-4 6 -1 329.37 26.2
-4 6 -1 334.37 21.1
-4 6 -1 324.67 22.1
-4 6 -1 318.27 22.5
4 -6 1 288.27 23.4
4 -6 1 324.67 27.9
-5 6 -1 490.95 30
-5 6 -1 514.65 32
-5 6 -1 483.45 36.3
5 -6 1 463.85 33.3
5 -6 1 398.86 36.5
-6 6 -1 53.59 16.2
-6 6 -1 55.39 11.7
6 -6 1 47.7 16.4
-7 6 -1 128.39 24.2
-7 6 -1 103.29 18.5
7 -6 1 113.49 23.4
-8 6 -1 115.69 25.2
-8 6 -1 101.59 18.2
-9 6 -1 15.5 16.2
-9 6 -1 24.8 21.2
-10 6 -1 3.5 25.1
-10 6 -1 10.7 20.7
-11 6 -1 3.8 31.6
-11 -6 2 -11.7 20.7
-10 -6 2 -2.2 20.1
-10 -6 2 43.9 19.9
9 6 -2 117.79 24.1
-9 -6 2 108.29 21.5
-9 -6 2 108.59 19.6
8 6 -2 72.79 18.5
-8 -6 2 54.89 17.1
-8 -6 2 14.9 13.4
7 6 -2 324.77 31.2
-7 -6 2 386.26 30.3
-7 -6 2 330.87 28
6 6 -2 116.69 17.6
-6 -6 2 98.89 16.3
-6 -6 2 120.59 18.6
5 6 -2 792.62 50.69
-5 -6 2 814.92 50.69
-5 -6 2 806.12 50.09
4 6 -2 32 8.5
4 6 -2 32.2 8.1
-4 -6 2 43.9 8.9
-4 -6 2 44.5 8.3
3 6 -2 773.42 49.6
3 6 -2 830.52 48.8
-3 -6 2 819.32 49.3
-3 -6 2 856.71 48.9
2 6 -2 2015.8 115.09
-2 -6 2 2025.3 114.69
-2 -6 2 2077.29 113.79
1 6 -2 1066.79 61.19
1 6 -2 1048 59.29
-1 -6 2 1054.19 59.79
-1 -6 2 1059.69 61.09
0 6 -2 865.01 45.6
0 6 -2 799.52 47.4
0 -6 2 752.62 46.2
0 -6 2 834.02 47.8
-1 6 -2 617.74 33.8
-1 6 -2 594.44 34.3
-1 6 -2 562.44 35.2
1 -6 2 589.54 35.9
1 -6 2 625.44 38.2
1 -6 2 571.74 34.9
-2 6 -2 428.16 28.5
-2 6 -2 468.45 28.1
-2 6 -2 470.85 28.9
-2 6 -2 536.25 32.3
2 -6 2 477.05 32.6
2 -6 2 477.25 29.7
-3 6 -2 254.67 20.4
-3 6 -2 241.08 17.2
-3 6 -2 233.68 17.5
-3 6 -2 248.98 17.4
3 -6 2 231.68 21.7
-4 6 -2 1104.59 62.69
-4 6 -2 1055.19 61.69
-4 6 -2 1059.09 65.49
-4 6 -2 1056.49 62.59
4 -6 2 1022.8 66.89
-5 6 -2 1147.79 66.19
-5 6 -2 1149.98 66.49
-5 6 -2 1104.09 69.39
5 -6 2 995.6 70.29
-6 6 -2 747.23 51.99
-6 6 -2 749.62 47.9
6 -6 2 711.73 53.39
-7 6 -2 486.25 37.5
-7 6 -2 510.65 42.1
7 -6 2 496.15 44.1
-8 6 -2 131.99 25.4
-8 6 -2 170.18 24.5
-9 6 -2 172.88 31.3
-9 6 -2 190.78 29.6
-10 6 -2 252.27 36.1
-10 6 -2 211.18 37.1
-11 6 -2 53.19 34.2
11 6 -3 95.79 33.8
-11 -6 3 134.69 28.3
10 6 -3 -50.99 22.1
-10 -6 3 -1.1 21
-10 -6 3 10.5 17.6
9 6 -3 32.7 21.3
-9 -6 3 75.89 17.3
-9 -6 3 35.5 19.1
8 6 -3 8.1 16.6
-8 -6 3 -8.8 13.7
-8 -6 3 12.9 12.2
7 6 -3 -14.5 11.7
-7 -6 3 13.8 11.6
-7 -6 3 -1.4 9
6 6 -3 22.4 11.2
-6 -6 3 8.3 9.6
-6 -6 3 -0.3 8
5 6 -3 274.37 23
5 6 -3 272.67 22.9
-5 -6 3 261.47 21.7
-5 -6 3 293.97 22.7
4 6 -3 95.19 12.6
4 6 -3 121.39 13.4
-4 -6 3 104.99 12.5
-4 -6 3 112.99 12.9
3 6 -3 324.97 23.3
3 6 -3 304.87 22.3
-3 -6 3 325.37 22.5
-3 -6 3 340.37 23.1
2 6 -3 136.09 13.1
2 6 -3 154.48 12.2
-2 -6 3 161.38 13.3
-2 -6 3 136.79 11.9
1 6 -3 201.48 15.4
1 6 -3 194.88 14
-1 -6 3 213.88 15.9
-1 -6 3 204.88 14.5
0 6 -3 56.59 5.9
0 6 -3 62.09 7.5
0 -6 3 51.79 6.8
0 -6 3 47 8.1
-1 6 -3 366.36 25
-1 6 -3 371.76 23.9
1 -6 3 442.26 27.8
1 -6 3 402.86 25.2
1 -6 3 407.86 26.1
-2 6 -3 18.4 5.6
-2 6 -3 23.6 5.3
2 -6 3 15.8 6.3
2 -6 3 37.7 9
-3 6 -3 108.59 11.1
-3 6 -3 110.19 11.4
-3 6 -3 123.99 14.4
-3 6 -3 87.09 11.6
3 -6 3 137.79 16.3
-4 6 -3 15.7 7.5
-4 6 -3 8.9 6.6
-4 6 -3 19.4 8.8
-4 6 -3 20.6 8
4 -6 3 21.7 10.8
-5 6 -3 52.19 12.9
-5 6 -3 41.4 10.7
-5 6 -3 66.49 12.1
5 -6 3 50.99 15.3
-6 6 -3 74.49 15.4
-6 6 -3 121.59 17
-6 6 -3 74.79 16.3
6 -6 3 70.29 18.7
-7 6 -3 180.68 22.3
-7 6 -3 204.08 28
7 -6 3 210.48 30.1
-8 6 -3 35.3 15.8
-8 6 -3 0 16.8
8 -6 3 48 21.7
-9 6 -3 -10.1 21.2
-9 6 -3 -9.5 17.1
-10 6 -3 -27.7 21.9
-10 6 -3 38.2 26.6
-11 6 -3 7.6 30.7
-11 6 -3 3.8 32
11 6 -4 25.8 31.1
-11 -6 4 27.2 22.4
10 6 -4 -60.19 24.2
-10 -6 4 28.3 17.8
9 6 -4 13.1 21.8
-9 -6 4 -6.3 14.7
-9 -6 4 76.59 18.9
8 6 -4 154.48 28.9
-8 -6 4 179.28 22
-8 -6 4 170.58 25.2
7 6 -4 33.3 14.4
-7 -6 4 24.6 12.6
-7 -6 4 30.9 11.2
6 6 -4 23.6 12.8
-6 -6 4 35.6 11.4
-6 -6 4 42 10.4
5 6 -4 34.8 11.3
5 6 -4 49.4 11.1
-5 -6 4 54.09 11.5
-5 -6 4 58.79 10.5
4 6 -4 16.5 7.8
4 6 -4 42.7 9.5
-4 -6 4 10.8 7
-4 -6 4 21.3 7.3
3 6 -4 1379.56 84.89
3 6 -4 1442.76 84.59
-3 -6 4 1593.34 84.89
-3 -6 4 1466.65 84.99
2 6 -4 1904.91 105.19
2 6 -4 1877.91 105.99
-2 -6 4 1848.81 105.29
-2 -6 4 1833.82 106.09
1 6 -4 3237.48 178.38
1 6 -4 3005.3 177.08
-1 -6 4 3098.49 177.68
-1 -6 4 3514.15 179.38
0 6 -4 3247.28 174.48
0 -6 4 3275.47 176.68
0 -6 4 2972 175.08
-1 6 -4 3122.59 171.68
-1 6 -4 3117.79 170.38
1 -6 4 2969.5 172.28
1 -6 4 3250.97 173.58
1 -6 4 2968.3 171.48
-2 6 -4 636.74 39.6
-2 6 -4 658.03 40.7
2 -6 4 691.73 43.1
2 -6 4 659.73 41.4
-3 6 -4 236.18 18.6
-3 6 -4 265.27 21.3
-3 6 -4 212.18 18.4
3 -6 4 253.97 23.3
-4 6 -4 534.55 36.4
-4 6 -4 455.45 33.3
-4 6 -4 525.05 34.5
-4 6 -4 517.95 34.2
4 -6 4 519.05 38.7
-5 6 -4 203.18 19.7
-5 6 -4 181.78 21
-5 6 -4 164.38 19.1
5 -6 4 156.78 22.4
-6 6 -4 387.16 31.1
-6 6 -4 351.16 31
-6 6 -4 381.66 29.9
6 -6 4 293.57 34.8
-7 6 -4 240.78 26
-7 6 -4 274.27 28.5
-7 6 -4 233.98 26.6
7 -6 4 236.68 32.4
-8 6 -4 751.92 55.99
-8 6 -4 706.93 50.99
-8 6 -4 754.12 53.19
8 -6 4 610.14 56.89
-9 6 -4 446.66 44
-9 6 -4 465.95 41.2
-9 6 -4 427.96 44.4
-10 6 -4 281.77 41.5
-10 6 -4 281.77 46.2
-11 6 -4 190.08 46.2
11 6 -5 24.4 35.4
-11 -6 5 26.6 23.4
10 6 -5 53.39 29.1
-10 -6 5 49.9 20.7
9 6 -5 74.79 23.2
-9 -6 5 6 26.4
-9 -6 5 40.7 16.6
8 6 -5 10.8 17.7
-8 -6 5 2.2 12.4
-8 -6 5 25.2 15.3
7 6 -5 -7.4 14.9
-7 -6 5 37.9 11.8
-7 -6 5 10.2 12.5
6 6 -5 9 11.7
6 6 -5 1.7 9.9
-6 -6 5 21.8 11.6
-6 -6 5 16.9 9.3
5 6 -5 49 11.4
5 6 -5 38.9 10.9
-5 -6 5 63.19 11.9
-5 -6 5 27.1 12
4 6 -5 42 10.1
4 6 -5 48.8 9.7
-4 -6 5 53.39 10.3
-4 -6 5 45.4 9.5
3 6 -5 64.59 10.6
3 6 -5 76.49 10.8
-3 -6 5 70.19 10.6
-3 -6 5 53.29 10.4
2 6 -5 76.19 10.2
2 6 -5 69.29 9.2
-2 -6 5 82.39 11.8
-2 -6 5 104.89 10.9
1 6 -5 130.19 11.5
1 6 -5 133.79 12.6
-1 -6 5 113.59 12.7
-1 -6 5 146.59 14.2
0 6 -5 4.4 5.3
0 6 -5 6.8 4.4
0 -6 5 -1.9 5.1
0 -6 5 2.2 6.7
-1 6 -5 -5.1 4.7
-1 6 -5 5.4 4.7
1 -6 5 6.5 6.3
1 -6 5 3.1 6
-2 6 -5 1029.3 60.89
-2 6 -5 966.8 59.59
2 -6 5 1060.19 61.79
2 -6 5 1025.7 62.49
-3 6 -5 8.7 7
-3 6 -5 -1 6.2
3 -6 5 4.6 8.5
-4 6 -5 580.84 40.7
-4 6 -5 653.63 41.3
-4 6 -5 705.03 43.1
4 -6 5 560.64 43.6
-5 6 -5 292.47 25.3
-5 6 -5 291.97 25.8
-5 6 -5 303.27 25.5
5 -6 5 227.38 27.2
-6 6 -5 -7.6 10.3
-6 6 -5 -5.6 11.5
-6 6 -5 1.9 11.5
6 -6 5 7.7 14.5
-7 6 -5 389.56 34.2
-7 6 -5 385.86 34.3
-7 6 -5 359.56 33.7
7 -6 5 327.27 40.5
-8 6 -5 3.1 16.3
-8 6 -5 -2.8 15.5
-8 6 -5 6.8 20.8
8 -6 5 29.1 23.7
-9 6 -5 -11.2 21.6
-9 6 -5 -31.4 19.4
-9 6 -5 -8.8 18.8
-10 6 -5 22.8 39
-10 6 -5 18.1 30.1
-11 6 -5 -22.9 37
10 6 -6 68.09 31.4
-10 -6 6 8.7 21.4
9 6 -6 -12.6 22.5
-9 -6 6 12.3 16.8
8 6 -6 24 18.6
-8 -6 6 26.9 15
-8 -6 6 4.6 15
7 6 -6 166.78 26
7 6 -6 166.58 21.3
-7 -6 6 158.88 21.8
-7 -6 6 133.69 21.9
6 6 -6 411.26 31.7
6 6 -6 404.96 32.3
-6 -6 6 344.97 29.9
-6 -6 6 368.46 29.5
5 6 -6 144.79 18.1
5 6 -6 131.99 16.7
-5 -6 6 135.59 17.1
-5 -6 6 147.39 18.2
4 6 -6 338.57 25.6
4 6 -6 327.67 26.4
-4 -6 6 356.26 26
-4 -6 6 323.37 25.4
3 6 -6 317.87 24.7
3 6 -6 320.57 24.5
-3 -6 6 363.36 26
-3 -6 6 345.47 25.4
2 6 -6 96.59 12.2
-2 -6 6 123.79 14.3
-2 -6 6 140.09 13.5
1 6 -6 159.98 15
1 6 -6 163.98 14.5
-1 -6 6 177.48 16.1
-1 -6 6 181.78 15.9
0 6 -6 250.07 20.1
0 6 -6 290.57 19.7
0 -6 6 246.78 21.4
0 -6 6 272.47 20.7
-1 6 -6 133.49 12.8
-1 6 -6 132.29 14.3
1 -6 6 146.49 15
-2 6 -6 2085.29 113.29
-2 6 -6 1924.61 111.49
2 -6 6 1934.21 113.29
2 -6 6 1917.11 113.69
-3 6 -6 1635.34 96.29
-3 6 -6 1716.93 97.69
3 -6 6 1647.54 98.79
-4 6 -6 630.74 41.3
-4 6 -6 627.64 41.6
4 -6 6 574.14 43.8
-5 6 -6 712.13 44.5
-5 6 -6 615.84 43.4
-5 6 -6 640.64 48.5
5 -6 6 546.65 46.7
-6 6 -6 594.84 44.6
-6 6 -6 610.64 44.6
-6 6 -6 665.43 45.3
6 -6 6 559.74 48.3
-7 6 -6 318.67 32.5
-7 6 -6 295.97 30.7
-7 6 -6 345.67 32.2
7 -6 6 186.58 36.5
-8 6 -6 512.85 46.7
-8 6 -6 630.64 49.6
-8 6 -6 629.24 48
8 -6 6 563.44 56.19
-9 6 -6 121.29 25.5
-9 6 -6 189.68 30.7
-9 6 -6 129.89 29.4
-10 6 -6 357.56 42.2
-10 6 -6 228.18 40.2
10 6 -7 -21.4 30.4
-10 -6 7 -7.5 21.7
9 6 -7 30.4 24.5
-9 -6 7 58.39 20.2
8 6 -7 26.1 19.9
-8 -6 7 22.8 15.2
7 6 -7 32.1 13.8
7 6 -7 28.3 20.5
-7 -6 7 49.9 15.5
-7 -6 7 34.9 14
6 6 -7 11.8 10.6
6 6 -7 -3.9 12.5
-6 -6 7 32 12.6
-6 -6 7 27.4 12.1
5 6 -7 -11.2 9.6
5 6 -7 21.7 10.3
-5 -6 7 26.8 10.3
-5 -6 7 20.9 10.4
4 6 -7 164.98 17.7
4 6 -7 169.58 18
-4 -6 7 137.39 21
-4 -6 7 145.59 18.2
3 6 -7 163.98 16.8
3 6 -7 136.19 15.7
-3 -6 7 168.28 18.8
-3 -6 7 167.78 17.1
2 6 -7 -0.9 6.7
2 6 -7 -12.1 5.5
-2 -6 7 8.8 7.5
-2 -6 7 3.5 7.9
1 6 -7 11.4 7
1 6 -7 12.2 6.4
-1 -6 7 8.7 7.4
-1 -6 7 3.3 8.5
0 6 -7 186.38 17.5
0 6 -7 191.68 16.7
0 -6 7 202.38 18.4
-1 6 -7 19 7.4
-1 6 -7 14.2 8.1
1 -6 7 19.5 9.4
-2 6 -7 3.3 6.9
-2 6 -7 3 8
2 -6 7 12.3 9.1
2 -6 7 1 8.8
-3 6 -7 17.1 8.9
-3 6 -7 1.7 8.7
3 -6 7 12.9 10.8
3 -6 7 18 10.8
-4 6 -7 61.39 13.1
-4 6 -7 54.89 12.6
4 -6 7 62.69 15.4
-5 6 -7 192.98 21.8
-5 6 -7 158.58 22.2
-6 6 -7 141.39 20.9
-6 6 -7 198.68 25.4
-6 6 -7 142.39 23.2
6 -6 7 149.19 27.1
-7 6 -7 99.79 20.2
-7 6 -7 123.89 23.4
7 -6 7 136.89 26.6
-8 6 -7 9.8 19.9
-8 6 -7 -12.5 16.3
-8 6 -7 34.5 22.9
8 -6 7 18 25.5
-9 6 -7 2.9 25.3
-9 6 -7 -8.8 24.1
-9 6 -7 33.6 21.6
-10 6 -7 31.3 30.1
-10 6 -7 106.29 35.9
-10 6 -7 6.1 24.9
10 6 -8 48 32.5
-10 -6 8 23 24.7
9 6 -8 95.39 28.7
-9 -6 8 93.89 23.5
8 6 -8 135.29 29.1
-8 -6 8 135.29 22
7 6 -8 316.57 34.5
7 6 -8 311.17 30
-7 -6 8 229.48 29.5
-7 -6 8 284.97 29
6 6 -8 45.5 16.5
6 6 -8 43.3 13.2
-6 -6 8 72.99 15.6
-6 -6 8 35.1 14.7
5 6 -8 217.88 23.6
5 6 -8 197.48 20.1
-5 -6 8 155.48 22.5
-5 -6 8 147.69 20.6
4 6 -8 9.2 10
4 6 -8 32.1 9.1
-4 -6 8 47.5 12.2
-4 -6 8 29.1 11.1
3 6 -8 5.7 7.5
3 6 -8 -1.1 7.7
-3 -6 8 23.4 10.4
-3 -6 8 18.8 10
2 6 -8 23.9 8.8
2 6 -8 11.8 7.7
-2 -6 8 3.3 8.2
1 6 -8 7.5 7.4
1 6 -8 -1.8 6.7
-1 -6 8 -7.7 9.7
-1 -6 8 4.3 8.5
0 6 -8 67.09 11.5
0 6 -8 53.99 10.6
0 -6 8 48.8 11.6
-1 6 -8 790.82 48.2
-1 6 -8 783.62 49.4
1 -6 8 717.83 49.4
-2 6 -8 660.63 43.4
-2 6 -8 681.53 42.6
2 -6 8 667.63 43.9
2 -6 8 577.44 43.8
-3 6 -8 741.43 48.2
-3 6 -8 769.22 49.99
3 -6 8 701.13 50.29
3 -6 8 771.42 50.89
-4 6 -8 877.71 54.59
-4 6 -8 775.22 54.59
4 -6 8 825.72 56.59
-5 6 -8 7.2 13.2
5 -6 8 -3 14
-6 6 -8 22.6 16.3
-6 6 -8 17.3 11.8
-6 6 -8 8.9 15.8
6 -6 8 50.29 19.4
-7 6 -8 82.59 19
-7 6 -8 97.99 22.4
-7 6 -8 80.89 22.3
7 -6 8 109.89 27.3
-8 6 -8 80.09 24.6
-8 6 -8 46.8 22
-8 6 -8 49.7 24.4
8 -6 8 67.39 27.5
-9 6 -8 323.07 40
-9 6 -8 287.87 41.9
-10 6 -8 288.37 45.3
-10 6 -8 320.57 47.1
9 6 -9 2.8 24.9
-9 -6 9 -38.9 21.5
8 6 -9 19.7 17.5
8 6 -9 -30.4 20.8
-8 -6 9 7.9 17.3
7 6 -9 -29.5 17.6
7 6 -9 3.7 13.8
-7 -6 9 6.4 15.6
6 6 -9 56.89 14.8
6 6 -9 16.2 15.8
-6 -6 9 50.89 16.5
-6 -6 9 57.69 16
5 6 -9 20.3 13.2
5 6 -9 47.8 12.4
-5 -6 9 60.39 15.3
-5 -6 9 26.3 15.6
4 6 -9 65.29 13.3
4 6 -9 78.39 15
-4 -6 9 91.29 16.1
-4 -6 9 75.09 16
3 6 -9 73.69 13.1
3 6 -9 37.2 10.9
-3 -6 9 45.9 13.3
-3 -6 9 36 12.8
2 6 -9 21.8 9.6
2 6 -9 29.7 9.7
-2 -6 9 23.2 10.7
-2 -6 9 -0.4 9.6
1 6 -9 -1.4 8.2
1 6 -9 3.5 8
-1 -6 9 12.7 10.6
0 6 -9 114.39 15.7
0 6 -9 144.79 16.9
0 -6 9 114.59 20.9
-1 6 -9 10.1 9.7
-1 6 -9 41.9 10.3
1 -6 9 29.5 12.2
-2 6 -9 51.09 12.7
-2 6 -9 43.3 12
2 -6 9 59.69 13.9
2 -6 9 43.2 14.6
-3 6 -9 8.6 10.7
-3 6 -9 9.9 11.6
3 -6 9 -3 11.2
3 -6 9 -11.8 12.2
-4 6 -9 10.5 12.9
-4 6 -9 5 11.3
4 -6 9 5.3 13.4
-5 6 -9 323.97 30.3
5 -6 9 306.57 33.7
-6 6 -9 104.69 21
6 -6 9 78.59 23.9
-7 6 -9 -3.7 18.1
-7 6 -9 39.8 21.4
7 -6 9 26 23.1
-8 6 -9 -40.9 20.5
-8 6 -9 50.59 24.6
8 -6 9 -22.1 27.4
-9 6 -9 26.4 21.2
-9 6 -9 -8.6 28.5
-9 6 -9 73.79 30.8
9 6 -10 56.39 31.2
-9 -6 10 58.49 25.4
8 6 -10 126.29 29.1
8 6 -10 64.09 21.5
-8 -6 10 66.89 23.4
7 6 -10 137.79 24.6
7 6 -10 151.68 27.1
-7 -6 10 132.49 23.1
6 6 -10 138.39 20.8
6 6 -10 148.29 25.3
-6 -6 10 181.28 26.4
5 6 -10 33.2 12.5
5 6 -10 56.19 16.5
-5 -6 10 31.3 14.8
-5 -6 10 26.7 15.1
4 6 -10 199.58 20.9
4 6 -10 220.28 23.1
-4 -6 10 152.68 22.4
-4 -6 10 161.68 24.1
3 6 -10 17 11.1
3 6 -10 -0.9 8.7
-3 -6 10 26.3 12.7
-3 -6 10 7.6 12.3
2 6 -10 127.29 17.9
2 6 -10 86.39 15.2
-2 -6 10 121.39 20.4
1 6 -10 2.6 9
1 6 -10 -2.6 8.6
-1 -6 10 0.1 11.1
0 6 -10 18.7 10
0 6 -10 35.4 11.6
0 -6 10 21.2 12.9
-1 6 -10 34.8 12.8
-1 6 -10 29.4 11.1
1 -6 10 53.79 15.1
-2 6 -10 248.78 23.3
-2 6 -10 268.17 25.7
2 -6 10 231.88 25.7
2 -6 10 235.68 28
-3 6 -10 347.77 32.2
-3 6 -10 432.86 34.7
3 -6 10 390.76 34.4
-4 6 -10 525.45 38.3
-4 6 -10 447.56 40.1
-5 6 -10 364.36 42.5
-5 6 -10 426.36 38
5 -6 10 437.56 40.9
-6 6 -10 380.26 37.9
6 -6 10 346.87 40.6
-7 6 -10 270.17 40.2
-7 6 -10 303.57 36.3
7 -6 10 291.87 43.6
-8 6 -10 356.66 45.8
8 -6 10 284.87 45.4
-9 6 -10 84.59 33.1
9 6 -11 48.7 34.7
-9 -6 11 26.3 29.2
8 6 -11 10.3 28.5
-8 -6 11 23.1 25.3
7 6 -11 28.3 18.2
7 6 -11 -6.6 20.2
-7 -6 11 58.09 23.1
6 6 -11 5.4 13.9
6 6 -11 12.1 18.8
-6 -6 11 28 19.5
5 6 -11 57.19 18
5 6 -11 32.4 13.8
-5 -6 11 24.5 18.1
-5 -6 11 5.3 14.2
4 6 -11 171.58 25.9
4 6 -11 248.28 25.1
-4 -6 11 227.78 26
-4 -6 11 193.48 27.2
3 6 -11 -7.6 13.1
3 6 -11 13.5 11.3
-3 -6 11 -29.3 12.5
2 6 -11 9.5 10.7
2 6 -11 -4.4 11.1
-2 -6 11 -1 13.2
1 6 -11 250.97 24.8
1 6 -11 227.88 24.6
-1 -6 11 245.88 26.7
0 6 -11 4.4 11.6
0 6 -11 17.2 11.3
0 -6 11 27.8 14.5
-1 6 -11 -4 11.6
-1 6 -11 -14.1 11.2
1 -6 11 8.6 14.3
-2 6 -11 46 15.5
-2 6 -11 34.8 13
2 -6 11 29.4 16.2
-3 6 -11 -7.5 14.1
-4 6 -11 64.49 19.2
-4 6 -11 60.69 17.1
4 -6 11 101.69 21.2
-5 6 -11 29.9 17.1
-5 6 -11 49.5 18.9
5 -6 11 13.6 20.1
-6 6 -11 18.5 20.2
6 -6 11 51.19 23.6
-7 6 -11 12.6 23.5
7 -6 11 45.2 28.5
-8 6 -11 123.99 33.1
8 -6 11 193.98 39.7
8 6 -12 -9.7 30.1
8 6 -12 18.9 21.9
-8 -6 12 61.59 28.3
7 6 -12 53.99 21.4
7 6 -12 60.39 27
-7 -6 12 82.69 24.3
6 6 -12 79.59 19.4
6 6 -12 80.59 23.4
-6 -6 12 62.29 24.1
5 6 -12 92.59 22.1
5 6 -12 109.59 18.6
4 6 -12 32.7 16.4
4 6 -12 29.4 13.6
-4 -6 12 -4.6 15.2
3 6 -12 23.4 14.2
-3 -6 12 17.4 16.2
2 6 -12 28.6 15.3
2 6 -12 11.4 13.7
-2 -6 12 -6.9 14.8
1 6 -12 74.19 19.8
1 6 -12 55.69 18.1
-1 -6 12 60.79 17.7
0 -6 12 43.2 18.1
-1 6 -12 150.48 24.6
-1 6 -12 178.98 29.8
1 -6 12 235.08 28.3
-2 6 -12 8 14.4
-2 6 -12 -16.3 12.9
2 -6 12 11.9 17.3
2 -6 12 -1.1 14.2
-3 6 -12 38.1 14.8
-3 6 -12 24.7 17
3 -6 12 30.2 17.1
-4 6 -12 3.6 15.7
-4 6 -12 9.6 17.9
4 -6 12 12 17.3
-5 6 -12 240.98 34.5
-5 6 -12 225.38 30.8
5 -6 12 198.68 31.5
-6 6 -12 335.17 41.8
-6 6 -12 251.67 36.8
6 -6 12 374.56 45.5
-7 6 -12 206.98 33.9
7 -6 12 203.88 38
-8 6 -12 42.8 30.4
8 -6 12 93.29 37.7
7 6 -13 20.5 26.7
7 6 -13 -19.4 26.4
6 6 -13 25.3 16.7
6 6 -13 53.29 24.3
5 6 -13 3.9 15.3
5 6 -13 -20.1 18.4
4 6 -13 39.5 17.7
4 6 -13 26.9 16.4
3 6 -13 64.09 17.9
3 6 -13 45.8 16.9
2 6 -13 30.1 14.7
2 6 -13 20.8 15
-2 -6 13 -34.7 16
1 6 -13 16.5 14.2
1 6 -13 24.6 14.9
-1 -6 13 1.5 18.5
0 6 -13 122.19 20.7
0 6 -13 100.29 19.2
0 -6 13 69.89 21.9
-1 6 -13 34 16
-1 6 -13 -2.2 15.5
1 -6 13 22 16.4
1 -6 13 4.1 17.8
-2 6 -13 37 17.8
-2 6 -13 71.59 18.1
2 -6 13 36.4 17.6
2 -6 13 -19.2 18.4
-3 6 -13 -13.6 15.1
-3 6 -13 12.7 17.2
3 -6 13 5.3 17.7
-4 6 -13 6.4 20.2
-4 6 -13 22.3 19.4
4 -6 13 12.5 20.9
-5 6 -13 1.1 23.9
-5 6 -13 -5.4 20.9
5 -6 13 28.8 23.7
-6 6 -13 -69.79 23.1
-6 6 -13 61.59 23.9
6 -6 13 5.8 27.6
-7 6 -13 -16.6 29
-7 6 -13 -16.4 30.9
7 -6 13 8.9 33
6 6 -14 111.29 29.5
5 6 -14 162.38 27.3
5 6 -14 162.78 28.9
4 6 -14 433.26 41.7
4 6 -14 355.56 35.2
3 6 -14 275.37 30.4
3 6 -14 269.67 33.8
2 6 -14 122.19 27.6
2 6 -14 131.79 23.1
1 6 -14 8.5 15.6
1 6 -14 14.6 16.3
0 6 -14 3.4 17
0 6 -14 -12.5 15.6
-1 6 -14 19.1 18
-1 6 -14 7.2 16.4
1 -6 14 -3.8 17.2
-2 6 -14 181.38 30.9
-2 6 -14 219.78 31
2 -6 14 184.18 31.1
-3 6 -14 10.1 18.7
-3 6 -14 26.7 21.7
3 -6 14 11.6 20.8
-4 6 -14 16.9 23.3
-4 6 -14 27.9 22
4 -6 14 20 23
-5 6 -14 -19 25
-5 6 -14 -40.1 21.2
5 -6 14 -41.4 24.5
-6 6 -14 -26.1 27.3
-6 6 -14 45.7 30.6
6 -6 14 -4.9 31.3
5 6 -15 23 19.1
5 6 -15 -14.9 24.8
4 6 -15 27.4 22.2
4 6 -15 -2.7 18.6
3 6 -15 -13.3 16.8
3 6 -15 -0.9 21.3
-3 -6 15 16.6 27.3
2 6 -15 136.89 24.5
2 6 -15 94.99 25.4
1 6 -15 4.9 18.4
1 6 -15 -2.6 18.6
0 6 -15 35.2 19.8
0 6 -15 37.3 20.8
-1 6 -15 22.1 19.4
-1 6 -15 -30.4 18
1 -6 15 13.5 20.4
-2 6 -15 38 20.6
-2 6 -15 38 21.7
2 -6 15 23 22.1
-3 6 -15 16.5 21.9
-3 6 -15 26.6 22.7
3 -6 15 27 24.1
-4 6 -15 -34.7 24
-4 6 -15 -37 23.2
4 -6 15 -0.7 25.6
-5 6 -15 35.4 29.6
-5 6 -15 5.5 24.6
5 -6 15 -21 29.4
4 6 -16 128.69 26.4
4 6 -16 146.19 31.8
3 6 -16 112.99 28.2
3 6 -16 91.59 24.2
2 6 -16 96.79 23.9
2 6 -16 87.89 26.3
1 6 -16 -11 19.2
1 6 -16 -26.9 20.1
0 6 -16 143.39 27.4
0 6 -16 159.08 29.4
-1 6 -16 27 23.3
-1 6 -16 -5.8 22.3
1 -6 16 18.1 24.3
-2 6 -16 3.1 23.4
-2 6 -16 -65.39 22.2
2 -6 16 7.7 24.4
-3 6 -16 86.19 30.6
-3 6 -16 83.19 27.8
3 -6 16 116.59 31.4
-4 6 -16 3.7 27.5
-4 6 -16 12.8 30.3
4 -6 16 42.2 30.6
2 6 -17 11 23.4
2 6 -17 12 26.4
1 6 -17 -8.4 22.8
1 6 -17 -2.2 23.9
0 6 -17 44.7 25.7
0 6 -17 47.9 25.8
-1 6 -17 -55.49 24.2
-1 6 -17 27.8 26.8
1 -6 17 11.1 28.5
-2 6 -17 -9.7 27
-2 6 -17 7.1 27.3
2 -6 17 -3.4 28.7
0 -7 -17 230.78 36.3
1 -7 -17 98.49 27.2
-3 -7 -16 264.37 38.8
-2 -7 -16 246.98 40.2
-1 -7 -16 113.39 24.4
0 -7 -16 107.99 23.7
-1 7 16 0.6 10.8
1 -7 -16 2.2 19.9
-2 7 16 26.7 18
2 -7 -16 -10.8 18.3
2 -7 -16 97.19 41.2
-3 7 16 -16.7 22.9
3 -7 -16 52.99 21.6
-4 7 16 70.59 30.1
4 -7 -16 59.09 26.1
-5 -7 -15 33.4 28.2
-4 -7 -15 6 24.6
-3 -7 -15 14.4 22.4
-2 -7 -15 24.8 21.3
-1 -7 -15 -51.19 17.3
0 -7 -15 18.1 17.5
-1 7 15 25.6 11.1
1 -7 -15 37 19
-2 7 15 158.28 27.8
2 -7 -15 190.58 28.9
-3 7 15 43.5 22
3 -7 -15 32.2 19.2
-4 7 15 25.3 25.9
4 -7 -15 38.6 21.1
-5 7 15 -8.6 30.2
5 -7 -15 -28.9 20.8
-6 -7 -14 151.48 36.1
-5 -7 -14 266.07 43.1
-4 -7 -14 201.98 31.1
-3 -7 -14 130.79 25.5
-2 -7 -14 386.26 38.5
-1 -7 -14 192.18 28.5
0 -7 -14 172.88 24.9
-1 7 14 201.38 20.5
1 -7 -14 151.08 23.1
-2 7 14 439.76 38.6
2 -7 -14 498.55 39.3
-3 7 14 45.2 21.3
3 -7 -14 67.59 16.1
3 -7 -14 27.2 17.3
-4 7 14 130.49 28.9
4 -7 -14 127.09 22.3
-5 7 14 44 21.3
-5 7 14 54.79 30.3
5 -7 -14 59.39 21.6
-6 7 14 100.99 23.4
-6 7 14 103.29 36.8
6 -7 -14 135.29 28
-7 -7 -13 56.89 32.5
-6 -7 -13 -18.6 24.8
-5 -7 -13 10.4 23
-4 -7 -13 52.49 21.3
-3 -7 -13 9.9 16.8
-2 -7 -13 23.6 19.2
-1 -7 -13 42 18.4
-1 7 13 49.99 11.8
1 -7 -13 36.1 14.5
-2 7 13 110.29 19
-3 7 13 49.1 19.8
3 -7 -13 57.79 14.5
3 -7 -13 62.99 15.7
-4 7 13 -4.5 21.2
-4 7 13 17.1 13.9
4 -7 -13 20.5 15.2
4 -7 -13 26.7 10.7
-5 7 13 -12.4 29.7
-5 7 13 0.5 15.2
5 -7 -13 -29.6 15.7
-6 7 13 -8.9 28.6
6 -7 -13 -38.3 17.7
-7 7 13 38.8 36.7
-7 7 13 -14.7 19.9
7 -7 -13 -10.5 25.6
-8 -7 -12 66.79 33.1
-7 -7 -12 222.58 37.8
-6 -7 -12 475.05 49
-5 -7 -12 476.65 44.3
-4 -7 -12 491.15 41.1
-3 -7 -12 176.88 25.8
-2 -7 -12 199.98 25.1
-1 -7 -12 219.68 25.1
0 7 12 753.62 44.9
0 -7 -12 797.12 51.49
-1 7 12 150.38 18.6
1 -7 -12 156.18 21
-2 7 12 433.66 36.2
2 -7 -12 474.25 34.8
-3 7 12 318.87 32.8
3 -7 -12 290.57 25.9
3 -7 -12 296.07 27.3
-4 7 12 104.99 16.2
-4 7 12 104.69 24.5
4 -7 -12 114.99 20.3
4 -7 -12 111.19 15.8
-5 7 12 119.29 28
-5 7 12 129.19 22
5 -7 -12 130.99 22
-6 7 12 254.57 28.8
-6 7 12 228.78 40.2
6 -7 -12 179.18 30.9
-7 7 12 124.99 22.4
-7 7 12 114.79 39.7
7 -7 -12 115.59 26.2
-8 7 12 52.29 40.8
-8 7 12 97.39 24
8 -7 -12 51.49 27.6
-8 -7 -11 -38.7 29.4
-6 -7 -11 -4.7 20.1
-5 -7 -11 -5.3 18.3
-4 -7 -11 264.67 31
-3 -7 -11 35.4 14.9
-2 -7 -11 33.5 12.7
-1 -7 -11 57.19 13.7
0 7 11 29.6 6.7
0 -7 -11 26.1 10.8
-1 7 11 138.99 16.9
1 -7 -11 117.09 16.9
-2 7 11 7.9 11.7
2 -7 -11 10.8 10
-3 7 11 51.99 17.7
3 -7 -11 57.09 12.7
-4 7 11 72.89 21.8
-4 7 11 96.29 14.2
4 -7 -11 109.39 17.9
4 -7 -11 87.29 13.1
-5 7 11 26.7 12.3
-5 7 11 -9.2 19.6
5 -7 -11 27.5 14.5
-6 7 11 50.99 14.9
-6 7 11 62.69 29
6 -7 -11 66.99 19.5
-7 7 11 0.7 15.8
-7 7 11 38.1 29.8
7 -7 -11 27.8 21.7
-8 7 11 17.5 19.8
-8 7 11 41.1 37.5
8 -7 -11 30.8 25.2
-8 -7 -10 201.68 37.1
-4 -7 -10 165.48 24.8
-3 -7 -10 386.06 32.7
-2 -7 -10 656.03 44.9
-1 -7 -10 857.91 54.39
0 7 10 461.55 29.2
0 -7 -10 471.05 33
-1 7 10 1517.35 92.19
1 -7 -10 1680.53 93.09
-2 7 10 331.27 27.2
2 -7 -10 275.47 23.9
-3 7 10 416.86 34.5
3 -7 -10 347.07 28.3
-4 7 10 496.75 45.2
-4 7 10 566.54 36.1
4 -7 -10 595.44 39.5
4 -7 -10 557.64 34.4
-5 7 10 242.38 22
-5 7 10 259.67 36.1
5 -7 -10 215.68 15.2
5 -7 -10 269.97 25.8
-6 7 10 561.54 39.8
-6 7 10 611.94 65.29
6 -7 -10 590.74 45
-7 7 10 167.48 37.8
7 -7 -10 208.88 29.2
-8 7 10 159.88 41.4
-8 7 10 162.58 22.7
8 -7 -10 175.28 30.3
-9 7 10 71.69 44.2
-9 7 10 66.99 23.1
9 -7 -10 145.99 34
-9 -7 -9 -16.8 35.7
-9 -7 -9 -18.4 17
-8 -7 -9 22 25.2
-3 -7 -9 417.16 32.8
-2 -7 -9 763.72 49.4
-1 -7 -9 280.47 23.3
0 7 9 4.2 5.2
0 -7 -9 6.5 8
-1 7 9 14.9 7.7
1 -7 -9 -4.9 7.1
-2 7 9 154.08 19.8
2 -7 -9 153.98 16.1
-3 7 9 293.27 29.4
3 -7 -9 311.17 23.8
-4 7 9 -0.9 14.9
-4 7 9 7.8 7.6
4 -7 -9 13.4 9.1
-5 7 9 195.88 19.1
-5 7 9 208.88 33.5
5 -7 -9 216.18 22.8
-6 7 9 -15 19.6
-6 7 9 13.4 10.5
6 -7 -9 -7.6 14.8
-7 7 9 34.8 27
-7 7 9 39.4 13.4
7 -7 -9 30.6 18.2
-8 7 9 110.89 19.6
-8 7 9 205.58 39
8 -7 -9 112.09 25.3
-9 7 9 42.4 19.6
-9 7 9 25.6 35.6
9 -7 -9 2.8 26.4
-9 -7 -8 -31.9 27
-8 -7 -8 84.99 25.9
-8 -7 -8 3.7 13.3
-7 -7 -8 80.49 22.8
-6 -7 -8 100.79 12.8
-2 -7 -8 199.28 19.4
-1 -7 -8 412.86 28.9
0 7 8 741.83 43.2
0 -7 -8 702.33 44.4
-1 7 8 368.76 25.3
1 -7 -8 319.67 23.7
-2 7 8 755.12 47.7
2 -7 -8 696.23 44.1
-3 7 8 533.75 38.7
3 -7 -8 467.95 32.7
-4 7 8 440.96 38.2
-4 7 8 461.65 28.9
4 -7 -8 464.75 32.1
4 -7 -8 452.75 26.9
-5 7 8 1254.37 83.59
-5 7 8 1185.28 72.09
5 -7 -8 1315.67 76.09
-6 7 8 169.98 30.6
-6 7 8 162.18 17.9
6 -7 -8 172.88 23.8
-7 7 8 287.87 25.5
-7 7 8 294.47 44.9
7 -7 -8 310.47 32.5
-8 7 8 325.97 46.6
-8 7 8 237.08 26.6
8 -7 -8 244.08 34.7
-9 7 8 101.89 38.6
-9 7 8 65.69 19.7
9 -7 -8 101.69 29.2
-10 7 8 96.09 24.5
-10 7 8 30.5 41
10 -7 -8 46.9 33
-9 -7 -7 -34.9 16.5
-9 -7 -7 -18.3 26.4
-8 -7 -7 41.9 23.9
-7 -7 -7 83.49 15.8
-7 -7 -7 175.48 27.8
-6 -7 -7 30 9.5
-5 -7 -7 105.49 12.2
-3 -7 -7 19.4 3.9
-2 -7 -7 4.3 3.6
-1 -7 -7 17.1 6.9
-1 -7 -7 8.3 5.1
0 7 7 10.2 5.2
0 -7 -7 12.4 5.7
0 -7 -7 11 6.4
-1 7 7 117.99 13.2
1 -7 -7 105.89 11.2
-2 7 7 28.1 9.3
2 -7 -7 38.9 7.4
-3 7 7 1.6 10.4
3 -7 -7 -2.6 5.9
-4 7 7 16.8 14.2
-4 7 7 17.6 6
4 -7 -7 15.5 2.5
4 -7 -7 7.8 7.5
4 -7 -7 18.5 3.1
-5 7 7 5.4 16.3
-5 7 7 6.1 6.6
5 -7 -7 4.9 8.9
-6 7 7 11 20.1
-6 7 7 21.5 9
6 -7 -7 46.8 12.8
-7 7 7 46 11.8
-7 7 7 35.2 24.2
-8 7 7 45.1 29.4
-8 7 7 27.2 13.9
8 -7 -7 50.79 18.9
-9 7 7 -10.8 30.6
-9 7 7 -30.2 15.5
9 -7 -7 5.2 23.2
-10 7 7 -36.7 38.3
-10 7 7 11.7 21.1
10 -7 -7 50.19 30.5
-10 -7 -6 -29.5 31
-9 -7 -6 68.49 27.6
-8 -7 -6 -16.4 20
-8 -7 -6 10.2 14.8
-7 -7 -6 1.2 11.9
-7 -7 -6 22.5 17.4
-6 -7 -6 26.5 14.1
-3 -7 -6 106.19 9.4
-2 -7 -6 37.9 7
-1 -7 -6 959.3 55.89
0 7 6 354.76 22.3
0 -7 -6 295.97 23
0 -7 -6 324.27 21.4
-1 7 6 590.84 36.5
1 -7 -6 589.64 34.1
1 -7 -6 518.85 37.2
-2 7 6 660.73 40.9
2 -7 -6 645.24 36.5
2 -7 -6 501.95 40.3
-3 7 6 951.1 60.19
3 -7 -6 914.41 54.59
-4 7 6 438.56 36.3
4 -7 -6 453.85 30.3
-5 7 6 261.57 29.5
-5 7 6 256.47 18.5
5 -7 -6 239.28 22.4
-6 7 6 46.8 9.4
-6 7 6 39.4 18.3
6 -7 -6 40.9 12.2
-7 7 6 193.18 19.9
-7 7 6 186.08 34.8
7 -7 -6 189.28 25.9
-8 7 6 62.89 14.6
-8 7 6 87.39 30.4
8 -7 -6 67.99 21
-9 7 6 255.97 44.8
-9 7 6 238.78 28.5
9 -7 -6 274.87 36.9
-10 7 6 210.58 28.2
-10 7 6 181.58 46.3
10 -7 -6 246.78 37.3
-10 -7 -5 104.99 31
-9 -7 -5 -29.4 21.3
-9 -7 -5 17.7 19.3
-8 -7 -5 18.1 15.8
-8 -7 -5 31.8 19.7
-7 -7 -5 -1 14.4
-6 -7 -5 29.9 17.5
-2 -7 -5 166.58 13.2
-1 -7 -5 42.1 8
0 7 5 459.35 27.2
0 -7 -5 369.26 27.6
-1 7 5 283.27 20.2
1 -7 -5 275.17 16.8
1 -7 -5 214.68 20.6
-2 7 5 25.8 8.8
2 -7 -5 19.9 4.5
2 -7 -5 19 9.4
-3 7 5 -0.5 8.9
3 -7 -5 8.7 10.7
3 -7 -5 10.7 2.6
3 -7 -5 15.7 5.5
-4 7 5 59.49 15.5
-4 7 5 51.89 7.2
4 -7 -5 52.19 9.3
-5 7 5 13.4 13.9
-5 7 5 -1.4 5.3
5 -7 -5 -3 7.6
-6 7 5 4.2 16.2
-6 7 5 1.7 7.3
6 -7 -5 14.3 11.3
-7 7 5 12.3 9.4
7 -7 -5 46 15
-8 7 5 13.8 11.6
-8 7 5 -19.5 20.9
8 -7 -5 -5.9 15.5
-9 7 5 -11 28
-9 7 5 29.7 15.4
9 -7 -5 2 20.4
-10 7 5 18.1 19.4
-10 7 5 21.8 34.5
10 -7 -5 4.4 25.2
-10 -7 -4 70.49 28.3
-10 -7 -4 45.6 25
-9 -7 -4 32 19.5
-9 -7 -4 -16.5 19.7
-9 -7 -4 38 22.9
-8 -7 -4 8.2 18.1
-7 -7 -4 132.09 22.4
-6 -7 -4 205.98 26.4
-5 -7 -4 123.89 17
-2 -7 -4 966.4 55.89
0 -7 -4 475.05 31.1
-1 7 4 1494.75 79.69
1 -7 -4 1340.17 75.49
1 -7 -4 1315.27 80.29
1 -7 -4 1322.57 76.99
-2 7 4 200.68 18.1
2 -7 -4 176.78 12.3
2 -7 -4 180.28 12.2
2 -7 -4 169.28 18.7
-3 7 4 1079.49 65.59
3 -7 -4 1139.79 57.99
3 -7 -4 1031.7 60.19
3 -7 -4 914.91 65.29
-4 7 4 1114.19 64.59
-4 7 4 1295.87 74.29
4 -7 -4 1126.89 73.79
4 -7 -4 1115.69 67.49
-5 7 4 290.77 30.1
-5 7 4 269.77 19.5
5 -7 -4 312.77 23.5
-6 7 4 212.88 18.6
-6 7 4 291.77 31.4
6 -7 -4 246.28 23.5
-7 7 4 290.27 37.8
-7 7 4 320.47 24.5
7 -7 -4 323.07 31.1
-8 7 4 271.67 26
-8 7 4 273.87 40.6
8 -7 -4 347.87 34.1
-9 7 4 316.27 48.4
-9 7 4 363.56 32
9 -7 -4 330.17 40.9
-10 7 4 304.57 54.19
-10 7 4 329.87 34.8
10 -7 -4 265.97 46.2
-11 7 4 234.28 49.5
-11 7 4 256.77 37.1
11 -7 -4 160.48 39.3
-10 -7 -3 2.5 26.3
-10 -7 -3 23.4 24.9
-9 -7 -3 127.59 25.5
-9 -7 -3 151.38 25.5
-8 -7 -3 -8.2 14.8
-8 -7 -3 -1.2 17.4
-7 -7 -3 36.1 16
-7 -7 -3 40.8 15.2
-6 -7 -3 78.59 16.9
-5 -7 -3 34.4 10.7
-4 -7 -3 52.09 10
-1 -7 -3 13.7 5.3
-1 -7 -3 7.5 5.1
0 -7 -3 31.9 7.4
0 -7 -3 55.99 7.2
-1 7 3 29.4 7
1 -7 -3 25.7 4.9
1 -7 -3 15.2 7.1
-2 7 3 0.9 6.5
2 -7 -3 4.9 2.8
2 -7 -3 -6.5 7.2
2 -7 -3 0.7 2.5
-3 7 3 13.1 9
3 -7 -3 30.3 10.4
3 -7 -3 19.7 3.1
3 -7 -3 24.5 5.4
-4 7 3 52.29 13.6
-4 7 3 59.99 6.2
4 -7 -3 49.9 13.5
4 -7 -3 30.9 8
-5 7 3 0.5 11.5
-5 7 3 10.4 5.3
5 -7 -3 27.7 13.9
5 -7 -3 20.3 8.8
-6 7 3 44.9 17.4
-6 7 3 55.79 9.4
6 -7 -3 49.3 13.3
-7 7 3 89.29 14.6
-7 7 3 60.89 21.9
7 -7 -3 88.19 17.7
-8 7 3 37.1 21
-8 7 3 3 10.9
8 -7 -3 17.9 17.5
-9 7 3 23 14.7
-9 7 3 -7.5 25.4
9 -7 -3 -4.5 21.4
-10 7 3 71.09 21.1
-10 7 3 108.19 38.3
10 -7 -3 35.8 26.7
-11 7 3 61.19 40.8
-11 7 3 -5.7 22.3
11 -7 -3 -5.1 32.7
-11 -7 -2 42.6 31.5
-10 -7 -2 19.2 21.4
-10 -7 -2 113.69 26.9
-9 -7 -2 177.98 28.6
-9 -7 -2 242.18 30.6
-8 -7 -2 41.1 16.2
-8 -7 -2 25.6 16.7
-7 -7 -2 292.17 28.2
-7 -7 -2 303.77 30.2
-6 -7 -2 89.09 15.9
-6 -7 -2 115.19 17.7
-5 -7 -2 32.5 11.4
-5 -7 -2 40.1 10.4
-4 -7 -2 10.7 7
-4 -7 -2 3.6 7.4
-3 -7 -2 822.72 49.5
-3 -7 -2 775.22 47.5
-2 -7 -2 20.1 6.6
-1 -7 -2 52.09 7.9
-1 -7 -2 53.79 8.1
0 -7 -2 53.39 9.3
0 -7 -2 42.8 6.4
-1 7 2 59.39 9.5
1 -7 -2 34.1 8.2
1 -7 -2 32.2 5.1
-2 7 2 172.08 16.1
2 -7 -2 154.98 11.1
2 -7 -2 187.58 11.7
2 -7 -2 156.58 18
-3 7 2 1070.79 62.89
3 -7 -2 1025.6 56.39
3 -7 -2 857.61 62.49
3 -7 -2 1060.09 58.09
-4 7 2 153.68 11.4
-4 7 2 149.49 12.2
-4 7 2 152.48 19.2
4 -7 -2 150.58 20.4
4 -7 -2 165.38 14.9
-5 7 2 412.76 24.5
-5 7 2 385.76 33
5 -7 -2 273.57 36.8
5 -7 -2 378.96 28.1
-6 7 2 594.44 46.9
-6 7 2 616.94 37.6
6 -7 -2 579.44 41.4
6 -7 -2 574.84 47.3
-7 7 2 411.66 30.4
-7 7 2 443.16 41.5
7 -7 -2 437.46 35.6
-8 7 2 266.37 24.8
-8 7 2 261.37 39.3
8 -7 -2 225.68 31.5
-9 7 2 257.17 40.7
-9 7 2 174.58 25.8
9 -7 -2 236.98 33.3
-10 7 2 142.99 24.4
-10 7 2 148.69 36.6
10 -7 -2 164.48 32
-11 7 2 273.47 37.6
-11 7 2 198.58 46.8
11 -7 -2 184.28 39.2
-11 -7 -1 40.7 33.5
-10 -7 -1 41.4 22.2
-10 -7 -1 36.2 23.4
-9 -7 -1 38.5 19.4
-9 -7 -1 -6.7 16.3
-8 -7 -1 8.7 13.5
-8 -7 -1 10.4 16.8
-7 -7 -1 15.8 12.3
-7 -7 -1 18.2 13.7
-6 -7 -1 18.6 11
-6 -7 -1 -1.3 9.8
-5 -7 -1 20.1 9.2
-4 -7 -1 95.49 13.1
-4 -7 -1 92.89 12.4
-3 -7 -1 135.19 13.6
-3 -7 -1 117.19 11.9
-2 -7 -1 133.59 11.2
-2 -7 -1 173.48 13.8
-1 -7 -1 87.39 9.3
0 7 1 88.49 9.4
0 -7 -1 116.09 9.5
0 -7 -1 103.29 11.2
-1 7 1 282.27 19.4
-1 7 1 312.27 22
1 -7 -1 313.97 19.3
1 -7 -1 297.27 22.7
-2 7 1 1374.16 78.89
-2 7 1 1348.97 74.79
2 -7 -1 1389.86 74.59
2 -7 -1 1214.98 79.29
2 -7 -1 1340.57 75.89
-3 7 1 942.11 54.09
-3 7 1 1032.4 61.49
-3 7 1 1034.9 54.29
-3 7 1 1042.1 55.39
3 -7 -1 917.31 56.99
3 -7 -1 938.71 62.19
-4 7 1 81.29 6.6
-4 7 1 72.39 9.1
-4 7 1 70.09 14
-4 7 1 84.39 9.2
4 -7 -1 80.09 11.5
4 -7 -1 61.99 14.9
-5 7 1 25.2 12.1
-5 7 1 21.9 3.8
-5 7 1 19.7 6.2
5 -7 -1 18.4 8.6
-6 7 1 90.39 12.3
-6 7 1 86.19 19.2
-6 7 1 65.69 7.4
6 -7 -1 68.59 19.1
6 -7 -1 91.49 15.7
-7 7 1 22.8 5.3
-7 7 1 6.9 9.5
-7 7 1 15.1 17.1
7 -7 -1 -13.6 12
-8 7 1 14.2 18.1
-8 7 1 1.2 10.9
-8 7 1 15.2 5.8
8 -7 -1 -0.4 16.6
-9 7 1 26.1 25.4
-9 7 1 53.09 17.1
-9 7 1 27.4 7.7
-9 7 1 38.5 8.4
9 -7 -1 25.7 20
-10 7 1 6.5 9
-10 7 1 2.5 8.2
-10 7 1 28 29.1
-10 7 1 21.9 18.6
10 -7 -1 -45 22.8
-11 7 1 15.4 24
-11 7 1 -16.2 32.6
-10 -7 0 244.48 36.1
-10 -7 0 220.98 31.5
-9 -7 0 106.19 24.5
-9 -7 0 115.79 21.3
-8 -7 0 535.65 42.8
-8 -7 0 506.65 41.1
-7 -7 0 313.57 28.6
-7 -7 0 311.07 27.8
-6 -7 0 240.78 22.4
-6 -7 0 214.58 21.9
-5 -7 0 81.89 13.6
-5 -7 0 97.39 14.1
-4 -7 0 -7.1 5.9
-4 -7 0 -8.2 6.4
-3 -7 0 16.3 6.6
-3 -7 0 15.1 5.6
2 7 0 187.98 16.7
-2 -7 0 248.58 15.1
-2 -7 0 187.88 16.1
1 7 0 207.38 14.6
-1 -7 0 154.98 11.2
-1 -7 0 173.58 13.6
0 7 0 22.3 5
0 -7 0 21.8 6
0 -7 0 15.9 4.4
-1 7 0 195.28 13.1
1 -7 0 187.98 16.3
1 -7 0 172.98 12.9
1 -7 0 166.78 10.8
1 -7 0 161.68 11.1
-2 7 0 195.78 13.4
-2 7 0 194.68 17.2
2 -7 0 191.68 18.7
2 -7 0 196.08 13.6
2 -7 0 188.48 13.8
2 -7 0 191.78 13.9
-3 7 0 20.4 7.9
-3 7 0 7.6 3.4
-3 7 0 17.1 3.7
-3 7 0 14.4 3.1
3 -7 0 21.2 9.9
3 -7 0 9.4 5.2
-4 7 0 -0.6 7.9
-4 7 0 9.6 4.5
-4 7 0 2.7 3.1
-4 7 0 -2.9 4.8
4 -7 0 0 6.1
4 -7 0 3.7 10
-5 7 0 101.19 11.9
-5 7 0 94.69 9.3
-5 7 0 100.89 13.5
-5 7 0 95.49 17.5
5 -7 0 104.09 15
-6 7 0 230.78 26.9
-6 7 0 252.97 20.6
-6 7 0 238.48 17.2
6 -7 0 246.28 23.4
6 -7 0 227.38 29.5
-7 7 0 273.87 24.6
-7 7 0 279.67 20.3
-7 7 0 312.97 33.1
7 -7 0 270.87 27.9
7 -7 0 263.07 34.6
-8 7 0 546.25 47.8
-8 7 0 513.65 33.1
-8 7 0 502.35 37.9
8 -7 0 464.25 41.4
-9 7 0 91.59 19.9
-9 7 0 74.49 26.8
-9 7 0 72.79 12.9
-10 7 0 214.58 31.6
-10 7 0 170.98 36.4
-10 7 0 178.18 21.8
-11 7 0 78.39 16.5
-11 7 0 36.1 24.9
-10 -7 1 -5.5 21.5
-10 -7 1 7.8 20.1
-9 -7 1 3.7 16
-9 -7 1 47 19.7
-8 -7 1 3.9 13.1
-8 -7 1 30.3 15.4
-7 -7 1 5.9 12
-7 -7 1 11.2 11.9
6 7 -1 67.99 13.4
-6 -7 1 88.89 15.1
-6 -7 1 79.69 13.3
5 7 -1 15.5 8.6
-5 -7 1 6.3 7.5
-5 -7 1 7 8.4
4 7 -1 77.89 11
-4 -7 1 81.89 12
-4 -7 1 75.79 11.1
3 7 -1 972.5 60.99
3 7 -1 1094.09 58.89
-3 -7 1 1058.09 60.69
-3 -7 1 950 59.29
2 7 -1 1374.76 78.79
-2 -7 1 1425.26 78.29
-2 -7 1 1262.57 80.39
1 7 -1 279.27 20.6
-1 -7 1 311.37 20.6
-1 -7 1 304.57 18.5
0 7 -1 105.89 9.9
0 -7 1 114.39 10.1
0 -7 1 107.29 11.8
0 -7 1 100.59 7.6
-1 7 -1 82.59 8.4
1 -7 1 80.69 8.9
1 -7 1 87.69 11.7
1 -7 1 71.59 6.9
-2 7 -1 128.79 9.1
-2 7 -1 154.88 15.1
-2 7 -1 145.99 9.2
-2 7 -1 153.98 11.5
2 -7 1 151.18 12.4
2 -7 1 157.48 16.6
2 -7 1 165.48 12.8
-3 7 -1 126.49 9.7
-3 7 -1 108.79 9.8
-3 7 -1 133.19 14.9
-3 7 -1 107.59 9.6
3 -7 1 97.89 16.4
-4 7 -1 123.09 15.9
-4 7 -1 116.89 11.7
-4 7 -1 94.39 10.1
-4 7 -1 100.19 11
4 -7 1 115.79 18.2
-5 7 -1 1.3 9.3
-5 7 -1 6.2 7.3
-5 7 -1 -1.5 6.8
-5 7 -1 12.9 5.5
-6 7 -1 -8.6 9.9
-6 7 -1 -0.6 8.6
-6 7 -1 3.4 6
-6 7 -1 -4.5 12.2
6 -7 1 25.2 16.5
-7 7 -1 7.8 15.7
-7 7 -1 7.9 7.7
-7 7 -1 16.6 10.9
7 -7 1 -4.5 16.8
-8 7 -1 1.1 13.5
-8 7 -1 12.8 20
-9 7 -1 -14.1 16.2
-9 7 -1 -3.9 21
-10 7 -1 27.1 28.7
-10 7 -1 18.6 21.1
-11 7 -1 49.5 35
-10 -7 2 145.89 28.2
-10 -7 2 159.28 27.7
9 7 -2 192.28 29.1
-9 -7 2 213.78 31.8
-9 -7 2 229.58 29.9
8 7 -2 324.97 33
-8 -7 2 298.37 30.5
-8 -7 2 283.77 28.6
7 7 -2 391.46 33.9
-7 -7 2 437.16 32.9
-7 -7 2 376.56 33.4
6 7 -2 592.34 41.1
-6 -7 2 606.04 40.6
5 7 -2 384.16 29.1
-5 -7 2 401.16 29.3
-5 -7 2 413.86 29.7
4 7 -2 141.59 16.1
4 7 -2 150.28 15.1
-4 -7 2 148.59 15.4
-4 -7 2 175.98 15.9
3 7 -2 1034.4 61.89
3 7 -2 999.1 59.79
-3 -7 2 1019.9 60.89
-3 -7 2 1058.99 60.19
2 7 -2 172.18 13.1
2 7 -2 171.48 15.4
-2 -7 2 196.78 15.4
-2 -7 2 180.18 13.6
1 7 -2 37.1 5.1
1 7 -2 38.7 7.1
-1 -7 2 43 7.4
0 7 -2 45 4.6
0 7 -2 45.1 7.1
0 -7 2 56.89 6.3
0 -7 2 49.1 7.7
-1 7 -2 57.99 7.8
-1 7 -2 55.79 5.6
1 -7 2 64.99 10.9
1 -7 2 51.89 8.2
1 -7 2 63.19 7.4
-2 7 -2 21 4.5
-2 7 -2 19.2 3.9
-2 7 -2 18 7.1
-2 7 -2 18.8 4.6
2 -7 2 12.4 5.7
2 -7 2 21.1 6.3
2 -7 2 34.9 9.3
-3 7 -2 701.63 46.1
-3 7 -2 882.81 46.7
-3 7 -2 822.92 50.29
-3 7 -2 772.32 46
3 -7 2 756.92 51.49
-4 7 -2 -1.5 8.1
-4 7 -2 8.7 5.8
-4 7 -2 10.9 6.2
-4 7 -2 -7.8 5.2
4 -7 2 -6.6 9.4
-5 7 -2 30.4 12.1
-5 7 -2 31.5 9.3
-5 7 -2 35.3 8
-5 7 -2 36.2 10.1
-6 7 -2 91.39 18
-6 7 -2 78.39 12.2
-6 7 -2 105.39 16
-6 7 -2 98.89 16.4
6 -7 2 158.38 25.4
-7 7 -2 286.17 23.5
-7 7 -2 336.87 34.6
-7 7 -2 298.07 28.9
7 -7 2 246.58 34.4
-8 7 -2 53.09 20.3
-8 7 -2 52.29 16.3
8 -7 2 12.6 21.3
-9 7 -2 211.18 30.1
-9 7 -2 174.38 31.7
-10 7 -2 78.59 30.5
-10 7 -2 49.4 22.8
-11 7 -2 59.59 33.3
10 7 -3 78.09 29.2
-10 -7 3 80.29 24.7
-10 -7 3 71.99 21.6
9 7 -3 -1.6 20.5
-9 -7 3 -2.3 16.7
-9 -7 3 -6 15
8 7 -3 -9.2 16.1
-8 -7 3 4.3 14.1
-8 -7 3 5.1 13.5
7 7 -3 87.29 17.7
-7 -7 3 84.89 15
-7 -7 3 59.59 15.3
6 7 -3 54.99 14.4
-6 -7 3 64.99 13.3
-6 -7 3 64.69 12.6
5 7 -3 27.6 9.5
5 7 -3 12.1 8.9
-5 -7 3 19.7 9.4
4 7 -3 31.9 9.5
4 7 -3 43.3 9.8
-4 -7 3 61.29 10.3
-4 -7 3 57.19 10.2
3 7 -3 40.4 7.2
3 7 -3 29.8 8.3
-3 -7 3 27.3 6.9
-3 -7 3 23 7.6
2 7 -3 -2.3 4.1
2 7 -3 3.6 5.4
-2 -7 3 3.3 4.6
-2 -7 3 -8 5
1 7 -3 30.4 6.8
1 7 -3 32.3 5.5
-1 -7 3 34.4 5.9
-1 -7 3 42.6 8
0 7 -3 42.5 5.4
0 7 -3 40.4 7.1
0 -7 3 41.7 7.8
0 -7 3 43.3 7.2
-1 7 -3 15.5 5.3
-1 7 -3 15.2 3.5
1 -7 3 14.2 5.3
1 -7 3 21.6 7.7
1 -7 3 21.2 6.5
-2 7 -3 29 6.3
-2 7 -3 19.2 4.9
-2 7 -3 23.7 6.5
2 -7 3 32.1 9.7
2 -7 3 19.9 7.1
-3 7 -3 295.37 19.8
-3 7 -3 252.37 19.7
-3 7 -3 281.27 20.3
-3 7 -3 304.47 23.9
3 -7 3 266.87 24.7
-4 7 -3 36.3 8.8
-4 7 -3 50.79 11.5
-4 7 -3 69.89 11.6
-4 7 -3 49.5 8.6
4 -7 3 38.2 13.5
-5 7 -3 30.4 8.6
-5 7 -3 22.8 9.8
-5 7 -3 17.3 11.2
-5 7 -3 31.6 10.2
-6 7 -3 112.39 20.2
-6 7 -3 89.59 14.8
-6 7 -3 111.79 16.3
-6 7 -3 101.19 16.7
6 -7 3 86.29 20.2
-7 7 -3 46 16.4
-7 7 -3 57.69 15.4
-7 7 -3 40.3 15
7 -7 3 41.8 20
-8 7 -3 29.3 19
-8 7 -3 45.7 16.8
-8 7 -3 34.3 17.5
8 -7 3 4.9 21.6
-9 7 -3 163.28 28.6
-9 7 -3 179.58 31.7
-9 7 -3 144.99 24.8
-10 7 -3 -19.1 25.4
-10 7 -3 51.79 23.2
-10 7 -3 0 27.9
-11 7 -3 45.4 34.5
-11 7 -3 6.1 34.8
11 7 -4 208.58 40.3
10 7 -4 313.37 45.2
-10 -7 4 290.97 37.3
-10 -7 4 347.77 38
9 7 -4 371.06 42.4
-9 -7 4 335.67 35.5
-9 -7 4 362.66 35.4
8 7 -4 267.37 31.1
-8 -7 4 240.48 28.5
-8 -7 4 280.37 29.2
7 7 -4 316.17 31
-7 -7 4 318.67 29.3
-7 -7 4 359.06 28.8
6 7 -4 237.18 24.7
-6 -7 4 263.87 22.7
-6 -7 4 203.58 22.1
5 7 -4 287.47 24.9
5 7 -4 284.07 24.7
-5 -7 4 308.47 24.1
-5 -7 4 297.07 23.9
4 7 -4 1149.19 72.59
4 7 -4 1220.38 73.69
-4 -7 4 1275.57 73.19
-4 -7 4 1269.57 72.69
3 7 -4 1111.29 67.99
3 7 -4 1166.78 69.39
-3 -7 4 1178.88 69.09
-3 -7 4 1209.58 68.49
2 7 -4 172.88 15.7
2 7 -4 171.98 14.7
-2 -7 4 202.28 16.7
-2 -7 4 200.58 15.2
1 7 -4 1392.56 79.59
1 7 -4 1414.26 78.09
-1 -7 4 1320.67 79.99
-1 -7 4 1381.66 78.79
0 7 -4 498.75 31.8
0 7 -4 467.45 30.1
0 -7 4 541.35 33.3
0 -7 4 511.85 31.5
1 -7 4 38.5 8.6
1 -7 4 61.69 9.4
1 -7 4 40.5 9.8
-2 7 -4 947.61 53.19
-2 7 -4 950.8 54.79
2 -7 4 864.31 56.99
2 -7 4 885.31 55.09
-3 7 -4 156.78 15
-3 7 -4 150.38 16
-3 7 -4 190.28 15.9
-3 7 -4 208.28 18.5
3 -7 4 186.28 20.2
-4 7 -4 89.69 12.7
-4 7 -4 65.59 11.9
-4 7 -4 109.99 16.3
-4 7 -4 75.29 12.9
4 -7 4 65.29 16.1
-5 7 -4 111.09 15.9
-5 7 -4 119.29 16.2
-5 7 -4 116.19 15.7
-5 7 -4 125.99 19.2
5 -7 4 117.69 21
-6 7 -4 279.57 23.3
-6 7 -4 214.88 24.7
-6 7 -4 236.98 24.1
-6 7 -4 208.78 23.6
6 -7 4 181.28 28.5
-7 7 -4 116.09 21.2
-7 7 -4 123.69 20.9
-7 7 -4 110.19 19.4
7 -7 4 89.99 24.9
-8 7 -4 13 17.1
-8 7 -4 12.2 15.9
-8 7 -4 8.5 18.8
8 -7 4 -19.1 23.2
-9 7 -4 29.9 22.3
-9 7 -4 37.3 22.6
-9 7 -4 29.9 21.1
-10 7 -4 25.5 24.8
-10 7 -4 34.4 25.9
-10 7 -4 -4.9 26.7
-11 7 -4 7.5 34.2
-11 7 -4 -32.6 32
-11 7 -4 36.3 30.8
10 7 -5 17.3 27.6
-10 -7 5 23.8 20.8
9 7 -5 61.49 24.5
-9 -7 5 10.3 18.2
-9 -7 5 20.4 19
8 7 -5 10.4 19.2
-8 -7 5 6.2 15.1
-8 -7 5 2.7 16
7 7 -5 -0.3 14.9
-7 -7 5 -1.3 12.4
-7 -7 5 40.1 13.5
6 7 -5 -10.2 10.1
6 7 -5 -4.5 11.6
-6 -7 5 20 10.8
-6 -7 5 -2.9 9.7
5 7 -5 1.2 8.9
5 7 -5 10.5 10.2
-5 -7 5 -15.8 8.1
-5 -7 5 -5.8 9
4 7 -5 59.39 11.1
4 7 -5 35 10.1
-4 -7 5 41.7 10.5
-4 -7 5 38.4 9.9
3 7 -5 7.3 7.2
3 7 -5 6.6 6.6
-3 -7 5 14.5 7.4
-3 -7 5 3.4 6.9
2 7 -5 27.5 7.5
2 7 -5 23.5 6.9
-2 -7 5 20.1 6.8
-2 -7 5 21.7 8.1
1 7 -5 286.77 19.8
1 7 -5 280.77 20.9
-1 -7 5 255.37 20.3
-1 -7 5 314.47 22.1
0 7 -5 434.16 27.5
0 7 -5 450.45 29.3
0 -7 5 416.86 28.7
0 -7 5 449.66 30.6
-1 7 -5 48 8.7
-1 7 -5 50.29 8.1
1 -7 5 69.09 10.6
1 -7 5 57.79 10.4
1 -7 5 42.4 10.1
-2 7 -5 152.48 13.7
-2 7 -5 161.58 15.3
2 -7 5 154.78 17.7
2 -7 5 154.88 16.5
-3 7 -5 12.5 7.1
-3 7 -5 6.8 7
3 -7 5 19.2 10
3 -7 5 3 9.3
-4 7 -5 87.99 14.3
-4 7 -5 91.19 15.3
-4 7 -5 98.49 14.1
-4 7 -5 99.79 13.3
4 -7 5 91.29 17.8
-5 7 -5 141.99 18
-5 7 -5 144.99 18.9
-5 7 -5 123.29 18.4
-5 7 -5 129.89 17
5 -7 5 132.29 23.1
-6 7 -5 42.2 14.4
-6 7 -5 64.09 14.2
-6 7 -5 54.49 14.3
-6 7 -5 62.19 16.2
6 -7 5 27.2 18.9
-7 7 -5 6.6 13.9
-7 7 -5 15 15.3
-7 7 -5 -11.3 14.5
7 -7 5 -8.5 18.8
-8 7 -5 16.6 17.7
-8 7 -5 45.7 19.5
8 -7 5 -6.6 23.1
-9 7 -5 35.8 24.5
-9 7 -5 21.7 20.7
-9 7 -5 28.9 20.7
-10 7 -5 60.39 33.3
-10 7 -5 148.99 31.7
-10 7 -5 140.59 33.4
10 7 -6 215.38 36.5
-10 -7 6 211.38 31.7
9 7 -6 271.87 39.4
-9 -7 6 287.77 33.7
-9 -7 6 291.57 33.7
8 7 -6 29 21.2
-8 -7 6 70.89 18.6
-8 -7 6 86.29 19
7 7 -6 192.08 26.7
7 7 -6 167.08 22.8
-7 -7 6 131.39 21.4
-7 -7 6 200.28 24.8
6 7 -6 26.9 12.1
6 7 -6 35.3 13.8
-6 -7 6 47.6 13.7
-6 -7 6 45.9 13.1
5 7 -6 288.07 24.4
5 7 -6 263.17 25.4
-5 -7 6 280.27 24.2
-5 -7 6 247.58 23.5
4 7 -6 388.16 30.7
4 7 -6 451.95 31
-4 -7 6 445.36 31
3 7 -6 1059.19 62.79
3 7 -6 1049.2 63.29
-3 -7 6 1025.9 62.99
2 7 -6 645.94 41.8
2 7 -6 617.24 40.6
-2 -7 6 637.04 42.7
-2 -7 6 729.23 42.1
1 7 -6 619.44 38.2
1 7 -6 597.04 36.7
-1 -7 6 551.04 39.1
-1 -7 6 597.54 38
0 7 -6 323.57 22.1
0 7 -6 322.07 23.8
0 -7 6 303.97 25
0 -7 6 337.37 24.5
-1 7 -6 823.62 53.69
-1 7 -6 899.71 52.59
1 -7 6 910.51 54.79
1 -7 6 897.81 55.79
-2 7 -6 43.5 8.5
-2 7 -6 44.1 9.7
2 -7 6 43.6 11.1
2 -7 6 82.19 14.3
-3 7 -6 89.49 13
-3 7 -6 85.19 13.9
3 -7 6 124.39 17.5
3 -7 6 70.79 14.4
-4 7 -6 14.9 9.4
-4 7 -6 15.9 9.4
4 -7 6 5.4 11.3
-5 7 -6 74.69 22.5
-5 7 -6 80.59 15.1
-5 7 -6 107.39 17.7
-5 7 -6 102.79 16.7
5 -7 6 103.99 20.3
-6 7 -6 37.6 14.1
-6 7 -6 54.69 14
-6 7 -6 40.7 15
-6 7 -6 41.7 15.2
6 -7 6 56.49 19.5
-7 7 -6 22.6 15
-7 7 -6 29.8 16.3
-7 7 -6 10.3 15.8
7 -7 6 22.7 20.8
-8 7 -6 -17.7 18.9
-8 7 -6 -23.1 18.2
-8 7 -6 24.2 18.2
8 -7 6 43.1 25.5
-9 7 -6 53.49 24.7
-9 7 -6 28.8 25.6
9 -7 6 8.8 31.2
-10 7 -6 0.4 30.2
-10 7 -6 31.6 27.4
10 7 -7 83.99 32.1
-10 -7 7 15.8 23
9 7 -7 -7.4 25.1
-9 -7 7 -24.2 17.2
8 7 -7 32.9 22.3
-8 -7 7 11.2 16.9
-8 -7 7 25.4 16.5
7 7 -7 36.2 14.7
7 7 -7 53.59 20
-7 -7 7 14.7 15.8
-7 -7 7 23.9 15.1
6 7 -7 31.6 14.5
6 7 -7 28.4 13.3
-6 -7 7 22.4 12.8
-6 -7 7 15.5 12.6
5 7 -7 8.6 9.8
5 7 -7 9.9 11.3
-5 -7 7 14.5 10.6
-5 -7 7 11.1 10.5
4 7 -7 23.5 9.3
4 7 -7 23.6 10.9
-4 -7 7 28.4 10.7
-4 -7 7 20.1 10.3
3 7 -7 6 7.7
3 7 -7 3.9 7.7
-3 -7 7 6.7 8.3
-3 -7 7 -1.5 8.9
2 7 -7 39.4 8.9
2 7 -7 45.3 9.7
-2 -7 7 26.1 9.6
1 7 -7 107.99 13.2
1 7 -7 125.69 13.7
-1 -7 7 113.09 15.8
-1 -7 7 98.39 14.7
0 7 -7 16.7 7
0 7 -7 13.4 7.9
0 -7 7 -4.1 7.9
0 -7 7 8.7 8.1
-1 7 -7 10.3 6.8
-1 7 -7 24.6 8.6
1 -7 7 6.3 8.8
1 -7 7 19 9.1
-2 7 -7 7.9 8
-2 7 -7 11.3 8.3
2 -7 7 10.4 9.6
2 -7 7 19 10.5
-3 7 -7 22.3 9.5
-3 7 -7 33.2 10.6
3 -7 7 18.4 11.3
3 -7 7 22.2 12.2
-4 7 -7 73.69 14.5
-4 7 -7 89.19 15.5
-5 7 -7 116.99 19.4
-5 7 -7 131.59 19.9
5 -7 7 129.59 24.6
-6 7 -7 41.4 15.5
-6 7 -7 31.3 14.3
-6 7 -7 39 15.3
-6 7 -7 22 15.4
6 -7 7 30.3 18.3
-7 7 -7 209.98 31.2
-7 7 -7 157.28 25.3
7 -7 7 152.38 29.4
-8 7 -7 39.8 23.4
-8 7 -7 30.5 23.3
-8 7 -7 48.1 20.2
8 -7 7 34 28.1
-9 7 -7 -22.3 23.8
-9 7 -7 41.7 25.4
9 -7 7 22.9 31
-10 7 -7 -5.7 24.3
-10 7 -7 -13.2 30.2
-10 7 -7 -8.7 31.7
10 7 -8 56.99 35
-10 -7 8 90.69 28.3
9 7 -8 102.89 29.5
-9 -7 8 100.49 24.3
8 7 -8 225.28 29.9
8 7 -8 289.07 38.4
-8 -7 8 266.57 33.3
7 7 -8 331.87 34.8
7 7 -8 293.17 33.8
-7 -7 8 236.28 30.9
-7 -7 8 294.67 32.3
6 7 -8 181.18 24.3
6 7 -8 191.08 26.2
-6 -7 8 204.38 23.6
-6 -7 8 153.98 23.7
5 7 -8 1318.27 76.99
5 7 -8 1166.78 76.79
-5 -7 8 1258.67 77.39
4 7 -8 464.55 34.2
4 7 -8 519.95 35.7
-4 -7 8 424.16 34.6
-4 -7 8 504.45 36.6
3 7 -8 501.05 34.9
3 7 -8 533.35 35.5
-3 -7 8 454.95 36.7
-3 -7 8 516.65 36.3
2 7 -8 740.43 44
2 7 -8 706.53 44.5
-2 -7 8 588.94 45.4
1 7 -8 338.67 26.1
1 7 -8 330.27 25.2
-1 -7 8 335.37 28
-1 -7 8 344.37 26.8
0 7 -8 712.03 44.9
0 7 -8 735.43 43.8
0 -7 8 602.94 44.7
-1 7 -8 440.26 29.8
-1 7 -8 407.66 31
1 -7 8 391.06 31.4
-2 7 -8 233.08 21.8
-2 7 -8 220.88 20.5
2 -7 8 222.88 23
-3 7 -8 159.58 19.2
-3 7 -8 191.38 20.8
3 -7 8 178.18 21.9
3 -7 8 191.28 24
-4 7 -8 255.47 25.9
-4 7 -8 241.78 25.1
4 -7 8 251.67 29.1
-5 7 -8 47.6 14.4
-5 7 -8 38.6 14.8
5 -7 8 64.89 18.8
-6 7 -8 158.28 24.4
-6 7 -8 160.48 25.5
-6 7 -8 154.88 24
6 -7 8 117.59 25.2
-7 7 -8 60.69 21.3
-7 7 -8 45.4 17.9
-7 7 -8 47 20.4
7 -7 8 82.09 25.5
-8 7 -8 8.5 22.5
-8 7 -8 39.7 23.4
-8 7 -8 6.8 18.9
8 -7 8 12.9 29.2
-9 7 -8 39 28.3
-9 7 -8 2.9 22.1
9 -7 8 35.5 37.6
9 7 -9 45.9 30.2
-9 -7 9 22.1 26
8 7 -9 127.89 24
8 7 -9 115.59 29.2
-8 -7 9 126.89 24.5
7 7 -9 37.1 18
7 7 -9 24.3 21.2
-7 -7 9 53.29 18.8
6 7 -9 9.3 15.2
6 7 -9 17.6 13
-6 -7 9 25.8 15.3
-6 -7 9 0.7 15.2
5 7 -9 198.28 24.3
5 7 -9 186.78 24.5
-5 -7 9 211.08 25.5
-5 -7 9 228.18 26
4 7 -9 -1.5 11.8
4 7 -9 16.3 10
-4 -7 9 7.1 11.2
-4 -7 9 47.3 14.4
3 7 -9 304.87 27
3 7 -9 355.26 27.1
-3 -7 9 337.07 29.3
-3 -7 9 306.47 27.7
2 7 -9 172.58 19
2 7 -9 178.78 19.4
-2 -7 9 178.88 20.5
-2 -7 9 230.38 23.3
1 7 -9 -0.7 7.9
1 7 -9 -9.2 8.7
-1 -7 9 4.3 10.8
0 7 -9 0.5 8.5
0 7 -9 -3 8.5
0 -7 9 26.3 12.1
-1 7 -9 254.57 24.6
-1 7 -9 286.37 23.6
1 -7 9 259.77 25.6
-2 7 -9 735.73 49.1
-2 7 -9 705.13 46.6
2 -7 9 734.93 49.9
2 -7 9 697.93 53.29
-3 7 -9 435.26 35.2
-3 7 -9 464.05 33.9
3 -7 9 447.46 38.1
3 -7 9 420.36 41.6
-4 7 -9 291.17 29.7
-4 7 -9 330.07 29.3
4 -7 9 301.87 33.4
-5 7 -9 19.4 16.2
-5 7 -9 28.2 15.1
5 -7 9 20.3 18.7
-6 7 -9 6.8 17.2
6 -7 9 10 20.5
-7 7 -9 18.9 20.2
-7 7 -9 17.7 21.9
7 -7 9 -24.5 25
-8 7 -9 25.2 23.8
-8 7 -9 -8.5 25.5
-8 7 -9 -2 18.4
8 -7 9 5.6 29.5
-9 7 -9 1.5 28.8
-9 7 -9 13.8 22.4
-9 7 -9 37.3 31
9 -7 9 11.5 37.8
9 7 -10 133.39 34.5
-9 -7 10 62.99 27.6
8 7 -10 130.19 30.4
8 7 -10 198.98 33.9
-8 -7 10 254.77 37.9
7 7 -10 196.28 27.3
7 7 -10 169.78 28.7
-7 -7 10 179.78 27.4
6 7 -10 548.55 43.1
6 7 -10 585.04 47.3
-6 -7 10 582.54 47.5
5 7 -10 219.18 27.4
5 7 -10 335.67 31.6
-5 -7 10 284.07 28.9
-5 -7 10 247.48 30
4 7 -10 565.54 41.9
4 7 -10 599.64 41.4
-4 -7 10 613.34 45.6
-4 -7 10 531.15 42.3
3 7 -10 382.46 31.2
3 7 -10 356.06 29.8
-3 -7 10 379.46 31.7
-3 -7 10 367.86 33.5
2 7 -10 300.87 25.8
2 7 -10 279.57 24.8
-2 -7 10 274.77 26.5
1 7 -10 1669.83 98.19
1 7 -10 1726.13 99.39
-1 -7 10 1611.14 100.29
0 7 -10 461.75 34.6
0 7 -10 480.35 35.8
0 -7 10 497.45 37.7
-1 7 -10 880.51 55.09
-1 7 -10 757.22 52.09
1 -7 10 829.92 56.39
-2 7 -10 612.44 43.6
-2 7 -10 659.33 46.2
2 -7 10 570.24 47.1
2 -7 10 733.93 48
-3 7 -10 471.55 36.6
-3 7 -10 393.86 32.9
3 -7 10 453.55 38.1
3 -7 10 402.66 35.8
-4 7 -10 200.08 25.8
-4 7 -10 241.48 27.9
4 -7 10 153.48 28.7
-5 7 -10 462.45 41.7
-5 7 -10 519.85 41.4
5 -7 10 462.35 45.2
-6 7 -10 440.26 40.4
-6 7 -10 447.66 42.3
6 -7 10 484.15 48.2
-7 7 -10 14.5 20.3
-7 7 -10 42.6 24.3
-7 7 -10 41.7 22.5
7 -7 10 -5.9 26.5
-8 7 -10 190.48 35
8 -7 10 147.09 37.4
-9 7 -10 30.7 32.3
9 -7 10 -7.5 38.3
8 7 -11 26.2 22
8 7 -11 21.7 27.9
-8 -7 11 -42.3 23.7
7 7 -11 -6.3 16.7
7 7 -11 24.4 22.6
-7 -7 11 32.9 21.4
6 7 -11 74.79 21.6
6 7 -11 36.4 15.9
-6 -7 11 56.99 20.5
5 7 -11 23.8 18.3
5 7 -11 5 14
-5 -7 11 -6.3 16.7
-5 -7 11 8 18.5
4 7 -11 81.99 18.3
-4 -7 11 66.29 20
-4 -7 11 116.89 20.3
3 7 -11 50.89 14
-3 -7 11 40.8 16.6
2 7 -11 -3.2 11.1
2 7 -11 5.2 11.3
-2 -7 11 19.7 14.8
1 7 -11 131.99 18.7
1 7 -11 117.29 19.8
-1 -7 11 142.69 22.7
0 7 -11 31.3 12.8
0 7 -11 37.8 12.6
0 -7 11 25.8 14.8
-1 7 -11 24.8 13.5
-1 7 -11 23.4 12.8
1 -7 11 34.5 16
-2 7 -11 1.1 12.6
2 -7 11 43.6 15.9
2 -7 11 27.6 17.8
-3 7 -11 0.4 14.6
3 -7 11 21.8 16
3 -7 11 54.89 19.5
-4 7 -11 218.88 28.6
-4 7 -11 255.07 31.1
4 -7 11 252.97 31.5
-5 7 -11 4.2 17.1
-5 7 -11 27 17.2
5 -7 11 -7.2 20.8
-6 7 -11 -23.6 18.8
-6 7 -11 -13.6 22.5
6 -7 11 24.8 25.3
-7 7 -11 80.29 26.7
-7 7 -11 116.89 28.8
7 -7 11 59.49 31.3
-8 7 -11 20.9 27.7
-8 7 -11 3.7 26.6
8 -7 11 -32.4 33
8 7 -12 75.19 33.4
8 7 -12 101.69 24.9
7 7 -12 108.19 28.4
7 7 -12 117.89 24.8
-7 -7 12 170.88 31.5
6 7 -12 263.57 36.9
6 7 -12 246.58 32
-6 -7 12 234.48 36.3
5 7 -12 116.59 21
5 7 -12 142.19 24.5
-5 -7 12 134.69 26.2
4 7 -12 115.19 21.9
4 7 -12 101.59 20.4
3 7 -12 295.47 27.2
3 7 -12 269.37 28.1
-3 -7 12 188.38 29.1
2 7 -12 489.65 38.5
2 7 -12 542.45 40
-2 -7 12 455.55 42.1
1 7 -12 137.19 22
1 7 -12 162.68 23.2
-1 -7 12 196.18 27
0 7 -12 674.13 51.89
0 7 -12 786.32 57.79
0 -7 12 830.82 56.99
-1 7 -12 225.28 26.6
-1 7 -12 199.88 24.9
1 -7 12 231.08 29
1 -7 12 211.08 29.9
-2 7 -12 206.78 28
-2 7 -12 225.18 26.9
2 -7 12 183.58 30.5
2 -7 12 242.38 30.1
-3 7 -12 148.79 24.3
-3 7 -12 172.58 27.7
3 -7 12 180.28 29.9
-4 7 -12 487.15 40.3
-4 7 -12 448.66 45.2
4 -7 12 501.25 45.3
-5 7 -12 435.46 44.1
-5 7 -12 439.36 40.3
5 -7 12 420.46 47.1
-6 7 -12 511.85 49
-6 7 -12 526.15 50.59
6 -7 12 489.45 55.19
-7 7 -12 249.58 40.1
-7 7 -12 303.87 43.7
7 -7 12 242.88 42.3
-8 7 -12 75.79 34.2
-8 7 -12 87.49 33.5
8 -7 12 20.9 40.1
7 7 -13 26.8 28.6
6 7 -13 26.8 24.6
6 7 -13 -42.1 16.5
5 7 -13 18.1 18.7
5 7 -13 12.3 16.6
4 7 -13 44 18.9
4 7 -13 18 15.7
3 7 -13 57.99 18.9
3 7 -13 62.19 25
2 7 -13 145.19 22.6
2 7 -13 107.89 20.6
1 7 -13 46.1 16.4
1 7 -13 49.8 16.8
-1 -7 13 -2.6 19.9
0 7 -13 75.09 17.4
0 7 -13 35.5 16.9
0 -7 13 19.2 17.8
-1 7 -13 41.8 16.9
-1 7 -13 16.1 16.1
1 -7 13 -1.2 20
1 -7 13 23.9 17.8
-2 7 -13 82.39 19.2
-2 7 -13 30.4 18.7
2 -7 13 16.4 17.6
-3 7 -13 34.9 18.7
-3 7 -13 -0.6 18.2
3 -7 13 -7.5 19.6
-4 7 -13 20.5 18.5
-4 7 -13 35.8 22.1
4 -7 13 8.1 24
-5 7 -13 9.4 19.8
-5 7 -13 14 23.9
5 -7 13 1.4 25.9
-6 7 -13 -6.8 23.2
-6 7 -13 34.4 25.9
6 -7 13 37.9 31.4
-7 7 -13 -13.2 29.4
-7 7 -13 17.5 29.1
7 -7 13 23.9 36.6
6 7 -14 123.59 31
6 7 -14 102.49 28.6
5 7 -14 67.89 24.8
5 7 -14 14.5 18.1
4 7 -14 112.89 24.4
4 7 -14 147.39 26.8
3 7 -14 24.5 19.7
2 7 -14 500.25 42.3
2 7 -14 503.75 42.5
1 7 -14 205.58 28.7
1 7 -14 165.48 27.5
0 7 -14 104.69 22.4
0 7 -14 167.18 25
-1 7 -14 214.78 28.7
-1 7 -14 177.18 27.4
1 -7 14 178.98 28.9
-2 7 -14 354.26 35.8
-2 7 -14 355.56 38
2 -7 14 367.66 39.9
-3 7 -14 108.19 25.8
-3 7 -14 67.89 21.9
3 -7 14 161.68 29.3
-4 7 -14 235.98 32.6
-4 7 -14 158.48 32
4 -7 14 118.29 32.2
-5 7 -14 307.97 44.1
-5 7 -14 279.47 40.4
5 -7 14 253.57 40.5
-6 7 -14 142.89 32.2
-6 7 -14 201.38 39.2
6 -7 14 102.69 38.1
5 7 -15 9 26.7
5 7 -15 21.6 21.1
4 7 -15 37.5 23.6
4 7 -15 -3.6 19.4
3 7 -15 24.7 22.8
3 7 -15 -6.8 18.8
2 7 -15 214.78 31.3
2 7 -15 179.38 28.5
1 7 -15 13.1 19.8
1 7 -15 5.9 18.6
0 7 -15 -10.7 17.8
0 7 -15 11.8 19.4
-1 7 -15 -18.5 19.6
-1 7 -15 25.1 19.5
1 -7 15 9.7 22.3
-2 7 -15 57.19 23.1
-2 7 -15 22.9 20.4
2 -7 15 48.3 25.2
-3 7 -15 12.9 21.3
-3 7 -15 22.2 22
3 -7 15 -3.5 25.5
-4 7 -15 9.3 27.1
-4 7 -15 35.9 23.3
4 -7 15 21.4 29.9
-5 7 -15 21.1 30.4
-5 7 -15 -56.89 25.7
5 -7 15 24 33.7
4 7 -16 -3.9 21.9
4 7 -16 40.4 28.7
3 7 -16 15.2 25.3
3 7 -16 7.4 21.2
2 7 -16 27 23.6
2 7 -16 31.1 20.9
1 7 -16 5.2 22
1 7 -16 23.7 22
0 7 -16 147.59 28.4
0 7 -16 96.19 25.7
-1 7 -16 136.99 29.6
-1 7 -16 147.69 27.7
1 -7 16 124.69 31
-2 7 -16 324.27 43.1
-2 7 -16 331.97 42.7
2 -7 16 235.78 45.3
-3 7 -16 260.57 40.2
-3 7 -16 358.76 44.9
3 -7 16 243.68 40.2
1 7 -17 64.89 26.7
1 7 -17 84.89 29
0 7 -17 193.18 33.5
0 7 -17 180.38 33.8
-1 7 -17 41.7 27.8
-1 7 -17 24.5 28.1
1 -7 17 30.5 30.9
-3 -8 -16 166.58 32.8
-2 -8 -16 5.5 23.9
-1 -8 -16 3.3 22.3
0 -8 -16 116.99 25.5
1 -8 -16 4.5 21.9
-2 8 16 66.99 18.6
2 -8 -16 74.99 22.8
-3 8 16 271.17 40.7
3 -8 -16 334.67 38.3
-4 -8 -15 3.5 26.6
-3 -8 -15 89.19 24.4
-2 -8 -15 22.4 20.4
-1 -8 -15 -4.1 18
0 -8 -15 52.09 19.9
-1 8 15 5.9 9.9
1 -8 -15 22 19.1
-2 8 15 34.2 16.9
2 -8 -15 4.5 18.2
-3 8 15 -20.5 20.1
3 -8 -15 -8.1 18.8
-4 8 15 3.8 26
4 -8 -15 -39.5 21.2
-5 8 15 8.5 32.2
5 -8 -15 -23.5 22.9
-5 -8 -14 40.6 26.2
-4 -8 -14 -18.7 22.8
-3 -8 -14 -11.4 18.9
-2 -8 -14 20.5 17.8
-1 -8 -14 32.5 17.1
0 -8 -14 17.2 16.6
-1 8 14 7.7 10.2
1 -8 -14 -2.8 14.9
-2 8 14 138.89 25.5
2 -8 -14 107.49 21
-3 8 14 103.69 23.6
3 -8 -14 113.39 21.2
3 -8 -14 107.89 18.6
-4 8 14 124.29 28.9
4 -8 -14 124.99 24.1
-5 8 14 117.39 32.8
5 -8 -14 118.69 24.4
-6 8 14 -12.5 33.9
6 -8 -14 -17.7 23.3
-6 -8 -13 50.59 27.9
-5 -8 -13 -17.2 23.5
-4 -8 -13 53.39 21.9
-3 -8 -13 18.7 18.8
-2 -8 -13 90.99 19.7
-1 -8 -13 19 16.4
0 -8 -13 47.7 15.8
-1 8 13 26.1 10.9
1 -8 -13 12.7 13.3
-2 8 13 67.89 16.6
-3 8 13 15.2 18.1
3 -8 -13 39.8 13.4
3 -8 -13 51.49 15.5
-4 8 13 1 21.3
4 -8 -13 26.4 16.1
4 -8 -13 10.4 10.6
5 -8 -13 58.89 19.5
-6 8 13 61.09 32.4
-6 8 13 -9.8 15.7
6 -8 -13 10.1 21.4
-7 8 13 9.3 37.6
7 -8 -13 55.49 26.4
-7 -8 -12 41.8 30
-6 -8 -12 195.88 32.1
-5 -8 -12 192.88 30.3
-4 -8 -12 22.8 18.1
-3 -8 -12 63.59 17.8
-2 -8 -12 25.8 14.7
-1 -8 -12 70.89 16.3
0 -8 -12 195.18 22.3
-1 8 12 78.59 13
1 -8 -12 78.89 15.9
-2 8 12 52.99 15.2
2 -8 -12 75.99 15
-3 8 12 38.8 17
3 -8 -12 23.1 12.5
-4 8 12 62.39 21.7
4 -8 -12 65.69 17.8
4 -8 -12 82.39 12.3
-5 8 12 69.49 13.7
-5 8 12 60.29 25.8
5 -8 -12 41.2 17.1
-6 8 12 65.09 30.8
-6 8 12 87.19 17.2
6 -8 -12 131.09 24.8
-7 8 12 208.08 28
-7 8 12 147.09 41.7
7 -8 -12 163.28 30.5
-8 -8 -11 -6 33.2
-5 -8 -11 55.29 21.1
-4 -8 -11 54.99 18.8
-3 -8 -11 7.4 13.8
-2 -8 -11 9.1 12.5
-1 -8 -11 1.4 10.7
0 -8 -11 67.29 14.2
-1 8 11 -1.2 8.9
1 -8 -11 11.5 10.3
-2 8 11 5.7 11.6
2 -8 -11 6.1 9.5
-3 8 11 16.4 15
3 -8 -11 29.4 11.7
-4 8 11 43.8 19.2
4 -8 -11 4.5 7.6
4 -8 -11 -15.6 11.5
-5 8 11 41.7 23.4
-5 8 11 55.69 12.1
5 -8 -11 85.29 17.9
-6 8 11 39.2 13.3
-6 8 11 15.3 27
6 -8 -11 34.7 17.6
-7 8 11 12.7 30.8
-7 8 11 6.2 15.3
7 -8 -11 48 22.5
-8 8 11 16.3 37
-8 8 11 31.8 19.3
8 -8 -11 57.19 27.8
-8 -8 -10 336.17 49.9
-3 -8 -10 18.5 13
-2 -8 -10 35.7 12.4
-1 -8 -10 13.2 10.2
0 8 10 2 5.9
0 -8 -10 -10 8.2
-1 8 10 21.8 9.1
1 -8 -10 28.1 9.5
-2 8 10 9.9 11.2
2 -8 -10 20.4 9.4
-3 8 10 62.89 17.7
3 -8 -10 101.39 15.3
-4 8 10 12.8 16.4
4 -8 -10 25.4 11.9
4 -8 -10 24.5 7.3
-5 8 10 0.2 18.2
-5 8 10 16 8.7
5 -8 -10 7 12
-6 8 10 259.97 23.9
-6 8 10 223.38 39
6 -8 -10 283.47 30.2
-7 8 10 112.29 34.6
-7 8 10 135.29 22.2
7 -8 -10 99.29 23.5
-8 8 10 63.99 27
-8 8 10 -18.3 36.2
8 -8 -10 62.69 26.1
-8 -8 -9 63.09 29.1
-2 -8 -9 21.5 10
-1 -8 -9 9.5 9
0 8 9 36.8 7.8
0 -8 -9 32.2 9.6
-1 8 9 15.5 8.2
1 -8 -9 15.6 7.6
-2 8 9 106.59 17.9
2 -8 -9 79.89 11.8
-3 8 9 24 13.8
3 -8 -9 34.2 9.6
-4 8 9 194.68 29.1
4 -8 -9 202.88 20.3
-5 8 9 16.4 7.8
-5 8 9 23.7 19.6
5 -8 -9 -2.8 11.2
-6 8 9 16.1 10
6 -8 -9 21.4 17.4
-7 8 9 56.79 13.6
-7 8 9 73.99 27.7
7 -8 -9 23.7 18.4
-8 8 9 27.1 30.9
8 -8 -9 -10.7 20.3
-9 8 9 -80.79 36.7
-9 8 9 0.7 18.6
9 -8 -9 37.2 28.4
-9 -8 -8 324.37 52.19
-8 -8 -8 233.38 36.2
-8 -8 -8 155.28 24.1
-7 -8 -8 641.14 53.89
-5 -8 -8 574.94 33.4
-1 -8 -8 311.57 23.6
0 8 8 8.8 5.7
0 -8 -8 11.5 6.7
-1 8 8 10.8 7.8
1 -8 -8 15.2 6.3
-2 8 8 1.2 9.7
2 -8 -8 12.7 6.5
-3 8 8 241.38 26.1
3 -8 -8 261.17 20.5
-4 8 8 667.53 48.5
4 -8 -8 613.54 34.8
4 -8 -8 657.53 40.4
4 -8 -8 537.75 37.1
-5 8 8 70.49 11.3
-5 8 8 84.39 21.2
5 -8 -8 82.39 14.5
-6 8 8 423.76 28.8
-6 8 8 402.96 43.3
6 -8 -8 402.16 35
-7 8 8 55.99 28.2
-7 8 8 75.19 13.4
7 -8 -8 45.8 19.6
-8 8 8 48.1 30.1
8 -8 -8 91.79 24.3
-9 8 8 -4.1 33.1
-9 8 8 -13.7 16.3
9 -8 -8 -3.2 23.3
-9 -8 -7 -26.4 17.6
-9 -8 -7 -3.1 26.9
-8 -8 -7 15.9 23.4
-7 -8 -7 7.1 11.9
-7 -8 -7 23.9 20.1
-4 -8 -7 28.9 5.8
-3 -8 -7 76.09 8.7
-2 -8 -7 17.5 5.4
-1 -8 -7 3.8 6.2
-1 -8 -7 4.3 6.6
0 -8 -7 237.88 19.8
0 -8 -7 223.48 17.2
-1 8 7 2.3 6.7
1 -8 -7 -1.1 4.8
1 -8 -7 -4.3 8
-2 8 7 65.49 12.2
2 -8 -7 53.59 9.2
-3 8 7 21 12
3 -8 -7 11 6.4
-4 8 7 60.69 17.4
4 -8 -7 46.4 10.1
-5 8 7 3.7 5.7
-5 8 7 15.6 16.2
5 -8 -7 -21.4 8.3
-6 8 7 135.99 14.8
-6 8 7 139.69 27.4
6 -8 -7 139.89 20.4
-7 8 7 29.6 22.9
-7 8 7 42.6 11.4
-8 8 7 61.29 29.2
-8 8 7 57.89 14.2
8 -8 -7 64.49 20.6
-9 8 7 0.6 15.6
-9 8 7 -17.7 33.4
9 -8 -7 26.3 22.6
-10 8 7 -2.8 20.9
-10 8 7 28.2 41.1
10 -8 -7 0.5 29.1
-9 -8 -6 284.07 45
-8 -8 -6 645.84 54.59
-8 -8 -6 631.84 47.8
-7 -8 -6 21 17.8
-6 -8 -6 199.98 26.3
-1 -8 -6 90.19 11.5
0 -8 -6 285.97 19.5
0 -8 -6 299.47 22.8
-1 8 6 210.08 17.3
1 -8 -6 175.78 13.8
1 -8 -6 181.88 18.9
-2 8 6 201.08 19.7
2 -8 -6 239.38 22.1
2 -8 -6 184.58 14.7
-3 8 6 216.98 21.5
3 -8 -6 131.79 22.9
3 -8 -6 194.88 15.7
3 -8 -6 196.38 12.9
-4 8 6 198.08 24
4 -8 -6 184.28 17.1
-5 8 6 9 15.9
-5 8 6 12.7 6.2
5 -8 -6 4.4 8.9
-6 8 6 27.5 7.9
-6 8 6 32 19.8
6 -8 -6 13.8 11.6
-7 8 6 -1.4 21.2
-7 8 6 -8.8 8.7
7 -8 -6 -35 13.3
-8 8 6 72.29 15
-8 8 6 81.89 30.4
8 -8 -6 101.99 22.9
-9 8 6 19.7 32
-9 8 6 37 15.9
9 -8 -6 51.29 24
-10 8 6 59.89 20.8
-10 8 6 24.3 39.4
10 -8 -6 9.1 29.2
-10 -8 -5 14.6 32.6
-9 -8 -5 -3.4 23.2
-8 -8 -5 105.69 23.1
-7 -8 -5 18.4 16.5
-6 -8 -5 185.88 24.5
-2 -8 -5 6.4 5.1
-1 -8 -5 99.69 11.9
0 -8 -5 69.09 12
-1 8 5 114.89 13.2
1 -8 -5 81.29 14.3
1 -8 -5 99.29 8.3
-2 8 5 28.6 9.5
2 -8 -5 30.9 5.4
2 -8 -5 34.7 5.6
2 -8 -5 43.9 12.5
-3 8 5 14.4 9.5
3 -8 -5 17.8 11.2
3 -8 -5 7 2.9
3 -8 -5 18.2 5.6
-4 8 5 1.5 11.3
4 -8 -5 3.2 6.4
4 -8 -5 18 12.3
-5 8 5 130.49 23.7
5 -8 -5 140.39 16.6
-6 8 5 26.7 16.6
-6 8 5 10.8 6.6
6 -8 -5 4.9 10.7
-7 8 5 14.5 20.9
-7 8 5 14.8 9.2
7 -8 -5 -5 12.8
-8 8 5 -20.2 10.7
-8 8 5 10.7 25.7
8 -8 -5 15.4 17.5
-9 8 5 -16.4 13.7
-9 8 5 4.7 28.5
9 -8 -5 43.4 23.5
-10 8 5 -16.6 18.1
-10 8 5 -22.8 34.3
10 -8 -5 16.5 27.2
-10 -8 -4 182.38 33.7
-9 -8 -4 85.79 25
-9 -8 -4 284.47 34.4
-8 -8 -4 581.74 46.7
-8 -8 -4 552.04 46
-7 -8 -4 579.64 45.1
-6 -8 -4 263.67 38.8
-5 -8 -4 818.42 52.89
-2 -8 -4 137.49 12.8
-1 -8 -4 306.97 22.2
0 -8 -4 153.38 13.9
0 -8 -4 166.88 15.8
-1 8 4 303.97 21.9
1 -8 -4 270.27 17.1
1 -8 -4 306.67 23.8
1 -8 -4 253.57 18.6
-2 8 4 947.81 57.69
2 -8 -4 987 53.39
2 -8 -4 890.51 52.49
2 -8 -4 903.21 59.29
-3 8 4 330.97 26.7
3 -8 -4 286.77 27.5
3 -8 -4 313.47 20.8
3 -8 -4 318.67 18.8
-4 8 4 22.6 11.6
4 -8 -4 21.6 7.2
4 -8 -4 21.1 12.9
-5 8 4 237.88 17.2
-5 8 4 215.78 26.6
5 -8 -4 208.68 19.9
5 -8 -4 174.28 26.7
-6 8 4 5.7 16.5
6 -8 -4 3.5 10.1
-7 8 4 23.9 9.3
-7 8 4 15.6 23.6
7 -8 -4 15.8 14.4
-8 8 4 110.29 28.9
-8 8 4 104.39 17.6
8 -8 -4 110.99 22.4
-9 8 4 92.09 17.2
-9 8 4 81.89 30
9 -8 -4 54.09 25.6
-10 8 4 -22.9 32.3
-10 8 4 -6.9 18.8
10 -8 -4 21.5 27.1
-10 -8 -3 26.3 28.7
-9 -8 -3 7.8 21.8
-9 -8 -3 -13.7 18.5
-8 -8 -3 35.8 19.8
-8 -8 -3 11.9 16.7
-7 -8 -3 1.7 13.2
-7 -8 -3 26.3 15.2
-6 -8 -3 72.29 15.2
-6 -8 -3 72.59 15.8
-5 -8 -3 110.69 17.6
-5 -8 -3 101.19 16.1
-4 -8 -3 272.37 22.2
-3 -8 -3 57.19 11.2
-2 -8 -3 242.68 19.5
-1 -8 -3 139.39 13.4
-1 -8 -3 140.79 13.8
0 -8 -3 117.59 13.7
0 -8 -3 139.39 11.8
-1 8 3 68.69 11.3
1 -8 -3 77.39 13.4
1 -8 -3 56.39 7.7
-2 8 3 18.6 7.4
2 -8 -3 22.4 10.1
2 -8 -3 10.6 2.9
2 -8 -3 11.7 4.3
-3 8 3 968.5 62.09
3 -8 -3 995.6 55.59
3 -8 -3 1006.4 57.09
-4 8 3 214.58 23
4 -8 -3 187.18 16.7
4 -8 -3 205.68 24.3
-5 8 3 16.8 13.3
-5 8 3 14.4 5
5 -8 -3 34.2 9.3
5 -8 -3 11.6 15.4
-6 8 3 29.2 7.5
-6 8 3 27.1 16
6 -8 -3 19.1 11.1
6 -8 -3 26.6 17.1
-7 8 3 1.6 8.6
7 -8 -3 27.7 13.8
-8 8 3 50.69 24.4
-8 8 3 27.4 11.8
8 -8 -3 10.5 16.8
-9 8 3 2.1 13.8
-9 8 3 45.5 25.9
9 -8 -3 -5.4 20.9
-10 8 3 82.89 21.5
-10 8 3 74.59 35.9
10 -8 -3 69.99 27.7
-10 -8 -2 251.27 39.7
-9 -8 -2 448.36 42.5
-9 -8 -2 448.06 42.2
-8 -8 -2 166.58 27.9
-8 -8 -2 155.98 25.4
-7 -8 -2 467.05 39.1
-7 -8 -2 562.04 41.2
-6 -8 -2 426.06 34.6
-6 -8 -2 483.05 35.5
-5 -8 -2 1021.5 61.49
-5 -8 -2 955.1 61.79
-4 -8 -2 584.44 39.5
-4 -8 -2 588.64 38.1
-3 -8 -2 429.16 31.3
-3 -8 -2 479.65 29.6
-2 -8 -2 3048.9 170.58
-1 -8 -2 1738.63 99.79
-1 -8 -2 1758.92 99.39
0 -8 -2 3713.53 203.38
0 -8 -2 3570.74 201.08
-1 8 2 3250.77 169.68
1 -8 -2 2920.61 170.18
1 -8 -2 2871.21 166.18
-2 8 2 1391.56 78.39
2 -8 -2 1276.87 79.39
2 -8 -2 1236.48 72.79
2 -8 -2 1355.16 73.79
-3 8 2 1272.37 78.89
3 -8 -2 1273.97 80.49
3 -8 -2 1322.17 74.19
3 -8 -2 1339.87 73.09
-4 8 2 102.39 17.1
-4 8 2 102.89 7.2
4 -8 -2 96.89 12.4
4 -8 -2 111.89 19.4
-5 8 2 238.98 18.4
-5 8 2 220.28 25.7
-5 8 2 247.48 16.5
5 -8 -2 234.78 21.4
5 -8 -2 231.08 28.3
-6 8 2 246.58 19.1
-6 8 2 277.97 30.8
6 -8 -2 256.97 24.5
6 -8 -2 242.88 32.1
-7 8 2 291.77 23.6
-7 8 2 287.97 35.6
7 -8 -2 306.27 28.7
-8 8 2 79.39 23.9
8 -8 -2 97.79 20.5
-9 8 2 100.89 28.7
-9 8 2 89.99 17.6
9 -8 -2 41.9 22.9
-10 8 2 70.49 35.3
-10 8 2 117.79 23.4
10 -8 -2 127.69 31.4
-11 8 2 88.99 26.1
-11 8 2 135.99 41.6
11 -8 -2 24.2 33.5
-10 -8 -1 -3.9 24.5
-9 -8 -1 -31.5 18
-9 -8 -1 -3.3 17.4
-8 -8 -1 51.59 19.3
-8 -8 -1 46.3 16.2
-7 -8 -1 -4.8 11.9
-7 -8 -1 36.9 15.3
-6 -8 -1 37.2 12.7
-6 -8 -1 9.5 10.7
-5 -8 -1 227.58 21
-5 -8 -1 217.48 21.6
-4 -8 -1 226.38 19.4
-4 -8 -1 234.18 20.5
-3 -8 -1 114.89 11.7
-3 -8 -1 105.19 13.4
-2 -8 -1 28.5 5.3
-2 -8 -1 22 7.1
-1 -8 -1 54.79 8.3
0 8 1 419.66 28
0 -8 -1 445.36 30
0 -8 -1 454.35 27.9
-1 8 1 5.1 4.7
1 -8 -1 -4.6 6.4
1 -8 -1 6.6 4
-2 8 1 360.76 22.4
-2 8 1 374.56 26.6
2 -8 -1 383.56 28.7
2 -8 -1 391.46 22.7
2 -8 -1 289.97 21.2
-3 8 1 20.4 4.4
-3 8 1 42 10
3 -8 -1 3.4 9.9
3 -8 -1 20.5 5.8
-4 8 1 21.4 4.2
-4 8 1 26.3 5
-4 8 1 18.3 10
-4 8 1 20.8 3.8
4 -8 -1 21.7 12.1
4 -8 -1 36.5 8.2
-5 8 1 195.28 24.6
-5 8 1 226.38 16
-5 8 1 227.18 17.8
-5 8 1 227.78 14.3
5 -8 -1 179.18 26.6
5 -8 -1 228.48 20.8
-6 8 1 36.7 10.8
-6 8 1 39.2 5.9
-6 8 1 36.4 8.7
-6 8 1 24 15.2
6 -8 -1 55.19 13.3
6 -8 -1 23.6 17.3
-7 8 1 -1.2 16.4
-7 8 1 20.8 10
7 -8 -1 -12 13.1
7 -8 -1 -25.3 18.1
-8 8 1 -25.2 18
-8 8 1 -6.7 4.4
-8 8 1 -6.6 12.4
8 -8 -1 25.8 17.2
-9 8 1 28.4 6.3
-9 8 1 15.3 15.8
-9 8 1 40.9 24.8
9 -8 -1 -8.6 19.1
-10 8 1 -24.7 30
-10 8 1 17.8 19.1
-11 8 1 -34.5 37.4
-11 8 1 -6.8 23.8
-10 -8 0 20.9 23.4
-10 -8 0 8.6 24.6
-9 -8 0 13.5 19.9
-9 -8 0 32.7 19.5
-8 -8 0 58.29 18
-8 -8 0 42.3 15.4
-7 -8 0 120.49 20.1
-7 -8 0 124.09 20.3
-6 -8 0 638.94 45.4
-6 -8 0 706.73 46.1
-5 -8 0 574.24 38
-5 -8 0 521.95 37.4
-4 -8 0 848.92 53.49
-4 -8 0 876.61 52.69
-3 -8 0 833.82 50.29
-3 -8 0 859.81 51.89
2 8 0 232.08 19.2
-2 -8 0 250.97 18.8
-2 -8 0 239.18 16.5
1 8 0 2739.93 156.18
-1 -8 0 2898.11 153.18
-1 -8 0 2728.63 155.48
0 8 0 941.71 55.59
0 -8 0 885.91 52.29
0 -8 0 1063.79 58.09
0 -8 0 921.41 55.09
-1 8 0 2929.81 152.18
1 -8 0 2667.03 150.08
1 -8 0 2705.43 149.79
1 -8 0 2694.33 155.18
1 -8 0 2695.53 151.88
-2 8 0 243.88 20.4
-2 8 0 226.28 16.2
2 -8 0 229.58 16.8
2 -8 0 259.07 16.4
2 -8 0 227.98 16.2
2 -8 0 246.98 22.2
-3 8 0 819.02 53.29
-3 8 0 882.81 48.3
3 -8 0 762.22 54.79
3 -8 0 863.31 49.9
-4 8 0 876.71 50.09
-4 8 0 887.81 49.8
-4 8 0 922.51 57.09
4 -8 0 898.61 53.29
4 -8 0 748.13 57.59
-5 8 0 514.45 34.4
-5 8 0 550.44 32.2
-5 8 0 549.74 33.6
-5 8 0 571.14 41.4
5 -8 0 484.25 42.6
5 -8 0 574.64 37.7
-6 8 0 728.83 42.7
-6 8 0 681.83 50.79
-6 8 0 704.33 44.4
-6 8 0 634.94 39.8
6 -8 0 728.63 47.1
6 -8 0 595.44 52.09
-7 8 0 124.29 17.5
-7 8 0 134.49 24.6
-7 8 0 138.79 13
7 -8 0 99.39 19.4
7 -8 0 145.79 27.6
-8 8 0 46.3 14.2
-8 8 0 45.2 9
-8 8 0 40.5 20.8
8 -8 0 57.89 18.5
-9 8 0 60.89 26.4
-9 8 0 72.99 10.9
-9 8 0 40.5 17.1
-10 8 0 6.9 10.5
-10 8 0 -38.2 27.2
-10 8 0 -15.9 19.9
-11 8 0 -20.2 34.5
-11 8 0 1.5 24.8
-10 -8 1 -22 23.8
-10 -8 1 8.2 21.1
-9 -8 1 14.9 18.6
-9 -8 1 35.6 20.5
-8 -8 1 -0.5 14.9
-8 -8 1 11.6 14.3
-7 -8 1 9.2 13
-7 -8 1 20.9 12.7
-6 -8 1 53.19 12.5
-5 -8 1 224.38 20.9
-5 -8 1 223.08 20.1
-4 -8 1 17.9 7.4
-4 -8 1 16.5 7.4
3 8 -1 23.9 8.4
-3 -8 1 12.6 6.9
-3 -8 1 21.5 6.9
2 8 -1 359.56 26
-2 -8 1 356.16 25.2
-2 -8 1 381.56 23.5
1 8 -1 3 5
-1 -8 1 1.3 2.8
-1 -8 1 3.6 5.2
0 8 -1 434.46 28.7
0 -8 1 450.05 30.7
0 -8 1 465.65 26.3
0 -8 1 442.86 28.7
-1 8 -1 52.39 7.8
1 -8 1 43.6 10.1
1 -8 1 50.99 8.1
1 -8 1 50.39 6.1
-2 8 -1 34.5 9
-2 8 -1 24.6 5.4
2 -8 1 19.6 9.6
2 -8 1 31.1 6.7
-3 8 -1 122.39 10.1
-3 8 -1 98.19 8.2
-3 8 -1 100.49 8.3
-3 8 -1 130.29 15.3
3 -8 1 104.19 18.2
-4 8 -1 214.48 15.7
-4 8 -1 215.68 16.1
-4 8 -1 208.78 15.4
-4 8 -1 199.88 21.2
4 -8 1 215.88 24.2
-5 8 -1 189.68 16
-5 8 -1 253.27 19.2
-5 8 -1 223.48 24
-5 8 -1 236.78 18.1
5 -8 1 187.28 26.7
-6 8 -1 41.9 8
-6 8 -1 22.3 13.8
-6 8 -1 52.39 10.8
-6 8 -1 24.9 10.5
6 -8 1 42.1 18
-7 8 -1 24 13.5
-7 8 -1 12.5 11.3
-7 8 -1 -10.6 15.2
-7 8 -1 17.1 8
7 -8 1 16.5 20.3
-8 8 -1 19.1 16.6
-8 8 -1 27.4 14.5
-8 8 -1 46.6 21.1
-8 8 -1 29.3 9.9
8 -8 1 26.7 24.3
-9 8 -1 14.9 11.3
-9 8 -1 2.4 16.4
-9 8 -1 -1.3 22.2
-10 8 -1 -41 27.5
-10 8 -1 -0.2 19.9
-10 8 -1 -23 12.7
-11 8 -1 0.6 24.9
-11 8 -1 18.8 35.4
-10 -8 2 60.29 26.9
-10 -8 2 168.88 27.8
-9 -8 2 60.09 20.5
-9 -8 2 112.49 22.3
8 8 -2 39.9 18.7
-8 -8 2 81.59 18.8
-8 -8 2 95.39 18
7 8 -2 294.07 28.3
-7 -8 2 279.57 27.7
-7 -8 2 295.57 27.1
6 8 -2 229.38 23.7
-6 -8 2 222.08 22.7
-6 -8 2 307.47 24.3
5 8 -2 180.08 19.8
-5 -8 2 242.88 20.8
-5 -8 2 238.08 21
4 8 -2 91.19 14.8
4 8 -2 110.89 13.2
-4 -8 2 104.59 14
-4 -8 2 117.19 13.5
3 8 -2 1335.27 79.49
3 8 -2 1304.27 76.59
-3 -8 2 1315.17 77.29
-3 -8 2 1427.46 78.99
2 8 -2 1349.07 78.89
2 8 -2 1262.47 75.49
-2 -8 2 1415.76 78.59
-2 -8 2 1376.56 76.69
1 8 -2 3078.29 168.88
1 8 -2 2843.92 164.98
-1 -8 2 3109.39 168.88
-1 -8 2 3074.09 166.98
0 8 -2 3645.54 201.48
0 -8 2 3638.94 201.68
0 -8 2 3621.44 200.08
-1 8 -2 1660.33 94.39
1 -8 2 1773.22 98.09
1 -8 2 1562.64 95.39
1 -8 2 1683.63 95.19
-2 8 -2 3386.66 189.28
-2 8 -2 3655.93 191.78
2 -8 2 3289.77 195.68
2 -8 2 3542.75 192.68
2 -8 2 3442.36 191.88
-3 8 -2 476.75 30.1
-3 8 -2 478.05 29.9
-3 8 -2 458.85 28.6
-3 8 -2 495.25 34.3
3 -8 2 477.45 36.2
-4 8 -2 560.34 33.8
-4 8 -2 462.05 33
-4 8 -2 550.44 33.6
-4 8 -2 575.04 39.1
4 -8 2 542.65 41.2
-5 8 -2 1037.4 59.19
-5 8 -2 1001.1 65.09
-5 8 -2 980.8 59.79
-5 8 -2 990 60.09
-6 8 -2 448.06 37.6
-6 8 -2 467.55 33.1
-6 8 -2 489.65 32.7
-6 8 -2 397.06 30.1
6 -8 2 454.75 42
-7 8 -2 508.45 37.1
-7 8 -2 498.35 32.5
-7 8 -2 470.05 41.4
-7 8 -2 379.46 35.3
7 -8 2 437.06 44.9
-8 8 -2 118.39 20.9
-8 8 -2 123.29 25.6
-8 8 -2 126.09 17.1
-8 8 -2 158.78 23.7
8 -8 2 127.99 29.7
-9 8 -2 440.16 36
-9 8 -2 543.25 41.4
-9 8 -2 434.96 50.69
-9 8 -2 455.75 45.2
-10 8 -2 250.07 37.4
-10 8 -2 256.87 34
-10 8 -2 291.87 30.8
-10 8 -2 287.17 46.7
-11 8 -2 63.79 39.5
-11 8 -2 146.89 37.6
-11 8 -2 131.69 24.2
-10 -8 3 13.4 23.9
-10 -8 3 98.79 23.7
9 8 -3 17.4 21.2
-9 -8 3 -17 15.9
-9 -8 3 8.8 19.7
8 8 -3 52.79 18.5
-8 -8 3 33.4 16.1
-8 -8 3 14.5 15.1
7 8 -3 -10.6 13.5
-7 -8 3 11.5 13.7
-7 -8 3 -6.5 11.3
6 8 -3 25.3 12.3
-6 -8 3 23.4 10.7
-6 -8 3 18.3 10.5
5 8 -3 21.9 9.7
5 8 -3 11.7 10.1
-5 -8 3 25.7 9.6
-5 -8 3 16.5 9.1
4 8 -3 189.58 19.5
4 8 -3 188.68 18.1
-4 -8 3 221.28 18.5
-4 -8 3 203.68 21.1
3 8 -3 972.7 55.99
3 8 -3 881.01 57.69
-3 -8 3 957.5 57.19
-3 -8 3 964.5 56.19
2 8 -3 11.6 6.8
2 8 -3 7.9 5.1
-2 -8 3 11.6 5.5
-2 -8 3 12.8 7
1 8 -3 84.39 7.6
1 8 -3 58.99 9.6
-1 -8 3 59.59 8.3
-1 -8 3 61.69 10.6
0 8 -3 149.59 13.3
0 8 -3 133.89 10.2
0 -8 3 160.68 14.5
0 -8 3 142.99 12
-1 8 -3 127.79 9.6
-1 8 -3 126.79 12.1
1 -8 3 136.09 12.3
1 -8 3 143.69 16
1 -8 3 133.19 13.7
-2 8 -3 282.07 19.1
-2 8 -3 274.07 17.9
-2 8 -3 302.27 20.1
2 -8 3 233.78 20.6
2 -8 3 273.97 20.6
2 -8 3 302.27 24.7
-3 8 -3 48.3 8.5
-3 8 -3 64.79 8.6
-3 8 -3 79.89 13.5
-3 8 -3 68.49 10
3 -8 3 78.39 15.5
-4 8 -3 293.77 22.1
-4 8 -3 285.07 25.2
-4 8 -3 297.97 21.6
-4 8 -3 297.27 21.3
4 -8 3 238.58 27.8
-5 8 -3 113.19 18.7
-5 8 -3 87.19 13.4
-5 8 -3 129.89 13.9
-5 8 -3 102.09 15.9
5 -8 3 70.29 19
-6 8 -3 68.89 16.1
-6 8 -3 68.19 13.7
-6 8 -3 60.49 11.5
-6 8 -3 49.99 12.7
6 -8 3 30.1 17.8
-7 8 -3 19.6 16
-7 8 -3 7.5 10.9
-7 8 -3 10.7 12.9
-7 8 -3 10.7 13.8
7 -8 3 10.5 20
-8 8 -3 2.7 15.1
-8 8 -3 19.2 17.6
-8 8 -3 17.3 13.3
-8 8 -3 27.6 18.2
8 -8 3 49.7 26.4
-9 8 -3 21 24.7
-9 8 -3 36.4 23.2
-9 8 -3 9.5 15.1
-9 8 -3 21.4 18.7
-10 8 -3 17.5 28.2
-10 8 -3 -11.9 17.2
-10 8 -3 45.7 23.6
-10 8 -3 30.9 27.5
10 8 -4 -18.2 26
-10 -8 4 21 20.4
9 8 -4 53.79 25
-9 -8 4 112.19 22.2
-9 -8 4 77.29 22.5
8 8 -4 74.79 20.2
-8 -8 4 82.49 20.4
-8 -8 4 59.39 17.2
7 8 -4 55.49 17.4
-7 -8 4 32.4 14.2
-7 -8 4 33.8 13.9
6 8 -4 22.8 13.4
-6 -8 4 60.19 12.4
-6 -8 4 27.4 11.5
5 8 -4 196.98 21.1
5 8 -4 223.18 21.9
-5 -8 4 223.28 21
-5 -8 4 181.38 20.1
4 8 -4 28.4 9.1
4 8 -4 28.6 9.7
-4 -8 4 27.9 8.6
-4 -8 4 26.3 9.9
3 8 -4 351.06 25.2
3 8 -4 310.27 23.1
-3 -8 4 296.27 22.6
-3 -8 4 327.07 24.6
2 8 -4 990.2 56.69
2 8 -4 946.01 58.39
-2 -8 4 989.2 57.29
-2 -8 4 945.31 58.59
1 8 -4 273.17 19.4
1 8 -4 295.57 21.8
-1 -8 4 333.97 23.3
-1 -8 4 288.37 20.7
0 8 -4 146.69 13.7
0 8 -4 150.48 11.6
0 -8 4 145.29 15
0 -8 4 141.69 13.2
-1 8 -4 318.97 20.4
-1 8 -4 305.47 22.4
1 -8 4 298.97 22.5
1 -8 4 331.47 24.5
1 -8 4 328.27 25.5
-2 8 -4 118.49 11.3
-2 8 -4 140.59 13.1
2 -8 4 124.59 14.3
2 -8 4 136.29 17.2
-3 8 -4 442.06 29.7
-3 8 -4 424.66 29.6
-3 8 -4 474.95 28.8
3 -8 4 442.86 34.5
3 -8 4 412.06 31.3
-4 8 -4 521.65 38
-4 8 -4 532.35 34.4
-4 8 -4 501.95 34.4
-4 8 -4 523.65 35.2
-5 8 -4 815.62 53.89
-5 8 -4 745.83 49.99
-5 8 -4 841.82 49.7
-5 8 -4 787.92 49.6
5 -8 4 688.63 55.19
-6 8 -4 348.97 31.1
-6 8 -4 301.17 28.2
-6 8 -4 308.27 26
-6 8 -4 348.87 28.4
6 -8 4 232.28 34.1
-7 8 -4 551.74 41.6
-7 8 -4 520.55 44.2
-7 8 -4 603.14 42
-7 8 -4 555.44 39.4
7 -8 4 434.36 49.99
-8 8 -4 611.34 50.79
-8 8 -4 631.64 47.8
-8 8 -4 593.34 48.6
-8 8 -4 617.64 45
8 -8 4 599.84 57.29
-9 8 -4 192.98 31.8
-9 8 -4 215.68 35.8
-9 8 -4 215.38 30.3
-9 8 -4 207.48 33.1
9 -8 4 311.57 52.19
-10 8 -4 167.38 27.3
-10 8 -4 187.58 34.3
-10 8 -4 161.08 31.4
-10 8 -4 160.78 37.4
10 8 -5 35.7 28.6
-10 -8 5 10.1 22.5
9 8 -5 22.1 24.5
-9 -8 5 14.9 18.6
-9 -8 5 8.5 17.6
8 8 -5 -4.6 18.9
-8 -8 5 20.9 15.2
-8 -8 5 35.5 16.9
7 8 -5 -5.8 15.2
-7 -8 5 3.3 13.1
-7 -8 5 23.2 13.9
6 8 -5 -9 11.7
6 8 -5 -5.1 10.2
-6 -8 5 24.1 12.1
-6 -8 5 7 10.6
5 8 -5 138.89 18.6
5 8 -5 125.49 18
-5 -8 5 162.28 18.1
-5 -8 5 115.89 17.5
4 8 -5 16.7 9.4
4 8 -5 10 8.4
-4 -8 5 5.4 8.5
-4 -8 5 -4.7 7.8
3 8 -5 9.5 7.4
3 8 -5 13.9 8
-3 -8 5 21.4 8.3
2 8 -5 39.5 8.8
2 8 -5 42.7 8.3
-2 -8 5 61.79 11.4
-2 -8 5 46.2 9.1
1 8 -5 118.19 12.8
1 8 -5 111.19 10.9
-1 -8 5 77.39 12
-1 -8 5 93.39 13.9
0 8 -5 77.79 10.7
0 8 -5 64.89 8.8
0 -8 5 68.29 11.4
0 -8 5 70.49 11.9
-1 8 -5 111.39 10.8
-1 8 -5 112.59 12.9
1 -8 5 126.59 16.1
1 -8 5 114.19 14.1
1 -8 5 102.49 14.7
-2 8 -5 9.3 5.6
-2 8 -5 12.7 7.3
2 -8 5 1.4 7.8
2 -8 5 -2.3 8.8
-3 8 -5 17.2 8.8
-3 8 -5 10.4 7.1
3 -8 5 10.1 9.4
3 -8 5 28.4 11.9
-4 8 -5 61.99 12.7
-4 8 -5 47.5 11.1
-4 8 -5 96.39 15.6
-4 8 -5 53.19 11
4 -8 5 36.4 14.9
-5 8 -5 36.5 11.6
-5 8 -5 23 10
-5 8 -5 51.09 13.1
-5 8 -5 38.4 12.3
5 -8 5 40.6 17.3
-6 8 -5 145.89 21.7
-6 8 -5 141.19 19.5
-6 8 -5 171.48 22.2
-6 8 -5 135.99 24.6
6 -8 5 173.08 28.9
-7 8 -5 20.4 15.4
-7 8 -5 -7.2 15.1
-7 8 -5 1.3 14.6
-7 8 -5 -30.5 12.5
7 -8 5 4.1 22
-8 8 -5 93.09 25.3
-8 8 -5 81.09 22.3
-8 8 -5 85.29 21.7
-8 8 -5 90.79 19.6
8 -8 5 38 27.5
-9 8 -5 12.3 24.4
-9 8 -5 51.99 22.9
-9 8 -5 40.9 19.5
-9 8 -5 8.1 21.4
9 -8 5 18.1 34
-10 8 -5 -25.2 28.9
-10 8 -5 -11.3 28
-10 8 -5 19.1 27.9
-10 8 -5 6.8 22.4
10 8 -6 40.1 31.6
9 8 -6 22.4 23.4
-9 -8 6 34.3 21
-9 -8 6 26 21.1
8 8 -6 113.39 24.7
-8 -8 6 135.29 22.9
-8 -8 6 103.09 21.1
7 8 -6 23.3 17.8
7 8 -6 17 17
-7 -8 6 -24.9 13.5
-7 -8 6 -29 12.3
6 8 -6 38.9 13.7
6 8 -6 23.7 15.1
-6 -8 6 14.7 11.9
-6 -8 6 39.6 14.2
5 8 -6 -21.9 10
5 8 -6 18.9 11.1
-5 -8 6 5 10.2
-5 -8 6 0.7 10.3
4 8 -6 174.48 19.9
4 8 -6 191.68 19.6
-4 -8 6 202.88 20.5
3 8 -6 199.28 17.9
3 8 -6 174.68 18.2
-3 -8 6 194.18 19.9
-3 -8 6 187.78 18.7
2 8 -6 197.18 17.8
2 8 -6 176.98 16.4
-2 -8 6 189.78 18.1
1 8 -6 174.48 16.3
1 8 -6 186.28 15.9
-1 -8 6 208.48 19.7
-1 -8 6 204.98 18.1
0 8 -6 327.47 23.7
0 8 -6 303.17 21.7
0 -8 6 287.97 23.5
0 -8 6 337.57 26.1
-1 8 -6 90.69 11.2
-1 8 -6 98.39 12.8
1 -8 6 95.39 14.8
1 -8 6 78.99 14.9
-2 8 -6 326.17 22.9
-2 8 -6 307.47 24.3
2 -8 6 330.47 28.1
2 -8 6 279.87 25.7
-3 8 -6 617.14 39.8
-3 8 -6 681.83 41.8
3 -8 6 628.74 43.6
3 -8 6 544.95 47.6
-4 8 -6 281.07 26.3
-4 8 -6 307.77 26.8
-4 8 -6 336.27 25.4
4 -8 6 309.97 32.2
-5 8 -6 109.59 17.9
-5 8 -6 112.99 18.6
-5 8 -6 104.09 18
-5 8 -6 109.19 21.7
5 -8 6 134.19 24.3
-6 8 -6 212.48 25.1
-6 8 -6 258.87 28.6
-6 8 -6 236.88 28.2
-6 8 -6 258.27 26.8
6 -8 6 199.88 32.9
-7 8 -6 6.2 17.2
-7 8 -6 28.9 16.4
-7 8 -6 -2.6 16
-7 8 -6 -0.1 14.8
7 -8 6 -30.2 20.3
-8 8 -6 773.62 57.79
-8 8 -6 752.82 57.69
-8 8 -6 656.23 53.99
-8 8 -6 843.22 58.79
-9 8 -6 340.07 42.1
-9 8 -6 284.17 40.6
-9 8 -6 351.56 38.7
9 -8 6 263.37 48.3
-10 8 -6 181.68 36.9
-10 8 -6 192.48 32.8
10 8 -7 22.6 31.7
9 8 -7 9.7 26.9
-9 -8 7 -55.99 18.8
8 8 -7 25.7 21.4
-8 -8 7 31.6 17.4
-8 -8 7 48.2 19.2
7 8 -7 38.1 16.3
7 8 -7 23.4 22.8
-7 -8 7 43.1 16.1
-7 -8 7 64.79 18.1
6 8 -7 122.29 19.8
6 8 -7 147.29 24.6
-6 -8 7 175.58 23.8
-6 -8 7 155.48 22.2
5 8 -7 -2.2 10.5
5 8 -7 -1 10.9
-5 -8 7 24.6 12.3
-5 -8 7 10.8 11.7
4 8 -7 55.99 12.7
4 8 -7 53.19 13.2
-4 -8 7 63.29 13.6
-4 -8 7 40 12.7
3 8 -7 9.1 8.5
3 8 -7 -14.9 7.1
-3 -8 7 7 10.2
2 8 -7 36.2 10.2
2 8 -7 65.09 10.6
-2 -8 7 72.99 13.6
-2 -8 7 47.7 11.5
1 8 -7 -6.8 6.4
1 8 -7 -5.8 6.9
-1 -8 7 -8 8.7
-1 -8 7 -5.8 7.7
0 8 -7 222.08 20
0 8 -7 212.48 18
0 -8 7 209.18 22.6
0 -8 7 249.38 21.5
-1 8 -7 3.8 8.3
-1 8 -7 5.6 6.9
1 -8 7 2.5 8.8
1 -8 7 11 9.7
-2 8 -7 15.8 8.1
-2 8 -7 14.3 9.4
2 -8 7 3.8 10.6
2 -8 7 21 12.4
-3 8 -7 88.99 15.1
-3 8 -7 84.39 13.5
3 -8 7 87.99 18.6
-4 8 -7 16.3 10.9
-4 8 -7 44.8 11.8
4 -8 7 34.7 15
-5 8 -7 172.88 24.3
-5 8 -7 169.68 23.8
-5 8 -7 150.68 20.4
5 -8 7 171.88 27.1
-6 8 -7 138.09 23.5
-6 8 -7 208.08 25.9
-6 8 -7 147.09 23.8
-6 8 -7 172.88 25.4
6 -8 7 184.08 32.3
-7 8 -7 37 16.5
-7 8 -7 20.4 19.7
7 -8 7 6.1 23.7
-8 8 -7 -1.1 20.3
-8 8 -7 2.2 22.2
-8 8 -7 30.9 19.5
-8 8 -7 5.5 21.3
8 -8 7 44.4 29.9
-9 8 -7 65.69 24.4
-9 8 -7 18.5 27.8
-9 8 -7 23.4 25.9
9 -8 7 41.1 33.8
-10 8 -7 32.4 29.3
-10 8 -7 44.7 28.3
-10 8 -7 60.29 34.8
-10 8 -7 65.59 31.9
9 8 -8 13.2 27.9
-9 -8 8 17.4 23.8
8 8 -8 58.19 19.2
8 8 -8 25.4 22
-8 -8 8 23.8 19.5
-8 -8 8 37.2 20.2
7 8 -8 81.49 18.7
7 8 -8 79.59 22.4
-7 -8 8 62.49 18.9
-7 -8 8 76.09 19.2
6 8 -8 413.86 39.9
6 8 -8 384.06 35.7
-6 -8 8 432.76 37.8
-6 -8 8 439.96 35.5
5 8 -8 71.59 16
5 8 -8 70.99 15.2
-5 -8 8 44.2 15.8
-5 -8 8 79.59 16
4 8 -8 655.03 45.5
4 8 -8 684.33 46.1
-4 -8 8 649.74 46.4
-4 -8 8 729.53 48.5
3 8 -8 249.08 23.8
3 8 -8 298.27 24.2
-3 -8 8 292.87 27
-3 -8 8 276.97 25.6
2 8 -8 9.1 8.5
2 8 -8 -6.2 7.6
-2 -8 8 -7.9 10.1
-2 -8 8 18.4 10.2
1 8 -8 17.5 8
1 8 -8 14.4 8.1
-1 -8 8 43.3 12.7
0 8 -8 12.4 7.9
0 8 -8 7.2 8.4
0 -8 8 -3.1 9.7
-1 8 -8 334.97 25.1
-1 8 -8 338.77 26.6
1 -8 8 292.97 30.9
-2 8 -8 651.03 41.7
-2 8 -8 594.44 39.3
2 -8 8 498.95 41.9
2 -8 8 614.04 43.8
-3 8 -8 590.64 39.2
-3 8 -8 630.04 41.7
3 -8 8 533.15 43.7
3 -8 8 550.54 42.8
-4 8 -8 1711.53 99.59
-4 8 -8 1749.82 101.49
4 -8 8 1582.44 103.99
-5 8 -8 624.14 44.1
-5 8 -8 569.84 44.4
5 -8 8 615.74 51.29
-6 8 -8 674.23 50.09
-6 8 -8 712.63 50.79
-6 8 -8 661.33 52.39
-7 8 -8 674.43 51.69
-7 8 -8 661.93 52.69
-7 8 -8 625.84 55.19
7 -8 8 614.74 57.69
-8 8 -8 200.08 32.7
-8 8 -8 229.58 33.8
-8 8 -8 215.28 35.7
-8 8 -8 149.99 30
8 -8 8 132.49 37.3
-9 8 -8 348.07 45.9
-9 8 -8 306.77 43.5
-9 8 -8 290.47 45.8
9 -8 8 291.47 51.09
9 8 -9 65.19 30.7
8 8 -9 17.8 19.3
8 8 -9 1.1 24.3
-8 -8 9 -14.3 22.1
-8 -8 9 0.6 20.5
7 8 -9 39.8 17.8
7 8 -9 39.8 22.5
-7 -8 9 63.19 22.1
-7 -8 9 77.49 20.5
6 8 -9 13.7 16.4
6 8 -9 36.1 15.5
-6 -8 9 23.8 17.5
-6 -8 9 18.6 16.7
5 8 -9 0.1 11.4
5 8 -9 -15.4 12.6
-5 -8 9 8 14.6
-5 -8 9 20.1 15.1
4 8 -9 214.98 23.3
4 8 -9 221.48 23.1
-4 -8 9 225.28 24.2
-4 -8 9 195.48 26.1
3 8 -9 23.1 11
3 8 -9 26 11
-3 -8 9 35.2 14.8
-3 -8 9 29.9 12.5
2 8 -9 70.19 13.5
2 8 -9 91.09 15
-2 -8 9 61.99 15.9
-2 -8 9 92.09 16
1 8 -9 12.2 10.3
1 8 -9 18.3 9.1
-1 -8 9 23.4 12.3
-1 -8 9 4.7 12.5
0 8 -9 51.19 11.6
0 8 -9 44 10.6
0 -8 9 40.2 13.7
-1 8 -9 17.4 10.1
-1 8 -9 7.6 10.4
1 -8 9 3.6 12.2
1 -8 9 28.4 13.8
-2 8 -9 -4.7 9.2
-2 8 -9 -5.3 10.6
2 -8 9 26.5 12.9
2 -8 9 17.3 14.2
-3 8 -9 1 10.4
-3 8 -9 10.7 12.2
3 -8 9 0 12.9
3 -8 9 17.7 16.1
-4 8 -9 41.4 14.3
-4 8 -9 66.69 16.7
4 -8 9 77.79 20.8
-5 8 -9 -7.3 13.6
-5 8 -9 24 15.7
5 -8 9 23.9 19.7
-6 8 -9 -8.6 16.5
-6 8 -9 -4.6 19.1
-6 8 -9 -26.1 15.6
6 -8 9 -13.6 23.3
-7 8 -9 124.29 28.1
-7 8 -9 109.09 26.2
-7 8 -9 106.89 24.5
7 -8 9 123.69 32.9
-8 8 -9 75.19 28.4
-8 8 -9 15.1 25.8
-8 8 -9 51.19 25.6
8 -8 9 55.39 32.8
-9 8 -9 8.3 31
-9 8 -9 6.2 24.2
-9 8 -9 -3.3 27.1
-9 8 -9 21.5 29.8
9 -8 9 37.5 37.8
9 8 -10 151.98 38.6
8 8 -10 25.3 19.7
8 8 -10 27.8 28.1
-8 -8 10 87.79 25.6
7 8 -10 95.49 21.5
7 8 -10 82.19 26.3
-7 -8 10 157.78 26.7
6 8 -10 359.86 37
6 8 -10 259.37 30.8
-6 -8 10 322.57 34.2
-6 -8 10 272.67 36.7
5 8 -10 5.3 15.4
-5 -8 10 18.4 15
-5 -8 10 18.2 17.9
4 8 -10 46.1 16
-4 -8 10 16.2 16.3
-4 -8 10 10.7 14.5
3 8 -10 112.09 17.5
3 8 -10 111.69 18
-3 -8 10 59.49 19.1
-3 -8 10 104.19 18.7
2 8 -10 20.7 11.2
2 8 -10 10.9 10.9
-2 -8 10 39.4 14.1
-2 -8 10 -0.5 14.2
1 8 -10 7.8 11.1
1 8 -10 20.9 10.5
-1 -8 10 13 13.1
0 8 -10 -0.7 9.6
0 8 -10 5.2 10.8
0 -8 10 4.1 12.5
-1 8 -10 6.2 10.5
-1 8 -10 10.3 11.8
1 -8 10 3.6 13.6
1 -8 10 10.9 13.8
-2 8 -10 40.6 13.2
2 -8 10 31.7 16.9
2 -8 10 40.3 15
-3 8 -10 -3.4 12.5
-3 8 -10 8.9 14.3
3 -8 10 23.2 16.4
3 -8 10 26.3 17.7
-4 8 -10 37.8 17.9
-4 8 -10 46.5 14.8
4 -8 10 48.6 19.9
-5 8 -10 12.4 15.6
-5 8 -10 36.4 18.5
5 -8 10 -17.1 21.6
-6 8 -10 138.79 26.1
-6 8 -10 112.79 23.9
6 -8 10 89.59 27
-7 8 -10 366.36 39.5
-7 8 -10 356.96 42
-7 8 -10 328.67 45.4
7 -8 10 346.97 52.39
-8 8 -10 226.08 36.1
-8 8 -10 225.68 37
8 -8 10 185.18 43.3
8 8 -11 87.29 31.4
7 8 -11 51.89 20.5
7 8 -11 -20.6 24.2
-7 -8 11 57.29 23.8
6 8 -11 10.4 20.6
6 8 -11 -9.6 15.9
-6 -8 11 49.9 21
5 8 -11 72.69 20.3
-5 -8 11 16.4 18.2
-5 -8 11 44.3 20.9
4 8 -11 13.8 12.9
4 8 -11 -4.2 15.1
-4 -8 11 -11.5 16.7
-4 -8 11 -16.5 15.3
3 8 -11 0.2 11.4
-3 -8 11 15 16.8
-3 -8 11 35.5 17.3
2 8 -11 3.5 12.5
2 8 -11 7.9 12.4
-2 -8 11 -15.5 14
1 8 -11 8.5 10.9
-1 -8 11 6.8 15
0 8 -11 65.79 14.5
0 8 -11 65.79 25.6
0 -8 11 70.79 19.9
-1 8 -11 3.9 13
-1 8 -11 8.2 12.3
1 -8 11 -15.6 15.7
1 -8 11 -9.2 13.5
-2 8 -11 30.7 14.7
-2 8 -11 -13.1 12.7
2 -8 11 -1.2 17
2 -8 11 21.6 16.1
-3 8 -11 -9.4 14.1
3 -8 11 -1.2 17.2
3 -8 11 -9.7 18
-4 8 -11 60.79 18.6
-4 8 -11 86.79 21.1
4 -8 11 109.39 24.9
-5 8 -11 69.39 22
-5 8 -11 81.49 19.6
5 -8 11 27 24.8
-6 8 -11 1.7 21
-6 8 -11 -10.2 20.6
6 -8 11 0.7 26.5
-7 8 -11 54.69 26.3
-7 8 -11 -3.5 23.6
7 -8 11 -2.2 31.4
-8 8 -11 51.29 29.4
-8 8 -11 30.4 28.9
8 -8 11 77.99 40.5
7 8 -12 180.58 34.3
7 8 -12 208.38 30.4
6 8 -12 105.09 26.6
6 8 -12 83.29 22.8
-6 -8 12 82.39 26.5
5 8 -12 99.09 19.4
5 8 -12 79.79 21.7
-5 -8 12 2.5 22.3
4 8 -12 51.69 18.6
-4 -8 12 71.69 22.1
-4 -8 12 9.4 26.4
3 8 -12 52.39 15.7
3 8 -12 31.2 15.7
-3 -8 12 24 18.4
2 8 -12 66.69 16.4
2 8 -12 57.59 16.3
-2 -8 12 34.6 19
1 8 -12 60.59 16.2
1 8 -12 96.99 18.6
-1 -8 12 89.19 21.6
0 8 -12 203.78 24.4
0 8 -12 141.49 23.3
0 -8 12 164.58 27.8
-1 8 -12 60.89 16.6
-1 8 -12 73.89 16.7
1 -8 12 52.09 19.6
1 -8 12 66.09 19.6
-2 8 -12 -15.2 15.1
-2 8 -12 -6.9 14.5
2 -8 12 17.3 18.3
2 -8 12 -24.5 17.5
-3 8 -12 68.79 17.7
-3 8 -12 92.69 20.3
3 -8 12 52.49 20.7
3 -8 12 54.79 24.6
-4 8 -12 -30 19.3
-4 8 -12 8.2 17.9
4 -8 12 26.8 22.9
-5 8 -12 159.78 27.2
-5 8 -12 197.18 30.7
5 -8 12 196.18 34
-6 8 -12 164.58 30
-6 8 -12 145.49 30.5
6 -8 12 175.88 36.7
-7 8 -12 -14.5 34.5
-7 8 -12 -9.7 30
-7 8 -12 14.2 27.8
7 -8 12 28.3 35.6
7 8 -13 38.1 30.8
6 8 -13 19.3 19.1
6 8 -13 6.8 25.1
5 8 -13 -14.8 17.8
5 8 -13 9.3 21.7
4 8 -13 6.4 18.2
3 8 -13 47.9 17.5
3 8 -13 53.29 19.4
2 8 -13 113.29 20.5
2 8 -13 88.59 20.6
1 8 -13 33.6 17.1
1 8 -13 23.8 16.1
-1 -8 13 10.8 18.7
0 8 -13 42.3 17.6
0 8 -13 72.29 18.2
0 -8 13 8.3 19.8
-1 8 -13 63.69 18
-1 8 -13 37.4 17.7
1 -8 13 -17 19.4
1 -8 13 41.2 21
-2 8 -13 78.49 19.9
-2 8 -13 69.29 21.2
2 -8 13 51.79 23
-3 8 -13 -7.3 16.8
-3 8 -13 10.1 20.1
3 -8 13 25.8 23.1
-4 8 -13 23.7 21.3
-4 8 -13 26.5 19.7
4 -8 13 -24.7 24.7
-5 8 -13 -28.1 23
-5 8 -13 -22.6 20
5 -8 13 12 29.2
-6 8 -13 12.8 25.9
-6 8 -13 4.9 28.1
6 -8 13 23.7 33.3
6 8 -14 25.4 25.4
6 8 -14 -18.9 27.5
5 8 -14 132.49 29.8
5 8 -14 121.99 24.7
4 8 -14 148.89 27.7
4 8 -14 129.39 24.4
3 8 -14 132.09 23.8
3 8 -14 159.58 26.5
2 8 -14 117.89 23.3
2 8 -14 139.09 23.3
1 8 -14 -2 17.2
1 8 -14 -13.1 18
0 8 -14 21.6 17.6
0 8 -14 -38.2 15.6
-1 8 -14 -4.5 18.4
-1 8 -14 84.09 21.6
1 -8 14 8 22.2
-2 8 -14 -5.2 19
-2 8 -14 -8.9 18.5
2 -8 14 3.1 21.9
-3 8 -14 -0.3 20
-3 8 -14 7.7 21
3 -8 14 -8.1 24.2
-4 8 -14 27.5 22.8
-4 8 -14 -6.3 23.7
4 -8 14 -6.3 28.4
-5 8 -14 36.5 28.6
-5 8 -14 26.6 24.2
5 -8 14 -4.9 32.6
-6 8 -14 60.99 29.6
-6 8 -14 6 33.4
6 -8 14 20.1 37.7
5 8 -15 -56.99 25.8
5 8 -15 -15.8 21.8
4 8 -15 -55.79 23
4 8 -15 -6.5 20.3
3 8 -15 7 22.9
3 8 -15 -17.4 18.3
2 8 -15 -17.7 19.9
2 8 -15 49.2 20.3
1 8 -15 4.6 18.9
1 8 -15 -11.5 19.2
0 8 -15 41.9 21.6
0 8 -15 78.39 23.6
-1 8 -15 8 20.7
-1 8 -15 27.7 21.4
1 -8 15 6.6 24.9
-2 8 -15 80.09 25.6
-2 8 -15 94.99 25.4
2 -8 15 60.39 28.3
-3 8 -15 40 24.8
-3 8 -15 34.1 26.2
3 -8 15 34.1 28.4
-4 8 -15 6.4 24.4
-4 8 -15 13.1 28
4 -8 15 -13.3 31
3 8 -16 374.86 42.4
3 8 -16 397.26 48.8
2 8 -16 60.79 23.5
2 8 -16 48.1 25.2
1 8 -16 -13.3 22.1
1 8 -16 -51.19 21.3
0 8 -16 125.89 28.4
0 8 -16 171.58 29.8
-1 8 -16 -60.09 23.2
-1 8 -16 91.89 27.1
1 -8 16 -15.3 27.8
-2 8 -16 52.79 27.8
2 -8 16 59.89 31.1
-3 8 -16 182.18 36.6
-3 8 -16 165.98 32.9
3 -8 16 140.89 38.8
-2 -9 -16 90.79 27.2
-1 -9 -16 112.99 32.4
0 -9 -16 135.39 41.2
1 -9 -16 40 41.2
2 -9 -16 26.7 34.4
-4 -9 -15 -34.4 26.3
-3 -9 -15 21.3 24.8
-2 -9 -15 14.8 21.8
-1 -9 -15 15.5 18.7
0 -9 -15 13 19
-1 9 15 7.6 10.3
1 -9 -15 16.1 18
-2 9 15 68.39 18.4
2 -9 -15 91.49 22.4
-3 9 15 37.2 21.7
3 -9 -15 17.8 19.2
-4 9 15 -26.6 25.4
4 -9 -15 -28.6 20.3
-5 -9 -14 307.97 45.9
-4 -9 -14 339.97 41
-3 -9 -14 222.58 35.8
-1 9 14 164.38 19.3
-2 9 14 326.97 32.2
-3 9 14 115.89 24
3 -9 -14 95.19 20.8
-4 9 14 42.5 25.6
4 -9 -14 48.5 20
-5 9 14 106.49 32.9
5 -9 -14 95.99 25.1
-6 -9 -13 21.6 27.6
-5 -9 -13 61.69 24.3
-4 -9 -13 72.59 24.1
-3 -9 -13 -19 30.7
-2 -9 -13 11.7 18.5
-1 -9 -13 157.48 23.7
0 -9 -13 0.9 14.1
-1 9 13 -3.7 9.9
1 -9 -13 -2.2 13.2
-2 9 13 161.58 24.8
-3 9 13 71.19 20.6
3 -9 -13 55.09 16.4
-4 9 13 71.79 24.9
-5 9 13 -32.8 25.4
-6 9 13 -3.9 30.9
6 -9 -13 0.4 22.3
-7 -9 -12 168.98 35.8
-6 -9 -12 183.68 33.4
-5 -9 -12 164.68 29.8
-4 -9 -12 288.47 35.1
-3 -9 -12 45.5 18.7
-2 -9 -12 160.68 24.8
-1 -9 -12 97.39 17.9
0 -9 -12 277.47 26.9
-1 9 12 115.49 17.7
1 -9 -12 131.79 20.1
-2 9 12 175.08 24.7
2 -9 -12 216.98 23.5
-3 9 12 473.85 41.4
3 -9 -12 462.75 36.1
-4 9 12 59.09 22.8
4 -9 -12 52.59 17.1
4 -9 -12 57.39 11.8
-6 9 12 142.19 33.8
6 -9 -12 142.59 27
-7 9 12 9.3 34.1
7 -9 -12 1 24.5
-5 -9 -11 123.59 24.6
-4 -9 -11 53.99 19.5
-3 -9 -11 166.08 25.3
-2 -9 -11 109.69 18
-1 -9 -11 117.79 20
0 -9 -11 -7.3 9.8
-1 9 11 80.19 13
1 -9 -11 58.99 13.4
-2 9 11 43.5 13.8
2 -9 -11 31.3 11.9
-3 9 11 40.3 16.6
3 -9 -11 0.8 11.7
-4 9 11 98.09 21.9
4 -9 -11 109.09 17.8
4 -9 -11 85.59 13.4
-5 9 11 24.2 24.9
5 -9 -11 23.1 3.6
5 -9 -11 7.7 14.6
-6 9 11 84.19 29.3
-6 9 11 48.9 13.4
6 -9 -11 96.59 20.1
-7 9 11 89.09 33.5
-7 9 11 85.99 14.8
7 -9 -11 40.6 23.3
-8 9 11 -19.8 36.6
8 -9 -11 -3.1 27.2
-8 -9 -10 88.19 35.7
-3 -9 -10 282.97 28.2
-2 -9 -10 415.06 32.7
-1 -9 -10 249.28 23.2
0 -9 -10 391.26 29.1
-1 9 10 947.71 56.19
1 -9 -10 868.31 55.49
-2 9 10 279.67 25.1
2 -9 -10 220.58 21.3
-3 9 10 150.08 24.4
3 -9 -10 151.38 17.8
-4 9 10 574.64 47.1
4 -9 -10 537.05 36.2
4 -9 -10 549.35 39
-5 9 10 425.46 44.4
5 -9 -10 385.86 33.2
-6 9 10 361.06 46.5
6 -9 -10 441.76 37.2
-7 9 10 265.07 24.7
-7 9 10 315.17 51.29
7 -9 -10 245.18 35.1
-8 9 10 141.79 24.1
-8 9 10 154.58 41.1
8 -9 -10 157.68 31.6
-8 -9 -9 89.69 30.6
-7 -9 -9 17.2 22.8
-2 -9 -9 51.39 12.5
-1 -9 -9 0.7 8.9
0 -9 -9 -4.4 7.5
-1 9 9 50.59 10.4
1 -9 -9 28.3 8.9
-2 9 9 22.6 11.4
2 -9 -9 50.29 10
-3 9 9 94.49 17.6
3 -9 -9 90.19 13.8
-4 9 9 315.67 32.8
4 -9 -9 278.37 18.2
4 -9 -9 300.87 24.2
4 -9 -9 243.48 17.7
-5 9 9 234.78 33.2
5 -9 -9 249.08 25.1
-6 9 9 107.09 29.8
-7 9 9 2.5 11
-7 9 9 38.1 28.8
7 -9 -9 23.1 18.5
-8 9 9 31.8 35.5
-8 9 9 7.4 14.3
8 -9 -9 66.69 23.4
-9 9 9 40.1 41.2
9 -9 -9 47.3 30.9
-9 -9 -8 22.4 32.6
-8 -9 -8 18.8 26
-7 -9 -8 295.07 37.4
-5 -9 -8 119.79 11.3
-4 -9 -8 287.97 18.5
-3 -9 -8 298.77 19.3
-2 -9 -8 413.26 26.6
-1 -9 -8 486.35 35
-1 -9 -8 585.34 35.1
0 -9 -8 480.95 31.9
0 -9 -8 496.05 34.2
-1 9 8 196.78 18.8
1 -9 -8 178.08 15.8
-2 9 8 698.03 46.7
2 -9 -8 700.13 42.8
-3 9 8 47.8 15.2
3 -9 -8 62.69 10.2
-4 9 8 538.45 45.5
4 -9 -8 546.35 32
4 -9 -8 610.34 38
-5 9 8 541.85 49.3
5 -9 -8 685.93 43.1
-6 9 8 379.06 47.2
6 -9 -8 352.46 32.2
-7 9 8 398.76 49
-7 9 8 420.36 29.9
7 -9 -8 429.76 38.9
-8 9 8 123.29 34.2
-8 9 8 102.79 16.5
8 -9 -8 83.59 24.6
-9 9 8 108.09 40.7
9 -9 -8 123.69 30
-9 -9 -7 45.3 29.9
-9 -9 -7 1.3 22.1
-8 -9 -7 31 25.1
-8 -9 -7 22.5 18.7
-7 -9 -7 15.1 14.5
-7 -9 -7 42.8 20.6
-2 -9 -7 9.8 6.5
-1 -9 -7 24.4 8.3
0 -9 -7 177.88 18.2
0 -9 -7 159.38 14.2
-1 9 7 41.1 10.3
1 -9 -7 53.59 12.5
1 -9 -7 50.79 8.6
-2 9 7 100.29 15.9
2 -9 -7 79.79 15.8
2 -9 -7 79.29 10.5
-3 9 7 17.1 11.1
3 -9 -7 2.8 4.4
3 -9 -7 7 6.5
-4 9 7 149.99 25.7
4 -9 -7 164.48 16.7
-5 9 7 8.3 15.6
5 -9 -7 1.5 9.6
-6 9 7 10.6 10.3
6 -9 -7 23.6 12.5
-7 9 7 5.7 23
-7 9 7 -4.4 8.7
7 -9 -7 0.6 15.6
-8 9 7 134.99 34.2
-8 9 7 69.39 14.4
8 -9 -7 59.69 21.5
-9 9 7 33.9 34.9
9 -9 -7 19.8 24
-9 -9 -6 0.7 27.4
-9 -9 -6 -7.4 20.4
-8 -9 -6 -4.7 21.6
-7 -9 -6 24.8 19
-6 -9 -6 93.79 20.1
-3 -9 -6 109.09 12
-2 -9 -6 8.9 6.3
-1 -9 -6 511.35 34
0 -9 -6 202.08 21.3
0 -9 -6 305.27 18.2
-1 9 6 519.05 32
1 -9 -6 374.86 32.8
1 -9 -6 450.95 27.5
-2 9 6 224.18 22
2 -9 -6 229.18 16.8
2 -9 -6 247.98 16.5
2 -9 -6 208.88 24.2
-3 9 6 1127.19 65.39
3 -9 -6 909.31 57.99
3 -9 -6 1046.7 66.59
3 -9 -6 965.6 56.79
-4 9 6 242.98 27.1
4 -9 -6 268.47 20.3
4 -9 -6 207.38 30.1
-5 9 6 107.19 22.2
5 -9 -6 127.19 17.1
-6 9 6 53.19 8.7
-6 9 6 15.6 19.2
6 -9 -6 37.7 13.6
-7 9 6 0.9 8.5
-7 9 6 18.8 24
7 -9 -6 5.2 15.3
-8 9 6 70.89 14.2
-8 9 6 137.19 34
8 -9 -6 97.19 23.9
-9 9 6 4.6 35
-9 9 6 52.49 17.3
9 -9 -6 47.7 25.2
-10 9 6 101.29 22.6
-10 9 6 107.89 44.1
10 -9 -6 59.19 33.8
-10 -9 -5 25.5 25.6
-9 -9 -5 20.3 25.9
-8 -9 -5 9.3 20.6
-8 -9 -5 6.7 18.1
-7 -9 -5 117.09 22.7
-6 -9 -5 264.77 28.2
-5 -9 -5 124.89 19.7
-3 -9 -5 -3.3 5.3
-2 -9 -5 71.89 11
-1 -9 -5 162.88 16.1
0 -9 -5 51.99 10.7
0 -9 -5 41 8.9
-1 9 5 494.75 31.3
1 -9 -5 454.05 28.5
1 -9 -5 404.56 32.6
1 -9 -5 422.06 26
-2 9 5 131.59 16.3
2 -9 -5 101.69 18.7
2 -9 -5 91.69 9
2 -9 -5 104.69 9.9
-3 9 5 -2.7 9.5
3 -9 -5 16.9 5.6
3 -9 -5 20.5 4.1
3 -9 -5 6.9 11.7
-4 9 5 224.18 25.7
4 -9 -5 126.79 24.1
4 -9 -5 201.28 16.9
-5 9 5 40.3 18.6
5 -9 -5 55.09 11.7
5 -9 -5 39.6 19.1
-6 9 5 18.2 19.4
-6 9 5 -2 5.4
6 -9 -5 5.3 10.8
-7 9 5 0.6 20
-7 9 5 -0.6 7.9
7 -9 -5 7.7 14.3
-8 9 5 3.2 10.9
-8 9 5 -10.2 23.5
8 -9 -5 -18.4 18.1
-9 9 5 -24.7 29
-9 9 5 4.4 14.1
9 -9 -5 -4.7 22
-10 9 5 -15.9 37.1
-10 9 5 -1.2 18.7
10 -9 -5 -3 27.2
-10 -9 -4 20 28.8
-9 -9 -4 57.89 24
-8 -9 -4 71.79 22.7
-8 -9 -4 93.09 21.9
-7 -9 -4 -28 15.1
-7 -9 -4 -7.7 15.5
-6 -9 -4 563.04 43
-5 -9 -4 14.9 10.8
-5 -9 -4 33 12.9
-3 -9 -4 168.08 20.6
-2 -9 -4 865.11 55.89
-2 -9 -4 953.4 54.79
-1 -9 -4 205.08 17.6
-1 -9 -4 196.88 17.4
0 -9 -4 564.24 39.9
0 -9 -4 659.03 38.4
-1 9 4 1167.18 67.19
1 -9 -4 1114.59 64.29
1 -9 -4 1067.69 68.39
-2 9 4 183.38 17.9
2 -9 -4 167.68 20.9
2 -9 -4 162.88 11.4
2 -9 -4 166.68 12.6
-3 9 4 592.74 41.8
3 -9 -4 642.54 34.6
3 -9 -4 603.54 35.8
3 -9 -4 505.75 42.9
-4 9 4 662.43 45.2
4 -9 -4 496.25 45
4 -9 -4 599.84 37.2
-5 9 4 47.9 17.1
5 -9 -4 86.09 14.5
5 -9 -4 73.29 19.5
-6 9 4 111.39 11.4
-6 9 4 138.09 24.4
6 -9 -4 124.89 18
6 -9 -4 101.79 24.7
-7 9 4 87.19 14.1
-7 9 4 112.49 27.9
7 -9 -4 116.89 20
-8 9 4 418.36 30.9
-8 9 4 389.46 47.8
8 -9 -4 445.66 40.8
-9 9 4 311.87 29
-9 9 4 389.46 50.69
9 -9 -4 246.18 40.3
-10 9 4 290.47 34.2
-10 9 4 393.16 59.09
10 -9 -4 298.47 42.1
-10 -9 -3 15.2 27.3
-9 -9 -3 64.79 24.2
-8 -9 -3 -4.5 16.6
-8 -9 -3 11.7 18.9
-7 -9 -3 7.7 14.7
-7 -9 -3 14.3 15.8
-6 -9 -3 97.99 20.1
-6 -9 -3 62.69 15.8
-5 -9 -3 108.19 17.6
-5 -9 -3 130.29 18.7
-4 -9 -3 149.69 17.9
-4 -9 -3 119.89 15.5
-3 -9 -3 13.6 8.3
-2 -9 -3 9.7 7.7
-1 -9 -3 9.4 6.6
-1 -9 -3 4 6.6
0 -9 -3 77.09 13
0 -9 -3 62.29 9.7
-1 9 3 162.88 16.6
1 -9 -3 163.98 13
1 -9 -3 145.49 17.6
-2 9 3 177.58 17.8
2 -9 -3 163.78 11.4
2 -9 -3 195.98 21.5
2 -9 -3 176.48 13
-3 9 3 171.08 20
3 -9 -3 169.88 12.9
3 -9 -3 143.79 22.4
3 -9 -3 144.99 11.5
-4 9 3 370.56 30.5
4 -9 -3 322.57 23.8
4 -9 -3 299.37 35.4
-5 9 3 13.2 3.3
-5 9 3 27.4 14.3
5 -9 -3 9.5 8.6
5 -9 -3 32.5 16
-6 9 3 25.9 8.6
-6 9 3 18.5 6.3
-6 9 3 45.5 18.1
6 -9 -3 37.8 12.6
6 -9 -3 47 20.4
-7 9 3 172.28 32.2
-7 9 3 162.68 16.6
7 -9 -3 155.08 23.7
-8 9 3 63.29 12.9
-8 9 3 39.6 23.9
8 -9 -3 68.09 20.1
-9 9 3 -0.3 13.4
-9 9 3 16.2 26.9
9 -9 -3 26.6 22.9
-10 9 3 43.4 35.8
-10 9 3 58.79 20
10 -9 -3 16.5 27.9
-10 -9 -2 130.29 31.1
-9 -9 -2 213.88 32
-9 -9 -2 95.39 24.1
-8 -9 -2 87.39 20.9
-8 -9 -2 79.39 20.1
-7 -9 -2 259.97 29.1
-7 -9 -2 294.67 29.6
-6 -9 -2 114.09 19.3
-6 -9 -2 128.19 20.4
-5 -9 -2 18.6 11.2
-5 -9 -2 32 11.6
-4 -9 -2 130.89 15
-4 -9 -2 120.89 16.6
-3 -9 -2 199.08 16
-3 -9 -2 185.38 18.5
-2 -9 -2 330.07 24.4
-1 -9 -2 46 8.5
-1 -9 -2 43.6 9
0 -9 -2 160.28 17.1
0 -9 -2 180.88 14.2
1 -9 -2 64.99 12.5
1 -9 -2 47.3 7.8
-2 9 2 431.86 30.7
2 -9 -2 399.26 24.6
2 -9 -2 391.06 33
2 -9 -2 450.85 26.2
-3 9 2 788.02 50.69
3 -9 -2 800.82 45.9
3 -9 -2 774.82 45.1
3 -9 -2 680.43 51.79
-4 9 2 124.59 18.7
4 -9 -2 120.99 13.8
4 -9 -2 108.39 24.2
-5 9 2 325.27 31.6
-5 9 2 346.07 20.8
-5 9 2 305.57 19.7
5 -9 -2 345.57 26.4
5 -9 -2 309.27 33.8
-6 9 2 258.67 20.5
-6 9 2 208.48 30
-6 9 2 260.67 18.1
6 -9 -2 234.08 33.3
6 -9 -2 244.08 25
-7 9 2 303.47 24
-7 9 2 339.27 27.8
-7 9 2 330.27 37.7
7 -9 -2 307.77 31.3
7 -9 -2 344.27 40.8
-8 9 2 132.49 19.2
-8 9 2 140.39 28.8
8 -9 -2 170.38 26.9
-9 9 2 200.88 25.5
-9 9 2 164.18 35.4
9 -9 -2 220.48 33.6
-10 9 2 121.59 36.6
-10 9 2 102.59 22.5
10 -9 -2 150.08 34.2
-10 -9 -1 -1.5 26.2
-9 -9 -1 -5.1 19.5
-9 -9 -1 21.6 20.4
-8 -9 -1 197.88 30.1
-8 -9 -1 168.88 26.5
-7 -9 -1 64.79 18.1
-7 -9 -1 65.99 17.1
-6 -9 -1 56.29 14.8
-6 -9 -1 56.09 14
-5 -9 -1 97.99 15.6
-5 -9 -1 64.49 13.5
-4 -9 -1 4.1 7.1
-4 -9 -1 -0.9 8.5
-3 -9 -1 138.19 13.4
-3 -9 -1 140.29 15.4
-2 -9 -1 110.59 10.2
-2 -9 -1 124.99 14
-1 -9 -1 22.7 6.6
-1 -9 -1 17.3 3.3
-1 -9 -1 18.1 7.1
0 9 1 25.8 7.2
0 -9 -1 38.7 9.6
0 -9 -1 49.99 8
-1 9 1 29.2 7.1
1 -9 -1 28.3 9.7
1 -9 -1 34.8 3
1 -9 -1 34.1 6.7
-2 9 1 71.09 8.9
-2 9 1 78.99 13.4
2 -9 -1 74.39 8.9
2 -9 -1 83.29 7.7
2 -9 -1 100.99 16.1
-3 9 1 32.7 10.6
-3 9 1 27.9 5.6
3 -9 -1 14.8 11.7
3 -9 -1 25.4 5.6
3 -9 -1 20.8 6.4
-4 9 1 7.5 3.7
-4 9 1 22.5 10.5
4 -9 -1 5.5 6.9
4 -9 -1 -8.7 12.7
-5 9 1 8.1 12.3
-5 9 1 14.7 5.5
-5 9 1 15.9 4.2
5 -9 -1 0.2 14.4
5 -9 -1 9.9 9.2
-6 9 1 58.39 7
-6 9 1 61.79 11.3
-6 9 1 52.79 18.2
-6 9 1 85.89 11.1
6 -9 -1 86.99 15.6
6 -9 -1 42.5 20.5
-7 9 1 3.6 8.5
-7 9 1 -10.6 11
-7 9 1 -7.1 17
7 -9 -1 -9.6 12.6
7 -9 -1 -9.6 20
-8 9 1 136.09 21
-8 9 1 152.18 19.5
-8 9 1 113.59 28.7
8 -9 -1 124.89 24.2
-9 9 1 20.9 15.1
-9 9 1 8.5 25.1
9 -9 -1 -47 19.3
-10 9 1 34.5 31.1
-10 9 1 29.5 19.8
-10 -9 0 114.59 30.3
-9 -9 0 33.2 20.2
-9 -9 0 50.89 20.6
-8 -9 0 110.49 20.3
-8 -9 0 57.69 18.7
-7 -9 0 289.77 29.6
-7 -9 0 333.47 31
-6 -9 0 88.99 26.2
-6 -9 0 111.29 18.3
-5 -9 0 134.79 17
-5 -9 0 126.79 17.6
-4 -9 0 238.58 22
-4 -9 0 293.17 21.8
-3 -9 0 58.39 10
-3 -9 0 86.09 12.4
-2 -9 0 545.65 33.6
-2 -9 0 563.74 35.9
1 9 0 46 8.9
-1 -9 0 59.09 9.3
-1 -9 0 55.39 6.1
0 9 0 0.6 5.3
0 -9 0 2.8 2.2
0 -9 0 6.7 5.1
0 -9 0 9.1 6.9
-1 9 0 43.3 7.5
1 -9 0 52.09 8.2
1 -9 0 47.6 5.3
1 -9 0 59.19 11.7
-2 9 0 608.24 38.3
-2 9 0 568.64 33.6
2 -9 0 517.05 39.1
2 -9 0 565.34 34.2
2 -9 0 478.75 32.6
2 -9 0 558.94 33
-3 9 0 51.49 7.8
-3 9 0 73.79 13.2
3 -9 0 59.49 9.2
3 -9 0 67.89 10.1
3 -9 0 79.49 15.4
-4 9 0 264.77 17.2
-4 9 0 237.58 15
-4 9 0 254.17 25.5
4 -9 0 216.48 27.7
4 -9 0 265.67 20.9
-5 9 0 183.48 23.2
-5 9 0 131.59 12.2
-5 9 0 146.09 12
-5 9 0 142.69 13.6
5 -9 0 145.19 24.5
5 -9 0 149.79 18.2
-6 9 0 72.09 12.4
-6 9 0 95.29 13.2
-6 9 0 89.09 9.9
-6 9 0 60.89 17.8
6 -9 0 88.79 16.5
6 -9 0 87.09 22.6
-7 9 0 295.87 35.5
-7 9 0 312.87 24.9
-7 9 0 322.87 27.6
-7 9 0 304.97 20.6
7 -9 0 252.07 38.4
7 -9 0 298.67 31.4
-8 9 0 71.99 25.1
-8 9 0 70.39 11.4
-8 9 0 61.29 17.7
8 -9 0 91.59 28.4
-9 9 0 76.19 22.1
-9 9 0 65.19 27.4
-9 9 0 55.59 17.4
-10 9 0 163.58 38.2
-10 9 0 165.58 25.7
-10 9 0 112.99 15
-10 -9 1 14.8 23.1
-9 -9 1 9.6 20.4
-9 -9 1 -1.1 17.9
-8 -9 1 127.59 22.4
-8 -9 1 143.19 24.3
-7 -9 1 -3.4 11.9
-7 -9 1 27.4 13.5
-6 -9 1 61.99 14.4
-6 -9 1 58.19 16.6
-5 -9 1 17.9 10.1
-5 -9 1 8.5 9.6
-4 -9 1 4.4 7
-4 -9 1 12.2 8
3 9 -1 34.2 9.6
-3 -9 1 20.8 8.3
-3 -9 1 37.4 7.6
2 9 -1 82.09 12
-2 -9 1 72.19 11.1
-2 -9 1 67.09 8.6
1 9 -1 44.4 8.8
-1 -9 1 38.9 7.7
-1 -9 1 34.1 5.3
0 9 -1 34.7 7.8
0 -9 1 27 4.3
0 -9 1 34.5 8.8
0 -9 1 31.5 7.1
-1 9 -1 19 6.1
1 -9 1 16.4 4.3
1 -9 1 21.9 9
1 -9 1 19 6.4
-2 9 -1 108.19 11.3
2 -9 1 116.49 12.6
2 -9 1 129.29 17.5
2 -9 1 128.29 11.5
-3 9 -1 145.69 12.5
-3 9 -1 179.68 18.5
3 -9 1 112.89 19.5
-4 9 -1 -3.1 8.8
-4 9 -1 3.2 4.9
-4 9 -1 5.8 4.2
4 -9 1 2 12.1
-5 9 -1 63.39 10.7
-5 9 -1 71.69 10.4
-5 9 -1 89.49 10.1
-5 9 -1 82.39 16.2
5 -9 1 103.29 20.7
-6 9 -1 60.39 12
-6 9 -1 51.59 16.4
-6 9 -1 55.59 8.6
-6 9 -1 59.59 11.4
6 -9 1 38 19.7
-7 9 -1 61.99 15.4
-7 9 -1 48 12.5
-7 9 -1 80.19 12.3
-7 9 -1 35.1 21.3
7 -9 1 69.69 24.5
-8 9 -1 170.78 31.9
-8 9 -1 163.28 23.2
-8 9 -1 169.78 17.5
-8 9 -1 141.09 20
8 -9 1 94.09 30.3
-9 9 -1 23.3 10.8
-9 9 -1 21.1 24.5
-9 9 -1 -4.6 19.6
-9 9 -1 -4.1 16.2
-10 9 -1 6.7 21
-10 9 -1 -8.2 25.3
-10 9 -1 11 12.3
-10 -9 2 106.39 26.5
-9 -9 2 187.98 28.2
-9 -9 2 172.28 26.4
-8 -9 2 150.88 22.9
-8 -9 2 155.38 24.6
-7 -9 2 315.47 29.7
-7 -9 2 337.57 30.1
6 9 -2 268.77 24
-6 -9 2 217.48 23.3
-6 -9 2 262.57 24.6
5 9 -2 335.97 25.9
-5 -9 2 322.17 26.6
-5 -9 2 347.67 27.3
4 9 -2 154.48 14.8
4 9 -2 108.39 17.1
-4 -9 2 142.59 15.4
-4 -9 2 141.99 16.3
3 9 -2 862.71 47
3 9 -2 756.82 50.39
-3 -9 2 756.62 47.9
-3 -9 2 804.62 49.7
2 9 -2 466.95 31.6
-2 -9 2 473.85 30.9
-2 -9 2 426.46 28.4
1 9 -2 52.19 9.4
-1 -9 2 56.29 9.6
-1 -9 2 56.39 7.6
0 9 -2 174.28 14.9
0 -9 2 191.38 15.6
0 -9 2 145.09 13.4
0 -9 2 178.58 17.7
-1 9 -2 57.59 8.7
1 -9 2 39.3 8.5
1 -9 2 42.7 7.1
1 -9 2 53.69 11.4
-2 9 -2 278.37 19.7
2 -9 2 257.57 21
2 -9 2 255.37 24.3
2 -9 2 285.57 20.2
-3 9 -2 248.28 21.6
-3 9 -2 215.48 13.7
-3 9 -2 176.68 13.8
-3 9 -2 193.18 15.9
3 -9 2 226.18 23.7
-4 9 -2 115.89 12.1
-4 9 -2 121.79 11.6
-4 9 -2 108.19 11.6
-4 9 -2 135.29 18.1
4 -9 2 124.19 21
-5 9 -2 18.2 7.9
-5 9 -2 40.2 12.9
-5 9 -2 31.9 9
-5 9 -2 26 7.3
5 -9 2 48.9 16.8
-6 9 -2 152.78 17.4
-6 9 -2 116.29 14.3
-6 9 -2 131.09 22.7
-6 9 -2 138.69 18.3
6 -9 2 157.98 29.2
-7 9 -2 299.87 23.5
-7 9 -2 301.57 26.7
-7 9 -2 307.67 28.2
-7 9 -2 241.48 37.2
7 -9 2 260.67 38.9
-8 9 -2 28.5 18.1
-8 9 -2 75.59 17.4
-8 9 -2 76.89 23.3
-8 9 -2 81.99 13.6
8 -9 2 43.8 26.7
-9 9 -2 166.68 25.8
-9 9 -2 216.88 36.3
-9 9 -2 214.98 24.3
-9 9 -2 198.28 33.4
-10 9 -2 124.39 19.2
-10 9 -2 74.39 31.6
-10 9 -2 77.29 28.8
-10 9 -2 92.89 25.2
9 9 -3 33.5 21.9
-9 -9 3 11.6 18.3
-9 -9 3 -4 18.7
8 9 -3 78.29 19.5
-8 -9 3 58.09 19.2
-8 -9 3 54.39 17.5
7 9 -3 185.68 25.5
-7 -9 3 146.59 22.9
-7 -9 3 226.88 25.6
6 9 -3 18.7 12.1
-6 -9 3 12.9 11.2
-6 -9 3 44.6 12.3
5 9 -3 20.9 11.4
5 9 -3 14.3 9.6
-5 -9 3 12.3 9.8
-5 -9 3 14.1 10.2
4 9 -3 365.86 26.5
4 9 -3 356.86 28.8
-4 -9 3 373.46 26.6
-4 -9 3 357.76 27.7
3 9 -3 215.88 15.6
3 9 -3 143.69 17.5
-3 -9 3 169.88 15.8
-3 -9 3 156.78 19
2 9 -3 160.58 13.8
2 9 -3 200.98 17.9
-2 -9 3 206.58 17.6
-2 -9 3 181.58 15
1 9 -3 138.59 14.7
1 9 -3 154.78 11.5
-1 -9 3 161.78 15.7
-1 -9 3 163.88 13.2
0 9 -3 63.89 10
0 -9 3 77.59 9.4
0 -9 3 53.39 9.9
-1 9 -3 6.3 5.4
-1 9 -3 -1.6 3.1
-1 9 -3 2.8 2.9
1 -9 3 9.8 5.6
1 -9 3 11.2 9.1
1 -9 3 18.5 7.5
-2 9 -3 28.7 6.8
-2 9 -3 17.6 4.1
-2 9 -3 22.8 5.3
2 -9 3 30.7 8.1
2 -9 3 30 8.6
2 -9 3 31.1 11
-3 9 -3 13.7 5
-3 9 -3 25.2 6.9
-3 9 -3 10.9 5.8
3 -9 3 16.2 9
3 -9 3 17.7 12.7
-4 9 -3 138.89 13.4
-4 9 -3 116.79 13.2
-4 9 -3 132.19 18.6
-4 9 -3 127.39 14.2
4 -9 3 130.69 22.5
-5 9 -3 122.49 15.4
-5 9 -3 154.38 16.4
-5 9 -3 104.59 14.6
-5 9 -3 103.39 19.6
5 -9 3 99.09 21.4
-6 9 -3 78.59 14.6
-6 9 -3 68.29 18.2
-6 9 -3 88.39 15.1
-6 9 -3 108.69 14.7
6 -9 3 36.4 20.3
-7 9 -3 15.6 13.5
-7 9 -3 9.3 10.6
-7 9 -3 -6.2 15
7 -9 3 1.5 20.7
-8 9 -3 -8.7 16.6
-8 9 -3 9.4 15.1
-8 9 -3 32.3 12.5
-8 9 -3 14.3 19.1
8 -9 3 33.4 25.2
-9 9 -3 -3.7 25
-9 9 -3 52.89 25.3
-9 9 -3 26.5 19.7
-9 9 -3 33.6 15.7
9 -9 3 -19.8 32.8
-10 9 -3 -7.5 23.7
-10 9 -3 32.1 28.1
-10 9 -3 37.3 29.8
-10 9 -3 21.3 18
10 9 -4 276.47 46.1
9 9 -4 332.47 41.5
-9 -9 4 327.37 35.2
-9 -9 4 279.37 37.1
8 9 -4 467.95 42.2
-8 -9 4 450.55 39
-8 -9 4 474.25 39.2
7 9 -4 105.39 19.3
-7 -9 4 102.29 19.6
-7 -9 4 126.39 19.1
6 9 -4 156.88 21.8
-6 -9 4 184.68 21
-6 -9 4 110.39 19.7
5 9 -4 104.79 16.8
5 9 -4 50.39 13.9
-5 -9 4 81.29 14.5
4 9 -4 716.03 44.2
4 9 -4 580.34 40.9
-4 -9 4 624.14 41
-4 -9 4 639.84 42.4
3 9 -4 693.53 41.6
3 9 -4 661.53 43.7
-3 -9 4 660.53 43.5
-3 -9 4 645.34 41.7
2 9 -4 141.09 13.8
2 9 -4 156.38 16.4
-2 -9 4 182.98 15.2
-2 -9 4 183.08 17.4
1 9 -4 1141.69 68.49
1 9 -4 1197.28 65.89
-1 -9 4 1126.49 69.19
-1 -9 4 1144.59 67.19
0 9 -4 614.84 39.5
0 9 -4 642.44 36.7
0 -9 4 625.24 38.6
0 -9 4 600.24 40.5
-1 9 -4 193.28 16.3
-1 9 -4 166.88 13.2
1 -9 4 194.18 18.3
1 -9 4 219.88 20.5
1 -9 4 174.38 16.3
-2 9 -4 771.12 52.79
-2 9 -4 920.01 52.39
-2 9 -4 958.6 51.29
2 -9 4 890.21 57.69
2 -9 4 875.81 54.99
2 -9 4 884.51 54.29
-3 9 -4 232.08 18.8
-3 9 -4 223.98 16.5
-3 9 -4 210.28 18.1
3 -9 4 165.38 27.4
3 -9 4 197.68 20.3
-4 9 -4 220.28 22.3
-4 9 -4 177.08 16.9
-4 9 -4 200.98 18.7
-4 9 -4 178.48 18.1
4 -9 4 149.99 25.1
-5 9 -4 5.4 8.9
-5 9 -4 22.6 10.9
-5 9 -4 -4.3 10.8
-5 9 -4 11.2 9.8
5 -9 4 6.7 16.5
-6 9 -4 538.05 37.4
-6 9 -4 517.95 38.6
-6 9 -4 602.04 44.4
-6 9 -4 525.95 38.3
6 -9 4 465.95 46.9
-7 9 -4 -15.9 13.7
-7 9 -4 11.7 16
-7 9 -4 -7 11.6
-7 9 -4 11.1 14.1
7 -9 4 -21.4 22.2
-8 9 -4 80.29 20.2
-8 9 -4 83.99 24
-8 9 -4 101.99 21.5
-8 9 -4 61.49 16.5
8 -9 4 65.69 30.3
-9 9 -4 35.7 21.9
-9 9 -4 29.1 24.4
-9 9 -4 31.5 18.1
-9 9 -4 10.8 22.7
9 -9 4 17 37.3
-10 9 -4 45.3 28.4
-10 9 -4 59.79 26.7
-10 9 -4 -4.7 20.2
-10 9 -4 22.2 28.8
10 9 -5 -35.9 27.8
9 9 -5 -8.4 23.1
-9 -9 5 0.1 20.9
-9 -9 5 2.7 20
-8 -9 5 -7.7 16.5
-8 -9 5 -8.1 16.5
7 9 -5 5.1 15.4
-7 -9 5 4.7 14.4
-7 -9 5 14.8 14.5
6 9 -5 -4.5 11.9
6 9 -5 13.4 12.8
-6 -9 5 10.4 11.1
-6 -9 5 -13.8 11.3
5 9 -5 67.29 14.7
5 9 -5 73.59 14.5
-5 -9 5 60.39 13.6
-5 -9 5 56.29 14
4 9 -5 171.08 19.7
4 9 -5 183.48 18.9
-4 -9 5 167.88 17.9
-4 -9 5 176.38 19.9
3 9 -5 12.2 7.8
3 9 -5 17.2 9.2
-3 -9 5 10.5 8.8
-3 -9 5 31.9 9.2
2 9 -5 111.79 12.3
2 9 -5 85.89 13.8
-2 -9 5 98.39 17.5
-2 -9 5 128.79 14.1
1 9 -5 421.76 28.2
1 9 -5 454.25 30.8
-1 -9 5 471.95 32.5
-1 -9 5 433.26 29.6
0 9 -5 54.29 8.1
0 9 -5 52.89 9.5
0 -9 5 49.7 10.1
0 -9 5 20.6 10.1
-1 9 -5 167.18 16.3
-1 9 -5 166.58 13.5
1 -9 5 195.98 19.9
1 -9 5 150.18 18
1 -9 5 170.78 17.1
-2 9 -5 71.79 11.7
-2 9 -5 71.39 10
2 -9 5 85.69 17.6
2 -9 5 63.19 12.7
-3 9 -5 -8.8 7.6
-3 9 -5 2.6 8
-3 9 -5 4.9 6.3
3 -9 5 2.2 9.6
3 -9 5 -5.4 11
-4 9 -5 16.9 8.6
-4 9 -5 14.5 9.2
-4 9 -5 19.2 10.4
4 -9 5 43 15.4
-5 9 -5 124.39 18.6
-5 9 -5 112.49 17.2
-5 9 -5 124.69 19.9
-5 9 -5 135.79 20.9
5 -9 5 126.69 24.4
-6 9 -5 312.07 27.7
-6 9 -5 289.47 27.2
-6 9 -5 302.27 30.6
-6 9 -5 193.18 33.8
6 -9 5 327.97 37.8
-7 9 -5 80.19 16.9
-7 9 -5 70.09 19.2
-7 9 -5 73.99 20.9
-7 9 -5 107.79 19.4
7 -9 5 29.3 24.6
-8 9 -5 9.2 16
-8 9 -5 26.8 20.4
-8 9 -5 11.8 19.9
-8 9 -5 10.8 19
8 -9 5 -50.49 26
-9 9 -5 -9.1 18.4
-9 9 -5 6.7 22.2
-9 9 -5 12.6 22.7
-9 9 -5 7.7 24
-10 9 -5 46.1 31.2
-10 9 -5 87.89 31.3
-10 9 -5 46.7 24
-10 9 -5 94.39 30.2
10 9 -6 148.79 36.5
9 9 -6 -11 23.6
-9 -9 6 60.79 23.6
-9 -9 6 10.2 20.9
8 9 -6 99.39 23.4
-8 -9 6 81.89 21.8
-8 -9 6 126.29 21.9
7 9 -6 47.4 18.2
7 9 -6 -6.7 15.1
-7 -9 6 13.2 15.6
-7 -9 6 -6.4 15
6 9 -6 55.69 15.7
6 9 -6 23.5 14.1
-6 -9 6 28.7 14.8
-6 -9 6 62.69 15.3
5 9 -6 142.79 19.7
5 9 -6 120.09 19.8
-5 -9 6 111.09 17.9
-5 -9 6 116.89 18
4 9 -6 248.28 23.1
4 9 -6 251.87 24
-4 -9 6 234.88 22
-4 -9 6 275.77 24.7
3 9 -6 1182.98 68.89
3 9 -6 1036.7 66.49
-3 -9 6 1040.7 66.89
-3 -9 6 1224.78 69.79
2 9 -6 250.17 20.3
2 9 -6 269.27 22
-2 -9 6 235.28 23.3
-2 -9 6 254.07 21.1
1 9 -6 472.95 33.1
1 9 -6 503.75 31.8
-1 -9 6 507.55 33.6
-1 -9 6 467.35 35.4
0 9 -6 326.87 22.1
0 9 -6 324.87 24.4
0 -9 6 282.87 24.1
-1 9 -6 646.94 38.4
-1 9 -6 653.83 40.9
1 -9 6 609.74 41.2
1 -9 6 549.95 45.1
-2 9 -6 11.9 8.1
-2 9 -6 22.5 7.4
2 -9 6 28.8 11.9
2 -9 6 6.7 10
-3 9 -6 119.99 13.8
-3 9 -6 102.79 16.7
3 -9 6 92.09 18.7
3 -9 6 113.59 19.2
-4 9 -6 8.9 9.3
-4 9 -6 -6.4 10.9
-4 9 -6 10.4 10.4
4 -9 6 15.2 14.6
-5 9 -6 3.3 10.5
-5 9 -6 35.4 12
-5 9 -6 37 14
5 -9 6 -18.7 16.9
-6 9 -6 103.09 18
-6 9 -6 67.19 16
-6 9 -6 72.49 19
-6 9 -6 73.79 18.1
6 -9 6 30.2 23.3
-7 9 -6 4.1 16.5
-7 9 -6 36 16.3
-7 9 -6 18.6 17
-7 9 -6 20.5 18
7 -9 6 70.89 26
-8 9 -6 18.4 20.9
-8 9 -6 7.4 20
-8 9 -6 21.7 17.7
-8 9 -6 -6.3 19.6
8 -9 6 32.3 28.8
-9 9 -6 25.6 23.7
-9 9 -6 40.3 26.3
-9 9 -6 -38 20.6
-9 9 -6 46.1 25.2
-10 9 -6 -2.2 31.9
-10 9 -6 33.6 29.1
-10 9 -6 63.39 26.4
9 9 -7 46.5 29.8
8 9 -7 61.19 24.4
-8 -9 7 76.39 21.7
-8 -9 7 72.29 22.3
-7 -9 7 18.6 16.3
-7 -9 7 22.8 16.2
6 9 -7 -1.1 13.5
6 9 -7 -25.5 12.6
-6 -9 7 6.6 13.5
-6 -9 7 4.4 13.3
5 9 -7 16.9 12.6
5 9 -7 -13.5 12.1
-5 -9 7 0.1 11.2
-5 -9 7 2.5 12.6
4 9 -7 187.68 20.2
4 9 -7 112.89 18.6
-4 -9 7 115.39 18.9
-4 -9 7 136.99 18.6
3 9 -7 8.5 9.3
3 9 -7 -6.2 8.4
-3 -9 7 4.8 9.1
-3 -9 7 4 11
2 9 -7 76.09 12.9
2 9 -7 75.29 12.1
-2 -9 7 81.89 15.3
-2 -9 7 81.09 13.6
1 9 -7 30.5 8.7
1 9 -7 44.9 10.7
-1 -9 7 27.8 10.5
-1 -9 7 36.3 12.1
0 9 -7 164.18 15.8
0 9 -7 180.78 17.8
0 -9 7 125.79 19.7
0 -9 7 190.48 18.8
-1 9 -7 28 8.4
-1 9 -7 31.4 10.1
1 -9 7 39.3 12
1 -9 7 22.4 11
-2 9 -7 3.8 8.8
-2 9 -7 3.9 7.7
2 -9 7 -7.5 10.8
2 -9 7 -13 10.7
-3 9 -7 -0.1 9.2
-3 9 -7 5.2 8.2
3 -9 7 -0.5 11.5
3 -9 7 1.4 12.7
-4 9 -7 30 12.3
-4 9 -7 -12.9 9.6
4 -9 7 -6 15.8
-5 9 -7 26.7 13.5
-5 9 -7 33.5 13
-5 9 -7 21 13.9
5 -9 7 31.7 19.7
-6 9 -7 157.18 23.9
-6 9 -7 148.19 24.1
-6 9 -7 189.78 26.3
6 -9 7 112.99 29.8
-7 9 -7 32.9 17.7
-7 9 -7 17.4 17.4
-7 9 -7 11.3 19.1
-7 9 -7 17.8 18.5
7 -9 7 7.2 24.8
-8 9 -7 21.9 21.8
-8 9 -7 50.79 34
-8 9 -7 23.1 23.4
8 -9 7 46.1 32.3
-9 9 -7 -9 22.7
-9 9 -7 50.69 24.4
-9 9 -7 -5.7 27.5
-9 9 -7 69.89 28.4
9 9 -8 178.88 36.2
8 9 -8 136.69 28.5
-8 -9 8 94.89 25.8
-8 -9 8 129.99 26.6
7 9 -8 400.36 41
7 9 -8 395.46 37.3
-7 -9 8 372.36 36.6
-7 -9 8 386.56 39.3
6 9 -8 402.36 34.8
6 9 -8 402.36 36.2
-6 -9 8 329.17 34.4
-6 -9 8 327.67 34.7
5 9 -8 683.23 48.1
-5 -9 8 657.63 48.8
-5 -9 8 681.93 48.3
4 9 -8 633.44 41.2
4 9 -8 590.24 41.5
-4 -9 8 519.45 41
-4 -9 8 518.95 42.2
3 9 -8 48.5 12.8
3 9 -8 54.09 12.1
-3 -9 8 62.49 14.2
-3 -9 8 68.39 16.6
2 9 -8 710.03 43.4
2 9 -8 707.43 44.8
-2 -9 8 612.04 46.3
-2 -9 8 597.64 43.9
1 9 -8 196.28 18.3
1 9 -8 206.98 19.8
-1 -9 8 140.29 20.5
-1 -9 8 177.78 22.7
0 9 -8 539.05 33.1
0 9 -8 519.05 35
0 -9 8 403.66 36.2
0 -9 8 411.76 36.4
-1 9 -8 583.14 37.7
-1 9 -8 520.75 34.7
1 -9 8 551.34 39.9
1 -9 8 411.46 37.6
-2 9 -8 308.27 29
-2 9 -8 356.36 27.1
2 -9 8 412.16 33
2 -9 8 359.96 32.2
-3 9 -8 421.96 34.1
-3 9 -8 482.25 32.8
3 -9 8 392.96 37
3 -9 8 441.06 39.3
-4 9 -8 337.87 28.9
-4 9 -8 353.76 31.9
4 -9 8 356.26 38.1
-5 9 -8 170.28 26.9
-5 9 -8 156.38 23.1
-5 9 -8 156.98 25.7
5 -9 8 158.78 29.2
-6 9 -8 584.84 44.8
-6 9 -8 563.74 42.6
-6 9 -8 518.25 44
6 -9 8 384.26 51.79
-7 9 -8 237.98 36
-7 9 -8 281.97 34.3
-7 9 -8 313.27 38.8
7 -9 8 262.77 42.6
-8 9 -8 21.8 25.4
-8 9 -8 26.8 24
-8 9 -8 59.59 25.3
8 -9 8 27.6 36
-9 9 -8 -0.5 28.9
-9 9 -8 4 25.9
-9 9 -8 -31.4 26.1
9 9 -9 -1.9 31.1
8 9 -9 -3.5 19.9
8 9 -9 -17.8 25.1
-8 -9 9 -31.3 21.7
7 9 -9 52.59 23.4
7 9 -9 -21.8 18.7
-7 -9 9 19.6 21.3
-7 -9 9 45.2 20
6 9 -9 61.59 20.3
-6 -9 9 72.69 21.7
-6 -9 9 64.29 19.2
5 9 -9 202.48 25.5
5 9 -9 253.27 28.6
-5 -9 9 237.08 30.9
-5 -9 9 175.48 26.2
4 9 -9 250.47 27.3
-4 -9 9 251.67 29.3
-4 -9 9 268.77 27.2
3 9 -9 72.59 14.8
3 9 -9 62.19 14
-3 -9 9 73.29 18
-3 -9 9 63.29 15.7
2 9 -9 48.1 11.8
2 9 -9 40.3 12.6
-2 -9 9 56.29 14.3
-2 -9 9 38.9 15.6
1 9 -9 17.3 10.7
1 9 -9 28.5 11.2
-1 -9 9 27.1 14.1
-1 -9 9 7 12
0 9 -9 -9.6 8.8
0 9 -9 8.3 10.7
0 -9 9 -6.9 12.6
-1 9 -9 -0.3 9.2
-1 9 -9 12.6 11.6
1 -9 9 3.9 13.3
1 -9 9 -8.6 11.5
-2 9 -9 48.2 12
-2 9 -9 57.99 14.8
2 -9 9 64.29 18
2 -9 9 52.59 16.3
-3 9 -9 4.3 12.7
-3 9 -9 8.5 10.6
3 -9 9 -0.4 14.9
3 -9 9 25.7 16.7
-4 9 -9 15.6 12.8
-4 9 -9 -9.4 14.3
4 -9 9 31.3 18.5
-5 9 -9 19.8 14
-5 9 -9 49.8 31
5 -9 9 23.8 23.1
-6 9 -9 31.8 18.5
-6 9 -9 3.9 17.3
-6 9 -9 -0.8 19.2
6 -9 9 12.9 24.2
-7 9 -9 2.8 21.1
-7 9 -9 13.6 24.1
-7 9 -9 3.7 21.2
7 -9 9 -8.5 29
-8 9 -9 81.29 31.1
-8 9 -9 87.39 28.4
-8 9 -9 83.49 29.1
8 -9 9 81.79 37.4
-9 9 -9 68.19 33.1
-9 9 -9 90.39 34.3
-9 9 -9 48.2 30.3
8 9 -10 199.98 34.9
8 9 -10 133.69 26.9
7 9 -10 275.17 37.6
7 9 -10 259.17 39.3
-7 -9 10 213.48 36.8
-7 -9 10 326.27 38.5
6 9 -10 439.36 38.7
6 9 -10 445.06 42.1
-6 -9 10 445.46 41.8
-6 -9 10 345.37 38.2
5 9 -10 458.35 38.7
5 9 -10 430.86 37.3
-5 -9 10 475.85 39.1
-5 -9 10 416.56 40.7
4 9 -10 634.94 44.2
4 9 -10 606.64 43.4
-4 -9 10 531.75 44
-4 -9 10 551.64 46.2
3 9 -10 162.88 22.2
3 9 -10 204.28 23.3
-3 -9 10 145.99 24.6
-3 -9 10 201.18 24.9
2 9 -10 295.57 25.5
-2 -9 10 220.88 30
-2 -9 10 296.67 29.7
1 9 -10 836.42 53.79
1 9 -10 890.61 60.09
-1 -9 10 807.12 56.89
0 9 -10 443.96 35
0 9 -10 466.95 33.3
0 -9 10 437.66 37.5
-1 9 -10 228.58 25.5
-1 9 -10 215.68 21.9
1 -9 10 210.98 27.2
1 -9 10 241.38 27.8
-2 9 -10 437.46 34.5
2 -9 10 415.66 39.9
2 -9 10 497.35 40.9
-3 9 -10 262.97 29.8
-3 9 -10 292.67 26.9
3 -9 10 299.77 35.4
3 -9 10 301.37 33.5
-4 9 -10 96.99 18.8
-4 9 -10 76.29 19.9
4 -9 10 53.29 24
-5 9 -10 415.56 36.6
-5 9 -10 345.67 37.2
5 -9 10 389.96 46.8
-6 9 -10 177.88 31.7
-6 9 -10 201.88 30.8
-6 9 -10 193.68 32.3
6 -9 10 204.48 37.3
-7 9 -10 102.79 27.7
-7 9 -10 87.69 25.9
-7 9 -10 115.99 30.1
7 -9 10 79.89 36.4
-8 9 -10 161.08 32
-8 9 -10 86.09 31.3
8 -9 10 135.19 39.4
8 9 -11 61.69 32.9
7 9 -11 125.99 29.8
7 9 -11 80.59 23
6 9 -11 67.49 21
6 9 -11 82.09 25.2
-6 -9 11 52.19 22.5
-6 -9 11 103.09 26.3
5 9 -11 31.4 19
-5 -9 11 77.29 22.3
-5 -9 11 11.3 19.4
4 9 -11 101.49 20.7
4 9 -11 89.49 18.6
-4 -9 11 87.49 22.5
-4 -9 11 75.19 20.6
3 9 -11 -12.6 12.4
-3 -9 11 10.6 18.1
-3 -9 11 -5.9 16.1
2 9 -11 59.89 15.3
2 9 -11 35.6 14.5
-2 -9 11 31.9 17.7
1 9 -11 63.79 15.9
1 9 -11 55.19 14.8
-1 -9 11 92.29 20.7
0 9 -11 -5.9 12.5
0 9 -11 33.1 13
0 -9 11 30.9 17.5
-1 9 -11 146.29 23.2
-1 9 -11 144.09 20.4
1 -9 11 124.59 24.1
1 -9 11 193.38 27.1
-2 9 -11 118.19 20.5
-2 9 -11 129.29 19.7
2 -9 11 65.09 22.4
2 -9 11 151.48 27.1
-3 9 -11 121.79 23.5
3 -9 11 187.58 31.7
3 -9 11 167.28 28.1
-4 9 -11 99.29 21.3
-4 9 -11 61.99 17.5
4 -9 11 45.5 25.2
-5 9 -11 86.89 25.8
-5 9 -11 117.59 22.9
5 -9 11 18.2 26.5
-6 9 -11 29.3 22.2
-6 9 -11 33.6 22.6
6 -9 11 85.49 33.9
-7 9 -11 99.69 28.6
-7 9 -11 -6.5 25.6
7 -9 11 10.1 37.6
7 9 -12 28.8 22.4
7 9 -12 30.1 29.4
6 9 -12 167.58 30.8
6 9 -12 128.89 25.1
5 9 -12 299.07 32.9
5 9 -12 289.57 36.9
-5 -9 12 287.57 38.5
4 9 -12 46.8 21.5
4 9 -12 59.39 18.1
-4 -9 12 95.69 22.5
-4 -9 12 126.59 26.2
3 9 -12 474.75 41.2
3 9 -12 516.05 40.3
-3 -9 12 465.45 43.3
2 9 -12 194.18 25.8
2 9 -12 187.18 27.3
-2 -9 12 207.98 30.1
1 9 -12 187.08 24.6
1 9 -12 138.39 21.5
-1 -9 12 118.19 25.1
0 9 -12 300.47 30.8
0 9 -12 278.57 28.9
0 -9 12 374.06 38.3
-1 9 -12 52.49 17.4
-1 9 -12 95.09 18.1
1 -9 12 89.49 22.1
1 -9 12 73.39 23.6
-2 9 -12 165.18 27.5
-2 9 -12 158.18 24.2
2 -9 12 195.18 33.3
2 -9 12 175.68 29.5
-3 9 -12 43.7 19.6
-3 9 -12 64.19 18
3 -9 12 35.8 22.2
3 -9 12 77.29 25.1
-4 9 -12 219.18 31.5
-4 9 -12 251.37 34.3
4 -9 12 233.68 36.2
-5 9 -12 157.48 26.6
-5 9 -12 160.18 30.2
5 -9 12 189.38 36.2
-6 9 -12 222.68 36.4
-6 9 -12 275.27 39.5
6 -9 12 213.98 43.1
-7 9 -12 175.58 37.2
-7 9 -12 235.48 36.1
7 -9 12 201.88 48.3
6 9 -13 -31.2 21.8
6 9 -13 29.6 26.2
5 9 -13 50.69 20.6
5 9 -13 40.6 23.8
4 9 -13 48.7 19.2
4 9 -13 29.9 21.4
-4 -9 13 2 28.3
3 9 -13 41.6 18.4
3 9 -13 102.79 22.5
-3 -9 13 40.2 22.1
2 9 -13 134.19 23.5
2 9 -13 119.29 23.1
-2 -9 13 172.38 29
1 9 -13 24.4 15.7
1 9 -13 -10.6 14.9
-1 -9 13 -14.1 19.6
0 9 -13 23.7 17.1
0 9 -13 21 16
0 -9 13 22.7 23.7
-1 9 -13 166.28 25.5
-1 9 -13 160.48 26.4
1 -9 13 188.08 32
1 -9 13 208.48 35.6
-2 9 -13 39.4 19.2
-2 9 -13 -5.4 17.4
2 -9 13 6.8 24.3
2 -9 13 -12.8 20.6
-3 9 -13 -16.7 19.5
-3 9 -13 -3.2 17.6
3 -9 13 49.1 25.3
3 -9 13 -18.6 24.2
-4 9 -13 88.69 22.6
-4 9 -13 49.8 23.3
4 -9 13 54.59 29.6
-5 9 -13 -16.6 21
-5 9 -13 -10 24.7
5 -9 13 -16.8 30.8
-6 9 -13 -7.3 27.6
-6 9 -13 37 27.8
6 -9 13 56.29 36.8
5 9 -14 16.6 27.2
5 9 -14 76.39 23.1
4 9 -14 13.2 24.1
4 9 -14 54.29 21.4
3 9 -14 97.49 23.6
3 9 -14 79.39 22.8
2 9 -14 309.57 38.4
2 9 -14 359.86 36
1 9 -14 173.88 29
1 9 -14 178.98 29.8
0 9 -14 49.2 19.7
0 9 -14 59.39 21.2
-1 9 -14 232.48 32.5
-1 9 -14 196.58 33
1 -9 14 262.17 41.2
-2 9 -14 313.27 36.7
-2 9 -14 235.08 34.3
2 -9 14 179.78 34.3
-3 9 -14 209.08 31
-3 9 -14 216.68 34.8
3 -9 14 187.38 35.7
-4 9 -14 201.28 32.4
-4 9 -14 255.77 41.5
4 -9 14 326.07 51.39
-5 9 -14 293.77 46.3
-5 9 -14 271.17 43.3
5 -9 14 224.18 44.4
4 9 -15 16.6 25.6
4 9 -15 -38 22.2
3 9 -15 63.19 23.6
3 9 -15 47.3 26.1
2 9 -15 118.09 27.7
2 9 -15 98.39 23.8
1 9 -15 -21.8 19.5
1 9 -15 14.7 20.5
0 9 -15 16.2 20.5
0 9 -15 30.9 21.5
-1 9 -15 -6.7 19.5
-1 9 -15 32.2 23.4
1 -9 15 -21.6 27.1
-2 9 -15 22.5 23.6
-2 9 -15 4 23.8
2 -9 15 38.8 30.3
-3 9 -15 -56.29 25.3
-3 9 -15 13.6 22.9
3 -9 15 -16.9 29.8
-4 9 -15 3.8 24.6
-4 9 -15 -7.2 27.9
4 -9 15 -1.4 35.8
2 9 -16 36.7 27.4
2 9 -16 61.29 25
1 9 -16 75.39 27.6
1 9 -16 93.09 25.4
0 9 -16 57.69 26.7
0 9 -16 109.19 29.2
0 -9 16 66.99 33
-1 9 -16 168.08 31.7
-1 9 -16 169.08 31.4
1 -9 16 179.48 37
-2 9 -16 132.59 32
-2 9 -16 176.28 32.8
2 -9 16 156.28 38.3
-2 -10 -15 -13.5 22
-1 -10 -15 21.3 21.1
0 -10 -15 54.19 20
1 -10 -15 2.6 18.3
-2 10 15 23.9 16.5
2 -10 -15 -9.3 18.7
-3 10 15 -10.3 20.3
3 -10 -15 13.6 19.9
-4 -10 -14 39 26.7
-3 -10 -14 -8.5 22.8
0 -10 -14 8.7 25.7
-2 10 14 16.4 15.8
-3 10 14 111.99 23.8
-4 10 14 92.89 28.2
4 -10 -14 108.29 23.7
-5 10 14 62.09 31.8
-5 -10 -13 56.09 26.7
-4 -10 -13 26.5 22.8
-3 -10 -13 -9.9 22.1
-2 -10 -13 15.2 18.3
-1 -10 -13 23.9 19.1
0 -10 -13 -12.2 15.8
-1 10 13 -3.4 10.1
1 -10 -13 2.2 16.2
-2 10 13 8.7 14.2
-3 10 13 56.99 19.5
3 -10 -13 27.9 16.2
-4 10 13 -7.8 22.6
-5 10 13 45.3 30.4
5 -10 -13 98.49 22
-6 10 13 14.5 33.7
-6 -10 -12 139.99 30.8
-5 -10 -12 76.29 25.9
-4 -10 -12 -20.6 28.1
-3 -10 -12 42.1 21.2
-2 -10 -12 -30.3 15
-1 -10 -12 21.6 14.1
0 -10 -12 25 12.7
-1 10 12 16.8 10.5
1 -10 -12 4.3 11.9
-2 10 12 98.59 17.7
2 -10 -12 80.79 16.4
-3 10 12 84.39 20.3
3 -10 -12 74.99 15.9
-4 10 12 27 21
4 -10 -12 27.3 16.3
-5 10 12 55.19 26.5
-6 10 12 59.39 31.2
6 -10 -12 40.8 22
-4 -10 -11 20 18.6
-3 -10 -11 46.5 17.5
-1 10 11 151.48 18.9
-2 10 11 -5.9 12.2
-3 10 11 42.8 17.1
3 -10 -11 31.5 12.3
-4 10 11 6.2 18.5
4 -10 -11 16.5 13.4
4 -10 -11 -14.5 8.1
5 -10 -11 31.6 16.5
-6 10 11 36.8 27
6 -10 -11 -4.1 18.4
-7 10 11 24.4 32.2
7 -10 -11 9.7 22.8
-8 -10 -10 141.99 39.3
-2 -10 -10 104.69 16.6
-1 -10 -10 21.7 11.3
0 -10 -10 14 10.1
-1 10 10 164.48 18.2
1 -10 -10 122.29 16.8
-2 10 10 20.6 12.4
2 -10 -10 23.2 9.5
-3 10 10 -3.5 14.3
-4 10 10 25.8 18.8
4 -10 -10 18.2 6.8
4 -10 -10 16.9 11.8
-5 10 10 3 22.3
5 -10 -10 18.9 13.6
-6 10 10 83.49 30.1
-7 10 10 -13.6 28.5
7 -10 -10 67.19 42.5
-8 10 10 4.7 37.1
8 -10 -10 11.6 26.3
-8 -10 -9 252.57 42.9
-7 -10 -9 59.79 27.3
-2 -10 -9 23 11.7
-1 -10 -9 10.4 9.3
0 -10 -9 0.1 7.8
-1 10 9 289.87 23.1
1 -10 -9 210.98 19.7
-2 10 9 5.9 11.2
2 -10 -9 14.6 8.2
-3 10 9 -7.6 13.2
3 -10 -9 2 6.6
3 -10 -9 4.8 8.2
-4 10 9 222.68 30.3
4 -10 -9 165.68 12.7
4 -10 -9 178.28 13.4
-5 10 9 25.8 22.1
5 -10 -9 0.3 11.9
-6 10 9 55.39 27.3
-7 10 9 34.7 30.5
7 -10 -9 40.1 19.5
-8 10 9 11.7 10.9
-8 10 9 28.5 33.7
8 -10 -9 4.2 22.4
-9 -10 -8 318.37 53.99
-8 -10 -8 81.29 29.3
-7 -10 -8 323.07 39.9
-4 -10 -8 59.79 10.5
-3 -10 -8 159.28 19.8
-1 -10 -8 241.18 20.7
-1 -10 -8 259.27 21.8
0 -10 -8 178.48 16.3
0 -10 -8 172.08 20
-1 10 8 21.2 9.4
1 -10 -8 -4.3 11.2
1 -10 -8 6.5 6.2
-2 10 8 50.89 12.9
2 -10 -8 37.7 8.6
-3 10 8 21.5 13.9
3 -10 -8 34.3 9.6
3 -10 -8 43.1 7.4
-4 10 8 -2 15.5
4 -10 -8 10.5 3.5
4 -10 -8 19 9.3
-5 10 8 114.89 24.8
5 -10 -8 138.99 19.9
-6 10 8 48 23.8
6 -10 -8 31 14.9
-7 10 8 23.9 26.4
-7 10 8 20.5 7.3
7 -10 -8 28.2 17.4
-8 10 8 18.7 10.2
-8 10 8 2 33.7
8 -10 -8 58.19 23.1
-9 10 8 -37.6 35.5
9 -10 -8 -26.7 26.3
-9 -10 -7 50.19 32.6
-8 -10 -7 -5.8 26.1
-8 -10 -7 14.1 16.5
-7 -10 -7 9.8 20.3
-6 -10 -7 87.99 20
-4 -10 -7 4.3 7
-3 -10 -7 22.7 10.8
-2 -10 -7 47.1 9.9
-1 -10 -7 24.3 9.3
0 -10 -7 70.09 10.1
0 -10 -7 72.59 13.7
-1 10 7 11.2 8.7
1 -10 -7 16.5 11.3
1 -10 -7 -6.3 4.9
-2 10 7 28.4 11.3
2 -10 -7 15.6 5.9
2 -10 -7 7.8 6.3
2 -10 -7 27.4 13.5
-3 10 7 3.1 11.5
3 -10 -7 -1.2 15.9
3 -10 -7 15.2 5.3
3 -10 -7 23.1 7.4
-4 10 7 269.07 30.5
4 -10 -7 249.97 21.1
4 -10 -7 252.47 14.8
-5 10 7 35.9 19.6
5 -10 -7 49.2 12.7
-6 10 7 155.08 29.4
6 -10 -7 142.99 22.1
-7 10 7 36.8 25.1
-7 10 7 2.7 9.2
7 -10 -7 -15.4 15.8
-8 10 7 27.9 11
-8 10 7 11.5 29.2
8 -10 -7 31.7 21.7
-9 10 7 -7.5 13.5
-9 10 7 -40.3 33.5
9 -10 -7 9.3 25.9
-9 -10 -6 395.96 51.49
-8 -10 -6 536.45 48.6
-7 -10 -6 542.75 45.6
-6 -10 -6 776.32 54.79
-3 -10 -6 1051.69 62.29
-2 -10 -6 160.38 16.8
-1 -10 -6 7.1 8.3
0 -10 -6 3.3 7.5
0 -10 -6 26.7 10.2
0 -10 -6 3.6 4.6
-1 10 6 5.7 8.6
1 -10 -6 6.7 4.5
1 -10 -6 6 10.6
1 -10 -6 -8.1 5.9
-2 10 6 126.09 17.3
2 -10 -6 86.09 17.6
2 -10 -6 76.89 9.3
2 -10 -6 92.49 10.8
-3 10 6 465.75 36.7
3 -10 -6 422.66 39.8
3 -10 -6 515.15 29.3
3 -10 -6 487.65 30.6
-4 10 6 662.03 44.9
4 -10 -6 409.66 42.9
4 -10 -6 541.85 35
-5 10 6 163.78 29
5 -10 -6 130.09 17.9
-6 10 6 119.29 26
6 -10 -6 92.39 17.2
-7 10 6 111.99 14.5
-7 10 6 138.79 30.6
7 -10 -6 125.19 31.4
-8 10 6 7.6 10.1
-8 10 6 6.5 28.3
8 -10 -6 8 19.1
-9 10 6 13.2 13.8
-9 10 6 6.5 34.7
9 -10 -6 28.2 26.1
-9 -10 -5 50.79 26.5
-8 -10 -5 -24 21.1
-7 -10 -5 77.59 20.1
-6 -10 -5 151.88 24
-6 -10 -5 215.48 26.9
-5 -10 -5 18.5 11.9
-5 -10 -5 17.1 13.3
-3 -10 -5 10.2 7
-2 -10 -5 30.1 10.1
-2 -10 -5 36.7 9
-1 -10 -5 46 10.1
-1 -10 -5 55.69 11.2
0 -10 -5 66.99 12.8
0 -10 -5 63.39 10.5
-1 10 5 6.9 7.5
1 -10 -5 2 5.5
1 -10 -5 7.6 3.3
1 -10 -5 9.3 10.3
-2 10 5 278.77 23.6
2 -10 -5 269.27 25.8
2 -10 -5 213.18 17.4
2 -10 -5 258.77 16.5
-3 10 5 15.7 10.7
3 -10 -5 9.4 13.1
3 -10 -5 8.1 5.4
-4 10 5 86.89 18
4 -10 -5 70.09 19.3
4 -10 -5 86.39 12.8
-5 10 5 32.9 16.7
5 -10 -5 20.2 18.3
5 -10 -5 13.5 9.5
6 -10 -5 4.1 11.6
-7 10 5 72.39 25.5
-7 10 5 86.99 14.6
-7 10 5 99.79 11.9
7 -10 -5 90.69 19.7
-8 10 5 8 10
-8 10 5 -18.7 26.4
8 -10 -5 32.5 19.8
-9 10 5 2.6 13.1
-9 10 5 -1.7 31.4
9 -10 -5 -27.7 21.4
-10 10 5 40.1 39.3
-10 10 5 -4.2 17.5
10 -10 -5 -46.3 26.9
-9 -10 -4 232.38 36.3
-8 -10 -4 200.58 29
-7 -10 -4 254.87 30.8
-7 -10 -4 240.78 31.3
-6 -10 -4 60.39 23.6
-6 -10 -4 43.4 15.7
-5 -10 -4 737.23 50.29
-5 -10 -4 694.03 47.9
-4 -10 -4 378.16 29.7
-4 -10 -4 439.66 33
-3 -10 -4 702.43 46.7
-2 -10 -4 386.56 29.9
-2 -10 -4 438.26 29.2
-1 -10 -4 762.32 47.3
-1 -10 -4 715.63 46.1
0 -10 -4 573.34 39.6
0 -10 -4 581.24 36.8
-1 10 4 577.64 37
1 -10 -4 539.35 33.4
1 -10 -4 481.95 38.5
-2 10 4 711.03 47
2 -10 -4 671.53 40.4
2 -10 -4 770.52 42.3
2 -10 -4 697.33 49.4
-3 10 4 327.77 28.8
3 -10 -4 347.07 21.3
3 -10 -4 295.37 21.3
3 -10 -4 286.87 30.1
-4 10 4 55.79 14.8
4 -10 -4 52.49 9.3
4 -10 -4 39.7 15.6
-5 10 4 41.7 16
5 -10 -4 16.4 9.8
5 -10 -4 38.2 18.5
-6 10 4 14.8 20.1
6 -10 -4 55.19 22.8
6 -10 -4 68.99 14.2
-7 10 4 22.1 7
-7 10 4 12.8 21.1
-7 10 4 14.1 9.5
7 -10 -4 1.4 15
-8 10 4 15.5 10.3
-8 10 4 25.1 14.1
-8 10 4 22.5 27.6
8 -10 -4 -14.6 17.8
-9 10 4 35.8 13.8
-9 10 4 -6.4 31
9 -10 -4 -32.8 21.9
-10 10 4 8.7 17.7
-10 10 4 96.39 40
10 -10 -4 -33.6 28
-10 -10 -3 67.69 41.7
-9 -10 -3 -18.6 22.6
-8 -10 -3 31.1 20.3
-8 -10 -3 2.9 17.8
-7 -10 -3 29.4 16.1
-7 -10 -3 6.9 14.5
-6 -10 -3 63.59 16.8
-5 -10 -3 337.27 28.7
-5 -10 -3 276.37 26.4
-4 -10 -3 31.7 11.9
-4 -10 -3 29 10
-3 -10 -3 134.49 17.3
-3 -10 -3 169.88 15.1
-2 -10 -3 220.28 19.1
-2 -10 -3 212.68 19.5
-1 -10 -3 0.2 6.1
-1 -10 -3 16.6 8
0 -10 -3 28 10.4
0 -10 -3 49.99 8.7
1 -10 -3 110.09 16.6
1 -10 -3 102.29 10.9
-2 10 3 263.37 23.3
2 -10 -3 280.27 18.4
2 -10 -3 227.18 25.5
2 -10 -3 267.57 16.3
-3 10 3 126.89 18.1
3 -10 -3 118.19 10.9
3 -10 -3 132.89 21.1
3 -10 -3 123.89 11.2
-4 10 3 60.69 15.5
4 -10 -3 49.6 16.8
4 -10 -3 42.5 9.3
-5 10 3 58.79 17.2
5 -10 -3 45.1 19.1
5 -10 -3 48.4 11.4
-6 10 3 179.88 12.8
-6 10 3 200.68 30.2
6 -10 -3 246.08 23.5
6 -10 -3 177.18 33.1
-7 10 3 8.5 20.1
-7 10 3 15.3 7.3
-7 10 3 26.2 9.6
7 -10 -3 -27.9 23.2
7 -10 -3 0 14.7
-8 10 3 13.1 24.8
-8 10 3 -10.1 13.2
-8 10 3 0.7 9.7
8 -10 -3 -10.6 17.6
-9 10 3 37.2 31.7
-9 10 3 28 18.6
-9 10 3 39.8 22.3
9 -10 -3 -9.8 22.2
-10 10 3 10.3 38.2
-10 10 3 -6.2 23.9
-10 10 3 26.9 18.3
10 -10 -3 -0.3 26.1
-10 -10 -2 19.3 28.9
-9 -10 -2 131.99 27.4
-8 -10 -2 59.89 20
-8 -10 -2 58.19 20.5
-7 -10 -2 49.99 17.9
-7 -10 -2 63.19 17.7
-6 -10 -2 337.77 29.2
-5 -10 -2 244.98 24
-5 -10 -2 272.47 24.1
-4 -10 -2 687.93 46.1
-4 -10 -2 687.83 44
-3 -10 -2 419.96 41.3
-3 -10 -2 548.25 32.7
-2 -10 -2 1517.15 86.69
-2 -10 -2 1579.64 90.19
-1 -10 -2 1642.84 94.29
-1 -10 -2 1633.84 95.59
0 -10 -2 1170.08 68.09
0 -10 -2 1170.18 71.09
1 -10 -2 268.77 24.4
1 -10 -2 272.57 19.3
-2 10 2 444.46 30.9
2 -10 -2 380.56 24.9
2 -10 -2 361.66 22.9
2 -10 -2 391.06 33
-3 10 2 89.99 16.3
3 -10 -2 76.89 9.4
3 -10 -2 68.89 9.3
3 -10 -2 70.29 17.1
-4 10 2 24.6 12.6
4 -10 -2 19.4 7.9
4 -10 -2 18.2 14.2
-5 10 2 319.77 31.6
5 -10 -2 338.57 26.4
5 -10 -2 278.27 34.2
-6 10 2 366.76 22.8
-6 10 2 361.26 36.3
6 -10 -2 321.17 29.7
6 -10 -2 290.07 38.9
-7 10 2 111.69 17
-7 10 2 113.89 25.5
-7 10 2 137.19 14.1
7 -10 -2 71.99 26.6
7 -10 -2 88.19 19.2
-8 10 2 55.89 15.5
-8 10 2 28.9 11.8
-8 10 2 52.79 25.3
8 -10 -2 58.39 19.8
-9 10 2 -9.2 28.1
-9 10 2 22.9 19.3
-9 10 2 19.8 20.7
9 -10 -2 24.5 22.2
-10 10 2 -13.1 23.5
-10 10 2 -23.5 18
-10 10 2 -6.2 33.9
10 -10 -2 -2.3 28
-10 -10 -1 8.5 27.5
-9 -10 -1 -2.2 20.1
-8 -10 -1 43.3 19.2
-8 -10 -1 39.5 19.8
-7 -10 -1 7.4 15
-7 -10 -1 5.6 14.5
-6 -10 -1 133.09 21
-5 -10 -1 19.9 10.8
-5 -10 -1 -0.2 10.4
-4 -10 -1 13.9 10.2
-4 -10 -1 30.5 9.3
-3 -10 -1 237.48 18.5
-2 -10 -1 321.27 21.4
-2 -10 -1 339.27 24.7
-1 -10 -1 36.1 9.7
-1 -10 -1 25.9 4.3
-1 -10 -1 44.8 8.7
0 -10 -1 14 6.1
0 -10 -1 4.7 7.3
-1 10 1 515.75 35
1 -10 -1 540.95 39.3
1 -10 -1 577.04 31.3
1 -10 -1 588.54 35
-2 10 1 209.08 16.8
-2 10 1 207.18 20.9
2 -10 -1 214.38 15.5
2 -10 -1 249.97 15.4
2 -10 -1 221.98 17
2 -10 -1 228.28 23.9
-3 10 1 463.35 31.6
-3 10 1 614.94 39.4
3 -10 -1 394.06 52.19
3 -10 -1 531.55 32.5
3 -10 -1 543.15 32.8
-4 10 1 136.69 11.8
-4 10 1 148.09 20.3
4 -10 -1 133.99 15.2
4 -10 -1 131.79 23.3
-5 10 1 68.79 7.9
-5 10 1 74.69 18.3
5 -10 -1 63.69 13.3
5 -10 -1 53.09 19.9
-6 10 1 31 16.4
-6 10 1 32.2 8
-6 10 1 27.3 6.3
-6 10 1 20 4.9
6 -10 -1 8.3 11.8
6 -10 -1 19.6 20.4
-7 10 1 19.5 18.5
-7 10 1 11.8 11
-7 10 1 34.7 9.4
7 -10 -1 20.8 15.8
7 -10 -1 32.3 24
-8 10 1 7.3 14.5
-8 10 1 10 11
-8 10 1 5.8 22.6
8 -10 -1 19.1 17.7
-9 10 1 37.6 19.7
-9 10 1 -8.7 26.9
-9 10 1 49.7 15.7
9 -10 -1 75.79 23.8
-10 10 1 55.99 34.1
-10 10 1 -9.8 18.8
-10 10 1 -6.6 24.1
-10 -10 0 51.39 27.2
-9 -10 0 172.38 29.8
-8 -10 0 173.88 25.2
-8 -10 0 137.99 24.9
-7 -10 0 419.76 34.5
-7 -10 0 341.27 33.7
-6 -10 0 426.36 40.4
-6 -10 0 596.14 39.7
-5 -10 0 764.72 49.6
-5 -10 0 780.72 50.89
-4 -10 0 777.22 49.99
-4 -10 0 772.62 48.3
-3 -10 0 538.35 34.1
-2 -10 0 1285.77 75.69
1 10 0 2106.49 125.69
-1 -10 0 2368.46 125.49
-1 -10 0 2158.48 121.89
0 10 0 1158.68 70.89
0 -10 0 1208.78 66.99
0 -10 0 1241.28 70.59
0 -10 0 1230.18 73.39
-1 10 0 2201.28 121.29
1 -10 0 2161.58 118.29
1 -10 0 2083.99 124.89
1 -10 0 2138.69 120.99
-2 10 0 1367.56 77.49
2 -10 0 1342.67 76.49
2 -10 0 1386.96 78.09
2 -10 0 1301.57 83.19
-3 10 0 579.94 34.7
-3 10 0 549.05 40.1
3 -10 0 586.74 35.8
3 -10 0 539.75 35.5
-4 10 0 798.12 52.89
-4 10 0 725.73 45.1
4 -10 0 809.32 48.5
4 -10 0 758.22 55.69
-5 10 0 680.53 43
-5 10 0 738.73 52.79
-5 10 0 803.92 42.9
-5 10 0 768.62 43.7
5 -10 0 638.64 55.29
5 -10 0 794.22 48.9
-6 10 0 545.05 45.6
-6 10 0 558.34 35.9
-6 10 0 559.54 33.8
-6 10 0 564.54 34.7
6 -10 0 553.84 49.8
6 -10 0 582.14 41.7
-7 10 0 392.26 39.5
-7 10 0 356.26 27.1
-7 10 0 379.76 24
-7 10 0 391.66 29.8
7 -10 0 304.77 43
-8 10 0 154.78 13.8
-8 10 0 162.88 25.3
-8 10 0 240.38 35.3
-8 10 0 151.18 20.7
8 -10 0 90.79 32.9
-9 10 0 103.99 29.9
-9 10 0 114.99 19.4
-9 10 0 143.29 24.9
-9 10 0 110.39 12.2
-10 10 0 87.19 36.2
-10 10 0 92.69 27.1
-10 10 0 41.2 21.8
-9 -10 1 18.4 22.6
-9 -10 1 12 21.8
-8 -10 1 -6.6 15.1
-8 -10 1 -8.7 16
-7 -10 1 39 14.6
-7 -10 1 25.3 15.9
-6 -10 1 20.9 12.1
-6 -10 1 27 13.1
-5 -10 1 80.59 14.6
-5 -10 1 78.09 13.6
-4 -10 1 155.58 15.8
-4 -10 1 131.19 17
3 10 -1 487.35 36.2
-3 -10 1 535.85 36.2
-3 -10 1 529.55 33.3
2 10 -1 247.08 20.4
-2 -10 1 202.38 15.8
-2 -10 1 213.88 18.8
1 10 -1 575.54 37.6
-1 -10 1 550.94 36.7
-1 -10 1 586.34 34
0 10 -1 2 5.8
0 -10 1 3 6
0 -10 1 5.2 3.3
0 -10 1 13.4 8.8
-1 10 -1 32.2 7.6
1 -10 1 38.6 6.5
1 -10 1 45.2 8.3
1 -10 1 25.8 10.5
-2 10 -1 371.56 24
2 -10 1 357.26 25.1
2 -10 1 349.96 23.4
2 -10 1 294.47 29.6
-3 10 -1 239.68 23.2
-3 10 -1 229.68 17.2
3 -10 1 229.18 26.3
3 -10 1 206.58 18.6
-4 10 -1 29.3 4.2
-4 10 -1 40.5 12.5
-4 10 -1 36.6 7.2
4 -10 1 22.7 15
-5 10 -1 18.7 6.5
-5 10 -1 10.7 6
-5 10 -1 10.1 12
-5 10 -1 0.8 5.2
5 -10 1 1.5 14.8
-6 10 -1 143.29 15.1
-6 10 -1 173.38 16.8
-6 10 -1 176.68 17.6
-6 10 -1 239.18 27.6
6 -10 1 180.38 30
-7 10 -1 25.2 18.9
-7 10 -1 18.6 11.7
-7 10 -1 15.3 7.6
-7 10 -1 8.4 10.4
7 -10 1 -9.2 22.4
-8 10 -1 47.8 10
-8 10 -1 25.9 16.1
-8 10 -1 5 20.4
8 -10 1 23.9 28.2
-9 10 -1 3.5 20
-9 10 -1 13.9 16.3
-9 10 -1 -22.1 8.9
-9 10 -1 22.4 25.5
-10 10 -1 128.59 51.59
-10 10 -1 29.6 21.8
-10 10 -1 23.6 11.6
-9 -10 2 -14.3 21
-9 -10 2 -8.1 20.2
-8 -10 2 52.99 17.2
-8 -10 2 35.4 17.9
-7 -10 2 108.09 19.2
-7 -10 2 138.29 21.1
-6 -10 2 351.46 29.9
-6 -10 2 338.47 30.3
-5 -10 2 318.07 26.7
-5 -10 2 293.37 25.3
4 10 -2 38.1 11.9
-4 -10 2 42.2 10.9
-4 -10 2 19.4 8.9
3 10 -2 79.29 13.4
-3 -10 2 72.29 10.9
-3 -10 2 65.09 11.9
2 10 -2 384.56 27.9
-2 -10 2 360.56 24.3
-2 -10 2 361.26 26.9
1 10 -2 272.97 21.3
-1 -10 2 266.67 20.9
-1 -10 2 245.48 17.7
0 10 -2 1203.18 70.19
0 -10 2 1188.98 70.49
0 -10 2 1184.08 67.69
0 -10 2 1184.18 72.69
-1 10 -2 1536.85 89.89
1 -10 2 1598.14 93.99
1 -10 2 1547.15 90.89
1 -10 2 1588.04 88.69
-2 10 -2 1543.65 84.79
2 -10 2 1518.15 86.09
2 -10 2 1461.45 84.59
2 -10 2 1362.96 90.29
-3 10 -2 540.25 34.2
-3 10 -2 562.54 39.6
3 -10 2 511.95 41.4
-4 10 -2 632.64 37.4
-4 10 -2 672.83 46
-4 10 -2 646.04 39.6
4 -10 2 614.44 48.9
-5 10 -2 272.37 20.1
-5 10 -2 248.38 19.5
-5 10 -2 247.38 19.6
-5 10 -2 270.37 28.6
5 -10 2 233.18 31.6
-6 10 -2 375.46 25.6
-6 10 -2 329.67 34
-6 10 -2 379.76 27.4
-6 10 -2 332.87 26.4
6 -10 2 300.37 41.6
-7 10 -2 60.39 11.8
-7 10 -2 64.09 14.4
-7 10 -2 63.99 14
-7 10 -2 38.4 18.2
7 -10 2 104.29 28.2
-8 10 -2 36.3 15.6
-8 10 -2 54.49 17.6
-8 10 -2 47 12.3
-8 10 -2 75.69 23.8
8 -10 2 91.69 30.1
-9 10 -2 94.79 24.6
-9 10 -2 97.59 29.5
-9 10 -2 146.09 22.4
-9 10 -2 101.39 16.5
-10 10 -2 20.3 14.5
-10 10 -2 -13 22.4
-10 10 -2 -31.1 25.9
-9 -10 3 -17.1 19.9
-9 -10 3 -7.2 33.3
-8 -10 3 -11.1 17
-8 -10 3 13.5 16.3
7 10 -3 12.6 14.4
-7 -10 3 -14 13.6
-7 -10 3 -6 14.8
6 10 -3 186.48 22.5
-6 -10 3 176.48 21.4
-6 -10 3 193.08 22.9
5 10 -3 44.7 11
5 10 -3 59.89 14.7
-5 -10 3 49 13.1
-5 -10 3 28.2 12.1
4 10 -3 59.89 10.5
4 10 -3 69.29 13.5
-4 -10 3 56.39 12.2
-4 -10 3 58.49 11.4
3 10 -3 108.79 16.4
3 10 -3 119.79 12.6
-3 -10 3 119.59 13.3
-3 -10 3 149.39 16.4
2 10 -3 262.87 22.6
2 10 -3 265.37 17.6
-2 -10 3 272.07 19.8
1 10 -3 109.99 14.2
-1 -10 3 138.79 15.2
-1 -10 3 127.19 11.9
0 10 -3 51.19 9
0 -10 3 48.1 7.9
0 -10 3 39.5 9.9
0 -10 3 35.7 11
-1 10 -3 5.9 6.1
1 -10 3 -0.4 8.6
1 -10 3 5.6 6
1 -10 3 7.8 9.1
-2 10 -3 193.18 13
-2 10 -3 219.98 17.6
2 -10 3 197.98 19.5
2 -10 3 201.18 17.9
-3 10 -3 166.48 15.6
-3 10 -3 159.88 11.8
3 -10 3 130.19 22.1
3 -10 3 169.18 18
-4 10 -3 45.4 13.3
-4 10 -3 37.1 8.8
-4 10 -3 32.8 7
-4 10 -3 35 8
4 -10 3 35.3 16
-5 10 -3 321.17 23.3
-5 10 -3 292.87 22.6
-5 10 -3 339.57 31.1
-5 10 -3 270.27 22.8
5 -10 3 220.08 33.4
-6 10 -3 46.1 11.9
-6 10 -3 73.39 19.5
-6 10 -3 49.6 11.2
-6 10 -3 48.8 12.3
6 -10 3 6.9 20.5
-7 10 -3 -13.9 16
-7 10 -3 -0.4 12.7
-7 10 -3 7.2 12.1
-7 10 -3 15.9 10.5
7 -10 3 10 22.3
-8 10 -3 19.2 17.5
-8 10 -3 31.2 16.4
-8 10 -3 27.1 21.6
-8 10 -3 31.9 13.6
8 -10 3 91.49 30.9
-9 10 -3 -10.6 19.9
-9 10 -3 -6.2 23.7
-9 10 -3 32 21.6
-9 10 -3 33.2 15.5
-10 10 -3 126.39 28.1
-10 10 -3 38 32.6
-10 10 -3 154.58 32
-10 10 -3 57.49 19.9
9 10 -4 28.5 22.9
-9 -10 4 3.3 19.6
8 10 -4 34.6 19
-8 -10 4 -10.6 16.3
-8 -10 4 39 17.8
7 10 -4 11.5 15.5
-7 -10 4 20.7 14.3
-7 -10 4 -16.8 14.1
6 10 -4 26.2 13.2
-6 -10 4 39.2 14.9
-6 -10 4 51.09 14.2
5 10 -4 44.4 12
5 10 -4 34.8 12.3
-5 -10 4 29.9 12.3
-5 -10 4 21.8 11.2
4 10 -4 34.8 10.2
4 10 -4 64.19 12.8
-4 -10 4 33.1 9.7
-4 -10 4 49.7 12.5
3 10 -4 355.06 27.1
3 10 -4 291.47 23.2
-3 -10 4 325.17 26.4
-3 -10 4 346.07 24.5
2 10 -4 740.93 48.6
2 10 -4 808.72 45.5
-2 -10 4 779.52 46.7
-2 -10 4 699.33 48.5
1 10 -4 520.15 31.1
1 10 -4 514.85 34.9
-1 -10 4 511.75 33.3
-1 -10 4 511.65 36.2
0 10 -4 554.14 35.9
0 10 -4 546.65 32.1
0 -10 4 527.55 37.1
0 -10 4 539.95 34.7
-1 10 -4 745.53 42
-1 10 -4 743.13 45.8
1 -10 4 689.63 46.9
1 -10 4 729.43 45.4
-2 10 -4 382.36 23.5
-2 10 -4 401.56 26.8
-2 10 -4 382.06 24.7
2 -10 4 377.96 32.5
2 -10 4 322.67 28
2 -10 4 377.76 27.7
-3 10 -4 722.93 44.5
-3 10 -4 716.63 43.2
-3 10 -4 715.83 41.8
3 -10 4 686.73 46.1
3 -10 4 660.13 50.19
-4 10 -4 422.16 28.8
-4 10 -4 399.76 27.3
-4 10 -4 421.86 28.9
4 -10 4 366.06 37
-5 10 -4 719.43 43.4
-5 10 -4 694.83 44.4
-5 10 -4 577.24 43.3
-5 10 -4 674.93 49.2
5 -10 4 728.23 54.59
-6 10 -4 21.1 12.5
-6 10 -4 6.6 10.8
-6 10 -4 44.8 12.6
6 -10 4 19.6 21.1
-7 10 -4 272.07 27.9
-7 10 -4 228.48 32.9
-7 10 -4 185.98 26.2
-7 10 -4 233.98 24.5
7 -10 4 214.08 37.1
-8 10 -4 496.05 40.2
-8 10 -4 428.06 35.4
-8 10 -4 357.66 45.1
-8 10 -4 410.76 38.1
8 -10 4 357.16 52.19
-9 10 -4 259.97 36.1
-9 10 -4 227.88 30.3
-9 10 -4 197.68 35.5
-10 10 -4 376.86 38.9
-10 10 -4 432.86 50.39
-10 10 -4 298.67 54.79
-10 10 -4 275.47 45.3
10 10 -5 8.9 30.8
9 10 -5 -3.3 24.1
-9 -10 5 -4.2 22.3
8 10 -5 -17.6 28.8
-8 -10 5 8.6 17.7
-8 -10 5 5.1 17.5
7 10 -5 87.79 20
-7 -10 5 111.49 21.1
-7 -10 5 85.79 19.8
6 10 -5 27.3 15.3
6 10 -5 20.1 13.9
-6 -10 5 11.3 13.5
-6 -10 5 0 12.4
5 10 -5 0.5 11.1
5 10 -5 24.8 12.4
-5 -10 5 31.2 12.5
-5 -10 5 20.4 11.8
4 10 -5 106.69 15.8
4 10 -5 86.09 15.9
-4 -10 5 75.69 14.5
3 10 -5 9.8 8.1
3 10 -5 14.3 9.1
-3 -10 5 25.7 10.8
-3 -10 5 19.6 9
2 10 -5 270.17 23.5
2 10 -5 299.97 21.1
-2 -10 5 249.88 24.3
-2 -10 5 288.87 22.5
1 10 -5 2.5 5.6
1 10 -5 -2.4 6.6
-1 -10 5 -0.9 7.4
-1 -10 5 13.7 9.5
0 10 -5 53.49 11.1
0 10 -5 55.89 8.6
0 -10 5 74.89 11.9
-1 10 -5 39.6 9.6
-1 10 -5 53.59 7.6
1 -10 5 34.8 12.1
1 -10 5 59.49 13.8
1 -10 5 58.39 11.6
-2 10 -5 36.4 6.9
-2 10 -5 39.4 9.5
2 -10 5 0.9 9.8
2 -10 5 32.6 13
-3 10 -5 -2 7.4
-3 10 -5 -4.1 6.2
-3 10 -5 12.3 8.5
3 -10 5 8.3 10.3
3 -10 5 1.4 13
-4 10 -5 30.2 9.5
-4 10 -5 26.9 10.7
-4 10 -5 19.7 8.3
4 -10 5 32.1 17.7
-5 10 -5 21.6 12.2
-5 10 -5 6.7 10.3
-5 10 -5 24.1 13.7
-5 10 -5 1.5 10.3
5 -10 5 8.7 17.9
-6 10 -5 207.18 23.2
-6 10 -5 142.49 21.9
6 -10 5 187.48 33.3
-7 10 -5 95.69 19.6
-7 10 -5 126.89 24
-7 10 -5 76.59 17.8
-7 10 -5 68.19 19
7 -10 5 45.1 28
-8 10 -5 59.79 20.5
-8 10 -5 38.6 20.3
-8 10 -5 15.6 15.7
-8 10 -5 44.7 22.6
8 -10 5 -50.19 31.1
-9 10 -5 69.59 25.2
-9 10 -5 72.19 26.8
-9 10 -5 55.49 25.3
-9 10 -5 70.09 22.3
9 10 -6 54.69 27.5
8 10 -6 13.3 21.4
-8 -10 6 28.5 18.7
-8 -10 6 -8.3 17.5
7 10 -6 135.29 24.5
-7 -10 6 138.99 22.1
-7 -10 6 116.79 21.7
6 10 -6 95.19 19
6 10 -6 43 16.7
-6 -10 6 92.99 17.4
-6 -10 6 83.39 17.6
5 10 -6 94.49 18.2
5 10 -6 96.19 17.8
-5 -10 6 111.09 18.8
-5 -10 6 141.89 19.9
4 10 -6 537.35 37.9
4 10 -6 535.75 39.6
-4 -10 6 494.85 37.8
-4 -10 6 615.14 40.7
3 10 -6 540.85 35.8
3 10 -6 484.15 37.3
-3 -10 6 595.14 39.5
-3 -10 6 502.45 36.8
2 10 -6 93.69 15
2 10 -6 95.69 13.5
-2 -10 6 92.19 15.1
-2 -10 6 100.69 16.2
1 10 -6 13 8.6
1 10 -6 -0.1 6.5
-1 -10 6 21.1 11.1
-1 -10 6 12 8.4
0 10 -6 1.1 8
0 10 -6 6.2 6.1
0 -10 6 5.9 10.2
0 -10 6 -9 7.9
-1 10 -6 3.3 6.1
-1 10 -6 -3.4 7.9
1 -10 6 -4.6 9.7
1 -10 6 5 11.2
1 -10 6 6.8 9.6
-2 10 -6 141.79 14.7
-2 10 -6 174.88 17.8
2 -10 6 172.98 20
2 -10 6 144.99 22.1
-3 10 -6 1007.9 58.89
-3 10 -6 1035.7 61.39
-3 10 -6 1018.8 60.99
3 -10 6 979.6 66.79
3 -10 6 866.71 62.59
-4 10 -6 1720.83 97.79
-4 10 -6 1711.43 97.89
-4 10 -6 1658.93 95.79
4 -10 6 1508.25 103.09
-5 10 -6 1492.45 88.19
-5 10 -6 1411.26 85.99
-5 10 -6 1575.44 88.19
5 -10 6 1317.47 95.49
-6 10 -6 833.92 53.79
-6 10 -6 740.33 54.89
-6 10 -6 848.32 54.89
-6 10 -6 897.21 59.19
6 -10 6 658.33 62.09
-7 10 -6 495.15 44
-7 10 -6 577.64 43.4
-7 10 -6 561.54 46.7
-7 10 -6 516.55 42.7
7 -10 6 511.95 57.89
-8 10 -6 515.55 44.6
-8 10 -6 581.64 51.39
-8 10 -6 448.16 46.9
8 -10 6 553.54 63.99
-9 10 -6 264.17 44.4
-9 10 -6 341.47 44.8
-9 10 -6 379.86 45.3
9 10 -7 -25.9 26.3
8 10 -7 41.7 23.6
-8 -10 7 45.2 21.3
-8 -10 7 7.2 21.2
-7 -10 7 7.9 17.1
-7 -10 7 -3 16.7
6 10 -7 162.68 23.5
6 10 -7 171.78 24.9
-6 -10 7 135.99 22.8
-6 -10 7 220.78 26.6
5 10 -7 46.2 16
5 10 -7 73.79 16.2
-5 -10 7 63.39 16.6
-5 -10 7 62.99 16.3
4 10 -7 225.18 24.6
4 10 -7 264.17 24.4
-4 -10 7 228.58 24.4
-4 -10 7 205.48 26.2
3 10 -7 27.9 11.2
3 10 -7 6.8 9.8
-3 -10 7 35.5 13.1
-3 -10 7 12.4 10.7
2 10 -7 22.8 9.4
2 10 -7 14.1 10.3
-2 -10 7 33.1 13.3
1 10 -7 8.7 7.3
1 10 -7 -8.7 8.2
-1 -10 7 -6.1 11.3
-1 -10 7 12.1 9.2
0 10 -7 63.39 10.3
0 10 -7 53.89 12
0 -10 7 48.4 14.6
0 -10 7 66.99 13.5
-1 10 -7 17.6 10.1
-1 10 -7 21.5 7.9
1 -10 7 20.9 11.5
1 -10 7 4.7 12.1
-2 10 -7 25.9 8.9
-2 10 -7 35.2 11.6
2 -10 7 25.2 14
-3 10 -7 15.9 11.5
-3 10 -7 -2.5 8.3
3 -10 7 28.1 15
3 -10 7 27.6 16.3
-4 10 -7 -3 9.6
-4 10 -7 -1.7 11.3
-4 10 -7 -18 11.8
4 -10 7 -27.1 15.2
-5 10 -7 -6.2 12.8
-5 10 -7 4 14.4
-5 10 -7 3 12.4
5 -10 7 17.8 21.3
-6 10 -7 93.39 21.1
-6 10 -7 143.79 23.2
-6 10 -7 71.69 18.4
6 -10 7 47.7 25.8
-7 10 -7 31.9 18.7
-7 10 -7 -17.7 17.4
-7 10 -7 -0.8 17.3
-7 10 -7 21.4 21.2
7 -10 7 -21.3 27.7
-8 10 -7 -5.7 23.7
-8 10 -7 16.5 21
-8 10 -7 -41.3 21.2
-8 10 -7 -18.4 20.3
8 -10 7 38.2 33.2
-9 10 -7 7.2 28.9
-9 10 -7 66.69 28.3
-9 10 -7 117.39 27.7
-9 10 -7 -3.3 28
9 10 -8 -3.6 28.9
8 10 -8 -2.7 24.6
-8 -10 8 -7 20
7 10 -8 12.1 20
7 10 -8 16 20.6
-7 -10 8 46.8 19.7
-7 -10 8 53.19 21.4
6 10 -8 36.7 17.4
6 10 -8 7.6 16.8
-6 -10 8 41 16.9
-6 -10 8 24.7 18
5 10 -8 125.69 20.3
5 10 -8 116.69 20.8
-5 -10 8 118.99 20
-5 -10 8 93.49 21
4 10 -8 11.1 14
4 10 -8 17.7 12.3
-4 -10 8 23.8 14.9
-4 -10 8 21.1 13
3 10 -8 47 13.1
3 10 -8 44 13
-3 -10 8 54.09 14
-3 -10 8 48 16
2 10 -8 38 11.3
2 10 -8 26.4 10.8
-2 -10 8 32.7 13.2
-2 -10 8 20.3 13.4
1 10 -8 4.7 8.4
1 10 -8 -3 7.1
-1 -10 8 16.1 11.7
-1 -10 8 13.9 13.3
0 10 -8 183.28 20
0 10 -8 190.68 17.9
0 -10 8 164.08 22.6
0 -10 8 173.58 23.8
-1 10 -8 244.68 21.3
-1 10 -8 280.47 24.4
1 -10 8 232.68 27
1 -10 8 246.18 25.2
-2 10 -8 65.79 12.2
-2 10 -8 62.09 14
2 -10 8 72.59 17.1
2 -10 8 52.59 17.2
-3 10 -8 137.09 19.2
-3 10 -8 188.58 22.2
3 -10 8 197.98 27.4
3 -10 8 141.39 23.5
-4 10 -8 52.69 16
-4 10 -8 67.49 14.6
4 -10 8 57.29 21.3
-5 10 -8 28 14.1
-5 10 -8 -0.9 16.3
-5 10 -8 40.8 15.8
5 -10 8 14.6 22.7
-6 10 -8 39.7 20.2
-6 10 -8 67.59 18.1
6 -10 8 43.3 29.5
-7 10 -8 246.98 33.6
-7 10 -8 233.68 32.2
-7 10 -8 211.98 32.3
7 -10 8 243.48 42
-8 10 -8 109.89 26.7
-8 10 -8 59.19 25.6
-8 10 -8 132.39 30.4
8 -10 8 57.99 42.3
-9 10 -8 252.97 39.1
-9 10 -8 333.07 45.7
8 10 -9 -10.2 23.5
8 10 -9 -9.5 27.4
7 10 -9 -28.4 21.1
7 10 -9 7.2 18.3
-7 -10 9 10.7 20.5
-7 -10 9 3.8 20.4
6 10 -9 29 18.9
-6 -10 9 -10.1 16.6
-6 -10 9 38.8 20.8
5 10 -9 15.7 16.5
5 10 -9 -5.9 14.3
-5 -10 9 1 17
-5 -10 9 33.6 16.8
4 10 -9 173.58 25.2
4 10 -9 214.88 25
-4 -10 9 205.18 28.8
-4 -10 9 191.38 26.7
3 10 -9 -20.9 10.9
3 10 -9 -1.9 11.5
-3 -10 9 9.3 15.1
-3 -10 9 7.6 13
2 10 -9 21.2 11.6
-2 -10 9 15.7 13.4
-2 -10 9 42.8 16.7
1 10 -9 258.77 23.3
1 10 -9 290.97 25.3
-1 -10 9 234.78 26.8
-1 -10 9 228.98 28.8
0 10 -9 2.5 9.1
0 10 -9 14.5 11.6
0 -10 9 12.2 13
-1 10 -9 12.1 11.3
-1 10 -9 10.1 10.1
1 -10 9 1.3 13.6
1 -10 9 6.5 14
-2 10 -9 6.3 10.9
-2 10 -9 23 10.9
2 -10 9 27.5 16.7
2 -10 9 21.2 16
-3 10 -9 -0.7 13.2
-3 10 -9 -3.2 11.1
3 -10 9 -13.8 16.5
3 -10 9 -0.2 16.8
-4 10 -9 399.06 32.5
-4 10 -9 382.86 39.1
4 -10 9 342.37 42.9
-5 10 -9 50.89 16.2
-5 10 -9 57.79 19.2
-5 10 -9 69.09 21
5 -10 9 66.29 25.6
-6 10 -9 21.4 22.9
-6 10 -9 -0.2 18.3
-6 10 -9 28.8 19.8
6 -10 9 25.8 26.9
-7 10 -9 122.89 26.4
-7 10 -9 111.99 28.9
-7 10 -9 114.49 24.8
7 -10 9 68.89 38
-8 10 -9 330.67 45.6
-8 10 -9 245.18 43.2
-8 10 -9 343.77 48.8
8 10 -10 13.4 24.8
8 10 -10 13.7 28.3
7 10 -10 40 25.6
7 10 -10 -34.9 19
6 10 -10 80.69 22.4
-6 -10 10 38.1 24.2
-6 -10 10 57.09 21.4
5 10 -10 30.5 19
5 10 -10 50.19 16.9
-5 -10 10 29.9 20.4
-5 -10 10 45.9 19.4
4 10 -10 16.7 15.5
4 10 -10 6.9 14.4
-4 -10 10 21.6 17.8
-4 -10 10 4.5 16.1
3 10 -10 2.2 12.3
3 10 -10 -3.3 13
-3 -10 10 8.3 18
-3 -10 10 -16.6 14.1
2 10 -10 20.8 13.2
2 10 -10 -1.1 11.4
-2 -10 10 4.2 17
-2 -10 10 14.9 16.4
1 10 -10 118.69 19.9
1 10 -10 119.09 19.7
-1 -10 10 158.98 25.4
0 10 -10 25.1 13.1
0 10 -10 18 12.4
0 -10 10 23.1 16.4
-1 10 -10 41.5 14
-1 10 -10 37.3 13.2
1 -10 10 25.5 17.2
1 -10 10 36.7 18
-2 10 -10 92.39 16
-2 10 -10 98.69 18.5
2 -10 10 36.5 20.3
2 -10 10 125.19 24
-3 10 -10 2.1 12.7
-3 10 -10 -6.9 13.7
3 -10 10 20.6 19.2
3 -10 10 -17.9 19.1
-4 10 -10 38.8 19.4
-4 10 -10 39.8 16.4
4 -10 10 32.2 24.3
-5 10 -10 2.7 17.1
-5 10 -10 3.4 17.7
5 -10 10 14.5 27.4
-6 10 -10 157.18 30.4
-6 10 -10 141.39 27.1
-6 10 -10 174.98 27.4
6 -10 10 117.59 36.6
-7 10 -10 331.07 43.7
-7 10 -10 254.67 38.4
-7 10 -10 277.57 38.2
7 -10 10 253.37 46.9
-8 10 -10 265.77 40.1
-8 10 -10 308.07 46.5
7 10 -11 15.9 27.5
7 10 -11 5 22.8
6 10 -11 2.5 18.6
6 10 -11 -18.7 22
-6 -10 11 -6.3 20.7
5 10 -11 11 19.5
5 10 -11 21 18.1
-5 -10 11 24.1 20.2
-5 -10 11 -3.6 22.1
4 10 -11 5.8 17.1
4 10 -11 -20 14
-4 -10 11 1.4 18
-4 -10 11 29.5 21.9
3 10 -11 30.5 15.5
-3 -10 11 45.8 19.2
-3 -10 11 33.3 21.3
2 10 -11 -22.5 12.3
2 10 -11 7.9 13.9
-2 -10 11 -9 17
1 10 -11 134.79 21.3
1 10 -11 133.49 21.3
-1 -10 11 129.89 24.4
0 10 -11 62.09 15.1
0 10 -11 17.7 14.8
0 -10 11 48.3 18.8
-1 10 -11 -8.1 12.5
-1 10 -11 6.5 14.4
1 -10 11 38.7 20.5
1 -10 11 47.5 19.7
-2 10 -11 67.29 18.2
-2 10 -11 67.99 16.6
2 -10 11 41.4 23.3
2 -10 11 74.89 23.7
-3 10 -11 50.69 18.4
3 -10 11 26.4 22
3 -10 11 49.7 23.7
-4 10 -11 22 18.9
-4 10 -11 10 16.9
4 -10 11 14.6 25.1
-5 10 -11 36.5 21.6
-5 10 -11 35.6 18
5 -10 11 -44.9 27.2
-6 10 -11 106.59 30.7
-6 10 -11 82.39 24
-6 10 -11 32.8 24.5
6 -10 11 42.5 36.4
-7 10 -11 56.29 28.5
-7 10 -11 8.8 24.9
7 -10 11 68.09 38.9
7 10 -12 38.6 30.5
7 10 -12 91.09 27.1
6 10 -12 30.2 21.6
6 10 -12 35.1 25.5
5 10 -12 13.9 23.4
5 10 -12 16.6 18.8
-5 -10 12 24.4 22.3
4 10 -12 18.6 17
4 10 -12 22.2 18.7
-4 -10 12 16 21.4
3 10 -12 59.09 18
3 10 -12 79.39 20.7
-3 -10 12 70.89 22.8
2 10 -12 86.99 19.5
2 10 -12 83.19 20.1
-2 -10 12 76.99 23.5
1 10 -12 2.1 15.2
1 10 -12 27.5 15.6
-1 -10 12 30.4 20.8
0 10 -12 5.9 14
0 10 -12 3.2 15
0 -10 12 38.7 20.7
-1 10 -12 -3.1 14.4
-1 10 -12 -2.2 15.2
1 -10 12 0.9 21
1 -10 12 29.3 20.2
-2 10 -12 -9.2 15.8
-2 10 -12 19.8 17.4
2 -10 12 -10.7 20.2
2 -10 12 -27 20
-3 10 -12 52.59 20.3
-3 10 -12 53.69 20.9
3 -10 12 28.4 23.7
3 -10 12 87.19 26.3
-4 10 -12 21.5 22.2
-4 10 -12 1 18.3
4 -10 12 22.6 28.3
-5 10 -12 49.3 23.6
-5 10 -12 80.99 25.9
5 -10 12 46.4 33.5
-6 10 -12 146.09 33.5
-6 10 -12 113.69 27.3
6 -10 12 153.48 43.4
6 10 -13 -1.6 22.7
6 10 -13 -59.09 27.2
5 10 -13 78.99 26.6
5 10 -13 55.99 24.1
4 10 -13 -36.3 20.6
4 10 -13 -32.4 17.4
-4 -10 13 -11.7 26.1
3 10 -13 35.3 18.6
3 10 -13 26.9 19.4
-3 -10 13 45.2 23.8
2 10 -13 -2.4 18.9
2 10 -13 41.6 18
-2 -10 13 50.59 25.6
1 10 -13 34.1 18
1 10 -13 -22.3 16
-1 -10 13 65.69 25.2
0 10 -13 -9.3 15.8
0 10 -13 -1.9 17.1
0 -10 13 23.7 22.9
-1 10 -13 17.1 17.8
-1 10 -13 22.6 18.7
1 -10 13 28.4 23.7
1 -10 13 7.7 23
-2 10 -13 -43 17
-2 10 -13 22.3 20.2
2 -10 13 -5.2 24.1
2 -10 13 7.2 24.5
-3 10 -13 1.3 19.5
-3 10 -13 -24.5 20
3 -10 13 10.3 27.6
3 -10 13 11.1 27.8
-4 10 -13 0.5 21.8
-4 10 -13 9.7 20.9
4 -10 13 14.1 30.6
-5 10 -13 5.8 24.4
-5 10 -13 34.8 22.9
5 -10 13 34 35.2
5 10 -14 60.29 24
5 10 -14 79.09 29.2
4 10 -14 116.69 25.3
4 10 -14 91.09 27.7
3 10 -14 101.49 26.4
3 10 -14 88.99 23.5
2 10 -14 59.69 22.2
2 10 -14 53.99 21.9
-2 -10 14 83.69 34.9
1 10 -14 21.9 20.7
1 10 -14 -14.7 18.1
-1 -10 14 -24.2 24.6
0 10 -14 -13.3 18.5
0 10 -14 22.3 20.8
0 -10 14 -4.4 26.6
-1 10 -14 44.2 21.1
-1 10 -14 83.99 21.1
1 -10 14 57.19 27.9
1 -10 14 36 28.2
-2 10 -14 -13.5 19.8
-2 10 -14 -0.5 21.3
2 -10 14 -14.5 25.7
-3 10 -14 76.89 24.7
-3 10 -14 42 24.6
3 -10 14 14.9 30.5
-4 10 -14 -1.7 24
-4 10 -14 -32.5 26.4
4 -10 14 29.9 35.7
3 10 -15 8.7 23.1
3 10 -15 13.5 25.7
2 10 -15 32.2 22.9
2 10 -15 -14.9 23.7
1 10 -15 16.2 23.3
1 10 -15 -14.1 22.1
0 10 -15 17.1 22.5
0 10 -15 -18.8 22.9
0 -10 15 4.9 28
-1 10 -15 57.19 24.7
-1 10 -15 57.19 25.5
1 -10 15 -5.6 29.8
-2 10 -15 -35.8 21.4
-2 10 -15 23.3 25.6
2 -10 15 41 31.7
-3 10 -15 48.9 27.1
-3 10 -15 33.3 27.8
3 -10 15 77.19 35.3
-4 -11 -14 162.88 33.5
-3 -11 -14 153.28 29.3
-2 -11 -14 60.69 22
-1 -11 -14 162.88 31.6
-2 11 14 173.18 27.7
-3 11 14 -0.1 20.7
3 -11 -14 38.4 19.1
-4 11 14 117.09 29.3
-5 -11 -13 66.29 27.7
-4 -11 -13 158.18 33.7
-3 -11 -13 158.98 26.3
-2 -11 -13 29 29.4
1 -11 -13 36.8 22.2
-2 11 13 41.1 16.7
-3 11 13 40.9 20.4
-4 11 13 42.3 24.3
4 -11 -13 13 16.5
-5 11 13 3.8 28.2
5 -11 -13 -4 19.8
-5 -11 -12 84.19 26.9
-4 -11 -12 128.79 32.2
-1 -11 -12 131.79 20.4
0 -11 -12 399.36 33
1 -11 -12 461.35 35.6
-2 11 12 169.38 24.7
2 -11 -12 85.69 28.2
-3 11 12 349.87 37
-4 11 12 114.09 25.6
4 -11 -12 67.89 22
-5 11 12 188.58 34.9
-6 11 12 157.98 38
6 -11 -12 199.48 33.4
-3 -11 -11 10.8 15.4
-2 -11 -11 28 14.5
-1 -11 -11 19.1 12.9
0 -11 -11 18.3 11.4
1 -11 -11 32.3 11.7
-2 11 11 32.7 14.6
2 -11 -11 57.19 13.4
-3 11 11 259.27 31
3 -11 -11 228.48 24.1
-4 11 11 91.39 24.4
4 -11 -11 82.69 12.4
-5 11 11 71.69 27.4
5 -11 -11 79.69 18.7
-6 11 11 88.59 29.6
-7 11 11 69.19 36.3
7 -11 -11 -10.8 25.3
-7 -11 -10 73.89 31.4
-3 -11 -10 313.97 30.3
-2 -11 -10 256.47 26.3
-1 -11 -10 233.98 23.3
0 -11 -10 153.08 18.9
-1 11 10 385.46 29.4
1 -11 -10 323.67 26.6
-2 11 10 42.9 14.7
2 -11 -10 51.99 12.2
-3 11 10 149.99 25.8
3 -11 -10 108.49 17.4
3 -11 -10 110.19 14.8
-4 11 10 16.8 18.3
4 -11 -10 63.19 13.8
-5 11 10 181.18 33.6
-6 11 10 237.78 39.2
-7 11 10 112.19 35.3
7 -11 -10 57.29 23.1
-8 -11 -9 27.6 32.8
-7 -11 -9 -46 25.1
-6 -11 -9 23.2 7
-4 -11 -9 28.1 5.5
-3 -11 -9 -3.3 6.4
-2 -11 -9 100.79 16.1
-2 -11 -9 164.28 19.8
-1 -11 -9 -1 9.2
-1 -11 -9 18.1 10
0 -11 -9 -2.9 8.2
-1 11 9 3.9 9.8
1 -11 -9 5.7 7.9
-2 11 9 38 13.9
2 -11 -9 23.2 9.6
2 -11 -9 28.8 9.6
-3 11 9 20.3 14.9
3 -11 -9 2.8 7.3
3 -11 -9 14.7 8.8
-4 11 9 65.09 19.9
4 -11 -9 84.99 8.6
4 -11 -9 82.59 14.6
5 -11 -9 3.9 12.6
-6 11 9 26.2 25.4
-7 11 9 21.6 30.1
7 -11 -9 -0.9 34.3
-8 11 9 3 36.8
8 -11 -9 24.3 36.5
-8 -11 -8 41.9 21.6
-8 -11 -8 25.2 27.9
-7 -11 -8 344.67 43.2
-7 -11 -8 329.67 32.3
-6 -11 -8 241.48 20.8
-5 -11 -8 163.28 16.6
-4 -11 -8 187.08 17.5
-3 -11 -8 124.69 15.7
-2 -11 -8 136.19 19
-1 -11 -8 574.14 34.9
-1 -11 -8 463.55 36.2
0 -11 -8 229.38 24.6
0 -11 -8 230.98 18.8
-1 11 8 403.96 29
1 -11 -8 324.17 23.9
1 -11 -8 356.06 32.4
1 -11 -8 340.57 26.6
-2 11 8 488.45 36
2 -11 -8 432.46 38.9
2 -11 -8 451.75 29.8
2 -11 -8 442.66 30.3
-3 11 8 25.9 14.7
3 -11 -8 23.1 6.7
3 -11 -8 27.1 8.9
-4 11 8 652.13 49.7
4 -11 -8 626.94 35.9
4 -11 -8 621.44 41.4
-5 11 8 362.86 43.2
5 -11 -8 406.46 33.6
-6 11 8 213.18 37.4
6 -11 -8 235.18 27.5
-7 11 8 157.78 35.3
-8 11 8 55.09 34.7
8 -11 -8 133.39 27.9
-9 -11 -7 -44.8 31.5
-8 -11 -7 173.58 32.7
-7 -11 -7 -6 19.7
-6 -11 -7 194.58 29.8
-5 -11 -7 3.6 8.1
-4 -11 -7 57.09 10.8
-3 -11 -7 11.1 8.4
-2 -11 -7 -4 8.4
-1 -11 -7 9.1 10
0 -11 -7 334.27 21.9
0 -11 -7 358.56 26.3
0 -11 -7 253.27 27.7
-1 11 7 42.9 11.3
1 -11 -7 25 8.8
1 -11 -7 31.7 13.1
1 -11 -7 16.9 6.1
-2 11 7 71.19 14.8
2 -11 -7 72.49 11.7
2 -11 -7 58.99 10.2
2 -11 -7 83.09 19
-3 11 7 47 15.9
3 -11 -7 25.2 17
3 -11 -7 54.19 9.4
3 -11 -7 55.79 8.9
-4 11 7 48.9 18.1
4 -11 -7 54.89 6.1
4 -11 -7 78.19 11.9
4 -11 -7 58.19 22
-5 11 7 219.68 34.2
-6 11 7 7.4 21.8
6 -11 -7 -17.4 13.6
-7 11 7 59.49 30.4
7 -11 -7 129.79 22.5
-8 11 7 -14.2 30.6
8 -11 -7 59.49 26.4
-9 11 7 -6.3 37.7
9 -11 -7 63.29 29.8
-9 -11 -6 58.39 31.5
-8 -11 -6 35.6 24.9
-7 -11 -6 124.19 26.7
-6 -11 -6 97.09 21.3
-6 -11 -6 107.59 20.6
-5 -11 -6 295.47 32
-3 -11 -6 720.33 45.7
-2 -11 -6 709.33 44.7
-2 -11 -6 661.93 46.7
-1 -11 -6 104.29 15.4
-1 -11 -6 113.79 17.5
0 -11 -6 786.22 49.5
0 -11 -6 794.12 52.49
1 -11 -6 15.8 12.8
1 -11 -6 44.8 9.3
1 -11 -6 47 6.4
-2 11 6 322.17 27.1
2 -11 -6 348.07 22.3
2 -11 -6 300.87 20.5
2 -11 -6 280.77 31
-3 11 6 519.25 39.6
3 -11 -6 481.15 31.3
3 -11 -6 434.06 41.9
3 -11 -6 529.05 30.4
-4 11 6 449.26 38.1
4 -11 -6 484.25 30.6
4 -11 -6 443.86 25.3
4 -11 -6 330.77 39.3
-5 11 6 583.14 49.7
5 -11 -6 574.64 40
5 -11 -6 617.04 52.39
-6 11 6 316.47 39.5
6 -11 -6 319.57 30
-7 11 6 370.06 49.4
-8 11 6 307.17 53.49
8 -11 -6 254.07 36.1
-9 11 6 175.98 44.8
9 -11 -6 206.68 34
-9 -11 -5 -40.4 25.6
-8 -11 -5 32.9 22.8
-7 -11 -5 95.49 23.8
-6 -11 -5 -2.2 15.7
-6 -11 -5 17.7 16.6
-5 -11 -5 43.2 16.2
-5 -11 -5 36.6 13.8
-4 -11 -5 330.37 30.4
-3 -11 -5 127.59 16.1
-3 -11 -5 111.19 17.8
-2 -11 -5 129.79 17.4
-2 -11 -5 133.89 16.9
-1 -11 -5 27.4 10
-1 -11 -5 39.3 10.8
0 -11 -5 26 8.2
0 -11 -5 36.2 12
1 -11 -5 75.89 10.8
1 -11 -5 51.99 5.9
1 -11 -5 40.9 13.2
-2 11 5 310.77 26
2 -11 -5 262.37 18.8
2 -11 -5 251.97 16.8
2 -11 -5 223.88 28
-3 11 5 12.4 11.1
3 -11 -5 3.3 5.2
3 -11 -5 9.5 4.9
3 -11 -5 35.4 15.7
-4 11 5 34.7 15.6
4 -11 -5 14.3 16.8
4 -11 -5 -2.3 7.4
4 -11 -5 12.5 4.1
-5 11 5 147.09 24.8
5 -11 -5 177.78 30
5 -11 -5 125.99 18.1
-6 11 5 165.38 28.2
6 -11 -5 145.69 21.9
6 -11 -5 97.39 30.1
-7 11 5 14.4 23.7
7 -11 -5 20.2 16.5
-8 11 5 -1.2 28.8
-8 11 5 -4.1 9.1
8 -11 -5 6.5 19.5
-9 11 5 -2.2 10.9
-9 11 5 7.9 14.8
-9 11 5 38.2 35.2
9 -11 -5 6.2 25.3
-9 -11 -4 42.6 27.9
-8 -11 -4 53.19 22.1
-7 -11 -4 233.78 31.3
-6 -11 -4 112.29 19.9
-6 -11 -4 113.79 21.5
-5 -11 -4 104.79 18.8
-5 -11 -4 103.39 17.4
-4 -11 -4 41 10.9
-4 -11 -4 11.7 12.7
-3 -11 -4 67.29 13.9
-2 -11 -4 100.79 14.9
-2 -11 -4 78.39 17.3
-1 -11 -4 23.9 8.5
-1 -11 -4 10.5 8.7
0 -11 -4 241.28 19.4
0 -11 -4 215.48 23.1
1 -11 -4 79.19 15.9
1 -11 -4 58.59 9.1
-2 11 4 179.28 19.8
2 -11 -4 170.98 14.2
2 -11 -4 171.68 24.8
2 -11 -4 161.28 11.4
-3 11 4 268.97 26.2
3 -11 -4 246.08 30.3
3 -11 -4 209.58 16.6
3 -11 -4 231.38 16.5
-4 11 4 347.37 31.8
4 -11 -4 317.07 20.7
4 -11 -4 372.26 24.7
4 -11 -4 283.97 35.1
-5 11 4 20.6 16.1
5 -11 -4 -1.5 9.5
5 -11 -4 -36.2 17.5
-6 11 4 64.29 20.8
6 -11 -4 32.3 23
6 -11 -4 50.19 14.2
-7 11 4 189.78 35.1
7 -11 -4 127.79 21.9
-8 11 4 197.48 19.6
-8 11 4 207.98 37.9
-8 11 4 168.88 16.4
8 -11 -4 210.48 30.7
-9 11 4 176.58 25.6
-9 11 4 148.89 40
-9 11 4 136.09 20.8
9 -11 -4 188.18 31.4
-9 -11 -3 -0.9 25.8
-8 -11 -3 42.6 21.4
-7 -11 -3 7.2 18.4
-7 -11 -3 20.2 16.3
-6 -11 -3 30.5 18
-6 -11 -3 65.99 17.1
-5 -11 -3 35.7 12.6
-5 -11 -3 13.6 13.2
-4 -11 -3 -3.8 8.6
-4 -11 -3 10.2 10.7
-3 -11 -3 29 11.1
-3 -11 -3 22 7.5
-2 -11 -3 27.7 9.1
-1 -11 -3 66.29 12.7
-1 -11 -3 108.29 13
0 -11 -3 23.2 11
0 -11 -3 23.1 7.2
1 -11 -3 113.19 11.9
1 -11 -3 113.69 20
-2 11 3 144.79 17.8
2 -11 -3 110.09 8.9
2 -11 -3 142.29 12.4
2 -11 -3 107.59 20.4
-3 11 3 10 11.2
3 -11 -3 -2.5 4.9
3 -11 -3 -0.8 5
3 -11 -3 -9.5 13.7
-4 11 3 65.49 17.1
4 -11 -3 74.59 12.3
4 -11 -3 89.29 20.6
-5 11 3 244.98 28.4
5 -11 -3 151.98 20
5 -11 -3 219.68 32.7
-6 11 3 22 17.4
6 -11 -3 31.1 13.4
6 -11 -3 49.7 24.1
-7 11 3 73.29 24.3
-7 11 3 41.2 6.5
7 -11 -3 31.1 27.8
7 -11 -3 54.79 17
-8 11 3 8.7 25.9
-8 11 3 -8.4 8.3
-8 11 3 -6.6 10.8
8 -11 -3 -22 18.4
-9 11 3 32.4 17.5
-9 11 3 7.7 12.4
-9 11 3 25.2 32.2
9 -11 -3 29.1 23.3
-10 11 3 -11.1 34.9
-10 11 3 36.2 37.4
10 -11 -3 5.7 28.4
-9 -11 -2 95.49 26.5
-8 -11 -2 -2.2 18.8
-8 -11 -2 54.39 21.1
-7 -11 -2 141.39 23.6
-7 -11 -2 161.88 26.4
-6 -11 -2 33.8 15.5
-6 -11 -2 43.3 21.2
-5 -11 -2 148.89 21.8
-5 -11 -2 168.78 20.3
-4 -11 -2 245.28 23.8
-4 -11 -2 245.18 21.6
-3 -11 -2 67.69 11.3
-3 -11 -2 65.29 12.7
-2 -11 -2 11.4 8.4
-2 -11 -2 11.3 5.1
-1 -11 -2 142.69 17.2
-1 -11 -2 116.09 14.8
0 -11 -2 11.8 6.2
0 -11 -2 9.6 9
1 -11 -2 623.84 37.3
1 -11 -2 558.94 42.2
-2 11 2 70.29 13.5
2 -11 -2 52.19 8.6
2 -11 -2 83.19 17
2 -11 -2 59.89 6.8
-3 11 2 834.02 52.49
3 -11 -2 740.23 44.9
3 -11 -2 743.93 45.1
3 -11 -2 705.53 54.79
-4 11 2 352.06 30.8
4 -11 -2 275.27 33.5
4 -11 -2 302.97 23.8
-5 11 2 215.58 27.6
5 -11 -2 218.48 34.5
5 -11 -2 192.68 21.3
-6 11 2 303.57 34.3
6 -11 -2 280.37 39.8
6 -11 -2 290.67 27.6
-7 11 2 178.08 33.8
-7 11 2 187.98 18.8
-7 11 2 194.28 16.4
7 -11 -2 181.98 35.5
7 -11 -2 191.58 25.9
-8 11 2 273.67 41.2
-8 11 2 226.88 24.7
-8 11 2 230.08 21.2
8 -11 -2 338.97 35.7
-9 11 2 130.99 21
-9 11 2 127.99 35.2
-9 11 2 163.18 27
9 -11 -2 98.99 28.1
-10 11 2 73.39 19
-10 11 2 53.59 24.3
-10 11 2 96.79 38.5
10 -11 -2 79.29 32
-9 -11 -1 -4.8 23.7
-8 -11 -1 123.39 23
-8 -11 -1 32.2 19.9
-7 -11 -1 87.09 18.7
-7 -11 -1 47.1 16.7
-6 -11 -1 22.2 13.8
-6 -11 -1 37.3 15.4
-5 -11 -1 -3.6 9.9
-5 -11 -1 1.2 12.1
-4 -11 -1 140.19 19
-4 -11 -1 148.79 17.1
-3 -11 -1 19.8 7.1
-3 -11 -1 16.5 8.8
-2 -11 -1 3 7.7
-2 -11 -1 -1.7 4.6
-1 -11 -1 132.29 17.8
-1 -11 -1 160.48 11
-1 -11 -1 154.98 15.4
0 -11 -1 181.18 16.4
0 -11 -1 171.38 10.5
0 -11 -1 181.88 19.5
-1 11 1 135.49 14.9
1 -11 -1 152.98 19.8
1 -11 -1 155.88 9.9
1 -11 -1 137.89 10.1
1 -11 -1 184.68 15.1
-2 11 1 6.6 5.9
2 -11 -1 2.5 4.1
2 -11 -1 3.4 5.9
2 -11 -1 -1.6 4.6
-3 11 1 6.3 5.7
-3 11 1 16.3 10.9
3 -11 -1 3.1 5.8
3 -11 -1 7.2 13.2
3 -11 -1 3.2 6.4
-4 11 1 51.39 8.1
-4 11 1 64.79 15.8
4 -11 -1 49.4 10.5
4 -11 -1 60.49 18.6
-5 11 1 -0.2 5.1
-5 11 1 0.7 13.5
5 -11 -1 -12.8 9.5
5 -11 -1 36.6 19.3
-6 11 1 57.29 7.8
-6 11 1 60.59 19.2
-6 11 1 34.3 4.6
6 -11 -1 38.1 22.7
6 -11 -1 33.6 13.6
-7 11 1 -12 6.5
-7 11 1 6 8.6
-7 11 1 10.6 19.3
7 -11 -1 22.9 14.6
7 -11 -1 27.5 24.8
-8 11 1 261.97 39.3
-8 11 1 253.67 22.2
-8 11 1 241.68 25.5
8 -11 -1 225.08 33.4
-9 11 1 66.79 17
-9 11 1 80.69 30.5
-9 11 1 24.9 18.4
-10 11 1 37.8 19.4
-10 11 1 62.09 38.2
-10 11 1 59.79 24.2
-9 -11 0 60.39 25.9
-8 -11 0 -15.7 18.3
-8 -11 0 8.6 17.7
-7 -11 0 23.8 16
-7 -11 0 14.4 15.9
-6 -11 0 147.39 19.4
-6 -11 0 129.99 19.5
-5 -11 0 89.19 15.2
-5 -11 0 100.29 16.7
-4 -11 0 185.28 18.5
-4 -11 0 186.68 20.1
-3 -11 0 80.29 13.4
-3 -11 0 97.59 12.2
-2 -11 0 336.67 22.2
1 11 0 12.8 8.4
-1 -11 0 1.2 6.6
-1 -11 0 -10.6 7.5
-1 -11 0 5.5 3.8
0 11 0 -6.6 6.7
0 -11 0 6.5 6.3
0 -11 0 5 9.5
0 -11 0 8.1 3.2
-1 11 0 -1 6.5
1 -11 0 18.3 6.6
1 -11 0 -11.7 8.6
1 -11 0 3.4 3.6
-2 11 0 330.47 24.1
2 -11 0 292.37 35.1
2 -11 0 367.96 27.8
2 -11 0 367.06 24.9
-3 11 0 69.49 10.3
-3 11 0 96.39 16.9
3 -11 0 94.79 12.7
3 -11 0 71.89 18.4
-4 11 0 199.68 15.7
-4 11 0 194.78 23.8
4 -11 0 169.98 27.8
-5 11 0 57.49 9.8
-5 11 0 88.09 18.5
5 -11 0 55.39 21.7
-6 11 0 141.29 13.1
-6 11 0 141.49 12.9
-6 11 0 152.18 26.4
6 -11 0 179.58 29.8
-7 11 0 60.49 10.3
-7 11 0 65.89 21.7
-7 11 0 53.89 11.5
-7 11 0 51.19 8.2
7 -11 0 17.9 23.7
-8 11 0 11.3 13.9
-8 11 0 36.9 23.2
-8 11 0 7 5.9
-8 11 0 -5.8 10.9
-9 11 0 39.4 20
-9 11 0 51.89 29.6
-9 11 0 61.29 9.3
-10 11 0 88.89 22.5
-10 11 0 111.39 38.5
-10 11 0 133.99 27.7
-9 -11 1 89.09 25.9
-8 -11 1 239.18 33.6
-8 -11 1 269.57 32.3
-7 -11 1 19.6 15
-7 -11 1 0.1 15.5
-6 -11 1 70.49 15
-6 -11 1 31.4 13.9
-5 -11 1 5.2 10.2
-5 -11 1 -2 9.8
-4 -11 1 64.69 13.1
-4 -11 1 67.89 11.8
-3 -11 1 7.1 8
-3 -11 1 -0.6 6.3
2 11 -1 18.4 8.9
-2 -11 1 1.3 5.1
-2 -11 1 -8.6 8.9
1 11 -1 148.49 16.3
-1 -11 1 153.78 13.9
-1 -11 1 128.19 15.2
0 11 -1 154.88 16.2
0 -11 1 152.58 12.3
0 -11 1 184.88 16.3
0 -11 1 193.18 20.6
-1 11 -1 147.49 15.3
1 -11 1 123.79 21.4
1 -11 1 159.48 17.3
1 -11 1 163.98 16.3
-2 11 -1 2.3 5.6
2 -11 1 10.2 11.3
2 -11 1 13 6.3
2 -11 1 -9.9 6.2
-3 11 -1 6.4 6.1
-3 11 -1 26.4 12
3 -11 1 -7.6 12.8
3 -11 1 6.2 7.6
-4 11 -1 168.48 22.1
-4 11 -1 143.29 14
4 -11 1 137.39 24.9
-5 11 -1 10.7 3.7
-5 11 -1 42.3 14.9
-5 11 -1 9.4 6.6
5 -11 1 14.1 19.7
-6 11 -1 21.2 7.4
-6 11 -1 8 15.4
-6 11 -1 13.8 7.4
-6 11 -1 28.4 8.1
6 -11 1 -28.9 18.6
-7 11 -1 64.49 22.5
-7 11 -1 38.5 9.1
-7 11 -1 31.2 11.8
-7 11 -1 39.9 10.7
7 -11 1 60.79 27.7
-8 11 -1 121.09 19.8
-8 11 -1 104.29 25.8
-8 11 -1 75.79 17.7
-8 11 -1 71.29 11.5
-9 11 -1 23.2 16.2
-9 11 -1 36.4 10.2
-9 11 -1 16.1 27.4
-9 11 -1 -13.4 18.8
-10 11 -1 49.2 34.3
-10 11 -1 24.3 26.1
-10 11 -1 -22.5 20.4
-9 -11 2 123.49 27.3
-8 -11 2 331.07 34.1
-8 -11 2 290.47 33.9
-7 -11 2 165.58 26.5
-7 -11 2 238.88 27.9
-6 -11 2 308.87 28.2
-6 -11 2 301.77 29.1
-5 -11 2 196.08 22
-5 -11 2 173.38 20.1
4 11 -2 293.77 26.9
-4 -11 2 283.67 23.8
-4 -11 2 320.47 26.1
3 11 -2 867.61 54.99
-3 -11 2 831.32 53.59
-3 -11 2 841.62 51.09
2 11 -2 85.99 14.1
-2 -11 2 68.69 9.9
-2 -11 2 67.69 12.1
1 11 -2 587.14 38.8
-1 -11 2 579.44 35.1
-1 -11 2 568.94 38.3
0 11 -2 -3.3 7
0 -11 2 7.7 5.2
0 -11 2 3.3 7.2
-1 11 -2 130.69 14.4
1 -11 2 102.99 11.6
1 -11 2 114.39 18.6
1 -11 2 100.89 15.4
-2 11 -2 0.5 6.5
2 -11 2 14.4 7.5
2 -11 2 23.4 9.1
2 -11 2 4.8 11.9
-3 11 -2 68.19 11.3
3 -11 2 58.39 17.1
3 -11 2 97.29 14.7
-4 11 -2 202.78 13.6
-4 11 -2 280.47 27.6
-4 11 -2 270.57 19.3
4 -11 2 236.18 30.2
-5 11 -2 163.78 16.2
-5 11 -2 153.88 13.7
-5 11 -2 164.38 24.3
-5 11 -2 177.88 13.8
5 -11 2 160.98 28.4
-6 11 -2 29.7 8.9
-6 11 -2 41.6 17.8
-6 11 -2 18.7 9.3
-6 11 -2 10.3 9
6 -11 2 20 22.4
-7 11 -2 118.89 19.5
-7 11 -2 125.99 25.3
-7 11 -2 129.89 18.9
-7 11 -2 143.49 17.2
7 -11 2 116.79 31
-8 11 -2 10.9 10.6
-8 11 -2 2.9 15.1
-8 11 -2 45.7 23.3
8 -11 2 -13 28.6
-9 11 -2 63.79 21.7
-9 11 -2 40.4 28.5
-9 11 -2 31.6 13.1
-9 11 -2 54.79 19.3
-10 11 -2 10.3 32.2
-10 11 -2 31.9 23.7
-10 11 -2 3.2 31.6
-9 -11 3 19.8 21.3
-8 -11 3 -22.7 16.8
-8 -11 3 15.6 18.8
-7 -11 3 62.39 18.7
-7 -11 3 66.79 17.9
-6 -11 3 19.9 13.9
-6 -11 3 17.8 13.5
5 11 -3 203.58 19.1
-5 -11 3 187.58 22
-5 -11 3 124.59 21.6
4 11 -3 100.89 17.2
4 11 -3 88.79 12.6
-4 -11 3 87.09 13.4
-4 -11 3 73.59 14.7
3 11 -3 -17.2 8.5
3 11 -3 2.2 5
-3 -11 3 0.8 6.9
-3 -11 3 13.8 9.8
2 11 -3 130.09 16.4
-2 -11 3 116.89 12.8
-2 -11 3 97.89 15.8
1 11 -3 120.69 15.2
-1 -11 3 119.29 18.4
-1 -11 3 100.69 11.8
0 11 -3 31 9.1
0 -11 3 19.1 9.1
0 -11 3 17 10.6
0 -11 3 26.4 6.9
-1 11 -3 82.09 12
1 -11 3 55.09 12.2
1 -11 3 74.09 11.3
1 -11 3 70.49 14.7
-2 11 -3 18.2 7.6
2 -11 3 20.6 9.9
2 -11 3 31.8 13.8
2 -11 3 14.7 8
-3 11 -3 17.5 7.6
-3 11 -3 12.8 3.4
3 -11 3 22.2 13.9
3 -11 3 12.1 9.6
-4 11 -3 11.6 11.4
-4 11 -3 12.8 7.5
-4 11 -3 7.9 5.1
-4 11 -3 11.5 5.6
4 -11 3 34.5 17
-5 11 -3 1.6 8.4
-5 11 -3 17 7.3
-5 11 -3 23.7 8.5
-5 11 -3 12.5 13.8
5 -11 3 22.5 19.4
-6 11 -3 55.19 18
-6 11 -3 49 11.1
-6 11 -3 31.5 11.1
-6 11 -3 44.4 11.2
6 -11 3 42.7 24.2
-7 11 -3 -6.5 10
-7 11 -3 -1.3 17.3
-7 11 -3 -1.8 12.3
-7 11 -3 -1.3 12
7 -11 3 -15.4 24.1
-8 11 -3 -16.5 11.8
-8 11 -3 14.8 16.5
-8 11 -3 -0.6 15.2
-8 11 -3 33.5 23.5
8 -11 3 41.9 33.8
-9 11 -3 0.6 14.1
-9 11 -3 33.5 20.7
-9 11 -3 12.2 21
-9 11 -3 -16.4 41.6
-9 -11 4 151.88 28.7
8 11 -4 257.07 33.5
-8 -11 4 194.28 28
7 11 -4 164.78 25.8
-7 -11 4 121.59 21.8
-7 -11 4 154.58 25.6
6 11 -4 65.59 15.3
-6 -11 4 57.09 15
-6 -11 4 29.7 15.4
5 11 -4 4.8 10.5
5 11 -4 13.7 13.2
-5 -11 4 20.9 10.7
-5 -11 4 -12.7 11.2
4 11 -4 351.36 26.1
4 11 -4 317.97 29.5
-4 -11 4 336.27 26.9
-4 -11 4 365.66 29.2
3 11 -4 232.78 19
3 11 -4 241.78 23.2
-3 -11 4 259.27 23.5
-3 -11 4 223.68 20.4
2 11 -4 183.38 14.3
2 11 -4 159.88 19
-2 -11 4 215.08 20.4
-2 -11 4 168.38 16.5
1 11 -4 51.39 11
1 11 -4 42.3 7.4
-1 -11 4 57.29 12.3
-1 -11 4 49.6 9.4
0 11 -4 211.38 19.4
0 -11 4 240.78 18.5
0 -11 4 217.88 23
0 -11 4 168.38 23.1
-1 11 -4 19.5 4.6
-1 11 -4 24.2 9
1 -11 4 16.7 8.5
1 -11 4 13.8 10.1
1 -11 4 34.2 12.3
-2 11 -4 80.59 10.4
-2 11 -4 94.49 8.3
-2 11 -4 83.59 12.9
2 -11 4 87.69 14.7
2 -11 4 98.59 18.2
2 -11 4 88.89 13.7
-3 11 -4 61.69 8.3
-3 11 -4 43.8 8.3
-3 11 -4 61.99 10.7
3 -11 4 79.79 18.7
3 -11 4 78.09 14.2
-4 11 -4 25.7 9.1
-4 11 -4 34.2 8.9
-4 11 -4 24.4 7.5
4 -11 4 23.6 17.3
-5 11 -4 125.09 15.2
-5 11 -4 128.09 22.9
-5 11 -4 119.79 17.1
-5 11 -4 91.29 14.5
5 -11 4 116.29 26.7
-6 11 -4 92.19 15.8
-6 11 -4 132.99 18.1
-6 11 -4 115.49 22.5
-6 11 -4 105.89 16.6
6 -11 4 109.59 28.2
-7 11 -4 250.77 25.3
-7 11 -4 237.88 26.3
-7 11 -4 227.78 33.4
7 -11 4 188.58 37.1
-8 11 -4 99.89 20.6
-8 11 -4 77.19 17.4
-8 11 -4 85.09 20.5
-8 11 -4 66.89 25.2
-9 11 -4 28.7 22.7
-9 11 -4 -8.5 25.6
-9 11 -4 9.9 22.6
-9 11 -4 45 18.2
9 11 -5 -25.1 24.9
-9 -11 5 -13.9 24.9
8 11 -5 -4.3 20.2
-8 -11 5 17 20.3
-8 -11 5 27.6 31.6
7 11 -5 2.9 17.2
-7 -11 5 20.4 16.8
-7 -11 5 15.5 17
6 11 -5 110.39 21.9
6 11 -5 96.19 19.3
-6 -11 5 149.79 23.4
-6 -11 5 159.08 21.4
5 11 -5 152.68 20.4
5 11 -5 104.09 22.7
-5 -11 5 130.79 20.5
-5 -11 5 121.79 20.1
4 11 -5 27.5 10.3
4 11 -5 26.3 12.5
-4 -11 5 21.1 10.5
-4 -11 5 16.1 11.7
3 11 -5 2.1 9.4
3 11 -5 -9.5 7.4
-3 -11 5 -6.2 8.4
-3 -11 5 -15.2 7.8
2 11 -5 237.28 19.3
2 11 -5 261.77 23.6
-2 -11 5 257.47 24.8
-2 -11 5 279.07 22
1 11 -5 65.49 9.8
1 11 -5 92.59 14.1
-1 -11 5 39.1 12.8
-1 -11 5 62.69 11.4
0 11 -5 29.4 10.1
0 11 -5 39.2 6.9
0 -11 5 45.8 12.8
0 -11 5 33.7 9.4
-1 11 -5 22.1 9.6
-1 11 -5 35.2 6.4
1 -11 5 43.6 11.2
1 -11 5 45.5 14
1 -11 5 27.7 12
-2 11 -5 132.59 15.9
-2 11 -5 132.29 12
-2 11 -5 97.29 14.2
2 -11 5 196.28 24.7
2 -11 5 144.79 18.4
2 -11 5 127.19 19
-3 11 -5 123.59 12.8
-3 11 -5 113.89 15.5
-3 11 -5 122.59 17.1
3 -11 5 138.69 24.5
3 -11 5 134.99 20.3
-4 11 -5 280.77 24.5
-4 11 -5 284.57 22.1
-4 11 -5 326.27 24.9
4 -11 5 258.07 33.8
-5 11 -5 53.49 13.8
-5 11 -5 36.6 12.7
-5 11 -5 37.2 11.4
5 -11 5 56.99 23
-6 11 -5 35.7 13.3
-6 11 -5 45.1 14.9
-6 11 -5 27.3 12.6
-6 11 -5 42.4 17.2
6 -11 5 22.3 25.9
-7 11 -5 149.69 24.1
-7 11 -5 99.19 24.1
-7 11 -5 130.09 21.2
-7 11 -5 108.99 19.4
7 -11 5 115.89 34.4
-8 11 -5 19.2 22.3
-8 11 -5 -25.8 18.7
-8 11 -5 7.9 16.8
-8 11 -5 4.1 18.8
-9 11 -5 12.9 24.2
-9 11 -5 13.2 19.6
-9 11 -5 11.2 24.6
-9 11 -5 -4.3 27.2
9 11 -6 278.57 45.2
8 11 -6 277.87 37.7
-8 -11 6 274.67 35.9
7 11 -6 411.56 38.3
-7 -11 6 329.17 34.1
-7 -11 6 317.47 37.6
6 11 -6 290.27 32.9
6 11 -6 353.16 32.3
-6 -11 6 319.97 30.1
-6 -11 6 283.37 31.7
5 11 -6 589.04 44.3
5 11 -6 521.15 41
-5 -11 6 564.84 41.4
-5 -11 6 614.94 43.7
4 11 -6 483.95 39.4
4 11 -6 547.95 36.9
-4 -11 6 493.45 39.1
-4 -11 6 514.85 37.3
3 11 -6 478.15 33.2
3 11 -6 485.05 36.3
-3 -11 6 414.96 35.6
-3 -11 6 536.05 37.9
2 11 -6 364.06 25.3
2 11 -6 349.67 28.2
-2 -11 6 313.97 26.8
-2 -11 6 336.07 30.1
1 11 -6 62.59 9.7
1 11 -6 34.9 11.2
-1 -11 6 60.49 12.2
-1 -11 6 23 12.9
0 11 -6 751.62 48.1
0 11 -6 756.22 44.6
0 -11 6 698.43 50.09
0 -11 6 741.43 47.9
-1 11 -6 172.58 18.8
-1 11 -6 143.79 14
1 -11 6 183.48 22.9
1 -11 6 113.59 18.6
1 -11 6 138.49 20.7
-2 11 -6 714.83 42.7
-2 11 -6 683.13 45.9
2 -11 6 726.63 51.39
2 -11 6 679.63 47.3
-3 11 -6 711.53 46.6
-3 11 -6 771.62 44.5
-3 11 -6 694.83 46.9
3 -11 6 672.63 52.99
-4 11 -6 122.19 17.6
-4 11 -6 116.29 19.6
-4 11 -6 113.59 15.7
4 -11 6 115.09 24.2
-5 11 -6 380.36 29.7
-5 11 -6 439.66 33.1
-5 11 -6 374.36 32.5
5 -11 6 275.17 40.6
-6 11 -6 74.09 16.8
-6 11 -6 107.69 20
-6 11 -6 61.19 15.6
6 -11 6 91.99 29.2
-7 11 -6 181.58 30.2
-7 11 -6 156.58 26.2
-7 11 -6 143.79 26.9
-7 11 -6 172.18 27.4
7 -11 6 273.97 50.79
-8 11 -6 -1.4 18.9
-8 11 -6 -3 22.2
-8 11 -6 1.1 20.5
-8 11 -6 11.4 23
-9 11 -6 26.2 26.1
-9 11 -6 27.1 26.6
-9 11 -6 57.79 27.8
-9 11 -6 17.6 27.6
9 11 -7 46.8 31.2
8 11 -7 47.3 25.4
-8 -11 7 15.8 21.5
7 11 -7 121.39 25.3
-7 -11 7 143.89 24.3
-7 -11 7 81.19 23.6
6 11 -7 12.4 15.5
6 11 -7 -6.4 16
-6 -11 7 25.6 15.9
-6 -11 7 0.7 17.5
5 11 -7 189.88 26.1
-5 -11 7 192.48 25.1
-5 -11 7 165.18 26.6
4 11 -7 88.29 17.4
4 11 -7 79.79 15
-4 -11 7 71.69 16.3
-4 -11 7 40.9 16.7
3 11 -7 50.79 13.4
3 11 -7 44.2 12.3
-3 -11 7 30 14.7
-3 -11 7 44.2 13.7
2 11 -7 90.59 14.7
2 11 -7 77.09 14.3
-2 -11 7 79.79 17
-2 -11 7 48.6 13.1
1 11 -7 36.4 11.4
1 11 -7 27.8 9.4
-1 -11 7 -3.4 13.4
0 11 -7 361.66 28.7
0 11 -7 341.77 25.4
0 -11 7 372.86 32.1
-1 11 -7 13.2 10.1
-1 11 -7 22.8 8.1
1 -11 7 -1 12.8
1 -11 7 15.4 13.2
-2 11 -7 16.5 8.2
-2 11 -7 -9.4 9.6
2 -11 7 4.4 14.3
2 -11 7 -0.4 12.6
-3 11 -7 13.2 9
-3 11 -7 4.6 11.1
3 -11 7 -17.9 14.6
3 -11 7 8.5 14.1
-4 11 -7 47.9 13.4
-4 11 -7 26 10.8
-4 11 -7 29.2 14.1
4 -11 7 22.6 20.6
-5 11 -7 -14.3 14.3
-5 11 -7 8.6 12.4
-5 11 -7 -2.6 12.9
5 -11 7 -30.8 19.6
-6 11 -7 176.38 27.4
-6 11 -7 186.28 25.1
-6 11 -7 180.48 25.6
6 -11 7 193.18 37.7
-7 11 -7 -2 20.6
-7 11 -7 25.5 17.9
7 -11 7 1.3 31.6
-8 11 -7 146.29 27.8
-8 11 -7 241.78 36.9
-8 11 -7 147.89 30
-8 11 -7 140.99 28
-9 11 -7 35.7 25.4
-9 11 -7 -24.8 25.4
-9 11 -7 0.9 27.1
-9 11 -7 -17.5 28.6
8 11 -8 90.69 28
7 11 -8 134.09 27.7
7 11 -8 203.88 30.4
-7 -11 8 204.48 29.9
6 11 -8 238.38 31.6
6 11 -8 222.68 30.6
-6 -11 8 142.39 26.6
-6 -11 8 265.37 30.4
5 11 -8 409.66 36
5 11 -8 345.27 34.5
-5 -11 8 369.36 33.7
-5 -11 8 401.46 37.4
4 11 -8 610.04 43.8
4 11 -8 677.63 45.9
-4 -11 8 575.14 47
-4 -11 8 594.14 45
3 11 -8 19.6 12.1
3 11 -8 33.3 13.5
-3 -11 8 17.4 13.3
-3 -11 8 49 16.9
2 11 -8 456.45 33.8
-2 -11 8 452.05 36.3
-2 -11 8 533.25 40.4
1 11 -8 309.27 28.2
1 11 -8 344.87 26
-1 -11 8 311.07 29.1
-1 -11 8 363.96 33.2
0 11 -8 282.77 24.5
0 11 -8 226.38 20.8
0 -11 8 236.98 26
0 -11 8 188.98 27.4
-1 11 -8 583.54 39
-1 11 -8 647.34 42.7
1 -11 8 540.15 42.9
1 -11 8 628.14 46.7
-2 11 -8 183.08 18.7
-2 11 -8 196.08 22.1
2 -11 8 137.29 26.4
2 -11 8 173.78 25.7
-3 11 -8 179.28 20
-3 11 -8 176.78 22.5
3 -11 8 166.58 26
3 -11 8 151.28 26.3
-4 11 -8 214.58 26.5
-4 11 -8 204.68 26.4
-4 11 -8 168.78 21.2
4 -11 8 138.99 29.1
-5 11 -8 203.88 29.2
-5 11 -8 183.88 23.8
5 -11 8 139.79 31.6
-6 11 -8 242.58 29.7
-6 11 -8 258.07 31.2
-6 11 -8 208.98 34.8
6 -11 8 263.57 48
-7 11 -8 322.47 37.5
-7 11 -8 373.86 39.9
-7 11 -8 393.46 42.4
7 -11 8 239.08 46.3
-8 11 -8 73.99 26.1
-8 11 -8 34 28.5
-8 11 -8 16.5 22.7
8 11 -9 -16.7 24.8
8 11 -9 -22.6 27.3
7 11 -9 -27.4 23.3
7 11 -9 -16.5 19.9
-7 -11 9 -16.2 21.8
6 11 -9 14.4 18
6 11 -9 24.4 20.1
-6 -11 9 0.5 17.3
-6 -11 9 4.4 20.7
5 11 -9 28.1 17
5 11 -9 14.9 17.1
-5 -11 9 25.3 20.6
-5 -11 9 5.9 16.7
4 11 -9 66.89 17.6
4 11 -9 94.99 18.4
-4 -11 9 72.69 18.2
-4 -11 9 105.69 22.3
3 11 -9 19.3 13.3
3 11 -9 7.7 12.8
-3 -11 9 38.7 15.3
-3 -11 9 -1.8 16.5
2 11 -9 52.09 13.5
2 11 -9 38.9 13.9
-2 -11 9 45.9 18.1
-2 -11 9 41.5 15.6
1 11 -9 -9.1 10.9
1 11 -9 -3.7 10
-1 -11 9 28.1 17
-1 -11 9 1.5 13.5
0 11 -9 7.1 12.1
0 11 -9 24.8 10.5
0 -11 9 -15.7 13.2
-1 11 -9 -4.5 13.4
-1 11 -9 10.2 10.2
1 -11 9 2.4 14.7
1 -11 9 18.8 15.1
-2 11 -9 125.49 22
-2 11 -9 132.89 19.4
2 -11 9 217.58 31
2 -11 9 165.58 25.2
-3 11 -9 17.4 12.2
-3 11 -9 17.8 14.2
3 -11 9 17.9 20.3
3 -11 9 47.3 20.5
-4 11 -9 23.7 13.9
-4 11 -9 5.8 15.4
4 -11 9 40.3 24.8
-5 11 -9 41 20.6
-5 11 -9 48.1 19.4
-5 11 -9 61.39 18.2
5 -11 9 41.3 28.2
-6 11 -9 52.49 24.6
-6 11 -9 4.1 18.8
-6 11 -9 35.6 25
6 -11 9 55.89 31.3
-7 11 -9 -34.4 26.5
-7 11 -9 10.5 23.2
-7 11 -9 -17.6 21.6
7 -11 9 55.99 44.4
-8 11 -9 67.39 29.1
-8 11 -9 50.69 28
-8 11 -9 60.59 32.1
7 11 -10 51.89 24.7
7 11 -10 76.49 29.2
6 11 -10 204.18 32.9
6 11 -10 214.78 31.4
-6 -11 10 207.88 31.3
5 11 -10 192.08 29.6
5 11 -10 230.38 32.6
-5 -11 10 211.18 30.2
4 11 -10 2.2 16.1
4 11 -10 23.5 15.9
-4 -11 10 20.9 21
-4 -11 10 41.1 18.1
3 11 -10 78.49 18.2
3 11 -10 112.89 18.9
-3 -11 10 98.29 21.6
-3 -11 10 109.79 23.7
2 11 -10 37.1 14.1
2 11 -10 80.19 17.4
-2 -11 10 69.49 21.2
-2 -11 10 93.49 20.1
1 11 -10 356.96 32.5
1 11 -10 406.46 31
-1 -11 10 359.16 34.8
0 11 -10 178.58 21.7
0 11 -10 165.18 23.4
0 -11 10 202.08 27.9
-1 11 -10 237.18 28.2
-1 11 -10 267.17 25.5
1 -11 10 279.67 33.7
1 -11 10 311.47 35.8
-2 11 -10 220.58 27.6
-2 11 -10 227.08 24.4
2 -11 10 257.37 31.9
2 -11 10 262.77 33.6
-3 11 -10 256.17 30.5
-3 11 -10 279.57 28.2
3 -11 10 291.47 36.1
3 -11 10 254.97 37.1
-4 11 -10 72.49 20.9
-4 11 -10 70.49 18
4 -11 10 69.19 25.8
-5 11 -10 130.69 27.8
-5 11 -10 192.08 30.8
-5 11 -10 143.69 24.5
5 -11 10 158.28 35.3
-6 11 -10 243.28 33.3
-6 11 -10 173.58 29.8
-6 11 -10 188.38 33.9
6 -11 10 128.79 39.2
-7 11 -10 118.39 33.2
-7 11 -10 22.3 28.6
-7 11 -10 86.39 26
7 11 -11 58.49 28.9
7 11 -11 22.9 27.1
6 11 -11 17.7 23
6 11 -11 39.2 25
5 11 -11 102.09 23.5
5 11 -11 63.19 22.5
-5 -11 11 45.6 24
4 11 -11 77.99 19.9
4 11 -11 99.79 23.3
-4 -11 11 24.1 20.5
-4 -11 11 12.1 24.6
3 11 -11 233.78 28.9
-3 -11 11 199.18 32.4
-3 -11 11 237.18 32.7
2 11 -11 53.79 16.2
2 11 -11 49.7 16.5
-2 -11 11 72.99 23.4
-2 -11 11 70.79 20.4
1 11 -11 18.8 14
1 11 -11 27.7 14.8
-1 -11 11 32.8 20.1
0 11 -11 31.2 15.6
0 11 -11 23.6 13.4
0 -11 11 15.1 18.5
-1 11 -11 26.4 13.5
-1 11 -11 30 15.9
1 -11 11 -0.4 19.2
1 -11 11 32.2 21.1
-2 11 -11 5.1 13.3
-2 11 -11 25.5 18.2
2 -11 11 -7.7 21.5
2 -11 11 21.5 20.2
-3 11 -11 -18.8 15.6
3 -11 11 -30.9 21.2
3 -11 11 4.1 22.4
-4 11 -11 81.29 20
-4 11 -11 53.29 21.3
4 -11 11 25.5 27.5
-5 11 -11 46 23.3
-5 11 -11 -10 18.6
5 -11 11 -14.7 29.8
-6 11 -11 91.59 26.8
-6 11 -11 84.99 30
-6 11 -11 81.09 24
6 -11 11 66.49 39.1
-7 11 -11 27.2 30.8
-7 11 -11 -29.2 25.1
6 11 -12 144.79 28.9
6 11 -12 99.09 30.5
5 11 -12 149.19 26.8
5 11 -12 135.49 27.8
4 11 -12 47.6 20.8
4 11 -12 50.39 23.3
-4 -11 12 62.29 25.7
3 11 -12 378.36 38.1
3 11 -12 413.46 38.3
-3 -11 12 398.26 41.5
2 11 -12 195.98 28.2
2 11 -12 198.88 28.9
-2 -11 12 205.18 33.9
1 11 -12 520.55 42.2
1 11 -12 523.05 41.4
-1 -11 12 451.25 45.5
0 11 -12 402.36 37.2
0 11 -12 407.66 36.2
0 -11 12 368.36 41.6
-1 11 -12 201.18 28.4
-1 11 -12 153.38 26
1 -11 12 186.48 34.6
1 -11 12 129.79 28.8
-2 11 -12 344.57 35.5
-2 11 -12 377.76 38.8
2 -11 12 399.46 46.9
2 -11 12 477.65 48
-3 11 -12 112.59 22.2
-3 11 -12 143.89 25.9
3 -11 12 122.39 31
3 -11 12 63.29 30.9
-4 11 -12 149.59 24.9
-4 11 -12 130.19 27.1
4 -11 12 79.39 34.1
-5 11 -12 66.99 23.7
-5 11 -12 33.4 27.5
5 -11 12 45.3 33.3
-6 11 -12 92.39 28.1
-6 11 -12 27.7 27.7
5 11 -13 -4.3 22
5 11 -13 116.59 29.8
4 11 -13 47.5 21.8
4 11 -13 0 22.4
3 11 -13 -13.4 18.2
3 11 -13 -17.8 19.6
-3 -11 13 18.2 24.3
2 11 -13 34.2 21.1
2 11 -13 26.3 19.9
-2 -11 13 15.8 26.2
1 11 -13 -6.2 18.6
1 11 -13 19.7 17.9
-1 -11 13 -1.9 24.8
0 11 -13 90.29 20.8
0 11 -13 7.1 17.9
0 -11 13 55.49 27.1
-1 11 -13 5.2 18.1
-1 11 -13 3.5 18.8
1 -11 13 34.1 27
1 -11 13 -16.1 25
-2 11 -13 23.1 20.3
-2 11 -13 48 22
2 -11 13 38 27.1
2 -11 13 79.49 29.8
-3 11 -13 110.29 25.4
-3 11 -13 158.28 29.2
3 -11 13 125.89 34.9
3 -11 13 199.38 37.1
-4 11 -13 151.08 27.8
-4 11 -13 126.59 30.1
4 -11 13 150.28 39.4
-5 11 -13 46.4 28.5
-5 11 -13 22 25.6
4 11 -14 106.79 25.8
4 11 -14 61.29 27.2
3 11 -14 41.9 22.5
3 11 -14 22.2 23.5
2 11 -14 224.68 37.3
2 11 -14 286.67 36.5
1 11 -14 46 22.9
1 11 -14 40.2 22
0 11 -14 45.6 21.9
0 11 -14 45.3 22.5
0 -11 14 41.4 32.1
-1 11 -14 169.68 26.8
-1 11 -14 115.29 28
1 -11 14 189.38 36.7
-2 11 -14 65.59 25.9
-2 11 -14 64.09 22.6
2 -11 14 51.39 29.6
-3 11 -14 183.38 30.5
-3 11 -14 193.68 32.7
3 -11 14 96.89 39.5
-4 11 -14 191.28 32.6
-4 11 -14 187.58 37.1
2 11 -15 -0.4 24.9
2 11 -15 -29.3 22.4
1 11 -15 -17.9 23.4
1 11 -15 -40.8 21.9
0 11 -15 1 23.2
0 11 -15 6.4 24.2
-1 11 -15 -15.8 23.9
-1 11 -15 25.1 25.8
-2 11 -15 10.8 24
-2 11 -15 26.9 27.1
-1 -12 -14 27.8 20.2
0 -12 -14 36.1 18.8
1 -12 -14 32.8 18.1
-2 12 14 22.1 17.3
2 -12 -14 63.29 19.2
-3 12 14 17.1 21.9
-2 12 13 9.2 16
-3 12 13 46.3 20.6
3 -12 -13 2.1 16.3
-4 12 13 31.6 46.6
4 -12 -13 -23.3 25.1
-5 -12 -12 -15 24.6
-1 -12 -12 1.1 14.5
0 -12 -12 0.9 13.2
1 -12 -12 10.8 13.2
-2 12 12 23.6 15.3
2 -12 -12 -11.7 12.7
-3 12 12 67.69 21.3
-4 12 12 62.79 25.7
-5 12 12 35.8 28.3
-3 -12 -11 28 16.1
-2 -12 -11 100.79 18.2
-1 -12 -11 83.29 16.1
0 -12 -11 -11 11.6
1 -12 -11 6.2 10.9
-2 12 11 14.8 14.7
2 -12 -11 2.6 11
-3 12 11 13.1 17.3
3 -12 -11 15.1 10.3
3 -12 -11 10.8 11.8
-4 12 11 13.5 20.7
4 -12 -11 9.4 7.3
-5 12 11 -19.3 25.5
-6 12 11 53.39 30.1
6 -12 -11 31.4 20.9
-7 -12 -10 155.38 35
-3 -12 -10 -8.3 14
-2 -12 -10 55.69 15
-1 -12 -10 196.88 21.7
0 -12 -10 50.39 12
1 -12 -10 96.39 15.9
-2 12 10 58.69 16.7
2 -12 -10 69.79 13
2 -12 -10 83.69 13.9
-3 12 10 2.1 16.1
3 -12 -10 25.5 8.6
3 -12 -10 -12.7 10
-4 12 10 38.7 20.8
4 -12 -10 62.89 14.7
-5 12 10 43 26.1
5 -12 -10 39.4 16.7
-6 12 10 11.9 28.7
-7 12 10 45.8 38.1
7 -12 -10 1.1 26.9
-7 -12 -9 4.7 27
-5 -12 -9 50.29 9.2
-4 -12 -9 56.99 11.9
-3 -12 -9 33 11.8
-2 -12 -9 52.59 13.4
-2 -12 -9 44.6 11.8
-1 -12 -9 -3.9 11.8
-1 -12 -9 5.9 9.7
0 -12 -9 -7.5 8.2
0 -12 -9 13.2 13.1
1 -12 -9 18.5 14.9
1 -12 -9 17.5 8.6
1 -12 -9 17 11
-2 12 9 103.69 18.4
2 -12 -9 102.89 13.7
2 -12 -9 144.89 16.9
-3 12 9 33 16.1
3 -12 -9 21.2 7.6
3 -12 -9 11.5 9.7
-4 12 9 29.7 19.6
4 -12 -9 -3.8 4.9
4 -12 -9 -0.4 11
-5 12 9 18.7 21.4
5 -12 -9 6.4 15.1
-6 12 9 -21.2 26.2
-7 12 9 72.99 32.2
7 -12 -9 52.19 24.2
-8 -12 -8 131.19 35.4
-7 -12 -8 348.97 44.7
-6 -12 -8 89.09 24.6
-6 -12 -8 89.89 14
-5 -12 -8 87.39 13.4
-4 -12 -8 97.19 16.3
-3 -12 -8 125.49 17.9
-2 -12 -8 41.1 11.7
-1 -12 -8 218.98 19.7
0 -12 -8 50.29 14.7
0 -12 -8 56.79 9.9
1 -12 -8 27.9 11
1 -12 -8 21.3 7.5
1 -12 -8 31 16.1
-2 12 8 0.2 12.1
2 -12 -8 6.9 7.3
2 -12 -8 -0.8 7.9
-3 12 8 1.6 14.2
3 -12 -8 13.2 19.1
3 -12 -8 -3.4 6.3
3 -12 -8 14.4 8.7
-4 12 8 -1.7 16.2
4 -12 -8 2.4 4.2
4 -12 -8 5.8 9.8
-5 12 8 51.69 23.8
5 -12 -8 17.8 13.3
-6 12 8 49 25.9
-7 12 8 58.49 32.3
-8 12 8 -19.3 33.4
8 -12 -8 -7 23.5
-8 -12 -7 24.7 27.9
-7 -12 -7 101.29 27.9
-6 -12 -7 185.58 30.7
-6 -12 -7 117.79 26.8
-5 -12 -7 9.7 17.7
-5 -12 -7 -6 9.1
-4 -12 -7 15.5 16.2
-4 -12 -7 22.8 10.1
-3 -12 -7 22.5 10.5
-3 -12 -7 7.4 14.5
-2 -12 -7 58.09 15.2
-1 -12 -7 7.7 11.4
-1 -12 -7 6 11.3
0 -12 -7 203.48 21
0 -12 -7 184.48 15.7
0 -12 -7 225.48 25.6
1 -12 -7 11.4 8.8
1 -12 -7 3.8 5.2
1 -12 -7 2.9 13.2
-2 12 7 381.06 30.4
2 -12 -7 316.37 22.2
2 -12 -7 318.37 23.8
-3 12 7 11.1 13.9
3 -12 -7 -2.2 17.4
3 -12 -7 -0.2 7.2
3 -12 -7 -8.2 5.6
-4 12 7 71.99 20.1
4 -12 -7 79.19 25.3
4 -12 -7 59.79 11.7
4 -12 -7 52.89 7.4
-5 12 7 31 21.8
5 -12 -7 40.2 13.1
-6 12 7 12.5 23
-7 12 7 19.3 26.9
7 -12 -7 28.3 19.4
-8 12 7 36 33.8
8 -12 -7 22.3 24.1
-8 -12 -6 126.39 30.2
-7 -12 -6 122.09 26.6
-6 -12 -6 197.38 31
-6 -12 -6 266.07 32.5
-5 -12 -6 195.88 29.7
-5 -12 -6 217.88 26.5
-4 -12 -6 713.03 51.19
-4 -12 -6 698.53 45.8
-3 -12 -6 372.46 33.1
-3 -12 -6 311.97 30.5
-2 -12 -6 314.77 26.7
-2 -12 -6 288.47 26.9
-1 -12 -6 211.78 22.4
-1 -12 -6 217.08 23.3
0 -12 -6 86.89 17.4
0 -12 -6 90.89 15.2
1 -12 -6 213.58 27.5
1 -12 -6 214.38 17.2
1 -12 -6 257.17 19.9
-2 12 6 323.07 27.3
2 -12 -6 249.78 17.9
2 -12 -6 277.77 20.2
2 -12 -6 206.48 32.9
-3 12 6 365.36 32.4
3 -12 -6 292.37 21.1
3 -12 -6 361.16 35.3
3 -12 -6 295.37 21.8
-4 12 6 28.2 16.1
4 -12 -6 48.5 10.6
4 -12 -6 50.99 22.4
4 -12 -6 51.99 7.3
-5 12 6 -36.4 28.3
5 -12 -6 -4.8 10.9
5 -12 -6 27.6 25.2
-6 12 6 137.39 28
6 -12 -6 118.09 19
-7 12 6 34.2 26.1
7 -12 -6 24.8 17.7
-8 12 6 29.5 29.9
8 -12 -6 17 22.2
-9 -12 -5 43.8 30.6
-8 -12 -5 62.59 24.8
-7 -12 -5 6.6 20.5
-6 -12 -5 29 18.7
-6 -12 -5 54.39 18.6
-5 -12 -5 0.9 15
-5 -12 -5 16 13.4
-4 -12 -5 -18.6 9.9
-4 -12 -5 7.2 13.1
-4 -12 -5 5.4 9.6
-3 -12 -5 97.69 15.4
-3 -12 -5 147.79 22
-2 -12 -5 102.99 17.2
-2 -12 -5 107.79 17.8
-1 -12 -5 210.38 22.5
0 -12 -5 136.89 16
0 -12 -5 124.79 21.2
1 -12 -5 200.08 17.8
1 -12 -5 217.88 24.5
1 -12 -5 188.48 12.5
-2 12 5 20.9 11.3
2 -12 -5 26.1 7.2
2 -12 -5 23.3 5.2
2 -12 -5 12.5 15.7
-3 12 5 8.6 12.6
3 -12 -5 6.6 5.7
3 -12 -5 8.4 5.9
3 -12 -5 5.4 17
-4 12 5 -18.1 13.7
4 -12 -5 -0.1 4.7
4 -12 -5 -6.2 18.5
4 -12 -5 22.2 8.5
5 -12 -5 57.89 24.2
5 -12 -5 -5.1 10.4
-6 12 5 37.4 21.3
6 -12 -5 -12.1 24.3
6 -12 -5 7.7 12.7
-7 12 5 248.28 41.6
-8 12 5 39.2 30
8 -12 -5 16.6 21.5
-9 12 5 121.39 41.5
9 -12 -5 49 28.1
-9 -12 -4 19.2 27.4
-8 -12 -4 225.38 37.1
-7 -12 -4 196.78 28.1
-6 -12 -4 122.49 20.9
-5 -12 -4 2000.5 115.49
-5 -12 -4 1840.82 112.39
-4 -12 -4 587.44 39
-4 -12 -4 547.65 42.4
-3 -12 -4 1093.49 64.69
-3 -12 -4 982 65.49
-2 -12 -4 510.05 37
-2 -12 -4 526.95 36.9
-1 -12 -4 140.79 20.1
-1 -12 -4 168.08 17.4
0 -12 -4 548.65 42.3
0 -12 -4 620.04 38.2
1 -12 -4 207.28 23.7
1 -12 -4 168.98 16.4
-2 12 4 339.17 28.7
2 -12 -4 317.47 21.6
2 -12 -4 216.58 30.6
-3 12 4 240.88 27
3 -12 -4 218.98 17
3 -12 -4 186.28 29
3 -12 -4 243.08 17.3
-4 12 4 257.67 30.1
4 -12 -4 248.78 35.6
4 -12 -4 214.78 19.7
5 -12 -4 121.69 18
5 -12 -4 129.29 29.9
-6 12 4 46.5 22.2
6 -12 -4 57.19 18
6 -12 -4 82.09 27.1
-7 12 4 224.18 37.8
7 -12 -4 221.98 29.5
7 -12 -4 165.58 38.6
-8 12 4 22.5 28.5
8 -12 -4 51.69 25.6
-9 12 4 49.8 35.1
9 -12 -4 24.8 27
-9 -12 -3 -11.7 24.9
-8 -12 -3 108.79 25.1
-7 -12 -3 104.79 22.4
-6 -12 -3 2.7 14.9
-6 -12 -3 -23.1 14.4
-5 -12 -3 517.05 40.7
-5 -12 -3 510.75 38.4
-4 -12 -3 10.7 9.9
-4 -12 -3 29.4 12.6
-3 -12 -3 9.4 10.7
-3 -12 -3 32 8.7
-2 -12 -3 28.3 10.8
-2 -12 -3 29.3 10.3
-1 -12 -3 10.7 10.2
-1 -12 -3 6.6 8.1
0 -12 -3 15 10.5
0 -12 -3 15.3 7.5
1 -12 -3 121.69 13
1 -12 -3 95.69 19
-2 12 3 321.67 27.8
2 -12 -3 337.57 22.3
2 -12 -3 266.47 30.7
2 -12 -3 300.87 19
-3 12 3 390.16 32.3
3 -12 -3 321.97 24.3
3 -12 -3 381.26 24.2
3 -12 -3 380.06 38
-4 12 3 477.25 38.4
4 -12 -3 427.76 30.6
4 -12 -3 426.26 28.3
4 -12 -3 480.25 43.3
-5 12 3 31.5 21.1
5 -12 -3 13.3 20.8
5 -12 -3 30.7 11.7
-6 12 3 47.7 20.1
6 -12 -3 60.69 27.2
6 -12 -3 40.5 17.5
-7 12 3 -23.6 20.2
7 -12 -3 22.9 29.3
7 -12 -3 2.6 17.3
-8 12 3 61.39 27.4
8 -12 -3 11.6 33.5
-9 12 3 7.7 15
-9 12 3 25 34.7
-9 12 3 3.2 11.2
9 -12 -3 -39.1 24.8
-9 -12 -2 119.39 29.4
-8 -12 -2 177.88 28.1
-7 -12 -2 233.78 30.8
-6 -12 -2 175.58 26.7
-6 -12 -2 277.37 28.1
-5 -12 -2 257.47 27.1
-5 -12 -2 235.48 24.9
-4 -12 -2 683.23 43
-4 -12 -2 627.84 45.3
-3 -12 -2 803.72 52.39
-3 -12 -2 810.52 49.1
-2 -12 -2 551.14 38.6
-2 -12 -2 544.95 33.8
-2 -12 -2 580.34 38.3
-1 -12 -2 648.24 38.2
-1 -12 -2 659.33 43.1
-1 -12 -2 729.23 45.9
0 -12 -2 669.03 46.1
0 -12 -2 637.64 41.4
1 -12 -2 211.28 18.1
2 -12 -2 300.57 20
2 -12 -2 214.78 15.9
2 -12 -2 227.98 27.6
-3 12 2 65.29 15.7
3 -12 -2 68.39 18.3
3 -12 -2 45.9 8.7
3 -12 -2 70.49 11.3
-4 12 2 202.78 24.6
4 -12 -2 110.89 16.1
4 -12 -2 148.59 26.9
-5 12 2 320.07 40.1
5 -12 -2 348.97 40.8
5 -12 -2 365.76 28.8
-6 12 2 753.42 57.59
6 -12 -2 674.03 61.79
6 -12 -2 744.03 50.39
-7 12 2 111.19 27.5
7 -12 -2 117.69 21.6
7 -12 -2 84.09 31.6
-8 12 2 174.08 23.4
-8 12 2 206.28 35.9
8 -12 -2 125.99 26.8
-9 12 2 42 11.5
-9 12 2 27.6 14.5
-9 12 2 3.3 31.4
9 -12 -2 68.59 27.1
-9 -12 -1 40.2 25.9
-8 -12 -1 8.3 20.3
-7 -12 -1 6.8 19.2
-7 -12 -1 22.5 17.2
-6 -12 -1 17.2 13.6
-6 -12 -1 -0.5 13.7
-5 -12 -1 1.7 11
-5 -12 -1 -6.3 11.3
-4 -12 -1 212.18 20.8
-4 -12 -1 260.97 24
-3 -12 -1 161.68 19.4
-3 -12 -1 194.68 16.8
-2 -12 -1 55.99 11.4
-1 -12 -1 -0.2 3.7
-1 -12 -1 9.1 9.3
-1 -12 -1 2.3 7.4
0 -12 -1 18.9 8.1
0 -12 -1 30.6 11.6
0 -12 -1 21.7 3.3
-1 12 1 2.3 7.8
1 -12 -1 1.1 11.7
1 -12 -1 7.7 3.3
1 -12 -1 7.2 6.6
-2 12 1 79.99 12.5
2 -12 -1 75.99 9.8
2 -12 -1 92.79 12.5
2 -12 -1 75.39 17.9
2 -12 -1 75.39 9.5
-3 12 1 16.3 12.1
-3 12 1 24.2 7.6
3 -12 -1 22.5 7.6
3 -12 -1 20.7 8.3
3 -12 -1 -9.2 14.7
-4 12 1 21.3 7.2
-4 12 1 26.8 14
4 -12 -1 -8.8 16.7
4 -12 -1 9.2 8.5
-5 12 1 15.4 6.1
-5 12 1 19.7 17.9
5 -12 -1 1.9 20.8
5 -12 -1 -8.1 9.8
-6 12 1 -2.5 17.2
-6 12 1 18.6 5.9
6 -12 -1 1.7 12.8
6 -12 -1 20.8 23.6
-7 12 1 49 22.4
7 -12 -1 42.2 17.9
-8 12 1 64.49 26.8
-8 12 1 46.4 9.3
-8 12 1 45.6 11.3
-9 12 1 53.29 29.6
-9 12 1 63.29 16.5
-9 12 1 18.6 12.4
-9 -12 0 27.3 25.1
-8 -12 0 6.8 20
-7 -12 0 165.78 27.8
-7 -12 0 199.98 26.9
-6 -12 0 440.66 36.4
-6 -12 0 416.96 34.5
-5 -12 0 53.19 14.3
-5 -12 0 35.2 12.7
-4 -12 0 267.97 26.2
-4 -12 0 311.87 24
-3 -12 0 146.19 14.5
-3 -12 0 117.69 17.5
-2 -12 0 556.04 38.1
-2 -12 0 571.14 34.7
1 12 0 723.43 48.8
-1 -12 0 755.22 43.8
-1 -12 0 804.42 50.99
0 12 0 283.57 23
0 -12 0 298.27 17.8
0 -12 0 280.37 22.1
0 -12 0 233.38 28.4
-1 12 0 751.42 46.5
1 -12 0 804.92 46.3
1 -12 0 626.64 49.9
1 -12 0 740.63 42.4
-2 12 0 650.03 38.8
2 -12 0 547.95 44.9
2 -12 0 582.54 36.8
2 -12 0 598.24 38.9
-3 12 0 115.99 14.2
-3 12 0 176.98 21.6
3 -12 0 161.18 27.4
3 -12 0 114.39 15.5
-4 12 0 274.77 20.7
-4 12 0 291.27 29.1
4 -12 0 245.28 33.6
-5 12 0 41.3 8.2
5 -12 0 14.9 21.4
-6 12 0 499.15 43.4
-6 12 0 477.15 29.9
6 -12 0 402.66 50.99
-7 12 0 133.79 27.4
-7 12 0 140.99 13.9
-7 12 0 149.29 14
-8 12 0 38.2 10.8
-8 12 0 32.4 7.1
-8 12 0 39.4 12.5
-8 12 0 40.2 26.2
-9 12 0 49.2 14.9
-9 12 0 88.39 18.5
-9 12 0 41.2 31.9
-9 -12 1 19 22.7
-8 -12 1 75.09 21.4
-7 -12 1 38.8 18.6
-7 -12 1 47.9 16.9
-6 -12 1 1.7 14.1
-6 -12 1 7.4 13.5
-5 -12 1 -1 10.2
-5 -12 1 10.1 12.6
-4 -12 1 9.7 11
-4 -12 1 9 8.7
-3 -12 1 21.8 7.8
-3 -12 1 20 10.7
2 12 -1 80.29 14.5
-2 -12 1 59.19 12.3
-2 -12 1 75.09 10.2
1 12 -1 10.5 8.5
-1 -12 1 15.1 5.3
-1 -12 1 -8.6 9.1
-1 -12 1 5.6 9.6
0 12 -1 26.3 9.5
0 -12 1 19.7 12.3
0 -12 1 25.1 9.1
-1 12 -1 8.7 7.5
1 -12 1 1.5 5.3
1 -12 1 -2.1 7.3
1 -12 1 3.5 10.9
-2 12 -1 54.59 9.9
2 -12 1 54.39 9.5
2 -12 1 46.6 15.1
2 -12 1 32.5 10.2
-3 12 -1 187.68 16.7
3 -12 1 157.28 18.3
3 -12 1 174.98 27.3
-4 12 -1 226.68 25.8
-4 12 -1 174.68 17
4 -12 1 199.58 31.1
5 -12 1 50.79 22.2
-6 12 -1 11.2 18
-6 12 -1 23.4 8.3
-6 12 -1 16.5 5
6 -12 1 38.5 23.5
-7 12 -1 -10.5 19.5
-7 12 -1 27 9.3
-7 12 -1 14 8.2
-7 12 -1 41.4 9.2
-8 12 -1 14.5 11.6
-8 12 -1 -12.3 23.3
-8 12 -1 23.4 13.2
-8 12 -1 13.1 8.8
-9 12 -1 -2.8 8.8
-9 12 -1 -4.6 17.6
-9 12 -1 -37.3 25.9
-9 -12 2 40.3 24.8
-8 -12 2 201.68 29.6
-7 -12 2 139.29 22.1
-7 -12 2 83.59 20.2
-6 -12 2 737.93 49.4
-6 -12 2 673.93 49.99
-5 -12 2 392.86 33
-4 -12 2 118.09 19
-4 -12 2 145.89 17.1
3 12 -2 65.69 14.5
-3 -12 2 56.39 10.4
-3 -12 2 74.49 13.3
2 12 -2 253.17 23.8
-2 -12 2 238.38 22.5
-2 -12 2 262.97 19.2
1 12 -2 197.08 20.3
-1 -12 2 196.08 15.8
-1 -12 2 219.98 20.1
0 12 -2 681.13 42.9
0 -12 2 616.94 45.1
0 -12 2 595.14 45.2
0 -12 2 667.63 39.1
-1 12 -2 658.03 43
1 -12 2 597.74 46.9
1 -12 2 716.23 44.6
1 -12 2 688.93 41
-2 12 -2 511.55 35.5
2 -12 2 522.35 35.3
2 -12 2 579.04 43.9
2 -12 2 558.14 37.6
-3 12 -2 808.02 46.5
3 -12 2 743.83 55.89
3 -12 2 746.43 47.3
3 -12 2 649.74 47.6
-4 12 -2 643.14 38.8
-4 12 -2 624.64 45.7
4 -12 2 498.25 48.6
-5 12 -2 213.88 32.1
-5 12 -2 262.57 20.3
-5 12 -2 217.58 13.7
5 -12 2 305.77 39.5
-6 12 -2 368.96 36.1
-6 12 -2 339.67 25.3
-6 12 -2 335.47 22.5
-6 12 -2 328.37 22.7
6 -12 2 230.78 42.3
-7 12 -2 154.78 18.2
-7 12 -2 187.38 34.9
-7 12 -2 168.68 19.5
-7 12 -2 164.88 18.5
7 -12 2 200.78 38.5
-8 12 -2 115.89 18.8
-8 12 -2 101.09 30.2
-8 12 -2 167.98 24.1
-8 12 -2 152.28 21.4
-9 12 -2 152.38 19.9
-9 12 -2 126.29 23.1
-9 12 -2 40.1 32
-9 12 -2 102.29 19.9
-9 -12 3 48.5 24.2
-8 -12 3 47.2 19.9
-7 -12 3 15 15.6
-7 -12 3 21.8 16.8
-6 -12 3 71.39 15.4
-6 -12 3 31.8 16.4
-5 -12 3 20.4 11.8
-5 -12 3 7.1 12.3
4 12 -3 458.85 36
-4 -12 3 466.85 34.7
-4 -12 3 395.96 31
3 12 -3 418.96 34
-3 -12 3 423.56 32.8
-3 -12 3 442.76 29.9
2 12 -3 344.07 27.9
-2 -12 3 301.77 27
-2 -12 3 338.27 23.9
1 12 -3 116.89 16.5
-1 -12 3 135.39 13.5
-1 -12 3 109.69 16.6
0 12 -3 5.5 8.2
0 -12 3 15.5 7.2
0 -12 3 8.5 9.2
0 -12 3 15.3 11.9
-1 12 -3 10.9 8.7
1 -12 3 12.5 7.7
1 -12 3 21 12.5
1 -12 3 16.1 11.9
-2 12 -3 30.3 8.6
2 -12 3 13.4 9.2
2 -12 3 35.7 14
2 -12 3 40.1 12.1
-3 12 -3 24.3 9.1
3 -12 3 36.4 12
3 -12 3 29.5 17.5
-4 12 -3 26.7 9.2
4 -12 3 34.4 19
-5 12 -3 451.75 31
-5 12 -3 530.55 31.1
-5 12 -3 513.25 34.8
-5 12 -3 560.54 43.2
5 -12 3 500.85 48.9
-6 12 -3 13.9 10.2
-6 12 -3 37.3 18.4
-6 12 -3 20.4 9.4
-6 12 -3 32.9 9.9
6 -12 3 30.1 24.2
-7 12 -3 61.09 14.4
-7 12 -3 93.59 15.4
-7 12 -3 91.19 24
-7 12 -3 82.19 14.8
7 -12 3 97.09 32.7
-8 12 -3 71.79 17.9
-8 12 -3 49.99 26.1
-8 12 -3 37 14.3
-9 12 -3 -4.9 14.6
-9 12 -3 26.7 20.7
-9 12 -3 38.1 20
-9 -12 4 22.6 32
-8 -12 4 10.1 20.3
-7 -12 4 217.58 29.1
-7 -12 4 158.98 24.3
6 12 -4 46.8 14.5
-6 -12 4 63.39 16.7
-6 -12 4 74.59 18.4
5 12 -4 169.38 20.3
5 12 -4 118.49 22.1
-5 -12 4 207.48 24
-5 -12 4 181.48 22.1
4 12 -4 223.68 19.2
4 12 -4 185.48 24.7
-4 -12 4 223.58 24.2
3 12 -4 223.38 17.6
3 12 -4 276.47 25.5
-3 -12 4 229.28 20.8
-3 -12 4 227.48 23.9
2 12 -4 325.57 27.3
-2 -12 4 286.77 26.6
-2 -12 4 313.67 23.8
1 12 -4 158.78 19.8
-1 -12 4 174.88 21.1
-1 -12 4 225.58 18.2
0 12 -4 647.14 41.1
0 -12 4 629.44 44.7
0 -12 4 524.35 41.4
0 -12 4 632.54 39.4
-1 12 -4 156.78 18
1 -12 4 173.78 20.7
1 -12 4 172.68 18.3
1 -12 4 223.58 24.7
-2 12 -4 547.65 35.7
2 -12 4 537.35 42.1
2 -12 4 533.65 36.7
2 -12 4 456.35 37.2
-3 12 -4 967.8 54.39
-3 12 -4 961.1 54.49
-3 12 -4 1019.7 59.49
3 -12 4 897.11 61.09
3 -12 4 995.7 67.69
-4 12 -4 548.15 34.3
-4 12 -4 588.74 38.4
-4 12 -4 550.24 33.6
4 -12 4 554.94 50.19
-5 12 -4 1860.11 104.59
-5 12 -4 1964.1 105.49
-5 12 -4 1925.41 107.69
5 -12 4 1609.74 117.19
-6 12 -4 127.49 17.7
-6 12 -4 108.39 22.7
-6 12 -4 150.58 20.1
-6 12 -4 144.79 19
6 -12 4 69.69 29.2
-7 12 -4 205.78 24.4
-7 12 -4 205.18 36.6
-7 12 -4 202.28 24.8
-7 12 -4 229.78 25.6
7 -12 4 184.08 39.4
-8 12 -4 261.97 43.4
-8 12 -4 264.07 32
-8 12 -4 265.77 32
-8 12 -4 254.17 28.6
-9 12 -4 129.39 33.5
-9 12 -4 100.79 20.5
-9 12 -4 137.79 26.1
-9 12 -4 67.19 24.7
8 12 -5 57.09 22.9
-8 -12 5 11.6 21.8
7 12 -5 162.68 25.3
-7 -12 5 199.38 30.2
6 12 -5 7.3 13.7
6 12 -5 4.7 15.9
-6 -12 5 2.3 15.3
-6 -12 5 31.6 15.4
5 12 -5 11.2 12.5
5 12 -5 10.2 14.1
-5 -12 5 -7.8 13.5
-5 -12 5 13.6 12.4
4 12 -5 11 14
4 12 -5 23.4 10.2
-4 -12 5 17.3 11.4
-4 -12 5 3.2 12.8
3 12 -5 -0.8 11.2
3 12 -5 15.6 8.4
-3 -12 5 7.9 12.4
-3 -12 5 15.1 9.6
2 12 -5 27 11.7
2 12 -5 10.8 7
-2 -12 5 14.5 11.4
-2 -12 5 13.2 9.5
1 12 -5 199.98 21.6
1 12 -5 217.68 16.2
-1 -12 5 224.28 20.6
-1 -12 5 232.58 24.1
0 12 -5 190.48 19.5
0 12 -5 186.08 13.6
0 -12 5 173.68 21.6
0 -12 5 162.08 18.8
0 -12 5 187.88 23.8
-1 12 -5 199.28 20.2
-1 12 -5 212.78 14.5
1 -12 5 192.98 21.1
1 -12 5 173.58 23
1 -12 5 210.78 25.6
-2 12 -5 97.09 10.1
-2 12 -5 107.99 16.7
-2 12 -5 97.89 12.7
2 -12 5 91.69 17.1
2 -12 5 122.19 18.4
2 -12 5 144.09 23.4
-3 12 -5 85.89 13.3
-3 12 -5 91.09 14.5
-3 12 -5 98.09 10.9
3 -12 5 99.09 17.5
3 -12 5 98.09 21.8
-4 12 -5 8.7 7.4
-4 12 -5 6.8 10.8
-4 12 -5 3.4 9.5
4 -12 5 28.5 20.3
-5 12 -5 38.9 12.7
-5 12 -5 3.1 11.2
-5 12 -5 1.2 8.8
5 -12 5 7.4 21.4
-6 12 -5 44.6 15.2
-6 12 -5 89.59 14.4
-6 12 -5 58.19 15.4
6 -12 5 67.99 28
-7 12 -5 0.9 14.2
-7 12 -5 16 19.8
-7 12 -5 13.6 14.9
-7 12 -5 7.5 18
7 -12 5 -4.9 27.5
-8 12 -5 30.3 17.5
-8 12 -5 23.2 20
-8 12 -5 49.3 25.1
-8 12 -5 29.9 19.3
-9 12 -5 9.7 25.9
-9 12 -5 17.4 20.9
-9 12 -5 -17.6 24.7
-9 12 -5 -4.8 27.6
9 12 -6 -39.6 27.5
-8 -12 6 14.2 21.7
7 12 -6 15.4 19.1
-7 -12 6 20.4 18.5
6 12 -6 161.68 25.7
6 12 -6 117.89 23.2
-6 -12 6 146.89 23.4
-6 -12 6 97.09 21.9
5 12 -6 -5.6 14.6
5 12 -6 14.7 13.7
-5 -12 6 18.2 15.8
-5 -12 6 -8.3 13
4 12 -6 36.5 12.6
4 12 -6 45.1 15.1
-4 -12 6 77.39 15.2
-4 -12 6 63.49 17.3
3 12 -6 353.66 26
-3 -12 6 316.47 30.7
-3 -12 6 295.87 26.9
2 12 -6 288.37 22
2 12 -6 263.77 25.5
-2 -12 6 242.78 27.9
1 12 -6 250.47 23.6
1 12 -6 228.28 19.1
-1 -12 6 269.37 26.7
-1 -12 6 226.88 22.6
0 12 -6 70.09 11.2
0 12 -6 92.09 14.9
0 -12 6 93.79 15.2
0 -12 6 78.79 17.5
0 -12 6 109.59 19.3
-1 12 -6 214.78 16.7
-1 12 -6 166.98 20.9
1 -12 6 241.78 25.9
1 -12 6 210.68 22.7
1 -12 6 260.87 27.8
-2 12 -6 304.57 21.2
-2 12 -6 318.87 25.8
-2 12 -6 293.37 23.9
2 -12 6 276.97 32.2
2 -12 6 266.17 31
-3 12 -6 326.67 27.3
-3 12 -6 320.47 26.2
-3 12 -6 337.07 23.4
3 -12 6 332.07 31.4
3 -12 6 280.77 35.3
-4 12 -6 743.43 46.3
-4 12 -6 721.33 46.9
-4 12 -6 656.43 43.2
4 -12 6 621.14 55.39
-5 12 -6 177.58 20.8
-5 12 -6 232.88 23.9
-5 12 -6 217.78 25.3
5 -12 6 148.99 33
-6 12 -6 209.18 24.2
-6 12 -6 183.68 26.3
6 -12 6 230.28 42.1
-7 12 -6 73.49 18.9
-7 12 -6 83.99 21.2
-7 12 -6 92.49 19.4
7 -12 6 -6.8 48.8
-8 12 -6 101.49 28.8
-8 12 -6 86.49 23.9
-8 12 -6 148.69 28.1
-8 12 -6 224.28 32.9
8 12 -7 79.39 27.6
7 12 -7 15.5 21.5
7 12 -7 -31.9 20.3
-7 -12 7 11.7 18.8
6 12 -7 -12.9 16.6
6 12 -7 -4 16.9
-6 -12 7 5.1 18.3
-6 -12 7 25.9 17.3
5 12 -7 33.5 16.2
5 12 -7 66.79 17.8
-5 -12 7 64.29 16.8
-5 -12 7 40.2 18.3
4 12 -7 51.19 16.4
4 12 -7 62.59 14.4
-4 -12 7 77.39 16.3
-4 -12 7 40.7 17.5
3 12 -7 -3.3 10.3
3 12 -7 6.7 11.8
-3 -12 7 -11.6 14.8
-3 -12 7 11.7 12.2
2 12 -7 353.96 26.6
-2 -12 7 364.66 33.2
-2 -12 7 301.97 29.1
1 12 -7 2.9 8.5
1 12 -7 7.3 11.2
-1 -12 7 -7.7 10.8
-1 -12 7 2.7 13.5
0 12 -7 190.88 22.3
0 12 -7 199.28 18.2
0 -12 7 233.48 27.3
0 -12 7 230.48 27.1
0 -12 7 203.48 23.9
-1 12 -7 -5.9 7.2
-1 12 -7 -11.4 10.3
1 -12 7 25.3 13.8
1 -12 7 -8.9 15.1
1 -12 7 4.8 14.6
-2 12 -7 47.6 9.9
-2 12 -7 32.7 12.6
2 -12 7 59.59 19.1
2 -12 7 50.99 16.2
-3 12 -7 -17 10.9
-3 12 -7 2.4 8.6
-3 12 -7 3.6 12.1
3 -12 7 16.7 18.5
3 -12 7 9.1 15.7
-4 12 -7 27.6 14.2
-4 12 -7 11.4 13
-4 12 -7 8.6 10.6
4 -12 7 36 22.2
-5 12 -7 2.5 14.2
-5 12 -7 -0.5 12
5 -12 7 -16.5 24.5
-6 12 -7 160.68 24.2
-6 12 -7 171.08 25.6
6 -12 7 82.59 32
-7 12 -7 136.99 25.1
-7 12 -7 94.79 21.5
-7 12 -7 95.19 24.7
-8 12 -7 16.6 26.4
-8 12 -7 32.6 23.2
-8 12 -7 0.1 30.1
8 12 -8 40 28.6
7 12 -8 90.79 26.6
7 12 -8 88.89 26.2
-7 -12 8 107.49 25.8
6 12 -8 53.69 20.1
6 12 -8 7.4 18.8
-6 -12 8 13.2 18.7
5 12 -8 33.8 17.5
5 12 -8 13.8 16.7
-5 -12 8 43.3 17.9
-5 -12 8 42.2 20.4
4 12 -8 -15.8 12.9
4 12 -8 -0.5 13.1
-4 -12 8 7.9 15.1
-4 -12 8 -17.3 16.7
3 12 -8 22.6 12.7
3 12 -8 1.8 13.2
-3 -12 8 9 16.1
-3 -12 8 -11.3 13.5
2 12 -8 17.4 12.7
2 12 -8 10.2 10.8
-2 -12 8 12.6 13.7
-2 -12 8 11.4 15
1 12 -8 41.8 10.9
1 12 -8 23 12.6
-1 -12 8 27.9 13.8
-1 -12 8 40.9 16.4
0 12 -8 45.6 16.2
0 12 -8 60.49 11.8
0 -12 8 50.99 18
0 -12 8 44.8 14.7
-1 12 -8 238.98 21
1 -12 8 259.87 30.9
1 -12 8 200.48 26.7
-2 12 -8 25 10.1
2 -12 8 21.9 17.3
2 -12 8 35.4 16.7
-3 12 -8 157.58 19.3
3 -12 8 215.88 34.9
3 -12 8 181.88 27.4
-4 12 -8 105.59 20.7
-4 12 -8 104.49 16.5
-4 12 -8 104.99 23.8
4 -12 8 62.99 25.4
-5 12 -8 60.49 20
-5 12 -8 81.79 19.4
-5 12 -8 52.29 15.7
5 -12 8 30.3 27.6
-6 12 -8 58.29 20.2
-6 12 -8 72.49 23.3
-6 12 -8 99.59 19.8
6 -12 8 83.69 31.9
-7 12 -8 516.25 46.6
-7 12 -8 429.16 48.3
-8 12 -8 228.68 36.3
-8 12 -8 249.58 40.7
-8 12 -8 129.39 29.3
7 12 -9 15.6 25.3
7 12 -9 36.1 24.1
6 12 -9 -23.1 19.8
6 12 -9 17.5 21.6
-6 -12 9 20.7 21
5 12 -9 20.5 17.5
5 12 -9 17.5 18.1
-5 -12 9 19.8 23.7
-5 -12 9 10.9 18
4 12 -9 -13.2 14.7
4 12 -9 -20 13.3
-4 -12 9 3.4 19.7
-4 -12 9 21.2 17.7
3 12 -9 29.8 14.7
3 12 -9 47.8 14.7
-3 -12 9 -27.6 17.5
-3 -12 9 52.39 18
2 12 -9 128.99 20.3
2 12 -9 122.39 19.6
-2 -12 9 146.59 22.8
1 12 -9 4 12.9
1 12 -9 8.9 11.4
-1 -12 9 16.2 17.6
-1 -12 9 24.2 15.6
0 12 -9 -13.6 12.1
0 12 -9 26.2 11.5
0 -12 9 -2.3 17.3
0 -12 9 11.4 16
-1 12 -9 13.3 11
-1 12 -9 36.8 14.1
1 -12 9 22.5 16.3
1 -12 9 25.2 17.1
-2 12 -9 21.3 13.8
-2 12 -9 40.1 12.5
2 -12 9 36.5 19.5
2 -12 9 65.99 20.8
-3 12 -9 32.7 15.7
-3 12 -9 31.3 13.3
3 -12 9 62.09 21.8
3 -12 9 43.7 22.1
-4 12 -9 85.49 22.2
-4 12 -9 83.69 17.6
-4 12 -9 85.09 20.1
4 -12 9 90.69 29.1
-5 12 -9 56.59 17.5
-5 12 -9 60.79 20.8
-5 12 -9 106.39 24.8
5 -12 9 64.19 30.8
-6 12 -9 -4 21.3
-6 12 -9 2.8 20.4
-6 12 -9 68.69 25.6
6 -12 9 -54.39 37.7
-7 12 -9 -10.5 27.5
-7 12 -9 -10 21.2
-7 12 -9 46.7 25.4
7 12 -10 28.6 24.7
7 12 -10 -18.2 27.5
6 12 -10 22.8 22
6 12 -10 40.5 24.6
-6 -12 10 21.2 23.3
5 12 -10 45.8 22.2
5 12 -10 87.39 23.1
-5 -12 10 22.8 21.9
4 12 -10 28.1 17.9
4 12 -10 42.3 18.9
-4 -12 10 65.09 20.2
3 12 -10 24.4 15.4
3 12 -10 12.9 14.7
-3 -12 10 35.5 20.5
-3 -12 10 -28.4 16.4
2 12 -10 45 16.5
2 12 -10 87.59 17.5
-2 -12 10 83.09 20.7
1 12 -10 73.19 16.1
1 12 -10 117.49 19.7
-1 -12 10 123.99 23.3
0 12 -10 41.5 14.9
0 12 -10 25.9 14
0 -12 10 67.29 21.1
-1 12 -10 185.38 22.6
-1 12 -10 154.48 25.2
1 -12 10 149.49 27.3
1 -12 10 222.08 32.4
-2 12 -10 43 17
-2 12 -10 44.2 14.5
2 -12 10 33.7 21.9
2 -12 10 39 22.5
-3 12 -10 -10.1 13.4
-3 12 -10 12.7 16.2
3 -12 10 -7.8 22.1
3 -12 10 12.8 21.9
-4 12 -10 10.4 15.1
-4 12 -10 11.4 17.2
4 -12 10 23.7 27.5
-5 12 -10 -9.3 20.8
-5 12 -10 -14.2 22.9
5 -12 10 27 30.4
-6 12 -10 88.99 26.4
-6 12 -10 67.69 22.6
-6 12 -10 25.1 29
-7 12 -10 190.58 33.2
-7 12 -10 219.28 39.3
-7 12 -10 129.69 29.2
6 12 -11 -19.3 24.3
6 12 -11 28.3 22.9
5 12 -11 18.1 20.9
5 12 -11 22.9 22.2
-5 -12 11 28.8 22.5
4 12 -11 46.2 19.2
4 12 -11 15 19.8
-4 -12 11 9.3 21.5
3 12 -11 18.5 17.3
3 12 -11 -18.8 29.1
-3 -12 11 -17.1 18.5
2 12 -11 -3.6 15.4
2 12 -11 6.5 16.7
-2 -12 11 -7.8 18.8
1 12 -11 -16.2 14.2
1 12 -11 30.7 15.3
-1 -12 11 45.1 20.6
0 12 -11 3.6 13.9
0 12 -11 14.1 14.3
0 -12 11 5.6 19.7
0 -12 11 3.6 20.7
-1 12 -11 101.19 18.5
-1 12 -11 104.59 21.9
1 -12 11 111.59 26
1 -12 11 80.39 26.2
-2 12 -11 107.59 21.5
-2 12 -11 85.99 17.9
2 -12 11 92.29 26.8
2 -12 11 100.59 26.9
-3 12 -11 64.19 20.3
-3 12 -11 19.7 18.9
3 -12 11 10.2 26.5
3 -12 11 59.99 26
-4 12 -11 66.99 22.7
-4 12 -11 45.7 19.6
4 -12 11 64.89 30.9
-5 12 -11 54.29 29
-5 12 -11 1.2 22.9
-5 12 -11 7.4 20.1
-6 12 -11 54.19 27.9
-6 12 -11 107.29 25.8
-6 12 -11 52.99 32.2
5 12 -12 36.2 22.1
5 12 -12 37.1 24.8
4 12 -12 3.2 21.5
4 12 -12 -29.3 18.8
-4 -12 12 3.2 23.3
3 12 -12 63.79 21.8
3 12 -12 42.8 20.6
-3 -12 12 35.8 24.6
2 12 -12 -35.5 16.7
2 12 -12 10.4 18.4
-2 -12 12 40.5 23.1
1 12 -12 14.5 16.6
1 12 -12 10.8 16.3
-1 -12 12 -25 21.5
0 12 -12 2.6 18.4
0 12 -12 24.5 16.6
0 -12 12 26.9 23.8
0 -12 12 13.6 22.5
-1 12 -12 22.2 17.2
-1 12 -12 -11.8 17.6
1 -12 12 35.2 24.2
1 -12 12 6.5 24
-2 12 -12 61.49 18.3
-2 12 -12 27.2 20.7
2 -12 12 45.1 28.1
2 -12 12 34.5 27.8
-3 12 -12 85.29 21.5
-3 12 -12 109.99 23.7
3 -12 12 57.89 31.2
3 -12 12 60.59 29.9
-4 12 -12 -14.1 19.6
-4 12 -12 44.5 24.7
4 -12 12 4.4 39.1
-5 12 -12 -31.3 25
-5 12 -12 -26.2 22.1
4 12 -13 0.9 23.9
4 12 -13 37.5 23.3
3 12 -13 40 21.6
3 12 -13 -9.7 21.2
2 12 -13 42 21.5
2 12 -13 17 19.9
-2 -12 13 -9.1 25.7
1 12 -13 12.5 18.7
1 12 -13 -5.6 18.8
-1 -12 13 -22.2 25.4
0 12 -13 37.1 19.7
0 12 -13 -26.7 18.3
0 -12 13 -62.69 25.6
-1 12 -13 76.29 23.1
-1 12 -13 43.3 20.8
1 -12 13 33.7 29
-2 12 -13 5.6 22.1
-2 12 -13 11.9 19.1
2 -12 13 -41 30.6
2 -12 13 -2.2 33
-3 12 -13 18.7 20.9
-3 12 -13 18.1 24.1
-4 12 -13 32.7 26.4
-4 12 -13 30.2 23.5
3 12 -14 45.1 25
3 12 -14 45.6 27.2
2 12 -14 0.9 22.8
2 12 -14 -1.5 24.2
1 12 -14 53.79 23.7
1 12 -14 20.3 23.4
0 12 -14 52.09 22.8
0 12 -14 21.4 22.3
-1 12 -14 60.49 24.5
-1 12 -14 25.2 22.5
-2 12 -14 -27.3 24
-2 12 -14 19.8 23.6
0 -13 -14 297.77 34.2
-3 -13 -13 40.7 24.2
-2 -13 -13 62.39 24.7
-3 13 13 10.4 21.2
3 -13 -13 11.3 17.2
3 -13 -13 -14.8 13.5
-4 -13 -12 145.79 28.4
2 -13 -12 90.59 20.5
-3 13 12 21.5 20.1
-4 13 12 50.19 25.9
4 -13 -12 71.39 12.2
4 -13 -12 109.09 23.8
-3 -13 -11 -7.9 20.2
-2 -13 -11 19.1 15.5
-1 -13 -11 31.9 14.7
0 -13 -11 13.8 12.7
1 -13 -11 23.7 15
1 -13 -11 13.5 14.1
-2 13 11 27.1 16
2 -13 -11 8.1 12.4
-3 13 11 24.7 19.5
-4 13 11 37.3 27.2
-5 13 11 17.6 27
5 -13 -11 35 19.5
-2 -13 -10 218.28 25.5
-1 -13 -10 347.67 29.2
0 -13 -10 419.56 35.8
0 -13 -10 414.26 36.1
1 -13 -10 404.36 34.3
1 -13 -10 466.75 32.2
-2 13 10 562.64 40.9
2 -13 -10 485.55 34.9
2 -13 -10 423.26 37.4
-3 13 10 129.69 23.6
3 -13 -10 108.69 18.8
3 -13 -10 124.49 16.3
4 -13 -10 78.09 15.7
-5 13 10 74.19 28.2
-6 13 10 10 28.9
6 -13 -10 54.49 22
-7 -13 -9 111.29 31.1
-6 -13 -9 21.7 24.3
-4 -13 -9 2.3 10.3
-3 -13 -9 35.7 12.2
-2 -13 -9 -0.1 11.9
-2 -13 -9 6.6 12.1
-1 -13 -9 89.79 18.4
-1 -13 -9 61.89 15.2
-1 -13 -9 72.09 16.5
0 -13 -9 26.6 9.8
0 -13 -9 40.6 13.6
0 -13 -9 0.9 15.2
1 -13 -9 62.19 15
1 -13 -9 65.79 13
1 -13 -9 30.4 18.2
-2 13 9 132.59 25.4
2 -13 -9 181.58 33
2 -13 -9 163.48 18.8
-3 13 9 24.8 17.7
3 -13 -9 15.4 8.3
3 -13 -9 19.5 10.4
-4 13 9 272.17 43.4
4 -13 -9 242.78 24.1
-5 13 9 10.3 23.8
5 -13 -9 41.5 19.1
-6 13 9 15.5 28
-7 13 9 -17.2 32.9
-7 -13 -8 60.69 27.5
-6 -13 -8 146.59 28.3
-5 -13 -8 136.99 19.8
-5 -13 -8 147.49 27.6
-4 -13 -8 169.68 27.4
-4 -13 -8 183.08 21.4
-3 -13 -8 74.29 19.7
-3 -13 -8 84.29 14.8
-2 -13 -8 312.77 30.2
-2 -13 -8 395.66 33.3
-1 -13 -8 189.48 19
-1 -13 -8 201.38 25.7
-1 -13 -8 205.58 26
0 -13 -8 165.68 15.9
0 -13 -8 169.78 21.7
0 -13 -8 140.99 25.9
1 -13 -8 186.58 29.4
1 -13 -8 231.78 18
1 -13 -8 250.97 22.5
-2 13 8 45.8 15.2
2 -13 -8 53.99 11.2
2 -13 -8 32.1 20.1
2 -13 -8 55.79 9.6
-3 13 8 86.89 20.1
3 -13 -8 87.29 14.3
3 -13 -8 99.99 12.5
3 -13 -8 46.5 23
-4 13 8 341.27 36.8
4 -13 -8 318.17 21.3
4 -13 -8 372.06 27.6
-5 13 8 265.97 39.9
5 -13 -8 218.78 25.6
-6 13 8 319.47 47
-7 13 8 241.08 42.2
-8 -13 -7 -9.3 29.5
-7 -13 -7 42.9 24.6
-6 -13 -7 96.79 16.2
-6 -13 -7 100.69 23.6
-6 -13 -7 83.89 24.9
-5 -13 -7 20.3 19.7
-5 -13 -7 12.6 11.8
-4 -13 -7 45 12.4
-4 -13 -7 27.6 18.1
-3 -13 -7 12.8 11.9
-3 -13 -7 16.2 15.3
-2 -13 -7 56.69 16.3
-2 -13 -7 57.59 15.3
-1 -13 -7 90.09 17.4
-1 -13 -7 111.59 17.2
0 -13 -7 14.9 10.6
0 -13 -7 -4 6.2
0 -13 -7 -5.7 13.6
1 -13 -7 9.3 5.5
1 -13 -7 5.6 9.2
1 -13 -7 14.2 16
-2 13 7 -4.7 12.8
2 -13 -7 2.7 6
2 -13 -7 5 7.9
2 -13 -7 6.4 17.3
-3 13 7 37.5 17.7
3 -13 -7 41.6 8.2
3 -13 -7 44.6 8.9
3 -13 -7 65.09 22.7
-4 13 7 89.09 21.9
4 -13 -7 39.4 24
4 -13 -7 73.59 9.4
4 -13 -7 71.99 12.8
-5 13 7 7.1 19.9
5 -13 -7 -36.5 26.6
5 -13 -7 37.4 13.7
-6 13 7 89.89 29.4
6 -13 -7 72.29 18.8
-7 13 7 18.7 31.2
-8 13 7 4.8 34.2
-8 -13 -6 131.59 30
-7 -13 -6 66.69 24.3
-6 -13 -6 -16.7 19.6
-6 -13 -6 -8 18.2
-5 -13 -6 14.3 11.7
-5 -13 -6 5.8 18.1
-5 -13 -6 20.3 15.3
-4 -13 -6 -21 10.5
-4 -13 -6 26.8 17.1
-3 -13 -6 154.08 25.7
-3 -13 -6 119.99 19.9
-2 -13 -6 187.88 23
-2 -13 -6 185.28 23.1
-1 -13 -6 43.4 13.1
-1 -13 -6 45.5 15.3
0 -13 -6 222.58 27
0 -13 -6 207.38 24
1 -13 -6 74.89 12.4
-2 13 6 138.59 22.1
2 -13 -6 102.39 10.2
2 -13 -6 62.69 20.1
2 -13 -6 107.99 13.7
-3 13 6 570.84 45.1
3 -13 -6 567.44 35.3
3 -13 -6 557.14 35.1
3 -13 -6 583.54 50.99
-4 13 6 256.97 32.9
4 -13 -6 236.68 36.7
4 -13 -6 231.18 21.3
4 -13 -6 233.98 21.3
-5 13 6 553.54 46.8
5 -13 -6 440.96 51.19
5 -13 -6 503.75 36.8
-6 13 6 170.38 32.4
6 -13 -6 215.98 27.7
6 -13 -6 144.09 36
-7 13 6 41.6 27.6
-8 13 6 131.09 36.8
8 -13 -6 175.18 29.9
-8 -13 -5 0 25.6
-7 -13 -5 7.9 20.8
-6 -13 -5 33.9 18
-6 -13 -5 26 19
-5 -13 -5 -8.5 15.2
-5 -13 -5 2.4 14.5
-4 -13 -5 8.4 14.7
-4 -13 -5 -15.2 10.9
-4 -13 -5 4 10.6
-3 -13 -5 112.49 18.8
-3 -13 -5 91.19 16.5
-2 -13 -5 50.69 13.7
-2 -13 -5 25.6 12.8
-1 -13 -5 4.1 12.4
-1 -13 -5 -7.7 9
0 -13 -5 39.8 10.3
0 -13 -5 24 13.7
1 -13 -5 40.8 9.6
1 -13 -5 34.4 20.1
1 -13 -5 35.5 5.1
2 -13 -5 4.4 7
2 -13 -5 8.3 4.6
2 -13 -5 4.7 15.8
-3 13 5 -5.7 13.9
3 -13 -5 -1.6 6.1
3 -13 -5 34.8 18.9
3 -13 -5 3.4 6.6
-4 13 5 10.8 16.6
4 -13 -5 -22.5 20
4 -13 -5 4 8.9
-5 13 5 332.87 37.7
5 -13 -5 375.56 47.4
5 -13 -5 324.37 28.4
6 -13 -5 317.37 31.3
6 -13 -5 311.17 48.3
-7 13 5 25.7 26.1
7 -13 -5 39.4 20.9
-8 13 5 143.79 37.4
8 -13 -5 103.99 28.8
-8 -13 -4 19.9 24.6
-7 -13 -4 15.5 19.4
-6 -13 -4 45.3 18.6
-6 -13 -4 56.09 18.6
-5 -13 -4 4.7 14.7
-5 -13 -4 23.6 13.5
-4 -13 -4 126.89 19
-4 -13 -4 137.89 21.8
-3 -13 -4 288.87 26.2
-3 -13 -4 268.57 27.2
-3 -13 -4 280.97 22.5
-2 -13 -4 54.29 13.9
-2 -13 -4 62.29 13.9
-1 -13 -4 253.47 26.6
-1 -13 -4 308.27 24.4
0 -13 -4 84.29 17.1
0 -13 -4 95.89 14.8
1 -13 -4 13.2 14
1 -13 -4 6.2 7.6
2 -13 -4 351.56 21.5
2 -13 -4 383.36 25.5
2 -13 -4 313.97 36.3
-3 13 4 204.78 25.3
3 -13 -4 172.38 32.6
3 -13 -4 182.58 16.5
3 -13 -4 193.48 15.7
-4 13 4 647.74 46.1
4 -13 -4 540.15 36.2
4 -13 -4 533.65 34
4 -13 -4 475.45 51.99
-5 13 4 152.28 25.9
5 -13 -4 92.09 29.5
5 -13 -4 119.99 19.3
-6 13 4 350.56 43.6
6 -13 -4 336.67 32.5
6 -13 -4 413.86 49.6
-7 13 4 483.65 55.29
7 -13 -4 507.85 61.39
-8 13 4 352.96 52.59
-9 -13 -3 57.79 30
-8 -13 -3 7.1 23.4
-7 -13 -3 46.8 19.9
-6 -13 -3 52.59 17.8
-5 -13 -3 75.99 17.8
-5 -13 -3 55.99 14.8
-4 -13 -3 49.4 13
-4 -13 -3 54.29 14.9
-3 -13 -3 375.76 31.5
-3 -13 -3 383.06 32.2
-3 -13 -3 421.06 28.1
-2 -13 -3 -7 9.8
-2 -13 -3 8.5 9.8
-2 -13 -3 -3.9 5.6
-1 -13 -3 75.39 15.8
-1 -13 -3 69.09 13.3
0 -13 -3 3.2 7.5
1 -13 -3 59.79 17.6
1 -13 -3 61.89 11
2 -13 -3 5.1 7.3
2 -13 -3 20.2 15.3
-3 13 3 17 13.4
3 -13 -3 15 18.2
3 -13 -3 29.2 8.3
3 -13 -3 9.8 6.8
-4 13 3 18.1 16.1
4 -13 -3 17.8 7.4
4 -13 -3 29.4 21
4 -13 -3 11.2 9.3
-5 13 3 52.69 19.4
5 -13 -3 22.3 11.7
5 -13 -3 1.8 23.8
-6 13 3 5.2 20
6 -13 -3 -3.8 13.3
6 -13 -3 -24.7 25.3
-7 13 3 76.09 28.7
7 -13 -3 129.29 36.5
-8 13 3 15.2 29
8 -13 -3 47.7 32.4
-9 13 3 -35.2 35.1
9 -13 -3 -10.6 31
-9 -13 -2 17.9 27.5
-8 -13 -2 10.6 21.6
-7 -13 -2 35.2 19.4
-6 -13 -2 171.48 25.7
-5 -13 -2 9.6 12.2
-5 -13 -2 -1.2 14.1
-4 -13 -2 31.3 10.2
-4 -13 -2 -2.5 12.5
-3 -13 -2 332.67 24.4
-3 -13 -2 330.27 28.5
-2 -13 -2 0.2 9.6
-2 -13 -2 0 5.7
-1 -13 -2 101.59 14.5
-1 -13 -2 68.19 7.8
-1 -13 -2 77.19 24.2
0 -13 -2 40.7 9.8
0 -13 -2 39.4 14.4
1 -13 -2 31.2 16
1 -13 -2 42.7 4.6
1 -13 -2 48.4 10.1
1 -13 -2 41.4 6.3
2 -13 -2 8.6 15.1
2 -13 -2 10.2 7.8
-3 13 2 23.7 13.5
3 -13 -2 12.4 8.5
3 -13 -2 18.2 7.5
3 -13 -2 -17.7 15.8
-4 13 2 71.69 18.6
4 -13 -2 64.89 10.8
4 -13 -2 78.89 12.7
4 -13 -2 49.9 23.2
-5 13 2 65.69 20.4
5 -13 -2 52.69 24
5 -13 -2 31.7 13
-6 13 2 30.5 21.7
6 -13 -2 42.8 15.3
6 -13 -2 32.3 26.2
-7 13 2 217.98 35
7 -13 -2 172.68 38.3
-8 13 2 152.18 36.6
8 -13 -2 240.18 35.4
-9 13 2 138.69 37.4
-9 -13 -1 89.79 28.6
-8 -13 -1 56.19 23.8
-7 -13 -1 4.5 17.2
-6 -13 -1 19.3 14.3
-5 -13 -1 20.8 12.6
-5 -13 -1 56.69 15.3
-4 -13 -1 119.09 17.3
-4 -13 -1 160.28 21
-3 -13 -1 76.29 11.2
-3 -13 -1 65.19 14.2
-2 -13 -1 19.8 11.2
-2 -13 -1 24.9 11
-2 -13 -1 19.5 6.7
-1 -13 -1 27.1 9.7
-1 -13 -1 11.5 4.8
-1 -13 -1 14.3 11
0 -13 -1 104.99 19.8
0 -13 -1 109.29 15.4
0 -13 -1 123.69 8.9
1 -13 -1 46.8 6.7
1 -13 -1 24.2 15.2
1 -13 -1 51.09 10.6
-2 13 1 36.1 10
2 -13 -1 60.69 9.6
2 -13 -1 46.8 16.9
2 -13 -1 43.9 10.4
-3 13 1 186.08 17.9
3 -13 -1 196.48 18.5
3 -13 -1 176.88 29.9
-4 13 1 59.09 18
-4 13 1 75.39 12.8
4 -13 -1 78.39 13.4
4 -13 -1 66.59 23.3
-5 13 1 80.89 12
-5 13 1 86.79 21.8
5 -13 -1 75.69 15.4
5 -13 -1 85.69 26.4
-6 13 1 92.39 23.4
6 -13 -1 89.59 29
-7 13 1 53.29 24.5
-8 13 1 58.99 29.7
-9 13 1 57.79 35.2
-9 -13 0 57.29 28.3
-8 -13 0 -9.2 19.6
-7 -13 0 78.39 20.1
-6 -13 0 74.39 17.2
-5 -13 0 120.39 19.6
-5 -13 0 85.79 18.3
-4 -13 0 56.89 14
-4 -13 0 45.7 11.8
-3 -13 0 104.59 14.6
-3 -13 0 141.79 18.6
-2 -13 0 192.38 14.8
-2 -13 0 133.19 18.6
1 13 0 91.99 15.3
-1 -13 0 107.69 15.6
-1 -13 0 116.49 18.7
-1 -13 0 114.49 11.1
0 13 0 4.8 8.9
0 -13 0 3 11.8
0 -13 0 8.1 4.1
-1 13 0 119.69 16.2
1 -13 0 94.59 10.5
1 -13 0 119.29 14.7
1 -13 0 122.59 21.5
-2 13 0 165.58 17.8
2 -13 0 193.48 26.7
2 -13 0 169.48 18.5
2 -13 0 165.18 15.2
-3 13 0 121.09 15.1
3 -13 0 94.29 16.2
3 -13 0 87.49 22.2
-4 13 0 44 16.2
-4 13 0 41.8 9.5
4 -13 0 47.7 22.2
-5 13 0 123.79 23.5
-5 13 0 115.29 14.6
5 -13 0 56.79 25.5
-6 13 0 36.9 9.1
-6 13 0 49 19.9
6 -13 0 -11.2 25.4
-7 13 0 37.5 8.7
-7 13 0 48.9 23.2
-8 13 0 5.6 25.7
-8 13 0 -0.7 4.9
-8 13 0 7.5 6.8
-9 13 0 59.39 33.7
-9 -13 1 62.69 27.9
-8 -13 1 55.49 22.6
-7 -13 1 58.29 18.1
-7 -13 1 -11.7 19.2
-6 -13 1 65.99 16.3
-5 -13 1 68.29 16.6
-5 -13 1 100.19 16.6
-4 -13 1 95.39 15.8
-4 -13 1 83.89 16.8
-3 -13 1 173.18 21
-3 -13 1 206.08 17.8
2 13 -1 43.3 12.9
-2 -13 1 49.99 12.1
-2 -13 1 52.29 8.7
1 13 -1 44.1 12.1
-1 -13 1 44.4 7.7
-1 -13 1 61.49 13
-1 -13 1 47.8 13.7
0 13 -1 123.89 16.9
0 -13 1 132.79 21.2
0 -13 1 144.19 12.5
0 -13 1 144.59 16.8
-1 13 -1 12.1 8.8
1 -13 1 -2.3 13
1 -13 1 4.7 9.2
1 -13 1 15.8 6.5
-2 13 -1 15.3 8.4
2 -13 1 22.7 10
2 -13 1 33.8 15
2 -13 1 21 8.6
-3 13 -1 67.59 11.3
3 -13 1 68.69 20.3
3 -13 1 64.99 13.7
-4 13 -1 129.79 15
4 -13 1 78.19 24.3
-5 13 -1 6.5 16.2
-5 13 -1 12.3 8.7
5 -13 1 47.1 25.5
-6 13 -1 23.8 9.1
-6 13 -1 29.6 18.6
-7 13 -1 -4.8 8.7
-7 13 -1 -8.5 20.2
-8 13 -1 65.99 10.6
-8 13 -1 43.5 10.9
-8 13 -1 56.59 11.4
-8 13 -1 102.49 28.6
-9 13 -1 109.19 35.5
-9 -13 2 90.19 29.7
-8 -13 2 174.28 28.3
-7 -13 2 178.78 25.9
-6 -13 2 26.7 24.5
-6 -13 2 22.5 15
-5 -13 2 35.8 13.2
-5 -13 2 38.9 15.5
-4 -13 2 76.39 16.7
-4 -13 2 74.59 13.4
3 13 -2 1.2 11.9
-3 -13 2 -4.9 7.6
-3 -13 2 14.4 11.1
2 13 -2 6.1 10.1
-2 -13 2 13.9 7
-2 -13 2 14.8 10.2
1 13 -2 45.5 12.8
-1 -13 2 22 11
-1 -13 2 41.2 8.1
-1 -13 2 33.3 13.1
0 13 -2 37.9 10.8
0 -13 2 47.4 11.9
0 -13 2 36.4 8
0 -13 2 33.1 14.3
-1 13 -2 60.59 12.2
1 -13 2 75.59 11.8
1 -13 2 62.09 16.5
1 -13 2 89.19 17.1
-2 13 -2 20.1 9.9
2 -13 2 7.7 8.3
2 -13 2 11.6 10.7
2 -13 2 20.4 14.5
-3 13 -2 265.67 22.9
3 -13 2 304.77 25.2
3 -13 2 255.47 33.6
3 -13 2 287.87 26.3
-4 13 -2 6.7 8.7
4 -13 2 2.3 18.9
-5 13 -2 9.8 15.4
-5 13 -2 12.8 9.2
5 -13 2 2.8 22.9
-6 13 -2 182.48 33.1
-6 13 -2 151.08 18.4
-7 13 -2 62.29 23.1
-7 13 -2 51.69 11.9
-7 13 -2 40.3 8.7
-7 13 -2 50.19 9.4
-8 13 -2 45.3 12.4
-8 13 -2 27.4 12.8
-8 13 -2 14.8 24
-8 13 -2 33.1 12.4
-9 13 -2 66.39 23.7
-9 13 -2 70.89 17.1
-9 13 -2 30.3 31.5
-9 13 -2 21.6 16.6
-8 -13 3 -6.8 20.6
-7 -13 3 89.19 21.2
-6 -13 3 -5.8 14.8
-6 -13 3 17.1 14.4
-5 -13 3 14.1 14.1
-5 -13 3 28.9 13.5
4 13 -3 11 14
-4 -13 3 12.4 10.1
-4 -13 3 7 12.8
3 13 -3 14.8 12.7
-3 -13 3 27.5 9.4
-3 -13 3 27.5 11.5
2 13 -3 -6.7 10
-2 -13 3 7.6 7.6
-2 -13 3 11.2 11.2
1 13 -3 72.09 14.2
-1 -13 3 69.09 13.7
-1 -13 3 57.89 10.1
0 13 -3 -7.9 8.7
0 -13 3 9 7.5
0 -13 3 -3.5 11
0 -13 3 11 12.3
-1 13 -3 76.09 13.3
1 -13 3 76.99 12.3
1 -13 3 71.69 14.7
1 -13 3 74.69 18.3
-2 13 -3 1.2 8.8
2 -13 3 7.2 15.1
2 -13 3 -15.5 10.1
2 -13 3 15.5 9.7
-3 13 -3 410.96 29.7
3 -13 3 401.26 39.4
3 -13 3 375.96 31.5
-4 13 -3 47.1 11.2
4 -13 3 29.3 21
-5 13 -3 33 11.1
5 -13 3 60.39 25.3
-6 13 -3 68.19 10.6
-6 13 -3 24.8 20.2
-6 13 -3 80.09 12.8
-6 13 -3 49.1 12.7
6 -13 3 48.5 28.2
-7 13 -3 26 23.9
-7 13 -3 43.9 13.4
-7 13 -3 48.8 11.6
-7 13 -3 46.9 11.2
-8 13 -3 6.2 27.5
-8 13 -3 13.3 13.8
-8 13 -3 45.1 14.8
-8 13 -3 16.3 14.4
-9 13 -3 77.19 28.3
-9 13 -3 36.9 31.5
-9 13 -3 73.29 17.3
-9 13 -3 47.3 21.8
-8 -13 4 345.37 40.7
-7 -13 4 539.85 44.9
-6 -13 4 420.26 38.2
-6 -13 4 408.06 35.6
5 13 -4 61.59 19.4
-5 -13 4 22.5 15.3
-5 -13 4 101.79 16.7
4 13 -4 618.94 44.3
-4 -13 4 556.54 42.5
-4 -13 4 539.35 39.2
-3 -13 4 229.28 24.2
-3 -13 4 158.48 19.1
2 13 -4 413.86 32.9
-2 -13 4 372.16 31.5
-2 -13 4 354.86 27.7
1 13 -4 7.7 10.2
-1 -13 4 9.3 11
-1 -13 4 -3.2 8.2
0 13 -4 127.19 17.2
0 -13 4 111.59 20.6
0 -13 4 96.29 15.5
0 -13 4 122.29 19
-1 13 -4 295.57 24.5
1 -13 4 295.57 30.4
1 -13 4 300.27 24.6
1 -13 4 227.88 27.6
-2 13 -4 69.89 13.5
2 -13 4 67.19 14.3
2 -13 4 67.19 16.3
2 -13 4 101.09 21.6
-3 13 -4 263.17 23.6
3 -13 4 270.97 27.1
3 -13 4 290.57 34.3
-4 13 -4 134.49 17.7
4 -13 4 155.38 29
-5 13 -4 20.4 11.3
-5 13 -4 4.4 6.3
-5 13 -4 -3.1 7.4
5 -13 4 18.1 24.2
-6 13 -4 47.7 11.3
-6 13 -4 68.79 14.5
-6 13 -4 49.1 10.3
6 -13 4 9.6 29.7
-7 13 -4 0.2 21.2
-7 13 -4 36.7 12.6
-7 13 -4 20.5 13.6
-7 13 -4 13.9 13.8
-8 13 -4 23.6 15.6
-8 13 -4 1.2 16.3
-8 -13 5 135.79 28.6
7 13 -5 46.7 18.7
-7 -13 5 1.9 18
6 13 -5 403.26 39.1
6 13 -5 412.06 34.1
-6 -13 5 283.07 36.1
-6 -13 5 410.76 36.1
5 13 -5 348.17 28.3
5 13 -5 335.47 34.1
-5 -13 5 365.76 30.7
-5 -13 5 233.38 30.9
4 13 -5 26.7 10.4
4 13 -5 21.1 14.4
-4 -13 5 18.4 11.7
-4 -13 5 10.5 14.3
3 13 -5 -7.1 7.6
3 13 -5 4.6 11.8
-3 -13 5 2.6 11.6
-3 -13 5 26.2 13.6
2 13 -5 13.7 11.8
2 13 -5 -0.9 8.5
-2 -13 5 0.6 9.5
-2 -13 5 -16 12.8
1 13 -5 19.6 11.7
-1 -13 5 39.1 11.6
-1 -13 5 32.8 14.3
0 13 -5 14.3 11.1
0 -13 5 18 14.5
0 -13 5 13.1 13.4
0 -13 5 43.1 12
-1 13 -5 -10.5 8.9
1 -13 5 0.9 11
1 -13 5 -28.1 14.2
1 -13 5 13.4 13.9
-2 13 -5 44.9 12.2
2 -13 5 54.59 16.9
2 -13 5 58.19 19.3
2 -13 5 44.4 14.6
-3 13 -5 91.29 9.5
-3 13 -5 122.59 18.5
3 -13 5 103.29 24
-4 13 -5 11.8 7.9
-4 13 -5 -5.3 11.3
-4 13 -5 5.6 6.3
4 -13 5 3.6 21.1
-5 13 -5 11.1 8.4
-5 13 -5 13.5 10.2
-5 13 -5 34.9 13
5 -13 5 1.4 23.1
-6 13 -5 21.5 13
-6 13 -5 11.6 11.1
-6 13 -5 41.2 14.9
6 -13 5 65.49 30
-7 13 -5 26.7 14.2
-7 13 -5 9.7 15.1
-7 13 -5 9.6 15.1
-8 13 -5 -9.8 16.8
-8 13 -5 44.6 20.7
-8 13 -5 21.5 18.2
-8 13 -5 -14.9 25.6
8 13 -6 144.79 28.7
-8 -13 6 83.19 25.8
7 13 -6 38.1 21
-7 -13 6 38.5 21.5
6 13 -6 183.58 29.5
6 13 -6 230.28 28.9
-6 -13 6 167.58 28.2
5 13 -6 477.65 43.2
5 13 -6 525.85 39.2
-5 -13 6 514.75 39.5
-5 -13 6 548.15 43.6
4 13 -6 290.97 30.4
4 13 -6 267.67 25.1
-4 -13 6 265.57 26.7
3 13 -6 562.84 37
3 13 -6 558.54 42.5
-3 -13 6 529.05 43
2 13 -6 111.39 14.3
2 13 -6 91.89 18
-2 -13 6 123.59 20.4
-2 -13 6 100.29 16.7
1 13 -6 47.3 14.8
1 13 -6 62.49 9.9
-1 -13 6 54.79 21.7
-1 -13 6 85.89 18.2
0 13 -6 209.18 23.2
0 13 -6 236.78 17.5
0 -13 6 217.98 27.4
0 -13 6 252.07 28.7
0 -13 6 213.78 23.6
-1 13 -6 66.39 10
-1 13 -6 47.1 13.5
-1 13 -6 58.19 8.5
1 -13 6 78.19 18.1
1 -13 6 72.79 22.1
1 -13 6 62.09 19.3
-2 13 -6 221.68 24
-2 13 -6 213.68 16.8
-2 13 -6 229.38 19.3
2 -13 6 247.18 30.9
2 -13 6 180.18 25.1
-3 13 -6 138.19 17.5
-3 13 -6 148.69 14.1
-3 13 -6 128.49 19.6
3 -13 6 135.19 27.6
3 -13 6 153.18 22.9
-4 13 -6 11.5 11.4
-4 13 -6 26.6 12.7
-4 13 -6 1.6 8.1
4 -13 6 4.3 22.2
-5 13 -6 10.3 10.3
-5 13 -6 4.4 13.7
-5 13 -6 -1.1 12.5
5 -13 6 25.4 26.2
-6 13 -6 -5.3 15.3
-6 13 -6 12.5 15.3
-6 13 -6 -17.8 12.1
6 -13 6 63.39 31.1
-7 13 -6 6.4 18.5
-7 13 -6 43 19
-7 13 -6 20 15.6
-8 13 -6 28.8 20.3
-8 13 -6 67.69 26.4
-8 13 -6 100.49 25.3
8 13 -7 59.49 27.5
7 13 -7 15.5 23.2
7 13 -7 35.5 22.5
-7 -13 7 -1.2 21.5
6 13 -7 72.99 23.6
6 13 -7 91.69 21.8
-6 -13 7 74.99 21.7
5 13 -7 13 15.8
5 13 -7 -5.9 16.9
-5 -13 7 39.3 18.1
-5 -13 7 30.6 18.8
4 13 -7 52.19 15.2
4 13 -7 58.19 17.9
-4 -13 7 64.79 17.6
3 13 -7 38.2 12.3
3 13 -7 14.9 14.5
-3 -13 7 31.9 15.3
-3 -13 7 -1.4 14.5
2 13 -7 10.7 9.8
2 13 -7 8.7 12.6
-2 -13 7 22.5 15.8
-2 -13 7 4.2 12.7
1 13 -7 -5 10.7
1 13 -7 7.9 8.8
-1 -13 7 -8.2 15.1
-1 -13 7 20.1 12.3
0 13 -7 -10.7 15.8
0 13 -7 11.2 8.3
0 -13 7 15.5 12.7
0 -13 7 -10.9 15.2
0 -13 7 -7 14.3
-1 13 -7 99.19 13.8
1 -13 7 96.09 21.8
1 -13 7 148.39 26.6
1 -13 7 93.89 18.7
-2 13 -7 69.49 15.9
-2 13 -7 65.99 10.8
-2 13 -7 59.29 13.5
2 -13 7 89.19 22.7
2 -13 7 72.59 18.1
-3 13 -7 7.9 12.9
-3 13 -7 27.5 13.1
-3 13 -7 20.5 9
3 -13 7 -9.9 18.3
3 -13 7 10.2 16.9
-4 13 -7 14.6 14.1
-4 13 -7 39.7 11.2
4 -13 7 17.8 24.2
-5 13 -7 21.2 18.7
-5 13 -7 38 16.6
-5 13 -7 6 12.1
5 -13 7 29.7 26.3
-6 13 -7 106.19 21.6
-6 13 -7 69.19 20.7
-6 13 -7 76.39 17.6
-7 13 -7 22.1 22.3
-7 13 -7 9.4 19.3
-7 13 -7 33 17.7
-8 13 -7 48.4 22.8
-8 13 -7 76.19 27.9
-8 13 -7 36.1 23
7 13 -8 216.28 34.2
-7 -13 8 221.08 36.6
6 13 -8 284.57 37.2
6 13 -8 274.47 36.5
-6 -13 8 300.27 37.1
5 13 -8 221.18 29.7
5 13 -8 254.87 32.3
-5 -13 8 213.88 31.3
4 13 -8 315.17 34
4 13 -8 343.77 31.9
-4 -13 8 374.46 35
3 13 -8 98.29 16.4
3 13 -8 96.19 19.3
-3 -13 8 84.99 19.4
2 13 -8 78.89 16.4
2 13 -8 45.1 13.1
-2 -13 8 98.19 18
-2 -13 8 6.1 17.4
1 13 -8 319.07 29.1
1 13 -8 268.07 24.5
-1 -13 8 301.67 28.8
-1 -13 8 272.67 33.1
0 13 -8 152.08 18.5
0 13 -8 202.48 23.9
0 -13 8 183.78 28.9
0 -13 8 126.79 25
0 -13 8 164.28 26.1
-1 13 -8 247.28 26.5
-1 13 -8 221.48 21
1 -13 8 235.08 32.5
1 -13 8 266.17 30.6
-2 13 -8 370.86 32.8
-2 13 -8 339.67 27.4
2 -13 8 396.96 40.3
2 -13 8 401.76 37.4
-3 13 -8 54.89 12.7
-3 13 -8 37.7 16.3
-3 13 -8 62.09 16.7
3 -13 8 45.8 22.9
3 -13 8 65.19 21.2
-4 13 -8 193.78 22.3
-4 13 -8 142.69 24.8
-4 13 -8 188.88 26.3
4 -13 8 172.38 33.3
-5 13 -8 155.78 24.7
-5 13 -8 135.89 22.9
-5 13 -8 196.18 27.3
5 -13 8 83.29 34
-6 13 -8 230.18 34.7
-6 13 -8 117.59 21.7
-6 13 -8 134.19 24.7
-7 13 -8 91.79 22.6
-7 13 -8 142.99 28.6
-7 13 -8 58.49 25.7
7 13 -9 -27.1 25.9
7 13 -9 84.09 28.8
6 13 -9 17.5 21
-6 -13 9 1 22.8
5 13 -9 28.1 19.4
5 13 -9 19.9 19.6
-5 -13 9 22.5 21
4 13 -9 223.38 29.5
4 13 -9 163.68 27.3
-4 -13 9 187.18 31.3
3 13 -9 32.1 16.2
3 13 -9 6.7 14
-3 -13 9 65.99 17.8
2 13 -9 210.88 26.8
2 13 -9 186.38 24.3
-2 -13 9 221.68 29.4
1 13 -9 58.39 16.2
1 13 -9 41.5 13.2
-1 -13 9 5.9 19.1
-1 -13 9 54.19 18.1
0 13 -9 22.3 11.6
0 13 -9 -1.8 14
0 -13 9 41.8 19.7
0 -13 9 12.2 17.4
0 -13 9 2.5 18.7
-1 13 -9 50.29 16.5
-1 13 -9 53.19 12.9
1 -13 9 63.59 20.5
1 -13 9 58.39 22.6
-2 13 -9 1.4 14.3
-2 13 -9 -14.6 10.8
2 -13 9 15.7 20.2
2 -13 9 -3.1 18.8
-3 13 -9 49.2 13.5
-3 13 -9 46 17.9
3 -13 9 53.69 23.5
3 -13 9 74.09 27.4
-4 13 -9 0.2 16.9
-4 13 -9 -2.7 18.8
-4 13 -9 14.8 14
4 -13 9 8.6 26.7
-5 13 -9 20.2 21.1
-5 13 -9 -1.3 15.7
-5 13 -9 48.1 19
-6 13 -9 43.2 26.6
-6 13 -9 -7.4 20.3
-6 13 -9 -10.2 18.2
-7 13 -9 -6.5 29.2
-7 13 -9 -2.1 25.2
-7 13 -9 58.29 23.7
6 13 -10 31.4 25.6
6 13 -10 38.3 26.1
5 13 -10 74.69 23.6
-5 -13 10 -15 22.1
4 13 -10 68.99 20.2
4 13 -10 43.1 19.7
-4 -13 10 73.29 22.3
3 13 -10 175.08 27.8
3 13 -10 122.99 21.8
-3 -13 10 138.19 26.7
2 13 -10 499.15 42.4
2 13 -10 582.24 40.7
-2 -13 10 449.56 43.9
1 13 -10 478.35 38.7
1 13 -10 401.56 33.9
-1 -13 10 400.86 41.5
0 13 -10 468.75 39.2
0 13 -10 431.56 35
0 -13 10 471.85 41.9
0 -13 10 446.46 44.8
-1 13 -10 409.46 35.8
-1 13 -10 412.86 31.8
1 -13 10 365.66 42.1
1 -13 10 278.67 37.7
-2 13 -10 227.38 25.3
-2 13 -10 250.87 31.8
2 -13 10 212.38 38.6
2 -13 10 180.18 30.4
-3 13 -10 296.17 29.3
-3 13 -10 229.68 32.5
3 -13 10 290.67 39.3
3 -13 10 348.87 43.8
-4 13 -10 27.1 22.3
-4 13 -10 14.4 18.9
-4 13 -10 10 16.4
4 -13 10 -6.2 33.1
-5 13 -10 124.89 26.2
-5 13 -10 101.59 29.7
-5 13 -10 86.59 21.5
-6 13 -10 105.39 27.7
-6 13 -10 135.09 25.6
-6 13 -10 91.49 32.1
5 13 -11 -15.2 22.6
5 13 -11 23.5 24
4 13 -11 23.1 20.4
4 13 -11 14.9 21.1
-4 -13 11 -1 23.7
3 13 -11 18.9 19.7
3 13 -11 81.39 21.8
-3 -13 11 73.49 23.1
2 13 -11 13.5 17.2
2 13 -11 -1 17.3
-2 -13 11 16.6 21.8
1 13 -11 9.7 16.4
1 13 -11 4.8 15.5
-1 -13 11 13.4 20.9
0 13 -11 16.5 17.7
0 13 -11 26.4 15.1
0 -13 11 44.5 25.3
0 -13 11 41.5 22.9
-1 13 -11 24.7 15.8
-1 13 -11 25.9 18.4
1 -13 11 21.8 24.1
1 -13 11 -6.5 22.6
-2 13 -11 38.6 16.4
-2 13 -11 -1.8 17.8
2 -13 11 4.5 23.9
2 -13 11 35.4 25.3
-3 13 -11 -16.1 18.8
-3 13 -11 -4.5 16.1
3 -13 11 -26.2 26.4
-4 13 -11 44.8 24.6
-5 13 -11 -25.6 28.2
-5 13 -11 30.5 25.4
-5 13 -11 39.8 21.8
4 13 -12 24.6 23.3
4 13 -12 76.09 25.6
3 13 -12 83.19 22.7
3 13 -12 72.79 23.2
-3 -13 12 61.49 26.1
2 13 -12 99.89 22.8
2 13 -12 74.79 22
-2 -13 12 66.09 28.6
1 13 -12 374.46 38.8
1 13 -12 399.26 37.5
-1 -13 12 305.37 45
0 13 -12 68.69 22.5
0 -13 12 99.89 28.4
-1 13 -12 247.18 36.2
-1 13 -12 192.58 33.1
1 -13 12 266.97 40.5
-2 13 -12 128.49 23
-2 13 -12 152.78 27.6
2 -13 12 111.79 33.5
-3 13 -12 332.37 36.5
-3 13 -12 297.07 38.9
3 -13 12 318.67 46.5
-4 13 -12 82.19 23.2
-4 13 -12 71.89 27.7
3 13 -13 25.4 23.1
3 13 -13 42.8 25.2
2 13 -13 27.1 22.5
2 13 -13 11.7 21.9
1 13 -13 5.3 21.5
1 13 -13 28.7 22
0 13 -13 149.19 27.7
0 13 -13 135.89 25.8
-1 13 -13 54.59 24.7
-1 13 -13 13.7 21
-2 13 -13 99.49 28
-2 13 -13 106.59 24.6
-3 13 -13 32.9 22.6
-3 13 -13 32.5 26.2
0 13 -14 302.87 42
0 13 -14 322.07 41.6
0 -14 -13 -1 19.4
1 -14 -13 11.6 20.5
-2 -14 -12 42.9 27.9
-1 -14 -12 8.1 24.9
0 -14 -12 82.39 22
1 -14 -12 49.4 20.8
2 -14 -12 10.3 14.4
-3 14 12 19.5 21.8
3 -14 -12 16.5 16.1
3 -14 -12 22.9 13
-1 -14 -11 13 19.8
0 -14 -11 42.7 19
1 -14 -11 -3.9 14.8
-3 14 11 -14.8 19.2
3 -14 -11 12 15.8
-4 14 11 45.9 25.9
-5 14 11 38.2 30.7
5 -14 -11 21.7 18.9
-4 -14 -10 -2.6 24.9
-4 -14 -10 20.7 11.8
-3 -14 -10 30 11.8
-3 -14 -10 -9 20.7
-2 -14 -10 91.49 16.8
-1 -14 -10 92.59 21.6
-1 -14 -10 75.69 23.8
-1 -14 -10 73.79 17.5
0 -14 -10 26.9 17.8
0 -14 -10 24.1 16.4
0 -14 -10 23.6 12.7
1 -14 -10 6 14.4
1 -14 -10 -27.6 12.6
2 -14 -10 36.4 12.5
-3 14 10 11.6 19.3
-4 14 10 -45.4 21
-5 14 10 23.6 27.6
-5 -14 -9 41.9 17.2
-4 -14 -9 13.6 12.7
-4 -14 -9 20.9 22.3
-3 -14 -9 17.9 13.8
-3 -14 -9 8.3 19.4
-2 -14 -9 35.1 15
-2 -14 -9 36.1 16
-2 -14 -9 56.89 19.3
-1 -14 -9 38.6 16.7
-1 -14 -9 19.3 15.4
0 -14 -9 34.4 12.1
0 -14 -9 33.5 17.6
0 -14 -9 40.1 15.6
1 -14 -9 110.59 18.3
1 -14 -9 44.3 21.9
1 -14 -9 85.29 15.7
2 -14 -9 16.1 10.6
2 -14 -9 42.5 23.2
-3 14 9 45.9 20.7
3 -14 -9 51.49 12.6
3 -14 -9 29 10
-4 14 9 17.7 21.8
-5 14 9 44.8 26
-6 14 9 31.3 30.2
6 -14 -9 10.4 19.6
-5 -14 -8 177.38 30.5
-4 -14 -8 29.8 21.5
-4 -14 -8 26.2 14.1
-3 -14 -8 328.47 29.9
-3 -14 -8 251.97 33.6
-2 -14 -8 275.67 31.3
-2 -14 -8 190.78 27
-1 -14 -8 269.97 29.3
-1 -14 -8 250.47 30.6
-1 -14 -8 221.18 20.9
0 -14 -8 158.98 23.3
0 -14 -8 196.38 30.4
0 -14 -8 176.98 16.3
1 -14 -8 65.09 20.1
1 -14 -8 50.99 9.2
2 -14 -8 14 9.3
2 -14 -8 10 7.8
2 -14 -8 24.8 20.9
-3 14 8 64.59 20.5
3 -14 -8 20.2 23.8
3 -14 -8 33.3 9
-4 14 8 -22.5 19.5
4 -14 -8 14.3 12.8
-5 14 8 4.4 22.9
-6 14 8 -4.8 27
-7 14 8 58.69 33.4
-7 -14 -7 6.7 24.5
-6 -14 -7 87.19 24.5
-6 -14 -7 92.39 19
-5 -14 -7 18.4 20.1
-5 -14 -7 29.2 13.5
-5 -14 -7 20.8 21.6
-4 -14 -7 8.4 18.6
-4 -14 -7 17.8 13.3
-3 -14 -7 49 15.5
-3 -14 -7 31.5 18.1
-2 -14 -7 -11.7 14
-2 -14 -7 13.4 16
-1 -14 -7 410.76 38.5
-1 -14 -7 497.25 37.1
0 -14 -7 9.9 16.7
0 -14 -7 16.9 6.8
0 -14 -7 3.1 10.8
1 -14 -7 48.7 7.5
1 -14 -7 41.9 19.5
1 -14 -7 64.29 12.4
2 -14 -7 192.18 18.2
2 -14 -7 144.09 28.4
2 -14 -7 155.98 14.4
-3 14 7 46.3 18.3
3 -14 -7 37.3 9.1
3 -14 -7 57.89 23.1
-4 14 7 -30.4 18.7
4 -14 -7 15.2 10.7
4 -14 -7 14.7 25.8
-5 14 7 67.59 24.7
5 -14 -7 3.9 30.8
5 -14 -7 18.3 13.6
-6 14 7 -22 24.8
-7 14 7 -35.6 29
7 -14 -7 39 22.2
-7 -14 -6 66.79 25.7
-6 -14 -6 97.49 22.4
-5 -14 -6 39.1 15.8
-5 -14 -6 80.29 19
-5 -14 -6 91.09 22.8
-4 -14 -6 152.08 22.6
-4 -14 -6 147.29 23.5
-4 -14 -6 183.58 28.5
-3 -14 -6 338.27 31.9
-3 -14 -6 354.06 33.5
-2 -14 -6 15.4 13.6
-2 -14 -6 8.9 13.8
-1 -14 -6 189.48 27.6
-1 -14 -6 287.67 24.9
0 -14 -6 80.39 14.8
1 -14 -6 51.59 11.3
1 -14 -6 26.4 17.6
2 -14 -6 175.68 17.7
2 -14 -6 156.38 28.1
2 -14 -6 170.98 13.2
-3 14 6 197.88 26.4
3 -14 -6 174.48 16.4
3 -14 -6 150.08 31.2
3 -14 -6 153.08 15.3
-4 14 6 40.5 19.3
4 -14 -6 26.9 7.7
4 -14 -6 33.4 25.1
-5 14 6 -22.6 22.1
5 -14 -6 15.2 27.9
5 -14 -6 19.1 12.7
-6 14 6 31.9 25.4
6 -14 -6 15.3 23.9
6 -14 -6 -64.29 28.2
-7 14 6 -37.5 29.4
7 -14 -6 6.5 21.5
-8 -14 -5 42.5 27.6
-7 -14 -5 12.6 21.3
-6 -14 -5 119.49 26
-6 -14 -5 121.89 24.1
-5 -14 -5 53.69 17.8
-5 -14 -5 66.69 21.5
-4 -14 -5 -8.8 13
-4 -14 -5 12.7 16.3
-4 -14 -5 26.6 12.3
-3 -14 -5 211.88 25.1
-3 -14 -5 137.09 23
-2 -14 -5 8.4 12
-2 -14 -5 -7.2 12.3
-1 -14 -5 12.4 17
-1 -14 -5 29.2 12.7
0 -14 -5 20.2 15.7
0 -14 -5 28.2 10.9
1 -14 -5 161.18 10.4
1 -14 -5 148.49 26.3
1 -14 -5 171.38 17.7
2 -14 -5 -2.9 7.7
2 -14 -5 50.49 20.3
-3 14 5 12.4 15.2
3 -14 -5 6.6 7
3 -14 -5 21 22.8
3 -14 -5 14.4 8.1
-4 14 5 72.99 20.6
4 -14 -5 62.49 9.7
4 -14 -5 62.59 12
4 -14 -5 46 24.1
-5 14 5 20.5 21.7
5 -14 -5 13.6 12.5
5 -14 -5 91.39 31.3
-6 14 5 5.5 23.7
6 -14 -5 17.7 31.3
6 -14 -5 -10.9 15.1
-7 14 5 7.2 28
-8 14 5 -14.9 33.1
-8 -14 -4 81.89 28.2
-7 -14 -4 121.59 26
-6 -14 -4 145.29 26.9
-6 -14 -4 187.58 29.2
-5 -14 -4 461.05 38.1
-5 -14 -4 502.15 42.5
-4 -14 -4 547.65 42.2
-4 -14 -4 581.64 44.8
-4 -14 -4 609.04 40.5
-3 -14 -4 101.19 16.1
-3 -14 -4 137.19 22.1
-2 -14 -4 156.88 20.6
-1 -14 -4 149.59 19.4
-1 -14 -4 120.79 21.8
0 -14 -4 219.28 29.5
0 -14 -4 246.08 22.2
1 -14 -4 484.05 43.2
1 -14 -4 484.95 33.4
2 -14 -4 294.77 23.2
2 -14 -4 296.17 36.3
-3 14 4 147.49 23.9
3 -14 -4 127.59 15.1
3 -14 -4 106.69 13.2
3 -14 -4 88.19 25.6
-4 14 4 232.58 30.8
4 -14 -4 235.18 19.4
4 -14 -4 226.18 21.2
4 -14 -4 278.37 38.9
-5 14 4 35.8 22
5 -14 -4 30.1 29.4
5 -14 -4 58.29 14
-6 14 4 138.19 28.9
6 -14 -4 88.39 32.7
6 -14 -4 76.59 19
-7 14 4 142.59 32.5
-8 14 4 -63.59 29.5
8 -14 -4 -2.1 23.6
-8 -14 -3 7.2 24.8
-7 -14 -3 52.49 21.4
-6 -14 -3 27.4 17
-6 -14 -3 -1.7 22.5
-5 -14 -3 273.07 27.9
-5 -14 -3 263.87 31.4
-4 -14 -3 169.48 20.4
-4 -14 -3 159.18 25.5
-3 -14 -3 72.29 11.7
-3 -14 -3 57.49 16.4
-3 -14 -3 50.39 15.2
-2 -14 -3 520.85 39.6
-2 -14 -3 510.65 31.9
-2 -14 -3 487.65 37.1
-1 -14 -3 -2.9 4.3
-1 -14 -3 0.5 9.4
-1 -14 -3 32.9 14
0 -14 -3 72.29 18.2
0 -14 -3 45.7 11.3
1 -14 -3 9.6 8.7
1 -14 -3 45.7 18
2 -14 -3 62.29 11.6
2 -14 -3 70.59 22.1
-3 14 3 70.19 18.1
3 -14 -3 66.79 23.8
3 -14 -3 63.69 10.4
3 -14 -3 103.49 14.4
-4 14 3 33.2 16.6
4 -14 -3 25.4 10.4
4 -14 -3 23.2 24.7
4 -14 -3 1.8 8.3
-5 14 3 27.7 19.5
5 -14 -3 -4.3 27.4
5 -14 -3 9.4 12.6
-6 14 3 61.69 23.9
6 -14 -3 28.8 16.4
6 -14 -3 2.1 30.1
-7 14 3 66.99 28.8
7 -14 -3 40.1 40.4
-8 14 3 126.09 34.8
8 -14 -3 98.89 27.3
-8 -14 -2 173.68 30.6
-7 -14 -2 266.77 34.8
-6 -14 -2 166.58 23.7
-5 -14 -2 180.98 26.2
-5 -14 -2 164.48 23.6
-4 -14 -2 735.23 50.59
-4 -14 -2 692.53 46.5
-3 -14 -2 217.78 25.5
-3 -14 -2 188.48 23.7
-3 -14 -2 194.38 18.5
-2 -14 -2 661.93 44.2
-2 -14 -2 625.04 46.5
-1 -14 -2 393.66 23.7
-1 -14 -2 369.46 33
-1 -14 -2 387.96 30.3
0 -14 -2 607.64 42.4
0 -14 -2 681.03 36.2
0 -14 -2 622.94 48.5
1 -14 -2 672.23 37.6
1 -14 -2 713.33 43.4
1 -14 -2 580.64 49.6
2 -14 -2 350.06 37.4
2 -14 -2 348.77 27.7
2 -14 -2 392.36 24.3
3 -14 -2 285.07 21.2
3 -14 -2 251.87 35.9
3 -14 -2 245.18 22.6
-4 14 2 68.29 19.8
4 -14 -2 51.09 11.1
4 -14 -2 59.89 26.1
4 -14 -2 58.39 13
-5 14 2 261.57 35.9
5 -14 -2 226.18 25.6
5 -14 -2 250.47 41.8
-6 14 2 207.38 37.8
6 -14 -2 173.48 25.1
6 -14 -2 168.18 37.9
-7 14 2 4.7 23.9
7 -14 -2 36.4 20.6
7 -14 -2 8.7 34.7
-8 14 2 117.29 34.4
-8 -14 -1 -10.5 23.1
-7 -14 -1 104.59 21.4
-6 -14 -1 44.9 16.9
-5 -14 -1 16 12.6
-5 -14 -1 25.1 15
-4 -14 -1 271.97 23.1
-4 -14 -1 200.18 26.3
-3 -14 -1 55.69 10.7
-3 -14 -1 87.39 16.7
-2 -14 -1 12.1 6.7
-2 -14 -1 23.5 11.5
-2 -14 -1 7.9 12.5
-1 -14 -1 44.2 7.6
-1 -14 -1 49.8 15.3
-1 -14 -1 60.39 13.5
0 -14 -1 31.1 15.5
0 -14 -1 35.7 11
0 -14 -1 29.6 4.9
1 -14 -1 9.1 8.9
1 -14 -1 21.3 5.5
1 -14 -1 24.8 14.9
2 -14 -1 7.2 16.5
2 -14 -1 -20.7 8.2
-3 14 1 368.76 27.3
3 -14 -1 350.36 27.7
3 -14 -1 348.67 39.8
-4 14 1 16.3 9.1
-4 14 1 7.7 15.6
4 -14 -1 6.5 21.6
-5 14 1 159.68 28.7
5 -14 -1 111.49 30.4
-6 14 1 14.3 20.4
6 -14 -1 -3.3 28.1
-7 14 1 31 26
-8 14 1 118.09 33.1
-8 -14 0 69.79 25.3
-7 -14 0 211.28 31.1
-6 -14 0 339.17 32.8
-5 -14 0 275.27 27.3
-5 -14 0 334.17 31.6
-4 -14 0 126.59 17.5
-4 -14 0 109.39 18.6
-3 -14 0 294.97 27.4
-3 -14 0 290.37 22.8
-2 -14 0 271.17 28.8
-2 -14 0 284.27 20.7
-2 -14 0 330.37 26.7
-1 -14 0 10.9 12.9
-1 -14 0 34.1 6.6
-1 -14 0 21.2 10.6
0 14 0 44.9 12.8
0 -14 0 63.79 8.6
0 -14 0 76.19 18.4
0 -14 0 76.89 13.1
-1 14 0 14.8 11.1
1 -14 0 17.2 15.3
-2 14 0 267.77 24.1
2 -14 0 259.47 32.7
2 -14 0 290.57 25.3
2 -14 0 314.27 21.8
-3 14 0 222.68 21
3 -14 0 223.08 23.1
3 -14 0 200.28 35.3
-4 14 0 121.09 15.6
4 -14 0 70.19 25.3
-5 14 0 316.87 24.3
-5 14 0 357.26 36.7
5 -14 0 227.18 41.6
-6 14 0 319.67 39.3
-6 14 0 314.57 24.1
-7 14 0 195.08 34.6
-7 14 0 206.28 18.2
-8 14 0 60.99 31.1
-8 14 0 40.1 8.2
-8 -14 1 73.19 24.1
-7 -14 1 -3.5 18.1
-6 -14 1 -4.9 14.2
-5 -14 1 17.8 15.5
-5 -14 1 81.19 19.4
-4 -14 1 21.9 13.6
-4 -14 1 8.8 10.3
-3 -14 1 348.67 31.8
-3 -14 1 409.36 27.7
2 14 -1 -19 11.2
-2 -14 1 6.1 11.3
-2 -14 1 9.9 6.6
1 14 -1 8.2 10.9
-1 -14 1 5.5 13.2
-1 -14 1 27.8 11.4
-1 -14 1 22.4 6.9
0 14 -1 18 12.5
0 -14 1 52.09 15.7
0 -14 1 49.9 11.9
0 -14 1 32.9 7.5
-1 14 -1 57.19 13.2
1 -14 1 45.4 8.7
1 -14 1 21.8 17.2
1 -14 1 39.8 13
-2 14 -1 -14.7 8.9
2 -14 1 8.5 8.4
2 -14 1 -5.3 10.8
2 -14 1 0.2 16.1
-3 14 -1 61.09 12.1
3 -14 1 51.99 13.6
3 -14 1 50.09 21.5
-4 14 -1 244.58 21.6
4 -14 1 187.98 35.9
-5 14 -1 61.29 11.7
-5 14 -1 32.2 18.7
5 -14 1 47.5 24.4
-6 14 -1 27.2 10.5
-6 14 -1 49.7 21.5
-7 14 -1 63.39 12.1
-7 14 -1 78.09 27.5
-8 14 -1 16.7 27.5
-8 14 -1 22.7 10.4
-8 -14 2 99.89 26.9
-7 -14 2 53.29 19.1
-6 -14 2 151.88 22.3
-5 -14 2 249.48 25.7
-4 -14 2 58.49 16.9
-4 -14 2 78.19 13.7
3 14 -2 210.58 40.7
-3 -14 2 213.98 25
-3 -14 2 245.88 20.8
2 14 -2 390.06 33
-2 -14 2 399.26 32.1
-2 -14 2 380.56 26.9
1 14 -2 624.74 46.7
-1 -14 2 639.24 42
-1 -14 2 722.33 50.29
-1 -14 2 786.72 47.4
0 14 -2 649.24 43.7
0 -14 2 613.84 43.7
0 -14 2 631.24 47.8
0 -14 2 647.44 39.6
-1 14 -2 424.26 32.3
1 -14 2 408.66 28.7
1 -14 2 416.66 33
1 -14 2 396.76 37.3
-2 14 -2 626.44 40.4
2 -14 2 568.84 47.5
2 -14 2 586.04 38.7
2 -14 2 523.35 41.4
-3 14 -2 207.78 21.1
3 -14 2 183.68 32.6
-4 14 -2 742.43 45.7
4 -14 2 614.94 58.19
-5 14 -2 142.39 19
-6 14 -2 175.48 20.1
-6 14 -2 149.69 28
-7 14 -2 197.48 22.7
-7 14 -2 254.37 38.7
-8 14 -2 166.28 22.4
-8 14 -2 274.97 44.5
-8 -14 3 135.29 26.8
-7 -14 3 124.19 23.4
-6 -14 3 39.7 16.8
-5 -14 3 15.5 12.8
4 14 -3 -12.6 14.2
-4 -14 3 7.7 14.3
3 14 -3 84.19 17.3
-3 -14 3 94.59 17.4
-3 -14 3 45.2 11.9
2 14 -3 29 14.1
-2 -14 3 46.2 14.4
-2 -14 3 63.09 11.6
1 14 -3 20.8 12.1
-1 -14 3 6.7 13.7
-1 -14 3 6.8 11.8
-1 -14 3 28 9.3
0 14 -3 99.09 16.3
0 -14 3 85.89 16.5
0 -14 3 63.69 17.4
0 -14 3 66.19 11.8
-1 14 -3 2.7 9.9
1 -14 3 -15.6 11.3
1 -14 3 -10.4 14.2
1 -14 3 10.3 9.4
-2 14 -3 498.25 34.9
2 -14 3 484.65 43.3
2 -14 3 465.15 34.6
2 -14 3 474.75 37
-3 14 -3 45.3 12.3
3 -14 3 65.99 22.6
3 -14 3 61.39 15.3
3 -14 3 41.1 14.6
4 -14 3 24.2 23.3
-5 14 -3 293.57 26
-6 14 -3 49.7 20.4
-6 14 -3 15.2 12.5
-7 14 -3 0.9 8.9
-7 14 -3 29.6 23.3
-7 14 -3 -4.7 12.6
-8 14 -3 20.2 18.3
-8 14 -3 -10.8 26.9
-8 14 -3 29.8 15.2
-8 -14 4 50.49 23.3
-7 -14 4 76.09 21.5
-6 -14 4 124.09 22.2
5 14 -4 40.9 19.2
-5 -14 4 13.7 13.9
4 14 -4 301.67 30.8
-4 -14 4 217.08 24.2
3 14 -4 118.39 20.2
-3 -14 4 106.99 17.6
-3 -14 4 123.79 19.7
-2 -14 4 281.17 28.4
-2 -14 4 264.67 23.6
1 14 -4 573.14 39.4
-1 -14 4 425.56 37.8
-1 -14 4 481.25 34.3
-1 -14 4 499.85 41
0 14 -4 184.98 22.8
0 -14 4 284.27 30.3
0 -14 4 215.38 21.4
0 -14 4 237.28 25.6
-1 14 -4 135.39 18.9
1 -14 4 145.99 22.1
1 -14 4 148.89 19.6
1 -14 4 171.08 27.5
-2 14 -4 156.48 19.7
2 -14 4 165.58 28.7
2 -14 4 178.18 23.5
2 -14 4 167.68 22.1
-3 14 -4 108.09 16.6
3 -14 4 146.69 22.6
3 -14 4 83.49 26.2
-4 14 -4 520.45 36.8
4 -14 4 499.35 50.09
-5 14 -4 518.15 35.8
5 -14 4 336.27 53.59
-6 14 -4 213.08 24.7
-7 14 -4 116.89 19.5
-7 14 -4 161.68 31.4
-7 14 -4 154.48 17.9
-7 14 -4 115.99 16.8
-8 14 -4 96.39 30.4
-8 14 -4 66.49 24.1
-8 14 -4 65.99 18.6
-8 14 -4 49.4 18.9
-8 -14 5 -21.6 23.4
-7 -14 5 41 20.8
-6 -14 5 21.8 17.4
5 14 -5 11.5 16.8
-5 -14 5 -12.6 13.7
4 14 -5 72.59 19.2
-4 -14 5 89.19 16.1
3 14 -5 8.6 14.6
-3 -14 5 2.2 11.5
-3 -14 5 -10.6 14.6
2 14 -5 15.2 13.9
-2 -14 5 19 13.7
-2 -14 5 22.5 15.1
-1 -14 5 204.18 25.8
-1 -14 5 182.28 21.3
0 14 -5 15.7 12.8
0 -14 5 22.2 16
0 -14 5 -6.4 11.1
0 -14 5 11.4 14.2
-1 14 -5 34.5 12.2
1 -14 5 21.7 12.3
1 -14 5 22.1 15.1
1 -14 5 35.7 18
-2 14 -5 -5.7 11.6
2 -14 5 9.5 17.9
2 -14 5 18.9 15.2
2 -14 5 -2.1 13.3
-3 14 -5 134.69 21.7
3 -14 5 117.29 27
3 -14 5 203.68 25.5
-4 14 -5 13.9 13.1
4 -14 5 27.4 24.5
-5 14 -5 65.29 10.4
-5 14 -5 44 15.3
5 -14 5 8 27.7
-6 14 -5 117.69 15.8
-6 14 -5 78.49 17.9
-6 14 -5 132.49 18.3
-7 14 -5 10 12.9
-7 14 -5 50.09 17.8
-7 14 -5 49.6 15.4
-8 14 -5 -3.6 18.5
7 14 -6 8.2 19.8
-7 -14 6 0.3 21.7
6 14 -6 -11.3 16.5
6 14 -6 8.6 20.7
-6 -14 6 18.1 19.5
5 14 -6 14.1 17.4
5 14 -6 -20.7 13.2
-5 -14 6 32.8 16.9
4 14 -6 12.8 15.2
4 14 -6 22.3 11.8
-4 -14 6 13.3 14.4
3 14 -6 178.48 25.8
3 14 -6 132.19 17.2
-3 -14 6 224.28 23.8
2 14 -6 173.08 24.2
2 14 -6 162.88 14.7
-2 -14 6 130.49 21.8
-2 -14 6 193.08 26.9
1 14 -6 64.19 15.3
-1 -14 6 47.1 17.7
-1 -14 6 59.29 14.4
0 14 -6 69.09 16.3
0 -14 6 68.49 20.8
0 -14 6 67.39 16.6
0 -14 6 66.69 18.7
1 -14 6 243.28 27.2
1 -14 6 284.57 31.1
1 -14 6 228.18 32.9
-2 14 -6 -7.4 11.6
-2 14 -6 -1.5 4.4
2 -14 6 30.6 20.2
2 -14 6 13.5 15.7
-3 14 -6 431.56 25.3
-3 14 -6 380.96 34.1
3 -14 6 344.17 36
3 -14 6 412.46 44
-4 14 -6 136.09 22.3
-4 14 -6 176.68 15.4
-4 14 -6 145.59 17.2
4 -14 6 167.18 32.8
-5 14 -6 59.59 13.5
-5 14 -6 109.69 20.4
-5 14 -6 66.69 11.2
5 -14 6 8.2 27.6
-6 14 -6 99.69 38.5
-6 14 -6 155.38 20.4
-6 14 -6 182.18 24.8
-7 14 -6 64.69 20.6
-7 14 -6 37.8 16.1
-7 14 -6 46.3 19.5
7 14 -7 -9.2 22.5
-7 -14 7 14.2 23.9
6 14 -7 40.2 22.1
6 14 -7 17.8 19
-6 -14 7 25.5 19.8
5 14 -7 24.4 16.5
5 14 -7 -23.4 17.8
-5 -14 7 39.1 18.1
4 14 -7 10.2 17.3
4 14 -7 1.6 13.1
-4 -14 7 3.1 15.6
3 14 -7 51.79 12.8
3 14 -7 47.9 18
-3 -14 7 22.9 15
2 14 -7 177.08 18.6
2 14 -7 149.09 22.7
-2 -14 7 207.98 24.1
-2 -14 7 105.79 23.2
1 14 -7 55.59 16.2
1 14 -7 37.6 9.9
-1 -14 7 57.79 19.9
-1 -14 7 31.1 14.5
0 14 -7 10.8 8.1
0 14 -7 15.4 13.8
0 -14 7 -28.9 17.4
0 -14 7 21.6 18.1
0 -14 7 46.7 15.2
-1 14 -7 477.95 28.9
-1 14 -7 420.06 30.4
-1 14 -7 486.55 36.4
1 -14 7 331.27 39.6
1 -14 7 414.06 37.7
1 -14 7 446.66 42.8
-2 14 -7 -1.4 7.4
-2 14 -7 15.3 10.2
-2 14 -7 17.4 13.1
2 -14 7 9.9 19.2
2 -14 7 3 16.2
-3 14 -7 48.4 13.3
-3 14 -7 58.49 10.4
-3 14 -7 34.9 16.4
3 -14 7 66.99 25
3 -14 7 73.39 20.6
-4 14 -7 22.5 13.7
-4 14 -7 1.1 15.3
-4 14 -7 -16.7 9.2
4 -14 7 -14.4 24.4
-5 14 -7 -28.2 10.9
-5 14 -7 -6 14.8
-5 14 -7 13 17.3
-6 14 -7 110.09 17.7
-6 14 -7 120.79 24.7
-6 14 -7 90.79 23.2
-7 14 -7 2.7 21.1
-7 14 -7 -4.1 16.9
-7 14 -7 -12.1 20.2
7 14 -8 21.1 25.5
7 14 -8 4.1 26.4
6 14 -8 12.5 23.3
6 14 -8 51.19 22.3
-6 -14 8 41.8 22.3
5 14 -8 24.1 20
5 14 -8 21.9 17.7
-5 -14 8 7.9 18.5
4 14 -8 1.3 14.9
4 14 -8 -37.4 16.6
-4 -14 8 -23.5 16.9
3 14 -8 52.89 14.6
3 14 -8 17.5 16.9
-3 -14 8 47.6 18
2 14 -8 19.3 15.1
2 14 -8 -11.1 11
-2 -14 8 11.1 15.9
-2 -14 8 -6 18.9
1 14 -8 60.29 12.4
1 14 -8 40.2 16
-1 -14 8 57.39 17.6
-1 -14 8 87.19 22.5
0 14 -8 226.28 20.2
0 14 -8 173.38 25.5
0 -14 8 205.38 31.4
0 -14 8 177.38 32.8
0 -14 8 184.38 28.2
-1 14 -8 266.37 28.9
-1 14 -8 271.87 22.7
1 -14 8 240.28 36.3
1 -14 8 296.87 32.4
-2 14 -8 244.98 29.9
-2 14 -8 275.67 26.5
-2 14 -8 222.28 22.1
2 -14 8 306.97 34.4
2 -14 8 278.27 38.4
-3 14 -8 264.07 23.7
-3 14 -8 283.07 31.8
-3 14 -8 267.67 29.1
3 -14 8 250.07 34.1
3 -14 8 328.67 44.5
-4 14 -8 50.99 17.8
-4 14 -8 37.1 12.6
-4 14 -8 34.9 16.7
4 -14 8 -8.6 30.3
-5 14 -8 137.69 19.5
-5 14 -8 161.38 25.9
-6 14 -8 49.2 17.2
-6 14 -8 21.9 20.7
-6 14 -8 21.1 22.2
6 14 -9 -23.9 25.2
6 14 -9 28 24.1
-6 -14 9 -22.2 38.6
5 14 -9 -35.5 18.8
5 14 -9 11.3 21.2
-5 -14 9 -14.7 22.1
4 14 -9 34.9 17.9
4 14 -9 44.1 20.3
-4 -14 9 7.5 20.6
3 14 -9 26.1 18.5
3 14 -9 78.19 17.7
-3 -14 9 75.39 19.8
2 14 -9 10.7 15.5
2 14 -9 2.5 13.4
-2 -14 9 -23.2 17.7
1 14 -9 65.79 14.6
1 14 -9 90.89 19.2
-1 -14 9 67.99 21.2
-1 -14 9 73.39 23.5
0 14 -9 19.3 16.2
0 14 -9 22.4 12.2
0 -14 9 60.19 22.8
0 -14 9 -21 20.5
0 -14 9 52.49 22.1
-1 14 -9 4.5 15.9
-1 14 -9 9.6 11.8
1 -14 9 45.6 22.4
1 -14 9 45.7 23.6
-2 14 -9 44.6 18.3
-2 14 -9 27.7 12.9
2 -14 9 25 23.8
2 -14 9 45.2 21.9
-3 14 -9 30 17.5
-3 14 -9 15.2 12.6
3 -14 9 17.1 25.9
3 -14 9 -6.4 24.1
-4 14 -9 12.7 14
-4 14 -9 -10.8 19.2
-4 14 -9 8 19.1
-5 14 -9 -0.9 16
-5 14 -9 1.4 22.3
-5 14 -9 -0.5 22.8
-6 14 -9 5.9 18.9
-6 14 -9 6 23.8
-6 14 -9 33.3 26.8
5 14 -10 32.3 24.3
5 14 -10 39.5 23.3
-5 -14 10 37.1 23.6
4 14 -10 -8.6 19
4 14 -10 -0.5 19.4
-4 -14 10 26.4 21.4
3 14 -10 19.6 18.6
3 14 -10 23.4 17.8
-3 -14 10 6.8 21
2 14 -10 30.1 18.5
2 14 -10 -9.3 15.9
-2 -14 10 25.4 21.6
1 14 -10 4.4 17.7
1 14 -10 6.7 14.5
-1 -14 10 85.99 23
0 14 -10 23.7 18.4
0 14 -10 28.5 14.5
0 -14 10 81.99 24.7
-1 14 -10 76.29 21
-1 14 -10 43.7 15.3
1 -14 10 86.09 26
-2 14 -10 120.19 19.3
-2 14 -10 148.59 25.3
2 -14 10 129.49 28.5
-3 14 -10 1.4 14.8
-3 14 -10 35.4 19.8
3 -14 10 -12.9 24.9
-4 14 -10 72.79 23
-4 14 -10 -1.8 15.3
-4 14 -10 -26 22.5
-5 14 -10 68.99 26.3
-5 14 -10 87.19 29.3
5 14 -11 18.9 24.9
5 14 -11 7.2 25.1
4 14 -11 3.1 21.9
-4 -14 11 38.4 29.7
3 14 -11 18.7 20.6
3 14 -11 -15 18.9
-3 -14 11 31 25.3
2 14 -11 0.3 19.8
2 14 -11 12.9 18.6
-2 -14 11 35.4 24.2
1 14 -11 43.5 17.2
1 14 -11 26.3 19.4
-1 -14 11 4 24.3
0 14 -11 4.3 15.8
0 14 -11 3.7 19.1
0 -14 11 55.39 27.3
-1 14 -11 1.6 19.6
-1 14 -11 18.9 16.3
1 -14 11 -44.9 24.2
-2 14 -11 134.79 25.9
-2 14 -11 100.69 19.9
2 -14 11 112.49 32
-3 14 -11 -10 20.7
-3 14 -11 -46 15.9
3 -14 11 20.1 30.1
-4 14 -11 -26.6 27
-4 14 -11 32.4 19.9
-4 14 -11 40.8 23.3
3 14 -12 34.7 23.6
3 14 -12 31.6 24.1
2 14 -12 52.29 22.8
2 14 -12 40.1 24
-2 -14 12 34 27.6
1 14 -12 35 21.5
-1 -14 12 17.3 26.6
0 14 -12 26.8 22.5
0 14 -12 17.9 24
0 -14 12 83.29 31.5
-1 14 -12 14.1 21.3
-1 14 -12 19 28.3
1 -14 12 55.79 32.3
-2 14 -12 21.5 22.4
2 -14 12 25.1 35.9
-3 14 -12 15.4 23.7
-3 14 -12 14.3 20.9
1 14 -13 -7.2 22.6
1 14 -13 50.59 25.7
0 14 -13 0.3 23.2
0 14 -13 -2.6 21.6
-1 14 -13 38.9 25.8
-1 14 -13 57.59 23.3
-1 -15 -12 286.87 41.5
0 -15 -12 223.08 35.3
-3 -15 -11 48.6 27.8
-3 -15 -11 31.6 20.2
-2 -15 -11 36.6 24.7
-2 -15 -11 16.7 19.9
-1 -15 -11 105.59 25.1
0 -15 -11 18.7 19
1 -15 -11 28 26.5
-3 15 11 191.88 34.1
3 -15 -11 79.39 18.8
3 -15 -11 113.49 17.7
-3 -15 -10 114.89 28.7
-2 -15 -10 81.39 25
-1 -15 -10 80.59 20.4
0 -15 -10 106.69 24.1
0 -15 -10 121.09 22.4
0 -15 -10 157.48 19.3
1 -15 -10 356.96 41.4
1 -15 -10 254.77 24.2
1 -15 -10 310.37 30.1
2 -15 -10 275.37 26.7
3 -15 -10 133.39 19.1
-4 15 10 91.09 27.8
4 -15 -10 88.59 17.9
-4 -15 -9 -8.1 24.6
-3 -15 -9 46.6 24.4
-2 -15 -9 15 16.3
-1 -15 -9 7.7 17.5
-1 -15 -9 -4.3 17.6
-1 -15 -9 4.1 11.2
0 -15 -9 14.1 9.4
0 -15 -9 12.5 15.1
1 -15 -9 32.4 14
1 -15 -9 4.8 22
1 -15 -9 46.5 9.9
2 -15 -9 73.39 14.1
2 -15 -9 68.89 26.7
2 -15 -9 76.29 11.8
-4 15 9 86.59 25.4
-5 15 9 -31.3 26.2
5 -15 -9 1.1 16.7
-6 -15 -8 43.2 25
-5 -15 -8 33.5 21.4
-5 -15 -8 20.9 16.5
-4 -15 -8 1.9 15.4
-4 -15 -8 6 21.7
-3 -15 -8 41.3 16.7
-3 -15 -8 -8.7 18.8
-2 -15 -8 146.39 23.5
-2 -15 -8 117.29 22.5
-1 -15 -8 189.78 27.7
-1 -15 -8 187.88 19.4
-1 -15 -8 189.38 31.4
0 -15 -8 136.99 22.9
0 -15 -8 94.29 23.4
1 -15 -8 386.66 31
1 -15 -8 324.27 42.2
2 -15 -8 179.48 16.8
2 -15 -8 191.68 20.4
2 -15 -8 144.79 31.2
3 -15 -8 203.58 18.9
3 -15 -8 172.48 19
-4 15 8 313.67 41.7
4 -15 -8 308.27 26.6
-5 15 8 20.8 28.5
-6 15 8 285.47 44.4
-6 -15 -7 -14.7 16.3
-6 -15 -7 -25.2 22.1
-5 -15 -7 -5.1 15.2
-5 -15 -7 -64.39 25
-4 -15 -7 101.89 25.6
-4 -15 -7 64.99 18.6
-3 -15 -7 26.3 16.3
-3 -15 -7 -1.4 17
-2 -15 -7 161.98 27.9
-2 -15 -7 159.98 24
-1 -15 -7 67.89 17.2
0 -15 -7 21 19.4
0 -15 -7 -12.3 12.3
1 -15 -7 17.7 21.3
1 -15 -7 4.6 10.5
2 -15 -7 15.7 9.6
2 -15 -7 24.2 22.2
3 -15 -7 39.7 9.8
3 -15 -7 39.7 9.8
-4 15 7 -18.7 19.1
4 -15 -7 2 7.7
4 -15 -7 28 45.7
-5 15 7 57.19 26
5 -15 -7 -6.6 34.5
-6 15 7 48.5 28.5
-7 -15 -6 13.2 25.3
-6 -15 -6 -30.8 20.5
-6 -15 -6 -8.8 16.5
-5 -15 -6 -4.7 17.6
-5 -15 -6 3.3 20.9
-4 -15 -6 25.8 14.3
-4 -15 -6 18.8 19.6
-3 -15 -6 71.79 19.3
-3 -15 -6 60.19 27.5
-2 -15 -6 244.08 28.1
-1 -15 -6 161.48 29.4
-1 -15 -6 163.48 23.9
0 -15 -6 198.28 31.3
0 -15 -6 165.28 21.6
1 -15 -6 13.7 20.9
1 -15 -6 13.8 12
2 -15 -6 81.89 26.6
2 -15 -6 111.09 16.4
3 -15 -6 194.78 17.5
3 -15 -6 192.88 34.2
3 -15 -6 201.28 19.1
-4 15 6 315.27 39.8
4 -15 -6 266.97 21.2
4 -15 -6 236.88 44.7
4 -15 -6 289.87 25.4
-5 15 6 462.85 46.8
5 -15 -6 453.65 56.89
-6 15 6 154.68 33.1
6 -15 -6 125.09 41.2
-7 15 6 76.39 35
7 -15 -6 106.79 25.2
-6 -15 -5 17.3 19.6
-5 -15 -5 32.5 21
-5 -15 -5 2 15.8
-5 -15 -5 24.9 16.5
-4 -15 -5 3.4 12.8
-4 -15 -5 -3.5 16.8
-4 -15 -5 14.7 15.2
-3 -15 -5 40.2 11.8
-3 -15 -5 63.59 17.4
-3 -15 -5 45.4 15.9
-2 -15 -5 -6.2 14.1
-2 -15 -5 -15.4 13
-1 -15 -5 0.3 12.3
-1 -15 -5 22.5 17
0 -15 -5 20.7 11.5
0 -15 -5 25.8 18.4
1 -15 -5 37.4 20
2 -15 -5 1 19.9
2 -15 -5 -5.8 9
3 -15 -5 15.8 9.1
3 -15 -5 8.5 7.6
3 -15 -5 9.3 23
-4 15 5 12.9 19.5
4 -15 -5 44.1 29
4 -15 -5 3.3 8.8
-5 15 5 163.88 29.2
5 -15 -5 100.29 34.9
-6 15 5 161.18 33.1
6 -15 -5 146.79 40.5
-7 15 5 -0.7 30.1
7 -15 -5 38.5 21.9
-6 -15 -4 33.7 18.6
-5 -15 -4 42.6 20
-5 -15 -4 7 15.5
-4 -15 -4 35.7 13.6
-4 -15 -4 61.89 17.5
-4 -15 -4 47.3 19.5
-3 -15 -4 10.4 9.7
-3 -15 -4 18.6 15.4
-3 -15 -4 6.7 14.4
-2 -15 -4 51.59 14.7
-2 -15 -4 28.9 9.7
-2 -15 -4 43.1 16
-1 -15 -4 51.09 16.9
-1 -15 -4 72.69 14.9
0 -15 -4 43.7 18.5
0 -15 -4 42.6 13
1 -15 -4 75.89 21.6
2 -15 -4 21.5 22
3 -15 -4 243.08 21.6
3 -15 -4 222.38 19
3 -15 -4 235.78 40.9
-4 15 4 130.19 26.8
4 -15 -4 130.19 16.2
4 -15 -4 101.29 30.4
-5 15 4 111.29 26
5 -15 -4 92.39 18
5 -15 -4 103.89 34
-6 15 4 25.8 24.2
6 -15 -4 30.1 18.1
6 -15 -4 32.7 35.2
-7 15 4 284.07 46.1
7 -15 -4 218.28 34.5
-7 -15 -3 33 22.9
-6 -15 -3 7.7 17.8
-6 -15 -3 -36.5 21.2
-5 -15 -3 48.6 16.1
-5 -15 -3 64.69 21.6
-4 -15 -3 -10.4 14.6
-4 -15 -3 20.5 14.9
-4 -15 -3 16.1 11.5
-3 -15 -3 23.7 14.8
-3 -15 -3 44.1 11.1
-3 -15 -3 35.3 15.4
-2 -15 -3 47.5 14.5
-2 -15 -3 26.8 15.2
-1 -15 -3 11 13.9
-1 -15 -3 20.1 11.4
-1 -15 -3 9.5 5.3
0 -15 -3 88.69 15
0 -15 -3 45.2 17.6
1 -15 -3 46.5 14.5
1 -15 -3 41.4 5.4
1 -15 -3 47 19
2 -15 -3 -23.7 20
2 -15 -3 0.5 9.4
3 -15 -3 29.3 11.3
3 -15 -3 19.3 23.2
3 -15 -3 23.9 9.1
-4 15 3 -12.7 16.4
4 -15 -3 -20.8 24.4
4 -15 -3 2.6 9.3
-5 15 3 -0.1 20
5 -15 -3 -0.8 28
5 -15 -3 13.8 14
-6 15 3 38 25.6
6 -15 -3 6.5 35.5
6 -15 -3 64.99 18.3
-7 15 3 58.79 30
7 -15 -3 87.79 35.9
-8 15 3 37.7 33.6
-8 -15 -2 26.5 25.2
-7 -15 -2 31.5 21.3
-6 -15 -2 9.2 17.1
-6 -15 -2 13.9 23.2
-5 -15 -2 32.2 15
-5 -15 -2 16.4 17.9
-4 -15 -2 16.3 11.1
-4 -15 -2 -17.1 14.6
-3 -15 -2 7.7 13.9
-3 -15 -2 -10.8 12.8
-3 -15 -2 -0.4 9
-2 -15 -2 -2.9 6.9
-2 -15 -2 17.9 15.3
-2 -15 -2 -4.3 11.1
-1 -15 -2 15.3 11.1
-1 -15 -2 2.2 5.1
-1 -15 -2 31.3 16
0 -15 -2 133.99 24
0 -15 -2 131.69 9.5
0 -15 -2 127.19 19.2
1 -15 -2 265.27 23.6
1 -15 -2 243.58 16.6
1 -15 -2 285.27 35
2 -15 -2 29.1 11.1
2 -15 -2 16.6 21.1
3 -15 -2 44 12.3
3 -15 -2 20.3 22.2
-4 15 2 84.79 21.4
4 -15 -2 77.99 28.3
4 -15 -2 89.29 14
4 -15 -2 73.09 14.1
-5 15 2 7.4 21.3
5 -15 -2 10.9 28.9
5 -15 -2 19 14.1
-6 15 2 118.99 30.6
6 -15 -2 95.39 37.4
-7 15 2 228.98 43.1
-8 15 2 206.58 42.1
-8 -15 -1 -26.8 24.1
-7 -15 -1 -18 19.6
-6 -15 -1 37.5 18
-5 -15 -1 14.8 13.9
-5 -15 -1 -6.5 16.2
-4 -15 -1 54.39 17.4
-4 -15 -1 73.99 14.2
-3 -15 -1 126.29 23.1
-3 -15 -1 106.09 18.1
-3 -15 -1 104.39 14.1
-2 -15 -1 1.8 12.5
-2 -15 -1 15.1 6.9
-2 -15 -1 25.7 15.2
-1 -15 -1 8.3 15
-1 -15 -1 12.1 12.1
-1 -15 -1 5.7 5.4
0 -15 -1 18.5 11.4
0 -15 -1 22.3 16.8
1 -15 -1 57.69 13
1 -15 -1 20.8 19.3
1 -15 -1 41.2 7.3
2 -15 -1 296.07 21
2 -15 -1 218.48 37
2 -15 -1 247.48 24.5
3 -15 -1 17.7 21.6
3 -15 -1 8.6 11.6
4 -15 -1 -33.3 23.9
-5 15 1 36.2 21.2
5 -15 -1 12.5 26.8
-6 15 1 10.1 22.7
6 -15 -1 -40.3 29.4
-7 15 1 35 27.1
-8 15 1 -28.7 30.4
-8 -15 0 233.88 38.6
-7 -15 0 75.49 22.4
-6 -15 0 62.99 18.1
-5 -15 0 84.59 20
-4 -15 0 2.1 10.4
-4 -15 0 36.8 15.1
-3 -15 0 12.6 13.8
-3 -15 0 32.6 9.4
-2 -15 0 119.59 20.1
-2 -15 0 111.89 20.8
-2 -15 0 124.99 13.4
-1 -15 0 21.7 6.6
-1 -15 0 13.8 12.2
-1 -15 0 27.6 15.4
0 -15 0 23.1 11.8
0 -15 0 -8.1 14.4
0 -15 0 2.2 5.9
-1 15 0 8 11.7
1 -15 0 26 12.1
1 -15 0 22.8 17.9
1 -15 0 22.3 7.7
-2 15 0 75.89 15.5
2 -15 0 100.39 23.5
2 -15 0 116.29 14.6
2 -15 0 101.39 16.9
-3 15 0 37.4 12.1
3 -15 0 14.7 20.9
3 -15 0 8.9 11.9
-4 15 0 8.5 10.2
4 -15 0 -21 21.5
-5 15 0 83.59 22.5
-5 15 0 35 11.1
5 -15 0 60.59 30.8
-6 15 0 47.9 11.9
-6 15 0 58.39 25.1
-7 15 0 80.89 29.7
-7 15 0 74.99 12
-8 15 0 212.98 40
-8 -15 1 5.9 23.5
-7 -15 1 11 19.3
-6 -15 1 6.9 15.8
-5 -15 1 32.1 14.1
-5 -15 1 -14.2 15.2
-4 -15 1 12.9 11.1
-4 -15 1 13.1 14.4
-3 -15 1 27.1 9.9
-3 -15 1 9.9 13.7
-2 -15 1 296.37 28.4
-2 -15 1 268.57 30.7
-2 -15 1 265.87 21.1
1 15 -1 61.69 15.2
-1 -15 1 47.7 8.8
-1 -15 1 70.49 15
-1 -15 1 47.4 17.1
0 15 -1 27.9 13.2
0 -15 1 22.3 15.1
0 -15 1 0.9 6.7
0 -15 1 16.9 10.8
-1 15 -1 -12.9 10.2
1 -15 1 -2.1 11.7
1 -15 1 8.4 8.1
1 -15 1 12.7 17.8
-2 15 -1 13 12
2 -15 1 10.1 9.9
2 -15 1 16.9 13.2
2 -15 1 49.2 21.1
-3 15 -1 100.09 15.5
3 -15 1 96.29 26
3 -15 1 44.4 17.2
-4 15 -1 95.29 14.7
4 -15 1 45.3 25.3
-5 15 -1 -15.3 10.2
-6 15 -1 8.9 11.6
-6 15 -1 32.4 23.5
-7 15 -1 57.09 26.8
-8 15 -1 44 29.5
-8 -15 2 188.28 31.9
-7 -15 2 194.48 32.4
-6 -15 2 152.88 23.6
-5 -15 2 40.1 15
-4 -15 2 67.29 17.9
-4 -15 2 83.69 15.1
3 15 -2 58.09 17.5
-3 -15 2 56.19 11.6
-3 -15 2 49.4 15.8
2 15 -2 49 18.4
-2 -15 2 38.1 14.5
-2 -15 2 26.7 9.2
1 15 -2 217.58 26.8
-1 -15 2 309.57 31.8
-1 -15 2 274.07 21.6
-1 -15 2 279.47 27.4
0 15 -2 141.29 20.4
0 -15 2 122.39 20.5
0 -15 2 121.49 15.1
0 -15 2 132.59 23
-1 15 -2 25.3 11.8
1 -15 2 16.3 9.3
1 -15 2 0.8 16.4
1 -15 2 -15.2 11.2
-2 15 -2 -8.5 11.2
2 -15 2 10.8 13.1
2 -15 2 31.3 20.2
2 -15 2 23.2 10.5
-3 15 -2 -2.3 10.7
3 -15 2 35 22.9
3 -15 2 8.9 13.9
-4 15 -2 5 10.9
4 -15 2 31.1 26.4
-5 15 -2 44 13.1
-6 15 -2 4.9 12
-7 15 -2 22.9 12.9
-7 15 -2 9.8 24.3
-8 15 -2 -16 18.9
-8 15 -2 3.4 29.7
-8 -15 3 76.29 27.6
-7 -15 3 131.59 24.5
-6 -15 3 57.69 19.1
-5 -15 3 8.2 14.1
4 15 -3 1.1 15.2
-4 -15 3 9.1 15.3
-4 -15 3 25.1 12.7
3 15 -3 49.5 17.2
-3 -15 3 30.6 16.3
-3 -15 3 19.6 11.3
2 15 -3 -4.9 14.1
-2 -15 3 17.2 14.8
-2 -15 3 3 9.1
1 15 -3 46.2 18.5
-1 -15 3 29.3 16.7
-1 -15 3 61.59 11.6
-1 -15 3 49.4 15.1
0 15 -3 64.99 15.3
0 -15 3 48.3 15.6
0 -15 3 69.39 11.9
0 -15 3 35.4 18.3
-1 15 -3 2.9 11.5
1 -15 3 4.1 10.1
1 -15 3 5.4 16.9
1 -15 3 11.8 14.9
-2 15 -3 59.49 13.4
2 -15 3 15.3 12.3
2 -15 3 29.2 14.9
2 -15 3 51.79 20.4
-3 15 -3 53.79 13.1
3 -15 3 62.59 16.9
3 -15 3 33.2 14.5
3 -15 3 14.3 20.1
-4 15 -3 11.8 12.1
-5 15 -3 50.29 14.1
-6 15 -3 -9 12.6
-7 15 -3 8.7 14.4
-7 15 -3 10.1 25.3
-7 -15 4 179.78 29.3
-6 -15 4 35 18.6
-5 -15 4 108.99 19.4
4 15 -4 138.29 24.5
-4 -15 4 160.48 21.8
3 15 -4 183.78 27
-3 -15 4 188.98 28.4
-3 -15 4 167.58 26
2 15 -4 54.19 17.3
-2 -15 4 67.59 17.7
-2 -15 4 62.69 13.1
1 15 -4 63.79 16.7
-1 -15 4 64.19 17.4
-1 -15 4 59.99 19.4
-1 -15 4 71.99 13.2
0 15 -4 51.29 15.3
0 -15 4 72.99 21
0 -15 4 67.59 17.8
0 -15 4 68.19 13.8
-1 15 -4 43 13.8
1 -15 4 27.6 15.6
1 -15 4 16.7 17.8
1 -15 4 43.6 13.2
-2 15 -4 18.6 12.5
2 -15 4 11.8 15.7
2 -15 4 38 20.1
2 -15 4 35.7 14.9
-3 15 -4 4.9 12.3
-4 15 -4 49.99 14.3
-5 15 -4 10.1 14
-6 15 -4 19.1 15.1
-7 15 -4 0.1 15.9
-7 -15 5 -11.5 21.2
-6 -15 5 160.58 25.5
5 15 -5 112.89 25.5
-5 -15 5 153.88 25.2
4 15 -5 27.7 17.8
-4 -15 5 16.7 14.4
3 15 -5 24.6 16.9
-3 -15 5 0.9 16.5
-3 -15 5 16.9 13.2
2 15 -5 -9.2 13.8
-2 -15 5 -3.4 11.8
-2 -15 5 12.7 15.9
1 15 -5 25.1 15.2
-1 -15 5 40.6 14.5
-1 -15 5 -0.6 18.1
-1 -15 5 41.1 17.6
0 15 -5 5.3 13.4
0 -15 5 26 12.4
0 -15 5 42.6 20.2
0 -15 5 12 16.3
1 -15 5 -4.2 16.9
1 -15 5 9.5 13.1
1 -15 5 -7.1 16.6
-2 15 -5 12.6 13.9
2 -15 5 32.2 17.9
2 -15 5 0.4 17.2
-3 15 -5 24.2 13
3 -15 5 55.49 18.3
-4 15 -5 1.4 14.2
-5 15 -5 17.4 15.8
-6 15 -5 -11.1 16
-7 15 -5 -8.2 17.8
-7 -15 6 79.99 25.1
6 15 -6 202.88 32.3
-6 -15 6 134.49 25
5 15 -6 429.46 43.2
-5 -15 6 431.96 37.8
4 15 -6 235.88 34.2
-4 -15 6 343.07 31.3
3 15 -6 204.98 28.8
-3 -15 6 199.08 24.2
-3 -15 6 106.69 23.8
2 15 -6 132.09 22.5
-2 -15 6 125.79 19.8
-2 -15 6 185.08 26.7
1 15 -6 -12.7 14.2
-1 -15 6 9.3 13.2
-1 -15 6 -27.2 16
0 15 -6 184.98 24.6
0 -15 6 186.98 24.8
0 -15 6 179.48 29.5
-1 15 -6 199.88 24.8
1 -15 6 182.78 30.4
1 -15 6 178.28 25.7
-2 15 -6 224.28 25.8
2 -15 6 203.58 28.5
-3 15 -6 118.69 19.4
3 -15 6 80.99 20.9
3 -15 6 113.49 29.4
-4 15 -6 13.3 16.8
-5 15 -6 25.1 17.6
-6 15 -6 -26.3 17.4
-6 15 -6 9.2 9.9
-6 15 -6 -2.7 10.8
-7 15 -6 7.7 20.8
6 15 -7 59.29 20.4
6 15 -7 5.7 25.4
-6 -15 7 -6.4 19.7
5 15 -7 26.5 20.6
5 15 -7 24.7 16.2
-5 -15 7 31.3 19
4 15 -7 -0.6 12.6
4 15 -7 -18.1 16.8
-4 -15 7 9.8 17
3 15 -7 47.8 12
3 15 -7 25.5 18.3
-3 -15 7 24.2 16.3
2 15 -7 18 16.2
2 15 -7 19.6 8.6
-2 -15 7 18.8 18.8
-2 -15 7 33.4 15.3
1 15 -7 18.6 14.6
-1 -15 7 -2.6 14.5
-1 -15 7 35.4 20
0 15 -7 5.8 14.7
0 -15 7 -3.7 19
0 -15 7 -21.1 14.3
-1 15 -7 51.69 17.6
1 -15 7 19.6 24.2
1 -15 7 72.29 18.9
1 -15 7 85.59 22.8
-2 15 -7 170.38 27.2
-2 15 -7 152.88 18.2
2 -15 7 199.38 30
2 -15 7 245.78 36.8
-3 15 -7 -3 14.9
-3 15 -7 -10.1 7
3 -15 7 29.1 20.9
3 -15 7 -2.2 26.9
-4 15 -7 177.58 27.5
-4 15 -7 103.19 16.5
-4 15 -7 83.39 14.1
-5 15 -7 14.4 12.9
-5 15 -7 8.5 10.1
-5 15 -7 -14.9 16.7
-6 15 -7 17.9 15.9
-6 15 -7 -21 20
-6 15 -7 -9.7 12.2
6 15 -8 214.88 35.2
6 15 -8 275.57 44.8
-6 -15 8 167.18 30.1
5 15 -8 70.79 21.1
5 15 -8 62.09 24.9
-5 -15 8 46.9 21.5
4 15 -8 310.07 39.1
4 15 -8 355.96 31.9
-4 -15 8 232.58 34.3
3 15 -8 191.68 30.6
3 15 -8 180.28 23.2
-3 -15 8 200.08 30.4
2 15 -8 198.68 21.6
2 15 -8 177.98 27
-2 -15 8 178.78 29.6
-2 -15 8 180.78 29.9
1 15 -8 372.46 28.5
1 15 -8 418.36 36.8
-1 -15 8 369.26 41.9
-1 -15 8 382.96 37
0 15 -8 125.19 22.5
0 15 -8 120.99 16.8
0 -15 8 162.78 28.7
0 -15 8 146.19 24.1
-1 15 -8 258.37 31.4
-1 15 -8 160.48 22.4
-1 15 -8 244.38 20.2
1 -15 8 254.67 33
-2 15 -8 161.38 17.5
-2 15 -8 146.09 23.7
-2 15 -8 170.88 21.1
2 -15 8 111.99 27.1
-3 15 -8 70.49 18.8
-3 15 -8 14.4 14.4
-3 15 -8 16.2 10.1
3 -15 8 42.6 24.2
-4 15 -8 12.1 16.3
-4 15 -8 3.7 18.9
-4 15 -8 9.6 11.2
-5 15 -8 27.2 21.7
-5 15 -8 17.2 13.4
-5 15 -8 37 17.7
-6 15 -8 46.1 19.7
-6 15 -8 26 22.9
5 15 -9 0.4 21
5 15 -9 39.7 23.3
-5 -15 9 -0.8 24.3
4 15 -9 33 22.6
4 15 -9 98.79 20.9
-4 -15 9 106.79 26.7
3 15 -9 -7.1 18.6
3 15 -9 -13.8 15.3
-3 -15 9 19.3 20.1
2 15 -9 65.79 16.4
2 15 -9 70.19 21.8
-2 -15 9 57.29 22.5
1 15 -9 37.1 19
1 15 -9 40.6 14.2
-1 -15 9 31.8 22.3
-1 -15 9 25.9 24.3
0 15 -9 29.2 17.9
0 15 -9 -11.3 11.9
0 -15 9 -15.4 19.6
0 -15 9 7.9 23.7
-1 15 -9 25.1 12.3
-1 15 -9 21.8 17.7
1 -15 9 39 23
-2 15 -9 40.5 18.5
-2 15 -9 -9.1 16.7
-2 15 -9 15.3 11.6
2 -15 9 11.7 25.2
-3 15 -9 90.49 20.1
-3 15 -9 75.19 21.3
3 -15 9 61.79 27.6
-4 15 -9 -10.4 22
-4 15 -9 12 20.3
-4 15 -9 37.3 14.8
-5 15 -9 22.2 23.1
-5 15 -9 24.4 16.1
-5 15 -9 10.1 25.1
4 15 -10 61.99 25.6
4 15 -10 98.09 23.8
-4 -15 10 98.89 26.6
3 15 -10 80.79 24
3 15 -10 114.19 22.1
-3 -15 10 121.29 27.4
2 15 -10 221.28 30
2 15 -10 284.77 34.9
-2 -15 10 248.78 38.8
1 15 -10 210.78 33
1 15 -10 226.18 27.7
-1 -15 10 251.87 35.4
0 15 -10 113.99 25.7
0 15 -10 182.38 24.2
0 -15 10 174.38 30.7
-1 15 -10 124.99 25.1
-1 15 -10 109.09 18.3
1 -15 10 167.38 31.1
-2 15 -10 55.99 16.3
-2 15 -10 72.39 22.7
2 -15 10 68.59 29.8
-3 15 -10 138.59 26.7
-3 15 -10 131.59 20.5
-3 15 -10 140.29 26.9
3 -15 10 150.78 35.3
-4 15 -10 159.58 29.4
-4 15 -10 147.39 28.7
-4 15 -10 195.78 28
3 15 -11 147.69 29.1
3 15 -11 102.09 24.8
-3 -15 11 150.88 47.6
2 15 -11 -18.7 18.6
2 15 -11 24.1 22.1
-2 -15 11 -12 24.2
1 15 -11 38.4 19.6
1 15 -11 64.99 21.8
-1 -15 11 6.1 27
0 15 -11 21.6 21.1
0 15 -11 28.3 18
0 -15 11 25.2 27.6
-1 15 -11 173.68 28.5
-1 15 -11 137.79 21.9
1 -15 11 153.68 34.1
-2 15 -11 -40.9 16.4
-2 15 -11 2.5 22.9
2 -15 11 20.1 31.5
-3 15 -11 -23.6 23.3
-3 15 -11 18.8 18.2
-3 15 -11 38.9 27.3
3 -15 11 -25 34.8
2 15 -12 162.28 30
2 15 -12 110.99 34.2
1 15 -12 198.38 32.9
1 15 -12 276.07 35.8
0 15 -12 255.67 34.8
0 15 -12 264.67 39.4
-1 15 -12 239.68 33.6
-1 15 -12 215.08 34.6
-1 -16 -11 -5.3 22.5
0 -16 -11 -13 20.4
-3 -16 -10 100.89 32.9
-2 -16 -10 56.69 24.9
-1 -16 -10 66.69 27.9
-1 -16 -10 58.19 22.3
0 -16 -10 0.5 22.6
0 -16 -10 43.3 18.7
1 -16 -10 15.7 25.5
-3 -16 -9 0.7 22.8
-3 -16 -9 -10.6 21.1
-2 -16 -9 7.3 21.6
-2 -16 -9 28.2 21.5
-1 -16 -9 65.69 21.4
-1 -16 -9 65.09 13.9
0 -16 -9 -8.3 10
0 -16 -9 -4 23
0 -16 -9 6.3 16.8
1 -16 -9 4.6 25.2
1 -16 -9 23.7 14.7
1 -16 -9 28.8 10.8
2 -16 -9 27.5 14.9
2 -16 -9 44.3 28.5
3 -16 -9 4.8 10.7
-4 16 9 30.7 27
-5 -16 -8 88.19 21.7
-5 -16 -8 170.08 26.8
-3 -16 -8 29 19.5
-3 -16 -8 15 21.3
-2 -16 -8 199.18 36.9
-1 -16 -8 35.5 11.2
-1 -16 -8 26.6 16.7
-1 -16 -8 42.1 21.4
0 -16 -8 28.9 22.3
0 -16 -8 1.1 14.7
0 -16 -8 11 8.7
1 -16 -8 3.9 7.5
1 -16 -8 22.1 24
1 -16 -8 31.9 13.5
2 -16 -8 14.2 12.7
2 -16 -8 9.9 8.3
3 -16 -8 18.1 10.7
3 -16 -8 -19.9 34.8
-4 16 8 -27.8 24.4
4 -16 -8 34 33
4 -16 -8 -2.1 8.4
-5 16 8 20 26.4
5 -16 -8 -8.9 18.3
-5 -16 -7 10.5 20.3
-4 -16 -7 -32.1 22.9
-4 -16 -7 20.8 17.1
-3 -16 -7 6.1 20.9
-3 -16 -7 -14.3 20.2
-2 -16 -7 17.6 17.3
-2 -16 -7 29.2 18.9
-1 -16 -7 55.69 18.1
-1 -16 -7 42.3 21.9
0 -16 -7 3.1 13.8
0 -16 -7 0.7 21.9
0 -16 -7 27.8 7.2
1 -16 -7 71.79 9.5
1 -16 -7 40.7 14.5
1 -16 -7 54.99 25
2 -16 -7 124.79 54.39
2 -16 -7 60.69 9.4
2 -16 -7 57.09 13.7
3 -16 -7 52.39 39.8
3 -16 -7 64.59 11.2
3 -16 -7 23.9 11.6
-4 16 7 7.3 21.6
4 -16 -7 5.1 12.4
-5 16 7 5.2 27.4
5 -16 -7 32.8 37.9
-6 -16 -6 106.99 25.3
-5 -16 -6 72.39 20.2
-5 -16 -6 42.2 32.5
-4 -16 -6 210.08 31.2
-4 -16 -6 188.08 31.1
-4 -16 -6 247.18 27.9
-3 -16 -6 161.58 30.1
-3 -16 -6 263.47 31
-3 -16 -6 169.18 22.5
-2 -16 -6 66.09 18.5
-2 -16 -6 79.09 21.9
-1 -16 -6 154.38 24.4
-1 -16 -6 91.49 24.2
0 -16 -6 362.46 41.5
0 -16 -6 364.66 31.7
1 -16 -6 33.7 23.9
1 -16 -6 23.6 12.5
2 -16 -6 153.08 16.6
2 -16 -6 126.19 19.2
3 -16 -6 93.59 14.8
3 -16 -6 110.89 17.1
-4 16 6 -7.3 22.1
4 -16 -6 41.7 16.4
4 -16 -6 -44.5 31.1
-5 16 6 62.29 27.2
5 -16 -6 66.79 38.2
-6 16 6 2.2 28.8
6 -16 -6 34 20.1
-6 -16 -5 67.79 26.6
-6 -16 -5 6.1 20.9
-5 -16 -5 69.69 21.4
-5 -16 -5 70.29 22.8
-4 -16 -5 89.89 21.1
-4 -16 -5 116.29 18.8
-4 -16 -5 110.39 23.4
-3 -16 -5 162.08 28.4
-3 -16 -5 154.28 24
-3 -16 -5 136.89 17.6
-2 -16 -5 91.89 18.8
-2 -16 -5 75.09 13.6
-2 -16 -5 82.19 20.9
-1 -16 -5 6 12.9
-1 -16 -5 -12.2 18
0 -16 -5 64.99 14.6
0 -16 -5 54.79 21.3
1 -16 -5 129.99 26.7
1 -16 -5 86.59 7
1 -16 -5 100.59 16
2 -16 -5 1.2 10.7
2 -16 -5 -11.3 5.7
2 -16 -5 7.5 23.9
3 -16 -5 3.9 10.6
3 -16 -5 26 9.4
3 -16 -5 -26.3 27.5
-4 16 5 28.3 22.7
4 -16 -5 73.59 31.6
4 -16 -5 8.6 12.1
4 -16 -5 -3.9 11.1
-5 16 5 32.3 25.4
5 -16 -5 37.6 34.4
-6 16 5 42.5 28.5
6 -16 -5 1.8 32.2
-7 -16 -4 170.88 30.6
-6 -16 -4 131.99 24.5
-5 -16 -4 65.79 20.7
-5 -16 -4 48.6 22.4
-5 -16 -4 93.49 19.5
-4 -16 -4 182.48 31.9
-4 -16 -4 245.28 32.8
-4 -16 -4 312.47 27.2
-3 -16 -4 45.8 11.6
-3 -16 -4 20.3 17.4
-3 -16 -4 45.9 16.9
-2 -16 -4 146.89 23.1
-2 -16 -4 112.09 22.6
-1 -16 -4 93.19 22
-1 -16 -4 73.39 9.7
-1 -16 -4 44.8 14.9
0 -16 -4 112.99 25.5
0 -16 -4 134.59 20.7
1 -16 -4 816.72 53.79
1 -16 -4 886.81 64.69
2 -16 -4 186.48 21.5
2 -16 -4 240.88 40.9
3 -16 -4 22 25.6
3 -16 -4 10.9 11
3 -16 -4 28.3 11.4
4 -16 -4 111.59 32.3
4 -16 -4 65.39 14.4
4 -16 -4 55.99 13
-5 16 4 0 21.8
5 -16 -4 -46.7 30.7
-6 16 4 35.2 27.3
-7 16 4 86.39 33.7
7 -16 -4 41.2 24
-7 -16 -3 10.7 30.5
-6 -16 -3 21.3 19.4
-5 -16 -3 132.99 21.3
-5 -16 -3 63.19 23.8
-4 -16 -3 38.8 13.7
-4 -16 -3 18.2 18.6
-4 -16 -3 51.19 18.5
-3 -16 -3 55.89 12.4
-3 -16 -3 34.1 16.9
-3 -16 -3 52.39 19.7
-2 -16 -3 -7.3 8.1
-2 -16 -3 -1.6 12.9
-2 -16 -3 -8.4 14.8
-1 -16 -3 1.6 5.4
-1 -16 -3 -2.9 13.4
-1 -16 -3 -16.4 17.2
0 -16 -3 40.7 19.3
0 -16 -3 32.5 4.7
0 -16 -3 17.8 11.5
1 -16 -3 30.1 12
1 -16 -3 39.3 5.6
1 -16 -3 55.89 24.1
2 -16 -3 18.7 22.9
2 -16 -3 26.4 9.4
3 -16 -3 12 25.5
3 -16 -3 32.1 12.1
3 -16 -3 22.6 9.9
4 -16 -3 26.3 15.6
4 -16 -3 25.6 12.1
4 -16 -3 3.5 27.4
-5 16 3 36.1 23.9
5 -16 -3 22.4 33.4
-6 16 3 7.7 26.3
-7 16 3 0.8 30.5
7 -16 -3 13.6 22.1
-7 -16 -2 213.48 47.9
-6 -16 -2 221.68 31.7
-5 -16 -2 531.75 43
-5 -16 -2 407.56 42.3
-4 -16 -2 152.48 20.7
-4 -16 -2 140.79 23.4
-3 -16 -2 185.98 19.2
-3 -16 -2 149.99 25.3
-3 -16 -2 210.48 30.1
-2 -16 -2 12.3 16.7
-2 -16 -2 33.4 14.7
-2 -16 -2 -8.6 7
-1 -16 -2 53.39 8.8
-1 -16 -2 50.59 14.5
-1 -16 -2 44.3 18.5
0 -16 -2 58.49 7.3
0 -16 -2 51.99 14.1
0 -16 -2 44.2 20.3
1 -16 -2 211.48 31.9
1 -16 -2 175.18 13.9
1 -16 -2 192.38 22.7
2 -16 -2 220.18 36.1
2 -16 -2 197.48 23.7
3 -16 -2 201.78 23.3
3 -16 -2 221.38 39.5
4 -16 -2 230.38 24.1
4 -16 -2 174.58 36.5
-5 16 2 103.49 27.4
5 -16 -2 144.09 38.8
-6 16 2 109.09 29.7
-7 16 2 4.8 29.7
-7 -16 -1 1.7 21.5
-6 -16 -1 11.6 18.3
-5 -16 -1 2.3 18.6
-4 -16 -1 119.79 22.7
-4 -16 -1 132.09 20.2
-3 -16 -1 63.59 20.9
-3 -16 -1 60.59 17
-3 -16 -1 57.79 11.7
-2 -16 -1 159.98 26.2
-2 -16 -1 114.79 19.7
-2 -16 -1 98.89 13.4
-1 -16 -1 162.18 22.6
-1 -16 -1 116.99 14.3
-1 -16 -1 180.08 29.2
0 -16 -1 289.87 27.1
0 -16 -1 263.17 33.2
0 -16 -1 255.87 18.2
1 -16 -1 83.49 16
1 -16 -1 92.99 11.6
1 -16 -1 98.79 25.7
2 -16 -1 52.89 10.4
2 -16 -1 57.49 14.7
2 -16 -1 39 23
3 -16 -1 55.39 27.4
3 -16 -1 59.79 16
4 -16 -1 4.4 29
5 -16 -1 51.19 34.9
-6 16 1 3.4 23.9
-7 16 1 -21.7 30
-7 -16 0 18 21.6
-6 -16 0 124.89 22.4
-5 -16 0 41.3 20.2
-5 -16 0 101.39 18.4
-4 -16 0 138.99 19.7
-4 -16 0 141.89 24.6
-3 -16 0 583.74 46.9
-3 -16 0 676.33 41.9
-3 -16 0 689.03 52.19
-2 -16 0 607.84 48.3
-2 -16 0 583.74 44
-2 -16 0 564.44 36.6
-1 -16 0 474.45 35.8
-1 -16 0 427.26 29.1
-1 -16 0 495.15 41.7
0 -16 0 971.3 56.19
0 -16 0 875.31 68.09
0 -16 0 1037.7 62.29
-1 16 0 396.16 33.2
1 -16 0 381.26 41.4
1 -16 0 421.66 33
1 -16 0 421.46 27.9
-2 16 0 541.35 39.1
2 -16 0 500.05 38.5
2 -16 0 543.85 34.8
2 -16 0 414.16 50.29
-3 16 0 599.84 41
3 -16 0 599.14 41.8
3 -16 0 434.76 51.59
-4 16 0 123.99 20.6
4 -16 0 143.29 32.9
-5 16 0 78.89 14.5
5 -16 0 51.09 33.6
-6 16 0 107.49 15.8
-6 16 0 113.39 29.8
-7 16 0 19.3 29.1
-7 -16 1 25.3 21.2
-6 -16 1 34 17.9
-5 -16 1 18.5 18.8
-5 -16 1 31.6 15.1
-4 -16 1 39.7 13.2
-4 -16 1 52.89 18.7
-3 -16 1 73.29 19.4
-3 -16 1 81.79 13.2
-2 -16 1 61.59 16.8
-2 -16 1 54.19 10.6
-2 -16 1 68.39 20.4
-1 -16 1 73.79 17.4
-1 -16 1 103.49 22.8
-1 -16 1 97.59 13.7
0 16 -1 260.17 30
0 -16 1 279.17 34
0 -16 1 324.87 30
0 -16 1 270.77 21.7
-1 16 -1 122.69 19.2
1 -16 1 151.78 23.6
1 -16 1 195.98 31
1 -16 1 118.89 16
-2 16 -1 124.79 19.9
2 -16 1 137.09 18.5
2 -16 1 139.19 20.7
2 -16 1 138.69 28.7
-3 16 -1 67.29 14.9
3 -16 1 60.69 25.9
3 -16 1 77.09 17.5
-4 16 -1 127.49 21.3
4 -16 1 112.19 32
-5 16 -1 -16 12
-6 16 -1 11 12.8
-7 16 -1 34.5 27.9
-7 16 -1 36.4 13.9
-7 -16 2 66.39 22.8
-6 -16 2 120.09 22.4
-5 -16 2 82.19 17.7
-4 -16 2 183.18 28.1
-4 -16 2 204.58 29
-3 -16 2 239.68 28
-3 -16 2 183.98 21.2
2 16 -2 255.17 30.9
-2 -16 2 284.67 29.7
-2 -16 2 274.47 33.3
-2 -16 2 292.37 23.4
1 16 -2 167.68 25.6
-1 -16 2 209.88 27.5
-1 -16 2 199.58 19.1
-1 -16 2 164.78 27.4
0 16 -2 19.4 14.4
0 -16 2 56.99 11
0 -16 2 33.5 15.2
0 -16 2 20.5 18.8
-1 16 -2 45.6 15.3
1 -16 2 52.69 12.4
1 -16 2 22.2 20.9
1 -16 2 75.79 17.4
-2 16 -2 11.7 12.3
2 -16 2 27.4 20.3
2 -16 2 15.4 12
2 -16 2 20.8 15.6
-3 16 -2 187.48 23.2
3 -16 2 177.38 32.9
3 -16 2 185.88 25.2
-4 16 -2 106.99 17.8
-5 16 -2 446.46 35.5
-6 16 -2 183.98 24.7
-7 16 -2 251.37 28.1
-7 -16 3 2.1 20.3
-6 -16 3 67.79 20.5
-5 -16 3 -8.7 14.7
-4 -16 3 39.2 14.1
-4 -16 3 18.6 17.6
3 16 -3 46.9 19.1
-3 -16 3 10.8 17.1
-3 -16 3 24.2 12.4
2 16 -3 -12.1 15.6
-2 -16 3 10.9 15.7
-2 -16 3 29.6 11.2
-2 -16 3 20.9 19
1 16 -3 16.1 16.2
-1 -16 3 64.99 17.9
-1 -16 3 52.19 12.6
-1 -16 3 59.09 20.2
0 16 -3 21.5 17
0 -16 3 34.2 16.6
0 -16 3 35.5 20
0 -16 3 12.8 10.7
-1 16 -3 7.9 13.5
1 -16 3 4.8 11.9
1 -16 3 -0.1 18.8
1 -16 3 -5.8 15.4
-2 16 -3 10.7 13.3
2 -16 3 21.5 13.6
2 -16 3 -25.4 15.4
2 -16 3 -11 20.7
-3 16 -3 65.69 16.2
3 -16 3 67.59 19.9
3 -16 3 42.5 17.6
-4 16 -3 13.8 14.7
-5 16 -3 97.19 18.4
-6 16 -3 1.2 14.6
-7 16 -3 37.3 17.1
-7 -16 4 78.79 25.4
-6 -16 4 17.2 18.8
-5 -16 4 15.8 15.8
4 16 -4 67.89 22
-4 -16 4 61.49 20.6
-4 -16 4 55.49 15.6
3 16 -4 19.4 17.5
-3 -16 4 32.6 13.9
-3 -16 4 0.1 16.5
2 16 -4 184.18 28.1
-2 -16 4 201.28 27.2
-2 -16 4 221.48 29.5
1 16 -4 905.61 60.69
-1 -16 4 821.02 55.79
-1 -16 4 907.81 62.69
-1 -16 4 917.51 64.79
0 16 -4 120.19 20
0 -16 4 130.09 18.2
0 -16 4 92.89 21.7
0 -16 4 109.09 24.8
-1 16 -4 66.79 17
1 -16 4 38.7 20.7
1 -16 4 67.49 15.6
1 -16 4 98.09 20.3
-2 16 -4 121.69 23
2 -16 4 174.98 27.4
2 -16 4 135.19 21.2
-3 16 -4 1.1 15.1
3 -16 4 43.3 18.1
-4 16 -4 189.88 26.5
-5 16 -4 75.29 18.5
-6 16 -4 128.59 21
-7 16 -4 152.68 23.5
-6 -16 5 14.6 20.1
5 16 -5 43.9 24.3
-5 -16 5 30.6 18.2
4 16 -5 26.6 19.6
-4 -16 5 -3.9 15.1
3 16 -5 42.4 17.9
-3 -16 5 -4.3 14.3
-3 -16 5 10.4 19.3
2 16 -5 -6.2 16.1
-2 -16 5 31.7 19.4
-2 -16 5 27.8 13.9
1 16 -5 120.79 21.2
-1 -16 5 110.29 23.1
-1 -16 5 87.49 25.1
-1 -16 5 145.79 19.6
0 16 -5 70.99 18.9
0 -16 5 42.2 20.1
0 -16 5 81.79 20.2
-1 16 -5 19.6 15.5
1 -16 5 6.1 17.7
1 -16 5 9 15.2
-2 16 -5 73.99 17.3
2 -16 5 77.39 19.7
2 -16 5 59.59 21.9
-3 16 -5 160.18 25.9
3 -16 5 147.79 25.4
-4 16 -5 74.19 18.4
-5 16 -5 68.49 21.9
-6 16 -5 1 20.7
-6 -16 6 36.4 22.6
5 16 -6 65.39 24.2
-5 -16 6 58.79 21.6
4 16 -6 41.6 20.9
-4 -16 6 24.7 17.9
3 16 -6 100.89 23.5
-3 -16 6 89.39 24.8
-3 -16 6 73.39 17.8
2 16 -6 153.28 24.5
-2 -16 6 109.49 24.2
-2 -16 6 146.99 21.4
1 16 -6 14.6 16.8
-1 -16 6 31.6 15.9
-1 -16 6 57.59 21.5
0 16 -6 337.97 33.8
0 -16 6 349.17 34.1
0 -16 6 356.36 38.7
-1 16 -6 180.08 26.2
1 -16 6 138.29 23.1
1 -16 6 141.09 26.7
-2 16 -6 44.8 17.7
2 -16 6 68.89 20.2
-3 16 -6 197.58 29.1
3 -16 6 196.18 29.2
-4 16 -6 198.68 28.2
-5 16 -6 85.99 21.6
-6 16 -6 93.79 23
6 16 -7 -50.69 25.1
-6 -16 7 -13.4 24.1
5 16 -7 4.4 23.4
-5 -16 7 2 20.7
4 16 -7 13.5 21.6
-4 -16 7 26.2 19.2
3 16 -7 67.19 20.7
-3 -16 7 58.09 20
2 16 -7 34.8 19.9
-2 -16 7 69.99 24.8
-2 -16 7 44.7 18.7
1 16 -7 30.8 18.7
-1 -16 7 16.9 17.6
-1 -16 7 29.4 22.8
0 16 -7 8 16.6
0 -16 7 37.6 22.5
0 -16 7 37.9 17.5
-1 16 -7 36.8 17.2
1 -16 7 40 19.3
1 -16 7 -3.9 22.6
-2 16 -7 4.1 16.9
2 -16 7 53.29 22.4
-4 16 -7 10.3 18.9
-5 16 -7 25.6 19.1
5 16 -8 15.5 26.6
-5 -16 8 0.2 23.2
4 16 -8 -26.3 21.3
4 16 -8 18.1 14.8
-4 -16 8 26.8 21.3
3 16 -8 14.4 21.6
3 16 -8 17.6 12.2
-3 -16 8 -34.6 18.3
2 16 -8 33.8 20.1
2 16 -8 13.6 10.3
-2 -16 8 22.7 19.6
1 16 -8 -2.8 17.1
-1 -16 8 6.2 22.9
-1 -16 8 -40.6 17.8
0 16 -8 5.1 16.6
0 -16 8 32.6 21
0 -16 8 -9.7 23.6
-1 16 -8 10.4 17.4
1 -16 8 52.89 23.2
-2 16 -8 266.07 35.4
2 -16 8 274.37 39.3
-3 16 -8 0.3 13.9
-3 16 -8 -8.2 18.5
3 -16 8 -0.7 23.9
-4 16 -8 11.2 10.6
-4 16 -8 7.6 14
-4 16 -8 11.4 20
-5 16 -8 104.19 24.8
4 16 -9 8.3 22.6
4 16 -9 31.4 20
-4 -16 9 -41.9 22.6
3 16 -9 28.2 22.1
3 16 -9 2.6 15.5
-3 -16 9 38.9 23
2 16 -9 8.2 13.6
2 16 -9 -13.7 19.7
-2 -16 9 -2.1 21.8
1 16 -9 21.1 13
1 16 -9 52.59 21
-1 -16 9 45.9 23.6
0 16 -9 15.3 20.1
0 16 -9 -3.2 11.6
0 -16 9 -62.29 21.4
-1 16 -9 59.89 14.9
-1 16 -9 50.09 21.6
-1 16 -9 47.8 12.4
1 -16 9 45 24.5
-2 16 -9 -26.8 18.3
-2 16 -9 10.4 11.3
-2 16 -9 5.7 14.2
2 -16 9 -4.8 24.8
-3 16 -9 -15.8 11.7
-3 16 -9 1.4 15.6
-3 16 -9 -11.8 21.7
3 -16 9 -44.9 27.8
-4 16 -9 18 22.7
3 16 -10 8.3 23.9
3 16 -10 19.5 19.7
-3 -16 10 -3.1 25.6
2 16 -10 7.5 21.4
2 16 -10 13.5 17.2
-2 -16 10 -21.4 23.8
1 16 -10 13.8 15.8
1 16 -10 30.3 21.2
-1 -16 10 30.4 23.9
0 16 -10 -4.4 14.7
0 16 -10 31.9 22.5
0 -16 10 38.2 25.7
-1 16 -10 77.59 24.6
-1 16 -10 98.19 17.3
1 -16 10 103.79 30.8
-2 16 -10 75.19 25.1
-2 16 -10 81.59 21
-2 16 -10 53.89 15.8
2 -16 10 59.29 29.1
-3 16 -10 143.39 27.9
-3 16 -10 101.19 32.8
3 -16 10 68.49 34.9
1 16 -11 -16.1 18.5
1 16 -11 46.8 25.6
-1 -16 11 -2.5 27.9
0 16 -11 15 18.4
0 16 -11 40.9 24.9
0 -16 11 6.1 28.3
-1 16 -11 47 18.5
-1 16 -11 52.69 25.6
1 -16 11 57.49 30.5
-1 -17 -10 116.89 25.3
0 -17 -10 163.08 36.5
-2 -17 -9 -11.1 23
-1 -17 -9 19.9 19.8
0 -17 -9 25 26.2
0 -17 -9 11.1 18.1
3 -17 -9 59.29 36.8
-4 -17 -8 -9.4 19
-3 -17 -8 24 22.3
-3 -17 -8 22.7 23
-2 -17 -8 269.67 40.6
-2 -17 -8 389.66 38.3
-1 -17 -8 84.39 26
-1 -17 -8 127.29 24.1
0 -17 -8 164.98 32.4
0 -17 -8 144.59 23.1
1 -17 -8 269.17 46.1
1 -17 -8 160.28 22.2
2 -17 -8 110.59 46.1
2 -17 -8 52.99 16.5
3 -17 -8 221.98 23.5
4 -17 -8 23.1 39.8
-4 -17 -7 14.6 18.6
-3 -17 -7 -39 20.6
-3 -17 -7 24.6 24
-2 -17 -7 -17.5 19.7
-2 -17 -7 13.9 21.8
-1 -17 -7 99.29 27.1
-1 -17 -7 101.09 20.9
0 -17 -7 35.3 16.5
0 -17 -7 65.49 26.6
1 -17 -7 10.9 13.8
2 -17 -7 56.29 37.9
2 -17 -7 49.9 14.3
3 -17 -7 29.6 33.6
4 -17 -7 33 38.8
-5 -17 -6 21.8 21.1
-5 -17 -6 26.3 21
-4 -17 -6 12.8 20.1
-4 -17 -6 38.6 16.6
-3 -17 -6 25.1 21.1
-3 -17 -6 56.09 21
-3 -17 -6 8.1 13.8
-2 -17 -6 78.49 24.6
-2 -17 -6 90.39 23.4
-1 -17 -6 307.17 42.4
-1 -17 -6 357.56 34.1
0 -17 -6 113.79 29.2
0 -17 -6 149.39 24.3
1 -17 -6 40.2 28
1 -17 -6 21.1 13.9
2 -17 -6 154.58 34.3
2 -17 -6 133.09 20.6
3 -17 -6 191.98 23.4
-5 17 6 123.59 31.9
-5 -17 -5 33.2 28.8
-4 -17 -5 24.6 15.4
-4 -17 -5 -13.3 20.6
-4 -17 -5 11 19.8
-3 -17 -5 21.1 20.2
-3 -17 -5 9.3 20.2
-3 -17 -5 21.1 12.7
-2 -17 -5 84.59 23.9
-2 -17 -5 63.29 12.1
-2 -17 -5 78.79 20.4
-1 -17 -5 -8.6 14.9
-1 -17 -5 -1.3 22.2
0 -17 -5 -0.9 13.6
1 -17 -5 9.9 13.2
2 -17 -5 -3.8 12.1
2 -17 -5 6.4 7.9
3 -17 -5 47.4 13.4
3 -17 -5 28.8 32.9
3 -17 -5 30.9 11.2
4 -17 -5 20.3 13.8
4 -17 -5 41.6 33.7
-5 17 5 35.8 27.6
-6 -17 -4 27.1 21.6
-5 -17 -4 -40.1 19.6
-4 -17 -4 11.7 14.4
-4 -17 -4 -5.2 20.1
-3 -17 -4 19.7 12.1
-3 -17 -4 25.2 20.2
-3 -17 -4 22.6 18.9
-2 -17 -4 61.39 21.8
-2 -17 -4 -9.4 16.6
-2 -17 -4 6.5 9.4
-1 -17 -4 119.39 12.3
-1 -17 -4 147.79 22.9
0 -17 -4 -16.5 27.1
0 -17 -4 11.7 13.6
1 -17 -4 71.29 15.5
1 -17 -4 84.89 29
2 -17 -4 94.99 12.7
2 -17 -4 112.99 17.2
2 -17 -4 97.49 32.6
3 -17 -4 95.69 33.3
3 -17 -4 122.39 20.3
3 -17 -4 81.19 13.8
4 -17 -4 103.79 39.4
4 -17 -4 169.88 22.7
-5 17 4 87.89 29.4
-6 17 4 3.6 30.4
6 -17 -4 9.3 20.5
-6 -17 -3 39.4 20.4
-4 -17 -3 -16.4 19.1
-4 -17 -3 -13.5 13.1
-4 -17 -3 35.1 21.2
-3 -17 -3 68.29 20.2
-3 -17 -3 39.6 12.5
-2 -17 -3 30.8 9.5
-2 -17 -3 -5 15.3
-1 -17 -3 30.3 20.8
-1 -17 -3 32.7 14.3
0 -17 -3 41.1 21.4
0 -17 -3 26.4 4.8
0 -17 -3 69.29 15.9
1 -17 -3 235.68 38.2
1 -17 -3 206.08 15.5
1 -17 -3 247.98 25.1
2 -17 -3 10.8 25.3
2 -17 -3 13.7 13.4
3 -17 -3 98.49 31.7
3 -17 -3 89.19 17.3
4 -17 -3 42.7 16.5
4 -17 -3 16.2 31.6
-6 17 3 25 29.1
-6 -17 -2 15.6 19.3
-5 -17 -2 45.2 18.9
-4 -17 -2 -0.4 13
-4 -17 -2 -8 18.5
-4 -17 -2 81.49 33.4
-3 -17 -2 61.39 19.1
-3 -17 -2 23.2 11.1
-2 -17 -2 21.2 8.4
-2 -17 -2 18.4 20.3
-2 -17 -2 41.9 16.3
-1 -17 -2 1 5.8
-1 -17 -2 15.5 14.9
-1 -17 -2 -5.1 19.9
0 -17 -2 52.19 22.6
0 -17 -2 63.59 9.2
0 -17 -2 72.99 16.1
1 -17 -2 237.98 37.8
1 -17 -2 272.57 27.5
1 -17 -2 228.48 17.8
2 -17 -2 59.39 26.5
2 -17 -2 60.99 15.9
3 -17 -2 25.3 28.2
4 -17 -2 20.4 31.3
4 -17 -2 54.49 15.1
-6 17 2 84.89 32
-6 -17 -1 18.1 18.9
-5 -17 -1 49.99 16.6
-4 -17 -1 31.2 13
-4 -17 -1 19.9 18.9
-3 -17 -1 7.4 16.5
-3 -17 -1 46.1 19.6
-3 -17 -1 31.7 11.1
-2 -17 -1 26.1 19
-2 -17 -1 7.2 14.7
-2 -17 -1 12.3 8.2
-1 -17 -1 99.79 23
-1 -17 -1 70.89 11.4
-1 -17 -1 85.79 17.8
0 -17 -1 -1.8 19.9
0 -17 -1 47.8 15.7
1 -17 -1 58.39 10.8
1 -17 -1 77.89 16.5
1 -17 -1 60.89 25.7
2 -17 -1 99.59 18.2
2 -17 -1 112.59 30
3 -17 -1 7.2 14.7
3 -17 -1 6.6 25.9
4 -17 -1 -15.5 29.2
-5 -17 0 96.49 19
-4 -17 0 6.6 12.8
-4 -17 0 -1.5 18
-3 -17 0 69.49 22.6
-3 -17 0 44.9 19.8
-3 -17 0 66.19 12.6
-2 -17 0 -10.2 8.2
-2 -17 0 17.8 16.5
-2 -17 0 4.7 19.8
-1 -17 0 13.9 15
-1 -17 0 9.3 8.2
-1 -17 0 22.5 19.8
0 -17 0 7.7 7.8
0 -17 0 49.5 21.4
0 -17 0 1.1 14.6
1 -17 0 13.9 22
1 -17 0 43.5 15.6
1 -17 0 6 9.3
2 -17 0 10.8 10.5
2 -17 0 -14.7 13.5
2 -17 0 -0.8 23.7
-3 17 0 74.29 17.2
3 -17 0 37.5 17.7
3 -17 0 44.3 29.2
-4 17 0 6.5 14.1
4 -17 0 11.1 32
-5 -17 1 42.9 17.2
-4 -17 1 -3.1 18.4
-3 -17 1 3.7 10.6
-3 -17 1 16.4 19.6
-3 -17 1 -3.5 16.4
-2 -17 1 114.19 25.5
-2 -17 1 70.69 18.9
-2 -17 1 95.79 13.3
-1 -17 1 96.19 14.9
-1 -17 1 48 23.4
-1 -17 1 87.39 19.8
0 17 -1 39.8 17
0 -17 1 16.2 15.3
0 -17 1 28 9.8
0 -17 1 38.7 22.2
-1 17 -1 68.49 17.5
1 -17 1 64.09 24.7
1 -17 1 64.99 12.4
1 -17 1 69.39 18.8
-2 17 -1 3.9 14.6
2 -17 1 21.9 15.5
2 -17 1 -2.4 24.3
2 -17 1 12.3 12
-3 17 -1 21.4 15
3 -17 1 19 16.6
3 -17 1 14.7 26.3
-4 17 -1 10 14.6
4 -17 1 5.9 31.5
-5 17 -1 25.2 15.3
-6 17 -1 19.6 15.2
-6 -17 2 112.99 23.5
-5 -17 2 51.89 17.2
-4 -17 2 41.9 15
-4 -17 2 79.29 21.7
-3 -17 2 -12.6 17.3
-3 -17 2 14.6 11.9
2 17 -2 55.69 20.1
-2 -17 2 80.29 23.4
-2 -17 2 65.09 13.7
-2 -17 2 91.39 20.6
1 17 -2 236.28 33.4
-1 -17 2 292.77 36.3
-1 -17 2 284.07 30.2
-1 -17 2 256.77 23.3
0 17 -2 64.79 17.4
0 -17 2 45.4 22.6
0 -17 2 68.89 13
0 -17 2 39.5 17.3
1 -17 2 -7.3 11.3
1 -17 2 10.9 17.1
1 -17 2 37.6 23.1
-2 17 -2 34.7 16.4
2 -17 2 48.8 25.1
2 -17 2 35.5 13.6
2 -17 2 38.5 17
-3 17 -2 51.89 16.5
3 -17 2 40.5 18.9
3 -17 2 40.7 29.1
-4 17 -2 22.4 15.7
-5 17 -2 23.5 15.8
-6 17 -2 18.8 16.3
-6 -17 3 68.89 20.7
-5 -17 3 2.4 16.2
-4 -17 3 31.5 14.8
-4 -17 3 23.1 23.4
3 17 -3 87.49 23.3
-3 -17 3 69.59 15.4
-3 -17 3 83.99 21.7
2 17 -3 1.6 18.5
-2 -17 3 -21.9 20.2
-2 -17 3 23.8 17.5
-2 -17 3 24.8 12.7
1 17 -3 168.88 26.8
-1 -17 3 209.68 29.9
-1 -17 3 235.68 23.2
-1 -17 3 247.08 35.2
0 17 -3 23.8 17.9
0 -17 3 31.2 12.5
0 -17 3 3.5 18.3
0 -17 3 53.59 22
-1 17 -3 -21.2 14.2
1 -17 3 20 18.7
1 -17 3 6.5 12.9
1 -17 3 4.1 23.4
2 -17 3 27.2 15.6
2 -17 3 46.7 19.4
2 -17 3 51.09 24.8
-3 17 -3 21.7 16.8
3 -17 3 20 20.2
-4 17 -3 -4.3 14.8
-5 17 -3 11.4 16.6
-6 17 -3 -16.2 16.7
-6 -17 4 10.3 21
-5 -17 4 63.69 19.5
4 17 -4 119.19 27.9
-4 -17 4 165.48 25.1
3 17 -4 97.89 23.8
-3 -17 4 81.39 23.6
-3 -17 4 115.99 18.7
2 17 -4 117.49 23.5
-2 -17 4 114.09 26.8
-2 -17 4 95.79 17.7
-2 -17 4 103.09 23.3
1 17 -4 63.89 19.9
-1 -17 4 82.79 22.4
-1 -17 4 120.59 26
-1 -17 4 79.09 19.4
0 17 -4 14.8 16.7
0 -17 4 25.1 14.1
0 -17 4 26.4 18.1
0 -17 4 45.2 23.2
-1 17 -4 90.79 21.3
1 -17 4 130.89 20.1
1 -17 4 99.79 27.2
1 -17 4 106.19 24.5
-2 17 -4 3 15.3
2 -17 4 24.6 19.2
2 -17 4 19.5 21
-3 17 -4 3.5 15.9
3 -17 4 10.3 18.5
-4 17 -4 0.9 18.5
-5 17 -4 -10.7 33.1
-6 17 -4 1.2 21.5
-5 -17 5 8.9 19.2
4 17 -5 24.1 22.7
-4 -17 5 14.4 17.3
3 17 -5 -7.1 20
-3 -17 5 34.7 23.9
-3 -17 5 43.7 16.3
2 17 -5 -8.7 18.6
-2 -17 5 -2.8 14.9
-2 -17 5 -6.1 22.7
-2 -17 5 30.7 21.1
1 17 -5 2 16.9
-1 -17 5 3.8 21.3
-1 -17 5 19 15.2
-1 -17 5 12.5 22.4
0 17 -5 15.6 17.6
0 -17 5 -10.8 19.2
0 -17 5 6.7 15.6
-1 17 -5 -9.7 15.8
1 -17 5 0.2 21.7
1 -17 5 -5.9 16.1
-2 17 -5 86.39 20.2
2 -17 5 54.09 23.6
2 -17 5 54.39 19.7
-3 17 -5 14.8 18.2
3 -17 5 46.7 20.6
-4 17 -5 18.5 18.6
-5 17 -5 -13.5 17.9
5 17 -6 102.89 29.6
-5 -17 6 152.08 26.2
4 17 -6 230.68 37.6
-4 -17 6 223.78 32.6
3 17 -6 162.68 29.1
-3 -17 6 247.68 30
2 17 -6 123.49 25.6
-2 -17 6 115.89 21
-2 -17 6 77.69 25.6
1 17 -6 44.6 19.8
-1 -17 6 2.4 16.3
-1 -17 6 -48.8 20.4
0 17 -6 127.29 23.4
0 -17 6 165.28 27.5
0 -17 6 124.49 27.3
-1 17 -6 366.06 37.4
1 -17 6 306.07 44.2
1 -17 6 306.37 36
-2 17 -6 90.19 21.1
2 -17 6 130.69 23.4
-3 17 -6 26.1 19.9
3 -17 6 49 23.2
-4 17 -6 -6 19.3
-5 17 -6 -12.5 19.6
4 17 -7 3.8 23.7
-4 -17 7 -24.1 20.5
3 17 -7 -15.6 20.8
-3 -17 7 53.19 20.7
2 17 -7 47.2 22.7
-2 -17 7 77.29 20.8
1 17 -7 -13.9 19.6
-1 -17 7 -4.1 18.9
-1 -17 7 14 24.4
0 17 -7 37.7 19.3
0 -17 7 -3.9 23.9
0 -17 7 56.09 22.1
-1 17 -7 73.89 22
1 -17 7 98.19 24.6
1 -17 7 24.3 26.4
-2 17 -7 9 20.3
2 -17 7 44.9 23.3
-3 17 -7 0.4 17.9
3 -17 7 4.7 25.5
-4 17 -7 22.4 19.9
4 17 -8 47.3 25.9
-4 -17 8 10.3 23.5
3 17 -8 180.08 31.9
-3 -17 8 236.98 36.3
2 17 -8 42.4 24.3
-2 -17 8 47.4 21.7
1 17 -8 226.28 34.5
-1 -17 8 224.98 31.7
0 17 -8 138.69 25.5
0 -17 8 138.99 27.7
-1 17 -8 83.29 23.6
1 -17 8 167.78 29.3
-2 17 -8 298.77 40
2 -17 8 338.27 43.8
-3 17 -8 9.9 21.7
3 -17 8 38.8 29.8
-4 17 -8 -43.9 20.7
3 17 -9 16.9 23.5
-3 -17 9 -4.2 24.4
2 17 -9 -4.2 22.2
-2 -17 9 60.89 24.5
1 17 -9 61.39 24
-1 -17 9 76.29 26.5
0 17 -9 1.6 21.5
0 -17 9 19.7 25.7
-1 17 -9 -12.6 21
1 -17 9 52.89 27.3
-2 17 -9 1.7 21.5
2 -17 9 -35.5 27.5
-3 17 -9 -44.6 24.2
3 -17 9 27.2 30
1 17 -10 108.69 28
-1 -17 10 90.39 31
0 17 -10 176.88 32.7
0 -17 10 204.48 35.9
-1 17 -10 40.5 25.4
1 -17 10 72.29 33.4
-2 -18 -8 249.38 37
-1 -18 -8 9.4 41.2
-1 -18 -8 19.2 21.1
0 -18 -8 21.3 18.8
2 -18 -8 -40.8 33.9
-3 -18 -7 27 28.3
-3 -18 -7 22.8 20.6
-2 -18 -7 10.8 22.8
-1 -18 -7 -11.5 18.7
0 -18 -7 -11.3 17.1
0 -18 -7 -22.1 27.6
1 -18 -7 46.1 18.9
1 -18 -7 53.49 38.8
3 -18 -7 38.7 15.3
3 -18 -7 32.1 60.29
-4 -18 -6 151.88 23.5
-3 -18 -6 85.89 24.6
-3 -18 -6 153.98 20.2
-2 -18 -6 5 19
-2 -18 -6 20.3 24
-2 -18 -6 7.6 11.8
-1 -18 -6 138.49 31.3
-1 -18 -6 134.99 23.6
1 -18 -6 29 15.6
2 -18 -6 34.3 33.6
3 -18 -6 18.1 22
3 -18 -6 -27 33.8
4 -18 -6 59.59 65.09
-4 -18 -5 2.6 16.7
-3 -18 -5 39.7 23.8
-3 -18 -5 30.7 21.9
-3 -18 -5 27.7 14.5
-2 -18 -5 3.5 10.7
-2 -18 -5 -1.2 19.1
-1 -18 -5 -5.9 18.1
-1 -18 -5 34.3 8
0 -18 -5 18.9 26.7
0 -18 -5 38.6 17.2
1 -18 -5 -1.8 28.8
1 -18 -5 -4 14.6
2 -18 -5 0 13.9
-5 -18 -4 120.69 22.9
-4 -18 -4 330.47 32.8
-4 -18 -4 413.46 43.4
-3 -18 -4 118.09 16.7
-3 -18 -4 84.59 23.6
-2 -18 -4 153.18 17
-2 -18 -4 113.29 28.6
-2 -18 -4 141.69 23.8
-1 -18 -4 -5.7 17.3
-1 -18 -4 12.3 6.7
-1 -18 -4 -11.8 24.5
0 -18 -4 56.39 18.1
1 -18 -4 379.36 33.8
2 -18 -4 89.59 17.7
2 -18 -4 53.29 31.9
3 -18 -4 6.7 33.6
4 -18 -4 40.4 15.7
-5 -18 -3 -21.8 25
-5 -18 -3 37 18.7
-4 -18 -3 63.39 16.1
-3 -18 -3 -35.3 19.5
-3 -18 -3 -1.6 21.2
-3 -18 -3 50.99 12.7
-2 -18 -3 9.5 9
-2 -18 -3 21.8 17.9
-2 -18 -3 -29.5 22.2
-1 -18 -3 52.99 8
0 -18 -3 51.19 8.3
0 -18 -3 86.79 35.2
0 -18 -3 56.39 17.6
1 -18 -3 35.2 25.4
1 -18 -3 40.4 8.1
1 -18 -3 46.9 16.2
2 -18 -3 15.9 31.2
2 -18 -3 57.69 17.5
3 -18 -3 -13.9 14.9
3 -18 -3 -12.5 32.3
-5 -18 -2 108.29 21.1
-4 -18 -2 75.59 27.2
-4 -18 -2 56.89 15.6
-3 -18 -2 223.28 34.5
-3 -18 -2 190.38 21.1
-2 -18 -2 79.29 13.5
-2 -18 -2 60.49 19.9
-1 -18 -2 185.58 30
-1 -18 -2 261.57 39.7
0 -18 -2 282.27 19.9
0 -18 -2 342.37 30.5
0 -18 -2 231.88 40.1
1 -18 -2 314.77 23.3
1 -18 -2 342.17 45.6
1 -18 -2 379.96 33.6
2 -18 -2 353.46 33.8
2 -18 -2 392.56 50.59
3 -18 -2 228.18 29.6
3 -18 -2 238.28 44.4
-5 -18 -1 -9.5 16.2
-4 -18 -1 57.39 15.3
-3 -18 -1 114.09 18
-3 -18 -1 121.59 25.2
-2 -18 -1 127.19 16.1
-2 -18 -1 122.89 23.2
-2 -18 -1 109.19 25.7
-1 -18 -1 50.89 18.6
-1 -18 -1 55.59 25.2
-1 -18 -1 65.69 10.2
0 -18 -1 54.09 27.6
0 -18 -1 65.29 10.2
0 -18 -1 59.49 17.9
1 -18 -1 102.59 21.1
1 -18 -1 72.19 31.5
1 -18 -1 96.99 12.9
2 -18 -1 -54.29 27.4
2 -18 -1 20.7 16.5
3 -18 -1 9.9 17.7
3 -18 -1 32.4 31.9
-5 -18 0 142.89 22.2
-4 -18 0 314.07 55.09
-4 -18 0 174.38 28.8
-3 -18 0 167.38 29
-3 -18 0 267.27 36.7
-3 -18 0 186.28 21.7
-2 -18 0 138.49 29.7
-2 -18 0 173.58 27.4
-2 -18 0 108.89 16.8
-1 -18 0 111.69 15.5
-1 -18 0 95.19 26.7
-1 -18 0 88.89 20.2
0 -18 0 35.9 17.9
0 -18 0 17.3 23.4
0 -18 0 28.8 10.2
1 -18 0 91.29 14
1 -18 0 85.49 28.3
2 -18 0 65.39 31
2 -18 0 124.89 20.8
2 -18 0 183.48 28
3 -18 0 161.78 37.7
3 -18 0 121.99 22.9
-5 -18 1 18.1 16.6
-4 -18 1 14.5 14.7
-3 -18 1 24.3 21.1
-3 -18 1 18.8 12.5
-3 -18 1 -2.9 21.6
-2 -18 1 20.7 19.2
-2 -18 1 2.4 10.4
-2 -18 1 20.9 23.4
-1 -18 1 85.39 14.1
-1 -18 1 128.89 22.6
-1 -18 1 82.99 25.4
0 -18 1 84.29 13.5
0 -18 1 72.89 27.1
0 -18 1 67.79 21
-1 18 -1 81.19 21
1 -18 1 99.19 21.2
1 -18 1 74.09 14.6
1 -18 1 64.49 27.8
-2 18 -1 98.69 25.7
2 -18 1 147.99 22
2 -18 1 75.69 30.4
2 -18 1 89.39 21.5
-3 18 -1 124.59 22.5
3 -18 1 132.89 41.2
3 -18 1 103.39 23.8
-4 18 -1 66.39 18.5
-5 18 -1 24.5 17.5
-5 -18 2 110.29 21.5
-4 -18 2 83.79 17.8
-3 -18 2 258.47 38.7
-3 -18 2 213.58 33.1
-2 -18 2 368.06 30.2
-2 -18 2 368.86 40.4
-2 -18 2 419.16 44.9
1 18 -2 344.67 40.1
-1 -18 2 367.66 29.4
-1 -18 2 329.77 37.2
-1 -18 2 409.86 47.2
0 18 -2 402.26 36.8
0 -18 2 348.27 46.1
0 -18 2 322.17 28.7
0 -18 2 316.77 37.7
-1 18 -2 224.88 29.2
1 -18 2 221.48 37.2
1 -18 2 202.88 24.6
1 -18 2 210.88 32.9
-2 18 -2 117.89 21
2 -18 2 51.79 16.4
2 -18 2 73.19 22.7
2 -18 2 42.2 28.4
-3 18 -2 166.18 29.2
3 -18 2 182.18 28.6
-4 18 -2 57.59 19.2
-5 18 -2 122.69 22.7
-4 -18 3 39.3 16.7
-3 -18 3 -1.5 14.3
-3 -18 3 18.9 26.1
2 18 -3 99.69 25.4
-2 -18 3 90.39 28.8
-2 -18 3 112.89 25.2
1 18 -3 41.3 20.9
-1 -18 3 34.2 20.5
-1 -18 3 16 13.5
-1 -18 3 27.4 24.2
0 18 -3 84.99 21.7
0 -18 3 55.89 16.4
0 -18 3 74.59 27.6
0 -18 3 79.69 22.9
-1 18 -3 60.19 19.2
1 -18 3 54.19 26
1 -18 3 50.49 16.9
1 -18 3 16.3 40.6
-2 18 -3 20.4 18.2
2 -18 3 -17.9 16.2
2 -18 3 11.4 21.1
-3 18 -3 7.6 18.5
3 -18 3 35.3 21.2
-4 18 -3 34.4 21.6
-5 18 -3 44.2 21.2
-5 -18 4 -13.6 18.8
3 18 -4 28.9 22.5
-3 -18 4 47.1 17.1
2 18 -4 26.6 23
-2 -18 4 76.09 24.7
-2 -18 4 83.79 17.7
1 18 -4 359.56 38.1
-1 -18 4 305.27 31.3
-1 -18 4 300.27 42.8
-1 -18 4 369.96 39.3
0 18 -4 49.99 19.9
0 -18 4 43.6 20
0 -18 4 82.59 30.7
0 -18 4 -4.3 22.2
-1 18 -4 8.8 16.8
1 -18 4 -17.3 16.4
1 -18 4 26.9 23.5
-2 18 -4 152.98 25.4
2 -18 4 160.48 29.6
2 -18 4 124.99 23.9
-3 18 -4 104.09 23.4
3 -18 4 136.19 25.2
-4 18 -4 362.76 38.2
-5 18 -4 132.99 24.4
4 18 -5 22.8 25.5
-4 -18 5 20.8 19.3
3 18 -5 -18.1 22.6
2 18 -5 -9.2 20.1
-2 -18 5 39.2 17
1 18 -5 16.2 19.9
-1 -18 5 19 16.6
-1 -18 5 -17.4 21.7
0 18 -5 10.9 19.3
0 -18 5 -26 24.3
0 -18 5 -26.4 16.5
-1 18 -5 30.2 19.1
1 -18 5 43.9 24.8
1 -18 5 34.5 19.1
-2 18 -5 25.2 20.9
2 -18 5 7.5 20
2 -18 5 71.19 26.9
-3 18 -5 9.2 20.7
-4 18 -5 -14.4 19.7
4 18 -6 39.2 27.9
-4 -18 6 5.3 21.5
3 18 -6 -1.8 23.8
-3 -18 6 -7.5 18.8
2 18 -6 19.3 22.3
-2 -18 6 58.99 22.8
1 18 -6 -19 18.8
-1 -18 6 26.2 20
0 18 -6 115.49 24.7
0 -18 6 142.09 30.3
0 -18 6 81.29 23.5
-1 18 -6 141.69 25.5
1 -18 6 173.28 28.3
1 -18 6 108.29 29.8
-2 18 -6 32.7 20.4
-3 18 -6 112.69 25.9
3 -18 6 142.99 33.7
-4 18 -6 145.09 25.9
3 18 -7 62.79 27.7
-3 -18 7 49.4 22.9
2 18 -7 47.4 25.7
-2 -18 7 52.39 21.9
1 18 -7 29.7 23.1
-1 -18 7 122.39 24.6
0 18 -7 -22.5 20
0 -18 7 6.1 21.2
-1 18 -7 45 21.4
1 -18 7 -22.4 22.2
-2 18 -7 3 22.3
2 -18 7 -4.1 24.6
-3 18 -7 21.7 22.9
3 -18 7 45 30.2
2 18 -8 -29.7 23.9
-2 -18 8 35.4 24.2
1 18 -8 -18.3 23.4
-1 -18 8 -32.9 23
0 18 -8 39.1 23.2
0 -18 8 44.8 25.7
-1 18 -8 53.89 24
1 -18 8 34.5 26.8
-2 18 -8 238.58 40
2 -18 8 179.18 35.2
-2 -19 -6 118.39 27.6
-1 -19 -6 250.57 35.3
0 -19 -6 96.99 21
0 -19 -6 68.99 33.4
-2 -19 -5 -18 20.1
-2 -19 -5 -3.4 29.6
-2 -19 -5 24 11.6
-1 -19 -5 1.8 20
-1 -19 -5 8.8 7.6
0 -19 -5 8.8 18.8
1 -19 -5 129.39 21.9
1 -19 -5 138.99 38.5
2 -19 -5 97.09 42.6
-3 -19 -4 -6.6 26.3
-3 -19 -4 4.1 13.3
-2 -19 -4 25.3 20.9
-2 -19 -4 -3.1 10.2
-1 -19 -4 17 18.7
-1 -19 -4 45.8 7.9
0 -19 -4 -1.2 17.8
0 -19 -4 -3.4 31
1 -19 -4 92.39 54.09
1 -19 -4 35.8 18.6
2 -19 -4 138.09 40.8
-4 -19 -3 2.2 15.7
-4 -19 -3 -18.4 25.9
-3 -19 -3 23.2 12.6
-2 -19 -3 8.9 28
-2 -19 -3 4.9 20.6
-2 -19 -3 0.2 9.4
-1 -19 -3 65.19 29.6
-1 -19 -3 27.8 18.8
-1 -19 -3 29.5 7.8
0 -19 -3 1 17.4
0 -19 -3 16.6 6.7
1 -19 -3 17.8 19.4
1 -19 -3 42.5 51.79
2 -19 -3 52.99 35.7
2 -19 -3 8.4 16.9
-4 -19 -2 85.29 17.6
-3 -19 -2 -2.2 24.5
-3 -19 -2 -8.6 11.6
-2 -19 -2 45.1 11
-2 -19 -2 26.7 21.7
-1 -19 -2 28.1 8.6
-1 -19 -2 25.3 19.3
0 -19 -2 79.29 32
0 -19 -2 33.5 18.4
0 -19 -2 39.2 8.8
1 -19 -2 62.89 30.8
2 -19 -2 183.38 30.1
2 -19 -2 132.69 38.2
-4 -19 -1 1 15.8
-4 -19 -1 -29.5 28.5
-3 -19 -1 6.6 11.7
-2 -19 -1 25.8 10.4
-2 -19 -1 9.4 19.3
-1 -19 -1 -19.6 18.4
-1 -19 -1 14.3 25.8
-1 -19 -1 3.2 9.3
0 -19 -1 17.8 9.5
0 -19 -1 12.9 17.5
0 -19 -1 -9.4 26
1 -19 -1 30.5 11.1
1 -19 -1 8.3 20.5
1 -19 -1 -36.4 30.9
2 -19 -1 11.3 19.5
2 -19 -1 -13.8 35.8
-4 -19 0 28.4 30.2
-4 -19 0 11.9 15.8
-3 -19 0 -53.19 26.3
-3 -19 0 -1.8 12.4
-2 -19 0 4.5 10.8
-2 -19 0 -10.9 26
-2 -19 0 -13.6 20.3
-1 -19 0 21.5 20.9
-1 -19 0 -28.5 23.9
-1 -19 0 -1.6 10.3
0 -19 0 -36.6 27.8
0 -19 0 21.7 11
0 -19 0 10.4 18.8
1 -19 0 -38.6 16.9
1 -19 0 -8.5 11.6
1 -19 0 1.1 27.4
3 -19 0 -14.2 20.5
-4 -19 1 -3.2 15.7
-3 -19 1 6.8 13.5
-3 -19 1 19.5 29.7
-2 -19 1 3.5 12.4
-2 -19 1 -29.9 19.4
-2 -19 1 39.8 27
-1 -19 1 32 21.8
-1 -19 1 10.6 25.2
-1 -19 1 -0.7 11.3
0 -19 1 1 27.1
0 -19 1 2.9 11.7
0 -19 1 83.69 21.1
1 -19 1 4.7 13
1 -19 1 8.5 20.3
-2 19 -1 6.3 18.6
2 -19 1 24.5 15.4
-3 19 -1 -1.3 25.5
3 -19 1 27.2 22.2
-4 19 -1 35.4 20.1
-4 -19 2 119.59 20.5
-3 -19 2 -24.9 14.2
-2 -19 2 136.79 18.8
-2 -19 2 74.59 28.9
-1 -19 2 80.49 16.3
-1 -19 2 50.29 25.1
0 19 -2 10.4 20.9
0 -19 2 44.2 22.7
0 -19 2 38.5 14.8
-1 19 -2 6.9 21
1 -19 2 6.6 15.2
1 -19 2 36.4 22.8
-2 19 -2 50.39 21.9
2 -19 2 36.1 23.9
2 -19 2 16.3 17.4
-3 19 -2 20.4 20.4
3 -19 2 7 23.5
-4 19 -2 43.3 21.4
-4 -19 3 12.8 17.6
-3 -19 3 24 16.4
2 19 -3 38.1 23.7
-2 -19 3 16.4 15.2
1 19 -3 -7.6 21
-1 -19 3 1.5 23.5
0 19 -3 -1.2 21.7
0 -19 3 19.4 16.4
-1 19 -3 47.9 22.5
1 -19 3 23.6 25.3
1 -19 3 -8 19.4
-2 19 -3 16.9 20.5
2 -19 3 -14.8 18.4
2 -19 3 15.7 22.2
-3 19 -3 3 21.4
-4 19 -3 34 21.6
3 19 -4 410.36 45.3
-3 -19 4 271.17 33.6
2 19 -4 169.68 30.2
-2 -19 4 129.09 21.4
1 19 -4 54.59 23.8
-1 -19 4 66.09 18.2
0 19 -4 19.8 22.8
0 -19 4 50.89 27.5
0 -19 4 14.3 17.6
-1 19 -4 19.4 21.7
1 -19 4 68.39 25.7
1 -19 4 16.3 19.3
-2 19 -4 45 22.7
2 -19 4 -13.8 27.6
2 -19 4 0.5 19.9
-3 19 -4 -25.8 21.4
3 19 -5 66.99 30.2
-3 -19 5 61.29 21.5
2 19 -5 69.49 26.8
-2 -19 5 50.19 19.6
1 19 -5 148.39 29
-1 -19 5 187.58 30.5
0 19 -5 -14.9 23.7
0 -19 5 29.3 20
-1 19 -5 -33.8 21.6
1 -19 5 -13.7 20.8
1 -19 5 -19.6 25.2
-2 19 -5 -27.7 21.1
2 -19 5 16.9 22.6
2 -19 5 2.9 27.3
-3 19 -5 13.6 24.2
2 19 -6 -37.4 23.1
-2 -19 6 -20.6 20.6
1 19 -6 11.1 26.3
-1 -19 6 66.29 25
0 19 -6 41.5 25.1
0 -19 6 74.69 27.9
-1 19 -6 177.18 31.4
1 -19 6 168.78 31.2
-2 19 -6 144.89 29.7
2 -19 6 65.59 28.2
-1 -20 -3 28.4 32.7
-1 -20 -3 109.49 24.8
0 -20 -3 85.19 37.7
0 -20 -3 65.19 23
1 -20 -3 7.3 20
-2 -20 -2 -25.4 30.7
-1 -20 -2 25.7 22.3
-1 -20 -2 88.49 33.9
-1 -20 -2 50.49 11.8
0 -20 -2 140.49 24.5
0 -20 -2 117.49 17.8
1 -20 -2 61.19 16
1 -20 -2 30.5 22.3
-2 -20 -1 4 13.7
-1 -20 -1 -25.1 22.9
-1 -20 -1 25.8 11.2
0 -20 -1 34.6 21.5
0 -20 -1 14.2 11.2
1 -20 -1 77.49 22.6
1 -20 -1 51.59 14
2 -20 -1 46.2 23.4
-2 -20 0 209.78 23.4
-1 -20 0 168.58 21.6
-1 -20 0 202.68 31
0 -20 0 121.89 17.2
0 -20 0 149.29 28.9
1 -20 0 196.48 29.9
1 -20 0 151.08 23.3
2 -20 0 262.47 39.1
-2 -20 1 86.99 17.2
-1 -20 1 21.7 26
-1 -20 1 22.9 14.1
0 -20 1 -22.9 23.3
0 -20 1 36 15
1 -20 1 39.8 24.7
1 -20 1 10.2 15.6
2 -20 1 11.2 23.4
2 -20 1 -2.3 17
-2 -20 2 104.89 27.2
-1 -20 2 69.49 17.6
0 -20 2 77.09 26.9
0 -20 2 112.99 19.6
-1 20 -2 35.4 25.7
1 -20 2 62.89 18.5
1 -20 2 65.09 25.8
-2 20 -2 -14.5 22
2 -20 2 31.8 27.4
2 -20 2 25.3 22.7
1 20 -3 -22.3 24.6
-1 -20 3 12.2 17.1
0 20 -3 44.5 27.4
0 -20 3 62.09 19.6
-1 20 -3 77.69 26
1 -20 3 75.39 30.3
1 -20 3 53.19 21
