#------------------------------------------------------------------------------
#$Date: 2019-10-28 18:26:37 +0200 (Mon, 28 Oct 2019) $
#$Revision: 220272 $
#$URL: file:///home/coder/svn-repositories/cod/cif/4/51/51/4515170.cif $
#------------------------------------------------------------------------------
#
# This file is available in the Crystallography Open Database (COD),
# http://www.crystallography.net/
#
# All data on this site have been placed in the public domain by the
# contributors.
#
data_4515170
loop_
_publ_author_name
'Xue, Hui'
'Cao, Junze'
'Zhao, Liang'
'Hao, Haigang'
'Hong, Maochun'
_publ_section_title
;
 Conformation-Driven Self-Assembly: From a 1D Metal-Organic Polymer to an
 Infinite Double Nanotube.
;
_journal_issue                   6
_journal_name_full               'ACS omega'
_journal_page_first              10755
_journal_page_last               10760
_journal_paper_doi               10.1021/acsomega.9b01344
_journal_volume                  4
_journal_year                    2019
_chemical_formula_sum            'C23 H19 Ag1.5 Cl3 F3 N6 O3 S4'
_chemical_formula_weight         880.84
_space_group_crystal_system      triclinic
_space_group_IT_number           2
_space_group_name_Hall           '-P 1'
_space_group_name_H-M_alt        'P -1'
_symmetry_space_group_name_Hall  '-P 1'
_symmetry_space_group_name_H-M   'P -1'
_atom_sites_solution_hydrogens   geom
_audit_creation_method           SHELXL-2017/1
_cell_angle_alpha                86.374(3)
_cell_angle_beta                 84.081(3)
_cell_angle_gamma                83.451(3)
_cell_formula_units_Z            2
_cell_length_a                   8.9673(2)
_cell_length_b                   14.7355(6)
_cell_length_c                   15.1832(6)
_cell_measurement_reflns_used    6927
_cell_measurement_temperature    100(2)
_cell_measurement_theta_max      73.0260
_cell_measurement_theta_min      4.0790
_cell_volume                     1979.86(12)
_computing_cell_refinement
;
CrysAlisPro, Agilent Technologies,
Version 1.171.37.35 (release 13-08-2014 CrysAlis171 .NET)
(compiled Aug 13 2014,18:06:01)
;
_computing_data_collection
;
CrysAlisPro, Agilent Technologies,
Version 1.171.37.35 (release 13-08-2014 CrysAlis171 .NET)
(compiled Aug 13 2014,18:06:01)
;
_computing_data_reduction
;
CrysAlisPro, Agilent Technologies,
Version 1.171.37.35 (release 13-08-2014 CrysAlis171 .NET)
(compiled Aug 13 2014,18:06:01)
;
_computing_molecular_graphics    SHELXTL
_computing_publication_material  SHELXTL
_computing_structure_refinement  'SHELXL-2017/1 (Sheldrick, 2017)'
_computing_structure_solution    'SHELXL-2017/1 (Sheldrick, 2017)'
_diffrn_ambient_temperature      100(2)
_diffrn_detector_area_resol_mean 10.5594
_diffrn_measured_fraction_theta_full 0.998
_diffrn_measured_fraction_theta_max 0.969
_diffrn_measurement_device_type  'SuperNova, Dual, Cu at zero, Atlas'
_diffrn_measurement_method       '\w scans'
_diffrn_radiation_type           CuK\a
_diffrn_radiation_wavelength     1.54184
_diffrn_reflns_av_R_equivalents  0.0336
_diffrn_reflns_av_unetI/netI     0.0424
_diffrn_reflns_Laue_measured_fraction_full 0.998
_diffrn_reflns_Laue_measured_fraction_max 0.969
_diffrn_reflns_limit_h_max       8
_diffrn_reflns_limit_h_min       -11
_diffrn_reflns_limit_k_max       17
_diffrn_reflns_limit_k_min       -17
_diffrn_reflns_limit_l_max       18
_diffrn_reflns_limit_l_min       -18
_diffrn_reflns_number            14712
_diffrn_reflns_point_group_measured_fraction_full 0.998
_diffrn_reflns_point_group_measured_fraction_max 0.969
_diffrn_reflns_theta_full        67.684
_diffrn_reflns_theta_max         73.197
_diffrn_reflns_theta_min         4.100
_diffrn_source                   'sealed X-ray tube'
_exptl_absorpt_coefficient_mu    10.246
_exptl_absorpt_correction_T_max  1.00000
_exptl_absorpt_correction_T_min  0.56878
_exptl_absorpt_correction_type   multi-scan
_exptl_absorpt_process_details
;
CrysAlisPro, Agilent Technologies,
Version 1.171.37.35 (release 13-08-2014 CrysAlis171 .NET)
(compiled Aug 13 2014,18:06:01)
Empirical absorption correction using spherical harmonics,
 implemented in SCALE3 ABSPACK scaling algorithm.
;
_exptl_crystal_colour            yellow
_exptl_crystal_density_diffrn    1.478
_exptl_crystal_density_method    'not measured'
_exptl_crystal_description       laminar
_exptl_crystal_F_000             871
_exptl_crystal_size_max          0.3
_exptl_crystal_size_mid          0.2
_exptl_crystal_size_min          0.15
_refine_diff_density_max         1.142
_refine_diff_density_min         -1.032
_refine_diff_density_rms         0.116
_refine_ls_extinction_method     none
_refine_ls_goodness_of_fit_ref   1.038
_refine_ls_hydrogen_treatment    constr
_refine_ls_matrix_type           full
_refine_ls_number_parameters     394
_refine_ls_number_reflns         7691
_refine_ls_number_restraints     24
_refine_ls_restrained_S_all      1.037
_refine_ls_R_factor_all          0.0602
_refine_ls_R_factor_gt           0.0508
_refine_ls_shift/su_max          0.001
_refine_ls_shift/su_mean         0.000
_refine_ls_structure_factor_coef Fsqd
_refine_ls_weighting_details
'w=1/[\s^2^(Fo^2^)+(0.0511P)^2^+9.5432P] where P=(Fo^2^+2Fc^2^)/3'
_refine_ls_weighting_scheme      calc
_refine_ls_wR_factor_gt          0.1272
_refine_ls_wR_factor_ref         0.1329
_reflns_Friedel_coverage         0.000
_reflns_number_gt                6592
_reflns_number_total             7691
_reflns_threshold_expression     'I > 2\s(I)'
_cod_data_source_file            ao9b01344_si_001.cif
_cod_data_source_block           tpst-ag_sq
_cod_original_formula_sum        'C23 H19 Ag1.50 Cl3 F3 N6 O3 S4'
_cod_database_code               4515170
_shelx_shelxl_version_number     2017/1
_shelx_space_group_comment
;
The symmetry employed for this shelxl refinement is uniquely defined
by the following loop, which should always be used as a source of
symmetry information in preference to the above space-group names.
They are only intended as comments.
;
_shelx_res_file
;
TITL CF solution in P-1
    tpst-ag_sq.res
    created by SHELXL-2017/1 at 10:33:59 on 30-May-2018
CELL 1.54184 8.9673 14.7355 15.1832 86.374 84.081 83.451
ZERR 2.0000 0.0002 0.0006 0.0006 0.003 0.003 0.003
LATT 1
SFAC C H AG F N O S CL
UNIT 46 38 3 6 12 6 8 6
BOND
ISOR 0.005 N1 N4 C16 C19
ACTA
FMAP 2 1 53
GRID
PLAN 25 0 0
MERG 2
TEMP -100
L.S. 5 0  141
ABIN
WGHT    0.051100    9.543200
FVAR       2.78350
AG1   3    2.000000    0.000000    0.500000    10.50000    0.02157    0.03585 =
         0.04858    0.00101   -0.00959    0.00107
CL1   8    0.845781    0.365018    0.605035    11.00000    0.05571    0.03482 =
         0.05121    0.00614   -0.01130    0.00101
S1    7    1.295377    0.351112    0.724342    11.00000    0.02398    0.03183 =
         0.03722   -0.00612   -0.00318   -0.00633
F1    4    0.836236    0.377392    0.271069    11.00000    0.04346    0.08132 =
         0.07851   -0.00752   -0.01207   -0.01910
O1    6    0.521111    0.450538    0.305040    11.00000    0.05076    0.09266 =
         0.05746   -0.03131    0.00900   -0.01069
N1    5    1.245586    0.260307    0.592191    11.00000    0.01734    0.02698 =
         0.03343   -0.00404   -0.00258   -0.00055
C1    1    1.170255    0.201136    0.556614    11.00000    0.01706    0.02496 =
         0.03329   -0.00161   -0.00588    0.00429
AG2   3    0.606276    0.580852    0.976372    11.00000    0.02644    0.04327 =
         0.03709   -0.01318   -0.00093   -0.00565
CL2   8    0.706929    0.479227    0.466939    11.00000    0.04495    0.06971 =
         0.04072    0.00274   -0.01394    0.00072
S2    7    1.202738    0.184035    0.442994    11.00000    0.02296    0.03711 =
         0.03119   -0.00811   -0.00324   -0.00044
F2    4    0.793783    0.297762    0.165104    11.00000    0.07037    0.06176 =
         0.05091   -0.00956   -0.00479    0.01007
O2    6    0.459846    0.352672    0.195105    11.00000    0.04622    0.04730 =
         0.04577   -0.00188   -0.00711   -0.01265
N2    5    1.066299    0.150623    0.599560    11.00000    0.02078    0.02800 =
         0.03622   -0.00311   -0.00576   -0.00079
C2    1    1.039743    0.164816    0.685629    11.00000    0.02039    0.02165 =
         0.03678   -0.00290   -0.00210    0.00177
CL3   8    0.878459    0.558396    0.590122    11.00000    0.04317    0.03507 =
         0.04546    0.00082   -0.00328    0.00155
S3    7    0.910275    0.096422    0.741662    11.00000    0.02499    0.03004 =
         0.04694   -0.00075    0.00347   -0.00657
F3    4    0.698554    0.268012    0.297896    11.00000    0.06243    0.09998 =
         0.08943    0.06349   -0.01307   -0.02249
O3    6    0.616613    0.474923    0.151542    11.00000    0.04638    0.03869 =
         0.05941    0.01433    0.01064   -0.00307
N3    5    1.102456    0.224510    0.729424    11.00000    0.02331    0.02531 =
         0.03132   -0.00573   -0.00241   -0.00150
C3    1    1.203107    0.269666    0.678810    11.00000    0.02109    0.02338 =
         0.03272   -0.00609   -0.00453    0.00386
S4    7    0.564264    0.411644    0.219886    11.00000    0.03694    0.03589 =
         0.03545   -0.00170    0.00014   -0.01068
N4    5    1.781762    0.074816    0.479410    11.00000    0.02462    0.02934 =
         0.03595   -0.00425   -0.00679   -0.00280
C4    1    1.374019    0.238590    0.413787    11.00000    0.02433    0.03442 =
         0.03110    0.00039   -0.00237    0.00001
AFIX  23
H4A   2    1.385852    0.252263    0.348920    11.00000   -1.20000
H4B   2    1.365005    0.297297    0.443220    11.00000   -1.20000
AFIX   0
N5    5    0.800027    0.493440    0.925407    11.00000    0.02387    0.03436 =
         0.03271   -0.00625   -0.00413   -0.00522
C5    1    1.512119    0.179468    0.440657    11.00000    0.02208    0.02705 =
         0.02654    0.00199    0.00161   -0.00179
N6    5    0.559259    0.319633    0.962328    11.00000    0.02460    0.03219 =
         0.03518   -0.00627   -0.00318   -0.00707
C6    1    1.556344    0.095486    0.405131    11.00000    0.03244    0.03593 =
         0.04500   -0.01208   -0.01448    0.00402
AFIX  43
H6    2    1.495457    0.071824    0.366329    11.00000   -1.20000
AFIX   0
C7    1    1.689062    0.046145    0.426158    11.00000    0.03212    0.02893 =
         0.04719   -0.00875   -0.01404    0.00278
AFIX  43
H7    2    1.716271   -0.011696    0.401316    11.00000   -1.20000
AFIX   0
C8    1    1.604401    0.207974    0.498891    11.00000    0.03066    0.03421 =
         0.04907   -0.01084   -0.00528   -0.00316
AFIX  43
H8    2    1.576705    0.263889    0.527278    11.00000   -1.20000
AFIX   0
C9    1    1.735600    0.155415    0.515464    11.00000    0.02261    0.03814 =
         0.04921   -0.01112   -0.01068   -0.00211
AFIX  43
H9    2    1.797621    0.177240    0.554773    11.00000   -1.20000
AFIX   0
C10   1    0.910939    0.123282    0.856014    11.00000    0.02727    0.03798 =
         0.04041    0.00508    0.00044    0.00206
AFIX  23
H10A  2    0.907472    0.065898    0.893416    11.00000   -1.20000
H10B  2    1.007462    0.147373    0.862981    11.00000   -1.20000
AFIX   0
C11   1    0.783668    0.191397    0.890352    11.00000    0.02508    0.02838 =
         0.03612   -0.00067   -0.00519   -0.00736
C12   1    0.721252    0.180774    0.977134    11.00000    0.04105    0.03327 =
         0.03842    0.00826    0.00013   -0.00442
AFIX  43
H12   2    0.754827    0.129043    1.013328    11.00000   -1.20000
AFIX   0
C13   1    0.611032    0.244941    1.010745    11.00000    0.03480    0.03937 =
         0.03142    0.00277    0.00492   -0.01098
AFIX  43
H13   2    0.569455    0.236523    1.070439    11.00000   -1.20000
AFIX   0
C14   1    0.727878    0.267381    0.840283    11.00000    0.02614    0.03267 =
         0.03185    0.00057   -0.00309   -0.00907
AFIX  43
H14   2    0.766524    0.276579    0.780126    11.00000   -1.20000
AFIX   0
C15   1    0.616655    0.329440    0.877626    11.00000    0.02453    0.03085 =
         0.03449   -0.00352   -0.00771   -0.00625
AFIX  43
H15   2    0.579358    0.380873    0.842250    11.00000   -1.20000
AFIX   0
C16   1    1.221025    0.341598    0.838855    11.00000    0.03399    0.03094 =
         0.03495   -0.00284   -0.00934   -0.00037
AFIX  23
H16A  2    1.215597    0.275920    0.855493    11.00000   -1.20000
H16B  2    1.294419    0.363173    0.875021    11.00000   -1.20000
AFIX   0
C17   1    1.067666    0.392445    0.864859    11.00000    0.02186    0.02904 =
         0.03200   -0.00514   -0.00387   -0.00759
C18   1    0.995499    0.457355    0.809547    11.00000    0.02663    0.03557 =
         0.02743   -0.00061    0.00125   -0.00377
AFIX  43
H18   2    1.036736    0.468410    0.750168    11.00000   -1.20000
AFIX   0
C19   1    0.861610    0.506209    0.842183    11.00000    0.03173    0.03342 =
         0.03189   -0.00242   -0.00564   -0.00290
AFIX  43
H19   2    0.811853    0.550449    0.803823    11.00000   -1.20000
AFIX   0
C20   1    1.001329    0.377344    0.950253    11.00000    0.03001    0.03131 =
         0.03274    0.00271   -0.01145   -0.00962
AFIX  43
H20   2    1.047062    0.331956    0.989193    11.00000   -1.20000
AFIX   0
C21   1    0.868142    0.428724    0.978489    11.00000    0.02734    0.04035 =
         0.03038   -0.00469   -0.00343   -0.01169
AFIX  43
H21   2    0.823515    0.417919    1.037175    11.00000   -1.20000
AFIX   0
C22   1    0.731114    0.333911    0.239988    11.00000    0.04620    0.04675 =
         0.03715    0.00739   -0.00165   -0.01504
C42   1    0.757100    0.475567    0.575678    11.00000    0.04110    0.03786 =
         0.04160    0.00248   -0.00780    0.00514
AFIX  13
H42   2    0.663078    0.487795    0.616550    11.00000   -1.20000
AFIX   0
HKLF 4




REM  CF solution in P-1
REM R1 =  0.0508 for    6592 Fo > 4sig(Fo)  and  0.0602 for all    7691 data
REM    394 parameters refined using     24 restraints

END

WGHT      0.0511      9.5432

REM Highest difference peak  1.142,  deepest hole -1.032,  1-sigma level  0.116
Q1    1   0.6805  0.5079  0.5223  11.00000  0.05    1.14
Q2    1   0.5759  0.5819  1.0279  11.00000  0.05    1.05
Q3    1   0.5834  0.6371  0.9608  11.00000  0.05    1.04
Q4    1   0.6261  0.4022  0.1742  11.00000  0.05    1.02
Q5    1   0.6665  0.5795  0.9215  11.00000  0.05    0.95
Q6    1   0.5680  0.5200  1.0052  11.00000  0.05    0.94
Q7    1   0.6424  0.3377  0.3554  11.00000  0.05    0.93
Q8    1   0.6355  0.6395  0.9551  11.00000  0.05    0.93
Q9    1   1.9508 -0.0609  0.5413  11.00000  0.05    0.92
Q10   1   1.9876  0.0565  0.4819  11.00000  0.05    0.84
Q11   1   1.9435 -0.0013  0.5519  11.00000  0.05    0.74
Q12   1   0.6839  0.3312  0.1544  11.00000  0.05    0.69
Q13   1   1.3107  0.2975  0.7467  11.00000  0.05    0.61
Q14   1   0.6032  0.4848  0.3433  11.00000  0.05    0.61
Q15   1   0.6477  0.4952  0.9357  11.00000  0.05    0.60
Q16   1   0.7947  0.4329  0.2976  11.00000  0.05    0.57
Q17   1   0.9245  0.0426  0.7566  11.00000  0.05    0.57
Q18   1   0.8914  0.5791  0.6422  11.00000  0.05    0.57
Q19   1   0.4603  0.3995  0.2198  11.00000  0.05    0.56
Q20   1   0.7956 -0.1210  0.9419  11.00000  0.05    0.53
Q21   1   1.5139 -0.1029  0.2632  11.00000  0.05    0.52
Q22   1   0.6824  0.4023  0.3227  11.00000  0.05    0.51
Q23   1   0.5201  0.5579  0.9526  11.00000  0.05    0.51
Q24   1   0.7440  0.3580  0.6357  11.00000  0.05    0.50
Q25   1   0.6801  0.5055  0.1261  11.00000  0.05    0.49
;
_shelx_res_checksum              15001
_shelx_hkl_file
;
   0   0   2 44385.6 869.633   1
   0   0  -2 44031.3 654.013   2
   0   0   3 63866.1 1325.19   4
   0   0   3 62599.9 1270.63   1
   0   0  -3 64965.7 975.175   2
   0   0   4 167524. 2474.12   4
   0   0   4 170198. 2456.91   1
   0   0   5 40514.8 1356.23   1
   0   0   5 38275.6 1073.10   6
   0   0   5 40795.8 1397.95   4
   0   0   6 3426.72 380.577   6
   0   0   6 3590.56 536.275   1
   0   0   6 4035.76 526.896   4
   0   0   7 80692.2 2391.96   4
   0   0   7 76645.2 1803.41   6
   0   0   7 80138.5 2319.78   1
   0   0   8 945.972 302.437   1
   0   0   8 1075.32 258.368   6
   0   0   8 1222.93 364.467   4
   0   0   9 40679.7 2037.27   4
   0   0   9 45963.3 2073.57   1
   0   0   9 44269.6 1553.06   6
   0   0  10 9207.03 1031.09   4
   0   0  11 625.057 338.430   4
   0   0  11 496.153 156.727  12
   0   0  12 4041.31 354.974  14
   0   0  12 4221.26 377.456  12
   0   0  13 7274.97 475.233  14
   0   0  13 7915.53 511.983  12
   0   0  14 543.034 173.982  14
   0   0 -15 258.624 176.829  17
   0   0  15 456.721 156.938  14
   0   0 -16 4247.41 400.131  17
   0   0  16 4501.50 359.709  14
   0   0 -17 4056.26 345.425  17
   0   0  18 139.972 93.5326  10
   0   0 -18 22.6170 91.4477  17
   0  -1  18 8808.84 378.918  10
   0   1 -18 6549.09 337.824  17
   0  -1  17 308.482 133.044  14
   0   1 -17 305.599 154.062  17
   0  -1  16 14585.1 609.920  14
   0   1 -16 13133.7 662.350  17
   0  -1  15 188.485 143.084  14
   0  -1  14 17621.3 727.617  14
   0  -1  14 16895.0 758.564  12
   0  -1  13 9600.55 541.812  14
   0  -1  13 9747.31 582.604  12
   0  -1  12 28942.8 2064.12   4
   0  -1  12 31347.8 1002.40  12
   0  -1  11 5907.94 907.330   4
   0  -1  11 6315.69 443.067  12
   0  -1  10 12690.8 1225.05   4
   0  -1   9 20577.3 1121.57   6
   0  -1   9 17851.3 1344.28   4
   0  -1   8 2231.51 464.350   4
   0  -1   8 2228.80 371.315   6
   0  -1   7 1477.96 370.800   4
   0  -1   6 4154.10 538.850   4
   0  -1   6 4412.40 520.719   1
   0  -1   5 54102.6 1610.74   4
   0  -1   5 50206.9 1539.35   1
   0  -1   4 28738.4 1085.19   4
   0  -1   4 30299.5 1049.56   1
   0  -1   3 107548. 1770.18   4
   0  -1   3 107927. 1672.55   1
   0  -1   2 113.803 82.3255   4
   0  -1   1 62184.9 831.717   4
   0   1   1 73321.0 972.742   3
   0   1   1 73848.2 986.391   1
   0   1   2 22723.0 682.355   1
   0  -1  -2 24170.9 591.028   2
   0   1   2 22604.3 509.171   6
   0  -1  -3 129571. 1466.64   2
   0   1   3 132672. 1462.66   6
   0   1   4 32347.2 840.703   6
   0  -1  -4 36166.4 869.240   2
   0   1   4 33999.2 1126.45   1
   0   1   4 35468.6 1203.51   4
   0   1   5 196510. 3008.09   1
   0   1   5 202709. 3162.83   4
   0  -1  -5 206285. 2257.87   2
   0  -1  -6 48327.3 1207.61   2
   0   1   6 45304.2 1632.33   1
   0   1   6 47124.0 1249.77   6
   0   1   6 45484.8 1720.90   4
   0   1   7 188156. 3679.34   4
   0   1   7 188414. 2698.72   6
   0   1   7 192724. 3668.34   1
   0   1   8 6542.57 764.202   4
   0   1   8 7091.41 575.336   6
   0   1   8 6789.20 760.934   1
   0   1   9 1323.72 409.273   1
   0   1   9 1478.38 440.392   4
   0   1  10 3841.11 687.763   4
   0   1  10 3678.33 710.380   1
   0   1  11 1061.82 186.572  14
   0   1  11 1775.00 501.249   4
   0   1  11 1619.04 499.165   1
   0   1  11 1470.63 225.551  12
   0   1  12 4656.20 827.646   4
   0   1  12 4128.17 360.918  12
   0   1  12 4470.95 364.349  14
   0   1  13 2482.50 294.050  14
   0  -1 -14 1993.81 328.645  17
   0   1  14 1194.95 229.305  14
   0   1  15 2630.63 297.074  14
   0  -1 -15 3079.47 367.090  17
   0   1  16 25938.9 819.772  14
   0  -1 -16 24026.5 888.999  17
   0  -1 -17 966.575 203.358  17
   0  -1 -18 1652.41 188.187  17
   0   1  18 1285.61 166.618  10
   0   2 -18 1989.29 195.540  17
   0  -2  18 3022.11 218.882  10
   0   2 -17 991.400 194.984  17
   0  -2  17 1135.20 169.826  14
   0  -2  16 2601.37 275.263  14
   0   2 -16 2656.90 326.951  17
   0  -2  15 6526.49 441.409  14
   0  -2  14 5363.43 454.070  12
   0  -2  14 5757.05 425.700  14
   0  -2  13 26807.0 960.612  12
   0  -2  12 178.216 142.755  12
   0  -2  12 158.291 229.896   4
   0  -2  11 14363.3 685.552  12
   0  -2  11 12328.2 1321.04   4
   0  -2  10 3755.98 674.228   4
   0  -2   9 44922.5 2138.97   4
   0  -2   9 47114.8 1770.66   6
   0  -2   8 978.909 334.968   4
   0  -2   7 30590.3 1495.23   4
   0  -2   6 1234.39 337.784   4
   0  -2   5 15836.5 898.897   4
   0  -2   5 15181.3 554.817   5
   0  -2   4 2564.34 352.646   4
   0  -2   3 10266.8 584.804   4
   0  -2   2 37776.0 931.509   4
   0  -2   1 9915.87 414.618   4
   0   2  -1 10295.9 423.955   3
   0   2   0 65439.1 965.011   3
   0   2   1 32825.2 777.763   3
   0   2   2 78395.8 1442.40   1
   0   2   2 76950.3 1417.53   3
   0  -2  -2 81533.3 1469.87   2
   0   2   3 170037. 2493.71   3
   0   2   3 166610. 2360.54   1
   0   2   3 171580. 1821.48   6
   0   2   4 68007.1 1675.97   1
   0   2   4 65790.1 1247.58   6
   0  -2  -4 68788.2 1362.95   2
   0   2   5 12454.0 805.746   1
   0   2   5 11576.6 593.004   6
   0  -2  -5 13266.5 586.411   5
   0  -2  -5 11575.6 591.538   2
   0   2   6 36254.7 1521.26   4
   0  -2  -6 37207.0 1108.67   2
   0   2   6 33165.5 1062.98   6
   0   2   6 32342.5 1390.16   1
   0   2   7 13996.9 1075.49   4
   0  -2  -7 15479.1 754.329   2
   0   2   7 14114.0 1019.45   1
   0   2   7 14465.1 762.579   6
   0   2   8 21354.7 1404.60   4
   0   2   8 21537.9 992.213   6
   0   2   8 21571.5 1369.89   1
   0   2   9 4955.92 734.654   4
   0   2   9 3748.19 641.677   1
   0   2  10 41416.1 2164.65   1
   0   2  10 38254.8 2147.38   4
   0   2  11 802.438 174.060  12
   0   2  11 526.011 314.828   4
   0   2  11 840.525 169.594  14
   0   2  11 285.654 295.856   1
   0   2  12 8586.83 1151.70   4
   0  -2 -12 10374.7 637.793  17
   0   2  12 10374.9 1229.85   1
   0   2  12 9429.25 519.622  14
   0   2  13 10292.9 559.768  14
   0  -2 -13 11330.2 689.163  17
   0   2  14 2570.13 303.083  14
   0  -2 -14 2335.00 346.161  17
   0   2  15 4231.26 368.206  14
   0  -2 -15 3885.78 414.306  17
   0  -2 -16 272.392 182.875  17
   0  -2 -17 2371.07 272.474  17
   0   2  18 2733.19 224.350  10
   0  -2 -18 1442.20 174.101  17
   0   3 -18 1992.74 187.986  17
   0  -3  18 2746.04 189.325  10
   0   3 -17 46.6925 111.486  17
   0  -3  17 27.6826 91.9743  14
   0  -3  16 179.714 127.592  14
   0  -3  15 1970.10 262.011  14
   0  -3  14 1953.25 260.486  14
   0  -3  14 1894.12 280.871  12
   0  -3  13 306.985 181.849  12
   0  -3  12 1674.25 559.760   4
   0  -3  12 1089.07 238.952  12
   0  -3  11 5213.97 875.087   4
   0  -3  11 5757.84 459.290  12
   0  -3  10 63023.4 2770.12   4
   0  -3   9 12479.5 1152.18   4
   0  -3   8 18421.9 1305.93   4
   0  -3   7 4207.46 586.872   4
   0  -3   6 114351. 2684.00   4
   0  -3   5 19511.5 1017.78   4
   0  -3   4 693.001 209.838   4
   0  -3   3 8437.35 554.946   4
   0   3  -2 45601.0 1162.72   3
   0  -3   2 44996.1 1148.37   4
   0  -3   1 8487.00 457.040   4
   0   3  -1 8700.55 461.473   3
   0   3   0 23248.3 709.710   3
   0   3   1 2726.69 276.319   3
   0   3   2 36113.6 1064.18   3
   0   3   2 35035.5 1107.11   1
   0  -3  -3 75480.1 1723.06   2
   0   3   3 75867.2 1766.63   1
   0   3   3 76518.4 1757.92   3
   0   3   4 5284.35 549.131   3
   0   3   4 5139.53 523.675   1
   0  -3  -4 4881.64 440.562   2
   0   3   5 40405.6 1533.90   1
   0  -3  -5 40127.8 1230.21   2
   0  -3  -6 1568.22 276.838   5
   0   3   6 1532.49 351.992   1
   0  -3  -6 1460.05 259.298   2
   0   3   7 92474.6 2711.09   4
   0   3   7 89846.9 2593.87   1
   0  -3  -7 93525.2 1968.34   2
   0   3   8 6720.71 837.153   4
   0   3   8 7374.59 826.636   1
   0   3   9 49271.5 2340.37   4
   0   3   9 51038.1 2281.49   1
   0   3  10 10365.2 1146.45   4
   0   3  10 11773.5 1190.77   1
   0   3  11 55510.7 2756.04   4
   0   3  11 54865.0 2684.65   1
   0   3  11 53481.7 1160.67  14
   0  -3 -11 56304.0 1406.89  17
   0  -3 -12 187.834 177.797  17
   0   3  12 468.483 374.865   4
   0   3  12 406.897 319.048   1
   0   3  12 387.757 145.993  14
   0  -3 -13 29188.7 1080.28  17
   0   3  13 28509.7 916.206  14
   0  -3 -14 4176.73 440.513  17
   0   3  14 4166.75 370.450  14
   0  -3 -15 14991.0 749.222  17
   0  -3 -16 441.920 187.262  17
   0  -3 -17 18.4572 119.739  17
   0   3  17 10.6027 97.7094  10
   0   3  18 141.624 84.7745  10
   0  -3 -18-110.366 83.2867  17
   0  -4  17 4737.74 291.732  14
   0   4 -17 3387.78 284.047  17
   0  -4  16-50.6548 112.392  14
   0  -4  15 8139.85 521.985  12
   0  -4  15 7500.25 454.473  14
   0  -4  14 410.562 184.311  12
   0  -4  13 544.665 194.836  12
   0  -4  12 677.584 210.028  12
   0  -4  11 3435.99 369.620  12
   0  -4  11 2550.46 616.669   4
   0  -4  10 1039.88 407.111   4
   0  -4  10 1053.99 213.646  12
   0  -4   9 12572.2 1194.47   4
   0  -4   8 46516.3 2113.91   4
   0  -4   7 8781.16 884.643   4
   0  -4   6 64695.2 2127.88   4
   0  -4   5 112002. 2582.09   4
   0  -4   4 27406.9 1182.45   4
   0   4  -3 177656. 2765.12   3
   0  -4   3 171437. 2682.77   4
   0   4  -2 42688.6 1212.75   3
   0  -4   2 44771.1 1296.17   4
   0   4  -1 231678. 2623.44   3
   0   4   0 25077.3 865.499   3
   0   4   1 2112.45 282.711   3
   0   4   2 20578.9 884.625   3
   0   4   2 19980.4 952.544   1
   0   4   3 126712. 2409.05   3
   0  -4  -3 121383. 2543.97   2
   0   4   3 126963. 2516.98   1
   0  -4  -4 10192.6 738.925   2
   0   4   4 10321.0 786.699   1
   0   4   4 10306.4 788.625   3
   0   4   5 20487.4 1190.32   3
   0   4   5 20050.6 1144.99   1
   0  -4  -5 21064.7 1028.68   2
   0   4   6 115796. 2921.26   1
   0  -4  -6 116105. 2376.06   2
   0  -4  -6 120491. 2769.41   5
   0  -4  -7 159.331 138.224   2
   0   4   7 63.6695 196.492   1
   0   4   8 5220.51 738.059   1
   0   4   8 5862.88 799.780   4
   0   4   9 15006.2 1290.17   1
   0   4   9 13855.4 1262.79   4
   0   4  10 35309.2 2079.57   1
   0   4  10 35403.7 2111.87   4
   0   4  11 2841.77 291.789  14
   0  -4 -11 2564.16 338.968  17
   0   4  11 3238.86 716.253   4
   0   4  11 3090.39 700.494   1
   0   4  12 37145.0 1025.70  14
   0   4  12 36257.1 2337.60   1
   0  -4 -12 40398.8 1255.19  17
   0   4  12 38791.6 2428.90   4
   0  -4 -13 1397.75 271.952  17
   0  -4 -14 9771.67 638.163  17
   0  -4 -15 756.139 230.887  17
   0  -4 -16 16733.1 704.527  17
   0   4  16 15133.8 630.722  10
   0  -4 -17 283.608 134.757  17
   0   4  17 132.795 102.658  10
   0   4  18 109.948 73.0981  10
   0   5 -17 3177.96 261.033  17
   0  -5  17 4046.67 254.569  14
   0  -5  16 1008.01 169.152  14
   0  -5  15 992.703 221.919  12
   0  -5  15 833.521 180.484  14
   0  -5  14 87.5063 135.194  12
   0  -5  13 330.487 173.561  12
   0   5 -12 2830.74 319.740  16
   0  -5  12 3512.18 387.812  12
   0  -5  11 6710.57 517.018  12
   0   5 -11 6593.41 468.190  16
   0  -5  11 5721.81 970.554   4
   0  -5  10 35002.6 1108.31  12
   0  -5  10 33155.5 2119.58   4
   0   5 -10 32027.4 987.304  16
   0  -5   9 16801.6 1434.54   4
   0  -5   8 43059.7 2124.91   4
   0  -5   7 1789.37 456.230   4
   0  -5   6 39114.7 1744.91   4
   0  -5   5 40808.2 1657.04   4
   0   5  -5 40729.6 1643.55   3
   0  -5   4 37853.9 1478.84   4
   0   5  -4 37332.2 1444.50   3
   0  -5   3 49223.9 1607.64   4
   0   5  -3 47463.9 1504.77   3
   0   5  -2 66819.9 1664.18   3
   0  -5   2 68606.0 1716.99   4
   0   5  -1 28425.7 1043.49   3
   0   5   0 47894.5 1341.64   3
   0   5   1 42405.8 1317.74   3
   0   5   2 156452. 2663.86   3
   0   5   3 37504.4 1407.73   3
   0   5   3 36563.5 1495.60   1
   0  -5  -4 37454.1 1573.15   2
   0   5   4 37673.9 1595.59   1
   0   5   4 37793.7 1547.87   3
   0  -5  -5 26072.4 1310.88   2
   0   5   5 26684.5 1422.89   1
   0   5   5 27695.9 1440.13   3
   0   5   6 25711.2 1471.12   1
   0  -5  -6 26252.9 1262.50   2
   0   5   7 2953.44 555.242   1
   0  -5  -7 2623.89 410.844   2
   0   5   8 13026.7 1187.34   1
   0   5   8 13949.1 1219.82   4
   0   5   9 1132.35 447.005   4
   0   5   9 594.811 272.172   1
   0   5  10 8703.16 1114.05   4
   0  -5 -10 11199.8 635.220  17
   0   5  10 7591.86 1038.36   1
   0   5  11 42492.9 2507.64   4
   0   5  11 43591.4 2513.47   1
   0  -5 -11 45073.5 1306.53  17
   0  -5 -12 614.695 224.183  17
   0  -5 -13 37347.9 1215.26  17
   0  -5 -14 1508.53 282.053  17
   0   5  15 33697.6 974.679  10
   0  -5 -15 36473.0 1101.30  17
   0   5  16 147.470 114.053  10
   0  -5 -16 173.933 146.122  17
   0  -5 -17 6081.40 358.827  17
   0   5  17 6428.91 340.860  10
   0   5  18 259.547 87.4147  13
   0  -6  17 2900.32 198.712  14
   0   6 -17 2223.96 202.545  17
   0  -6  16 6137.15 343.225  14
   0  -6  15 1189.30 201.232  14
   0  -6  15 1394.68 227.773  12
   0  -6  14 348.295 173.821  12
   0   6 -13 353.155 165.398  16
   0  -6  13 110.652 164.884  12
   0   6 -12 7211.14 496.484  16
   0  -6  12 8325.98 574.857  12
   0   6 -11 409.015 205.448  16
   0  -6  11 65.9977 173.028  12
   0  -6  10 1131.12 253.989  12
   0   6 -10 545.127 192.468  16
   0   6 -10 1734.34 530.949   3
   0  -6  10 1609.19 516.639   4
   0   6  -9 7937.01 516.094  16
   0  -6   9 7514.68 526.715  12
   0  -6   9 5854.05 885.572   4
   0   6  -9 6397.67 932.556   3
   0  -6   8 15248.2 1319.64   4
   0   6  -8 15288.5 1301.03   3
   0  -6   7 5026.70 720.553   4
   0   6  -7 4828.11 701.888   3
   0   6  -6 7973.87 823.070   3
   0  -6   6 6643.48 799.070   4
   0   6  -5 39899.7 1685.23   3
   0  -6   5 39190.3 1747.52   4
   0  -6   4 46141.2 1752.03   4
   0   6  -4 45953.7 1694.75   3
   0   6  -3 238925. 3606.69   3
   0  -6   3 249232. 3766.94   4
   0   6  -2 7369.95 614.154   3
   0   6  -1 72396.7 1827.55   3
   0   6   0 145.556 153.642   3
   0   6   1 57597.4 1693.56   3
   0   6   2 258.713 185.164   3
   0   6   3 68590.6 2044.93   3
   0   6   3 67799.4 2202.86   1
   0   6   4 2472.46 457.596   3
   0  -6  -4 2431.24 482.323   2
   0   6   4 2359.43 469.798   1
   0   6   5 83529.2 2619.59   3
   0  -6  -5 81425.0 2525.81   2
   0   6   5 87766.8 2740.80   1
   0  -6  -6 167.006 204.123   2
   0   6   6 856.603 362.102   1
   0   6   7 12417.1 1148.81   1
   0  -6  -7 11019.2 895.030   2
   0   6   8 729.278 343.500   1
   0   6   9 1664.33 498.706   1
   0   6   9 1730.72 518.095   4
   0   6  10-47.3236 274.054   4
   0  -6 -10 417.670 192.936  17
   0   6  10-322.983 278.921   1
   0   6  11 12920.8 1411.40   1
   0  -6 -11 11558.6 682.141  17
   0   6  11 14017.8 1466.97   4
   0  -6 -12 2956.31 371.933  17
   0  -6 -13 104.080 171.524  17
   0   6  14 1498.91 231.222  10
   0  -6 -14 1243.11 261.315  17
   0   6  15 600.942 165.015  10
   0  -6 -15 318.453 175.477  17
   0  -6 -16 5501.05 391.744  17
   0   6  16 5449.75 338.496  10
   0   6  17 1037.21 136.389  10
   0  -6 -17 1229.60 162.319  17
   0   6  18 11523.3 360.839  13
   0  -7  16 124.561 92.1274  14
   0  -7  15 16459.4 593.253  14
   0  -7  14 177.507 154.034  12
   0   7 -14 138.549 115.690  16
   0   7 -13 682.781 193.068  16
   0  -7  13 585.417 175.719  12
   0  -7  12 602.997 230.128  12
   0   7 -12 350.569 187.080  16
   0  -7  11 49117.5 1359.60  12
   0   7 -11 45493.7 1245.95  16
   0  -7  10 94.3388 157.132  12
   0  -7  10-515.130 392.747   4
   0   7 -10 32.6037 148.766  16
   0   7 -10 106.930 285.399   3
   0   7  -9 1007.00 408.272   3
   0  -7   9 542.612 352.205   4
   0  -7   9 1177.53 241.451  12
   0   7  -9 830.523 219.483  16
   0   7  -8 161.042 235.248   3
   0  -7   8 528.040 183.305  12
   0  -7   8 89.8760 209.145   4
   0   7  -8 458.271 165.995  16
   0  -7   7 10135.0 1066.52   4
   0   7  -7 10198.3 1026.43   3
   0  -7   6 644.142 306.850   4
   0   7  -6 949.542 342.945   3
   0   7  -5 2743.44 498.870   3
   0  -7   5 2774.08 509.951   4
   0  -7   4 3792.19 555.306   4
   0   7  -4 4418.22 578.009   3
   0   7  -3 3664.08 506.690   3
   0   7  -2 9416.77 752.247   3
   0   7  -1 78459.7 2106.29   3
   0   7   0 37135.1 1457.10   3
   0   7   1 3707.89 494.132   3
   0   7   2 81244.3 2573.39   1
   0   7   2 83973.0 2309.04   3
   0   7   3 6491.81 763.757   1
   0   7   3 6588.53 703.536   3
   0  -7  -4 70517.1 2635.76   2
   0   7   4 78180.7 2659.85   1
   0   7   4 78294.7 2491.77   3
   0  -7  -5 9760.41 998.855   2
   0   7   5 11637.2 1048.99   3
   0   7   5 10125.9 1026.07   1
   0   7   6 146070. 3858.97   3
   0  -7  -6 138194. 3515.37   2
   0   7   6 147590. 3938.80   1
   0   7   7 854.624 378.696   1
   0   7   8 4083.40 737.332   1
   0   7   9 5665.44 914.593   1
   0   7   9 4936.74 839.712   4
   0  -7  -9 6226.98 506.705  17
   0   7  10 47112.5 2646.66   4
   0   7  10 49728.5 2677.16   1
   0  -7 -10 49841.5 1372.47  17
   0  -7 -11 288.174 195.476  17
   0   7  11 425.280 169.448  10
   0  -7 -12 2581.84 353.910  17
   0   7  12 2356.93 284.926  10
   0  -7 -13 128.333 156.800  17
   0   7  13 111.638 117.139  10
   0   7  14 100.009 104.348  10
   0  -7 -14 30.8945 160.213  17
   0   7  15 2104.87 226.013  10
   0  -7 -15 2634.74 302.115  17
   0  -7 -16 2077.53 231.896  17
   0   7  16 3292.80 237.877  10
   0   7  17 422.530 116.017  13
   0  -8  16 1316.90 144.233  14
   0  -8  15 4137.13 288.243  14
   0   8 -14 1903.68 227.169  16
   0  -8  14 3052.71 306.578  12
   0  -8  13 67.0513 143.690  12
   0   8 -13 213.485 147.341  16
   0  -8  12 28109.2 998.274  12
   0   8 -12 26278.1 922.568  16
   0   8 -11 259.277 200.098  16
   0  -8  11-8.67614 151.373  12
   0   8 -10 2429.54 353.509  16
   0  -8  10 2912.56 356.136  12
   0   8  -9 19453.9 843.929  16
   0  -8   9 17654.9 1613.41   4
   0  -8   9 18984.6 851.057  12
   0  -8   8 29388.1 1035.65  12
   0   8  -8 28655.6 1829.21   3
   0   8  -8 27693.1 1006.92  16
   0  -8   8 29889.4 1969.99   4
   0   8  -7 19288.3 1447.63   3
   0  -8   7 17984.1 1477.76   4
   0   8  -7 20036.3 824.084  16
   0   8  -6 633.216 293.886   3
   0  -8   6 246.865 251.633   4
   0   8  -5 30.2426 155.546   3
   0   8  -4 2827.65 485.264   3
   0   8  -3 57415.3 2051.78   3
   0   8  -2 1826.93 386.147   3
   0   8  -1 24263.2 1277.91   3
   0   8   0 12847.0 938.908   3
   0   8   1 78293.4 2349.56   3
   0   8   2 53925.5 2003.91   3
   0   8   2 54195.6 2280.03   1
   0   8   3 810.528 310.807   3
   0   8   3 463.508 313.697   1
   0   8   4 21779.7 1406.38   3
   0  -8  -4 21390.9 1606.63   2
   0   8   4 21192.0 1505.76   1
   0   8   5 165885. 4293.14   1
   0   8   5 160583. 4022.85   3
   0   8   6 13634.3 1246.28   3
   0   8   6 13799.0 1304.34   1
   0  -8  -6 11151.4 1111.53   2
   0  -8  -6 12197.1 1398.61   5
   0   8   7 13719.1 1363.71   1
   0   8   8 3943.12 781.247   1
   0  -8  -8 4146.59 412.323  17
   0   8   9 67710.9 3145.60   1
   0  -8  -9 65083.6 1555.85  17
   0   8   9 69136.0 3134.92   4
   0   8  10 550.262 377.717   4
   0  -8 -10 810.281 233.083  17
   0  -8 -11 2337.61 357.555  17
   0  -8 -12 14454.3 754.263  17
   0  -8 -13 133.154 146.375  17
   0  -8 -14-108.846 154.029  17
   0  -8 -15 179.621 121.612  17
   0   8  15 643.545 165.391  13
   0  -8 -16 1714.53 194.636  17
   0   8  16 1726.67 197.674  13
   0   8  17 655.796 115.521  13
   0  -9  15 510.164 114.111  14
   0   9 -14 482.567 137.226  16
   0  -9  13 13969.0 616.705  12
   0   9 -13 12216.3 562.040  16
   0  -9  12 3310.87 343.661  12
   0   9 -12 2852.49 333.859  16
   0  -9  11 3613.20 375.319  12
   0   9 -11 3749.03 400.140  16
   0  -9  10 1430.57 266.026  12
   0   9 -10 1655.10 301.135  16
   0   9  -9 10825.9 668.992  16
   0  -9   9 10481.9 636.907  12
   0   9  -8 297.887 176.719  16
   0  -9   8 59.4042 135.694  12
   0   9  -7 5092.85 461.404  16
   0   9  -6 21923.4 878.127  16
   0   9  -6 22716.3 1525.70   3
   0  -9   6 23724.9 885.121  18
   0   9  -5 6762.09 496.310  16
   0  -9   5 7585.77 1224.36   5
   0   9  -5 7577.98 859.481   3
   0   9  -4 27171.0 1550.82   3
   0   9  -3 11932.9 1002.18   3
   0   9  -2 12026.8 989.138   3
   0   9  -1 7.01702 182.755   3
   0   9   0 20020.2 1265.65   3
   0   9   1 354.075 212.879   3
   0   9   2 6659.99 899.012   1
   0   9   2 7251.34 806.440   3
   0   9   3 14434.8 1314.83   1
   0   9   3 14682.9 1170.29   3
   0  -9  -4 9842.87 1198.02   2
   0   9   4 9345.34 990.076   3
   0   9   4 9558.41 1105.43   1
   0  -9  -5-97.0418 220.201   2
   0   9   5 176.910 246.940   3
   0   9   5 136.928 247.305   1
   0  -9  -6 4894.05 827.683   2
   0   9   6 6374.89 954.360   1
   0   9   6 6568.32 910.585   3
   0  -9  -6 5699.12 1059.10   5
   0  -9  -7 184.215 162.419  17
   0   9   7 287.723 140.208  13
   0  -9  -8 46580.0 1327.59  17
   0   9   8 48304.4 2689.58   1
   0  -9  -9 2494.90 357.493  17
   0   9   9 1432.73 526.868   1
   0   9   9 1097.83 472.844   4
   0  -9 -10 38683.9 1233.67  17
   0  -9 -11 4563.07 453.136  17
   0  -9 -12 5684.83 472.742  17
   0   9  13 3579.33 348.563  13
   0  -9 -13 2885.49 332.267  17
   0   9  14 5316.95 381.903  13
   0  -9 -14 6644.31 439.916  17
   0  -9 -15 4651.85 322.540  17
   0   9  15 4433.30 317.795  13
   0   9  16 1845.24 181.837  13
   0  10 -14 170.926 97.6255  16
   0 -10  13 1098.17 183.693  12
   0  10 -13 1348.37 206.465  16
   0  10 -12 253.680 167.103  16
   0 -10  12 432.650 154.195  12
   0 -10  11 2088.88 276.733  12
   0  10 -11 2127.21 312.673  16
   0  10 -10 351.549 199.950  16
   0 -10  10 225.872 146.723  12
   0 -10   9 113.956 158.075  12
   0  10  -9 197.602 199.032  16
   0  10  -8 22314.8 943.326  16
   0  10  -7 7795.15 580.518  16
   0 -10   6 62156.5 1495.52  18
   0  10  -6 65469.6 1562.00  16
   0  10  -5 1336.86 223.482  11
   0 -10   5 1651.67 282.923  18
   0 -10   5 1272.91 595.685   5
   0  10  -5 1788.12 313.994  16
   0 -10   4 53638.5 1298.27  18
   0  10  -4 49572.4 1328.72  16
   0  10  -4 48821.2 1133.05  11
   0 -10   4 51366.5 3252.78   5
   0 -10   4 50797.7 1319.88  17
   0 -10   3 307.825 157.054  17
   0  10  -3 274.755 143.658  16
   0  10  -2 19627.2 1353.89   3
   0  10  -1 14936.1 1174.66   3
   0  10   0 8016.99 866.113   3
   0  10   1 739.380 305.182   3
   0  10   2 6953.27 852.861   3
   0  10   2 7423.97 1009.12   1
   0 -10  -3 19547.5 1781.01   2
   0  10   3 20111.7 1649.86   1
   0  10   3 21412.3 1506.25   3
   0 -10  -4 2786.21 709.667   2
   0  10   4 3232.44 707.450   1
   0 -10  -4 3764.69 389.186  17
   0  10   4 3444.34 636.490   3
   0  10   5 22510.5 1798.74   1
   0 -10  -5 19880.6 1728.94   2
   0 -10  -5 20507.2 857.519  17
   0 -10  -5 20505.1 2072.93   5
   0  10   5 23442.1 793.360  13
   0  10   5 21814.1 1645.01   3
   0  10   6 27752.3 2034.30   1
   0 -10  -6 25761.4 972.891  17
   0 -10  -6 25510.6 2265.60   5
   0  10   6 28783.7 899.179  13
   0 -10  -7 11469.8 665.919  17
   0  10   7 10556.5 574.843  13
   0  10   7 11636.3 1363.33   1
   0 -10  -8 400.858 182.890  17
   0  10   8 542.059 161.399  13
   0 -10  -9 1785.17 311.569  17
   0  10   9 1776.44 272.724  13
   0 -10 -10 33620.5 1141.27  17
   0  10  10 35815.6 1070.43  13
   0  10  11 9752.51 571.219  13
   0 -10 -11 10691.5 639.563  17
   0 -10 -12-66.4976 168.772  17
   0  10  12 108.185 140.060  13
   0  10  13 9387.42 511.550  13
   0 -10 -13 10857.6 565.064  17
   0  10  14 160.420 115.206  13
   0 -10 -14 112.298 115.543  17
   0  10  15 10956.3 435.377  13
   0  10  16 196.551 76.3103  13
   0 -11  14 207.694 75.6700  14
   0  11 -13 1824.34 205.578  16
   0  11 -12 209.729 146.281  16
   0  11 -11 12.2889 166.339  16
   0  11 -10 1100.10 257.538  16
   0  11  -9 10362.2 656.081  16
   0  11  -8 239.388 212.866  16
   0  11  -7 7078.97 562.765  16
   0  11  -6 6600.94 538.799  16
   0 -11   6 6239.54 505.853  18
   0  11  -5 20865.6 921.630  16
   0 -11   5 20228.8 858.596  18
   0  11  -4 1101.29 255.740  16
   0 -11   4 1013.75 237.567  18
   0  11  -4 913.473 198.586  11
   0 -11   3 6606.38 1275.18   5
   0 -11   3 6951.19 514.359  17
   0 -11   3 6694.86 489.570  18
   0  11  -3 6625.03 445.588  11
   0  11  -3 7658.97 539.753  16
   0  11  -2 572.856 173.418  11
   0 -11   2 456.773 181.710  17
   0 -11   2 565.196 522.499   5
   0 -11   2 273.945 136.668  18
   0  11  -2 361.654 184.838  16
   0 -11   1 65916.7 1505.71  17
   0  11  -1 67297.4 1364.27  11
   0  11  -1 64534.5 1307.70  13
   0  11   0 9183.26 503.737  13
   0 -11   0 8405.72 552.780  17
   0  11   1 47711.0 2653.04   1
   0  11   1 44244.5 1080.62  13
   0 -11  -1 44748.1 1246.96  17
   0 -11  -2 747.306 197.508  17
   0  11   2 1186.15 197.063  13
   0  11   2 1801.83 446.727   3
   0  11   2 1146.13 475.477   1
   0 -11  -3 3156.06 807.198   2
   0  11   3 4457.19 358.709  13
   0 -11  -3 3532.26 374.454  17
   0  11   3 5084.44 906.109   1
   0  11   3 4781.09 775.534   3
   0  11   4-804.465 368.570   3
   0 -11  -4 285.483 307.890   2
   0  11   4 88.0053 102.409  13
   0 -11  -4-770.522 583.086   5
   0 -11  -4-69.7982 157.131  17
   0  11   4-97.6655 273.728   1
   0 -11  -5 539.813 193.565  17
   0  11   5 357.636 145.918  13
   0  11   5 128.618 285.903   1
   0 -11  -5-359.512 363.228   2
   0  11   5 387.678 308.032   3
   0 -11  -6 139.215 387.627   5
   0  11   6 533.547 155.373  13
   0 -11  -6 526.769 208.485  17
   0  11   6 754.888 403.945   1
   0 -11  -7 171.413 173.247  17
   0  11   7 313.226 138.803  13
   0 -11  -8 1788.94 303.019  17
   0  11   8 2081.03 269.860  13
   0 -11  -9 2449.99 337.855  17
   0  11   9 2669.35 309.164  13
   0 -11 -10 11785.8 664.764  17
   0  11  10 13511.7 652.324  13
   0  11  11 3160.07 322.452  13
   0 -11 -11 1946.65 293.065  17
   0  11  12 12146.7 574.342  13
   0 -11 -12 11221.5 580.912  17
   0 -11 -13 44.6300 124.167  17
   0  11  13-11.6077 101.758  13
   0  11  14 490.925 130.545  13
   0  11  15 3565.27 226.025  13
   0  12 -13 1946.99 175.048  16
   0  12 -12 344.065 133.966  16
   0  12 -11 1413.47 235.997  16
   0  12 -10 7535.97 497.437  16
   0  12  -9 1030.68 265.151  16
   0  12  -8 7417.31 552.911  16
   0  12  -7 2856.03 372.047  16
   0  12  -6 18447.1 868.232  16
   0 -12   5 617.089 216.621  18
   0  12  -5 658.720 240.589  16
   0  12  -4 14684.6 673.419  11
   0  12  -4 16190.6 790.503  16
   0 -12   4 14241.6 729.068  18
   0  12  -3 15749.1 761.759  16
   0 -12   3 14096.2 713.881  18
   0  12  -3 15694.7 693.880  11
   0 -12   3 14220.9 757.786  17
   0 -12   2 5598.35 484.833  17
   0  12  -2 6559.21 499.582  16
   0  12  -2 6666.00 461.262  11
   0 -12   2 6870.51 1381.70   5
   0 -12   2 5575.26 457.250  18
   0 -12   1 1857.03 765.915   5
   0  12  -1 1009.50 218.685  11
   0 -12   1 1225.48 232.920  18
   0 -12   1 1222.43 253.787  17
   0  12   0 27948.0 907.588  13
   0 -12   0 32259.3 2907.08   5
   0  12   0 26236.9 2107.77   1
   0 -12   0 30656.4 1081.52  17
   0  12   1 13515.1 1532.60   1
   0 -12  -1 13125.3 1887.29   5
   0 -12  -1 13820.9 736.707  17
   0  12   1 14948.0 655.252  13
   0  12   2 8610.76 1218.45   1
   0  12   2 9789.25 538.388  13
   0 -12  -2 9672.22 1445.89   2
   0 -12  -2 9844.87 635.061  17
   0 -12  -2 9392.26 1669.80   5
   0 -12  -3 6744.56 1344.48   5
   0  12   3 6251.02 1017.83   1
   0  12   3 6554.25 450.393   7
   0 -12  -3 6270.29 1131.53   2
   0 -12  -3 5425.88 476.592  17
   0  12   3 6000.87 437.338  13
   0 -12  -4 45893.6 1340.74  17
   0  12   4 47099.6 1179.66  13
   0  12   5 3622.53 344.861  13
   0 -12  -5 2342.19 329.321  17
   0  12   6 3876.19 361.711  13
   0 -12  -6 3373.22 393.759  17
   0  12   7 1372.03 221.607  13
   0 -12  -7 961.217 242.167  17
   0  12   8 6908.02 466.321  13
   0 -12  -8 7071.69 533.603  17
   0 -12  -9 3613.79 392.561  17
   0  12   9 4823.75 391.460  13
   0 -12 -10 1334.56 252.243  17
   0  12  10 2229.24 261.874  13
   0  12  11 333.650 139.307  13
   0 -12 -11-75.1742 183.371  17
   0  12  12 85.3434 102.682  13
   0 -12 -12-53.1578 129.661  17
   0  12  13 8.93305 96.2648  13
   0  12  14 325.945 94.9532  13
   0  13 -12 168.800 94.0400  16
   0  13 -11 17.1703 109.162  16
   0  13 -10 2574.94 284.931  16
   0  13  -9 518.054 158.975   7
   0  13  -9 624.776 216.277  16
   0  13  -8 754.963 231.499  16
   0  13  -7 580.801 224.766  16
   0  13  -6 4521.81 439.222  16
   0  13  -5 9896.79 622.917  16
   0 -13   4 8601.46 570.992  18
   0  13  -4 10076.3 621.264  16
   0  13  -3 4186.75 413.229  16
   0  13  -3 4120.76 366.271  11
   0 -13   3 3494.81 377.058  18
   0  13  -2 190.716 141.485  11
   0  13  -2 184.055 182.771  16
   0 -13   2 189.472 167.646  18
   0 -13   2 263.958 217.628  17
   0  13  -1 18758.4 775.241  11
   0 -13   1 17791.4 860.730  17
   0 -13   0 16558.8 829.357  17
   0  13   0 18075.5 731.551  13
   0  13   0 16621.4 744.871  11
   0 -13  -1 18225.9 863.303  17
   0  13   1 17836.5 727.968  13
   0 -13  -2 347.210 212.515  17
   0  13   2 313.989 145.053  13
   0  13   2 601.327 189.801   7
   0 -13  -3 18241.4 854.692  17
   0  13   3 18904.1 746.563   7
   0  13   3 18285.7 736.920  13
   0  13   4 793.948 186.585  13
   0 -13  -4 812.662 232.200  17
   0 -13  -5 8935.36 601.532  17
   0  13   5 7891.18 494.912  13
   0 -13  -6 123.651 163.289  17
   0  13   6-70.1966 116.002  13
   0  13   7 21726.4 792.039  13
   0 -13  -7 24360.6 947.382  17
   0  13   8 2209.08 268.188  13
   0 -13  -8 2104.80 293.956  17
   0 -13  -9 6042.91 455.124  17
   0  13   9 6951.85 434.917  13
   0  13  10 1433.75 204.359  13
   0 -13 -10 1078.68 211.363  17
   0 -13 -11 5186.03 357.538  17
   0  13  11 5001.70 334.467  13
   0  13  12 169.576 91.9287  13
   0  13  13 50.9558 68.1458  13
   0  14 -11 2423.83 193.614  16
   0  14 -10 4764.99 311.806  16
   0  14  -9 16287.5 613.888  16
   0  14  -9 14014.2 484.275   7
   0  14  -8 4379.30 365.430  16
   0  14  -8 4037.44 312.222   7
   0  14  -7 4636.00 391.436  16
   0  14  -6 421.428 196.741  16
   0  14  -5 10788.4 598.919  16
   0  14  -4 196.059 169.010  16
   0 -14   3 717.131 198.050  18
   0  14  -3 597.328 193.269  16
   0  14  -3 420.425 152.273  11
   0  14  -2 2409.26 302.693  11
   0  14  -1 3267.96 345.448  11
   0 -14   1 3041.32 379.895  17
   0  14   0 3231.72 344.444  11
   0 -14   0 2705.36 367.996  17
   0  14   1 255.425 177.846  11
   0  14   1 392.320 177.599  13
   0 -14  -1 617.540 267.287  17
   0  14   1 456.581 195.990   7
   0 -14  -2 6174.55 517.908  17
   0  14   2 5362.68 426.144   7
   0  14   2 6032.88 430.554  13
   0  14   2 6274.05 473.959  11
   0 -14  -3 183.957 181.550  17
   0  14   3 11.4007 114.926  13
   0  14   3 173.505 145.064   7
   0 -14  -4 8862.41 594.223  17
   0  14   4 8597.44 493.708  13
   0 -14  -5 7360.53 537.163  17
   0  14   5 8218.50 482.895  13
   0  14   6 15200.0 642.636  13
   0 -14  -6 17812.9 792.488  17
   0  14   7 263.822 134.374  13
   0 -14  -7 175.531 152.963  17
   0 -14  -8 4103.33 371.617  17
   0  14   8 3516.33 305.756  13
   0  14   9 571.868 141.925  13
   0 -14  -9 384.612 152.517  17
   0 -14 -10 10757.1 482.505  17
   0  14  10 10744.1 455.369  13
   0  14  11 277.322 95.8351  13
   0  14  12 627.735 102.199  13
   0  15  -9 6683.06 330.423  16
   0  15  -8 87.2586 110.736  16
   0  15  -8-9.67526 96.9302   7
   0  15  -7 51.9282 117.387  16
   0  15  -7-47.2330 115.113   7
   0  15  -6 21394.4 713.229   7
   0  15  -6 19497.4 684.824  16
   0  15  -5 9160.13 496.637  16
   0  15  -5 9071.38 513.154   7
   0  15  -4 507.912 169.600  16
   0  15  -4 539.600 190.181   7
   0  15  -3 13850.0 669.863   7
   0  15  -2 17190.1 681.122  11
   0  15  -2 18234.1 749.610   7
   0  15  -1 376.573 147.965  11
   0  15  -1 445.400 175.464   7
   0 -15   0 444.822 205.829  17
   0  15   0 307.913 150.275  11
   0  15   0 203.957 150.055   7
   0  15   1 349.908 157.021  11
   0 -15  -1 525.663 211.238  17
   0  15   1 421.556 161.047   7
   0 -15  -2 3078.67 356.577  17
   0  15   2 2971.73 305.748   7
   0  15   2 3808.38 351.174  11
   0  15   3 9869.38 549.113  11
   0  15   3 8517.78 462.107   7
   0 -15  -3 10279.3 610.302  17
   0  15   3 8828.70 471.166  13
   0 -15  -4 568.226 195.831  17
   0  15   4 982.944 209.009  11
   0  15   4 725.453 154.098  13
   0 -15  -5 3743.94 371.006  17
   0  15   5 4421.75 329.496  13
   0 -15  -6 68.9036 141.333  17
   0  15   6 231.619 123.632  13
   0  15   7 11906.5 496.912  13
   0 -15  -7 12134.8 573.823  17
   0  15   8 142.832 109.572  13
   0 -15  -8 92.4376 118.085  17
   0  15   9 1155.00 155.206  13
   0 -15  -9 926.787 156.657  17
   0  15  10 1807.91 163.206  13
   0  16  -7 7270.92 318.151  16
   0  16  -7 7698.99 326.922   7
   0  16  -6 705.219 131.713  16
   0  16  -6 849.424 151.384   7
   0  16  -5 21.4322 105.671   7
   0  16  -5 91.0227 92.3407  16
   0  16  -4 155.467 119.350   7
   0  16  -3 8182.86 451.800   7
   0  16  -2 6745.16 429.527   7
   0  16  -1 483.248 145.824  11
   0  16  -1 321.260 159.545   7
   0  16   0 371.116 149.940   7
   0  16   0 95.3695 112.213  11
   0  16   1 1767.69 240.601  11
   0  16   1 1563.64 213.739   7
   0 -16  -1 1863.72 291.739  17
   0  16   2 25214.2 726.978   7
   0 -16  -2 25984.8 875.414  17
   0  16   2 27843.3 814.631  11
   0  16   3 1085.93 164.825   7
   0 -16  -3 979.069 208.385  17
   0  16   3 1095.49 192.377  11
   0 -16  -4 4743.23 373.056  17
   0  16   4 5460.43 376.688  11
   0  16   5 83.3344 123.022  11
   0 -16  -5-20.0454 116.438  17
   0  16   6 2603.06 213.946  13
   0 -16  -6 2248.68 244.577  17
   0  16   7 5156.57 322.429  11
   0  16   7 4231.82 250.179  13
   0  16   8 46.4987 83.6698  11
   0  16   9 1700.49 170.149  11
   0  17  -5 1364.33 150.407   7
   0  17  -4 6807.87 333.014   7
   0  17  -3 2199.89 209.173   7
   0  17  -2 3083.10 248.864   7
   0  17  -1 4904.53 309.984   7
   0  17   0 5256.68 311.337   7
   0  17   1 542.233 121.687   7
   0  17   1 836.022 144.237  11
   0  17   2 263.570 106.519  11
   0  17   2 394.384 99.4366   7
   0  17   3 133.021 99.4335  11
   0  17   4 2642.82 222.614  11
   0  17   5 973.475 147.344  11
   0  17   6 3858.18 244.629  11
   0  17   7 1753.99 158.822  11
  -1  17   6 5596.32 279.760  11
  -1  17   5 28.1026 78.2986  11
  -1  17   4 880.834 145.877  11
  -1  17   3 1088.10 160.797  11
  -1  17   2 1252.16 174.485  11
  -1  17   2 1100.44 138.411   7
  -1  17   1 4067.83 279.744  11
  -1  17   1 3733.20 247.345   7
  -1  17   0 3061.67 234.321   7
  -1  17  -1-3.83079 85.0527   7
  -1  17  -2 2942.92 232.588   7
  -1  17  -3 7814.27 354.266   7
  -1  17  -4-59.1608 81.7547   7
  -1  17  -5 4425.12 232.442   7
  -1  16   9 1714.67 153.778  11
  -1  16   8 361.274 100.336  11
  -1  16   8 407.901 93.7473  13
  -1  16   7 2435.95 226.434  11
  -1  16   7 2286.60 199.238  13
  -1  16   6 3493.55 251.896  13
  -1  16   6 3742.11 284.713  11
  -1  16   5-63.0193 121.479  11
  -1  16   4 2681.78 273.523  11
  -1  16   3 2309.56 259.804  11
  -1  16   3 1671.41 185.805   7
  -1  16   2 698.268 151.076   7
  -1  16   2 600.420 175.769  11
  -1  16   1 4054.89 336.170  11
  -1  16   1 3794.71 305.369   7
  -1  16   0 2219.77 252.932   7
  -1  16   0 1931.92 247.725  11
  -1  16  -1 10612.9 525.992   7
  -1  16  -2 3484.17 312.619   7
  -1  16  -3 4628.83 338.164   7
  -1  16  -4 79.2523 113.285   7
  -1  16  -5 929.146 160.240   7
  -1  16  -6 1412.81 169.711   7
  -1  16  -7-116.624 84.3907   7
  -1  15  10 3520.12 223.390  13
  -1  15  10 4374.18 259.021  11
  -1  15   9 82.3528 91.8280  11
  -1  15   9 54.4602 82.6975  13
  -1  15   8 3115.43 253.033  13
  -1  15   7 1464.45 196.006  13
  -1  15   6 11603.6 564.688  11
  -1  15   6 11132.0 511.641  13
  -1  15   5 164.674 133.875  13
  -1  15   5-71.1645 149.743  11
   1 -15  -4 7663.54 481.495  17
  -1  15   4 8316.63 468.533  13
  -1  15   4 8989.29 525.797  11
  -1  15   3 2236.27 252.453   7
  -1  15   3 2529.87 303.855  11
  -1  15   3 1946.08 253.450  13
   1 -15  -3 1855.25 274.017  17
   1 -15  -2 4577.94 406.696  17
  -1  15   2 4302.71 356.129   7
  -1  15   2 5171.46 416.576  11
   1 -15  -1 3082.24 351.325  17
  -1  15   1 3955.10 356.260   7
  -1  15   1 3457.62 341.504  11
  -1  15   0 181.728 139.978   7
  -1  15   0 134.962 153.096  11
  -1  15  -1 2729.04 313.912   7
  -1  15  -1 2338.71 288.568  11
  -1  15  -2 789.918 197.195   7
  -1  15  -2 599.048 176.086  11
  -1  15  -3 671.048 185.027   7
  -1  15  -4 2119.57 279.029   7
  -1  15  -5 3983.76 318.514  16
  -1  15  -5 4558.15 360.684   7
  -1  15  -6 2275.80 246.979   7
  -1  15  -6 2306.48 243.333  16
  -1  15  -7 183.022 105.278   7
  -1  15  -7 8.51077 117.116  16
  -1  15  -8 1942.13 180.063   7
  -1  15  -8 1726.52 188.500  16
  -1  15  -9 1161.33 145.326  16
  -1  14  11 644.638 121.114  13
  -1  14  10 669.909 137.700  13
  -1  14   9 2076.04 233.394  13
  -1  14   8 27.1988 111.463  13
  -1  14   7 7030.34 442.175  13
   1 -14  -6 223.256 155.683  17
  -1  14   6 125.100 120.800  13
  -1  14   5 6649.22 453.621  13
   1 -14  -5 5610.77 439.607  17
   1 -14  -4 439.308 181.856  17
  -1  14   4 297.391 155.110  13
  -1  14   4 271.534 133.285   7
  -1  14   3 3379.91 375.395  11
  -1  14   3 2629.94 296.454   7
   1 -14  -3 3591.70 389.322  17
  -1  14   3 3150.28 336.866  13
  -1  14   2 31.7001 122.309  13
  -1  14   2-46.9326 128.828   7
  -1  14   2 191.903 185.600  11
   1 -14  -2 143.485 162.580  17
   1 -14  -1 13333.0 716.365  17
  -1  14   1 13817.1 683.472   7
  -1  14   1 14242.0 662.336  13
  -1  14   1 15899.3 732.815  11
  -1  14   0 158.312 168.834   7
  -1  14   0 234.430 172.986  11
   1 -14   0-50.8943 173.535  17
  -1  14  -1 10406.5 585.936  11
  -1  14  -1 10675.3 632.665   7
  -1  14  -2 245.766 162.685  11
  -1  14  -2 415.252 204.601   7
  -1  14  -3 14231.8 712.576   7
  -1  14  -3 12585.9 631.992  11
  -1  14  -4 1778.97 275.585   7
  -1  14  -4 1751.45 265.011  16
  -1  14  -5 241.790 145.362  16
  -1  14  -5 153.364 155.842   7
  -1  14  -6 3769.28 346.252   7
  -1  14  -6 3348.63 334.401  16
  -1  14  -7 99.0214 114.141   7
  -1  14  -7 230.432 145.968  16
  -1  14  -8 414.432 132.751   7
  -1  14  -8 452.077 161.627  16
  -1  14  -9-70.4357 130.504  16
  -1  14  -9-171.200 94.0459   7
  -1  14 -10 3488.77 257.949  16
  -1  14 -11 2013.59 172.082  16
  -1  13  13 514.399 103.544  13
  -1  13  12 462.210 118.338  13
  -1  13  11 1311.84 186.427  13
  -1  13  10 1589.43 219.636  13
  -1  13   9 7363.57 458.225  13
  -1  13   8 336.164 156.147  13
   1 -13  -7 4868.76 415.516  17
  -1  13   7 5828.59 432.975  13
  -1  13   6 2751.19 310.857  13
   1 -13  -6 2335.04 313.545  17
  -1  13   5 1739.73 266.976  13
   1 -13  -5 1478.14 285.540  17
  -1  13   4 3253.22 322.051   7
  -1  13   4 3620.83 358.550  13
   1 -13  -4 3866.68 408.093  17
   1 -13  -3 3154.02 366.635  17
  -1  13   3 3095.49 338.059  13
  -1  13   3 2700.38 310.325   7
  -1  13   2 814.466 198.814  13
   1 -13  -2 939.621 247.860  17
  -1  13   2 861.368 212.484   7
  -1  13   1 2929.66 345.175  11
  -1  13   1 2881.41 337.044  13
   1 -13  -1 2514.80 335.948  17
  -1  13   1 3061.68 349.703   7
   1 -13   0 13000.6 721.092  17
  -1  13   0 13680.2 659.984  13
  -1  13   0 12891.6 677.571  11
  -1  13   0 14465.6 728.874   7
   1 -13   1 2156.61 325.421  17
  -1  13  -1 2546.11 317.647  11
  -1  13  -1 2480.48 334.415   7
  -1  13  -2 13948.0 701.000  11
  -1  13  -3 10454.6 605.807  11
  -1  13  -3 11175.9 631.317  16
  -1  13  -4 11031.2 633.925  16
  -1  13  -5 292.827 196.419  16
  -1  13  -6 7535.50 536.306  16
  -1  13  -6 8729.30 548.448   7
  -1  13  -7 2057.34 308.316  16
  -1  13  -7 2029.03 273.504   7
  -1  13  -8 6797.10 496.023  16
  -1  13  -8 6714.65 424.926   7
  -1  13  -9 170.289 120.015   7
  -1  13  -9 133.345 154.470  16
  -1  13 -10 1519.70 225.719  16
  -1  13 -11 888.794 170.210  16
  -1  13 -12 3.77541 82.1617  16
  -1  12  14 9878.75 353.538  13
  -1  12  13 3284.39 256.160  13
  -1  12  12 20040.4 663.695  13
  -1  12  11 1746.95 237.859  13
  -1  12  10 469.026 170.863  13
  -1  12   9 724.999 187.573  13
  -1  12   8 102.596 129.104  13
   1 -12  -8-135.361 171.300  17
   1 -12  -7 3917.78 410.514  17
  -1  12   7 5797.97 446.583  13
  -1  12   6 1323.46 239.108  13
   1 -12  -6 935.979 226.898  17
   1 -12  -5 17339.2 811.461  17
  -1  12   5 16071.8 736.160  13
   1 -12  -4 5311.07 465.737  17
  -1  12   4 4980.39 422.388  13
  -1  12   4 4865.45 385.423   7
  -1  12   3 8358.81 517.747   7
  -1  12   3 9568.34 558.977  13
   1 -12  -3 7973.20 566.379  17
  -1  12   2 10329.4 591.321   7
  -1  12   2 10683.7 590.960  13
  -1  12   2 9567.25 1155.71   3
   1 -12  -2 10692.4 654.226  17
  -1  12   1 37898.3 1134.39   7
  -1  12   1 34622.2 2407.42   1
  -1  12   1 37793.2 1083.96  13
  -1  12   1 38514.3 2236.02   3
   1 -12  -1 34879.4 1144.98  17
  -1  12   0 483.597 188.697  13
  -1  12   0 502.176 197.894  11
   1 -12   0 111.839 188.778  17
  -1  12  -1 25266.1 893.223  13
   1 -12   1 25210.3 983.892  17
  -1  12  -2 22.9860 141.588  11
   1 -12   2-3.88201 144.220  17
  -1  12  -3 10161.1 587.131  11
  -1  12  -3 9840.77 610.508  16
  -1  12  -4 433.594 215.666  16
  -1  12  -4-41.9466 171.094  11
  -1  12  -5 27317.9 1035.49  16
  -1  12  -6 669.326 247.240  16
  -1  12  -7 8450.31 603.616  16
  -1  12  -8 613.400 188.112   7
  -1  12  -8 786.585 255.473  16
  -1  12  -9 7756.32 533.835  16
  -1  12  -9 7089.53 433.819   7
  -1  12 -10 2815.82 334.762  16
  -1  12 -11 433.507 159.678  16
  -1  12 -12 232.076 115.693  16
  -1  12 -13 333.116 102.074  16
  -1  11  15 8600.89 318.667  13
  -1  11  14 924.253 155.813  13
  -1  11  13 4569.29 335.265  13
  -1  11  12 2490.42 275.418  13
  -1  11  11 29342.0 917.833  13
  -1  11  10 1826.75 280.368  13
  -1  11   9 403.117 176.732  13
   1 -11  -9 484.929 187.650  17
   1 -11  -8 11.6857 132.230  17
  -1  11   8 72.9710 142.844  13
   1 -11  -7 44155.6 1278.97  17
  -1  11   7 50060.8 1270.64  13
   1 -11  -6 3516.95 413.317  17
  -1  11   6 4010.59 378.481  13
   1 -11  -5 2216.96 321.081  17
  -1  11   5 1283.79 532.549   1
  -1  11   5 3034.52 703.089   3
  -1  11   5 2372.67 295.924  13
  -1  11   4 4750.35 849.740   3
   1 -11  -4 4278.89 865.108   2
  -1  11   4 4285.73 379.149   7
   1 -11  -4 3535.11 384.031  17
  -1  11   4 4594.91 387.905  13
  -1  11   4 4677.62 900.498   1
  -1  11   3 515.630 335.272   1
  -1  11   3 241.385 139.203  13
  -1  11   3 273.903 138.128   7
   1 -11  -3 95.8539 183.367  17
  -1  11   3 828.835 405.124   3
  -1  11   2 4404.22 376.797  13
   1 -11  -2 4402.96 417.290  17
  -1  11   2 4380.17 825.256   1
  -1  11   2 4529.11 396.048   7
  -1  11   2 4528.91 760.955   3
  -1  11   1-15.1748 115.768  13
   1 -11  -1 192.673 153.087  17
  -1  11   1 155.796 243.193   3
   1 -11   0 1100.43 227.193  17
  -1  11   0 1068.69 457.776   1
  -1  11   0 989.066 197.313  13
  -1  11   0 902.000 391.824   3
   1 -11   1 934.077 222.872  17
  -1  11  -1 833.998 192.064  13
  -1  11  -1 705.076 202.439  11
  -1  11  -1 151.835 326.712   3
   1 -11   2 38231.6 1176.98  17
  -1  11  -2 38727.7 1092.98  11
  -1  11  -2 39664.3 2183.29   3
  -1  11  -3 1042.08 221.285  11
   1 -11   3 1227.14 259.198  17
  -1  11  -3 1364.46 268.475  16
  -1  11  -3 1148.43 432.094   3
  -1  11  -4 68476.2 1617.36  16
  -1  11  -4 69040.0 2921.28   3
  -1  11  -4 66748.0 1464.09  11
  -1  11  -5 1827.80 332.591  16
  -1  11  -6 10847.1 680.948  16
  -1  11  -7 348.819 215.282  16
  -1  11  -8 6887.99 563.700  16
  -1  11  -9 1003.48 200.010   7
  -1  11  -9 1876.83 317.240  16
  -1  11 -10 859.812 259.351  16
  -1  11 -11 1797.46 277.374  16
  -1  11 -12 1873.87 245.319  16
  -1  11 -13 164.726 111.466  16
  -1  10  15 3227.94 242.157  13
  -1  10  14 4261.60 309.516  13
  -1  10  13 50.4790 133.749  13
  -1  10  12 24451.1 847.844  13
  -1  10  11 2635.24 317.125  13
   1 -10 -10 4333.31 410.355  17
  -1  10  10 4414.89 404.865  13
   1 -10  -9 883.831 222.911  17
  -1  10   9 2315.49 301.358  13
  -1  10   8 24336.9 902.523  13
   1 -10  -8 27865.4 1014.64  17
  -1  10   7 1761.30 555.547   1
   1 -10  -7 2316.66 323.165  17
  -1  10   7 1839.58 283.746  13
  -1  10   6 5645.58 434.816  13
  -1  10   6 6940.91 1047.17   1
   1 -10  -6 5389.72 467.826  17
  -1  10   6 5797.60 951.280   3
  -1  10   5 883.491 423.221   1
   1 -10  -5 670.224 218.541  17
  -1  10   5 815.281 191.255  13
  -1  10   5 430.884 322.396   3
  -1  10   4 41218.3 1079.08  13
   1 -10  -4 35464.8 2330.09   2
   1 -10  -4 36529.0 1113.91  17
  -1  10   4 37696.6 2314.27   1
  -1  10   4 38652.1 2186.25   3
  -1  10   3 7486.55 1046.05   1
  -1  10   3 8411.69 483.317  13
  -1  10   3 8333.83 1008.90   3
  -1  10   2 23883.5 1626.36   3
  -1  10   2 23576.4 1797.84   1
  -1  10   1 258.369 281.307   1
  -1  10   1-13.9405 212.999   3
  -1  10   0 11849.1 1137.84   3
  -1  10  -1 76.7258 102.584  11
  -1  10  -1-88.4118 205.990   3
  -1  10  -2 10406.4 559.796  13
  -1  10  -2 11452.3 568.105  11
  -1  10  -2 10250.1 1056.81   3
   1 -10   2 11885.5 624.529  17
  -1  10  -3 1706.61 473.388   3
   1 -10   3 1843.85 268.338  17
  -1  10  -3 1779.11 245.559  11
  -1  10  -3 1987.90 307.073  16
  -1  10  -4 295.606 187.290  16
  -1  10  -4 220.089 137.788  11
  -1  10  -5 36077.1 1157.09  16
  -1  10  -5 33888.2 1029.75  11
   1 -10   5 33907.0 1077.32  18
  -1  10  -6 2858.80 636.961   3
  -1  10  -6 3736.47 424.019  16
  -1  10  -7 7190.02 570.992  16
  -1  10  -8 260.065 222.942  16
  -1  10  -9 32451.5 1171.78  16
  -1  10 -10 3527.54 408.307  16
  -1  10 -11 1130.84 254.815  16
  -1  10 -12 4184.20 384.653  16
  -1  10 -13 68.9877 126.253  16
  -1  10 -14 883.918 151.463  16
   1 -10  14 867.813 134.268  14
  -1   9  16 409.893 100.031  13
  -1   9  15 1985.77 219.532  13
  -1   9  14 2434.46 265.058  13
  -1   9  13 4223.91 379.373  13
  -1   9  12 202.745 156.358  13
   1  -9 -11 4318.69 419.833  17
  -1   9  11 3763.35 381.541  13
   1  -9 -10 450.194 169.026  17
  -1   9  10 417.485 175.780  13
  -1   9   9 30144.6 1007.00  13
   1  -9  -9 30943.7 1064.96  17
  -1   9   8 1518.26 522.062   1
   1  -9  -8 959.514 218.094  17
  -1   9   8 1388.11 237.554  13
  -1   9   7 31106.5 988.834  13
   1  -9  -7 28518.3 1007.86  17
  -1   9   7 30047.2 2110.80   1
  -1   9   6 1895.30 581.236   1
  -1   9   6 2976.31 657.712   3
  -1   9   6 2723.98 293.069  13
  -1   9   5 32457.0 1996.20   3
  -1   9   5 36633.6 998.241  13
  -1   9   5 34898.1 2161.32   1
   1  -9  -4 1161.98 492.853   2
  -1   9   4 609.481 317.059   1
  -1   9   4 745.250 333.040   3
  -1   9   3 6141.89 903.089   1
  -1   9   3 6746.66 852.678   3
  -1   9   2 39500.7 2155.61   1
  -1   9   2 39170.2 1952.80   3
  -1   9   1 12604.3 1238.51   1
  -1   9   1 13179.8 1130.32   3
  -1   9   0 3756.28 602.516   3
  -1   9  -1 2512.70 502.263   3
  -1   9  -2 399.707 298.760   3
  -1   9  -3 47096.8 2147.85   3
  -1   9  -4 8894.30 975.739   3
  -1   9  -5 564.880 169.748  11
  -1   9  -5 506.544 215.554  16
  -1   9  -5-20.5129 179.939   3
  -1   9  -6-143.513 242.910   3
  -1   9  -6 241.098 155.960  16
  -1   9  -7 9306.25 1096.94   3
  -1   9  -7 9286.78 611.462  16
  -1   9  -8 2224.49 346.462  16
  -1   9  -8 1382.27 472.200   3
  -1   9  -9 55.7140 161.168  16
  -1   9 -10 1398.85 283.265  16
   1  -9  11 3218.52 344.744  12
  -1   9 -11 3526.31 398.852  16
   1  -9  12 22906.0 823.286  12
  -1   9 -12 22471.0 856.081  16
  -1   9 -13 1291.30 235.000  16
  -1   9 -14 16063.0 564.164  16
   1  -9  15 409.186 100.310  14
  -1   9 -15 373.226 100.788  16
  -1   8  16 198.323 91.9900  13
  -1   8  15 382.141 108.207  10
  -1   8  15 167.341 120.041  13
  -1   8  14 1154.03 228.905  13
  -1   8  14 804.582 153.027  10
  -1   8  13 250.314 115.307  10
  -1   8  12 6340.26 428.762  10
   1  -8 -12 5737.75 468.224  17
  -1   8  11 6647.92 440.635  10
   1  -8 -11 7397.81 533.843  17
   1  -8 -10 4107.79 407.910  17
   1  -8  -9-36.0024 129.674  17
  -1   8   9 71.1021 247.011   1
  -1   8   8 14571.4 1444.24   1
   1  -8  -8 13287.7 691.620  17
  -1   8   7 397.629 277.853   1
  -1   8   6 62461.0 2771.36   3
  -1   8   6 63689.6 2817.78   1
   1  -8  -5 627.724 330.816   2
  -1   8   5 924.702 375.762   3
  -1   8   5 891.479 362.019   1
  -1   8   4 33593.7 1921.70   1
   1  -8  -4 27436.2 1755.00   2
  -1   8   4 32521.4 1797.74   3
  -1   8   3 7219.00 824.532   3
  -1   8   3 7285.07 901.223   1
  -1   8   2 129889. 3315.26   3
  -1   8   2 132386. 3671.96   1
  -1   8   1 826.740 315.943   3
  -1   8   0 64904.0 2276.77   3
  -1   8  -1 5293.27 676.852   3
  -1   8  -2 45858.7 1942.76   3
  -1   8  -3 759.110 293.449   3
  -1   8  -4 3657.05 593.231   3
  -1   8  -5 118.959 200.139   3
   1  -8   6 63.9539 186.364   4
  -1   8  -6 68.1749 237.985   3
   1  -8   7 2135.04 526.424   4
  -1   8  -7 2023.57 294.541  16
  -1   8  -7 2245.57 538.244   3
  -1   8  -8 25259.7 981.828  16
   1  -8   8 21604.9 1647.45   4
  -1   8  -8 23841.9 1776.45   3
   1  -8   9 298.337 334.238   4
  -1   8  -9 532.231 350.941   3
  -1   8  -9 565.153 230.070  16
   1  -8   9 731.590 206.918  12
   1  -8  10 3182.09 359.398  12
  -1   8 -10 2948.58 379.010  16
  -1   8 -11 11483.8 665.740  16
   1  -8  11 12403.0 675.190  12
  -1   8 -12 6453.45 495.298  16
   1  -8  12 5784.03 460.688  12
  -1   8 -13 772.439 203.022  16
   1  -8  13 1617.28 252.846  12
  -1   8 -14 1147.71 197.779  16
   1  -8  15 2541.63 222.866  14
  -1   8 -15 1593.51 176.445  16
   1  -8  16 126.130 69.4633  14
  -1   7  17 186.283 80.1165  13
  -1   7  16 3459.89 238.878  10
  -1   7  16 3578.23 283.928  13
  -1   7  15 4112.64 308.962  10
  -1   7  14 8123.60 468.233  10
   1  -7 -13-200.506 145.279  17
  -1   7  13 67.0913 110.468  10
  -1   7  12 17673.3 739.100  10
   1  -7 -12 17583.7 801.015  17
   1  -7 -11-190.473 172.631  17
  -1   7  11 531.540 177.204  10
  -1   7  10 197.713 109.199  10
   1  -7 -10 143.178 139.230  17
  -1   7  10 401.413 318.687   1
   1  -7  -9 1050.53 226.072  17
  -1   7   9 1588.07 222.669  10
  -1   7   9 1258.44 451.998   4
  -1   7   9 504.181 330.281   1
  -1   7   8-30.1638 213.532   1
  -1   7   8-184.062 247.151   4
  -1   7   7 5632.17 845.876   1
  -1   7   6 20867.7 1537.32   3
  -1   7   6 21182.2 1536.03   1
  -1   7   5 593.054 316.590   1
   1  -7  -5 1008.73 332.655   2
  -1   7   5 872.868 373.613   3
  -1   7   4 1615.84 436.495   1
  -1   7   4 1552.05 395.248   3
  -1   7   3 46539.2 2033.59   1
  -1   7   3 44673.5 1897.61   3
  -1   7   2 5571.35 708.633   1
  -1   7   2 4979.72 619.462   3
  -1   7   1 99219.5 2630.02   3
  -1   7   0 2304.91 418.335   3
  -1   7  -1 97195.4 2577.15   3
  -1   7  -2 13382.8 980.161   3
  -1   7  -3 15813.2 1097.49   3
  -1   7  -4 5821.34 709.712   3
   1  -7   4 6031.49 665.892   4
   1  -7   5 47252.9 1929.12   4
  -1   7  -5 44908.4 2031.54   3
  -1   7  -6 9381.41 1001.87   3
   1  -7   6 10814.7 998.766   4
   1  -7   7 4681.95 738.977   4
  -1   7  -7 6432.55 894.520   3
  -1   7  -8 2166.54 317.386  16
  -1   7  -8 1762.84 503.186   3
   1  -7   8 1302.57 447.904   4
   1  -7   8 1710.01 276.116  12
   1  -7   9 26054.6 969.779  12
  -1   7  -9 23558.2 1824.96   3
   1  -7   9 21319.6 1713.46   4
  -1   7  -9 24782.6 954.528  16
  -1   7 -10 13113.6 1430.26   3
  -1   7 -10 13676.2 721.229  16
   1  -7  10 14132.2 731.793  12
   1  -7  10 12841.6 1391.85   4
  -1   7 -11 59.2497 167.730  16
   1  -7  11 414.299 195.396  12
   1  -7  12 891.819 225.078  12
  -1   7 -12 730.096 231.075  16
   1  -7  13-190.958 151.217  12
  -1   7 -13 5.86864 152.472  16
  -1   7 -14 5404.79 383.493  16
   1  -7  15 1101.51 182.346  14
   1  -7  16 1024.51 141.082  14
  -1   6  17 11659.4 432.715  13
  -1   6  17 10622.7 374.477  10
  -1   6  16 6972.58 379.539  10
  -1   6  15 10469.6 520.925  10
   1  -6 -14 184.414 151.667  17
  -1   6  14 216.608 131.797  10
   1  -6 -13 4564.07 425.885  17
  -1   6  13 4869.93 411.123  10
  -1   6  12 7770.93 516.158  10
   1  -6 -12 8029.41 571.621  17
  -1   6  11 1532.12 265.461  10
   1  -6 -11 2002.67 310.796  17
  -1   6  10-68.2920 282.568   1
  -1   6  10 372.604 144.930  10
   1  -6 -10 203.311 172.927  17
  -1   6   9 20000.3 1607.63   1
  -1   6   9 15987.9 674.841  10
  -1   6   9 18621.8 1537.72   4
  -1   6   8 10509.6 1115.15   1
  -1   6   8 9643.39 1040.76   4
  -1   6   7 6864.75 883.465   1
  -1   6   7 7276.67 868.515   4
  -1   6   6 27205.7 1653.57   1
  -1   6   6 27438.4 1679.42   3
  -1   6   5 928.094 351.154   3
   1  -6  -5 824.907 304.581   2
  -1   6   5 772.463 326.969   1
  -1   6   4 57825.7 2169.95   1
  -1   6   4 59227.5 2140.41   3
  -1   6   3 27772.3 1453.75   1
  -1   6   3 27190.1 1377.49   3
  -1   6   2 8606.32 788.905   1
  -1   6   2 9873.30 811.635   3
  -1   6   1 228.992 202.761   3
  -1   6   0 63097.2 1905.47   3
  -1   6  -1 3499.94 475.483   3
  -1   6  -2 22747.5 1164.68   3
   1  -6   3 33829.3 1344.36   4
  -1   6  -3 32689.1 1460.39   3
  -1   6  -4 67477.8 2231.30   3
   1  -6   4 73369.0 2113.42   4
   1  -6   5 9975.46 865.919   4
  -1   6  -5 10063.1 934.481   3
  -1   6  -6 33156.0 1782.44   3
   1  -6   6 34783.4 1698.17   4
  -1   6  -7 33814.1 1912.83   3
   1  -6   7 33072.1 1778.12   4
   1  -6   8 23356.1 1599.96   4
  -1   6  -8 25210.5 1739.45   3
  -1   6  -9 16196.2 1486.24   3
  -1   6  -9 19305.8 803.760  16
   1  -6   9 16868.0 1448.09   4
   1  -6   9 20425.0 837.402  12
  -1   6 -10 100.848 151.743  16
   1  -6  10 265.358 161.796  12
   1  -6  10 147.219 195.246   4
  -1   6 -11 240.269 180.632  16
   1  -6  11 368.804 186.868  12
   1  -6  12 3306.90 388.650  12
  -1   6 -12 3818.06 386.962  16
   1  -6  13 7526.80 535.985  12
  -1   6 -13 6584.51 468.282  16
  -1   6 -14 6441.71 416.079  16
   1  -6  15 3349.67 291.896  14
   1  -6  16 309.112 102.330  14
  -1   6 -17 480.420 124.630  17
   1  -6  17 645.766 108.427  14
  -1   5  17 563.772 127.806  10
  -1   5  16 5750.63 374.642  10
   1  -5 -15 9467.08 530.960  17
  -1   5  15 9007.17 515.446  10
  -1   5  14 11667.2 620.357  10
   1  -5 -14 11425.9 634.110  17
  -1   5  13 1284.22 241.996  10
   1  -5 -13 1835.12 285.455  17
   1  -5 -12 38448.9 1208.10  17
  -1   5  11 2026.48 575.192   1
  -1   5  11 2401.44 625.718   4
   1  -5 -11 857.323 236.648  17
  -1   5  10 35454.4 2136.02   4
   1  -5 -10 37349.2 1137.78  17
  -1   5  10 39247.1 2305.75   1
  -1   5   9 1032.03 404.617   4
  -1   5   9 877.052 388.392   1
  -1   5   8 25370.7 1660.00   1
  -1   5   8 25193.6 1629.66   4
  -1   5   7 23718.7 1465.72   4
  -1   5   7 22795.8 1503.00   1
  -1   5   6 3483.07 618.770   3
  -1   5   6 2883.90 584.339   1
   1  -5  -5 14630.7 912.599   2
  -1   5   5 15528.2 1110.10   1
  -1   5   5 16698.8 1166.45   3
   1  -5  -4 2251.84 426.267   2
  -1   5   4 1325.24 367.030   1
  -1   5   4 1899.13 405.902   3
  -1   5   3 18554.4 1086.64   1
  -1   5   3 18230.5 1060.61   3
  -1   5   2 21460.5 1089.90   3
  -1   5   2 22572.0 1153.81   1
  -1   5   1 34404.3 1325.60   3
  -1   5   0 1053.04 255.587   3
  -1   5  -1 136242. 2546.30   3
  -1   5  -2 10970.3 756.504   3
   1  -5   2 9442.11 610.804   4
   1  -5   3 6040.48 538.592   4
  -1   5  -3 6950.67 662.415   3
  -1   5  -4 77374.6 2257.21   3
   1  -5   4 77505.7 2028.72   4
   1  -5   5 75222.3 2162.51   4
  -1   5  -5 74373.7 2379.75   3
   1  -5   6 169.169 189.703   4
  -1   5  -6 146.687 225.090   3
  -1   5  -7 31665.2 1794.34   3
   1  -5   7 31306.8 1650.55   4
  -1   5  -8 6424.93 923.412   3
   1  -5   8 5109.78 740.542   4
  -1   5  -9 55347.4 2667.90   3
   1  -5   9 55809.6 2540.85   4
  -1   5 -10 240.514 302.244   3
   1  -5  10 41.6239 144.810  12
   1  -5  10-13.1415 215.375   4
  -1   5 -10 173.433 160.449  16
  -1   5 -11 64745.5 1447.09  16
   1  -5  11 64102.9 3080.42   4
   1  -5  11 72094.1 1615.44  12
  -1   5 -11 62153.1 3135.33   3
  -1   5 -12 1799.98 283.529  16
   1  -5  12 2448.33 331.150  12
  -1   5 -13 9035.01 526.758  16
   1  -5  13 11674.5 669.997  12
   1  -5  14 9578.03 591.106  12
   1  -5  15 1517.70 221.967  14
   1  -5  16 243.697 116.374  14
  -1   5 -17 7.83875 102.039  17
   1  -5  17 74.2561 81.7527  14
  -1   4  18-43.8136 60.6634  10
  -1   4  18 17.5202 57.4484  13
  -1   4  17 1961.89 210.437  10
  -1   4  16 4753.47 364.774  10
  -1   4  15 231.889 161.763  10
   1  -4 -15 610.148 191.044  17
   1  -4 -14 161.267 155.779  17
   1  -4 -13 13381.5 719.375  17
   1  -4 -12 3287.47 382.775  17
   1  -4 -11 46151.9 1289.29  17
  -1   4  11 40140.0 1031.71  14
  -1   4  11 44593.6 2475.43   4
  -1   4  11 46134.8 2534.18   1
  -1   4  10 4245.53 339.515  14
  -1   4  10 4920.59 852.605   1
  -1   4  10 4633.55 806.336   4
  -1   4   9 50009.8 2358.37   4
  -1   4   9 51094.8 2405.55   1
  -1   4   8 735.607 355.713   1
  -1   4   8 1163.51 387.019   4
  -1   4   7 259149. 4688.61   4
  -1   4   7 260407. 4741.85   1
  -1   4   6 1190.59 315.508   4
  -1   4   6 1079.24 361.177   1
  -1   4   5 124569. 3086.21   3
  -1   4   5 120277. 2878.15   1
   1  -4  -5 122837. 2210.85   2
  -1   4   4 13433.7 925.676   3
   1  -4  -4 12305.0 769.268   2
  -1   4   4 12684.5 890.282   1
  -1   4   3 46737.4 1595.83   3
  -1   4   3 44480.0 1542.72   1
  -1   4   2 11867.5 753.963   1
  -1   4   2 10619.2 708.150   3
  -1   4   1 34261.6 1193.34   3
  -1   4   0 51031.7 1420.83   3
  -1   4  -1 16069.0 815.050   3
   1  -4   2 946.487 203.291   4
  -1   4  -2 975.426 241.747   3
   1  -4   3 884.231 221.039   4
  -1   4  -3 1128.87 292.995   3
  -1   4  -4 63020.7 1930.99   3
   1  -4   4 59671.8 1660.68   4
   1  -4   5 5493.23 569.860   4
   1  -4   6 55015.9 1932.67   4
   1  -4   7 5182.92 663.884   4
   1  -4   8 28990.8 1647.92   4
   1  -4   9 10609.6 1095.27   4
  -1   4 -10 24916.1 859.403  16
   1  -4  10 25250.5 915.839  12
  -1   4 -11 15972.1 701.258  16
   1  -4  11 19952.1 853.539  12
   1  -4  11 19710.4 1681.28   4
  -1   4 -12 1631.91 258.522  16
   1  -4  12 2313.02 322.965  12
   1  -4  13 1245.52 257.552  12
   1  -4  14 16857.3 702.405  14
   1  -4  14 19370.0 844.243  12
   1  -4  15 820.350 190.949  14
   1  -4  16 88.4698 105.341  14
  -1   4 -17-30.3548 111.145  17
   1  -4  17-23.5349 82.0635  14
  -1   4 -18 2123.34 190.903  17
  -1   3  18 544.510 108.734  10
  -1   3  17 270.745 118.902  10
  -1   3  16 1863.98 256.654  10
   1  -3 -16 3987.01 344.386  17
   1  -3 -15 3164.89 348.866  17
   1  -3 -14 11070.1 644.905  17
  -1   3  13 2592.59 301.044  14
   1  -3 -13 3058.36 379.741  17
  -1   3  12 341.403 158.682  14
  -1   3  12 364.745 318.369   4
   1  -3 -12 728.132 229.868  17
  -1   3  12 887.730 429.159   1
   1  -3 -11 12620.0 679.765  17
  -1   3  11 11761.7 562.277  14
  -1   3  11 13819.5 1374.86   4
  -1   3  11 12537.3 1339.44   1
  -1   3  10 42854.0 2277.89   4
  -1   3  10 45814.0 2375.43   1
  -1   3   9 10142.8 1049.46   4
  -1   3   9 10138.2 852.531   6
  -1   3   9 9949.39 1056.70   1
  -1   3   8 16877.2 1313.35   1
  -1   3   8 18777.3 1343.03   4
  -1   3   8 19646.5 1125.99   6
  -1   3   7 511.549 205.716   6
  -1   3   7 578.172 276.136   4
  -1   3   7 407.050 264.281   1
  -1   3   6 167318. 2864.71   6
  -1   3   6 172672. 3425.77   4
  -1   3   5 17451.3 986.013   4
  -1   3   5 18437.2 1051.42   1
   1  -3  -5 18451.6 682.227   2
  -1   3   5 18109.7 1122.27   3
  -1   3   5 17106.1 872.437   6
   1  -3  -4 58472.9 1320.03   2
  -1   3   4 60044.7 1830.45   3
  -1   3   4 61419.7 1783.34   1
  -1   3   4 58738.4 1511.74   6
  -1   3   3 51367.1 1525.37   3
  -1   3   3 51310.3 1504.27   1
  -1   3   2 173078. 2571.59   3
  -1   3   2 166372. 2494.87   1
  -1   3   1 2751.86 326.298   3
  -1   3   0 15186.9 693.574   3
   1  -3   1 109791. 1435.62   4
  -1   3  -1 107588. 1864.58   3
  -1   3  -2 107519. 2002.47   3
   1  -3   2 102603. 1609.16   4
  -1   3  -3 112.951 157.994   3
   1  -3   3 162.685 130.036   4
   1  -3   4 18199.8 865.235   4
   1  -3   5 4564.89 496.748   4
   1  -3   6 849.860 285.770   4
   1  -3   7 17279.0 1147.83   4
   1  -3   8 17845.0 1272.96   4
   1  -3   9 75721.8 2773.58   4
   1  -3  10 10331.5 1122.17   4
   1  -3  11 61420.3 1446.45  12
   1  -3  11 55801.1 2757.76   4
  -1   3 -11 56538.0 1245.36  16
   1  -3  12 12216.5 668.912  12
   1  -3  12 11489.2 1338.59   4
   1  -3  13 3686.40 386.866  12
   1  -3  14 405.759 152.975  14
   1  -3  15 4915.79 381.009  14
   1  -3  16 3528.55 304.090  14
   1  -3  17 969.458 154.662  14
  -1   3 -17 806.395 185.806  17
  -1   3 -18 31.7281 89.5559  17
  -1   2  18 2741.36 211.664  10
  -1   2  17 3264.43 289.750  10
   1  -2 -16 7753.20 474.072  17
  -1   2  16 7873.82 491.136  10
   1  -2 -15 5.66218 151.717  17
   1  -2 -14 164.115 141.597  17
  -1   2  14 123.105 124.756  14
   1  -2 -13 2691.03 358.976  17
  -1   2  13 3227.91 328.516  14
  -1   2  12 308.768 341.450   4
  -1   2  12 453.420 150.196  14
   1  -2 -12 842.152 226.898  17
  -1   2  12 467.196 143.734  12
  -1   2  11 39956.0 2281.76   4
  -1   2  11 41133.1 2317.64   1
   1  -2 -11 42077.3 1196.92  17
  -1   2  11 36993.1 969.584  14
  -1   2  10 1293.27 444.718   4
  -1   2  10 1053.97 427.557   1
  -1   2   9 16604.0 1308.52   4
  -1   2   9 15842.1 1273.45   1
  -1   2   9 16517.9 1068.06   6
  -1   2   8 9761.25 961.347   1
  -1   2   8 9347.64 761.168   6
  -1   2   8 9719.31 932.677   4
  -1   2   7 231754. 4146.80   4
  -1   2   7 226259. 3504.63   6
  -1   2   7 226905. 4143.53   1
  -1   2   6 56985.5 1872.75   4
  -1   2   6 53752.8 1593.55   6
  -1   2   6 55978.5 1874.31   1
  -1   2   5 18691.9 997.513   4
   1  -2  -5 17087.9 501.276   2
  -1   2   5 17562.8 849.001   6
  -1   2   5 19097.9 1023.06   1
  -1   2   4 12301.2 740.099   1
  -1   2   4 11504.9 779.428   3
   1  -2  -4 11276.7 419.183   2
  -1   2   4 11499.0 641.930   6
  -1   2   4 11100.9 687.339   4
  -1   2   3 49078.8 1332.45   1
  -1   2   3 45985.8 1190.28   6
   1  -2  -3 47082.2 957.305   2
  -1   2   3 47791.1 1379.92   3
  -1   2   2 40843.4 1101.86   1
  -1   2   2 41017.2 1147.07   3
  -1   2   1 196916. 2270.49   3
  -1   2   1 194535. 2147.48   1
  -1   2   0 136.681 105.483   3
  -1   2  -1 14799.1 621.514   3
   1  -2   1 13766.6 417.864   4
  -1   2  -2 212920. 2588.38   3
   1  -2   2 199618. 1968.11   4
   1  -2   3 42024.4 1104.37   4
   1  -2   4 59796.4 1490.21   4
   1  -2   5 652.788 218.578   4
   1  -2   6 835.691 266.708   4
   1  -2   7 314.318 213.145   4
   1  -2   8 34896.3 1710.42   4
   1  -2   9 208.234 242.325   4
   1  -2  10 844.839 345.606   4
   1  -2  11 3551.40 732.574   4
   1  -2  11 3413.71 355.113  12
   1  -2  12 9054.36 1167.47   4
   1  -2  12 9518.06 594.403  12
   1  -2  13 7.38831 106.837  14
   1  -2  13 82.9416 136.713  12
   1  -2  14 11995.7 602.978  14
   1  -2  15 156.269 123.095  14
   1  -2  16 10607.4 518.404  14
  -1   2 -16 10460.1 601.160  17
  -1   2 -17 6.17364 128.635  17
   1  -2  17-0.11316 98.1236  14
  -1   2 -18 3249.57 257.291  17
  -1   1  18 446.602 108.879  10
  -1   1  17 14531.9 576.342  10
   1  -1 -17 13092.3 521.659  17
   1  -1 -16 60.8630 135.821  17
  -1   1  15 8145.15 483.557  14
   1  -1 -15 7191.80 511.972  17
  -1   1  14 2334.78 284.418  14
   1  -1 -14 2998.80 367.847  17
  -1   1  13 14303.7 649.398  14
   1  -1 -13 15037.7 773.072  17
  -1   1  13 12794.9 612.481  12
  -1   1  12 8546.28 1145.39   4
  -1   1  12 7894.36 489.657  12
  -1   1  12 7280.55 463.082  14
  -1   1  11 1357.89 464.763   4
  -1   1  11 934.051 172.404  14
  -1   1  11 1108.87 206.592  12
  -1   1  10 423.818 245.261   6
  -1   1  10 420.879 301.345   1
  -1   1  10 182.185 248.694   4
  -1   1   9 23855.7 1279.35   6
  -1   1   9 22010.2 1500.62   1
  -1   1   9 21747.5 1477.19   4
  -1   1   8 11696.5 1027.75   4
  -1   1   8 11737.7 858.169   6
  -1   1   8 10855.0 993.515   1
  -1   1   7 132.546 263.642   1
  -1   1   7 483.074 243.117   6
  -1   1   7 641.420 288.549   4
  -1   1   6 262.392 180.697   1
  -1   1   6 355.440 222.925   4
  -1   1   6 295.041 167.293   6
  -1   1   5 1751.76 286.838   6
  -1   1   5 2238.67 353.003   4
  -1   1   5 2079.67 342.567   1
  -1   1   4 119351. 1993.90   6
  -1   1   4 121396. 2132.10   4
  -1   1   4 119415. 2171.30   1
  -1   1   3 6413.01 454.157   1
  -1   1   3 6207.60 484.566   3
  -1   1   3 6568.07 437.684   4
  -1   1   3 6001.51 419.177   6
  -1   1   2 25332.1 656.649   5
  -1   1   2 26187.0 772.190   1
  -1   1   2 25163.0 698.645   4
  -1   1   2 25643.1 830.685   3
  -1   1   1 55831.4 941.813   1
  -1   1   1 52801.1 926.693   5
  -1   1   1 53835.2 1030.62   3
  -1   1   1 53236.7 693.593   4
  -1   1   0 178754. 1691.08   3
  -1   1   0 178295. 1726.28   5
  -1   1  -1 9373.46 399.077   5
   1  -1   1 9733.54 294.296   4
  -1   1  -1 9599.68 439.295   3
  -1   1  -2 68560.9 1240.21   2
   1  -1   2 68338.9 1116.32   4
  -1   1  -2 67657.6 1063.56   5
  -1   1  -3 83938.3 1543.38   2
  -1   1  -3 81236.8 1198.56   5
   1  -1   3 82079.4 1503.85   4
   1  -1   4 149678. 2347.88   4
   1  -1   5 2600.05 370.786   4
   1  -1   6 71417.0 2051.10   4
   1  -1   7 858.514 293.353   4
   1  -1   8 7738.77 826.088   4
   1  -1   9 1543.53 426.176   4
   1  -1  10 370.297 236.915   4
   1  -1  11 997.037 411.051   4
   1  -1  11 966.989 199.782  12
   1  -1  12 802.974 178.629  14
   1  -1  12 999.526 441.145   4
   1  -1  12 955.538 212.848  12
   1  -1  13 77.3820 111.286  14
   1  -1  13 73.9260 145.849  12
   1  -1  14 2662.91 304.045  14
   1  -1  15 605.523 173.577  14
  -1   1 -16 1115.34 245.332  17
   1  -1  16 1107.14 202.269  14
   1  -1  17 5892.23 355.278  14
  -1   1 -17 4469.96 370.107  17
  -1   1 -18 103.715 102.736  17
  -1   0  18 1174.06 151.390  10
   1   0 -17 1030.18 189.098  17
  -1   0  17 1939.30 228.014  10
  -1   0  16 11486.8 529.569  14
   1   0 -16 10325.4 561.132  17
  -1   0  15 1737.81 249.189  14
   1   0 -15 1817.04 288.539  17
   1   0 -14 5559.45 476.945  17
  -1   0  14 5083.33 407.608  12
  -1   0  14 5498.87 418.362  14
  -1   0  13 652.416 193.332  14
  -1   0  13 800.128 191.836  12
  -1   0  12 21188.8 782.912  14
  -1   0  12 21122.4 800.889  12
  -1   0  12 23415.4 1862.99   4
  -1   0  11 779.091 395.206   4
  -1   0  11 813.161 185.855  14
  -1   0  11 646.897 171.391  12
  -1   0  10 33849.7 1970.42   4
  -1   0  10 33036.4 1606.49   6
  -1   0   9 15448.8 1044.68   6
  -1   0   9 13938.3 1170.16   1
  -1   0   9 13501.7 1159.92   4
  -1   0   8 16589.8 1041.50   6
  -1   0   8 15551.3 1154.21   4
  -1   0   8 15486.5 1180.07   1
  -1   0   7 7234.11 744.641   4
  -1   0   7 6547.42 712.581   1
  -1   0   7 7232.43 648.853   6
  -1   0   6 19134.8 1093.38   4
  -1   0   6 21034.9 1015.89   6
  -1   0   6 20489.8 1117.22   1
  -1   0   5 11550.7 700.743   6
  -1   0   5 10985.5 732.144   4
  -1   0   5 11530.3 761.583   1
  -1   0   4 9991.25 631.448   4
  -1   0   4 9618.15 335.394   5
  -1   0   4 9817.75 594.106   6
  -1   0   4 10190.5 633.905   1
  -1   0   3 47835.5 769.107   5
  -1   0   3 49875.2 1168.20   4
  -1   0   3 48983.8 1167.14   1
  -1   0   2 10138.5 435.858   4
  -1   0   2 9617.77 445.454   1
  -1   0   2 10081.9 496.965   3
  -1   0   2 10350.2 368.270   5
  -1   0   1 199580. 1611.97   5
  -1   0   1 202388. 1476.95   1
  -1   0   1 205656. 1428.63   4
  -1   0   1 196535. 1633.23   3
  -1   0   1 193765. 1003.84   2
  -1   0   0 3701.25 227.926   5
  -1   0   0 3959.05 193.267   3
  -1   0   0 3717.88 200.682   2
  -1   0  -1 71517.8 1044.53   2
   1   0   1 70424.7 622.270   1
  -1   0  -2 27507.0 604.637   5
  -1   0  -2 28026.6 750.671   2
   1   0   2 27345.9 626.903   1
  -1   0  -3 374068. 2184.38   5
  -1   0  -3 375652. 3075.61   2
  -1   0  -4 33065.0 1007.17   2
  -1   0  -4 31664.1 628.313   5
   1   0   4 32184.8 1117.66   4
   1   0   4 30377.5 1006.14   1
   1   0   5 95671.7 2208.59   4
  -1   0  -5 101738. 1934.78   2
   1   0   5 98477.6 2033.74   1
   1   0   6 141151. 2919.87   4
   1   0   6 138040. 2700.64   1
  -1   0  -6 144755. 2537.61   2
   1   0   7 6048.77 649.267   1
   1   0   7 6193.35 691.831   4
   1   0   7 5479.99 406.016   6
   1   0   8 1424.64 393.813   1
   1   0   8 1898.51 469.117   4
   1   0   9 52374.8 2285.96   4
   1   0  10 27042.2 1759.01   4
   1   0  11 7630.29 481.578  12
   1   0  11 6706.75 415.507  14
   1   0  11 6752.85 967.286   4
   1   0  12 1898.48 273.695  12
   1   0  12 1859.14 565.367   4
   1   0  12 2179.70 258.341  14
   1   0  13 2011.74 272.179  14
   1   0  14 257.523 149.623  14
  -1   0 -15 1083.02 263.570  17
   1   0  15 1307.09 219.887  14
   1   0  16 1823.49 240.754  14
  -1   0 -16 1220.30 255.772  17
  -1   0 -17 1203.11 221.187  17
  -1   0 -18 886.521 165.908  17
  -1  -1  18 2104.58 182.239  10
  -1  -1  17 10673.0 484.119  10
  -1  -1  17 10161.6 438.233  14
  -1  -1  16 1943.17 240.144  14
   1   1 -16 2427.94 294.589  17
   1   1 -15 10789.0 622.387  17
  -1  -1  15 11769.8 576.165  14
  -1  -1  14 1794.89 273.797  12
  -1  -1  14 1709.65 261.459  14
  -1  -1  13 13939.1 657.163  14
  -1  -1  13 13437.4 670.567  12
  -1  -1  12 5198.20 418.154  12
  -1  -1  12 5650.54 971.892   4
  -1  -1  11 50058.6 2589.46   4
  -1  -1  11 45642.7 1168.14  12
  -1  -1  10 15225.9 1135.21   6
  -1  -1  10 16043.4 1381.73   4
  -1  -1   9 1363.74 353.949   6
  -1  -1   9 1195.68 393.769   4
  -1  -1   8 946.307 302.322   6
  -1  -1   8 1024.38 365.620   4
  -1  -1   7 56239.5 2044.60   4
  -1  -1   7 59789.6 1887.18   6
  -1  -1   6 5549.69 615.266   4
  -1  -1   6 5767.74 604.036   1
  -1  -1   5 31469.7 1228.77   1
  -1  -1   5 30715.0 1221.14   4
  -1  -1   4 212121. 2844.77   4
  -1  -1   4 205788. 2767.84   1
  -1  -1   3 98337.5 1727.58   4
  -1  -1   3 97867.5 1205.91   5
  -1  -1   2 59432.0 1130.50   4
  -1  -1   2 61622.9 1053.79   5
  -1  -1   1 2471.98 207.349   4
  -1  -1   1 2675.85 251.003   5
  -1  -1   0 25141.3 738.708   5
  -1  -1   0 24129.6 677.639   2
   1   1   1 12206.9 367.925   1
  -1  -1  -1 12701.2 520.026   5
  -1  -1  -1 13669.1 531.441   2
   1   1   2 4719.89 298.516   1
  -1  -1  -2 4914.21 316.158   5
  -1  -1  -2 4962.98 359.845   2
  -1  -1  -3 91555.6 1274.02   5
  -1  -1  -3 90848.5 1572.34   2
   1   1   4 79606.1 871.228   6
  -1  -1  -4 87213.0 1148.55   5
   1   1   4 79815.1 1660.19   1
  -1  -1  -4 86089.1 1684.32   2
  -1  -1  -5 43353.9 740.303   5
   1   1   5 47124.3 1439.44   1
  -1  -1  -5 47119.9 1325.83   2
   1   1   5 43906.5 802.293   6
  -1  -1  -6 408056. 4127.31   2
   1   1   6 400337. 4677.34   1
   1   1   6 408892. 2824.64   6
   1   1   6 396342. 4964.32   4
   1   1   7 2140.49 436.392   4
  -1  -1  -7 1829.48 325.386   2
   1   1   7 1891.89 225.669   6
   1   1   7 1714.07 389.998   1
   1   1   8 207753. 4256.07   4
   1   1   8 210687. 4099.05   1
   1   1   9 3568.43 655.568   4
   1   1   9 3608.54 600.130   1
   1   1  10 67269.2 2689.99   1
   1   1  10 63948.4 2755.51   4
   1   1  11 780.394 187.183  12
   1   1  11 634.555 161.357  14
   1   1  12 1455.19 218.694  14
   1   1  12 845.746 419.390   4
   1   1  13 24074.9 838.713  14
  -1  -1 -14 2099.02 336.907  17
   1   1  14 1925.77 266.993  14
   1   1  15 1442.82 234.520  14
  -1  -1 -15 1131.99 271.574  17
  -1  -1 -16 1145.03 247.216  17
  -1  -1 -17 1889.91 271.930  17
  -1  -1 -18 566.850 146.211  17
  -1  -2  18 758.153 110.755  10
  -1  -2  17 295.770 121.603  10
   1   2 -17 31.9003 101.999  17
  -1  -2  17 285.786 114.159  14
   1   2 -16 2577.34 297.048  17
  -1  -2  16 3118.36 284.027  14
  -1  -2  15 9692.27 523.565  14
  -1  -2  15 9567.16 550.294  12
  -1  -2  14 15703.5 722.713  12
  -1  -2  14 15229.0 684.852  14
  -1  -2  13 11286.9 621.283  12
  -1  -2  12 17230.2 764.973  12
  -1  -2  12 18272.6 1683.39   4
  -1  -2  11 2121.65 604.229   4
  -1  -2  11 3006.00 340.670  12
  -1  -2  10 50511.8 2127.34   6
  -1  -2  10 47295.5 2393.33   4
  -1  -2   9 3694.04 575.224   6
  -1  -2   9 3967.44 668.501   4
  -1  -2   8 88948.2 2809.62   4
  -1  -2   8 90849.4 2558.73   6
  -1  -2   7 244.040 258.667   4
  -1  -2   6 132245. 2864.25   4
  -1  -2   5 9769.36 727.436   4
  -1  -2   5 9237.20 397.318   5
  -1  -2   4 371001. 2954.84   5
  -1  -2   4 381791. 3989.68   4
  -1  -2   3 6123.23 442.213   5
  -1  -2   3 5788.74 466.925   4
  -1  -2   2 112700. 1955.96   5
  -1  -2   2 115662. 1768.84   4
  -1  -2   1 315.562 169.455   5
  -1  -2   1 306.828 112.226   4
  -1  -2   0 11065.6 655.299   5
   1   2   0 9056.51 221.254   3
  -1  -2  -1 110659. 1884.98   2
  -1  -2  -1 99878.6 1950.26   5
  -1  -2  -2 23216.3 892.986   2
  -1  -2  -2 22921.4 910.686   5
   1   2   2 21577.2 727.817   1
   1   2   3 1121.86 223.237   1
  -1  -2  -3 1268.32 237.812   5
  -1  -2  -3 1245.18 237.790   2
   1   2   4 36056.1 1192.23   1
  -1  -2  -4 38142.6 1061.66   5
  -1  -2  -4 35643.5 1157.80   2
  -1  -2  -5 120623. 1683.43   5
  -1  -2  -5 119789. 2230.55   2
  -1  -2  -6 7433.90 352.783   5
  -1  -2  -6 7971.82 616.699   2
   1   2   6 7270.00 670.483   1
   1   2   7 4766.46 665.310   4
   1   2   7 4895.58 627.375   1
  -1  -2  -7 4710.75 521.017   2
  -1  -2  -8 1407.54 341.949   2
   1   2   8 1744.67 469.104   1
   1   2   8 1811.02 493.742   4
  -1  -2  -9 40776.7 1602.05   2
   1   2   9 37574.2 1987.50   4
   1   2   9 37999.5 1913.77   1
   1   2  10 925.483 382.077   1
   1   2  10 1573.63 458.815   4
   1   2  11 31870.7 2021.50   1
   1   2  11 29649.9 855.963  14
   1   2  11 32559.9 2124.57   4
   1   2  12 1539.59 534.703   4
   1   2  12 1704.27 231.550  14
  -1  -2 -12 1526.91 268.198  17
  -1  -2 -13 50691.3 1433.58  17
   1   2  13 45818.3 1163.24  14
  -1  -2 -14 4024.47 435.988  17
   1   2  14 3612.84 351.916  14
   1   2  15 13551.7 639.783  14
  -1  -2 -15 13733.2 747.271  17
  -1  -2 -16 1638.33 281.083  17
  -1  -2 -17 1218.35 228.195  17
   1   2  18 2764.61 224.562  10
  -1  -2 -18 2141.78 226.300  17
  -1  -3  17 2255.25 208.594  14
   1   3 -17 1924.41 215.387  17
   1   3 -16 823.747 189.177  17
  -1  -3  16 1058.03 183.667  14
  -1  -3  15-79.1179 133.680  14
  -1  -3  15 36.7352 128.734  12
  -1  -3  14 1251.19 255.669  12
  -1  -3  14 1367.96 237.489  14
  -1  -3  13 627.594 204.660  12
  -1  -3  12 3470.28 382.899  12
  -1  -3  11 4223.97 406.544  12
  -1  -3  11 4133.12 807.765   4
  -1  -3  10 8445.46 1046.33   4
  -1  -3  10 8090.04 516.981  12
  -1  -3  10 8006.45 890.389   6
  -1  -3   9 13794.3 1258.86   4
  -1  -3   9 11639.9 1029.50   6
  -1  -3   8 2503.92 530.565   4
  -1  -3   7 90274.0 2697.23   4
  -1  -3   6 13087.8 972.827   4
  -1  -3   5 30393.1 1330.95   4
  -1  -3   5 30294.4 1013.76   5
  -1  -3   4 40945.4 1310.95   5
  -1  -3   4 40952.7 1410.99   4
  -1  -3   3 48801.6 1562.62   5
  -1  -3   3 50938.7 1436.18   4
  -1  -3   2 40687.3 1191.37   4
  -1  -3   2 38499.5 1448.39   5
  -1  -3   1 942071. 5192.76   4
  -1  -3   1 917576. 7076.81   5
   1   3   0 6451.54 291.274   3
  -1  -3   0 6370.40 647.927   5
   1   3   1 36420.2 821.092   3
  -1  -3  -1 35071.5 1412.77   5
  -1  -3  -2 109584. 2470.83   5
  -1  -3  -2 114354. 2298.55   2
   1   3   2 110315. 1902.42   1
   1   3   2 106448. 1743.11   3
   1   3   3 72042.6 1687.12   1
  -1  -3  -3 74502.9 1875.30   2
  -1  -3  -3 77269.5 2026.00   5
  -1  -3  -4 438.386 234.476   5
  -1  -3  -4 253.086 172.922   2
   1   3   4 256.393 184.186   1
  -1  -3  -5 917.951 281.954   2
  -1  -3  -5 1645.24 312.026   5
   1   3   5 1107.72 298.723   1
  -1  -3  -6 61239.1 1436.16   5
  -1  -3  -6 59667.1 1750.20   2
   1   3   6 57955.0 1920.19   1
   1   3   7 14071.5 1032.72   1
  -1  -3  -7 15199.2 929.504   2
  -1  -3  -8 74669.2 2106.39   2
   1   3   8 73019.7 2487.55   1
   1   3   8 74736.4 2684.23   4
   1   3   9 1783.19 455.871   1
  -1  -3  -9 1711.92 350.472   2
   1   3   9 1847.83 518.096   4
   1   3  10 25965.0 1814.14   4
   1   3  10 27658.6 1787.83   1
   1   3  11-119.986 284.057   4
   1   3  11 256.325 119.510  14
  -1  -3 -11 391.759 179.089  17
   1   3  11 373.457 299.956   1
   1   3  12 23984.9 1890.32   1
   1   3  12 24924.1 1981.38   4
   1   3  12 25285.4 835.376  14
  -1  -3 -12 28225.3 1040.74  17
   1   3  13 1892.16 268.117  14
  -1  -3 -13 1894.60 312.243  17
  -1  -3 -14 11698.2 709.240  17
  -1  -3 -15 4189.96 439.898  17
  -1  -3 -16 8541.71 553.794  17
  -1  -3 -17 895.463 199.889  17
  -1  -3 -18 705.636 147.074  17
   1   3  18 1046.00 144.334  10
  -1  -4  17 5803.36 290.147  10
  -1  -4  17 5367.51 295.845  14
   1   4 -16 201.863 129.971  17
  -1  -4  16 341.615 121.820  14
  -1  -4  15 208.659 131.248  14
  -1  -4  15 50.2988 119.745  12
  -1  -4  14 4114.44 399.000  12
  -1  -4  13 17337.2 792.362  12
  -1  -4  12 8686.09 578.512  12
  -1  -4  11-107.480 286.342   4
  -1  -4  11-6.53187 151.146  12
  -1  -4  10 12233.4 1298.76   4
  -1  -4  10 13961.8 1200.08   6
  -1  -4  10 14777.1 717.127  12
  -1  -4   9 5499.40 818.059   4
  -1  -4   8 2381.50 537.547   4
  -1  -4   7 2193.00 467.596   4
  -1  -4   6 16161.3 1129.25   4
  -1  -4   5 72886.9 2182.79   4
  -1  -4   5 69760.3 1926.16   5
  -1  -4   4 170268. 3313.46   5
  -1  -4   4 171045. 3073.10   4
  -1  -4   3 22738.4 1054.68   4
  -1  -4   3 20391.2 1225.18   5
  -1  -4   2 125218. 2257.74   4
   1   4  -2 124145. 1790.17   3
   1   4  -1 1137.26 168.785   3
   1   4   0 65836.8 1171.54   3
   1   4   1 33231.6 914.014   3
  -1  -4  -2 7422.14 683.274   2
   1   4   2 8166.32 526.480   3
  -1  -4  -2 7443.74 777.661   5
   1   4   3 453.196 178.666   3
   1   4   3 525.476 208.523   1
  -1  -4  -3 356.103 276.830   5
  -1  -4  -3 298.161 203.358   2
  -1  -4  -4 9789.88 785.225   2
   1   4   4 9481.05 735.224   1
  -1  -4  -4 10064.0 884.170   5
   1   4   5 36510.0 1510.52   1
  -1  -4  -5 35559.8 1467.14   2
  -1  -4  -5 35369.7 1511.88   5
  -1  -4  -6 22325.5 1103.16   5
   1   4   6 20806.1 1222.56   1
  -1  -4  -6 21135.9 1130.88   2
  -1  -4  -7 1210.83 309.094   2
   1   4   7 987.192 343.339   1
  -1  -4  -8 2222.26 421.586   2
   1   4   8 1896.39 486.900   1
   1   4   9 2341.42 574.002   4
   1   4   9 1972.20 496.299   1
   1   4  10 1045.51 451.050   4
   1   4  10 1181.31 433.186   1
   1   4  11 4372.86 849.538   4
   1   4  11 4266.00 815.886   1
  -1  -4 -11 4150.45 411.451  17
   1   4  11 3688.23 326.192  14
   1   4  12 1027.69 438.567   1
  -1  -4 -12 668.857 221.324  17
   1   4  12 1277.74 486.741   4
  -1  -4 -13 3871.88 428.935  17
  -1  -4 -14 3327.27 397.421  17
  -1  -4 -15 32815.3 1108.59  17
  -1  -4 -16 85.9529 154.022  17
  -1  -4 -17 5553.22 390.379  17
   1   4  17 4323.95 304.321  10
  -1  -4 -18 6.14376 86.3402  17
   1   4  18 58.2828 67.7274  10
   1   5 -17 130.586 93.6457  17
  -1  -5  17 103.665 83.7614  14
  -1  -5  16 2861.30 246.198  14
  -1  -5  15 38.4966 108.716  14
  -1  -5  15 102.896 139.698  12
  -1  -5  14 7275.81 502.659  12
  -1  -5  13 1434.76 276.404  12
  -1  -5  12 2758.64 358.005  12
  -1  -5  11 10567.9 637.435  12
  -1  -5  11 11342.6 1339.82   4
  -1  -5  10 688.913 371.597   4
   1   5 -10 397.607 154.786  16
  -1  -5  10 346.241 159.054  12
  -1  -5   9 14752.5 709.651  12
  -1  -5   9 12899.8 1276.90   4
  -1  -5   8 1624.90 461.411   4
  -1  -5   7 674.403 305.336   4
  -1  -5   6 1238.79 383.478   4
  -1  -5   5 150653. 3309.10   4
  -1  -5   5 153363. 3385.14   5
  -1  -5   4 18809.1 1109.71   4
  -1  -5   4 20145.0 1333.10   5
   1   5  -4 18387.9 949.597   3
  -1  -5   3 1717.88 479.626   5
   1   5  -3 1764.96 275.285   3
  -1  -5   3 1888.84 367.889   4
  -1  -5   2 50850.7 1572.74   4
   1   5  -2 50224.6 1251.41   3
  -1  -5   2 50519.3 2178.88   5
   1   5  -1 179747. 2247.49   3
   1   5   0 198.673 106.011   3
   1   5   1 40753.9 1150.57   3
   1   5   2 14676.6 765.555   3
  -1  -5  -3 273952. 4504.72   2
   1   5   3 279850. 3996.80   1
   1   5   3 279733. 3714.15   3
  -1  -5  -3 265324. 5002.88   5
   1   5   4 65521.8 2053.23   1
  -1  -5  -4 62769.7 2134.63   2
   1   5   4 63295.0 1947.97   3
  -1  -5  -4 62597.4 2376.58   5
  -1  -5  -5 42759.1 1921.33   5
  -1  -5  -5 41564.4 1748.06   2
   1   5   5 44166.0 1786.83   1
  -1  -5  -6 511.891 299.784   5
  -1  -5  -6 527.332 257.206   2
   1   5   6 558.279 273.577   1
   1   5   7 5952.42 749.007   1
  -1  -5  -7 6570.09 706.996   2
   1   5   8 3592.36 612.413   1
  -1  -5  -8 3211.28 506.519   2
   1   5   9 10756.0 1185.47   4
   1   5   9 9377.65 1065.10   1
  -1  -5 -10 3614.75 378.064  17
   1   5  10 2560.18 617.626   1
   1   5  10 2513.61 648.854   4
   1   5  11 936.626 432.872   1
  -1  -5 -11 788.739 223.113  17
   1   5  11 923.354 430.342   4
  -1  -5 -12 3480.90 401.766  17
  -1  -5 -13 6737.48 541.978  17
  -1  -5 -14 3842.92 414.849  17
  -1  -5 -15 2298.36 324.903  17
  -1  -5 -16 3393.26 348.191  17
   1   5  16 2812.07 268.204  10
   1   5  17 1097.91 155.331  10
  -1  -5 -17 946.467 182.140  17
  -1  -5 -18 2617.15 208.691  17
  -1  -6  17 140.123 70.4569  14
  -1  -6  16 556.073 126.568  14
  -1  -6  15 6072.00 382.432  14
  -1  -6  15 6395.34 419.446  12
  -1  -6  14 1081.46 232.846  12
  -1  -6  13 4772.15 433.708  12
  -1  -6  12 171.876 159.682  12
   1   6 -12 185.428 139.118  16
   1   6 -11 18986.5 791.261  16
  -1  -6  11 22361.8 933.825  12
  -1  -6  10 31901.1 2217.10   4
  -1  -6  10 33955.5 1130.92  12
   1   6 -10 31959.5 991.158  16
   1   6  -9 5768.74 431.122  16
  -1  -6   9 7111.07 1009.82   4
   1   6  -9 4827.93 747.096   3
  -1  -6   9 6665.87 511.661  12
  -1  -6   8 1676.47 486.050   4
   1   6  -8 1719.34 391.817   3
  -1  -6   7 20016.7 1474.74   4
   1   6  -7 20528.7 1325.46   3
   1   6  -6 7230.53 730.495   3
  -1  -6   6 8227.39 898.063   4
   1   6  -5 493.930 223.690   3
  -1  -6   5 624.880 329.136   4
   1   6  -4 17214.1 969.201   3
  -1  -6   4 17532.9 1130.67   4
  -1  -6   4 18289.7 1437.86   5
  -1  -6   3 28536.7 1350.40   4
   1   6  -3 26727.4 1102.87   3
  -1  -6   3 27688.8 1812.37   5
   1   6  -2 19073.7 864.000   3
   1   6  -1 15463.9 755.504   3
   1   6   0 53532.5 1415.60   3
   1   6   1 19481.1 900.049   3
   1   6   2 104539. 2216.08   3
   1   6   3 38094.4 1622.41   1
   1   6   3 37956.1 1456.05   3
   1   6   4 22492.3 1237.72   3
  -1  -6  -4 22073.8 1407.23   2
  -1  -6  -4 23140.1 1647.90   5
   1   6   4 23357.7 1340.67   1
  -1  -6  -5 50488.7 2101.54   2
   1   6   5 54044.3 2116.57   1
  -1  -6  -5 50929.1 2350.32   5
   1   6   6 34616.4 1780.53   1
  -1  -6  -6 33012.9 1685.29   2
  -1  -6  -6 35084.7 1875.65   5
   1   6   7 12944.6 1140.36   1
  -1  -6  -7 11107.8 967.154   2
   1   6   8 60507.5 2574.26   1
  -1  -6  -8 61225.2 2281.20   2
   1   6   9 2592.89 633.045   1
   1   6  10 40122.5 2418.86   4
   1   6  10 38928.6 2278.04   1
  -1  -6 -10 41226.6 1223.03  17
   1   6  11 13532.4 1434.14   1
  -1  -6 -11 13144.9 723.989  17
   1   6  11 14843.8 1559.29   4
  -1  -6 -12 19459.7 902.112  17
  -1  -6 -13 3558.14 415.780  17
  -1  -6 -14 0.22030 166.184  17
   1   6  15 498.420 138.967  10
  -1  -6 -15 81.0182 170.713  17
  -1  -6 -16 413.418 178.462  17
   1   6  16 926.053 158.898  10
   1   6  17 2347.17 187.872  10
  -1  -6 -17 2248.80 235.788  17
   1   6  18 135.920 73.5875  13
  -1  -7  16 1041.84 143.496  14
  -1  -7  15 8016.04 416.364  14
  -1  -7  15 9561.03 478.629  12
  -1  -7  14 722.069 187.822  12
  -1  -7  13 383.588 175.825  12
   1   7 -12 6865.43 470.062  16
  -1  -7  12 6959.16 539.620  12
   1   7 -11 98.8891 153.336  16
  -1  -7  11 4.69228 171.199  12
   1   7 -10 21070.0 847.006  16
  -1  -7  10 26223.1 1020.70  12
  -1  -7   9 7929.68 1082.21   4
  -1  -7   9 7992.59 570.860  12
   1   7  -9 7022.70 492.424  16
  -1  -7   8 11163.4 658.903  12
   1   7  -8 10725.1 589.698  16
  -1  -7   8 10512.2 1179.59   4
  -1  -7   7 4908.20 788.974   4
   1   7  -7 5092.15 685.616   3
  -1  -7   6 15073.0 1243.18   4
   1   7  -6 15097.4 1091.83   3
  -1  -7   5 4983.46 690.431   4
  -1  -7   5 3763.35 723.361   5
   1   7  -5 4280.90 536.457   3
  -1  -7   4 271.907 351.561   5
   1   7  -4 32.7779 131.790   3
  -1  -7   4 551.316 273.646   4
  -1  -7   3 19149.2 1627.17   5
   1   7  -3 19752.7 1008.05   3
   1   7  -2 12734.9 776.188   3
  -1  -7   2 12167.8 1321.12   5
   1   7  -1 14186.2 809.866   3
   1   7   0 12419.4 770.829   3
   1   7   1 14950.3 870.354   3
   1   7   2 9819.25 748.448   3
   1   7   3 82938.9 2618.35   1
  -1  -7  -3 83043.8 3355.55   5
   1   7   3 83002.3 2314.26   3
   1   7   4 22243.2 1410.03   1
  -1  -7  -4 22240.8 1764.38   5
  -1  -7  -4 20746.3 1483.24   2
   1   7   4 22123.2 1294.55   3
  -1  -7  -5 115655. 3436.79   2
  -1  -7  -5 122587. 3985.93   5
  -1  -7  -6 711.190 319.215   2
   1   7   6 798.019 329.044   1
  -1  -7  -6 486.083 365.828   5
   1   7   7 42382.8 2199.63   1
  -1  -7  -7 39082.5 1947.61   2
  -1  -7  -8 26539.9 1596.59   2
   1   7   8 27753.6 1829.45   1
   1   7   9 114409. 3879.79   1
  -1  -7  -9 107487. 1960.96  17
  -1  -7 -10 840.206 222.327  17
   1   7  10 1467.84 520.089   4
   1   7  10 1308.37 518.262   1
  -1  -7 -11 34636.2 1182.53  17
  -1  -7 -12 122.085 177.198  17
  -1  -7 -13 14625.5 772.450  17
  -1  -7 -14 207.261 178.213  17
  -1  -7 -15 7372.79 495.256  17
  -1  -7 -16 48.3850 123.221  17
  -1  -7 -17 1789.85 200.648  17
   1   7  17 2211.10 201.928  13
  -1  -8  16 16.8254 65.3002  14
  -1  -8  15 5372.58 319.333  14
  -1  -8  15 6134.04 358.133  12
  -1  -8  14 565.725 163.591  12
   1   8 -13 3012.67 292.747  16
  -1  -8  13 3603.72 354.599  12
  -1  -8  12 10610.5 622.302  12
   1   8 -12 9109.21 530.224  16
   1   8 -11 16676.6 746.215  16
  -1  -8  11 17200.8 817.034  12
   1   8 -10 9818.72 600.471  16
  -1  -8  10 9578.77 631.639  12
  -1  -8   9 23901.4 1905.83   4
   1   8  -9 26334.1 953.454  16
  -1  -8   9 28810.0 1062.28  12
   1   8  -8 6675.02 499.572  16
  -1  -8   8 6403.26 958.565   4
  -1  -8   8 6467.29 517.617  12
   1   8  -7 25979.6 941.029  16
  -1  -8   7 27695.1 1847.95   4
  -1  -8   7 29880.8 978.977  18
  -1  -8   7 29310.9 1032.72  12
  -1  -8   6 2526.99 585.048   4
  -1  -8   5 39412.4 2347.94   5
  -1  -8   4 141.090 307.546   5
   1   8  -3 14206.4 925.060   3
  -1  -8   3 13998.0 1502.75   5
  -1  -8   2 767.780 460.993   5
   1   8  -2 1201.03 291.428   3
   1   8  -1 234.256 143.737   3
  -1  -8   1 40.7684 357.565   5
   1   8   0 18947.3 1042.29   3
   1   8   1 7087.12 660.668   3
   1   8   2 3259.11 469.064   3
   1   8   3 282.261 194.513   3
  -1  -8  -3 936.506 400.534   2
  -1  -8  -3 405.489 469.132   5
   1   8   3 268.485 235.324   1
  -1  -8  -4 46883.9 2708.78   5
  -1  -8  -4 46050.1 2383.61   2
   1   8   4 53328.1 2108.88   3
   1   8   4 50392.6 2261.73   1
  -1  -8  -5 8542.97 1027.72   2
   1   8   5 11111.6 1114.41   1
  -1  -8  -5 8851.90 1206.87   5
   1   8   6 21339.7 1578.55   1
  -1  -8  -6 19093.8 1503.18   2
  -1  -8  -6 21990.6 1818.90   5
  -1  -8  -7 2126.21 534.976   2
   1   8   7 1756.65 509.097   1
  -1  -8  -8 11314.1 655.614  17
   1   8   8 10621.4 1210.72   1
  -1  -8  -9 1206.53 267.771  17
   1   8   9 1147.74 451.564   1
   1   8  10 43802.8 2666.73   4
   1   8  10 46898.8 2645.12   1
  -1  -8 -11 10139.4 657.438  17
  -1  -8 -12 17018.5 834.409  17
  -1  -8 -13-73.0801 175.208  17
  -1  -8 -14 23888.6 906.320  17
  -1  -8 -15 519.008 191.601  17
  -1  -8 -16 3350.97 281.597  17
   1   8  16 3047.51 250.545  13
   1   8  17 1233.70 143.784  13
  -1  -9  15 94.3694 82.8005  14
  -1  -9  14-90.9179 109.981  12
   1   9 -13 278.039 128.614  16
  -1  -9  13 320.343 144.653  12
   1   9 -12 2321.26 289.090  16
  -1  -9  12 1868.67 275.302  12
  -1  -9  11 3948.63 399.770  12
   1   9 -11 3817.99 383.667  16
   1   9 -10 15522.3 766.712  16
  -1  -9  10 16447.1 794.630  12
   1   9  -9 1517.25 293.312  16
  -1  -9   9 1341.91 266.943  12
   1   9  -8 303.455 182.998  16
  -1  -9   8 194.826 169.018  12
  -1  -9   7-112.160 136.943  12
   1   9  -7 97.2702 172.443  16
  -1  -9   7 330.112 183.988  18
   1   9  -6 20914.5 867.818  16
  -1  -9   6 20193.5 864.108  12
  -1  -9   6 22204.7 855.627  18
  -1  -9   5 43589.1 2646.36   5
  -1  -9   5 47851.4 1203.22  18
   1   9  -5 43679.1 1231.11  16
  -1  -9   4 32260.6 2349.39   5
  -1  -9   3 9672.28 1356.68   5
  -1  -9   2 50428.2 3033.59   5
  -1  -9   1 7760.20 1242.85   5
  -1  -9   0 6524.03 1139.10   5
  -1  -9  -1 28236.7 2294.68   5
   1   9   1 28157.1 1402.57   3
   1   9   2 54864.4 2030.19   3
   1   9   2 49393.2 2321.06   1
  -1  -9  -2 46317.8 2635.04   2
  -1  -9  -2 49185.4 3019.63   5
  -1  -9  -3 1752.44 666.399   5
  -1  -9  -3 1833.26 573.198   2
   1   9   3 2010.45 518.549   1
   1   9   3 1238.48 350.586   3
   1   9   4 197.664 254.939   1
  -1  -9  -4 453.122 384.300   2
   1   9   4 428.402 252.035   3
  -1  -9  -4 816.794 468.963   5
  -1  -9  -5 442.329 444.500   5
  -1  -9  -5 739.625 387.405   2
   1   9   5 505.216 369.148   1
  -1  -9  -6 337.437 340.617   5
   1   9   6-410.351 315.835   1
  -1  -9  -6 464.188 328.902   2
  -1  -9  -7 258.081 158.423  17
  -1  -9  -7 550.549 352.873   2
   1   9   7-17.0855 233.739   1
  -1  -9  -8 961.911 242.315  17
   1   9   8 940.417 362.332   1
  -1  -9  -9 5657.94 539.519  17
   1   9   9 3570.97 811.308   1
  -1  -9 -10 20654.1 925.540  17
  -1  -9 -11 9382.92 635.209  17
  -1  -9 -12 690.586 223.186  17
  -1  -9 -13 5536.29 471.319  17
  -1  -9 -14 398.549 177.553  17
   1   9  14 620.542 168.402  13
  -1  -9 -15 10504.1 518.779  17
   1   9  15 9087.81 440.776  13
  -1  -9 -16 203.653 108.837  17
   1   9  16 107.926 92.3187  13
   1  10 -14 153.433 84.9942  16
   1  10 -13 1997.09 224.531  16
  -1 -10  13 1796.67 221.719  12
   1  10 -12 1967.29 261.285  16
  -1 -10  12 2399.33 273.501  12
   1  10 -11 127.229 166.200  16
  -1 -10  11 239.480 147.695  12
  -1 -10  10 7430.42 527.017  12
   1  10 -10 7654.18 544.890  16
   1  10  -9 232.533 194.610  16
  -1 -10   9 110.224 141.358  12
   1  10  -8 83.9609 168.059  16
  -1 -10   8-22.1550 151.160  12
  -1 -10   7 8914.35 596.063  18
   1  10  -7 8933.24 601.603  16
  -1 -10   7 8179.86 576.133  12
  -1 -10   6 853.748 230.336  18
   1  10  -6 383.462 224.295  16
  -1 -10   6 864.511 239.691  12
   1  10  -5 5092.99 466.968  16
  -1 -10   5 5622.41 456.008  18
  -1 -10   4 7381.97 513.859  17
  -1 -10   4 6329.68 471.977  18
  -1 -10   4 7348.20 1232.96   5
   1  10  -4 6872.26 512.812  16
  -1 -10   3 24758.7 902.323  17
  -1 -10   3 25207.1 901.989  18
  -1 -10   3 24776.6 2251.69   5
  -1 -10   2 11081.9 1547.22   5
  -1 -10   1 1550.56 674.509   5
  -1 -10   0 28855.1 2505.87   5
  -1 -10  -1 22567.3 2203.79   5
   1  10   2 1117.17 439.035   1
  -1 -10  -2 1694.73 661.197   5
  -1 -10  -2 773.270 498.986   2
   1  10   3 22737.6 1724.90   1
  -1 -10  -3 22623.4 1943.50   2
  -1 -10  -3 26758.4 2346.27   5
  -1 -10  -4 7056.12 1105.87   2
   1  10   4 7576.51 1020.51   1
  -1 -10  -4 6919.09 1242.50   5
  -1 -10  -4 7415.32 515.725  17
  -1 -10  -5 24061.5 2177.59   5
  -1 -10  -5 21571.6 1840.03   2
   1  10   5 24670.1 1866.11   1
  -1 -10  -5 24285.3 925.904  17
  -1 -10  -6 36073.3 1153.67  17
   1  10   6 36731.7 2318.70   1
  -1 -10  -6 33164.9 2463.87   5
  -1 -10  -6 31694.9 2173.86   2
   1  10   6 35522.5 963.456  13
  -1 -10  -7 2334.24 606.480   2
  -1 -10  -7 1816.06 295.167  17
   1  10   7 1673.46 233.828  13
   1  10   7 1534.39 526.361   1
   1  10   8 356.073 142.769  13
  -1 -10  -8 31.9523 272.602  17
   1  10   9 3312.26 325.557  13
  -1 -10  -9 1781.56 310.380  17
   1  10  10 464.235 156.504  13
  -1 -10 -10-65.4718 195.954  17
   1  10  11 3751.17 352.035  13
  -1 -10 -11 3983.76 424.295  17
  -1 -10 -12 1224.51 265.273  17
   1  10  12 893.745 193.925  13
  -1 -10 -13 421.962 173.740  17
   1  10  13 724.603 172.638  13
   1  10  14 11258.6 498.148  13
  -1 -10 -14 13172.7 603.153  17
  -1 -10 -15 898.534 168.818  17
   1  10  15 1342.09 167.800  13
   1  10  16 14653.6 412.627  13
  -1 -11  14-53.7602 75.7614  14
   1  11 -13 496.024 123.080  16
  -1 -11  13 397.115 105.035  12
   1  11 -12 2555.67 278.279  16
  -1 -11  12 2208.69 236.843  12
   1  11 -11 2966.62 329.328  16
  -1 -11  11 2572.69 279.591  12
   1  11 -10 7773.38 522.175  16
  -1 -11  10 5387.43 421.175  12
  -1 -11   9 1848.49 286.942  12
   1  11  -9 1746.40 316.035  16
   1  11  -8 2020.95 314.525  16
  -1 -11   8 1523.68 261.132  12
   1  11  -7 134.078 173.745  16
  -1 -11   7 177.333 155.302  18
   1  11  -6 15073.8 798.538  16
  -1 -11   6 14467.6 756.788  18
  -1 -11   5 24082.3 937.845  18
   1  11  -5 24778.6 969.223  16
  -1 -11   4 1360.27 268.559  17
  -1 -11   4 1358.45 247.556  18
   1  11  -4 1317.62 264.727  16
  -1 -11   3 455.427 200.859  17
  -1 -11   3 332.826 180.267  18
   1  11  -3 460.627 207.740  16
  -1 -11   2 2456.24 314.468  18
  -1 -11   2 2180.36 805.274   5
   1  11  -2 2022.10 301.913  16
  -1 -11   2 2357.05 316.379  17
  -1 -11   1 494.248 541.423   5
  -1 -11   1 39.7969 154.820  17
   1  11  -1 39.5164 124.541  11
  -1 -11   0 71984.3 1562.66  17
  -1 -11   0 77102.3 4202.47   5
  -1 -11  -1 2064.28 307.751  17
  -1 -11  -1 2048.21 786.913   5
   1  11   1 1362.08 514.087   1
  -1 -11  -1 1975.76 678.418   2
  -1 -11  -2 21626.5 2025.66   2
  -1 -11  -2 20922.5 860.673  17
   1  11   2 19874.2 1724.12   1
  -1 -11  -2 23476.2 2352.51   5
  -1 -11  -3-126.039 432.938   5
  -1 -11  -3 902.057 482.746   2
   1  11   3 266.043 310.967   1
  -1 -11  -3 290.550 177.422  17
   1  11   4 35280.1 2313.09   1
  -1 -11  -4 36442.5 2847.75   5
  -1 -11  -4 31440.4 2384.72   2
   1  11   4 34295.7 930.189  13
  -1 -11  -4 36152.2 1166.06  17
  -1 -11  -5 10969.3 1588.71   5
   1  11   5 11389.3 554.367  13
  -1 -11  -5 9318.71 1283.01   2
   1  11   5 12601.1 1410.85   1
  -1 -11  -5 11130.0 657.835  17
  -1 -11  -6 3327.72 393.298  17
   1  11   6 2924.57 298.423  13
   1  11   6 2832.52 710.148   1
  -1 -11  -6 3380.83 782.079   2
  -1 -11  -6 4683.78 990.879   5
  -1 -11  -7 2099.88 333.129  17
   1  11   7 2379.87 281.475  13
  -1 -11  -8 4758.36 458.301  17
   1  11   8 5863.58 417.910  13
  -1 -11  -9 881.833 228.046  17
   1  11   9 1296.07 219.090  13
  -1 -11 -10-34.5176 170.106  17
   1  11  10 131.898 119.137  13
  -1 -11 -11 2466.94 337.889  17
   1  11  11 3824.26 334.706  13
  -1 -11 -12 36.3835 149.635  17
   1  11  12 144.142 116.123  13
   1  11  13 4898.23 340.891  13
  -1 -11 -13 5622.84 413.052  17
  -1 -11 -14 6249.15 381.126  17
   1  11  14 9075.40 400.665  13
  -1 -11 -15 88.0875 93.4701  17
   1  11  15 299.544 86.5383  13
   1  12 -12 7334.00 375.510  16
   1  12 -11 141.798 159.355  16
   1  12 -10 3196.14 345.788  16
   1  12  -9 798.101 248.401  16
   1  12  -8 8362.87 574.941  16
   1  12  -7 1857.65 322.421  16
   1  12  -6 906.396 248.126  16
  -1 -12   6 1010.63 253.415  18
  -1 -12   5 6016.49 496.596  18
   1  12  -5 6667.74 531.338  16
  -1 -12   4 1270.40 257.095  18
   1  12  -4 1266.67 280.224  16
  -1 -12   3 4456.73 417.219  18
   1  12  -3 4048.33 413.341  16
  -1 -12   3 3813.68 407.709  17
  -1 -12   2 3551.82 380.150  18
  -1 -12   2 3100.23 927.452   5
  -1 -12   2 3049.58 368.548  17
   1  12  -2 3119.97 310.090  11
   1  12  -2 3168.48 363.582  16
  -1 -12   1 6000.79 481.284  18
  -1 -12   1 6284.36 1381.13   5
   1  12  -1 6415.18 433.871  11
   1  12  -1 6528.88 496.477  16
  -1 -12   1 6661.81 524.112  17
  -1 -12   0 32543.1 1111.64  17
  -1 -12   0 36508.3 3025.70   5
  -1 -12   0 37681.9 2861.73   2
  -1 -12  -1 11028.8 670.396  17
  -1 -12  -1 13062.7 1809.55   5
   1  12   1 10627.3 1368.97   1
  -1 -12  -1 13020.9 1725.05   2
  -1 -12  -2 13046.2 1656.86   2
  -1 -12  -2 13864.8 1895.75   5
   1  12   2 11353.4 1389.21   1
  -1 -12  -2 14382.3 753.951  17
  -1 -12  -3 13626.9 1865.77   5
  -1 -12  -3 11692.6 1529.88   2
   1  12   3 12920.7 1479.18   1
  -1 -12  -3 14131.4 749.963  17
  -1 -12  -4 1292.05 508.254   5
  -1 -12  -4 1034.44 247.650  17
  -1 -12  -4 1839.22 733.740   2
  -1 -12  -5 21838.5 940.423  17
   1  12   5 20906.5 760.188  13
   1  12   6 7453.76 459.216  13
  -1 -12  -6 5900.12 510.694  17
   1  12   7 19060.9 729.555  13
  -1 -12  -7 17654.6 851.351  17
  -1 -12  -8-58.7430 160.118  17
   1  12   8 81.7697 125.537  13
   1  12   9 14586.9 633.175  13
  -1 -12  -9 17241.3 811.435  17
  -1 -12 -10-11.3633 167.253  17
   1  12  10 69.8588 98.6702  13
  -1 -12 -11 365.654 169.386  17
   1  12  11 646.600 154.211  13
  -1 -12 -12-69.7629 165.031  17
   1  12  12 161.996 105.214  13
  -1 -12 -13-208.946 153.972  17
   1  12  13 58.1067 82.8677  13
   1  12  14 126.039 72.4595  13
  -1 -12 -14 470.432 119.710  17
   1  13 -12 126.339 87.2281  16
   1  13 -11 226.245 122.795  16
   1  13 -10 112.605 136.179  16
   1  13 -10 74.7607 83.3182   7
   1  13  -9 6108.67 441.547  16
   1  13  -8 316.953 183.683  16
   1  13  -7 4600.26 440.254  16
   1  13  -6 248.498 195.697  16
   1  13  -5 6744.53 521.722  16
  -1 -13   5 5198.23 466.161  18
   1  13  -4 24476.5 968.107  16
  -1 -13   4 22099.8 917.220  18
  -1 -13   3 6449.81 501.766  18
   1  13  -3 6461.27 513.395  16
  -1 -13   3 6445.56 527.604  17
  -1 -13   2 4388.28 425.477  18
  -1 -13   2 5075.78 469.452  17
   1  13  -2 5758.20 467.007  16
   1  13  -2 5228.51 399.011  11
   1  13  -1 1944.46 268.062  11
  -1 -13   1 1475.46 282.180  17
  -1 -13   1 1709.98 276.459  18
   1  13  -1 1829.80 288.047  16
  -1 -13   0 32302.1 1131.90  17
  -1 -13   0 31221.4 1067.34  18
   1  13   0 33444.8 989.573  11
  -1 -13  -1 2558.75 361.375  17
  -1 -13  -2 3421.23 411.168  17
  -1 -13  -3 3312.33 403.247  17
  -1 -13  -4 28259.1 1074.38  17
   1  13   5 3026.98 301.674  13
  -1 -13  -5 2822.92 379.573  17
   1  13   6 3505.05 318.535  13
  -1 -13  -6 4493.92 448.758  17
  -1 -13  -7 911.025 260.886  17
   1  13   7 1029.92 189.087  13
  -1 -13  -8 9563.85 607.764  17
   1  13   8 9254.82 487.073  13
  -1 -13  -9 1221.39 258.225  17
   1  13   9 1704.32 218.030  13
   1  13  10 6793.86 397.614  13
  -1 -13 -10 9127.66 547.093  17
   1  13  11-5.33778 93.5143  13
  -1 -13 -11-63.5240 163.038  17
  -1 -13 -12 457.813 140.253  17
   1  13  12 888.800 143.524  13
  -1 -13 -13-272.982 115.065  17
   1  13  13-14.6838 66.1178  13
   1  14 -11 2087.71 180.598  16
   1  14 -10 5651.17 332.274  16
   1  14  -9 3116.15 286.702  16
   1  14  -9 2815.01 233.690   7
   1  14  -8 1012.50 218.465  16
   1  14  -7 1039.81 225.074  16
   1  14  -6 9356.39 562.003  16
   1  14  -5 599.175 201.123  16
  -1 -14   5 138.630 168.563  18
   1  14  -4 304.438 187.712  16
  -1 -14   4 273.726 175.833  18
   1  14  -3 1808.55 284.822  16
  -1 -14   3 1250.72 259.900  18
  -1 -14   2 3532.54 408.326  17
  -1 -14   2 2948.06 342.325  18
   1  14  -2 3309.72 355.275  16
  -1 -14   1 4843.24 466.719  17
  -1 -14   1 4693.28 423.778  18
   1  14  -1 4917.44 386.772  11
   1  14   0 10906.5 562.624  11
  -1 -14   0 11162.0 685.520  17
  -1 -14   0 10302.2 611.413  18
   1  14   1 572.433 175.137  11
  -1 -14  -1 762.138 240.726  17
  -1 -14  -1 601.189 194.187  18
  -1 -14  -2-100.186 128.019  18
  -1 -14  -2 1014.27 256.324  17
  -1 -14  -3 1644.30 293.991  17
   1  14   3 1386.54 214.915   7
  -1 -14  -4 1864.16 314.244  17
  -1 -14  -5 2053.10 319.903  17
  -1 -14  -6 10661.0 636.826  17
   1  14   7 1200.78 191.228  13
  -1 -14  -7 1473.24 271.526  17
  -1 -14  -8 63.9189 161.751  17
   1  14   8 67.6353 95.4798  13
  -1 -14  -9 12165.6 603.222  17
   1  14   9 11472.8 474.902  13
   1  14  10 5635.40 318.374  13
  -1 -14 -10 5441.78 384.917  17
  -1 -14 -11 4198.27 304.494  17
   1  14  11 4112.08 246.253  13
  -1 -14 -12 507.398 115.271  17
   1  15  -9 703.790 138.135  16
   1  15  -8 3474.77 282.543  16
   1  15  -8 3322.76 244.727   7
   1  15  -7 2493.54 266.323  16
   1  15  -6 3045.09 306.017  16
   1  15  -5 10591.5 537.761  16
   1  15  -4 1026.48 213.990  16
  -1 -15   3 18718.9 759.388  18
   1  15  -3 20952.6 756.965  16
  -1 -15   2 10937.6 594.432  18
   1  15  -2 9858.38 521.009  16
  -1 -15   1 21872.7 905.219  17
   1  15  -1 23586.7 756.660  11
  -1 -15   1 22206.6 824.811  18
  -1 -15   0 1137.12 224.667  18
   1  15   0 734.080 183.974  11
  -1 -15   0 1001.05 250.352  17
   1  15   1-249.777 129.941  11
  -1 -15  -1 170.275 136.981  18
  -1 -15  -1 30.2665 161.675  17
   1  15   1 141.997 128.976   7
   1  15   2 1326.55 212.113   7
  -1 -15  -2 1471.37 268.209  17
   1  15   2 1683.32 240.507  11
   1  15   3 3094.20 308.593  11
  -1 -15  -3 3646.00 387.246  17
   1  15   3 2881.74 275.341   7
  -1 -15  -4 280.691 174.584  17
  -1 -15  -5 2918.83 351.531  17
  -1 -15  -6 9225.94 555.515  17
  -1 -15  -7 835.156 202.285  17
  -1 -15  -8 253.065 142.865  17
  -1 -15  -9 1233.15 199.199  17
  -1 -15 -10 2319.56 220.599  17
   1  16  -7 234.585 103.528  16
   1  16  -7 117.462 82.7822   7
   1  16  -6 4440.37 295.829   7
   1  16  -6 4697.40 296.728  16
   1  16  -5 970.822 166.390  16
   1  16  -5 922.496 176.099   7
   1  16  -4 2782.25 251.543  16
   1  16  -4 2745.97 277.177   7
   1  16  -3 1776.97 212.867  16
   1  16  -3 1934.21 246.076   7
  -1 -16   2 1048.11 198.560  18
   1  16  -2 1018.49 201.560   7
   1  16  -1 12027.6 558.644   7
   1  16   0 10150.6 463.391  11
   1  16   0 9923.88 502.317   7
  -1 -16   0 10095.1 583.900  17
   1  16   1 1247.27 191.924  11
   1  16   1 1078.73 180.004   7
  -1 -16  -1 1107.31 235.336  17
  -1 -16  -2 3565.39 359.668  17
   1  16   2 3433.02 287.002   7
   1  16   2 3214.60 290.637  11
  -1 -16  -3 7253.62 491.159  17
   1  16   3 6412.98 393.991  11
  -1 -16  -4 6912.55 463.622  17
   1  16   4 7370.03 416.229  11
  -1 -16  -5 2870.10 306.390  17
   1  16   5 3382.53 289.255  11
   1  16   6 351.892 133.320  11
  -1 -16  -6 374.336 149.476  17
  -1 -16  -7 1214.09 192.253  17
  -1 -16  -8 189.640 108.722  17
  -1 -16  -9 820.192 133.894  17
   1  16  10 448.562 90.5742  11
   1  17  -5 4043.08 244.408   7
   1  17  -4 1339.10 166.073   7
   1  17  -3 982.021 154.509   7
   1  17  -2 90.1981 99.2688   7
   1  17  -1 2954.78 248.310   7
   1  17   0 2690.14 235.349   7
   1  17   1 1426.62 171.127   7
   1  17   2 491.312 121.503  11
   1  17   2 499.027 105.689   7
   1  17   3 3236.80 240.559  11
  -1 -17  -3 3680.75 311.444  17
  -1 -17  -4 802.861 180.871  17
   1  17   4 935.330 144.907  11
  -1 -17  -5 4419.77 309.659  17
   1  17   5 4588.94 272.942  11
  -1 -17  -6 1042.82 154.260  17
   1  17   6 1145.02 142.393  11
   1  17   7 3074.79 204.217  11
  -2  17   4-53.9016 82.1180  11
  -2  17   3 3981.64 253.507  11
  -2  17   1 2117.27 176.033   7
  -2  17   0 677.474 118.364   7
  -2  17  -1 80.8381 83.3986   7
  -2  17  -2 219.436 84.8200   7
  -2  17  -3 4733.14 253.941   7
  -2  16   7 498.101 113.548  11
  -2  16   6 7916.09 373.087  11
  -2  16   5 121.190 99.9358  11
  -2  16   4 667.515 157.481  11
  -2  16   3 6320.43 321.242   7
  -2  16   3 6016.91 384.439  11
  -2  16   2 4980.10 315.815   7
  -2  16   2 5617.78 374.797  11
  -2  16   1 149.479 139.157  11
  -2  16   1 225.678 119.816   7
  -2  16   0 8568.06 435.173   7
  -2  16   0 8489.63 452.956  11
  -2  16  -1 453.331 144.201   7
  -2  16  -2 5376.38 351.842   7
  -2  16  -3 4554.05 320.020   7
  -2  16  -4 1062.37 164.944   7
  -2  16  -5-19.4264 87.9059   7
  -2  16  -6 143.593 78.7829   7
  -2  15   9 320.010 86.7460  11
  -2  15   9 191.335 80.1523  13
  -2  15   8 626.567 139.316  11
  -2  15   8 473.165 122.434  13
  -2  15   7 5328.86 337.360  13
  -2  15   7 5428.86 346.852  11
  -2  15   6 524.892 149.331  13
  -2  15   6 350.657 140.177  11
  -2  15   5 12290.1 564.183  11
  -2  15   5 11245.2 523.034  13
  -2  15   4 1243.46 231.527  11
  -2  15   4 1126.86 167.593   7
  -2  15   4 1368.02 221.440  13
  -2  15   3 19159.2 701.917  13
  -2  15   3 18809.5 744.135  11
  -2  15   2 416.651 149.500   7
  -2  15   2 362.753 179.055  11
  -2  15   1 13735.9 611.400   7
  -2  15   1 15764.3 685.920  11
  -2  15   0 3351.41 343.754   7
  -2  15   0 3516.72 345.897  11
  -2  15  -1 1308.58 232.572  11
  -2  15  -1 1105.08 219.594   7
  -2  15  -2 3472.15 337.378   7
  -2  15  -3 11022.8 559.572   7
  -2  15  -4 1235.38 212.798   7
  -2  15  -5 87.8551 116.202   7
  -2  15  -6 2000.01 225.082   7
  -2  15  -7 19097.0 550.883   7
  -2  15  -7 17183.8 507.158  16
  -2  15  -8 5092.45 258.976  16
  -2  14  11 670.382 115.626  13
  -2  14  10 1331.33 166.822  13
  -2  14  10 1336.97 163.881  11
  -2  14   9 894.235 158.158  13
  -2  14   9 1094.35 176.902  11
  -2  14   8 596.231 152.786  13
  -2  14   7 1609.68 229.245  13
  -2  14   6 4218.24 352.081  13
  -2  14   6 3552.70 344.897  11
  -2  14   5 684.640 197.597  11
  -2  14   5 614.996 175.167  13
  -2  14   4 438.175 167.184  13
  -2  14   4 333.397 132.433   7
  -2  14   4 419.081 179.742  11
  -2  14   3 36.6840 123.085  13
  -2  14   3 91.4489 156.815  11
  -2  14   3-107.098 135.796   7
  -2  14   2 26825.1 909.688  13
  -2  14   2 26054.4 934.636  11
  -2  14   1 6525.28 470.186  13
  -2  14   1 6090.90 469.437   7
  -2  14   1 6552.20 485.895  11
  -2  14   0 465.066 195.004  11
  -2  14   0 852.135 213.304   7
  -2  14  -1 1055.08 225.538  11
  -2  14  -1 932.860 223.606   7
  -2  14  -2 18038.6 779.332  11
  -2  14  -2 18670.1 807.080   7
  -2  14  -3 3923.30 382.636   7
  -2  14  -4 1581.57 260.628   7
  -2  14  -5 2906.12 289.824  16
  -2  14  -5 3577.81 346.373   7
  -2  14  -6 752.603 172.577  16
  -2  14  -6 1012.13 195.159   7
  -2  14  -7 407.563 144.720  16
  -2  14  -7 550.273 150.377   7
  -2  14  -8-150.446 119.008   7
  -2  14  -8 94.0396 123.112  16
  -2  14  -9 3032.91 248.607  16
  -2  14 -10 3237.30 227.657  16
  -2  13  12 1238.79 155.935  13
  -2  13  11 2145.71 218.504  13
  -2  13  10 765.874 166.574  13
  -2  13   9 878.925 187.249  13
  -2  13   8 390.619 165.123  13
  -2  13   7 5668.97 435.998  13
  -2  13   6 1315.87 239.613  13
  -2  13   5 1399.71 242.969  13
  -2  13   4 31.9802 137.020  13
  -2  13   4-97.1144 146.635   7
  -2  13   3 4557.54 428.835  11
  -2  13   3 4823.84 425.006  13
  -2  13   3 4568.57 394.565   7
  -2  13   2 66.1753 176.109  11
  -2  13   2 65.4575 143.485  13
  -2  13   2 120.910 144.293   7
  -2  13   1 2647.19 352.300  11
  -2  13   1 2834.94 339.394  13
  -2  13   1 2673.96 341.183   7
  -2  13   0 12594.1 690.658   7
  -2  13   0 14069.6 699.134  13
  -2  13   0 14744.4 731.057  11
  -2  13  -1 887.651 224.801  11
  -2  13  -1 1059.73 253.008   7
  -2  13  -2 1196.70 249.662  11
  -2  13  -2 1115.45 249.568   7
  -2  13  -3 1087.43 225.519  11
  -2  13  -3 985.581 236.884   7
  -2  13  -4 3545.19 362.902  16
  -2  13  -4 5276.38 451.553   7
  -2  13  -5 6944.46 507.365   7
  -2  13  -5 5568.53 449.335  16
  -2  13  -6 1613.24 261.672  16
  -2  13  -6 1424.87 246.388   7
  -2  13  -7 2218.85 271.694   7
  -2  13  -7 2049.06 289.536  16
  -2  13  -8 138.124 144.586  16
  -2  13  -8 371.856 130.737   7
  -2  13  -9 9200.37 496.303  16
  -2  13 -10 617.504 162.355  16
  -2  13 -11 2420.18 219.568  16
  -2  12  13 8957.94 365.867  13
  -2  12  12 124.009 102.782  13
  -2  12  11 30577.6 848.980  13
  -2  12  10 1787.59 246.760  13
  -2  12   9 393.614 159.248  13
  -2  12   8 14478.6 700.738  13
  -2  12   7 9301.43 577.297  13
  -2  12   6 2713.25 335.910  13
  -2  12   5 191.560 157.277  13
  -2  12   4 2257.80 304.521  13
  -2  12   4 2070.58 270.661   7
  -2  12   3 27244.5 977.400  13
  -2  12   3 29071.2 966.074   7
  -2  12   2 7955.38 526.608  13
  -2  12   2 7644.84 526.095   7
  -2  12   1 11359.4 646.050   7
  -2  12   1 10419.2 594.078  13
  -2  12   1 10263.8 629.280  11
  -2  12   0 150.160 163.924  11
  -2  12   0 72.9990 138.065  13
  -2  12   0 90.5737 146.415   7
   2 -12   1 6642.42 514.388  17
  -2  12  -1 7311.61 538.566  11
  -2  12  -1 7705.85 512.883  13
  -2  12  -1 6983.86 538.213   7
  -2  12  -2 10031.7 626.471   7
  -2  12  -2 9033.05 570.401  11
  -2  12  -3 15828.4 792.986   7
  -2  12  -3 16106.4 759.283  11
  -2  12  -4 1056.55 236.397  16
  -2  12  -4 1199.34 237.964  11
  -2  12  -4 1412.88 271.676   7
  -2  12  -5 227.933 181.280  16
  -2  12  -5 367.245 177.544   7
  -2  12  -6 6298.18 479.141   7
  -2  12  -6 5851.79 488.595  16
  -2  12  -7 137.133 161.597  16
  -2  12  -7-4.55363 130.527   7
  -2  12  -8 1238.70 276.039  16
  -2  12  -8 1448.47 230.867   7
  -2  12  -9 1391.35 264.596  16
  -2  12 -10 7805.46 490.513  16
  -2  12 -11 720.980 186.712  16
  -2  12 -12 106.973 107.017  16
  -2  11  14-16.0673 86.2718  13
  -2  11  13 138.862 92.9774  13
  -2  11  12 6658.56 408.871  13
  -2  11  11 1382.04 240.116  13
  -2  11  10 404.057 168.533  13
  -2  11   9 4145.82 391.955  13
  -2  11   8 45609.4 1238.40  13
  -2  11   7 672.804 196.715  13
  -2  11   6 13642.7 688.716  13
  -2  11   5 6318.17 479.651  13
  -2  11   4 19275.1 760.615   7
  -2  11   4 21023.2 839.653  13
  -2  11   4 17735.4 1704.80   1
  -2  11   3 210.696 148.224   7
  -2  11   3-159.135 282.620   3
  -2  11   3 15.8202 132.188  13
  -2  11   2 4152.67 385.558  13
  -2  11   2 3778.73 372.323   7
  -2  11   2 3121.78 756.309   1
  -2  11   2 3947.59 771.703   3
  -2  11   1 15583.3 1466.32   3
  -2  11   1 14395.6 1520.07   1
  -2  11   1 14883.8 695.386  13
  -2  11   1 14608.9 719.018   7
  -2  11   0 239.103 149.215  11
  -2  11   0 89.4673 133.893  13
  -2  11   0 311.806 179.421   7
  -2  11   0 223.457 292.605   3
  -2  11  -1 20567.0 844.793  11
  -2  11  -1 18007.8 1712.22   1
   2 -11   1 19728.7 843.780  17
  -2  11  -1 20372.3 830.505  13
  -2  11  -1 20818.8 884.871   7
  -2  11  -1 21025.5 1685.38   3
  -2  11  -2 22656.3 918.708   7
  -2  11  -2 20888.9 1702.56   3
  -2  11  -2 21971.9 863.072  11
  -2  11  -3 6191.50 500.474   7
  -2  11  -3 5449.65 465.647  16
  -2  11  -3 6138.46 476.481  11
  -2  11  -3 6122.05 973.287   3
  -2  11  -4 12441.0 704.320  16
  -2  11  -4 11584.4 672.518   7
  -2  11  -4 11832.4 662.277  11
  -2  11  -5 30666.1 1064.66   7
  -2  11  -5 29956.3 1094.34  16
  -2  11  -6 7309.65 525.179   7
  -2  11  -6 8055.37 592.844  16
  -2  11  -7 8152.31 540.200   7
  -2  11  -7 7832.94 577.909  16
  -2  11  -8 20374.2 783.068   7
  -2  11  -8 21654.1 932.463  16
  -2  11  -9 12517.9 701.386  16
  -2  11 -10 1027.81 264.285  16
  -2  11 -11 842.449 212.846  16
  -2  11 -12 1356.03 213.266  16
  -2  11 -13 6564.68 348.169  16
  -2  10  15 119.700 66.3421  13
  -2  10  14 221.675 103.138  13
  -2  10  13 7024.78 413.069  13
  -2  10  12-39.2628 112.769  13
  -2  10  11 19553.9 783.443  13
  -2  10  10-36.8243 151.937  13
  -2  10   9 26177.9 972.119  13
  -2  10   8 4875.91 436.324  13
  -2  10   7 25454.8 945.925  13
  -2  10   6 10464.8 1301.02   3
  -2  10   6 8443.47 1146.39   1
  -2  10   6 10265.6 603.402  13
  -2  10   5 13461.2 667.102  13
  -2  10   5 12358.0 1345.48   3
  -2  10   5 12381.1 1370.17   1
  -2  10   4 3058.67 320.088   7
  -2  10   4 2613.03 640.371   3
  -2  10   4 2652.03 658.262   1
  -2  10   4 3071.61 332.927  13
  -2  10   3 22582.0 824.420   7
  -2  10   3 21085.3 1673.75   3
  -2  10   3 21314.0 1758.59   1
  -2  10   3 23329.7 847.534  13
  -2  10   2 8179.62 517.615   7
  -2  10   2 9207.46 537.311  13
  -2  10   2 8192.97 1103.51   1
  -2  10   2 9205.12 1107.68   3
  -2  10   1 23223.1 1705.49   3
  -2  10   1 23458.8 1814.98   1
  -2  10   1 22047.7 814.941  13
  -2  10   1 25338.3 902.500   7
  -2  10   0 2479.85 303.399  11
  -2  10   0 2147.88 266.386  13
  -2  10   0 1817.60 525.963   3
  -2  10   0 1741.40 512.304   1
  -2  10   0 2555.59 321.859   7
  -2  10  -1 40221.2 1117.68  11
  -2  10  -1 41564.8 1101.89  13
  -2  10  -1 39912.3 1168.63   7
  -2  10  -1 37898.8 2154.18   3
  -2  10  -2 22787.8 848.568  13
   2 -10   2 24460.2 904.342  17
  -2  10  -2 24401.4 1761.87   3
  -2  10  -2 24119.9 877.478  11
  -2  10  -3 515.767 194.216  16
  -2  10  -3 396.994 162.858  11
  -2  10  -4 4881.57 845.512   3
  -2  10  -4 3931.68 383.536  11
  -2  10  -4 3578.40 403.560  16
  -2  10  -5 2319.25 629.285   3
  -2  10  -5 1863.22 318.456  16
  -2  10  -6 19572.3 914.893  16
  -2  10  -7 2171.12 302.851   7
  -2  10  -7 2495.46 375.011  16
  -2  10  -8 20079.0 792.070   7
  -2  10  -8 19073.2 904.007  16
  -2  10  -9 5782.61 517.350  16
  -2  10 -10 12393.2 699.576  16
  -2  10 -11 239.674 181.821  16
  -2  10 -12 2103.81 280.571  16
  -2  10 -13 1841.10 233.968  16
  -2  10 -14 2795.88 225.399  16
  -2   9  15 1725.26 186.404  13
  -2   9  14 5763.04 364.320  13
  -2   9  13-0.46540 88.5299  10
  -2   9  13 100.906 130.114  13
  -2   9  12 141.560 163.788  13
  -2   9  12 313.059 121.576  10
  -2   9  11 1246.97 197.307  10
  -2   9  11 1346.21 251.067  13
  -2   9  10 2707.03 284.473  10
  -2   9  10 3219.50 355.073  13
  -2   9   9 382.613 167.570  13
  -2   9   8 7536.77 526.040  13
  -2   9   7 1810.94 285.407  13
  -2   9   7 1191.33 504.056   3
  -2   9   7 1799.11 586.145   1
  -2   9   6 66175.5 3072.81   1
  -2   9   6 66733.3 3099.67   3
  -2   9   6 63894.2 1448.51  13
  -2   9   5 378.794 298.052   3
  -2   9   5 2.41293 173.314   1
  -2   9   5 264.519 142.647  13
  -2   9   4 45726.8 2392.65   3
  -2   9   4 48350.0 2523.28   1
  -2   9   4 45398.9 1143.02  13
  -2   9   3 1393.89 475.112   1
  -2   9   3 1137.91 402.302   3
  -2   9   2 44418.5 2249.45   3
  -2   9   2 43369.4 2309.96   1
  -2   9   1 8930.34 1023.77   3
  -2   9   1 9604.82 1098.03   1
  -2   9   0 65300.6 2823.18   1
  -2   9   0 68184.9 2714.60   3
  -2   9  -1 4382.77 741.932   3
  -2   9  -2 21460.1 1567.57   3
  -2   9  -3 31.1366 207.897   3
  -2   9  -3 271.647 141.358  11
  -2   9  -4 36593.7 2111.98   3
  -2   9  -4 32250.9 1074.48  16
  -2   9  -4 36807.5 1033.10  11
  -2   9  -5 4932.52 398.470  11
  -2   9  -5 4384.76 424.352  16
  -2   9  -5 5099.99 817.992   3
  -2   9  -6 5234.38 485.529  16
  -2   9  -6 5111.66 852.464   3
  -2   9  -7 15.6536 186.163  16
  -2   9  -7 1.66617 301.841   3
  -2   9  -8 14736.6 799.026  16
  -2   9  -9-18.8420 183.477  16
  -2   9 -10-52.7240 218.578  16
  -2   9 -11 159.054 185.272  16
  -2   9 -12 6401.93 480.776  16
  -2   9 -13 4082.67 349.737  16
  -2   9 -14 3.81919 103.954  16
   2  -9  14-52.6003 81.0862  14
  -2   9 -15 624.067 114.198  16
  -2   8  16 7632.88 320.333  13
  -2   8  15 158.727 102.172  13
  -2   8  15 145.501 92.5417  10
  -2   8  14 10234.3 463.390  10
  -2   8  14 10869.0 544.323  13
  -2   8  13 251.089 148.605  13
  -2   8  13 96.4688 118.372  10
  -2   8  12 4961.85 385.277  10
  -2   8  12 5343.71 443.673  13
  -2   8  11 363.146 169.006  13
  -2   8  11 266.894 140.033  10
  -2   8  10 13.6502 147.291  13
  -2   8  10 206.561 134.591  10
  -2   8   9 74.2600 107.230  10
  -2   8   9-9.94485 132.629  13
  -2   8   8 24873.3 928.035  13
  -2   8   8 26548.6 1970.02   1
  -2   8   8 25737.1 850.159  10
  -2   8   7-417.062 321.573   1
  -2   8   7 61.1203 238.900   3
  -2   8   7-36.2486 90.8422  10
  -2   8   7 201.366 134.526  13
  -2   8   6 1204.28 450.846   1
  -2   8   6 1962.78 546.669   3
  -2   8   6 2115.32 268.305  13
  -2   8   5 44373.1 2329.11   3
  -2   8   5 45732.0 2379.13   1
  -2   8   4 6526.80 869.085   3
  -2   8   4 6678.25 897.484   1
  -2   8   3 6585.94 890.918   1
  -2   8   3 6309.31 834.088   3
  -2   8   2 283.237 268.631   3
  -2   8   2 114.486 193.488   1
  -2   8   1 23042.3 1545.59   1
  -2   8   1 21562.5 1458.66   3
  -2   8   0-15.8294 234.243   3
  -2   8  -1 54049.2 2283.77   3
  -2   8  -2 42068.0 2013.49   3
  -2   8  -3 72799.9 2689.89   3
  -2   8  -4 1892.45 477.428   3
  -2   8  -5 3019.00 612.151   3
  -2   8  -6 21009.0 873.517  16
  -2   8  -6 19522.3 1590.74   3
  -2   8  -7 27130.7 1028.17  16
  -2   8  -7 24667.4 1838.35   3
  -2   8  -8 861.441 436.599   3
  -2   8  -8 1437.91 300.748  16
  -2   8  -9 724.005 253.117  16
  -2   8 -10 5854.44 526.577  16
  -2   8 -11 1200.94 282.194  16
  -2   8 -12 1335.55 270.706  16
  -2   8 -13 1459.36 251.565  16
  -2   8 -14 168.532 138.950  16
   2  -8  14 97.0676 90.4717  14
   2  -8  15-9.75930 69.3427  14
  -2   8 -15-185.340 109.446  16
  -2   7  16 6525.79 305.870  10
  -2   7  16 7092.88 346.159  13
  -2   7  15 3041.12 263.894  10
  -2   7  15 3696.13 303.538  13
  -2   7  14 343.097 135.478  10
  -2   7  14 655.635 182.864  13
  -2   7  13 9999.01 545.977  10
  -2   7  13 11537.7 613.062  13
  -2   7  12 7080.57 485.849  10
  -2   7  11 5325.58 426.644  10
  -2   7  10 895.745 196.153  10
  -2   7   9 22750.3 835.697  10
  -2   7   9 23725.9 1850.99   1
  -2   7   8 3615.81 342.041  10
  -2   7   8 3700.25 743.099   1
  -2   7   7 2857.32 625.132   1
  -2   7   7 3456.82 720.657   3
  -2   7   6 1892.29 492.584   3
  -2   7   6 1743.53 472.482   1
  -2   7   5 17890.8 1412.99   1
  -2   7   5 17011.4 1377.88   3
  -2   7   4 2609.55 541.949   3
  -2   7   4 2384.64 531.501   1
  -2   7   3 539.721 292.018   3
  -2   7   3 505.833 269.940   1
  -2   7   2 38209.7 1831.24   3
  -2   7   2 39934.0 1890.13   1
  -2   7   1 32411.6 1689.14   1
  -2   7   1 31370.7 1627.79   3
  -2   7   0 146481. 3498.25   3
  -2   7  -1 19012.2 1285.47   3
  -2   7  -2 50900.1 2071.20   3
  -2   7  -3 205.514 204.000   3
  -2   7  -4 126774. 3470.73   3
  -2   7  -5 18.7957 200.495   3
  -2   7  -6 6247.00 904.633   3
  -2   7  -7 1007.54 417.312   3
  -2   7  -7 561.343 221.722  16
  -2   7  -8 70796.8 1608.05  16
  -2   7  -8 78553.2 3294.34   3
  -2   7  -9 14319.0 760.664  16
  -2   7  -9 14038.4 1474.50   3
  -2   7 -10 1636.66 314.113  16
   2  -7  10 1251.29 243.418  12
  -2   7 -11 220.097 173.806  16
   2  -7  11 405.691 172.295  12
  -2   7 -12 4683.57 444.919  16
  -2   7 -13 441.414 184.817  16
   2  -7  14 23.5078 101.596  14
  -2   7 -14-30.7624 118.491  16
  -2   7 -15-1.96003 106.683  16
   2  -7  15 160.340 96.2052  14
   2  -7  16 145.933 77.2036  14
  -2   6  16 10227.0 428.768  10
  -2   6  16 11241.0 458.551  13
  -2   6  15 152.688 119.939  10
  -2   6  15 133.491 122.661  13
  -2   6  14 20903.5 779.367  10
  -2   6  13-54.0675 145.969  10
  -2   6  12 15919.8 738.209  10
  -2   6  11 60.5713 120.419  10
  -2   6  10 14826.8 1469.56   1
  -2   6  10 15141.6 717.705  10
  -2   6   9 4224.86 377.790  10
  -2   6   9 5141.55 835.819   1
  -2   6   8 10537.9 562.767  10
  -2   6   8 10638.1 1156.87   1
  -2   6   7 5585.89 870.605   3
  -2   6   7 4438.94 720.791   1
  -2   6   6 25527.7 1688.05   3
  -2   6   6 24969.8 1603.40   1
  -2   6   5 14705.1 1187.87   1
  -2   6   5 14147.6 1202.43   3
  -2   6   4 15454.7 1183.31   3
  -2   6   4 14076.9 1120.15   1
  -2   6   3 4495.08 624.966   3
  -2   6   3 4431.20 616.198   1
  -2   6   2 11553.6 951.592   3
  -2   6   2 10711.0 906.343   1
  -2   6   1 16528.2 1094.42   1
  -2   6   1 18547.4 1170.83   3
  -2   6   0 44500.6 1772.10   3
  -2   6  -1 54.4379 205.608   3
  -2   6  -2 8581.88 797.895   3
  -2   6  -3 55728.4 2090.26   3
  -2   6  -4 251.611 233.860   3
   2  -6   4 332.881 204.243   4
  -2   6  -5 40708.8 2006.79   3
   2  -6   5 44558.0 1740.70   4
   2  -6   6 11491.4 958.067   4
  -2   6  -6 11980.6 1166.15   3
   2  -6   7 65834.5 2464.59   4
  -2   6  -7 65945.0 2819.84   3
  -2   6  -8 1423.89 501.584   3
  -2   6  -8 1285.85 251.818  16
   2  -6   8 1019.30 391.477   4
   2  -6   9 631.262 194.908  12
  -2   6  -9 429.436 360.809   3
  -2   6  -9 314.024 164.331  16
   2  -6   9 402.371 299.034   4
  -2   6 -10 42.2505 261.663   3
   2  -6  10 10.2840 220.835   4
   2  -6  10-1.88621 128.725  12
  -2   6 -10 170.147 165.283  16
   2  -6  11 4006.84 400.579  12
  -2   6 -11 2614.46 344.894  16
   2  -6  12 1117.50 238.628  12
  -2   6 -12 791.147 222.198  16
  -2   6 -13 7464.07 509.731  16
  -2   6 -14 24.1683 131.572  16
   2  -6  14 27.4796 111.203  14
  -2   6 -15 5447.45 344.864  16
   2  -6  15 7457.84 399.493  14
   2  -6  16 3457.15 242.391  14
  -2   6 -17 3491.42 247.267  17
  -2   5  17 273.742 89.7893  10
  -2   5  17 179.954 77.7959  13
  -2   5  16 4747.88 320.806  13
  -2   5  16 3889.58 305.922  10
  -2   5  15 104.691 130.240  10
  -2   5  14-32.8748 141.613  10
  -2   5  13 1395.90 253.772  10
  -2   5  12 669.765 209.650  10
  -2   5  11 9665.46 597.368  10
  -2   5  10 2948.68 295.522   9
  -2   5  10 2663.58 648.571   1
  -2   5  10 2861.05 328.275  10
  -2   5   9 59250.7 1181.83   9
  -2   5   9 61296.9 1377.69  10
  -2   5   8 15425.2 1341.08   1
  -2   5   7 20241.1 1467.10   1
  -2   5   7 22117.6 1368.26   4
  -2   5   6 409.264 199.916   4
  -2   5   6 174.263 207.464   3
  -2   5   6-240.094 231.577   1
  -2   5   5 67280.6 2353.68   1
  -2   5   5 65232.1 1982.42   4
  -2   5   5 66557.7 2455.67   3
  -2   5   4 61649.6 2221.26   3
  -2   5   4 60986.5 2139.05   1
  -2   5   3 94041.8 2582.99   3
  -2   5   3 91073.6 2485.44   1
  -2   5   2 5588.57 621.770   1
  -2   5   2 5073.92 617.783   3
  -2   5   1 99635.6 2415.06   1
  -2   5   1 103936. 2546.35   3
  -2   5   0 30716.6 1372.88   3
  -2   5  -1 38330.3 1512.27   3
  -2   5  -2 4745.43 570.749   3
   2  -5   3 10731.3 660.720   4
  -2   5  -3 10467.3 862.744   3
  -2   5  -4 52410.6 2035.13   3
   2  -5   4 53944.1 1630.30   4
  -2   5  -5 384.191 243.828   3
   2  -5   5 239.375 166.979   4
   2  -5   6 12872.2 965.759   4
  -2   5  -6 12840.2 1144.42   3
  -2   5  -7 4871.35 764.258   3
   2  -5   7 5334.40 694.496   4
   2  -5   8 22316.0 1496.92   4
  -2   5  -8 23609.7 1742.97   3
  -2   5  -9 629.199 369.002   3
  -2   5  -9 950.192 218.758  16
   2  -5   9 1467.23 453.255   4
   2  -5   9 1234.09 229.076  12
  -2   5 -10 52959.6 2903.12   3
  -2   5 -10 55920.4 1384.05  16
   2  -5  10 49375.5 2548.60   4
   2  -5  10 58864.9 1445.33  12
   2  -5  11 24246.3 957.353  12
   2  -5  11 24020.3 1869.27   4
  -2   5 -11 22569.9 888.590  16
   2  -5  12 941.724 231.503  12
  -2   5 -12 684.973 199.575  16
  -2   5 -13 6144.21 458.306  16
   2  -5  14 13252.4 599.150  14
  -2   5 -14 10822.9 544.958  16
   2  -5  15 2196.58 243.735  14
   2  -5  16 100.339 89.2746  14
  -2   5 -17 2005.14 215.993  17
   2  -5  17 2979.83 200.100  14
  -2   4  17 214.452 92.2227  13
  -2   4  17 43.9577 78.5781  10
  -2   4  16 168.854 119.716  10
  -2   4  15 223.604 143.642  10
  -2   4  14 4496.59 411.923  10
  -2   4  13 192.711 163.434  10
  -2   4  12 1561.64 221.663   9
  -2   4  12 2158.16 312.629  10
  -2   4  11 1647.47 225.934   9
  -2   4  11 2193.22 609.503   1
  -2   4  10 21027.0 717.663   9
  -2   4  10 22145.3 1729.08   1
  -2   4   9 10951.2 1164.33   1
  -2   4   9 10209.5 1059.88   4
  -2   4   8 66951.8 2486.56   4
  -2   4   8 65735.3 2618.32   1
  -2   4   7 24419.3 1497.50   1
  -2   4   7 23443.1 1366.86   4
  -2   4   6 87310.6 2419.53   4
  -2   4   6 94137.2 2988.62   3
  -2   4   6 91126.6 2706.70   1
  -2   4   5 1641.98 420.292   3
  -2   4   5 1837.16 388.518   1
  -2   4   5 1661.72 317.939   4
  -2   4   4 57651.6 1931.59   1
  -2   4   4 54886.8 1566.46   4
  -2   4   4 58355.7 2021.33   3
  -2   4   3 54460.7 1839.77   3
  -2   4   3 52019.5 1734.13   1
  -2   4   2 296633. 4093.73   3
  -2   4   2 283587. 3823.98   1
  -2   4   1 46859.3 1576.95   3
  -2   4   1 47184.6 1479.09   1
  -2   4   0 90751.1 2131.66   3
  -2   4  -1 39078.3 1403.65   3
  -2   4  -2 34852.1 1381.83   3
   2  -4   2 34669.7 937.889   4
   2  -4   3 50004.9 1310.94   4
  -2   4  -3 51624.2 1787.54   3
  -2   4  -4 17874.9 1129.51   3
   2  -4   4 17200.9 869.618   4
   2  -4   5 10975.3 775.865   4
  -2   4  -5 10497.6 929.228   3
   2  -4   6 42774.4 1677.86   4
  -2   4  -6 45616.5 2080.65   3
   2  -4   7 68571.9 2316.24   4
  -2   4  -7 71645.9 2765.54   3
  -2   4  -8 7453.15 990.312   3
   2  -4   8 6982.21 817.449   4
   2  -4   9 12494.7 1179.73   4
  -2   4  -9 12630.0 1335.50   3
   2  -4  10 411.098 319.193   4
  -2   4 -10 247.811 156.476  16
  -2   4 -10-9.86292 294.468   3
   2  -4  10 434.471 170.799  12
   2  -4  11 17569.1 806.596  12
  -2   4 -11 14190.1 1560.36   3
   2  -4  11 17930.3 1594.34   4
  -2   4 -11 15916.8 727.754  16
   2  -4  12 3674.29 396.719  12
  -2   4 -12 2968.60 341.778  16
  -2   4 -13 14982.6 678.431  16
  -2   4 -14 985.072 199.113  16
   2  -4  14 1263.90 225.080  14
   2  -4  15 17289.9 653.788  14
   2  -4  16 3335.23 271.539  14
   2  -4  17 7491.90 338.189  14
  -2   4 -17 6087.91 376.976  17
  -2   3  17 10728.4 448.483  10
  -2   3  17 9773.52 390.439  13
  -2   3  16 2516.46 272.367  10
  -2   3  15 701.395 195.806  10
  -2   3  14 198.933 156.867  10
  -2   3  13 3941.93 403.075  10
  -2   3  12 126.133 116.514   9
  -2   3  12 333.875 153.205  14
  -2   3  11 23037.1 781.449  14
  -2   3  11 21457.1 734.828   9
  -2   3  11 20677.4 1698.19   4
  -2   3  10 2197.19 250.400  14
  -2   3  10 2037.59 249.929   9
  -2   3  10 2573.84 595.955   1
  -2   3  10 1948.92 497.719   4
  -2   3   9 9903.22 1021.81   4
  -2   3   9 9309.11 1056.30   1
  -2   3   9 9195.09 913.408   6
  -2   3   8 774.333 302.204   6
  -2   3   8 874.545 331.787   4
  -2   3   8 952.713 346.698   1
  -2   3   7 129450. 3289.04   1
  -2   3   7 121152. 3024.19   4
  -2   3   7 127598. 3018.74   6
  -2   3   6 1464.50 320.971   4
  -2   3   6 1010.19 303.645   1
  -2   3   6 1271.30 321.756   6
  -2   3   5 6583.97 594.831   4
  -2   3   5 6654.99 652.083   6
  -2   3   5 6372.97 663.723   1
  -2   3   5 6228.99 723.665   3
  -2   3   4 35752.4 1398.68   1
   2  -3  -4 33394.7 856.606   2
  -2   3   4 38095.7 1547.56   3
  -2   3   4 34301.3 1180.29   4
  -2   3   4 36937.8 1373.21   6
  -2   3   3 276682. 3856.11   3
  -2   3   3 266630. 3524.95   1
  -2   3   3 267044. 3507.83   6
  -2   3   2 17850.0 853.734   1
  -2   3   2 16893.7 572.317   4
  -2   3   2 17443.5 916.610   3
  -2   3   1 165573. 2672.74   3
  -2   3   1 163891. 2418.79   1
  -2   3   0 97630.1 2028.20   3
  -2   3  -1 78930.1 1813.38   3
   2  -3   2 305473. 2476.95   4
  -2   3  -2 303236. 3788.43   3
   2  -3   3 82713.9 1548.37   4
  -2   3  -3 83626.5 2131.75   3
   2  -3   4 22211.8 921.856   4
  -2   3  -4 22671.0 1213.03   3
   2  -3   5 6241.09 568.645   4
   2  -3   6 1168.25 300.326   4
   2  -3   7 48855.0 1901.48   4
   2  -3   8 11495.9 1020.52   4
   2  -3   9 8857.89 963.842   4
  -2   3 -10 12122.8 605.596  16
   2  -3  10 11841.3 1200.59   4
   2  -3  10 13516.5 674.086  12
   2  -3  11 20057.2 843.200  12
  -2   3 -11 20323.7 791.693  16
  -2   3 -12 257.443 152.949  16
   2  -3  12 334.129 177.753  12
  -2   3 -13 530.889 173.427  16
   2  -3  13 474.442 168.282  14
   2  -3  14 25218.7 848.728  14
   2  -3  15 2465.88 276.773  14
  -2   3 -16 1510.90 253.042  17
   2  -3  16 1033.88 172.601  14
  -2   3 -17 2783.84 287.410  17
   2  -3  17 3798.84 263.259  14
  -2   3 -18 367.093 113.724  17
  -2   2  18 327.263 81.5919  10
  -2   2  17 19074.6 603.413  10
  -2   2  16 74.4976 118.964  10
  -2   2  15 7763.85 523.576  10
  -2   2  14 6044.49 491.752  10
  -2   2  14 4567.02 369.515  14
  -2   2  13 6109.64 429.717  14
  -2   2  12 2839.46 289.009   9
  -2   2  12 2377.79 287.329  14
  -2   2  11 13528.8 1355.05   1
  -2   2  11 11798.4 541.486   9
  -2   2  11 13551.8 1357.03   4
  -2   2  11 11824.1 563.220  14
  -2   2  10 844.705 401.326   1
  -2   2  10 1340.31 198.581  14
  -2   2  10 1382.12 193.273   9
  -2   2  10 1519.07 458.744   4
  -2   2  10 1309.34 433.296   6
  -2   2   9 19812.2 1469.32   1
  -2   2   9 17754.8 1354.41   4
  -2   2   9 19501.8 1296.20   6
  -2   2   8 24152.6 1508.21   1
  -2   2   8 22474.1 1407.25   4
  -2   2   8 25634.1 1423.95   6
  -2   2   7 2585.34 468.680   4
  -2   2   7 3057.88 526.096   1
  -2   2   7 2683.50 468.781   6
  -2   2   6 15133.3 966.493   4
  -2   2   6 16374.4 1062.39   1
  -2   2   6 15349.0 989.085   6
  -2   2   5 17503.5 1020.82   1
  -2   2   5 18447.5 954.552   4
  -2   2   5 19241.6 1028.83   6
  -2   2   5 18960.6 1175.86   3
  -2   2   4 589.139 254.039   3
  -2   2   4 347.109 175.075   6
  -2   2   4 286.346 190.752   1
  -2   2   4 372.420 156.595   4
  -2   2   3 6445.99 567.348   3
  -2   2   3 6331.30 527.800   6
  -2   2   3 5889.21 407.275   4
  -2   2   3 6382.80 506.247   1
  -2   2   2 9141.28 621.445   3
  -2   2   2 8972.44 570.114   5
  -2   2   2 8487.83 375.713   4
  -2   2   2 9421.28 568.815   1
  -2   2   1 173554. 2422.53   5
  -2   2   1 176508. 2140.82   1
  -2   2   0 225573. 2222.55   1
  -2   2   0 227662. 2752.25   5
  -2   2  -1 161932. 2327.85   5
  -2   2  -1 163301. 2374.24   3
  -2   2  -2 125935. 2103.87   5
   2  -2   2 126496. 1455.61   4
  -2   2  -2 127466. 2272.35   3
  -2   2  -3 108423. 1961.99   5
   2  -2   3 108678. 1707.01   4
   2  -2   4 252064. 3034.24   4
   2  -2   5 8783.99 666.369   4
   2  -2   6 34997.8 1440.98   4
   2  -2   7 20618.8 1223.15   4
   2  -2   8 1327.47 358.433   4
   2  -2   9 421.219 266.581   4
   2  -2  10 28516.6 1827.08   4
  -2   2 -11 547.665 166.798  16
   2  -2  11 489.604 372.791   4
   2  -2  11 502.801 185.162  12
   2  -2  12 2688.61 711.679   4
   2  -2  13 3752.57 347.057  14
   2  -2  14 4764.63 385.270  14
   2  -2  15 9242.24 508.393  14
   2  -2  16 358.686 129.126  14
  -2   2 -16 452.745 198.602  17
  -2   2 -17 4982.36 378.130  17
  -2   2 -18 2873.77 242.739  17
  -2   1  18 3036.19 199.817  10
  -2   1  17 7098.49 382.141  10
  -2   1  16 2172.98 268.801  10
  -2   1  15 3571.98 312.010  14
  -2   1  15 3871.21 382.804  10
  -2   1  14 10772.3 555.829  14
  -2   1  13 1310.11 223.193  14
  -2   1  13 1210.78 205.246  12
  -2   1  12 36940.0 1012.84  14
  -2   1  12 35613.1 936.593   9
  -2   1  11 5266.38 900.208   4
  -2   1  11 5975.90 412.260  14
  -2   1  11 4999.51 382.207  12
  -2   1  11 6126.63 841.192   6
  -2   1  11 5572.96 381.258   9
  -2   1  10 2538.74 522.601   6
  -2   1  10 2300.47 248.183  14
  -2   1  10 2607.02 561.390   1
  -2   1  10 2506.80 591.949   4
  -2   1   9 9052.94 1019.02   1
  -2   1   9 10149.5 967.128   6
  -2   1   9 8446.07 953.965   4
  -2   1   8 26781.7 1513.67   4
  -2   1   8 28998.1 1523.78   6
  -2   1   8 28424.0 1585.05   1
  -2   1   7 18846.8 1145.32   6
  -2   1   7 21745.9 1286.83   1
  -2   1   7 21212.8 1235.32   4
  -2   1   6 277.364 186.906   1
  -2   1   6 197.303 152.425   4
  -2   1   6 115.036 145.100   6
  -2   1   5 19586.2 985.381   4
  -2   1   5 22109.8 1101.24   1
  -2   1   5 21844.0 1078.77   6
  -2   1   4 22444.2 1079.52   3
  -2   1   4 20257.2 776.635   5
  -2   1   4 21110.5 952.071   1
  -2   1   4 19987.5 865.505   4
  -2   1   4 21302.6 992.346   6
  -2   1   3 84321.0 1685.87   1
  -2   1   3 83345.8 1896.68   3
  -2   1   3 88633.4 1606.62   5
  -2   1   3 84966.7 1508.15   4
  -2   1   3 86489.4 1837.54   6
  -2   1   2 51269.3 1134.27   1
  -2   1   2 53140.5 1338.48   3
  -2   1   2 51017.6 1202.52   5
  -2   1   2 50634.6 920.397   4
  -2   1   1 150293. 1602.87   1
  -2   1   1 151088. 2111.85   3
  -2   1   1 149526. 2081.63   5
  -2   1   0 36814.3 1027.56   5
  -2   1   0 34982.4 923.330   6
  -2   1   0 36502.7 633.144   1
  -2   1   0 35979.3 967.563   3
  -2   1  -1 206340. 2432.55   5
  -2   1  -1 210556. 2415.76   3
  -2   1  -1 211293. 2383.25   2
   2  -1   1 207750. 1303.11   4
  -2   1  -2 45383.9 1218.25   2
   2  -1   2 45248.1 912.677   4
  -2   1  -2 44366.2 1127.12   5
  -2   1  -2 47100.8 1270.15   3
   2  -1   3 10035.9 542.428   4
  -2   1  -3 10515.7 646.734   2
  -2   1  -3 9848.43 552.719   5
  -2   1  -4 19475.0 935.470   2
  -2   1  -4 18287.6 747.026   5
   2  -1   4 19160.4 862.260   4
   2  -1   5 249498. 3508.48   4
  -2   1  -5 240387. 2706.74   5
  -2   1  -5 252382. 3622.48   2
   2  -1   6 16418.6 1000.02   4
   2  -1   7 32499.2 1546.85   4
   2  -1   8 187.384 186.939   4
   2  -1   9 42320.3 2091.70   4
   2  -1  10 2960.96 598.615   4
   2  -1  11-65.2073 250.417   4
   2  -1  11 379.130 149.649  12
   2  -1  12 4671.79 863.996   4
   2  -1  12 5555.15 401.266  14
   2  -1  13 148.762 135.203  14
   2  -1  14 515.377 166.584  14
   2  -1  15 4907.81 381.406  14
  -2   1 -15 4283.01 442.230  17
   2  -1  16 58.8641 107.164  14
  -2   1 -16 17.6937 156.500  17
  -2   1 -17 5161.63 390.033  17
  -2   1 -18 2631.44 245.716  17
  -2   0  17 9484.86 432.051  10
  -2   0  16 61.9930 115.567  10
  -2   0  15 4188.03 339.945  14
  -2   0  14 107.297 126.082  12
  -2   0  14 231.890 146.804  14
  -2   0  13 14809.1 658.042  14
  -2   0  13 13444.5 624.043  12
  -2   0  12 12572.7 602.290  14
  -2   0  12 13022.0 618.865  12
  -2   0  11 55367.0 1141.30   9
  -2   0  11 62376.2 2561.43   6
  -2   0  11 62507.7 2902.28   4
  -2   0  11 55059.3 1200.49  14
  -2   0  11 55196.6 1227.88  12
  -2   0  10 1657.72 420.237   6
  -2   0  10 2759.90 614.078   4
  -2   0   9 23167.5 1428.77   6
  -2   0   9 23121.4 1538.70   4
  -2   0   8 5868.43 760.706   4
  -2   0   8 6816.15 800.616   1
  -2   0   8 7587.53 806.245   6
  -2   0   7 84159.2 2478.13   1
  -2   0   7 85304.5 2444.21   6
  -2   0   6 2348.14 399.504   1
  -2   0   6 2383.66 403.071   4
  -2   0   6 2332.75 405.888   6
  -2   0   5 8848.54 687.143   1
  -2   0   5 8259.12 461.309   5
  -2   0   5 8039.55 637.012   4
  -2   0   5 8492.77 694.590   6
  -2   0   4 4381.93 435.548   4
  -2   0   4 4641.58 359.982   5
  -2   0   4 4485.21 451.556   1
  -2   0   4 4359.61 471.803   6
  -2   0   3 11810.2 566.413   5
  -2   0   3 12265.6 600.085   4
  -2   0   3 11936.1 609.236   1
  -2   0   3 13000.9 705.070   3
  -2   0   2 14610.2 349.203   2
  -2   0   2 15981.6 582.643   4
  -2   0   2 15196.8 657.267   5
  -2   0   2 14811.5 653.007   3
  -2   0   2 15352.5 582.045   1
  -2   0   1 126836. 1249.94   1
  -2   0   1 119682. 1607.38   3
  -2   0   1 122027. 1301.13   4
  -2   0   1 126822. 1827.45   5
  -2   0   1 120350. 1814.79   6
  -2   0   1 121456. 1352.08   2
  -2   0   0 12080.5 476.190   3
  -2   0   0 12064.5 576.084   5
  -2   0   0 11440.1 496.687   6
  -2   0   0 12213.6 504.625   2
  -2   0  -1 43849.1 1092.09   5
  -2   0  -1 42540.8 829.739   6
  -2   0  -1 43029.0 1059.43   2
  -2   0  -2 521.140 146.734   5
  -2   0  -2 523.800 165.481   2
  -2   0  -3 11357.7 563.430   5
   2   0   3 10892.5 472.321   1
  -2   0  -3 11870.1 660.072   2
  -2   0  -4 185951. 2248.82   5
  -2   0  -4 194134. 2850.68   2
   2   0   5 10798.4 759.502   4
   2   0   5 10027.7 649.398   1
  -2   0  -5 10558.0 536.839   5
  -2   0  -5 10195.4 727.986   2
  -2   0  -6 9292.57 755.047   2
  -2   0  -6 10507.5 524.604   5
   2   0   6 9934.49 807.027   4
   2   0   6 8839.54 691.736   1
  -2   0  -7 6351.80 658.209   2
   2   0   7 5660.16 617.572   1
   2   0   7 6456.55 718.355   4
   2   0   8 87345.0 2765.36   4
   2   0   9 18835.0 1404.13   4
   2   0  10 46835.6 2353.33   4
   2   0  11 317.941 257.727   4
   2   0  11 113.592 82.3473  14
   2   0  12 18479.5 1656.16   4
   2   0  12 19645.1 735.107  14
   2   0  13 1137.60 212.762  14
   2   0  14 6644.44 450.724  14
  -2   0 -15 787.314 240.699  17
   2   0  15 1102.71 203.742  14
   2   0  16 287.734 135.793  14
  -2   0 -16 438.715 209.285  17
  -2   0 -17 94.9647 145.343  17
  -2   0 -18 223.737 125.827  17
  -2  -1  17 100.579 93.3194  10
  -2  -1  16 63.0162 120.121  10
  -2  -1  16 14.0205 97.9421  14
  -2  -1  15 3557.69 311.898  12
  -2  -1  15 3683.57 321.894  14
  -2  -1  14 1974.02 266.354  14
  -2  -1  14 1583.95 242.988  12
  -2  -1  13 403.301 168.082  12
  -2  -1  13 406.488 160.632  14
  -2  -1  12 47900.7 1203.30  12
  -2  -1  12 47953.2 1178.22  14
  -2  -1  11 14459.3 1428.02   4
  -2  -1  11 13411.9 1220.77   6
  -2  -1  11 14396.0 658.351  12
  -2  -1  10 14874.9 1375.94   4
  -2  -1  10 15245.6 652.677  12
  -2  -1  10 17375.8 1326.35   6
  -2  -1   9 5626.31 788.086   4
  -2  -1   9 5154.84 715.106   6
  -2  -1   8 107679. 3108.65   4
  -2  -1   8 121016. 3160.03   6
  -2  -1   7 15994.1 1113.96   6
  -2  -1   7 13589.0 1026.11   4
  -2  -1   6 2083.50 403.918   6
  -2  -1   6 1774.43 361.912   4
  -2  -1   5 8592.10 464.739   5
  -2  -1   5 8528.53 682.768   4
  -2  -1   5 8897.52 729.261   6
  -2  -1   4 101883. 2244.00   6
  -2  -1   4 100860. 2071.45   4
  -2  -1   3 12195.1 590.452   5
  -2  -1   3 13048.9 670.202   4
  -2  -1   2 25451.6 874.501   5
  -2  -1   2 25118.2 816.644   4
  -2  -1   2 24789.9 643.661   2
  -2  -1   1 35922.0 1027.92   5
  -2  -1   1 36179.4 726.518   3
  -2  -1   1 35766.8 851.287   4
  -2  -1   1 34641.9 866.236   2
  -2  -1   0 7070.51 467.408   5
  -2  -1   0 6963.34 274.503   3
  -2  -1   0 6419.61 392.347   6
  -2  -1   0 6824.12 430.999   2
  -2  -1  -1 29906.3 941.375   5
  -2  -1  -1 30736.2 966.972   2
  -2  -1  -1 32012.9 686.935   3
   2   1   1 27790.6 466.508   1
  -2  -1  -1 29142.7 672.532   6
  -2  -1  -2 31242.9 967.390   5
   2   1   2 29750.5 645.271   1
  -2  -1  -2 30603.4 1022.04   2
   2   1   3 1579.21 206.504   1
  -2  -1  -3 1686.61 237.904   5
  -2  -1  -3 1668.77 288.710   2
  -2  -1  -4 4823.66 382.375   5
  -2  -1  -4 5125.45 499.345   2
   2   1   4 4761.96 398.137   1
  -2  -1  -5 110437. 1756.41   5
   2   1   5 106938. 2135.34   1
  -2  -1  -5 111800. 2346.23   2
   2   1   6 43980.6 1707.58   4
  -2  -1  -6 43462.1 1053.76   5
   2   1   6 41903.8 1500.87   1
  -2  -1  -6 45944.0 1588.92   2
   2   1   7 303.829 186.774   1
  -2  -1  -7 248.865 171.586   2
   2   1   7 350.774 231.046   4
   2   1   8 25448.0 1431.63   1
   2   1   8 26208.5 1546.98   4
  -2  -1  -8 27115.0 1407.39   2
  -2  -1  -9 99149.0 2813.81   2
   2   1   9 95273.6 2971.07   1
   2   1   9 92259.6 3147.14   4
   2   1  10 7101.20 943.862   4
   2   1  11 1423.19 218.124  14
   2   1  11 1222.49 452.258   4
   2   1  12 5317.07 917.607   4
   2   1  12 4903.25 379.004  14
   2   1  13 15577.1 683.914  14
  -2  -1 -14 7469.20 578.977  17
   2   1  14 8121.07 496.610  14
  -2  -1 -15 1591.81 303.491  17
   2   1  15 1442.14 231.487  14
  -2  -1 -16 10728.0 627.070  17
  -2  -1 -17 6051.21 431.542  17
  -2  -1 -18-2.68928 101.064  17
  -2  -2  17 38.5954 76.2659  10
  -2  -2  16 410.277 134.176  10
  -2  -2  16 534.498 133.879  14
  -2  -2  15 1106.31 193.856  14
  -2  -2  15 930.792 187.164  12
  -2  -2  14 770.475 190.629  14
  -2  -2  14 733.192 188.411  12
  -2  -2  13 192.693 137.852  14
  -2  -2  13 306.972 154.997  12
  -2  -2  12 197.150 147.511  12
  -2  -2  11 28528.7 952.146  12
  -2  -2  11 30957.3 2112.76   4
  -2  -2  11 29859.2 1847.16   6
  -2  -2  10 1789.07 498.181   6
  -2  -2  10 1735.87 253.927  12
  -2  -2  10 1463.09 486.720   4
  -2  -2   9 5402.95 810.008   4
  -2  -2   9 6044.87 785.786   6
  -2  -2   8 1570.41 441.145   4
  -2  -2   8 2404.53 493.039   6
  -2  -2   7 3664.01 570.225   4
  -2  -2   7 4338.39 636.758   6
  -2  -2   6 494.039 247.319   4
  -2  -2   5 101490. 2399.75   4
  -2  -2   5 94135.2 1664.01   5
  -2  -2   4 27627.1 938.667   5
  -2  -2   4 27621.5 923.844   2
  -2  -2   3 28451.7 1001.83   5
  -2  -2   3 25496.2 922.419   2
  -2  -2   3 28618.6 1075.81   4
  -2  -2   2 90546.9 1868.70   5
  -2  -2   2 87042.4 1728.86   2
  -2  -2   1 18015.9 839.185   5
  -2  -2   1 17785.4 800.314   2
  -2  -2   1 17907.9 700.585   4
  -2  -2   0 14166.4 790.162   5
  -2  -2   0 14811.9 755.857   2
  -2  -2  -1 2489.56 349.276   5
  -2  -2  -1 2979.38 364.839   2
  -2  -2  -2 172027. 2630.90   5
  -2  -2  -2 172644. 2692.61   2
  -2  -2  -3 303456. 3392.03   5
  -2  -2  -3 295748. 3685.74   2
  -2  -2  -4 1112.92 252.807   5
  -2  -2  -4 952.424 262.114   2
   2   2   4 840.340 232.017   1
   2   2   5 22235.2 1018.80   1
  -2  -2  -5 24985.4 915.238   5
  -2  -2  -5 24792.0 1160.39   2
  -2  -2  -6 15151.1 693.463   5
  -2  -2  -6 15378.2 963.749   2
   2   2   6 14275.2 895.982   1
  -2  -2  -7 150.291 154.396   2
   2   2   7 266.582 193.349   1
   2   2   8 30560.8 1733.02   4
   2   2   8 34076.6 1661.08   1
  -2  -2  -8 34824.6 1570.04   2
   2   2   9 4025.96 707.739   4
   2   2   9 3796.39 622.587   1
  -2  -2  -9 3832.09 552.107   2
   2   2  10 6082.77 829.385   1
   2   2  10 7260.34 963.027   4
  -2  -2 -10 7993.02 852.626   2
   2   2  11 329.416 278.979   1
   2   2  11 523.188 141.335  14
   2   2  11 394.866 308.126   4
   2   2  12 35049.8 980.060  14
   2   2  12 36261.7 2385.75   4
  -2  -2 -12 37365.4 1195.86  17
  -2  -2 -13 254.882 192.937  17
   2   2  13 165.444 126.502  14
  -2  -2 -14 21479.4 949.675  17
   2   2  14 21493.8 794.572  14
  -2  -2 -15 226.582 167.930  17
  -2  -2 -16 10884.1 623.380  17
  -2  -2 -17 412.851 175.618  17
  -2  -2 -18 1800.26 212.130  17
  -2  -3  17 11534.2 396.770  10
  -2  -3  17 10692.7 389.723  14
  -2  -3  16 1052.39 172.216  10
  -2  -3  16 1073.14 169.261  14
  -2  -3  15 398.529 156.111  12
   2   3 -15 327.937 157.111  17
  -2  -3  15 460.783 146.132  14
  -2  -3  14 449.269 158.392  14
  -2  -3  14 279.655 167.735  12
  -2  -3  13 3717.22 375.367  12
  -2  -3  12 8.13881 152.722  12
  -2  -3  11 14284.6 1338.00   6
  -2  -3  11 14185.1 1482.73   4
  -2  -3  11 15629.2 732.712  12
  -2  -3  10-391.371 340.561   4
  -2  -3  10-161.295 198.662   6
  -2  -3  10 145.723 128.313  12
  -2  -3   9 2792.89 578.261   6
  -2  -3   9 2202.73 546.716   4
  -2  -3   8 38652.1 1982.20   4
  -2  -3   8 40853.5 1985.56   6
  -2  -3   7 306.646 229.611   4
  -2  -3   6 131561. 3132.88   4
  -2  -3   5 10412.5 635.800   5
  -2  -3   5 10708.9 840.951   4
  -2  -3   4 205913. 2964.13   5
  -2  -3   4 221976. 3445.63   4
  -2  -3   3 1866.48 333.247   5
  -2  -3   3 1599.76 304.927   4
  -2  -3   2 153407. 2788.84   5
  -2  -3   2 157991. 2506.03   4
  -2  -3   1 7876.63 667.543   2
  -2  -3   1 7598.62 658.506   5
  -2  -3   0 133518. 2743.52   5
  -2  -3   0 138184. 2687.82   2
  -2  -3  -1 112232. 2524.96   5
  -2  -3  -1 120890. 2515.76   2
  -2  -3  -2 819597. 6662.64   5
   2   3   2 829299. 5135.92   1
  -2  -3  -2 824981. 6640.08   2
  -2  -3  -3 64452.3 1875.11   5
   2   3   3 60231.7 1510.70   1
  -2  -3  -3 65289.0 1936.56   2
  -2  -3  -4 162183. 2854.62   5
  -2  -3  -4 157358. 2972.50   2
  -2  -3  -5 2288.58 407.611   2
   2   3   5 1968.20 349.805   1
  -2  -3  -5 2149.49 349.277   5
   2   3   6 9763.48 791.393   1
  -2  -3  -6 11318.3 692.185   5
  -2  -3  -6 11253.9 860.281   2
   2   3   7 424.934 252.779   1
  -2  -3  -7 448.519 238.914   2
   2   3   8 13285.2 1070.78   1
  -2  -3  -8 13222.1 998.773   2
   2   3   9 17139.6 1419.68   4
   2   3   9 15648.4 1248.16   1
  -2  -3  -9 16413.4 1174.66   2
   2   3  10 4722.51 809.576   4
  -2  -3 -10 4285.60 631.926   2
   2   3  10 5127.69 779.801   1
  -2  -3 -11 8625.77 564.551  17
   2   3  11 7643.44 1061.35   4
   2   3  11 6783.43 939.064   1
   2   3  11 7124.59 438.987  14
  -2  -3 -12 2156.36 325.749  17
   2   3  12 2323.89 636.250   4
   2   3  12 2394.38 270.963  14
   2   3  12 2511.58 616.131   1
  -2  -3 -13 3182.52 396.064  17
   2   3  13 2944.23 313.099  14
  -2  -3 -14 4138.71 446.261  17
  -2  -3 -15 11956.4 700.912  17
  -2  -3 -16 128.277 169.918  17
  -2  -3 -17 9450.55 515.513  17
   2   3  18 1253.28 148.250  10
  -2  -3 -18 1054.80 174.521  17
  -2  -4  17 247.933 87.2322  14
  -2  -4  16 4427.89 297.211  14
  -2  -4  16 4674.42 295.954  10
  -2  -4  15 296.973 131.675  10
  -2  -4  15 106.838 108.906  14
  -2  -4  15 97.6436 128.759  12
  -2  -4  14 8985.88 502.296  14
  -2  -4  14 10001.8 564.542  12
  -2  -4  13-27.2742 155.173  12
  -2  -4  12 9591.32 593.411  12
  -2  -4  11 905.449 411.042   4
  -2  -4  11 553.996 201.912  12
  -2  -4  11 731.377 349.659   6
  -2  -4  10-271.883 289.270   4
  -2  -4  10-16.0499 156.680  12
  -2  -4  10-93.5865 264.893   6
  -2  -4   9 8164.60 969.282   6
  -2  -4   9 9754.61 575.725  12
  -2  -4   8 17195.9 1373.95   4
  -2  -4   7 7564.47 868.600   4
  -2  -4   6 19197.4 1260.56   4
  -2  -4   5 141581. 2708.99   5
  -2  -4   5 152203. 3300.78   4
  -2  -4   4 9439.33 779.560   4
  -2  -4   4 9684.76 777.574   5
  -2  -4   3 40916.2 1637.95   5
  -2  -4   3 42760.6 1531.02   4
   2   4  -2 255.744 86.5105   3
  -2  -4   2 333.950 202.403   4
  -2  -4   2 254.221 243.741   5
  -2  -4   1 355004. 5015.65   5
   2   4  -1 283281. 1437.90   3
  -2  -4   0 23392.9 1292.40   2
  -2  -4   0 21558.0 1282.10   5
  -2  -4  -1 101614. 2745.30   5
  -2  -4  -1 114592. 2812.66   2
  -2  -4  -2 8554.29 793.366   2
   2   4   2 8317.29 611.723   1
  -2  -4  -2 7999.01 802.412   5
  -2  -4  -3 116350. 2879.12   5
  -2  -4  -3 113894. 2780.70   2
   2   4   3 115864. 2331.74   1
  -2  -4  -4 11579.0 907.025   5
  -2  -4  -4 10116.4 845.176   2
   2   4   4 10014.6 742.906   1
  -2  -4  -5 15126.6 986.925   5
  -2  -4  -5 14311.4 1037.34   2
   2   4   5 12624.6 908.456   1
  -2  -4  -6 2854.17 423.176   5
  -2  -4  -6 2988.80 492.244   2
   2   4   6 2688.18 462.921   1
   2   4   7 104274. 2891.52   1
  -2  -4  -7 111024. 2907.29   2
  -2  -4  -8 2218.94 442.666   2
   2   4   8 1688.91 418.162   1
   2   4   9 21637.0 1643.17   4
   2   4   9 19731.9 1443.59   1
  -2  -4  -9 21018.3 1356.44   2
  -2  -4 -10 574.289 191.916  17
   2   4  10 1016.75 408.286   4
   2   4  10 869.203 372.882   1
  -2  -4 -10 1215.43 353.692   2
  -2  -4 -11 4593.67 430.202  17
   2   4  11 5025.84 851.264   1
   2   4  11 5083.49 890.990   4
   2   4  12 3710.23 735.079   1
  -2  -4 -12 2161.77 329.401  17
   2   4  12 3546.78 769.605   4
  -2  -4 -13 836.225 253.215  17
  -2  -4 -14 8779.01 610.736  17
  -2  -4 -15 483.254 206.076  17
  -2  -4 -16 703.717 204.383  17
  -2  -4 -17 299.929 158.930  17
   2   4  18 5845.39 264.466  10
  -2  -4 -18 5224.05 319.881  17
  -2  -5  17 1733.02 145.894  14
  -2  -5  16 2038.80 201.383  14
  -2  -5  15 14887.3 580.312  14
  -2  -5  15 15473.8 635.095  12
  -2  -5  14 1368.10 242.829  12
  -2  -5  13 1581.90 280.655  12
  -2  -5  12 10481.7 632.919  12
  -2  -5  11 36683.4 1167.53  12
  -2  -5  10 8053.04 1125.41   4
  -2  -5  10 8198.20 572.307  12
  -2  -5  10 7185.25 997.657   6
  -2  -5   9 2254.54 593.861   4
  -2  -5   9 2872.58 341.925  12
  -2  -5   8 1225.42 419.952   4
  -2  -5   7 54318.1 2385.69   4
  -2  -5   6 63413.9 2420.70   4
  -2  -5   5 56171.3 2133.85   4
  -2  -5   5 49046.0 1844.55   5
  -2  -5   4 1139.74 367.466   5
   2   5  -4 1319.89 246.668   3
  -2  -5   4 940.665 311.580   4
   2   5  -3 833.148 177.422   3
  -2  -5   3 951.404 296.287   4
  -2  -5   3 703.133 304.574   5
  -2  -5   2 41473.8 1940.47   5
   2   5  -2 44701.8 934.163   3
  -2  -5   1 8468.34 919.125   5
   2   5  -1 8104.47 356.631   3
  -2  -5   0 2733.29 599.039   5
   2   5   0 1583.54 173.744   3
  -2  -5   0 3020.85 568.561   2
  -2  -5  -1 122899. 3409.14   5
   2   5   1 127324. 1706.15   3
  -2  -5  -1 129822. 3318.29   2
  -2  -5  -2 353280. 5702.30   5
  -2  -5  -2 375771. 5529.01   2
  -2  -5  -3 7885.61 886.017   5
   2   5   3 7061.26 664.813   1
  -2  -5  -3 7142.06 812.086   2
  -2  -5  -4 62234.7 2329.20   5
  -2  -5  -4 63942.2 2285.99   2
   2   5   4 61922.0 1992.00   1
  -2  -5  -5 3578.51 579.759   5
  -2  -5  -5 3621.12 576.162   2
   2   5   5 3606.71 514.810   1
  -2  -5  -6 36913.9 1676.90   5
   2   5   6 36211.6 1703.43   1
  -2  -5  -6 35963.4 1720.28   2
  -2  -5  -7 11827.7 884.985   5
   2   5   7 11729.4 1021.06   1
  -2  -5  -7 11148.4 999.379   2
   2   5   8 25155.1 1568.61   1
  -2  -5  -8 27028.2 1569.42   2
   2   5   9 28041.4 1761.36   1
  -2  -5  -9 27703.9 1623.11   2
   2   5  10 19757.8 1695.20   4
   2   5  10 20689.0 1607.08   1
  -2  -5 -10 20060.9 858.459  17
   2   5  11 5925.93 989.651   4
  -2  -5 -11 4697.42 451.761  17
   2   5  11 5819.64 925.878   1
  -2  -5 -12 26391.8 1038.28  17
  -2  -5 -13 13911.8 776.117  17
  -2  -5 -14 382.816 209.776  17
  -2  -5 -15 945.961 243.667  17
  -2  -5 -16 3632.16 365.224  17
   2   5  17 237.625 87.4382  10
  -2  -5 -17 215.163 143.083  17
  -2  -5 -18 339.558 112.658  17
  -2  -6  16 1326.04 156.535  14
  -2  -6  15 587.667 143.363  14
  -2  -6  15 588.907 159.927  12
  -2  -6  14 1496.89 248.476  12
  -2  -6  13 1295.28 252.778  12
  -2  -6  12 6483.21 510.894  12
  -2  -6  11 5463.11 483.652  12
  -2  -6  10 15244.3 1469.15   6
   2   6 -10 15631.7 679.481  16
  -2  -6  10 16864.3 1628.80   4
  -2  -6  10 17356.1 834.417  12
  -2  -6   9 1613.00 532.601   4
   2   6  -9 1361.78 228.958  16
  -2  -6   9 1256.20 247.579  12
  -2  -6   8 9624.58 1126.02   4
  -2  -6   8 8755.81 575.312  12
  -2  -6   7 835.098 353.964   4
  -2  -6   6 4562.90 695.187   4
  -2  -6   5 91.9923 206.290   4
  -2  -6   5 177.250 197.554   5
  -2  -6   4 12489.6 1124.73   5
  -2  -6   4 14951.3 1087.72   4
  -2  -6   3 638.393 351.133   5
  -2  -6   2 7942.33 976.606   5
  -2  -6   1 37110.4 2057.34   5
  -2  -6   0 516.251 414.342   5
   2   6   1 23543.7 857.791   3
  -2  -6  -1 21759.0 1488.05   2
  -2  -6  -2 6888.49 970.306   5
  -2  -6  -2 6943.26 902.728   2
   2   6   3 4432.47 566.924   1
  -2  -6  -3 4177.95 677.116   2
  -2  -6  -3 4537.04 769.634   5
  -2  -6  -4 48660.0 2292.78   5
  -2  -6  -4 51450.4 2215.11   2
   2   6   4 56766.5 2049.04   1
  -2  -6  -5 27413.4 1666.65   5
  -2  -6  -5 28202.7 1646.27   2
   2   6   5 29651.1 1566.16   1
  -2  -6  -6 407.548 256.636   2
   2   6   6 229.648 206.865   1
  -2  -6  -6 243.736 247.575   5
  -2  -6  -7 61292.5 2302.68   5
   2   6   7 63383.3 2505.90   1
  -2  -6  -7 59217.9 2399.95   2
   2   6   8 12995.9 1198.19   1
  -2  -6  -8 11936.2 1095.84   2
  -2  -6  -9 104423. 1872.64  17
   2   6   9 105063. 3553.71   1
  -2  -6  -9 100351. 3205.91   2
  -2  -6 -10 17370.1 810.523  17
   2   6  10 22944.0 1745.73   1
   2   6  10 21480.0 1822.90   4
   2   6  11 60754.6 3148.12   4
  -2  -6 -11 61584.2 1574.49  17
   2   6  11 56807.8 2868.83   1
  -2  -6 -12 2380.37 358.873  17
  -2  -6 -13 6765.03 558.181  17
  -2  -6 -14 5278.50 494.786  17
  -2  -6 -15 1101.69 243.825  17
  -2  -6 -16 3592.39 348.642  17
  -2  -6 -17 1496.36 210.424  17
   2   6  18 303.800 81.5320  13
  -2  -6 -18 588.954 116.093  17
  -2  -7  16 2045.75 169.365  14
  -2  -7  15-52.5012 103.051  12
  -2  -7  15 100.033 91.3325  14
  -2  -7  14 65.0098 133.339  12
  -2  -7  13 4842.83 417.706  12
  -2  -7  12 2306.74 325.610  12
   2   7 -11 7564.79 487.125  16
  -2  -7  11 8178.48 577.134  12
   2   7 -10 3051.39 352.366  16
  -2  -7  10 3633.22 406.635  12
   2   7  -9 3452.04 356.623  16
  -2  -7   9 5082.83 898.057   4
  -2  -7   9 4344.51 439.388  12
  -2  -7   8 183.422 212.827   4
  -2  -7   8 89.5371 156.649  12
   2   7  -8 57.5920 141.510  16
  -2  -7   7 62320.4 1346.84  18
  -2  -7   7 61295.3 1456.28  12
   2   7  -7 55437.9 1292.96  16
  -2  -7   7 60128.4 2697.43   4
  -2  -7   6 6646.15 867.983   4
  -2  -7   5 20197.7 1508.03   5
  -2  -7   5 24212.5 1544.59   4
  -2  -7   4 13812.9 1300.37   5
  -2  -7   3 59219.0 2727.53   5
  -2  -7   2 144.401 305.831   5
  -2  -7   1 4030.61 790.036   5
  -2  -7   0 2527.70 674.340   5
  -2  -7  -1 1081.75 439.760   2
  -2  -7  -1 805.065 472.031   5
  -2  -7  -2 416.952 334.092   2
  -2  -7  -2 497.478 355.956   5
  -2  -7  -3 9750.56 1179.84   5
  -2  -7  -3 9869.75 1098.85   2
   2   7   3 10629.1 943.948   1
  -2  -7  -4 4360.04 791.157   5
  -2  -7  -4 3673.61 694.843   2
   2   7   4 3972.29 615.706   1
  -2  -7  -5 12756.6 1261.27   5
  -2  -7  -5 12966.3 1224.69   2
   2   7   5 14198.8 1166.14   1
  -2  -7  -6 26928.3 1807.49   5
   2   7   6 29035.6 1735.13   1
  -2  -7  -6 25109.7 1665.35   2
  -2  -7  -7 1984.92 499.693   2
  -2  -7  -7 1460.32 423.244   5
   2   7   7 1982.55 508.627   1
  -2  -7  -8 21199.2 1556.70   2
   2   7   8 21978.5 1633.75   1
  -2  -7  -9 4199.44 717.818   2
  -2  -7  -9 4233.19 420.827  17
   2   7   9 5468.94 872.510   1
   2   7  10 29486.8 2177.50   4
   2   7  10 30588.9 2071.50   1
  -2  -7 -10 33134.6 1127.22  17
  -2  -7 -11 4474.21 455.864  17
  -2  -7 -12 1726.65 311.556  17
  -2  -7 -13 17444.3 853.617  17
  -2  -7 -14 37627.9 1182.53  17
  -2  -7 -15-179.346 189.349  17
  -2  -7 -16 2130.64 264.804  17
  -2  -7 -17 272.493 120.878  17
  -2  -8  15 1259.29 156.126  14
  -2  -8  15 1295.44 171.066  12
  -2  -8  14 2411.93 260.099  12
  -2  -8  13-83.2329 136.921  12
   2   8 -12 328.784 148.243  16
  -2  -8  12 77.2040 141.583  12
   2   8 -11 2455.81 312.243  16
  -2  -8  11 2628.12 348.823  12
   2   8 -10 253.586 171.150  16
  -2  -8  10 85.9502 161.229  12
   2   8  -9 32568.6 1057.81  16
  -2  -8   9 36140.0 1203.49  12
  -2  -8   8 9769.25 592.480  18
  -2  -8   8 8557.90 1139.70   4
  -2  -8   8 8581.06 601.436  12
   2   8  -8 9217.42 566.937  16
  -2  -8   7 8841.58 544.812  18
   2   8  -7 7766.31 529.602  16
  -2  -8   7 7602.97 559.088  12
  -2  -8   6 56458.9 1304.67  18
  -2  -8   6 59529.2 1420.25  12
  -2  -8   5 5870.38 916.878   5
  -2  -8   4 37410.0 2283.12   5
  -2  -8   3 4694.13 888.906   5
  -2  -8   2 176208. 5187.90   5
  -2  -8   1 14435.6 1534.14   5
  -2  -8   0 6364.55 1037.30   5
  -2  -8  -1 522.034 511.382   5
  -2  -8  -1 404.192 345.320   2
  -2  -8  -2 33478.2 2303.50   5
  -2  -8  -2 36406.2 2214.90   2
  -2  -8  -3 227.412 234.955   2
  -2  -8  -3 218.817 360.969   5
   2   8   3 831.550 293.448   1
  -2  -8  -4 1235.44 521.143   2
   2   8   4 219.570 234.091   1
  -2  -8  -4 1238.38 570.514   5
  -2  -8  -5 28319.1 2034.10   5
   2   8   5 33627.9 1898.07   1
  -2  -8  -5 30545.8 1975.12   2
  -2  -8  -6 3760.53 716.722   2
  -2  -8  -6 3627.04 767.177   5
   2   8   6 3189.89 618.175   1
   2   8   7 3598.37 705.136   1
  -2  -8  -7 2636.79 602.663   5
  -2  -8  -7 2207.35 558.405   2
  -2  -8  -8 11921.0 1221.12   2
   2   8   8 13273.0 1333.52   1
  -2  -8  -8 15038.9 755.903  17
  -2  -8  -9 27598.7 1045.78  17
   2   8   9 28565.9 2007.32   1
  -2  -8  -9 25115.7 1761.71   2
  -2  -8 -10 551.771 228.891  17
   2   8  10 1217.85 479.504   1
  -2  -8 -11 14677.5 796.104  17
  -2  -8 -12 110.094 174.667  17
  -2  -8 -13 19891.3 888.721  17
  -2  -8 -14 2446.55 335.690  17
  -2  -8 -15 19182.6 759.227  17
  -2  -8 -16 2280.06 254.238  17
   2   8  16 2610.82 226.265  13
  -2  -8 -17 3293.53 238.516  17
   2   8  17 3306.52 204.556  13
  -2  -9  15 260.951 81.8444  14
  -2  -9  14-59.1332 119.112  12
  -2  -9  13-214.304 132.190  12
   2   9 -12 207.877 140.651  16
  -2  -9  12 281.646 148.260  12
   2   9 -11 9168.04 533.858  16
  -2  -9  11 8413.96 566.304  12
   2   9 -10 263.305 164.970  16
  -2  -9  10-145.815 197.923  12
   2   9  -9 4000.26 404.640  16
  -2  -9   9 3902.61 419.317  12
   2   9  -8 9861.20 600.187  16
  -2  -9   8 9924.21 654.344  12
  -2  -9   7 24446.6 945.884  18
   2   9  -7 23760.8 929.655  16
  -2  -9   7 22572.8 962.802  12
  -2  -9   6 18899.6 848.280  12
  -2  -9   6 19150.3 820.235  18
  -2  -9   5 6912.82 1020.78   5
  -2  -9   5 6990.25 498.403  18
  -2  -9   5 7568.27 512.564  12
  -2  -9   4 1059.29 476.321   5
  -2  -9   3 34484.9 2419.05   5
  -2  -9   2 11300.0 1424.35   5
  -2  -9   1 45222.3 2840.33   5
  -2  -9   0 4665.07 1036.15   5
  -2  -9   0 4203.67 906.418   2
  -2  -9  -1 159884. 5330.92   5
  -2  -9  -1 150184. 4873.31   2
  -2  -9  -2 5915.66 1014.00   2
   2   9   2 6071.47 841.539   1
  -2  -9  -2 7081.11 1166.86   5
  -2  -9  -3 11637.3 1488.66   5
   2   9   3 10613.9 1123.52   1
  -2  -9  -3 11709.0 1367.26   2
  -2  -9  -4 5607.79 1061.22   5
  -2  -9  -4 4639.96 840.562   2
   2   9   4 4704.38 769.920   1
  -2  -9  -5 25134.5 2047.83   5
   2   9   5 27663.7 1846.12   1
  -2  -9  -5 22775.3 1850.67   2
  -2  -9  -6-67.1713 289.287   5
  -2  -9  -6 132.077 130.026  17
   2   9   6-145.407 273.929   1
  -2  -9  -7 1603.58 517.327   2
  -2  -9  -7 1072.03 243.782  17
   2   9   8 5109.61 870.835   1
  -2  -9  -8 4571.69 815.472   2
  -2  -9  -8 4150.11 434.248  17
   2   9   9 32.1731 263.766   1
  -2  -9  -9-7.97161 215.422  17
  -2  -9 -10 22903.4 972.332  17
  -2  -9 -11 320.335 188.963  17
  -2  -9 -12 1490.52 296.469  17
  -2  -9 -13 1113.79 262.365  17
  -2  -9 -14 15786.1 718.548  17
  -2  -9 -15 214.440 144.597  17
   2   9  15 100.528 97.1509  13
   2   9  16 994.027 136.951  13
  -2  -9 -16 1270.06 190.731  17
  -2 -10  14 1111.55 147.906  12
   2  10 -13 2275.19 210.173  16
  -2 -10  13 2441.10 244.162  12
   2  10 -12-36.8752 139.940  16
  -2 -10  12 188.267 128.554  12
   2  10 -11 2893.73 320.307  16
  -2 -10  11 3059.62 335.729  12
   2  10 -10 1477.93 274.545  16
  -2 -10  10 1647.87 274.402  12
   2  10  -9-39.5673 188.855  16
  -2 -10   9-228.081 220.843  12
   2  10  -8-23.1804 164.784  16
  -2 -10   8-26.7801 164.090  12
  -2 -10   7 6422.14 515.258  18
   2  10  -7 6575.77 511.267  16
  -2 -10   7 5552.49 500.764  12
  -2 -10   6 1875.30 291.671  18
   2  10  -6 1938.64 320.544  16
  -2 -10   6 1409.26 280.934  12
  -2 -10   5 145.117 147.709  18
  -2 -10   5 135.219 172.524  12
  -2 -10   4 24916.3 917.107  12
  -2 -10   4 22245.8 1996.99   5
  -2 -10   4 24929.5 925.067  18
  -2 -10   4 25237.5 924.787  17
  -2 -10   3 2172.86 287.138  18
  -2 -10   3 1819.21 685.708   5
  -2 -10   3 1888.90 275.524  17
  -2 -10   2 15585.8 1778.47   5
  -2 -10   2 14588.8 684.945  17
  -2 -10   1 1146.13 590.471   5
  -2 -10   1 1054.06 549.882   2
  -2 -10   0 28467.4 2427.37   5
  -2 -10   0 25595.1 2167.78   2
  -2 -10  -1 1098.16 550.842   2
  -2 -10  -1 830.206 437.253   5
  -2 -10  -2 14057.5 1716.95   5
  -2 -10  -2 12981.2 1540.98   2
   2  10   2 15151.3 1397.03   1
  -2 -10  -3 14777.3 1751.04   5
   2  10   3 12995.3 1300.07   1
  -2 -10  -3 11692.5 1449.51   2
  -2 -10  -3 12869.6 662.114  17
  -2 -10  -4 38968.1 2766.62   5
  -2 -10  -4 34879.6 2424.39   2
   2  10   4 37356.0 2235.46   1
  -2 -10  -4 36114.4 1138.43  17
  -2 -10  -5 4251.03 412.782  17
  -2 -10  -5 4412.35 971.177   5
  -2 -10  -5 4213.13 862.599   2
   2  10   5 6029.21 928.583   1
  -2 -10  -6 34441.9 2442.38   5
  -2 -10  -6 38347.5 1188.31  17
  -2 -10  -6 31703.8 2244.86   2
   2  10   6 38319.3 2352.08   1
  -2 -10  -7 3990.25 426.095  17
  -2 -10  -7 3928.22 816.419   2
   2  10   7 4167.79 834.586   1
   2  10   8 64946.2 1294.69  13
   2  10   8 61900.4 3046.55   1
  -2 -10  -8 60460.9 1544.51  17
  -2 -10  -9 1619.76 301.202  17
   2  10   9 2410.91 267.873  13
  -2 -10 -10 851.824 256.749  17
   2  10  10 396.556 142.096  13
  -2 -10 -11-153.724 235.682  17
   2  10  11 310.971 126.806  13
   2  10  12 2149.05 250.812  13
  -2 -10 -12 2279.08 320.837  17
   2  10  13 411.240 139.525  13
  -2 -10 -13 294.509 179.550  17
   2  10  14 657.605 146.357  13
  -2 -10 -14 315.874 163.122  17
   2  10  15 1248.81 153.389  13
  -2 -10 -15 1111.89 187.892  17
  -2 -10 -16 2201.03 195.999  17
   2  11 -13 12.6241 79.7749  16
  -2 -11  13 178.231 89.8642  12
   2  11 -12 4876.99 334.536  16
  -2 -11  12 5516.95 348.997  12
  -2 -11  11 166.391 130.507  12
   2  11 -11 159.806 141.756  16
  -2 -11  10 6807.97 472.161  12
   2  11 -10 7239.64 488.822  16
   2  11  -9 316.953 200.004  16
  -2 -11   9 435.752 190.009  12
   2  11  -8 14706.7 744.376  16
  -2 -11   8 13319.0 719.404  12
  -2 -11   7 21536.6 918.368  18
  -2 -11   7 19691.2 882.392  12
   2  11  -6 1540.59 293.168  16
  -2 -11   6 1459.42 272.069  18
  -2 -11   6 1291.51 267.313  12
   2  11  -5 2365.63 333.991  16
  -2 -11   5 2291.73 330.021  18
  -2 -11   5 2196.65 322.018  12
  -2 -11   4-8.56890 118.006  18
  -2 -11   4-46.3028 135.521  17
  -2 -11   3 304.143 167.907  18
  -2 -11   3 251.955 388.729   2
  -2 -11   3 993.909 525.096   5
  -2 -11   3 217.559 154.566  17
  -2 -11   2 21947.6 2176.95   5
  -2 -11   2 21385.8 882.289  18
  -2 -11   2 22052.7 2201.66   2
  -2 -11   2 22248.4 895.130  17
  -2 -11   1 21794.5 2234.57   5
  -2 -11   1 21259.1 861.913  17
  -2 -11   1 21544.3 2150.79   2
  -2 -11   0 7179.83 1320.98   5
  -2 -11   0 6504.43 490.194  17
  -2 -11   0 7019.87 1241.06   2
  -2 -11  -1 6495.38 1249.40   5
  -2 -11  -1 8648.60 561.807  17
   2  11   1 7071.51 1045.74   1
  -2 -11  -1 8411.71 1344.01   2
  -2 -11  -2 1266.65 256.820  17
  -2 -11  -2 1332.58 650.357   5
  -2 -11  -2 1088.94 253.553   8
   2  11   2 778.328 389.835   1
  -2 -11  -2 579.174 464.370   2
  -2 -11  -3 40256.4 2990.08   5
  -2 -11  -3 40201.7 1218.25  17
  -2 -11  -3 41501.4 1261.36   8
   2  11   3 41219.0 2448.64   1
  -2 -11  -3 39170.1 2728.84   2
  -2 -11  -4 8071.82 569.883   8
  -2 -11  -4 7536.20 1208.75   2
  -2 -11  -4 7868.41 559.579  17
   2  11   4 7903.34 1114.10   1
  -2 -11  -4 8070.82 1354.07   5
  -2 -11  -5 19982.0 2032.90   5
  -2 -11  -5 21211.7 911.200  17
  -2 -11  -5 18161.9 1810.88   2
   2  11   5 19595.5 1744.02   1
  -2 -11  -6 8727.82 1300.40   5
  -2 -11  -6 6952.67 560.021  17
  -2 -11  -6 7075.40 1123.96   2
   2  11   6 6787.53 1048.51   1
  -2 -11  -7 5106.55 493.832  17
  -2 -11  -8 7504.81 578.770  17
  -2 -11  -9 8346.87 603.020  17
   2  11   9 7723.73 452.351  13
  -2 -11 -10 1158.87 273.501  17
   2  11  10 1014.84 185.344  13
  -2 -11 -11 8376.32 580.040  17
   2  11  11 6803.09 414.034  13
  -2 -11 -12 921.756 227.727  17
   2  11  12 1260.99 185.337  13
  -2 -11 -13 4178.57 371.064  17
   2  11  13 4593.11 304.334  13
  -2 -11 -14-118.156 129.077  17
   2  11  14 39.2707 79.3729  13
  -2 -11 -15 260.895 107.780  17
   2  12 -12 1365.26 175.405  16
  -2 -12  12 1332.27 153.812  12
   2  12 -11 1618.17 219.841  16
  -2 -12  11 1091.62 170.757  12
   2  12 -10 134.632 150.230  16
  -2 -12  10 193.270 111.497  12
   2  12  -9 293.215 176.677  16
  -2 -12   9 181.597 148.161  12
   2  12  -8 3208.85 359.415  16
  -2 -12   8 2529.85 315.638  12
   2  12  -7 2274.48 343.040  16
  -2 -12   7 2208.65 327.584  18
  -2 -12   7 2393.22 320.558  12
  -2 -12   6 1793.82 294.774  18
   2  12  -6 1838.48 315.168  16
  -2 -12   6 1435.32 259.559  12
  -2 -12   5 4182.96 420.687  18
   2  12  -5 4025.58 429.388  16
  -2 -12   4 4818.43 442.872  18
   2  12  -4 5212.01 472.017  16
  -2 -12   3 2689.43 349.658  17
   2  12  -3 2547.12 343.451  16
  -2 -12   3 2422.82 322.154  18
  -2 -12   2 11.5570 157.575  18
  -2 -12   2 126.903 162.591  17
  -2 -12   1 776.481 238.892  17
  -2 -12   1 1601.13 717.788   5
  -2 -12   1 1687.35 671.840   2
  -2 -12   0 20224.6 2139.58   2
  -2 -12   0 15779.1 1938.96   5
  -2 -12   0 18385.4 838.620  17
  -2 -12  -1 664.746 484.219   5
  -2 -12  -1 570.070 201.665  17
  -2 -12  -1 726.472 463.734   2
   2  12   1 435.067 335.743   1
  -2 -12  -2 1377.71 266.876  17
  -2 -12  -2 1859.58 693.665   2
  -2 -12  -2 2793.50 868.255   5
  -2 -12  -3 8739.54 1515.09   5
  -2 -12  -3 8593.55 1375.29   2
   2  12   3 9317.79 1249.60   1
  -2 -12  -3 9472.72 622.879  17
  -2 -12  -4 28747.2 1064.71  17
  -2 -12  -5 1114.34 273.477  17
  -2 -12  -6 6576.98 545.375  17
  -2 -12  -7 219.243 220.363  17
  -2 -12  -8 25902.6 1021.14  17
  -2 -12  -9 363.178 202.631  17
  -2 -12 -10 11858.9 680.595  17
  -2 -12 -11 352.612 189.691  17
   2  12  11 683.207 146.868  13
  -2 -12 -12 1844.93 272.456  17
   2  12  12 2025.36 206.179  13
  -2 -12 -13 68.7820 131.240  17
  -2 -12 -14 1720.11 199.365  17
   2  13 -11 101.502 103.659  16
   2  13 -10 8798.22 447.036  16
   2  13  -9 484.158 182.836  16
   2  13  -8 251.978 176.256  16
   2  13  -7 4216.23 410.905  16
  -2 -13   6 4140.61 423.525  18
   2  13  -6 4972.57 442.036  16
  -2 -13   5 10729.0 650.120  18
   2  13  -5 11203.7 662.726  16
   2  13  -4 5023.02 461.252  16
  -2 -13   4 4695.92 456.436  18
  -2 -13   3 7085.61 549.390  17
  -2 -13   3 6649.93 522.195  18
   2  13  -3 7449.67 539.569  16
   2  13  -2 8243.33 559.280  16
  -2 -13   2 8126.67 584.923  17
  -2 -13   2 7199.41 534.176  18
  -2 -13   1 21818.7 937.945  17
  -2 -13   1 21306.2 902.986  18
   2  13  -1 23933.2 919.520  16
  -2 -13   0 10419.0 654.332  17
  -2 -13  -1 6300.17 515.158  17
  -2 -13  -2 385.771 196.571  17
  -2 -13  -3 1052.96 253.626  17
  -2 -13  -4 150.182 173.564  17
  -2 -13  -5 5864.69 525.662  17
  -2 -13  -6 34878.3 1174.24  17
  -2 -13  -7 5238.65 483.124  17
  -2 -13  -8 1221.93 273.923  17
  -2 -13  -9 11039.8 649.614  17
  -2 -13 -10 7874.11 522.550  17
  -2 -13 -11 4530.33 382.123  17
  -2 -13 -12 1159.06 195.256  17
  -2 -13 -13 10103.9 432.385  17
   2  14 -10 85.2615 100.123  16
   2  14  -9 121.002 118.407  16
   2  14  -8 144.901 137.356  16
   2  14  -7 11251.7 574.904  16
   2  14  -6 158.951 176.463  16
   2  14  -5 5131.77 434.774  16
  -2 -14   5 4618.24 419.043  18
  -2 -14   4-122.965 162.644  18
   2  14  -4 297.447 193.515  16
  -2 -14   3 2957.74 354.418  18
   2  14  -3 3144.92 360.835  16
  -2 -14   2 865.594 239.688  18
  -2 -14   2 525.300 224.270  17
   2  14  -2 694.418 204.720  16
  -2 -14   1 20455.8 873.390  18
  -2 -14   1 22644.4 943.840  17
   2  14  -1 21814.5 836.144  16
  -2 -14   0 3216.59 399.594  17
   2  14   0 2383.63 299.649  16
  -2 -14   0 2790.03 349.754  18
  -2 -14  -1 179.340 175.738  18
  -2 -14  -1 194.756 191.348  17
  -2 -14  -2 5101.11 472.358  17
  -2 -14  -3 24494.3 992.617  17
  -2 -14  -4 352.744 207.799  17
  -2 -14  -5 431.641 196.594  17
  -2 -14  -6 895.527 250.180  17
  -2 -14  -7 270.568 181.887  17
  -2 -14  -8 554.879 196.617  17
  -2 -14  -9 3516.84 356.717  17
  -2 -14 -10 816.751 192.929  17
  -2 -14 -11 28.3972 114.204  17
  -2 -14 -12 6970.87 350.615  17
   2  15  -9 306.510 104.805  16
   2  15  -8 337.900 124.478  16
   2  15  -7 1379.17 203.871  16
   2  15  -6 1716.50 246.344  16
   2  15  -5 2568.50 292.798  16
  -2 -15   4 4444.39 386.383  18
   2  15  -4 5031.81 390.146  16
  -2 -15   3 179.356 166.410  18
   2  15  -3 71.3466 149.399  16
  -2 -15   2 28894.0 961.262  18
   2  15  -2 29338.0 893.679  16
  -2 -15   1 6356.43 473.998  18
   2  15  -1 6451.78 424.311  16
  -2 -15   1 6612.87 514.632  17
  -2 -15   0 8023.57 568.095  17
  -2 -15   0 6928.54 488.272  18
  -2 -15  -1 87.9318 149.773  18
  -2 -15  -1 171.561 177.752  17
   2  15   2 4094.74 333.817  11
  -2 -15  -2 4397.09 394.242  18
  -2 -15  -2 5285.40 461.842  17
   2  15   3 4746.18 356.452  11
  -2 -15  -3 4439.46 432.345  17
  -2 -15  -3 4127.07 382.055  18
  -2 -15  -4 1475.03 277.972  17
  -2 -15  -5 442.908 198.418  17
  -2 -15  -6 406.860 175.367  17
  -2 -15  -7 2217.63 291.697  17
  -2 -15  -8 320.843 163.923  17
  -2 -15  -9 274.708 137.983  17
  -2 -15 -10 451.373 142.890  17
  -2 -15 -11 194.719 91.4404  17
   2  16  -7 1839.13 184.442  16
   2  16  -7 2091.75 181.192   7
   2  16  -6 593.336 137.726  16
   2  16  -5 10136.3 444.362  16
   2  16  -4 111.940 110.771  16
  -2 -16   3 9.27258 116.249  18
   2  16  -3 31.5261 103.342  16
   2  16  -2 862.969 163.088  16
  -2 -16   2 506.463 180.709  18
  -2 -16   1 3538.89 327.765  18
  -2 -16   0 12455.3 578.092  18
  -2 -16   0 11704.6 619.857  17
  -2 -16  -1 4662.29 413.919  17
  -2 -16  -1 4309.62 355.072  18
   2  16   1 4239.50 312.838   7
  -2 -16  -2 516.162 191.067  18
  -2 -16  -2 717.439 254.556  17
   2  16   2 168.792 103.033   7
   2  16   3 22892.8 663.067  11
  -2 -16  -3 21768.5 722.921  18
   2  16   4 119.489 102.864  11
  -2 -16  -4 151.690 169.335  17
  -2 -16  -4 106.271 117.795  18
   2  16   5 5840.55 346.866  11
  -2 -16  -5 6313.70 440.016  17
   2  16   6 2481.25 232.783  11
  -2 -16  -6 2088.80 259.552  17
  -2 -16  -7 6156.78 392.354  17
  -2 -16  -8 265.320 116.500  17
  -2 -16  -9 20.1058 87.9940  17
   2  17  -5 219.855 83.8264   7
   2  17  -4 1.38018 80.0161   7
   2  17  -3 925.867 146.095   7
   2  17  -2 3009.26 238.110   7
   2  17  -1 1544.69 177.641   7
  -2 -17   1 1074.17 163.580  18
   2  17   0 1540.33 176.272   7
  -2 -17   0 1622.34 193.463  18
  -2 -17  -1 814.679 149.423  18
   2  17   1 862.729 130.660   7
  -2 -17  -2 2871.36 288.212  17
  -2 -17  -3 866.672 193.590  17
  -2 -17  -4 313.757 153.656  17
  -2 -17  -5 554.374 153.728  17
   2  17   5 260.148 89.8176  11
  -2 -17  -6 4779.29 307.422  17
   2  17   6 4660.88 236.832  11
  -2 -17  -7 221.666 100.365  17
  -3  16   5 3094.69 223.165  11
  -3  16   4 1151.33 159.427  11
  -3  16   3 407.948 128.232  11
  -3  16   3 190.980 68.9441   7
  -3  16   2 4292.11 261.776   7
  -3  16   2 5074.56 319.312  11
  -3  16   1 506.434 120.317   7
  -3  16   0 1530.13 164.336  19
  -3  16   0 2231.17 220.745   7
  -3  16  -1 1479.63 186.164   7
  -3  16  -2 1110.39 164.637   7
  -3  16  -3 12537.0 456.577   7
  -3  16  -4 5017.88 279.398   7
  -3  16  -5 409.293 95.8532   7
  -3  15   8 89.2412 73.4189  13
  -3  15   7 155.504 89.5485  11
  -3  15   7 82.5781 83.4530  13
  -3  15   6 552.620 134.036  11
  -3  15   6 244.043 110.774  13
  -3  15   5 731.716 163.486  11
  -3  15   5 541.799 140.327  13
  -3  15   4 2221.88 201.978   7
  -3  15   4 2376.59 250.673  13
  -3  15   4 2583.15 266.379  11
  -3  15   3 2643.12 283.730  11
  -3  15   3 1840.17 207.287   7
  -3  15   2 9932.64 476.912   7
  -3  15   2 10842.5 541.288  11
  -3  15   1 980.472 216.320  11
  -3  15   1 1117.32 192.864   7
  -3  15   0 10667.5 519.395   7
  -3  15   0 10903.8 548.028  11
  -3  15  -1 90.4484 136.347   7
  -3  15  -2 9425.98 498.166   7
  -3  15  -3 2309.45 255.853   7
  -3  15  -4 807.009 169.014   7
  -3  15  -5 3084.12 257.631   7
  -3  15  -6 4084.85 265.432   7
  -3  14  10 2568.53 192.993  13
  -3  14   9-6.40031 80.4760  13
  -3  14   9 23.0112 58.5748  11
  -3  14   8 1633.78 187.443  11
  -3  14   8 1769.77 207.579  13
  -3  14   7 5050.30 355.799  13
  -3  14   7 4831.31 333.133  11
  -3  14   6 149.319 116.905  11
  -3  14   6 19.0290 125.360  13
  -3  14   5 1200.03 205.511  11
  -3  14   5 1504.24 231.044  13
  -3  14   4 3115.61 321.306  13
  -3  14   4 2779.48 260.726   7
  -3  14   4 3368.61 333.986  11
  -3  14   3 825.104 216.416  11
  -3  14   3 664.590 196.159  13
  -3  14   3 560.877 161.548   7
  -3  14   2 153.700 165.115  11
  -3  14   2 260.269 162.848  13
  -3  14   2 128.729 130.924   7
  -3  14   1 4485.40 378.430   7
  -3  14   1 4828.09 422.832  11
  -3  14   0 1236.48 255.765   7
  -3  14   0 1668.99 297.963  11
  -3  14  -1 14739.0 683.948   7
  -3  14  -1 14457.1 693.593  11
  -3  14  -2 965.745 217.654   7
  -3  14  -3 16178.7 706.002   7
  -3  14  -4 1600.90 243.064   7
  -3  14  -5 8284.04 476.185   7
  -3  14  -6 180.917 125.674   7
  -3  14  -7 4847.02 308.294   7
  -3  14  -7 4480.98 297.339  16
  -3  14  -8 284.163 103.641  16
  -3  14  -8 400.234 99.6359   7
  -3  14  -9 2008.82 175.886  16
  -3  13  11 4996.03 279.648  13
  -3  13  10 172.241 68.9590  11
  -3  13  10 341.743 121.657  13
  -3  13   9 5209.05 325.746  11
  -3  13   9 5735.53 371.808  13
  -3  13   8 14331.9 590.377  11
  -3  13   8 15430.8 642.528  13
  -3  13   7 5684.15 408.699  11
  -3  13   7 7462.43 475.920  13
  -3  13   6 1331.40 239.515  11
  -3  13   6 1850.16 282.074  13
  -3  13   5 6599.50 477.299  11
  -3  13   5 6935.98 411.344   7
  -3  13   4 1593.72 268.010  11
  -3  13   4 1516.38 229.285   7
  -3  13   4 1453.42 269.331  13
  -3  13   3 201.681 163.681  11
  -3  13   3 361.555 184.711  13
  -3  13   3 126.728 129.361   7
  -3  13   2 2546.95 334.539  11
  -3  13   2 2218.31 295.334   7
  -3  13   2 2684.65 325.257  13
  -3  13   1 11187.0 638.055  13
  -3  13   1 10470.6 613.692   7
  -3  13   1 10768.0 630.172  11
  -3  13   0 1090.61 257.470  11
  -3  13   0 954.095 242.882   7
  -3  13  -1 398.909 199.381  11
  -3  13  -1 176.528 185.143   7
  -3  13  -2 5292.62 459.119   7
  -3  13  -2 5068.01 445.824  11
  -3  13  -3 11885.9 657.608   7
  -3  13  -4 5854.25 459.014   7
  -3  13  -5 957.028 205.712  16
  -3  13  -5 1149.26 236.637   7
  -3  13  -6 8836.56 506.322   7
  -3  13  -6 7646.25 472.678  16
  -3  13  -7 55.1113 129.841  16
  -3  13  -7-66.6097 115.741   7
  -3  13  -8 7148.11 430.430  16
  -3  13  -8 6387.37 355.630   7
  -3  13  -9 117.095 113.317  16
  -3  13 -10 99.5484 101.536  16
  -3  13 -11 18.8233 74.2357  16
  -3  12  12 5156.93 290.053  13
  -3  12  11 1035.49 161.872  13
  -3  12  10 5422.80 333.147  11
  -3  12  10 5874.64 386.663  13
  -3  12   9 754.500 195.740  13
  -3  12   8 15193.3 686.806  13
  -3  12   7 1067.82 237.602  13
  -3  12   6 6665.54 492.403  13
  -3  12   5 19923.2 835.515  13
  -3  12   5 15280.8 650.410   7
  -3  12   4 6819.87 519.698  11
  -3  12   4 7542.77 531.756  13
  -3  12   4 6274.78 455.453   7
  -3  12   3 6947.90 517.951  11
  -3  12   3 6964.89 488.371   7
  -3  12   3 8272.90 547.951  13
  -3  12   2 6266.55 504.534  11
  -3  12   2 6052.64 477.692   7
  -3  12   2 6067.43 492.790  13
  -3  12   1 3685.76 403.572  11
  -3  12   1 4436.94 411.672  13
  -3  12   1 3805.74 397.522   7
  -3  12   0 963.547 239.211  11
  -3  12   0 1362.40 255.598  13
  -3  12   0 1201.16 260.567   7
  -3  12  -1 123.660 164.875  11
  -3  12  -1-21.0056 194.699   7
  -3  12  -2 1250.96 264.106  11
  -3  12  -2 1176.05 251.621   7
  -3  12  -3 2439.90 339.075   7
  -3  12  -3 2310.02 319.304  11
  -3  12  -4 137.168 158.594   7
  -3  12  -5 2202.29 305.211  16
  -3  12  -5 2733.74 337.149   7
  -3  12  -6 14037.5 694.875  16
  -3  12  -6 13181.3 661.677   7
  -3  12  -7 6320.18 476.648  16
  -3  12  -7 7123.79 464.837   7
  -3  12  -8 288.064 175.157  16
  -3  12  -8 94.7210 105.439   7
  -3  12  -9 6303.80 443.968  16
  -3  12 -10 5272.02 378.772  16
  -3  12 -11 2541.47 252.870  16
  -3  12 -12 1686.29 179.629  16
  -3  11  13 87.7194 83.2028  13
  -3  11  12 1150.60 172.908  13
  -3  11  11 144.592 111.971  13
  -3  11  10 1649.41 248.807  13
  -3  11   9 7079.77 484.767  13
  -3  11   8 158.049 145.384  13
  -3  11   7 28761.2 1003.13  13
  -3  11   6 8308.86 553.850  13
  -3  11   5 13541.4 628.109   7
  -3  11   5 16048.3 757.183  13
  -3  11   4 1539.08 251.033   7
  -3  11   4 1753.63 289.925  13
  -3  11   3 34924.7 1117.77  13
  -3  11   3 34194.3 1058.06   7
  -3  11   2 3597.49 391.008  11
  -3  11   2 3731.41 390.393   7
  -3  11   2 4279.68 404.810  13
  -3  11   1 1374.32 263.687  11
  -3  11   1 1674.94 285.770   7
  -3  11   1 1562.82 256.219  13
  -3  11   0 10055.0 611.917  11
  -3  11   0 9948.28 593.354  13
  -3  11   0 10416.4 628.698   7
  -3  11  -1 360.222 176.607  11
  -3  11  -1 516.322 197.961   7
  -3  11  -1 292.302 153.066  13
  -3  11  -2 8011.35 574.129   7
  -3  11  -2 8377.18 572.953  11
  -3  11  -3 2192.20 319.459   7
  -3  11  -3 2461.39 321.850  11
  -3  11  -4 354.448 177.643   7
  -3  11  -4 207.399 170.593  16
  -3  11  -5 13098.8 706.288  16
  -3  11  -5 12203.3 681.813   7
  -3  11  -6 1854.99 320.048  16
  -3  11  -6 2047.20 297.118   7
  -3  11  -7 1390.92 285.583  16
  -3  11  -7 1295.65 236.732   7
  -3  11  -8 451.505 157.451   7
  -3  11  -8 487.883 212.406  16
  -3  11  -9-7.63236 177.993  16
  -3  11 -10 1839.68 282.884  16
  -3  11 -11 1133.49 219.114  16
  -3  11 -12 674.756 162.236  16
  -3  11 -13 18.6986 88.3498  16
  -3  10  14 3155.99 214.001  13
  -3  10  13 140.228 106.158  13
  -3  10  12-82.2731 125.565  13
  -3  10  11 1318.92 235.899  13
  -3  10  10 464.148 179.617  13
  -3  10   9 139.161 155.607  13
  -3  10   8 1145.07 235.713  13
  -3  10   7 158.599 157.861  13
  -3  10   6 9901.83 599.318  13
  -3  10   5 687.113 203.257  13
  -3  10   5 863.522 189.547   7
  -3  10   4 4878.62 885.014   3
  -3  10   4 6609.58 462.216   7
  -3  10   4 5818.78 949.137   1
  -3  10   4 6417.70 491.662  13
  -3  10   3 2516.22 319.920  13
  -3  10   3 3248.47 743.016   3
  -3  10   3 2289.38 297.855   7
  -3  10   3 1573.47 526.771   1
  -3  10   2 33215.5 2179.46   3
  -3  10   2 31386.7 1023.78   7
  -3  10   2 32134.5 1027.94  13
  -3  10   2 30193.4 2075.35   1
  -3  10   1 2200.33 317.239  11
  -3  10   1 1072.96 471.173   3
  -3  10   1 1735.73 561.765   1
  -3  10   1 2090.83 293.883  13
  -3  10   1 1715.08 301.968   7
  -3  10   0 3656.06 378.809  11
  -3  10   0 2590.13 653.053   3
  -3  10   0 3753.38 390.864   7
  -3  10   0 3433.32 359.738  13
  -3  10  -1 1489.43 518.609   3
  -3  10  -1 1697.04 273.834  13
  -3  10  -1 2016.96 307.693   7
  -3  10  -1 1815.38 281.718  11
  -3  10  -2 23319.3 890.422  13
  -3  10  -2 23409.1 926.237   7
  -3  10  -2 23778.8 910.567  11
  -3  10  -2 26319.6 1946.59   3
  -3  10  -3 2734.26 668.193   3
  -3  10  -3 2963.83 360.894   7
  -3  10  -3 2954.43 351.315  11
  -3  10  -4 129.705 156.372  16
  -3  10  -4 398.380 335.961   3
  -3  10  -4 352.490 181.470   7
  -3  10  -4 257.566 151.340  11
  -3  10  -5 17430.1 828.524  16
  -3  10  -5 19228.0 833.126   7
  -3  10  -6 7231.66 519.258   7
  -3  10  -6 7604.68 571.084  16
  -3  10  -7 47.9112 178.041  16
  -3  10  -7 150.992 144.336   7
  -3  10  -8 10229.4 664.790  16
  -3  10  -9 4447.67 455.792  16
  -3  10 -10 14732.9 744.342  16
  -3  10 -11 5965.79 459.713  16
  -3  10 -12 11736.7 567.709  16
  -3  10 -13 3675.82 300.100  16
  -3  10 -14 405.917 103.522  16
  -3   9  14 1838.75 164.479  10
  -3   9  14 1755.20 190.594  13
  -3   9  13 2333.46 219.521  10
  -3   9  13 2584.02 262.162  13
  -3   9  12 14265.0 570.613  10
  -3   9  12 15493.6 657.288  13
  -3   9  11 851.718 176.959  10
  -3   9  11 872.565 194.791  13
  -3   9  10 2111.42 268.700  10
  -3   9  10 2388.03 325.153  13
  -3   9   9 6773.62 453.667  10
  -3   9   9 6290.95 497.296  13
  -3   9   8 6774.78 461.866  10
  -3   9   8 7352.29 522.223  13
  -3   9   7 14612.0 725.967  13
  -3   9   7 16272.5 686.287  10
  -3   9   6 627.644 403.632   1
  -3   9   6 918.425 438.325   3
  -3   9   6-0.81439 104.724  10
  -3   9   6 38.5932 126.006  13
  -3   9   5 801.804 388.085   1
  -3   9   5 940.037 186.062  10
  -3   9   5 1342.96 487.939   3
  -3   9   5 1087.94 233.299  13
  -3   9   5 1162.86 227.474   7
  -3   9   4 4211.37 365.854   7
  -3   9   4 5022.05 422.884  13
  -3   9   4 4777.89 846.585   1
  -3   9   4 4853.78 872.391   3
  -3   9   3 68550.3 3031.08   3
  -3   9   3 71731.3 1466.26   7
  -3   9   3 71552.6 3051.67   1
  -3   9   3 75282.7 1521.03  13
  -3   9   2 3400.69 696.394   3
  -3   9   2 3181.98 327.390  13
  -3   9   2 2989.87 642.684   1
  -3   9   2 3475.99 350.352   7
  -3   9   1 8968.22 1087.29   3
  -3   9   1 10003.1 1131.34   1
  -3   9   1 9993.88 580.258   7
  -3   9   1 9628.18 546.989  13
  -3   9   0 371.637 350.081   1
  -3   9   0 458.948 343.619   3
  -3   9   0 842.228 205.259  11
  -3   9   0 517.956 164.454  13
  -3   9   0 665.233 196.515   7
  -3   9  -1 54880.9 1294.68  11
  -3   9  -1 55678.9 2654.95   1
  -3   9  -1 55594.7 1296.93  13
  -3   9  -1 53414.5 1328.47   7
  -3   9  -1 59447.7 2761.43   3
  -3   9  -2 14462.2 664.527  13
  -3   9  -2 13875.3 700.439   7
  -3   9  -2 13810.6 1365.25   3
  -3   9  -2 13442.6 660.012  11
  -3   9  -3 34610.3 1096.16   7
  -3   9  -3 37261.8 2240.95   3
  -3   9  -3 34546.6 1059.04  11
  -3   9  -4 3127.55 359.136  16
  -3   9  -4 2669.16 650.865   3
  -3   9  -4 2931.20 343.133   7
  -3   9  -4 3100.62 343.051  11
  -3   9  -5 12256.4 703.281  16
  -3   9  -5 13069.1 682.552   7
  -3   9  -5 12961.3 1377.86   3
  -3   9  -6 724.377 259.745  16
  -3   9  -6 1635.81 541.149   3
  -3   9  -6 1234.53 244.689   7
  -3   9  -7 15102.5 806.471  16
  -3   9  -7 15608.2 712.604   7
  -3   9  -8 7088.85 572.770  16
  -3   9  -9 1721.15 334.510  16
  -3   9 -10 561.811 224.989  16
  -3   9 -11-14.7229 194.065  16
  -3   9 -12 396.912 178.962  16
  -3   9 -13 78.9633 133.912  16
  -3   9 -14 992.724 167.974  16
  -3   8  15 12116.0 386.161  10
  -3   8  15 13188.0 433.667  13
  -3   8  14 117.832 89.7449  10
  -3   8  14-87.3466 102.646  13
  -3   8  13 15289.0 598.751  10
  -3   8  13 16037.9 647.767  13
  -3   8  12 1163.77 209.282  10
  -3   8  12 1185.69 228.915  13
  -3   8  11 6205.04 441.520  10
  -3   8  11 6105.40 469.186  13
  -3   8  10 2894.22 325.062  10
  -3   8  10 2477.31 331.960  13
  -3   8   9 9571.06 572.395  10
  -3   8   9 9001.35 595.005  13
  -3   8   8 5416.52 423.266  10
  -3   8   8 5555.96 461.856  13
  -3   8   7 1119.17 516.541   1
  -3   8   7 655.850 190.478  10
  -3   8   7 808.306 230.887  13
  -3   8   7 1120.30 452.034   3
  -3   8   6 312.698 305.481   1
  -3   8   6 366.022 140.374  10
  -3   8   6 331.557 146.169  13
  -3   8   5 11392.2 559.310  10
  -3   8   5 9572.55 1132.84   1
  -3   8   5 10484.0 526.867   7
  -3   8   5 11459.0 602.023  13
  -3   8   5 9623.08 1185.33   3
  -3   8   4 2369.03 583.799   3
  -3   8   4 2787.88 293.068   7
  -3   8   4 3050.96 314.044  13
  -3   8   4 2610.21 609.003   1
  -3   8   3 6938.24 910.814   1
  -3   8   3 8254.09 1011.28   3
  -3   8   2 7281.98 939.033   3
  -3   8   2 7613.76 940.213   1
  -3   8   1 136.303 292.785   3
  -3   8   1 706.767 330.401   1
  -3   8   0 63296.9 2699.32   3
  -3   8   0 63739.1 2598.26   1
  -3   8  -1 1364.06 438.443   3
  -3   8  -1 1230.95 416.050   1
  -3   8  -2 42728.3 2241.00   3
  -3   8  -3 1657.41 516.023   3
  -3   8  -4 49423.9 1236.92   7
  -3   8  -4 49687.4 2484.45   3
  -3   8  -4 47256.2 1182.54  11
  -3   8  -5 306.055 183.675  16
  -3   8  -5 350.892 173.378   7
  -3   8  -5 126.300 250.977   3
  -3   8  -6 51560.4 1395.64  16
  -3   8  -6 49378.0 1241.74   7
  -3   8  -7 16143.7 1575.01   3
  -3   8  -7 15631.0 800.691  16
  -3   8  -8 17255.4 854.137  16
  -3   8  -9 6176.04 533.818  16
  -3   8 -10 3478.98 410.249  16
  -3   8 -11 2505.95 359.800  16
  -3   8 -12 7874.42 539.842  16
  -3   8 -13 1262.21 232.379  16
  -3   8 -14-58.1777 121.648  16
  -3   8 -15 14.2904 88.4443  16
  -3   7  15 946.779 148.191  10
  -3   7  15 860.674 143.864  13
  -3   7  14 2916.58 273.277  10
  -3   7  14 3452.01 294.009  13
  -3   7  13 6952.49 450.949  10
  -3   7  13 7009.14 460.425  13
  -3   7  12 45557.7 1191.34  10
  -3   7  12 44831.0 1206.36  13
  -3   7  11 2017.88 294.531  10
  -3   7  11 2285.18 323.847  13
  -3   7  10 48539.3 1288.17  10
  -3   7  10 50784.1 1343.14  13
  -3   7   9 999.368 220.716  13
  -3   7   9 893.097 204.368  10
  -3   7   8 47329.4 1239.70  10
  -3   7   8 45870.5 2503.59   1
  -3   7   8 44687.3 1247.27  13
  -3   7   7-63.3757 197.391   1
  -3   7   7 247.563 158.981  13
  -3   7   7 232.939 128.223  10
  -3   7   6 4803.31 383.068  10
  -3   7   6 3469.18 680.907   1
  -3   7   6 4786.54 837.208   3
  -3   7   6 5245.95 413.516  13
  -3   7   5 4950.03 766.646   1
  -3   7   5 4578.01 774.233   3
  -3   7   4 15686.1 1358.72   3
  -3   7   4 15796.6 1302.90   1
  -3   7   3 630.456 313.486   3
  -3   7   3-109.280 185.273   1
  -3   7   2 228.997 207.878   3
  -3   7   2 178.436 178.785   1
  -3   7   1 6377.85 813.055   3
  -3   7   1 6582.16 796.746   1
  -3   7   0 36853.1 1819.79   1
  -3   7   0 37426.5 1983.51   3
  -3   7  -1 27860.0 1699.77   3
  -3   7  -2 6512.85 839.397   3
  -3   7  -3 37428.7 1999.53   3
  -3   7  -4 197.696 245.756   3
  -3   7  -5 289.120 280.208   3
  -3   7  -6 227.156 173.368  16
  -3   7  -6 236.607 263.873   3
  -3   7  -7 15576.8 781.540  16
  -3   7  -7 18967.5 1657.63   3
  -3   7  -8 11442.7 685.794  16
  -3   7  -8 12377.2 1379.26   3
  -3   7  -9 8069.65 588.997  16
  -3   7 -10 1042.61 266.886  16
  -3   7 -11 6448.65 516.812  16
  -3   7 -12 2376.72 330.036  16
  -3   7 -13 5635.85 438.912  16
  -3   7 -14 3920.71 330.301  16
  -3   7 -15-33.0399 111.856  16
  -3   7 -16-89.7752 87.4518  17
  -3   6  16 317.783 93.6630  10
  -3   6  16 155.365 71.3158  13
  -3   6  15 759.533 161.886  10
  -3   6  15 741.495 143.048  13
  -3   6  14 472.811 154.754  10
  -3   6  14 280.223 121.247  13
  -3   6  13 34023.5 1035.50  10
  -3   6  13 33197.7 1006.47  13
  -3   6  12 201.744 166.312  10
  -3   6  12 10.1707 140.267  13
  -3   6  11 6573.34 503.788  10
  -3   6  10 5701.86 471.292  10
  -3   6   9 12032.8 585.537   9
  -3   6   9 11311.1 1282.50   1
  -3   6   9 12125.9 664.788  10
  -3   6   8 4319.60 741.721   1
  -3   6   8 5081.43 391.706   9
  -3   6   8 3816.58 369.065  10
  -3   6   7 10489.0 520.856   9
  -3   6   7 9664.56 1084.52   1
  -3   6   7 12054.8 1294.37   3
  -3   6   7 11592.7 595.114  13
  -3   6   7 11817.8 603.932  10
  -3   6   6 2607.10 571.630   1
  -3   6   6 4273.82 757.220   3
  -3   6   5 42914.0 2069.69   1
  -3   6   5 45659.3 2278.17   3
  -3   6   4 3500.16 585.753   1
  -3   6   4 3808.42 649.447   3
  -3   6   3 129837. 3535.81   3
  -3   6   3 133207. 3343.74   1
  -3   6   2 2554.25 513.887   3
  -3   6   2 1954.74 415.288   1
  -3   6   1 1973.38 397.728   1
  -3   6   1 2280.88 508.559   3
  -3   6   0 3308.92 516.445   1
  -3   6   0 3198.09 569.679   3
  -3   6  -1 10000.3 951.958   3
  -3   6  -2 73053.2 2543.59   3
  -3   6  -3 20781.9 1427.19   3
  -3   6  -4 12696.0 1136.66   3
  -3   6  -5 16626.0 1362.20   3
  -3   6  -6 52359.4 2522.62   3
  -3   6  -7 1995.56 549.913   3
  -3   6  -7 2879.04 350.688  16
  -3   6  -8 61223.2 1493.45  16
  -3   6  -8 57646.9 2953.92   3
  -3   6  -9 21533.2 924.420  16
  -3   6  -9 18918.9 1756.83   3
  -3   6 -10 13407.1 728.000  16
  -3   6 -11 608.760 218.863  16
  -3   6 -12 811.158 228.055  16
  -3   6 -13 1126.71 245.926  16
   3  -6  13 1027.92 185.127  14
   3  -6  14 2055.06 226.104  14
  -3   6 -14 1449.53 237.002  16
  -3   6 -15 1413.72 188.857  16
  -3   6 -16 2231.67 228.126  17
  -3   5  16 2625.87 224.939  10
  -3   5  16 2291.69 188.950  13
  -3   5  15 90.9015 106.161  10
  -3   5  15 114.165 93.0015  13
  -3   5  14 903.689 211.500  10
  -3   5  14 763.613 171.842  13
  -3   5  13 516.906 202.341  10
  -3   5  12 2999.47 359.795  10
  -3   5  11 2359.05 313.028   9
  -3   5  11 1302.35 255.067  10
  -3   5  10 198.834 242.503   1
  -3   5  10 951.101 218.875  10
  -3   5   9 52854.3 1347.50  10
  -3   5   9 57515.5 2759.00   1
  -3   5   8 32004.3 1019.83  10
  -3   5   8 31875.0 892.415   9
  -3   5   7 5061.53 747.288   1
  -3   5   6 141587. 4020.89   3
  -3   5   6 131692. 3542.76   1
  -3   5   5 13356.9 1177.35   3
  -3   5   5 11707.8 1018.34   1
  -3   5   4 44095.9 1844.95   1
  -3   5   4 46582.1 2084.76   3
  -3   5   3 19358.4 1281.61   3
  -3   5   3 18448.9 1148.21   1
  -3   5   2 19980.2 1265.07   3
  -3   5   2 19567.3 1135.04   1
  -3   5   1 1105.23 294.573   1
  -3   5   1 1036.11 325.505   3
  -3   5   0 74560.2 2096.67   1
  -3   5   0 74114.7 2376.72   3
  -3   5  -1 50957.7 1976.35   3
  -3   5  -2 18150.0 1197.65   3
  -3   5  -3 6137.79 738.537   3
  -3   5  -4 30992.2 1675.47   3
  -3   5  -5 19609.0 1411.82   3
  -3   5  -6 9.98705 219.642   3
  -3   5  -7 12491.5 1286.22   3
  -3   5  -8 2799.08 664.890   3
  -3   5  -8 2018.35 291.692  16
  -3   5  -9 22457.2 891.194  16
  -3   5  -9 19768.6 1785.70   3
  -3   5 -10 450.145 345.866   3
  -3   5 -10 501.664 206.149  16
  -3   5 -11 5996.34 490.319  16
  -3   5 -12 4292.93 419.684  16
  -3   5 -13 30259.5 985.021  16
   3  -5  13 33440.7 935.107  14
  -3   5 -14 95.0401 138.741  16
   3  -5  14 235.701 117.323  14
  -3   5 -15 1666.72 206.927  16
   3  -5  15 2667.63 237.480  14
  -3   5 -16-148.626 136.980  17
  -3   5 -17 352.593 109.815  17
  -3   4  17-70.8027 77.0451  10
  -3   4  16 2687.69 244.070  10
  -3   4  16 2500.40 203.399  13
  -3   4  15 159.545 140.057  10
  -3   4  15 259.461 116.117  13
  -3   4  14 2961.26 331.343  10
  -3   4  13 3464.59 384.698  10
  -3   4  12 1039.31 218.815   9
  -3   4  12 596.559 202.868  10
  -3   4  11 2001.44 276.655   9
  -3   4  11 1940.24 300.010  10
  -3   4  10 73.2228 134.928  10
  -3   4  10 165.780 138.313   9
  -3   4  10-252.314 247.033   1
  -3   4   9 835.776 185.985   9
  -3   4   9 1556.86 443.000   1
  -3   4   9 1041.86 223.478  10
  -3   4   8 8145.64 517.218  10
  -3   4   8 7431.28 926.280   1
  -3   4   8 7225.14 428.508   9
  -3   4   7 25492.0 1571.21   1
  -3   4   6 4027.28 663.393   3
  -3   4   6 3235.01 547.208   1
  -3   4   5 8489.35 813.517   1
  -3   4   5 10552.7 1008.59   3
  -3   4   4 118.435 170.431   1
  -3   4   4 202.254 217.528   3
  -3   4   3 116333. 2958.62   3
  -3   4   3 119883. 2663.35   1
  -3   4   2 12811.6 947.459   3
  -3   4   2 14195.1 872.663   1
  -3   4   1 211004. 3187.43   1
  -3   4   1 212523. 3735.88   3
  -3   4   0 43.0772 197.054   3
  -3   4   0 147.627 161.466   1
  -3   4  -1 65033.5 2066.04   3
  -3   4  -2 23571.8 1269.31   3
  -3   4  -3 213056. 4011.37   3
  -3   4  -4 10057.4 926.369   3
  -3   4  -5 4149.07 644.787   3
  -3   4  -6 17672.7 1401.01   3
   3  -4   6 19126.1 1095.29   4
   3  -4   7 46376.4 1886.84   4
  -3   4  -7 46554.8 2362.70   3
  -3   4  -8 2623.24 643.396   3
   3  -4   8 2642.24 507.906   4
  -3   4  -9 3367.48 747.145   3
  -3   4  -9 4520.61 408.264  16
   3  -4   9 3491.44 641.381   4
  -3   4 -10 5800.19 464.957  16
  -3   4 -10 6316.27 1031.20   3
  -3   4 -11 6959.07 514.377  16
  -3   4 -12 3837.14 392.086  16
  -3   4 -13 563.567 179.796  16
   3  -4  13 934.590 185.841  14
  -3   4 -14 6852.01 441.716  16
   3  -4  14 8389.08 464.413  14
  -3   4 -15 277.194 124.132  16
   3  -4  15 309.596 126.150  14
  -3   4 -16 9863.95 519.421  17
   3  -4  16 12902.4 461.517  14
  -3   4 -17 946.947 167.091  17
  -3   3  17 4155.32 251.163  10
  -3   3  16 128.511 108.412  10
  -3   3  16 409.545 107.504  13
  -3   3  15 10998.4 580.772  10
  -3   3  14 1197.20 236.847  10
  -3   3  13 27741.3 1031.61  10
  -3   3  13 24948.6 777.454   9
  -3   3  12 157.153 172.805  10
  -3   3  12 489.925 185.784   9
  -3   3  11 2555.88 352.271  10
  -3   3  11 1926.06 263.740   9
  -3   3  10 215.269 135.684   9
  -3   3  10 274.494 220.517   1
  -3   3  10 296.398 164.889  10
  -3   3   9 11833.6 646.973  10
  -3   3   9 11939.0 553.793   9
  -3   3   9 14853.9 1270.37   6
  -3   3   9 13925.9 1285.60   1
  -3   3   8 682.423 342.544   1
  -3   3   8 296.749 235.793   6
  -3   3   7 857.162 345.624   1
  -3   3   7 992.042 374.897   6
  -3   3   6 1925.67 419.016   1
  -3   3   6 2544.09 529.666   3
  -3   3   6 1606.11 408.063   6
  -3   3   5 2225.55 500.758   3
  -3   3   5 1607.83 397.964   6
  -3   3   5 1618.98 372.724   1
  -3   3   4 30634.7 1326.47   1
  -3   3   4 31251.3 1540.62   3
  -3   3   4 31718.5 1467.24   6
  -3   3   3 612.262 216.195   1
  -3   3   3 572.861 240.970   3
  -3   3   2 166657. 2636.21   1
  -3   3   2 164377. 3120.51   3
  -3   3   1 49398.7 1339.37   1
  -3   3   1 49195.2 1662.19   3
  -3   3   0 94684.0 1743.73   1
  -3   3   0 91542.6 2254.18   3
  -3   3  -1 77633.0 2053.71   3
  -3   3  -2 245617. 3790.98   3
  -3   3  -3 269.195 234.821   3
   3  -3   3 342.164 113.552   4
  -3   3  -4 31270.2 1529.70   3
   3  -3   4 32242.1 1075.95   4
  -3   3  -5 502.027 303.042   3
   3  -3   5 680.007 197.853   4
   3  -3   6 29455.0 1330.66   4
  -3   3  -6 30113.4 1724.76   3
   3  -3   7 4684.65 600.240   4
  -3   3  -7 4169.41 713.815   3
  -3   3  -8 337.726 281.742   3
   3  -3   8 658.124 275.199   4
   3  -3   9 29528.0 1753.00   4
  -3   3  -9 30718.2 2115.96   3
  -3   3 -10 3178.31 734.263   3
  -3   3 -10 3449.55 351.790  16
   3  -3  10 2748.77 617.419   4
  -3   3 -11 346.903 374.170   3
  -3   3 -11 352.064 164.008  16
   3  -3  11 552.613 381.070   4
   3  -3  12 2679.33 289.348  14
  -3   3 -12 3864.52 379.954  16
  -3   3 -13 3317.63 337.854  16
   3  -3  13 4500.63 358.753  14
  -3   3 -14 8126.34 484.802  16
   3  -3  14 8302.66 473.028  14
   3  -3  15 1872.44 226.288  14
  -3   3 -16 6039.11 431.372  17
   3  -3  16 6364.78 350.706  14
  -3   3 -17 1312.11 196.783  17
  -3   2  17 628.716 120.367  10
  -3   2  16 5752.82 372.303  10
  -3   2  15 1643.29 253.443  10
  -3   2  14 15236.2 741.416  10
  -3   2  13 11080.5 536.891   9
  -3   2  13 14577.7 768.878  10
  -3   2  12 2715.32 288.479   9
  -3   2  12 2704.65 356.583  10
  -3   2  12 2965.50 297.043  14
  -3   2  11 10259.0 543.424   9
  -3   2  11 10189.2 520.533  14
  -3   2  11 11912.1 1218.13   6
  -3   2  10 19409.6 1569.85   1
  -3   2  10 17699.1 684.704   9
  -3   2  10 16763.3 816.018  10
  -3   2   9 12952.3 1235.16   1
  -3   2   9 12072.5 561.994   9
  -3   2   9 12836.0 673.737  10
  -3   2   9 13755.0 1235.01   6
  -3   2   8 312.602 233.936   1
  -3   2   8-62.0590 180.174   6
  -3   2   7 90.3462 169.788   1
  -3   2   7 226.457 222.110   6
  -3   2   7 365.158 205.715   4
  -3   2   6 49199.8 1934.31   1
  -3   2   6 47901.9 1945.27   6
  -3   2   5 269.261 240.970   3
  -3   2   5 114.796 142.621   4
  -3   2   5 216.781 192.844   1
  -3   2   5 461.578 227.030   6
  -3   2   4 2770.32 468.667   3
  -3   2   4 2564.46 374.087   1
  -3   2   4 2441.30 413.760   6
  -3   2   4 2113.87 266.960   4
  -3   2   3 1039.38 303.402   3
  -3   2   3 1364.04 192.173   4
  -3   2   3 1198.83 275.951   5
  -3   2   3 739.857 278.070   6
  -3   2   3 1056.93 248.144   1
  -3   2   2 521.100 175.286   1
  -3   2   2 390.350 201.039   3
  -3   2   2 763.683 262.000   5
  -3   2   2 586.900 230.181   6
  -3   2   1 100607. 2179.11   3
  -3   2   1 99006.2 1556.86   1
  -3   2   1 95632.3 2173.09   5
  -3   2   1 102619. 2132.41   6
  -3   2   0 11135.6 740.803   5
  -3   2   0 10846.4 462.444   1
  -3   2   0 10903.7 717.865   3
  -3   2  -1 5053.56 506.571   5
  -3   2  -1 4504.30 289.842   1
  -3   2  -1 4563.32 480.938   3
  -3   2  -2 4699.61 494.539   5
   3  -2   2 3808.14 207.368   4
  -3   2  -2 4867.46 540.360   3
  -3   2  -3 498961. 4938.08   5
   3  -2   3 503872. 3467.94   4
  -3   2  -4 2926.06 405.947   5
   3  -2   4 2972.27 341.697   4
  -3   2  -4 2297.39 419.525   3
   3  -2   5 50003.3 1552.00   4
  -3   2  -5 51429.8 2032.85   3
   3  -2   6 518.701 233.977   4
  -3   2  -6 419.468 282.258   3
   3  -2   7 155589. 3370.11   4
   3  -2   8 897.215 337.037   4
   3  -2   9 29722.2 1747.12   4
  -3   2 -10 881.967 196.337  16
   3  -2  10 444.696 277.658   4
  -3   2 -11 12243.1 615.602  16
   3  -2  11 11240.5 541.543  14
  -3   2 -12 2037.60 280.921  16
   3  -2  12 2140.54 267.022  14
   3  -2  13 15466.6 663.022  14
  -3   2 -13 15873.1 687.462  16
   3  -2  14 6456.04 423.252  14
  -3   2 -15 447.869 207.862  17
   3  -2  15 28.8981 110.942  14
  -3   2 -16 921.954 221.779  17
   3  -2  16 1139.26 186.401  14
  -3   2 -17 2252.97 255.768  17
  -3   2 -18 590.581 122.069  17
  -3   1  17-12.0955 88.7005  10
  -3   1  16 3159.44 288.760  10
  -3   1  15 14744.5 662.343  10
  -3   1  14 2508.21 256.542   9
  -3   1  14 2428.86 328.966  10
  -3   1  13 19250.7 884.948  10
  -3   1  13 17829.5 671.316   9
  -3   1  13 18377.4 696.592  14
  -3   1  12 1533.38 289.097  10
  -3   1  12 1379.81 224.693   9
  -3   1  12 1532.53 230.242  14
  -3   1  11 60377.9 1273.13   9
  -3   1  11 60647.7 1246.59  14
  -3   1  10 5622.44 398.951   9
  -3   1  10 5752.28 382.545  14
  -3   1   9 46073.4 1058.44   9
  -3   1   9 44866.7 2173.93   4
  -3   1   8 33802.2 1743.54   4
  -3   1   8 37702.5 1878.52   1
  -3   1   8 36984.8 1899.77   6
  -3   1   7 35465.8 1679.82   1
  -3   1   7 38765.1 1833.63   6
  -3   1   6-46.5355 184.710   1
  -3   1   6 212.959 157.259   4
  -3   1   6 297.097 256.932   6
  -3   1   5 14180.8 808.010   5
  -3   1   5 14278.5 836.234   4
  -3   1   5 14678.6 913.911   1
  -3   1   5 14041.8 997.400   6
  -3   1   4 56072.4 1594.55   5
  -3   1   4 60022.3 1920.68   3
  -3   1   4 55170.2 1447.50   4
  -3   1   4 58724.4 1647.36   1
  -3   1   4 56859.7 1880.16   6
  -3   1   3 54607.0 1664.76   3
  -3   1   3 51113.2 1528.79   5
  -3   1   3 53443.0 1194.17   4
  -3   1   3 53437.9 1383.55   1
  -3   1   3 52556.0 1698.02   6
  -3   1   2 65070.3 1684.26   3
  -3   1   2 64441.5 998.352   4
  -3   1   2 66652.6 1307.30   1
  -3   1   2 67263.9 1710.24   5
  -3   1   2 66088.6 1773.62   6
  -3   1   1 1690.76 282.553   3
  -3   1   1 1737.74 319.227   5
  -3   1   1 1833.07 179.812   1
  -3   1   1 1747.85 297.025   6
  -3   1   0 24067.1 1025.85   5
  -3   1   0 23787.8 925.175   6
  -3   1   0 24133.1 946.183   3
  -3   1  -1 7092.57 534.860   2
  -3   1  -1 6305.76 500.966   3
  -3   1  -1 6519.56 541.096   5
  -3   1  -2 14790.8 818.189   2
   3  -1   2 14778.3 519.422   4
  -3   1  -2 15602.8 830.279   3
  -3   1  -2 14551.1 798.616   5
  -3   1  -3 14189.8 857.036   2
  -3   1  -3 13611.1 783.561   5
   3  -1   3 14082.9 639.455   4
  -3   1  -3 14087.7 851.059   3
  -3   1  -4 11279.4 818.667   2
  -3   1  -4 11240.6 719.006   5
   3  -1   4 12010.9 697.757   4
  -3   1  -4 10880.3 835.389   3
  -3   1  -5 29446.6 1387.50   2
   3  -1   5 28418.0 1212.57   4
  -3   1  -5 28628.6 1145.50   5
  -3   1  -6 45003.0 1461.03   5
   3  -1   6 46932.0 1721.72   4
   3  -1   7 733.611 313.984   4
   3  -1   8 47201.8 2052.93   4
   3  -1   9 470.686 265.955   4
   3  -1  10 72570.6 2924.68   4
   3  -1  11 3207.41 699.744   4
  -3   1 -11 3529.84 330.345  16
   3  -1  11 3892.38 326.448  14
   3  -1  12 33785.4 952.660  14
  -3   1 -12 33498.5 976.189  16
   3  -1  12 33408.5 2232.17   4
   3  -1  13 15910.6 678.115  14
   3  -1  14 3302.42 313.299  14
  -3   1 -15 251.762 184.479  17
   3  -1  15 213.491 127.770  14
  -3   1 -16 1195.62 236.026  17
  -3   1 -17 159.037 127.723  17
  -3   1 -18 328.434 114.312  17
  -3   0  17 1025.77 139.646  10
  -3   0  16 442.302 134.770  10
  -3   0  15 9.91927 135.868  10
  -3   0  14 267.059 169.960  10
  -3   0  14 94.8828 119.033  14
  -3   0  13 9218.65 486.480   9
  -3   0  13 9591.14 514.138  14
  -3   0  13 10555.3 647.827  10
  -3   0  12 13710.7 609.232   9
  -3   0  12 14330.6 630.608  14
  -3   0  12 12491.7 589.896  12
  -3   0  11 8531.19 500.325   9
  -3   0  11 8040.25 478.922  12
  -3   0  11 9653.91 512.226  14
  -3   0  11 8246.60 1049.66   6
  -3   0  10 12791.7 579.839   9
  -3   0  10 12405.8 1261.39   4
  -3   0  10 12506.4 559.356  14
  -3   0  10 13812.5 1293.26   6
  -3   0   9 5644.95 816.158   4
  -3   0   9 6763.23 880.097   6
  -3   0   8 71144.0 2577.02   4
  -3   0   8 81796.1 2819.45   6
  -3   0   7 496.925 261.303   4
  -3   0   7 512.119 284.209   6
  -3   0   6 99088.6 2534.94   1
  -3   0   6 104801. 2861.37   6
  -3   0   5 955.361 226.407   5
  -3   0   5 1368.97 313.043   1
  -3   0   5 1337.68 372.168   6
  -3   0   4 50499.1 1479.97   1
  -3   0   4 52901.1 1494.59   5
  -3   0   4 52690.8 1492.75   4
  -3   0   4 50476.5 1766.19   6
  -3   0   3 2575.83 354.492   5
  -3   0   3 2933.08 323.938   1
  -3   0   3 3418.43 350.515   4
  -3   0   3 2708.90 371.408   3
  -3   0   3 2110.84 368.959   6
  -3   0   2 70867.4 1599.10   3
  -3   0   2 70490.2 1746.22   5
  -3   0   2 72526.6 1312.07   4
  -3   0   2 71999.7 1834.81   6
  -3   0   1 60280.9 1371.32   3
  -3   0   1 60648.6 1599.47   5
  -3   0   1 59267.6 1538.11   6
  -3   0   1 61698.8 1251.00   2
  -3   0   0 1282.18 268.241   5
  -3   0   0 1555.31 255.049   6
  -3   0   0 1481.02 229.407   3
  -3   0   0 1694.71 257.426   2
  -3   0  -1 3127.24 300.231   6
  -3   0  -1 3007.31 309.994   3
  -3   0  -1 2749.06 358.964   5
  -3   0  -1 3231.32 363.082   2
  -3   0  -2 32650.1 1182.38   5
  -3   0  -2 33845.9 1117.86   3
  -3   0  -2 31930.4 1183.59   2
  -3   0  -3 7866.34 590.109   5
  -3   0  -3 8684.93 643.106   3
  -3   0  -3 8174.78 649.838   2
  -3   0  -4 25479.5 1056.40   5
  -3   0  -4 26627.7 1235.42   2
  -3   0  -5 80589.1 2237.84   2
  -3   0  -5 80717.3 1875.89   5
   3   0   5 82253.3 2129.91   4
  -3   0  -6 26974.0 1380.59   2
   3   0   6 24787.9 1299.87   4
  -3   0  -6 25199.7 1041.01   5
   3   0   7 54072.3 2067.88   4
  -3   0  -7 55944.5 2113.91   2
   3   0   8 9055.98 932.335   4
   3   0   9 39791.1 2078.21   4
   3   0  10 2157.45 563.432   4
   3   0  11 12279.7 556.079  14
   3   0  11 11593.1 1285.15   4
  -3   0 -11 11781.9 559.151  16
   3   0  12 7593.74 1068.42   4
   3   0  12 7525.10 456.374  14
   3   0  13 57376.4 1275.72  14
  -3   0 -14 232.447 183.898  17
   3   0  14 406.947 154.625  14
  -3   0 -15 3304.11 387.861  17
   3   0  15 3324.11 304.245  14
  -3   0 -16 517.574 195.570  17
  -3   0 -17 834.163 185.492  17
  -3   0 -18 3988.02 283.245  17
  -3  -1  17-15.8973 71.5548  10
  -3  -1  16 984.910 168.148  10
  -3  -1  15 455.578 159.074  10
  -3  -1  15 419.719 126.217  14
  -3  -1  14 2501.57 270.720  12
  -3  -1  14 2732.08 276.929  14
  -3  -1  13 393.279 180.418  10
  -3  -1  13 299.025 119.259   9
  -3  -1  13 297.877 145.291  14
  -3  -1  13 264.773 133.307  12
  -3  -1  12 273.932 136.903  14
  -3  -1  12 455.451 166.060  12
  -3  -1  12 351.584 135.038   9
  -3  -1  11 13260.4 605.147   9
  -3  -1  11 14771.5 1487.88   4
  -3  -1  11 13999.1 617.735  14
  -3  -1  11 13528.0 642.464  12
  -3  -1  11 14504.9 1396.98   6
  -3  -1  10 3645.26 320.129   9
  -3  -1  10 4878.19 813.265   4
  -3  -1  10 3729.07 345.407  12
  -3  -1  10 3593.59 684.106   6
  -3  -1   9 21354.2 1561.11   4
  -3  -1   9 24493.4 1651.00   6
  -3  -1   8 18349.8 1355.04   4
  -3  -1   8 22376.3 1529.95   6
  -3  -1   7 68809.0 2395.08   4
  -3  -1   7 77579.4 2664.43   6
  -3  -1   6 4535.50 582.580   4
  -3  -1   6 4289.71 620.003   6
  -3  -1   5 38109.1 1247.18   5
  -3  -1   5 38463.6 1502.82   4
  -3  -1   4 6563.68 584.834   4
  -3  -1   4 5803.83 522.708   5
  -3  -1   4 5512.10 638.122   6
  -3  -1   3 82256.7 2158.14   6
  -3  -1   3 88009.2 1861.12   4
  -3  -1   3 82933.9 1886.42   5
  -3  -1   2 294.354 107.647   2
  -3  -1   2 265.504 134.117   3
  -3  -1   2 201.739 152.160   5
  -3  -1   2 59.3310 160.284   6
  -3  -1   1 40328.7 946.072   3
  -3  -1   1 40234.5 1097.68   2
  -3  -1   1 40913.2 1363.02   5
  -3  -1   1 39381.0 1272.43   6
  -3  -1   0 3637.84 430.364   5
  -3  -1   0 3796.65 382.255   2
  -3  -1   0 3242.65 340.865   6
  -3  -1   0 3606.98 274.095   3
  -3  -1  -1 48641.6 1514.87   5
  -3  -1  -1 49904.2 1440.20   2
  -3  -1  -1 48798.8 1033.25   3
  -3  -1  -1 47773.3 1135.74   6
  -3  -1  -2 6255.40 561.425   5
  -3  -1  -2 6429.51 447.511   3
  -3  -1  -2 5946.69 542.143   2
  -3  -1  -2 5461.67 329.830   6
   3   1   3 4415.09 263.926   1
  -3  -1  -3 4444.82 461.682   5
  -3  -1  -3 4276.74 489.287   2
  -3  -1  -4 5517.11 504.397   5
  -3  -1  -4 5464.35 580.683   2
   3   1   4 5119.76 378.551   1
  -3  -1  -5 5672.10 513.884   5
  -3  -1  -5 6452.89 646.801   2
   3   1   5 5517.14 472.349   1
  -3  -1  -6 68.8410 189.190   2
  -3  -1  -6 382.705 162.939   5
   3   1   6 214.976 148.180   1
   3   1   7 2537.62 419.012   1
  -3  -1  -7 2393.27 457.648   2
   3   1   7 2799.53 514.229   4
  -3  -1  -8 11759.1 1017.24   2
   3   1   8 12173.3 1101.61   4
  -3  -1  -9 1961.89 484.149   2
   3   1   9 1613.56 464.465   4
   3   1  10 25647.3 1816.22   4
   3   1  11 586.994 357.702   4
   3   1  11 818.490 163.802  14
   3   1  12 20111.1 1800.28   4
   3   1  12 20316.7 750.189  14
  -3  -1 -13 623.841 251.770  17
   3   1  13 132.671 128.657  14
  -3  -1 -14 17757.8 855.471  17
   3   1  14 18160.4 721.858  14
  -3  -1 -15 1704.25 304.137  17
  -3  -1 -16 9011.18 559.620  17
  -3  -1 -17 510.228 167.505  17
  -3  -1 -18 7049.21 367.134  17
  -3  -2  16 3732.68 275.685  10
  -3  -2  15 896.297 178.412  10
  -3  -2  15 652.610 142.557  14
  -3  -2  15 651.803 140.763  12
  -3  -2  14 8883.44 481.102  14
  -3  -2  14 9041.64 494.223  12
  -3  -2  13 1624.50 271.597  10
  -3  -2  13 1333.32 221.653  14
  -3  -2  13 1220.81 224.149  12
  -3  -2  12 23085.8 777.327   9
  -3  -2  12 23697.3 821.902  14
  -3  -2  12 23785.2 862.216  12
  -3  -2  11 3142.37 305.278   9
  -3  -2  11 3400.69 350.565  12
  -3  -2  10 22119.5 1657.40   6
  -3  -2  10 20358.0 718.284   9
  -3  -2  10 23070.2 1780.54   4
  -3  -2  10 19608.7 790.038  12
  -3  -2   9 576.197 296.877   4
  -3  -2   9 530.679 160.341  12
  -3  -2   9 436.853 303.635   6
  -3  -2   8 5712.32 795.388   4
  -3  -2   8 5497.94 802.128   6
  -3  -2   7 2213.15 481.041   4
  -3  -2   7 2048.86 457.156   6
  -3  -2   6 7818.16 791.318   4
  -3  -2   6 8720.84 890.959   6
  -3  -2   5 40546.8 1619.32   4
  -3  -2   5 39120.3 1306.19   5
  -3  -2   5 42406.6 1813.60   6
  -3  -2   4 24207.9 1076.39   5
  -3  -2   4 26747.7 1213.60   4
  -3  -2   4 25035.6 1324.55   6
  -3  -2   3 92428.3 2108.56   5
  -3  -2   3 99092.3 2142.59   4
  -3  -2   3 94315.0 1578.89   2
  -3  -2   3 92386.9 2352.78   6
  -3  -2   2 207724. 3195.31   5
  -3  -2   2 205678. 2801.11   4
  -3  -2   1 35112.4 1338.82   5
  -3  -2   1 35013.2 1173.19   2
  -3  -2   0 67977.3 1840.62   5
  -3  -2   0 67155.4 1717.90   2
  -3  -2   0 64360.7 1549.05   6
  -3  -2  -1 44532.5 1508.60   5
   3   2   1 43414.1 780.565   1
  -3  -2  -1 45836.9 1487.23   2
  -3  -2  -1 41801.4 704.298   3
  -3  -2  -1 43727.4 1139.30   6
   3   2   2 75473.6 1127.53   1
  -3  -2  -2 78167.4 2000.91   5
  -3  -2  -2 74583.6 1220.10   6
  -3  -2  -2 79876.2 2059.61   2
  -3  -2  -2 81270.8 1348.67   3
  -3  -2  -3 9512.49 707.803   5
   3   2   3 8117.99 452.011   1
  -3  -2  -3 9643.09 757.435   2
  -3  -2  -4 54862.6 1648.81   5
   3   2   4 50835.1 1296.78   1
  -3  -2  -4 54608.5 1855.58   2
   3   2   5 218.696 145.319   1
  -3  -2  -5 408.885 227.680   5
  -3  -2  -5 112.795 178.594   2
   3   2   6 89221.3 2219.92   1
  -3  -2  -6 95447.5 2663.24   2
  -3  -2  -6 95092.3 2118.25   5
  -3  -2  -7 1444.16 362.434   2
   3   2   7 1023.84 313.349   1
  -3  -2  -8 932.191 340.066   2
   3   2   8 741.107 284.294   1
   3   2   8 976.948 357.256   4
  -3  -2  -9 1186.75 385.241   2
   3   2   9 991.579 332.140   1
   3   2   9 1356.42 472.556   4
  -3  -2 -10 1318.90 282.775  17
  -3  -2 -10 839.917 363.234   2
   3   2  10 714.078 385.021   4
  -3  -2 -11 1175.46 241.033  17
   3   2  11 1508.38 210.401  14
   3   2  11 1405.42 467.382   4
  -3  -2 -12 16079.8 800.096  17
   3   2  12 17055.9 687.745  14
  -3  -2 -13 8156.66 590.118  17
   3   2  13 7749.51 484.105  14
  -3  -2 -14 1007.96 266.992  17
  -3  -2 -15 2205.00 333.081  17
  -3  -2 -16 3509.55 368.270  17
  -3  -2 -17 4806.82 372.613  17
  -3  -2 -18 1118.74 174.604  17
  -3  -3  16 9434.06 380.735  14
  -3  -3  16 10657.6 414.464  10
  -3  -3  15 927.186 165.507  10
  -3  -3  15 969.872 160.581  14
  -3  -3  15 968.433 173.808  12
  -3  -3  14 21599.6 729.013  14
  -3  -3  14 20489.2 747.499  12
  -3  -3  13 215.955 155.108  10
  -3  -3  13-21.3843 116.708  14
  -3  -3  13 31.2040 133.193  12
  -3  -3  12 19217.9 698.274   9
  -3  -3  12 20451.0 826.745  12
  -3  -3  11 71.8948 134.401  12
  -3  -3  11 161.031 115.115   9
  -3  -3  10 7835.11 1073.21   4
  -3  -3  10 7761.79 524.143  12
  -3  -3  10 9737.07 1153.11   6
  -3  -3   9-137.071 224.276   4
  -3  -3   9 213.765 158.053  12
  -3  -3   9 527.306 319.528   6
  -3  -3   8 13663.3 1229.88   4
  -3  -3   8 14291.8 1298.54   6
  -3  -3   7 385.423 228.040   4
  -3  -3   7 446.911 272.279   6
  -3  -3   6 22730.4 1385.39   4
  -3  -3   6 24367.3 1517.34   6
  -3  -3   5 52843.0 1636.67   5
  -3  -3   5 55688.7 2004.32   4
  -3  -3   4 346.085 177.442   5
  -3  -3   4 269.435 199.529   4
  -3  -3   3 16045.0 961.953   5
  -3  -3   3 15323.6 853.846   2
  -3  -3   3 16871.1 953.067   4
  -3  -3   2 34984.6 1428.52   5
  -3  -3   2 33165.8 1309.31   2
  -3  -3   1 503.588 243.381   2
  -3  -3   1 452.887 230.191   5
  -3  -3   0 1997.34 413.077   5
  -3  -3   0 2368.55 428.135   2
  -3  -3  -1 159510. 3141.06   5
  -3  -3  -1 167172. 3160.00   2
  -3  -3  -2 170833. 3233.47   5
  -3  -3  -2 172584. 3271.45   2
   3   3   2 166643. 2228.98   1
  -3  -3  -3 66818.7 2017.79   5
  -3  -3  -3 67248.8 2118.86   2
   3   3   3 66914.7 1522.26   1
  -3  -3  -4 11273.9 831.048   5
   3   3   4 10984.8 682.993   1
  -3  -3  -4 11078.9 883.991   2
  -3  -3  -5 102652. 2403.83   5
  -3  -3  -5 101600. 2803.96   2
  -3  -3  -6 38943.2 1454.16   5
   3   3   6 37826.6 1503.56   1
  -3  -3  -6 42018.1 1840.70   2
  -3  -3  -7 21496.7 1049.67   5
   3   3   7 18378.2 1157.62   1
  -3  -3  -7 19525.3 1313.31   2
   3   3   8 24651.7 1467.48   1
  -3  -3  -8 23583.7 1491.59   2
   3   3   9 20558.1 1594.81   4
   3   3   9 18581.4 1375.48   1
  -3  -3  -9 22577.3 1505.41   2
  -3  -3 -10 6983.14 880.973   2
   3   3  10 6756.17 896.619   1
   3   3  10 7432.92 1049.34   4
  -3  -3 -10 7784.33 532.557  17
  -3  -3 -11 2556.69 547.348   2
  -3  -3 -11 1981.66 311.185  17
   3   3  11 2380.18 632.583   4
   3   3  11 2157.13 494.066   1
   3   3  11 2124.60 248.577  14
  -3  -3 -12 8568.04 611.239  17
  -3  -3 -13 7943.16 600.074  17
  -3  -3 -14 10126.9 661.379  17
  -3  -3 -15 90.8178 184.178  17
  -3  -3 -16 4895.92 418.482  17
  -3  -3 -17 251.099 157.951  17
  -3  -3 -18 12527.7 473.028  17
  -3  -4  16 3856.04 242.392  14
  -3  -4  15 921.045 153.853  14
  -3  -4  15 966.096 173.858  12
  -3  -4  14 6816.66 417.257  10
  -3  -4  14 6318.52 398.962  14
  -3  -4  14 6527.67 440.430  12
  -3  -4  13 15717.3 683.212  10
  -3  -4  13 14275.8 677.838  12
  -3  -4  12 3250.25 297.287   9
  -3  -4  12 3998.33 393.678  12
  -3  -4  11 10258.5 521.008   9
  -3  -4  11 10444.6 626.272  12
  -3  -4  10 6244.85 493.462  12
  -3  -4  10 4913.34 848.064   4
  -3  -4  10 5887.34 955.519   6
  -3  -4   9 73425.4 3146.58   4
  -3  -4   9 79918.6 1647.23  12
  -3  -4   9 78209.5 3203.77   6
  -3  -4   8 2365.37 554.570   4
  -3  -4   8 3146.16 672.505   6
  -3  -4   7 54.3673 202.851   4
  -3  -4   6 2936.36 552.142   4
  -3  -4   5-260.270 184.757   5
  -3  -4   5 63.1401 168.518   4
  -3  -4   4 270.551 202.947   2
  -3  -4   4 166.743 172.426   4
  -3  -4   4 155.729 172.036   5
  -3  -4   3 20196.5 1193.72   5
  -3  -4   3 18149.2 1132.27   2
  -3  -4   3 21763.2 1146.70   4
  -3  -4   2 577.778 261.510   2
  -3  -4   2 805.180 309.931   5
  -3  -4   1 6984.94 763.483   5
  -3  -4   1 6587.02 704.114   2
  -3  -4   0 111784. 2927.99   5
  -3  -4   0 112276. 2860.72   2
  -3  -4  -1 34014.3 1634.22   5
  -3  -4  -1 35218.4 1643.81   2
  -3  -4  -2 245912. 4370.37   5
   3   4   2 259875. 3267.92   1
  -3  -4  -2 252666. 4344.26   2
  -3  -4  -3 3927.00 591.601   5
  -3  -4  -3 4162.73 598.625   2
   3   4   3 4269.83 460.143   1
  -3  -4  -4 179425. 3609.61   5
  -3  -4  -4 177858. 3827.20   2
   3   4   4 168687. 2979.93   1
  -3  -4  -5 18328.5 1129.67   5
   3   4   5 17477.2 1015.17   1
  -3  -4  -5 17528.7 1221.10   2
  -3  -4  -6 4048.64 530.366   5
  -3  -4  -6 4005.73 618.053   2
   3   4   6 4213.36 544.569   1
  -3  -4  -7 5244.85 565.560   5
   3   4   7 6157.20 709.650   1
  -3  -4  -7 6216.44 779.808   2
   3   4   8 92413.7 2864.04   1
  -3  -4  -8 91491.6 3031.38   2
   3   4   9 7800.28 1011.56   4
   3   4   9 7979.63 941.771   1
  -3  -4  -9 7957.89 924.042   2
  -3  -4 -10 5528.72 450.807  17
   3   4  10 4950.11 776.266   1
   3   4  10 4554.99 836.152   4
  -3  -4 -10 4556.41 711.853   2
  -3  -4 -11 480.087 204.792  17
  -3  -4 -11 1072.02 407.766   2
   3   4  11 541.313 409.299   4
   3   4  11 15.5492 264.299   1
  -3  -4 -12 28113.5 1070.01  17
  -3  -4 -13 641.188 219.583  17
  -3  -4 -14 637.935 236.277  17
  -3  -4 -15 10904.6 655.640  17
  -3  -4 -16 1365.56 245.611  17
  -3  -4 -17 414.223 148.556  17
  -3  -4 -18 1981.28 201.761  17
  -3  -5  16 3364.57 209.281  14
  -3  -5  15 230.277 102.836  14
  -3  -5  15 240.783 121.812  12
  -3  -5  14 2230.05 245.668  14
  -3  -5  14 2452.83 282.068  12
  -3  -5  13 191.399 154.640  12
  -3  -5  12 36799.9 1149.16  12
  -3  -5  11 638.096 207.510  12
  -3  -5  10 14908.0 758.493  12
  -3  -5  10 14252.2 1470.59   6
  -3  -5   9 707.857 377.106   4
  -3  -5   9 775.792 227.115  12
  -3  -5   9 801.481 397.651   6
  -3  -5   8 45941.8 2418.20   4
  -3  -5   8 45419.8 1249.36  12
  -3  -5   8 42985.3 2373.36   6
  -3  -5   7 1690.00 477.744   4
  -3  -5   6 39478.5 1996.98   4
  -3  -5   5 165.461 179.491   5
  -3  -5   5 646.384 306.896   4
  -3  -5   4 58548.2 2171.77   5
  -3  -5   4 59068.5 2298.76   2
  -3  -5   3 5645.15 722.453   5
  -3  -5   3 5191.59 703.423   2
  -3  -5   2 578.684 342.410   2
  -3  -5   2 449.416 319.674   5
  -3  -5   1 143.813 270.672   5
  -3  -5   1 97.1752 239.764   2
  -3  -5   0 1787.54 464.751   2
  -3  -5   0 1694.87 482.602   5
  -3  -5  -1 16474.4 1291.17   5
  -3  -5  -1 16967.1 1263.96   2
  -3  -5  -2 4962.06 777.903   5
   3   5   2 3894.20 483.197   1
  -3  -5  -2 4933.93 733.556   2
  -3  -5  -3 26090.6 1573.03   5
  -3  -5  -3 24852.7 1532.96   2
   3   5   3 28779.3 1292.46   1
  -3  -5  -4 2378.20 504.871   5
  -3  -5  -4 3151.77 573.631   2
   3   5   4 3471.94 478.734   1
  -3  -5  -5 32625.3 1671.11   5
  -3  -5  -5 34547.5 1812.84   2
   3   5   5 32666.4 1504.84   1
  -3  -5  -6 1457.36 388.680   5
  -3  -5  -6 1451.75 450.938   2
   3   5   6 1732.66 404.861   1
  -3  -5  -7 173129. 3537.76   5
   3   5   7 175773. 3871.64   1
  -3  -5  -7 168840. 4139.81   2
   3   5   8 4558.43 688.308   1
  -3  -5  -8 4238.83 695.593   2
   3   5   9 16290.0 1346.22   1
  -3  -5  -9 16281.6 1357.27   2
  -3  -5 -10 580.842 179.044  17
   3   5  10 495.632 364.439   4
   3   5  11 38335.4 2509.52   4
  -3  -5 -11 38279.5 1225.09  17
   3   5  11 36014.0 2219.28   1
  -3  -5 -12 4344.98 444.195  17
  -3  -5 -13 9232.58 637.012  17
  -3  -5 -14 771.869 243.356  17
  -3  -5 -15 4885.05 444.568  17
  -3  -5 -16 424.057 162.214  17
  -3  -5 -17 4286.17 334.843  17
  -3  -5 -18 2045.24 193.265  17
  -3  -6  15 377.271 103.612  14
  -3  -6  15 404.121 128.576  12
  -3  -6  14 61.3557 93.0737  14
  -3  -6  14 349.014 200.935  12
  -3  -6  13 2885.04 324.085  12
  -3  -6  12 2987.60 367.492  12
  -3  -6  11 2179.61 339.387  12
  -3  -6  10 502.602 201.413  12
  -3  -6   9 35364.0 2287.19   4
   3   6  -9 35980.2 1010.43  16
  -3  -6   9 39880.8 1239.63  12
  -3  -6   9 38698.2 2403.61   6
   3   6  -8 1513.87 238.002  16
  -3  -6   8 1659.83 511.611   4
  -3  -6   8 1345.13 270.218  12
  -3  -6   7 26869.6 1815.37   4
  -3  -6   7 24983.3 927.864  12
  -3  -6   6 4529.92 716.729   4
  -3  -6   5 91867.3 2879.67   5
  -3  -6   5 105374. 3190.79   4
  -3  -6   4 3561.45 644.443   5
  -3  -6   4 2865.02 617.301   2
  -3  -6   3 21022.0 1492.91   5
  -3  -6   3 21602.2 1572.94   2
  -3  -6   2 13455.7 1232.58   5
  -3  -6   2 13582.9 1266.70   2
  -3  -6   1 41125.6 2200.97   5
  -3  -6   1 44248.0 2217.31   2
  -3  -6   0 27512.2 1818.74   5
  -3  -6   0 30411.5 1847.76   2
  -3  -6  -1 81528.3 3050.24   5
  -3  -6  -1 87696.3 3083.52   2
  -3  -6  -2 22711.5 1577.33   2
   3   6   2 23014.8 1251.09   1
  -3  -6  -3 3794.02 689.561   5
  -3  -6  -3 4680.71 739.656   2
   3   6   3 5158.40 610.359   1
  -3  -6  -4 150237. 4028.80   5
  -3  -6  -4 150364. 4017.86   2
  -3  -6  -5 15289.2 1276.12   5
  -3  -6  -5 14923.7 1281.23   2
   3   6   5 17307.9 1196.65   1
   3   6   6 2491.43 522.097   1
  -3  -6  -6 3089.35 633.448   5
  -3  -6  -6 2972.99 635.235   2
  -3  -6  -7 433.989 295.681   5
  -3  -6  -7 504.702 327.194   2
   3   6   7 54.2394 212.232   1
   3   6   8 47652.1 2248.39   1
  -3  -6  -8 48388.1 2369.13   2
   3   6   9 12536.4 1222.24   1
  -3  -6  -9 11779.8 646.228  17
  -3  -6  -9 11430.6 1183.31   2
  -3  -6 -10 48337.5 1345.74  17
   3   6  10 43332.6 2380.56   1
   3   6  10 46607.5 2698.92   4
  -3  -6 -10 41010.6 2253.78   2
  -3  -6 -11 532.976 215.074  17
  -3  -6 -12 34427.1 1185.38  17
  -3  -6 -13 1648.15 334.648  17
  -3  -6 -14 9636.42 629.455  17
  -3  -6 -15 5601.67 455.987  17
  -3  -6 -16 1266.70 223.932  17
  -3  -6 -17 4286.43 318.743  17
  -3  -7  15 2231.55 186.820  14
  -3  -7  15 2464.31 224.088  12
  -3  -7  14 1296.85 177.097  14
  -3  -7  14 1170.80 200.021  12
  -3  -7  13 226.279 150.194  12
  -3  -7  12 537.804 193.837  12
  -3  -7  11 1546.85 289.907  12
   3   7 -10 6259.99 447.645  16
  -3  -7  10 8020.95 585.398  12
   3   7  -9 289.969 165.760  16
  -3  -7   9 701.356 229.252  12
   3   7  -8 5297.15 446.559  16
  -3  -7   8 4260.76 804.162   4
  -3  -7   8 5930.94 501.408  12
  -3  -7   7 16440.7 710.290  18
  -3  -7   7 16626.7 779.951  12
  -3  -7   6 59848.4 1320.69  18
  -3  -7   6 59094.7 1404.67  12
  -3  -7   5 8942.46 1000.28   5
  -3  -7   4 12001.0 1219.13   5
  -3  -7   4 9631.72 1173.91   2
  -3  -7   3 30543.0 1938.55   5
  -3  -7   3 31225.4 2076.38   2
  -3  -7   2 135594. 4180.11   5
  -3  -7   2 131124. 4211.70   2
  -3  -7   1 28.6344 297.750   2
  -3  -7   1 202.265 289.303   5
  -3  -7   0 10053.7 1179.30   5
  -3  -7   0 9653.61 1137.25   2
  -3  -7  -1 7776.84 1028.75   2
  -3  -7  -1 7450.32 1049.77   5
  -3  -7  -2 304.765 332.910   2
  -3  -7  -2 370.405 395.053   5
   3   7   2 186.743 203.610   1
  -3  -7  -3 17992.8 1562.64   5
   3   7   3 22069.2 1352.74   1
  -3  -7  -3 19838.3 1600.08   2
  -3  -7  -4 1189.63 463.039   5
  -3  -7  -4 889.186 422.188   2
   3   7   4 894.611 334.697   1
   3   7   5 3690.01 631.662   1
  -3  -7  -5 2794.80 645.492   5
  -3  -7  -5 3811.45 713.471   2
  -3  -7  -6 62.7138 267.713   2
  -3  -7  -6 130.638 265.492   5
   3   7   6 343.693 273.246   1
  -3  -7  -7 8962.23 1021.25   5
   3   7   7 9358.25 1014.01   1
  -3  -7  -7 9236.52 1117.17   2
  -3  -7  -8 1667.78 271.291  17
   3   7   8 542.770 335.609   1
  -3  -7  -8 1449.58 519.280   2
   3   7   9 5570.68 845.205   1
  -3  -7  -9 5075.72 456.606  17
  -3  -7  -9 4965.37 833.774   2
   3   7  10 1154.59 478.947   1
  -3  -7 -10 1449.67 492.996   2
  -3  -7 -10 697.321 207.239  17
  -3  -7 -11 562.154 208.821  17
  -3  -7 -12 3640.34 426.354  17
  -3  -7 -13 13170.8 735.540  17
  -3  -7 -14 734.702 226.657  17
  -3  -7 -15 16870.7 733.301  17
  -3  -7 -16 171.666 131.839  17
  -3  -7 -17 19904.1 595.034  17
   3   7  17 19920.7 482.666  13
  -3  -8  15 2329.65 169.504  14
  -3  -8  15 2528.86 203.377  12
  -3  -8  14 3130.90 238.564  14
  -3  -8  14 3257.89 274.737  12
  -3  -8  13-6.80598 119.349  12
  -3  -8  12 1704.47 278.473  12
   3   8 -11 30.2537 118.120  16
  -3  -8  11 28.0417 151.743  12
   3   8 -10-27.0985 162.281  16
  -3  -8  10 70.4880 174.719  12
   3   8  -9 872.368 223.041  16
  -3  -8   9 441.173 195.789  12
  -3  -8   8 7177.61 519.598  18
   3   8  -8 6889.42 496.322  16
  -3  -8   8 7135.24 568.133  12
  -3  -8   7 6140.08 471.365  18
  -3  -8   7 6072.65 499.089  12
  -3  -8   6 10502.3 598.710  18
  -3  -8   6 10776.0 629.011  12
  -3  -8   5 27032.5 1829.90   5
  -3  -8   5 30520.8 946.866  18
  -3  -8   5 29197.1 976.354  12
  -3  -8   4 258.780 394.580   2
  -3  -8   4 470.050 390.668   5
  -3  -8   3 42975.2 2487.22   5
  -3  -8   3 42194.5 2577.50   2
  -3  -8   2 7096.05 1067.34   5
  -3  -8   2 8687.33 1193.69   2
  -3  -8   1 60613.9 3026.12   5
  -3  -8   1 66996.3 3174.02   2
  -3  -8   0 13445.3 1468.28   5
  -3  -8   0 13205.9 1453.80   2
  -3  -8  -1 111030. 4157.06   5
  -3  -8  -1 113983. 4097.85   2
  -3  -8  -2 6561.73 1059.74   5
   3   8   2 5988.75 776.836   1
  -3  -8  -2 6424.81 988.616   2
  -3  -8  -3 16478.5 1597.14   5
   3   8   3 16606.6 1281.43   1
  -3  -8  -3 17458.6 1586.91   2
   3   8   4 192.318 232.335   1
  -3  -8  -4 150.924 279.831   2
  -3  -8  -4 187.257 331.591   5
  -3  -8  -5 12559.6 1379.08   5
  -3  -8  -5 12546.2 1352.75   2
   3   8   5 14529.6 1257.13   1
  -3  -8  -6 360.835 312.232   2
  -3  -8  -6-77.1099 226.999   5
   3   8   6 509.026 293.964   1
   3   8   7 13506.7 1285.24   1
  -3  -8  -7 12112.6 1251.79   5
  -3  -8  -7 14718.3 714.841  17
  -3  -8  -7 12389.0 1331.34   2
  -3  -8  -8 100.651 272.891   2
  -3  -8  -8 168.758 162.388  17
   3   8   8 20.2285 233.830   1
   3   8   9 33952.1 2144.40   1
  -3  -8  -9 32229.5 2136.27   2
  -3  -8  -9 32509.6 1114.67  17
  -3  -8 -10 2740.97 365.439  17
  -3  -8 -11 1667.32 312.682  17
  -3  -8 -12 2407.15 354.427  17
  -3  -8 -13 3155.26 381.379  17
  -3  -8 -14 10370.0 606.156  17
  -3  -8 -15 97.0163 142.150  17
  -3  -8 -16 768.372 179.651  17
   3   8  16 576.423 116.469  13
  -3  -8 -17 1744.73 174.255  17
  -3  -9  14 793.171 125.134  14
  -3  -9  14 853.887 146.819  12
  -3  -9  13 4.16157 106.932  12
  -3  -9  12 131.018 146.191  12
   3   9 -11 1234.73 214.432  16
  -3  -9  11 988.346 228.852  12
   3   9 -10 1611.29 262.410  16
  -3  -9  10 1449.45 282.841  12
   3   9  -9 3926.72 386.091  16
  -3  -9   9 3742.53 427.277  12
   3   9  -8 7677.64 556.454  16
  -3  -9   8 8378.13 616.139  12
   3   9  -7 40.4627 167.778  16
  -3  -9   7 190.632 150.529  18
  -3  -9   7 299.358 184.027  12
  -3  -9   6 13134.7 679.803  18
  -3  -9   6 11581.5 690.572  12
  -3  -9   5 1107.43 220.947  18
  -3  -9   5 1153.51 263.257  12
  -3  -9   4 6663.79 1133.88   2
  -3  -9   4 6119.89 450.033  17
  -3  -9   4 5473.36 981.855   5
  -3  -9   4 6732.72 468.395  18
  -3  -9   4 6546.77 472.812  12
  -3  -9   3 25312.3 2040.34   5
  -3  -9   3 25901.9 2166.00   2
  -3  -9   2 19843.9 1869.86   5
  -3  -9   2 22370.2 1996.64   2
  -3  -9   1 32017.9 2359.13   5
  -3  -9   1 31931.6 2359.44   2
  -3  -9   0 2879.54 804.290   5
  -3  -9   0 1427.20 595.145   2
  -3  -9  -1 402.859 437.411   2
  -3  -9  -1 364.845 448.199   5
  -3  -9  -2 47176.5 2882.32   5
   3   9   2 50354.8 2363.08   1
  -3  -9  -2 52211.6 2913.90   2
  -3  -9  -3 3467.24 806.588   2
  -3  -9  -3 2215.36 667.775   5
   3   9   3 2642.42 568.229   1
  -3  -9  -4 33869.6 2413.76   5
  -3  -9  -4 33978.3 2333.35   2
   3   9   4 37936.9 2130.41   1
  -3  -9  -5 2274.62 660.775   5
  -3  -9  -5 2037.63 617.314   2
  -3  -9  -5 2179.21 299.903  17
   3   9   5 1948.44 534.227   1
  -3  -9  -6 38179.8 2417.27   5
  -3  -9  -6 42826.7 1245.67  17
  -3  -9  -6 44028.2 1205.67   8
  -3  -9  -6 41625.5 2519.79   2
   3   9   6 47575.3 2463.23   1
   3   9   7 8684.91 1104.06   1
  -3  -9  -7 9070.98 596.321  17
  -3  -9  -7 7373.88 1072.10   2
  -3  -9  -8 16959.5 813.649  17
   3   9   8 17210.8 1565.81   1
  -3  -9  -8 15664.6 1541.10   2
  -3  -9  -9 968.808 262.895  17
  -3  -9 -10 1360.25 295.726  17
  -3  -9 -11 1271.55 285.556  17
  -3  -9 -12 5228.87 475.036  17
  -3  -9 -13 1826.39 300.881  17
   3   9  14 273.505 109.029  13
  -3  -9 -14 250.434 174.264  17
   3   9  15 1660.13 174.639  13
  -3  -9 -15 1853.96 246.622  17
  -3  -9 -16 72.7885 110.808  17
  -3 -10  14 2751.55 195.490  12
  -3 -10  13 4312.93 293.551  12
   3  10 -12 7501.06 384.839  16
  -3 -10  12 7985.23 456.613  12
   3  10 -11 10012.5 507.523  16
  -3 -10  11 10738.0 584.309  12
   3  10 -10 1892.53 278.961  16
  -3 -10  10 1916.04 297.527  12
   3  10  -9 4786.42 421.718  16
  -3 -10   9 4776.75 461.370  12
   3  10  -8 7363.80 523.622  16
  -3 -10   8 7791.57 581.290  12
  -3 -10   7 968.297 246.665  18
   3  10  -7 1237.36 261.112  16
  -3 -10   7 1096.63 262.109  12
  -3 -10   6 11847.6 678.924  18
  -3 -10   6 11709.9 699.073  12
  -3 -10   5 566.522 193.969  18
  -3 -10   5 543.723 186.524  12
  -3 -10   4 759.856 217.685  18
  -3 -10   4 1018.83 226.898  17
  -3 -10   4 464.149 399.243   5
  -3 -10   4 764.916 451.516   2
  -3 -10   4 876.837 213.603  12
  -3 -10   3 22470.2 2027.61   5
  -3 -10   3 23970.3 901.722  17
  -3 -10   3 22856.5 2164.74   2
  -3 -10   3 24229.6 898.867  18
  -3 -10   3 22841.3 874.749  12
  -3 -10   2 19926.1 1965.24   5
  -3 -10   2 21305.7 837.291  17
  -3 -10   2 18901.4 1949.12   2
  -3 -10   2 20129.2 788.511  12
  -3 -10   1 10805.8 1455.85   5
  -3 -10   1 12461.9 631.095  17
  -3 -10   1 11740.4 682.101   8
  -3 -10   1 12222.3 1553.97   2
  -3 -10   1 11308.4 602.469  12
  -3 -10   0 11882.6 1543.64   5
  -3 -10   0 10867.4 649.275   8
  -3 -10   0 11159.5 1487.10   2
  -3 -10   0 11450.1 606.606  17
  -3 -10  -1 7973.34 1294.93   5
  -3 -10  -1 7777.72 551.262   8
  -3 -10  -1 6178.07 1122.19   2
  -3 -10  -1 7284.67 488.647  17
   3  10   2-599.941 396.882   1
  -3 -10  -2 272.909 180.010  17
  -3 -10  -2 257.531 179.884   8
  -3 -10  -2-501.785 403.535   2
  -3 -10  -2 261.741 409.855   5
  -3 -10  -3 16781.2 1836.61   5
  -3 -10  -3 17982.9 1820.82   2
  -3 -10  -3 18336.4 835.396   8
  -3 -10  -3 19316.3 810.577  17
   3  10   3 17207.8 1502.44   1
  -3 -10  -4 15522.2 1756.27   5
  -3 -10  -4 17411.5 807.548   8
  -3 -10  -4 16185.5 769.890  17
  -3 -10  -4 15403.8 1671.49   2
   3  10   4 17627.5 1541.07   1
  -3 -10  -5 20130.1 1922.46   5
  -3 -10  -5 21918.5 897.508   8
  -3 -10  -5 20278.6 856.668  17
  -3 -10  -5 19160.8 1834.22   2
   3  10   5 18313.6 1615.68   1
  -3 -10  -6 10707.0 1376.68   5
  -3 -10  -6 11757.5 658.441   8
  -3 -10  -6 10046.0 1314.94   2
   3  10   6 12229.1 1345.45   1
  -3 -10  -6 10734.3 641.906  17
   3  10   7 103959. 3864.26   1
  -3 -10  -7 104294. 1986.56  17
  -3 -10  -8 6753.34 547.320  17
  -3 -10  -9 34461.1 1185.48  17
  -3 -10 -10 1287.85 271.273  17
  -3 -10 -11 19966.1 885.157  17
  -3 -10 -12 13308.3 709.181  17
  -3 -10 -13 1362.48 261.736  17
  -3 -10 -14 2542.07 291.580  17
  -3 -10 -15-140.694 140.272  17
  -3 -10 -16 380.863 102.068  17
  -3 -11  13 376.492 97.0138  12
   3  11 -12 113.026 104.292  16
  -3 -11  12 102.753 110.653  12
   3  11 -11 4785.00 338.925  16
  -3 -11  11 5106.84 368.608  12
   3  11 -10 5643.73 413.208  16
  -3 -11  10 5767.51 430.876  12
   3  11  -9 14181.3 677.002  16
  -3 -11   9 13136.2 689.061  12
   3  11  -8 420.123 200.723  16
  -3 -11   8 345.885 205.967  12
  -3 -11   7 40544.0 1229.36  18
  -3 -11   7 37841.4 1225.29  12
   3  11  -7 41406.4 1223.18  16
  -3 -11   6 451.379 193.579  18
   3  11  -6 550.438 226.713  16
  -3 -11   6 566.549 206.965  12
  -3 -11   5 1034.74 251.405  18
  -3 -11   5 854.505 219.701  12
  -3 -11   4 630.425 210.489  18
  -3 -11   4 558.980 189.766  12
  -3 -11   3 16223.3 1757.07   5
  -3 -11   3 15758.5 765.632  17
  -3 -11   3 16676.2 783.293  18
  -3 -11   3 16204.1 1864.95   2
  -3 -11   3 15092.2 737.372  12
  -3 -11   2 508.351 409.755   2
  -3 -11   2-124.572 339.698   5
  -3 -11   2 275.600 150.685  17
  -3 -11   2 275.096 143.782  12
  -3 -11   1 21858.7 2157.58   5
  -3 -11   1 23501.3 2201.75   2
  -3 -11   1 22133.0 892.540  17
  -3 -11   1 22032.1 839.457  12
  -3 -11   0 229.214 440.164   5
  -3 -11   0 413.909 183.517  17
  -3 -11   0 640.931 434.579   2
  -3 -11   0 477.005 153.529  12
  -3 -11  -1 7415.24 1274.41   5
  -3 -11  -1 7385.73 571.041   8
   3  11   1 7103.06 1020.95   1
  -3 -11  -1 7552.03 1280.49   2
  -3 -11  -1 8048.28 546.879  17
  -3 -11  -2 20102.0 2093.24   5
  -3 -11  -2 21226.3 868.519  17
  -3 -11  -2 20488.4 912.958   8
  -3 -11  -2 18733.4 1960.52   2
   3  11   2 15444.2 1519.76   1
  -3 -11  -3 11703.6 1633.67   5
  -3 -11  -3 13909.8 734.032  17
  -3 -11  -3 14714.9 783.938   8
   3  11   3 15283.8 1508.27   1
  -3 -11  -3 14182.8 1701.11   2
  -3 -11  -4 35419.0 2705.90   5
  -3 -11  -4 38539.9 1194.28  17
  -3 -11  -4 38984.1 1230.52   8
  -3 -11  -4 36203.0 2627.03   2
   3  11   4 39856.3 2433.55   1
  -3 -11  -5 292.439 210.637  17
  -3 -11  -5 592.692 423.330   5
  -3 -11  -5 766.110 258.664   8
   3  11   5 1191.99 456.389   1
  -3 -11  -5 1668.44 597.264   2
  -3 -11  -6 35368.4 1156.29   8
  -3 -11  -6 39189.8 1235.54  17
  -3 -11  -7 263.785 219.705  17
  -3 -11  -8 15274.4 798.829  17
  -3 -11  -9 521.771 226.591  17
  -3 -11 -10 25308.8 990.828  17
  -3 -11 -11 1009.51 263.545  17
  -3 -11 -12 11789.1 636.928  17
  -3 -11 -13 256.483 160.594  17
  -3 -11 -14 20890.8 686.469  17
  -3 -11 -15-135.908 93.9809  17
  -3 -12  12 3220.86 210.510  12
   3  12 -11 484.399 133.503  16
  -3 -12  11 330.567 119.568  12
   3  12 -10 390.447 154.135  16
  -3 -12  10 326.215 137.195  12
   3  12  -9 617.454 196.833  16
  -3 -12   9 429.841 170.865  12
   3  12  -8 17743.1 749.909  16
  -3 -12   8 14519.9 693.751  12
  -3 -12   7 1295.33 269.930  18
   3  12  -7 1766.08 296.949  16
  -3 -12   7 1420.76 266.882  12
   3  12  -6 1155.20 266.852  16
  -3 -12   6 1012.83 251.746  18
  -3 -12   6 1463.29 276.302  12
   3  12  -5 2871.18 369.805  16
  -3 -12   5 2621.27 356.547  18
  -3 -12   5 2618.16 359.625  12
  -3 -12   4 27644.5 1010.21  18
  -3 -12   4 26657.6 1007.82  12
  -3 -12   3 50.6361 151.698  18
  -3 -12   3 306.379 182.783  17
  -3 -12   3 480.849 185.752  12
  -3 -12   2 13630.8 718.400  18
  -3 -12   2 13473.9 723.236  17
  -3 -12   2 13324.0 672.726  12
  -3 -12   1 11621.6 668.537  17
  -3 -12   0 15778.7 778.606  17
  -3 -12  -1 16017.0 780.245  17
  -3 -12  -2 231.021 169.754  17
  -3 -12  -3 2222.07 348.897   8
  -3 -12  -3 2139.25 333.566  17
  -3 -12  -4 64.8165 186.344  17
  -3 -12  -4 60.2740 165.201   8
  -3 -12  -5 8133.24 593.538   8
  -3 -12  -5 8097.92 600.136  17
  -3 -12  -6 5849.71 480.019   8
  -3 -12  -6 6242.52 526.283  17
  -3 -12  -7 390.245 218.610  17
  -3 -12  -8 372.178 217.040  17
  -3 -12  -9 35284.6 1166.12  17
  -3 -12 -10 1973.39 320.522  17
  -3 -12 -11 6258.47 474.747  17
  -3 -12 -12 788.046 202.552  17
  -3 -12 -13 10666.9 508.609  17
  -3 -12 -14 429.639 126.372  17
   3  13 -11 4246.07 243.949  16
   3  13 -10 1730.83 210.899  16
  -3 -13  10 1572.69 173.271  12
   3  13  -9 305.989 149.386  16
  -3 -13   9 270.780 115.556  12
   3  13  -8 3543.44 332.423  16
  -3 -13   8 2723.60 288.572  12
   3  13  -7 3049.51 344.149  16
  -3 -13   7 2355.35 292.301  12
  -3 -13   6 3010.30 375.699  18
   3  13  -6 3554.90 385.840  16
  -3 -13   6 2663.33 327.598  12
   3  13  -5 444.367 215.794  16
  -3 -13   5 203.570 181.631  18
  -3 -13   5 457.872 176.847  12
  -3 -13   4 414.405 206.244  18
   3  13  -4 556.116 222.394  16
  -3 -13   3 16155.9 797.294  18
   3  13  -3 17669.0 811.055  16
  -3 -13   2 415.818 209.236  18
  -3 -13   2 520.611 214.178  17
  -3 -13   1 9822.73 627.146  17
  -3 -13   1 9294.57 603.623  18
  -3 -13   0 11165.7 668.499  17
  -3 -13  -1 3846.98 409.082  17
  -3 -13  -2 1591.08 285.991  17
  -3 -13  -3 6000.74 509.535  17
  -3 -13  -4 6.99999 155.332  17
  -3 -13  -5 27.4693 161.165  17
  -3 -13  -6 787.953 246.591  17
  -3 -13  -7 375.039 194.549  17
  -3 -13  -8 4747.49 445.519  17
  -3 -13  -9 1741.38 292.776  17
  -3 -13 -10 3973.66 385.083  17
  -3 -13 -11 146.673 147.041  17
  -3 -13 -12 6629.72 404.519  17
  -3 -13 -13 1098.87 164.939  17
   3  14 -10 262.309 101.999  16
   3  14  -9 66.4641 111.730  16
   3  14  -8 6576.07 392.636  16
   3  14  -7 628.672 179.672  16
   3  14  -6 898.076 213.428  16
  -3 -14   5 2827.75 331.650  18
   3  14  -5 3303.10 350.818  16
  -3 -14   4 14646.9 711.789  18
   3  14  -4 15694.2 717.362  16
  -3 -14   3 2183.41 330.937  18
   3  14  -3 2919.76 349.628  16
  -3 -14   2 6493.07 512.289  17
   3  14  -2 7481.27 520.762  16
  -3 -14   2 6997.37 516.431  18
  -3 -14   1 2817.79 362.565  18
  -3 -14   1 3000.19 373.824  17
   3  14  -1 3520.59 365.364  16
  -3 -14   0 3963.03 420.190  17
  -3 -14   0 3487.92 394.745  18
   3  14   0 4017.69 380.218  16
  -3 -14  -1 128.311 198.847  17
  -3 -14  -2 1769.22 317.029  17
  -3 -14  -3 1154.65 262.574  17
  -3 -14  -4 24362.3 956.959  17
  -3 -14  -5 3649.91 407.533  17
  -3 -14  -6 697.936 234.923  17
  -3 -14  -7 343.930 200.052  17
  -3 -14  -8 558.903 190.310  17
  -3 -14  -9 897.216 206.352  17
  -3 -14 -10 272.806 147.297  17
  -3 -14 -11 179.552 133.817  17
  -3 -14 -12 1521.80 179.238  17
   3  15  -8 1181.82 164.565  16
   3  15  -7 1189.09 177.325  16
   3  15  -6 2389.63 250.529  16
  -3 -15   5 881.335 195.665  18
   3  15  -5 1151.36 207.471  16
  -3 -15   4 151.713 163.295  18
   3  15  -4 85.3045 137.858  16
  -3 -15   3 67.5976 160.205  18
   3  15  -3 95.4430 152.096  16
   3  15  -2 8633.62 493.399  16
  -3 -15   2 8633.74 536.284  18
  -3 -15   1 9455.77 583.767  17
   3  15  -1 9450.35 515.633  16
  -3 -15   1 9545.18 570.231  18
  -3 -15   0 519.397 196.184  18
  -3 -15   0 222.456 180.425  17
   3  15   0 212.011 135.842  16
  -3 -15  -1 7055.12 517.935  17
  -3 -15  -1 6819.78 500.978  18
  -3 -15  -2 12308.6 652.602  18
  -3 -15  -2 13018.9 690.232  17
  -3 -15  -3 23071.4 898.726  17
  -3 -15  -4 843.949 235.711  17
  -3 -15  -5 6047.62 471.139  17
  -3 -15  -6 2007.24 285.849  17
  -3 -15  -7 6740.33 454.142  17
  -3 -15  -8 5775.53 402.225  17
  -3 -15  -9 4074.66 324.253  17
  -3 -15 -10 769.575 155.130  17
  -3 -15 -11 598.505 120.457  17
   3  16  -7 760.255 117.801  16
   3  16  -6 2868.99 223.710  16
   3  16  -5 2712.90 236.828  16
   3  16  -4 1530.71 199.320  16
  -3 -16   3 309.137 142.714  18
   3  16  -3 177.455 109.649  16
   3  16  -2 2632.03 244.176  16
  -3 -16   2 2143.68 261.352  18
  -3 -16   1 523.074 178.611  18
   3  16  -1 707.147 151.498  16
  -3 -16   0 618.099 183.517  18
  -3 -16   0 505.813 188.997  17
  -3 -16  -1 581.417 175.896  18
  -3 -16  -1 592.554 202.536  17
  -3 -16  -2 4064.22 347.857  18
  -3 -16  -2 4443.52 385.841  17
  -3 -16  -3 1559.86 263.124  17
  -3 -16  -3 1360.96 229.450  18
  -3 -16  -4 8013.57 445.662  18
  -3 -16  -4 8243.72 494.267  17
  -3 -16  -5 1156.17 195.484  18
  -3 -16  -5 1009.51 211.862  17
  -3 -16  -6 8454.14 466.952  17
  -3 -16  -6 7425.49 387.413  18
  -3 -16  -7 44.5208 119.580  17
  -3 -16  -7 240.369 112.453  18
   3  16   8 4187.65 230.995  11
  -3 -16  -8 5203.29 330.001  17
  -3 -16  -9 2157.91 200.937  17
   3  17  -4 1258.42 143.228   7
   3  17  -3 1158.73 145.374   7
  -3 -17   2 650.587 134.042  18
   3  17  -2 957.843 135.679   7
  -3 -17   1 6008.65 337.924  18
   3  17  -1 5427.62 289.884   7
  -3 -17   0-8.87508 95.8149  18
   3  17   0-91.8607 80.0588   7
  -3 -17  -1 1335.20 182.497  18
   3  17   1 1396.76 146.054   7
  -3 -17  -2 24.8544 96.5587  18
  -3 -17  -2-89.7880 121.516  17
  -3 -17  -3 2735.87 261.581  17
  -3 -17  -3 2385.14 215.781  18
  -3 -17  -4 1229.58 184.452  17
  -3 -17  -4 1074.24 152.140  18
  -3 -17  -5 47.9110 94.6559  17
  -3 -17  -6 129.730 97.3766  17
  -3 -17  -7 197.448 95.4436  17
  -4  16   1 120.329 71.6909   7
  -4  16   0 113.949 76.9927   7
  -4  16  -1 1311.32 146.206   7
  -4  16  -2 10635.3 368.120   7
  -4  15   5 423.334 98.4351  11
  -4  15   4 1565.92 146.899   7
  -4  15   4 1454.19 175.355  11
  -4  15   3 76.5810 78.3909   7
  -4  15   2 708.995 139.580   7
  -4  15   1 6561.62 367.879   7
  -4  15   0 7611.91 370.396  19
  -4  15   0 9236.15 441.198   7
  -4  15  -1 5305.26 326.034  19
  -4  15  -1 6072.21 367.789   7
  -4  15  -2 450.468 132.424  19
  -4  15  -2 188.008 122.945   7
  -4  15  -3 3657.50 272.813   7
  -4  15  -4-203.233 114.078  19
  -4  15  -4 108.072 99.5088   7
  -4  15  -5 236.742 91.1624   7
  -4  15  -5 223.125 99.3846  19
  -4  15  -6 2748.57 207.255  19
  -4  14   8 7660.26 343.372  13
  -4  14   7 105.365 68.2507  11
  -4  14   7 29.9963 83.6462  13
  -4  14   6-21.8276 78.3168  11
  -4  14   6 19.4702 89.7679  13
  -4  14   5 3527.61 301.066  13
  -4  14   5 3169.70 270.286  11
  -4  14   4 3227.89 258.261   7
  -4  14   4 3928.02 337.003  13
  -4  14   4 3129.37 294.088  11
  -4  14   3 164.338 140.583  11
  -4  14   3 8.72651 103.835   7
  -4  14   2 364.839 153.198  11
  -4  14   2 98.3338 120.274   7
  -4  14   1 11156.3 543.477   7
  -4  14   1 11684.0 579.424  11
  -4  14   0 588.685 178.882   7
  -4  14  -1 75.6585 124.644   7
  -4  14  -2 3343.33 326.624   7
  -4  14  -3 13242.7 585.714   7
  -4  14  -4 1089.88 193.457   7
  -4  14  -5 4611.10 326.337   7
  -4  14  -6 13320.1 479.043   7
  -4  14  -7 1335.77 175.609  19
  -4  14  -7 1021.54 132.845   7
  -4  14  -8 5337.69 275.980  19
  -4  13  10 1685.59 157.734  13
  -4  13   9 1304.55 168.946  13
  -4  13   8 4476.20 316.687  13
  -4  13   7 68.4149 86.2890  11
  -4  13   7 58.1428 106.268  13
  -4  13   6 12910.7 590.436  13
  -4  13   6 10770.8 513.376  11
  -4  13   5 2281.17 230.274   7
  -4  13   5 2621.75 297.507  13
  -4  13   5 2093.80 259.946  11
  -4  13   4 7977.79 503.321  13
  -4  13   4 6476.48 403.315   7
  -4  13   4 6933.98 460.833  11
  -4  13   3 647.474 190.541  11
  -4  13   3 275.587 157.040  13
  -4  13   3 545.252 163.396   7
  -4  13   2 11219.6 582.461   7
  -4  13   2 13157.5 657.359  13
  -4  13   2 12098.6 636.784  11
  -4  13   1 3510.24 361.865   7
  -4  13   1 3562.16 369.704  11
  -4  13   0 1039.41 240.203  11
  -4  13   0 727.102 219.793   7
  -4  13  -1 1296.37 253.525   7
  -4  13  -1 1737.46 274.997  11
  -4  13  -2 7640.57 516.916   7
  -4  13  -3 2286.28 303.433   7
  -4  13  -4 105.458 134.809   7
  -4  13  -5 894.186 201.675   7
  -4  13  -6 7416.91 426.878   7
  -4  13  -7 9917.81 441.638  16
  -4  13  -7 10369.0 445.429   7
  -4  13  -8 1484.68 190.283  16
  -4  13  -9 49.3451 82.4486  16
  -4  13  -9 76.2342 84.4972  19
  -4  12  11-73.2750 77.8423  13
  -4  12  10 1571.26 185.835  13
  -4  12   9 5417.87 358.024  13
  -4  12   8 748.731 175.100  13
  -4  12   7 9649.10 493.225  11
  -4  12   7 12278.4 595.841  13
  -4  12   6 6.43690 138.705  11
  -4  12   6 159.293 135.280  13
  -4  12   5 7133.75 476.523  11
  -4  12   5 7130.87 428.061   7
  -4  12   5 8438.75 544.227  13
  -4  12   4 2056.96 288.889  11
  -4  12   4 2210.70 274.056   7
  -4  12   4 2413.82 332.801  13
  -4  12   3 17653.8 746.037   7
  -4  12   3 16958.6 773.492  13
  -4  12   3 15307.7 727.627  11
  -4  12   2 1107.75 240.338  11
  -4  12   2 1276.21 256.090  13
  -4  12   2 1215.68 254.853   7
  -4  12   1 23903.6 930.380   7
  -4  12   1 25422.0 963.570  13
  -4  12   1 24250.5 940.057  11
  -4  12   0 2342.53 337.907   7
  -4  12   0 2211.72 337.273  11
  -4  12  -1 38784.6 1185.91   7
  -4  12  -1 38997.6 1198.58  11
  -4  12  -2 2533.90 335.272   7
  -4  12  -3 1826.02 290.910   7
  -4  12  -4-65.2839 174.098   7
  -4  12  -5 12677.7 635.612   7
  -4  12  -6 113.166 144.399  16
  -4  12  -6 226.627 141.516   7
  -4  12  -7-41.1614 131.467  16
  -4  12  -7 28.6065 116.388   7
  -4  12  -8 2072.09 256.353  16
  -4  12  -9 4487.57 334.499  16
  -4  12 -10 7225.60 382.317  16
  -4  12 -10 4930.64 285.620  19
  -4  12 -11 1336.05 160.263  16
  -4  11  12 120.493 72.7773  13
  -4  11  11 1377.58 179.255  13
  -4  11  10 148.710 114.369  13
  -4  11   9 452.119 153.389  13
  -4  11   8 1494.61 242.067  13
  -4  11   7 287.506 140.269  11
  -4  11   7 108.758 147.299  13
  -4  11   6 10917.8 591.875  11
  -4  11   6 11850.3 547.432   7
  -4  11   5-92.5036 142.424  11
  -4  11   5 63.9316 141.482  13
  -4  11   5 39.3916 120.632   7
  -4  11   4 14083.9 708.020  11
  -4  11   4 14151.1 671.363   7
  -4  11   3 4014.07 395.447  11
  -4  11   3 4322.32 402.318   7
  -4  11   3 4574.97 427.925  13
  -4  11   2 11722.7 656.150   7
  -4  11   2 12995.9 689.238  13
  -4  11   2 12535.6 685.420  11
  -4  11   1 2011.84 310.280   7
  -4  11   1 2028.55 324.297  13
  -4  11   1 1641.54 283.647  11
  -4  11   0 13023.6 713.910   7
  -4  11   0 13888.6 721.472  13
  -4  11   0 13593.8 720.982  11
  -4  11  -1 16054.1 803.216   7
  -4  11  -1 16916.4 805.825  11
  -4  11  -2 10548.6 654.633   7
  -4  11  -2 9949.85 631.262  11
  -4  11  -3 2378.82 327.540   7
  -4  11  -4 299.789 155.443   7
  -4  11  -5 145.757 148.697  16
  -4  11  -5 150.720 140.516   7
  -4  11  -6 20328.3 842.977  16
  -4  11  -6 22329.4 836.631   7
  -4  11  -7 164.340 151.659  16
  -4  11  -7 222.504 142.449   7
  -4  11  -8 1103.32 242.043  16
  -4  11  -9 2962.08 326.544  16
  -4  11 -10 511.234 136.412  19
  -4  11 -10 809.186 192.728  16
  -4  11 -11-103.674 130.467  16
  -4  11 -12 313.228 110.511  16
  -4  10  12 2626.10 227.068  13
  -4  10  11 892.909 150.292  10
  -4  10  11 1171.54 190.846  13
  -4  10  10 2157.25 230.728  10
  -4  10  10 2193.37 270.913  13
  -4  10   9 4478.33 336.257  10
  -4  10   9 4391.24 379.502  13
  -4  10   8 4762.88 365.315  10
  -4  10   8 4714.44 415.519  13
  -4  10   7 4448.74 359.956  10
  -4  10   7 4616.35 415.786  13
  -4  10   6 365.432 183.150  13
  -4  10   6 71.6704 114.029   7
  -4  10   6 270.534 117.723  10
  -4  10   5 3185.67 350.434  11
  -4  10   5 4270.82 360.471  10
  -4  10   5 4070.90 368.051   7
  -4  10   5 3760.86 403.485  13
  -4  10   4 1236.53 228.963  11
  -4  10   4 1398.17 220.145  10
  -4  10   4 1688.96 272.199  13
  -4  10   4 1223.15 221.352   7
  -4  10   3 18385.9 809.379  11
  -4  10   3 19566.4 735.852  10
  -4  10   3 19306.6 815.200   7
  -4  10   3 18926.4 824.876  13
  -4  10   2 5340.32 457.765  11
  -4  10   2 5055.70 380.621  10
  -4  10   2 5276.23 445.035   7
  -4  10   2 5466.85 455.562  13
  -4  10   1 7549.13 475.285  10
  -4  10   1 9048.20 583.686   7
  -4  10   1 8409.56 552.705  13
  -4  10   1 8221.44 555.245  11
  -4  10   0 630.919 212.543  11
  -4  10   0 439.785 153.764  10
  -4  10   0 771.309 215.266  13
  -4  10   0 788.275 222.256   7
  -4  10  -1 36547.7 1174.17   7
  -4  10  -1 33287.9 1099.89  13
  -4  10  -1 35192.8 1129.48  11
  -4  10  -2 38701.5 1209.29   7
  -4  10  -2 39524.3 1205.39  11
  -4  10  -3 2680.64 342.835   7
  -4  10  -3 2747.90 346.450  11
  -4  10  -4 2234.31 315.312   7
  -4  10  -5 17614.2 812.846  16
  -4  10  -5 19126.5 832.817   7
  -4  10  -6 2546.19 349.073  16
  -4  10  -6 2679.40 317.606   7
  -4  10  -7 79.2885 177.679  16
  -4  10  -7 33.0084 121.232   7
  -4  10  -8 4941.73 449.721  16
  -4  10  -9 1128.87 254.526  16
  -4  10 -10 6.43035 171.183  16
  -4  10 -11 5620.43 419.203  16
  -4  10 -12 333.777 146.055  16
  -4  10 -13 327.940 115.226  16
  -4   9  13 6744.15 314.997  10
  -4   9  13 7346.26 350.079  13
  -4   9  12 1800.33 202.272  10
  -4   9  12 2048.62 232.261  13
  -4   9  11 5734.92 399.674  13
  -4   9  11 5423.43 368.162  10
  -4   9  10 954.352 189.084  10
  -4   9  10 648.396 178.806  13
  -4   9   9 11519.6 582.624  10
  -4   9   9 10541.0 601.249  13
  -4   9   8 103.378 129.841  10
  -4   9   8 156.819 173.656  13
  -4   9   7 3231.06 334.237  10
  -4   9   7 2653.37 352.835  13
  -4   9   6 11323.0 598.216  10
  -4   9   6 12580.7 598.609   7
  -4   9   6 11382.2 640.972  13
  -4   9   5 6371.29 453.035  10
  -4   9   5 6191.88 439.663   7
  -4   9   5 6008.38 474.676  13
  -4   9   4 1162.17 211.484  10
  -4   9   4 1028.86 227.175  13
  -4   9   4 978.033 206.117   7
  -4   9   3 459.212 144.463  11
  -4   9   3 950.882 185.407  10
  -4   9   3 208.553 349.699   3
  -4   9   3 873.654 204.588  13
  -4   9   3 736.630 208.129   7
  -4   9   2 5067.33 423.705  11
  -4   9   2 5767.30 411.203  10
  -4   9   2 5569.19 916.386   3
  -4   9   2 5237.14 439.824   7
  -4   9   2 4914.95 423.702  13
  -4   9   1 104.382 135.370  11
  -4   9   1-35.1121 200.153   3
  -4   9   1 25.4112 113.904  10
  -4   9   1 14.1868 123.134  13
  -4   9   1 93.0989 123.056   7
  -4   9   0 892.533 204.076  11
  -4   9   0 1269.49 429.226   3
  -4   9   0 679.631 191.821  13
  -4   9   0 930.613 222.731   7
  -4   9   0 721.825 164.548  10
  -4   9  -1 726.936 203.698  11
  -4   9  -1 701.604 160.787  10
  -4   9  -1 1032.66 219.087  13
  -4   9  -1 382.830 164.984   7
  -4   9  -2 5927.62 476.602   7
  -4   9  -2 6577.68 488.421  11
  -4   9  -2 6626.57 1021.38   3
  -4   9  -3 1254.78 249.001  11
  -4   9  -3 1355.71 254.874   7
  -4   9  -4 37089.7 1128.42  16
  -4   9  -4 35589.0 1127.76   7
  -4   9  -5 325.779 200.244  16
  -4   9  -5 95.9828 144.749   7
  -4   9  -6 19122.0 866.003  16
  -4   9  -6 17902.8 780.857   7
  -4   9  -7 1735.77 309.733  16
  -4   9  -7 1437.21 230.227   7
  -4   9  -8 7300.32 553.239  16
  -4   9  -9 2948.64 379.403  16
  -4   9 -10 270.737 207.420  16
  -4   9 -11 15568.6 723.465  16
  -4   9 -12 4794.38 381.763  16
  -4   9 -13-135.272 142.482  16
  -4   9 -14 254.956 101.591  16
  -4   8  14 3762.70 236.136  10
  -4   8  14 3612.32 222.106  13
  -4   8  13 1950.93 209.965  10
  -4   8  13 1983.66 214.770  13
  -4   8  12 6473.51 411.941  10
  -4   8  12 6678.04 418.729  13
  -4   8  11-227.298 131.259  10
  -4   8  11-29.8198 120.710  13
  -4   8  10 20819.1 807.423  10
  -4   8  10 21539.0 828.769  13
  -4   8   9 9917.34 580.925  10
  -4   8   9 10788.1 614.868  13
  -4   8   8 6028.15 457.309  10
  -4   8   8 5276.03 448.072  13
  -4   8   7 204.388 151.214  13
  -4   8   7 145.737 120.220  10
  -4   8   6 5403.65 428.622  10
  -4   8   6 5769.76 412.955   7
  -4   8   6 5453.22 448.252  13
  -4   8   5 11131.6 595.132  10
  -4   8   5 10508.2 1296.91   3
  -4   8   5 10764.6 563.579   7
  -4   8   5 11202.8 621.030  13
  -4   8   4 29611.4 936.586  10
  -4   8   4 27907.6 2027.80   3
  -4   8   4 26524.4 898.557   7
  -4   8   4 28456.2 960.853  13
  -4   8   3 1166.04 210.253  10
  -4   8   3 644.625 359.538   3
  -4   8   3 1324.15 240.341   7
  -4   8   3 1361.26 234.630  13
  -4   8   2 1798.01 251.889  11
  -4   8   2 1760.82 240.105  10
  -4   8   2 1814.95 536.379   3
  -4   8   2 1819.99 264.416   7
  -4   8   2 1627.55 253.593  13
  -4   8   1 2527.59 297.916  11
  -4   8   1 3331.82 314.210  10
  -4   8   1 2946.84 646.839   3
  -4   8   1 3619.97 361.688   7
  -4   8   1 2718.17 302.844  13
  -4   8   0 10631.3 1204.63   3
  -4   8   0 10099.2 520.444  10
  -4   8   0 9826.17 573.369   7
  -4   8   0 10003.4 558.827  13
  -4   8   0 9303.69 541.323  11
  -4   8  -1 129.766 145.138  11
  -4   8  -1 19.6639 138.923  13
  -4   8  -1-98.3555 149.592   7
  -4   8  -2 4108.30 362.891  13
  -4   8  -2 3997.20 385.209   7
  -4   8  -2 4222.68 804.371   3
  -4   8  -2 4135.73 375.108  11
  -4   8  -3 14854.6 713.590   7
  -4   8  -3 13917.1 683.464  11
  -4   8  -4 2698.96 652.406   3
  -4   8  -4 3300.97 354.296  16
  -4   8  -4 2457.28 311.507   7
  -4   8  -5 7744.97 553.888  16
  -4   8  -5 7904.36 518.358   7
  -4   8  -5 8435.46 1161.44   3
  -4   8  -6 662.195 221.915  16
  -4   8  -6 679.551 192.520   7
  -4   8  -7 25696.5 1040.70  16
  -4   8  -8 1251.25 285.609  16
  -4   8  -9 14775.9 777.410  16
  -4   8 -10 10235.3 656.855  16
  -4   8 -11 8958.93 592.432  16
  -4   8 -12 445.001 210.920  16
  -4   8 -13 5084.28 375.394  16
  -4   8 -14 1119.06 177.286  16
  -4   7  15 189.856 76.5729  10
  -4   7  14 1637.58 192.602  10
  -4   7  14 1411.02 164.836  13
  -4   7  13 4171.38 334.840  10
  -4   7  13 3902.93 305.713  13
  -4   7  12-10.5070 116.145  10
  -4   7  12 111.115 106.200  13
  -4   7  11 8490.13 530.811  10
  -4   7  11 7373.90 487.864  13
  -4   7  10 1692.98 280.990  10
  -4   7  10 1711.97 275.409  13
  -4   7   9 48359.3 1306.73  10
  -4   7   9 43827.3 1235.38  13
  -4   7   8 612.808 185.610  10
  -4   7   8 354.830 148.953  13
  -4   7   7 27678.1 972.586  10
  -4   7   7 26794.4 948.689  13
  -4   7   6 163.554 124.601  10
  -4   7   6 232.693 152.954  13
  -4   7   6 344.208 145.500   7
  -4   7   5 61652.5 1389.60  10
  -4   7   5 57833.2 1265.97   7
  -4   7   5 55459.4 1320.23  13
  -4   7   5 58062.7 2882.46   3
  -4   7   4 3869.12 347.734  10
  -4   7   4 4003.64 771.729   3
  -4   7   4 3474.61 331.575   7
  -4   7   4 3697.82 354.695  13
  -4   7   3 9008.67 503.582  10
  -4   7   3 7617.66 1020.46   3
  -4   7   3 7445.21 474.154   7
  -4   7   3 7547.75 474.254  13
  -4   7   2 13136.1 1298.44   3
  -4   7   2 13605.4 633.800   7
  -4   7   1 1940.30 541.794   3
  -4   7   0 73.9285 252.769   3
  -4   7  -1 15370.6 1382.58   3
  -4   7  -2 13467.6 1306.03   3
  -4   7  -3 1090.72 215.108  11
  -4   7  -3 519.592 334.905   3
  -4   7  -4 2474.50 583.139   3
  -4   7  -4 2040.61 281.710  16
  -4   7  -4 2297.58 286.534   7
  -4   7  -5 16700.2 768.113  16
  -4   7  -5 15609.1 690.635   7
  -4   7  -5 17980.3 1609.17   3
  -4   7  -6 3236.54 726.596   3
  -4   7  -6 3268.61 380.599  16
  -4   7  -6 3557.49 340.587   7
  -4   7  -7 567.529 209.892  16
  -4   7  -7 445.076 334.722   3
  -4   7  -8 15216.5 800.371  16
  -4   7  -9 5977.86 538.771  16
  -4   7 -10 9767.87 639.234  16
  -4   7 -11 1084.10 268.382  16
  -4   7 -12 21025.9 836.812  16
  -4   7 -13 33.2106 140.901  16
  -4   7 -14 2293.70 254.951  16
  -4   7 -15 541.661 121.712  16
  -4   7 -15 386.152 110.071  17
  -4   6  15 350.734 107.615  10
  -4   6  14 993.784 183.716  10
  -4   6  14 1028.43 155.091  13
  -4   6  13 3119.67 315.471  10
  -4   6  13 2925.27 275.614  13
  -4   6  12 1749.31 272.545  10
  -4   6  12 1531.03 230.353  13
  -4   6  11 499.335 206.550  10
  -4   6  11 458.787 172.135  13
  -4   6  10 2686.42 346.118  10
  -4   6  10 2728.03 329.284  13
  -4   6   9 178.406 143.484  10
  -4   6   9 164.385 143.721  13
  -4   6   8 25728.6 961.897  10
  -4   6   8 26883.8 875.413   9
  -4   6   7 12225.0 670.421  10
  -4   6   7 12473.9 595.959   9
  -4   6   7 11558.3 616.749  13
  -4   6   6 10252.1 592.832  10
  -4   6   6 9771.72 1195.82   3
  -4   6   6 9643.38 518.959   9
  -4   6   6 10493.8 531.217   7
  -4   6   6 9448.05 548.843  13
  -4   6   5 7435.15 477.490  10
  -4   6   5 6667.85 417.682   9
  -4   6   5 6531.98 418.279   7
  -4   6   5 5570.24 414.082  13
  -4   6   5 7235.08 984.061   3
  -4   6   4 221996. 5175.02   3
  -4   6   3 10993.4 1144.35   3
  -4   6   2 73133.0 2827.44   3
  -4   6   1 33165.9 1919.70   3
  -4   6   0 119482. 3570.57   3
  -4   6  -1 52750.8 2398.91   3
  -4   6  -2 1989.06 505.207   3
  -4   6  -3 6970.16 917.749   3
  -4   6  -4 5339.12 840.264   3
  -4   6  -5 61.7216 232.365   3
  -4   6  -6 3677.08 733.087   3
  -4   6  -6 3877.06 394.840  16
  -4   6  -7 2234.91 607.842   3
  -4   6  -7 2165.37 331.436  16
  -4   6  -8 21158.2 912.859  16
  -4   6  -8 18824.1 1757.39   3
  -4   6  -9 18195.8 866.151  16
  -4   6 -10 1091.96 276.520  16
  -4   6 -11 653.264 225.464  16
  -4   6 -12 261.862 192.900  16
  -4   6 -13 977.330 218.668  16
  -4   6 -14 1466.29 225.645  16
  -4   6 -15 361.953 117.295  16
  -4   6 -15 306.707 123.421  17
  -4   5  16 8137.16 315.579  10
  -4   5  15 1161.11 174.112  10
  -4   5  14 8400.34 474.625  10
  -4   5  14 7505.94 383.760  13
  -4   5  13 184.215 123.868  13
  -4   5  13 120.327 162.364  10
  -4   5  12 377.665 144.678  13
  -4   5  12 528.237 198.619  10
  -4   5  11 647.843 220.377  10
  -4   5  11 408.510 164.968  13
  -4   5  10 1727.48 290.819  10
  -4   5  10 1492.44 248.934  13
  -4   5   9 728.086 230.930  10
  -4   5   9 1116.32 232.112  13
  -4   5   8 476.152 192.263   9
  -4   5   8 189.580 149.675  10
  -4   5   8 133.216 126.831  13
  -4   5   7 29816.5 1006.72  10
  -4   5   7 26628.0 899.710  13
  -4   5   6 18125.0 756.696  10
  -4   5   6 16203.9 643.895   9
  -4   5   5 9791.33 1109.39   3
  -4   5   4 9194.19 1021.54   3
  -4   5   3 17275.7 1346.72   3
  -4   5   2 4277.06 663.611   3
  -4   5   1 19909.4 1398.15   3
  -4   5   0 41657.2 1999.25   3
  -4   5  -1 5963.48 789.492   3
  -4   5  -2 155.020 202.078   3
  -4   5  -3 166665. 4089.67   3
  -4   5  -4 89.8643 272.329   3
  -4   5  -5 35312.8 2078.85   3
  -4   5  -6 4229.74 773.895   3
  -4   5  -7 20469.2 851.480  16
  -4   5  -7 19589.5 1674.32   3
  -4   5  -8 521.217 347.513   3
  -4   5  -8 62.2869 148.473  16
  -4   5  -9 4539.57 906.052   3
  -4   5  -9 4422.63 436.966  16
  -4   5 -10 6287.51 512.475  16
  -4   5 -11 1812.67 305.114  16
  -4   5 -12 15289.0 737.017  16
  -4   5 -13 127.473 149.518  16
  -4   5 -14 4657.15 371.658  16
  -4   5 -15 6712.05 415.496  17
  -4   5 -15 6552.49 371.453  16
  -4   5 -16 7252.60 363.532  17
  -4   4  16 45.6321 77.3105  10
  -4   4  15 6993.68 401.065  10
  -4   4  14 3000.72 311.395  10
  -4   4  13 25730.7 921.197  10
  -4   4  13 23970.6 782.081  13
  -4   4  12 2026.08 304.618  10
  -4   4  12 1740.64 250.124  13
  -4   4  11 2552.77 342.440  10
  -4   4  11 3449.91 364.309   9
  -4   4  11 2685.63 315.216  13
  -4   4  10 941.375 244.198   9
  -4   4  10 1429.83 276.638  10
  -4   4  10 1345.30 236.437  13
  -4   4   9 5217.81 407.846   9
  -4   4   9 5504.58 441.418  13
  -4   4   9 6142.67 498.684  10
  -4   4   8 672.582 165.868  13
  -4   4   8 1098.73 223.945  10
  -4   4   8 578.552 152.468   9
  -4   4   7 352.147 141.198  10
  -4   4   7 231.303 112.934   9
  -4   4   6-119.521 228.171   3
  -4   4   5 252.197 249.193   3
  -4   4   4 28190.2 1675.77   3
  -4   4   3 1608.40 397.060   3
  -4   4   2 47329.8 2014.40   3
  -4   4   1 24276.8 1427.01   3
  -4   4   0 32989.2 1636.47   3
  -4   4  -1 2346.25 432.308   3
  -4   4  -2 212894. 4245.83   3
  -4   4  -3 629.475 315.833   3
  -4   4  -4 3059.83 605.079   3
  -4   4  -5 13729.3 1229.36   3
  -4   4  -6 37928.1 2143.34   3
  -4   4  -7-110.468 301.050   3
  -4   4  -8 775.028 400.702   3
  -4   4  -8 1400.70 256.113  16
  -4   4  -9 572.623 436.502   3
  -4   4  -9 725.921 220.946  16
  -4   4 -10 13102.6 701.896  16
  -4   4 -11 6740.44 513.440  16
  -4   4 -12 570.039 199.170  16
  -4   4 -13 5238.00 424.464  16
  -4   4 -14 1551.80 241.855  16
  -4   4 -15-39.4787 132.449  17
  -4   4 -15-151.735 124.223  16
  -4   4 -16 781.184 166.302  17
  -4   3  16 362.599 106.489  10
  -4   3  15 197.992 123.545  10
  -4   3  14 19988.4 766.714  10
  -4   3  13 2780.14 311.574   9
  -4   3  13 455.308 206.083  10
  -4   3  12 13283.2 617.886   9
  -4   3  12 13562.6 728.092  10
  -4   3  11 4728.73 455.857  10
  -4   3  11 4465.27 376.295   9
  -4   3  10 24151.4 971.659  10
  -4   3  10 21723.8 813.067   9
  -4   3   9 386.746 143.565   9
  -4   3   9 111.241 144.459  10
  -4   3   8 4394.88 406.219  10
  -4   3   8 3577.35 326.114   9
  -4   3   7 967.398 189.861   9
  -4   3   7 930.399 221.224  10
  -4   3   7 471.351 306.261   6
  -4   3   6 4430.76 705.320   6
  -4   3   5 7938.21 905.574   3
  -4   3   5 8099.41 890.997   6
  -4   3   4 174.652 175.416   3
  -4   3   3 11295.3 957.941   3
  -4   3   2 6587.02 711.502   3
  -4   3   1 20413.2 1219.48   3
  -4   3   0 10627.5 897.110   5
  -4   3   0 9837.91 855.746   3
  -4   3  -1 9215.67 836.719   5
  -4   3  -1 8580.48 795.908   3
  -4   3  -2 3507.10 530.251   3
  -4   3  -3 51697.8 2028.42   3
  -4   3  -4 4487.82 659.204   3
  -4   3  -5 40859.7 2017.82   3
  -4   3  -6 1378.91 434.383   3
  -4   3  -7 63115.4 2823.15   3
  -4   3  -8 2299.12 593.690   3
  -4   3  -8 2141.37 280.982  16
  -4   3  -9 30145.2 1002.32  16
  -4   3  -9 23888.1 1971.51   3
  -4   3 -10 1226.47 529.321   3
  -4   3 -10 1460.09 262.834  16
  -4   3 -11 10505.5 611.205  16
  -4   3 -12 367.128 166.864  16
  -4   3 -13-42.5558 160.688  16
  -4   3 -14 400.904 151.353  16
  -4   3 -15 4397.62 378.167  17
  -4   3 -15 4447.40 321.517  16
  -4   3 -16 374.795 152.132  17
  -4   3 -17 77.9387 82.8945  17
  -4   2  16 480.701 117.318  10
  -4   2  15 4200.29 330.502  10
  -4   2  14 2876.81 321.590  10
  -4   2  13 12683.8 676.750  10
  -4   2  13 11434.2 535.118   9
  -4   2  12 2016.78 278.269   9
  -4   2  12 2536.30 343.536  10
  -4   2  11 1618.63 285.594  10
  -4   2  11 1364.05 224.683   9
  -4   2  10 7683.07 567.790  10
  -4   2  10 7131.54 468.781   9
  -4   2   9 9525.70 604.492  10
  -4   2   9 10573.9 547.295   9
  -4   2   9 11155.8 1200.67   6
  -4   2   8 10139.9 607.463  10
  -4   2   8 9942.64 521.376   9
  -4   2   8 11255.7 1178.43   6
  -4   2   7 141383. 3913.56   6
  -4   2   6 5252.28 768.976   6
  -4   2   5 62713.8 2375.16   3
  -4   2   5 56412.9 2267.22   6
  -4   2   4 67.4397 165.131   3
  -4   2   4 104.616 189.169   6
  -4   2   3 95551.3 2586.41   3
  -4   2   3 96109.3 2539.45   5
  -4   2   3 92959.9 2624.89   6
  -4   2   2 7007.34 679.973   3
  -4   2   2 7345.75 729.039   5
  -4   2   2 7243.33 716.371   6
  -4   2   1 21795.3 1154.27   3
  -4   2   1 20915.8 1211.98   5
  -4   2   0 21354.4 1226.18   5
  -4   2   0 21828.8 1153.98   3
  -4   2  -1 13612.8 971.738   5
  -4   2  -1 12508.4 887.717   3
  -4   2  -2 110492. 2719.02   5
  -4   2  -2 109525. 2637.74   3
  -4   2  -3 9916.69 822.680   5
  -4   2  -3 9945.85 846.339   3
  -4   2  -4 5300.39 613.473   5
  -4   2  -4 4818.18 648.789   3
  -4   2  -5 2439.17 446.029   5
  -4   2  -5 1512.57 432.710   3
  -4   2  -6 49622.9 2286.31   3
  -4   2  -7 3052.06 662.599   3
  -4   2  -8 10223.1 1207.10   3
  -4   2  -9 3010.77 717.540   3
  -4   2  -9 3739.86 357.720  16
  -4   2 -10 30523.0 988.030  16
  -4   2 -10 26694.6 2146.55   3
  -4   2 -11 90.3069 157.278  16
  -4   2 -12 23531.0 869.676  16
  -4   2 -13 2875.19 321.481  16
  -4   2 -14 825.637 228.815  17
  -4   2 -14 923.543 199.277  16
  -4   2 -15 1076.50 219.251  17
  -4   2 -16 3880.16 338.585  17
  -4   2 -17 1441.52 186.903  17
  -4   1  16 689.578 130.625  10
  -4   1  15 3396.02 302.836  10
  -4   1  14 936.902 197.678   9
  -4   1  14 249.296 145.860  10
  -4   1  13 4880.20 433.038  10
  -4   1  13 3744.62 330.940   9
  -4   1  12 6305.12 428.328   9
  -4   1  12 8195.50 570.490  10
  -4   1  11-11.2961 114.795   9
  -4   1  11-108.584 139.381  10
  -4   1  10 34433.2 1154.18  10
  -4   1  10 35234.1 1009.36   9
  -4   1   9 3187.58 377.288  10
  -4   1   9 3603.54 338.200   9
  -4   1   9 3825.24 739.727   6
  -4   1   8 103393. 1645.61   9
  -4   1   8 111270. 3689.27   6
  -4   1   7 4196.44 705.442   6
  -4   1   6 19901.4 1415.63   6
  -4   1   5 31463.3 1446.12   5
  -4   1   5 30693.9 1681.44   6
  -4   1   4 40980.0 1701.98   3
  -4   1   4 37364.7 1523.75   5
  -4   1   4 38706.0 1766.56   6
  -4   1   3 18549.0 1082.18   5
  -4   1   3 18940.0 1081.83   3
  -4   1   3 18930.6 1178.22   6
  -4   1   2 72281.3 1984.49   3
  -4   1   2 72822.8 2124.96   5
  -4   1   2 70072.2 2145.64   6
  -4   1   1 5827.11 554.929   3
  -4   1   1 6353.29 653.837   5
  -4   1   1 5413.70 574.633   6
  -4   1   0 124071. 2820.42   5
  -4   1   0 124613. 2506.09   6
  -4   1   0 122244. 2478.58   3
  -4   1  -1 73.8003 141.125   3
  -4   1  -1 200.366 207.632   5
  -4   1  -2 55142.9 1865.47   5
  -4   1  -2 53905.1 1708.86   3
  -4   1  -3 556.550 251.115   3
  -4   1  -3 482.933 218.793   5
  -4   1  -3 734.011 278.768   2
  -4   1  -4 574.220 254.171   3
  -4   1  -4 774.717 252.739   5
  -4   1  -5 7828.64 723.019   5
  -4   1  -5 6975.99 781.991   3
  -4   1  -6 82.2066 195.629   3
  -4   1  -6 111.645 178.581   5
   4  -1   6 90.2298 174.526   4
   4  -1   7 10868.1 931.566   4
  -4   1  -7 10448.8 1109.50   3
  -4   1  -8 979.525 418.674   3
   4  -1   8 1267.92 378.320   4
   4  -1   9 106468. 3339.60   4
  -4   1  -9 107091. 1747.54  16
  -4   1 -10 21450.3 817.884  16
  -4   1 -10 15690.9 1625.22   3
  -4   1 -11 34994.2 1038.82  16
  -4   1 -11 29770.4 2325.17   3
  -4   1 -12 290.027 174.498  16
  -4   1 -13 39517.7 1240.43  17
  -4   1 -13 40395.9 1080.84  16
  -4   1 -14 5.30395 144.611  17
  -4   1 -14 137.735 119.899  16
  -4   1 -15 10372.0 597.743  17
  -4   1 -16 7482.59 468.430  17
  -4   1 -17 1654.56 209.311  17
  -4   0  16 2027.59 196.409  10
  -4   0  15 429.494 137.259  10
  -4   0  14 3270.57 280.621   9
  -4   0  14 3342.20 331.377  10
  -4   0  13-106.635 167.880   9
  -4   0  13 231.640 156.814  10
  -4   0  12 5512.54 402.357   9
  -4   0  12 5759.42 482.825  10
  -4   0  11 1480.12 285.490  10
  -4   0  11 1683.60 243.709   9
  -4   0  10 1194.88 253.840  10
  -4   0  10 925.352 189.949   9
  -4   0  10 981.404 373.276   6
  -4   0   9 4344.92 361.467   9
  -4   0   9 4326.32 411.435  10
  -4   0   9 5128.30 849.422   6
  -4   0   8 33396.6 1046.91  10
  -4   0   8 33164.3 923.977  15
  -4   0   7 68552.8 2758.05   6
  -4   0   6 2141.96 501.021   6
  -4   0   5 116721. 2660.37   5
  -4   0   5 106028. 3089.74   6
  -4   0   4 849.570 267.277   5
  -4   0   4 1053.02 328.841   6
  -4   0   3 186007. 3136.65   3
  -4   0   3 185953. 3372.53   5
  -4   0   3 190244. 3674.03   6
  -4   0   2 4227.88 528.723   5
  -4   0   2 5024.60 489.562   3
  -4   0   2 4037.73 528.081   6
  -4   0   1 106884. 2093.53   3
  -4   0   1 106238. 2533.88   5
  -4   0   1 104102. 2401.64   6
  -4   0   0 4096.74 412.168   3
  -4   0   0 3713.66 415.858   2
  -4   0   0 3163.51 443.487   5
  -4   0   0 3363.02 413.668   6
  -4   0  -1 30882.1 1258.05   2
  -4   0  -1 29821.8 1379.78   5
  -4   0  -1 30013.0 1104.63   6
  -4   0  -1 29587.9 1104.93   3
  -4   0  -2 14562.0 927.840   2
  -4   0  -2 13370.1 914.689   5
  -4   0  -2 13477.5 781.238   3
  -4   0  -3 6255.37 655.989   2
  -4   0  -3 6947.01 678.500   5
  -4   0  -3 6866.16 622.881   3
  -4   0  -4 16645.9 1099.31   2
  -4   0  -4 16582.3 1019.48   5
  -4   0  -4 16442.9 1039.73   3
   4   0   4 17423.0 920.551   4
  -4   0  -5 31236.5 1602.59   2
  -4   0  -5 32465.5 1439.23   5
   4   0   5 33334.3 1416.83   4
  -4   0  -5 28140.6 1498.61   3
  -4   0  -6 649.019 300.719   3
  -4   0  -6 406.868 291.720   2
  -4   0  -6 648.288 214.943   5
   4   0   6 1108.54 302.586   4
  -4   0  -7 5818.08 794.588   2
  -4   0  -7 5359.14 603.704   5
   4   0   7 5035.77 665.364   4
   4   0   8 960.699 341.152   4
   4   0   9 4738.56 785.610   4
  -4   0 -10 149.582 140.476  16
   4   0  10-31.0283 296.924   4
   4   0  11 19079.8 1632.82   4
  -4   0 -11 13802.3 657.488  16
  -4   0 -12 8613.81 598.799  17
  -4   0 -12 7322.62 492.983  16
  -4   0 -13 1114.49 271.277  17
  -4   0 -13 1272.68 226.045  16
  -4   0 -14 1954.91 302.219  17
  -4   0 -15 751.039 218.837  17
  -4   0 -16 13165.4 618.746  17
  -4   0 -17 876.190 172.503  17
  -4  -1  16 2901.51 217.127  10
  -4  -1  15 10603.0 488.500  10
  -4  -1  14 367.855 142.987   9
  -4  -1  14 361.120 149.870  10
  -4  -1  13 2905.95 330.773  10
  -4  -1  13 2801.17 282.732   9
  -4  -1  12 1668.37 284.656  10
  -4  -1  12 1854.43 249.625   9
  -4  -1  11 1116.02 230.905  10
  -4  -1  11 716.345 171.122   9
  -4  -1  11 794.835 177.867  12
  -4  -1  10 4904.61 449.771  10
  -4  -1  10 4921.44 393.125   9
  -4  -1  10 5015.63 393.056  12
  -4  -1  10 5442.47 896.102   6
  -4  -1   9 3294.99 362.215  10
  -4  -1   9 4041.99 355.725   9
  -4  -1   9 2993.57 681.956   6
  -4  -1   8 229.913 142.178  10
  -4  -1   8-679.859 403.796   6
  -4  -1   7 2291.17 537.047   6
  -4  -1   6 12901.4 1011.65   4
  -4  -1   6 13678.5 1191.85   6
  -4  -1   5 32151.9 1446.95   4
  -4  -1   5 33278.0 1416.85   5
  -4  -1   5 35662.7 1817.72   6
  -4  -1   4 38057.6 1520.70   5
  -4  -1   4 37400.9 1393.38   4
  -4  -1   4 35332.7 1735.64   6
  -4  -1   3 1182.93 320.481   5
  -4  -1   3 1569.31 373.196   6
  -4  -1   2 77382.7 2201.67   5
  -4  -1   2 79551.6 1672.76   3
  -4  -1   2 72990.3 2181.28   6
  -4  -1   2 78502.8 1538.71   2
  -4  -1   1 110.361 197.085   5
  -4  -1   1 182.594 107.403   2
  -4  -1   1 440.015 160.684   3
  -4  -1   1 202.629 172.816   6
  -4  -1   0 124953. 1882.32   3
  -4  -1   0 124474. 2445.04   6
  -4  -1   0 126569. 2430.39   2
  -4  -1   0 124878. 2795.97   5
  -4  -1  -1 609.892 261.683   5
  -4  -1  -1 505.868 210.022   2
  -4  -1  -1 547.448 163.529   3
  -4  -1  -1 668.344 210.783   6
  -4  -1  -2 96205.5 2454.15   5
  -4  -1  -2 91035.0 1668.85   6
  -4  -1  -2 92457.7 1825.74   3
  -4  -1  -2 92016.2 2371.57   2
  -4  -1  -3 1058.36 295.016   2
  -4  -1  -3 1458.63 335.981   5
  -4  -1  -3 1703.14 294.136   3
  -4  -1  -4 27776.3 1274.98   3
  -4  -1  -4 28938.4 1462.04   2
  -4  -1  -4 27872.1 1326.06   5
  -4  -1  -5 489.543 253.262   5
  -4  -1  -5 444.307 282.154   2
  -4  -1  -5 868.715 307.174   3
  -4  -1  -6 102652. 2536.64   5
   4   1   6 97468.1 2753.63   4
  -4  -1  -6 100377. 3000.10   2
  -4  -1  -7 15043.2 1232.85   2
  -4  -1  -7 13964.2 929.484   5
   4   1   7 15200.4 1177.60   4
  -4  -1  -8 10465.1 1093.50   2
   4   1   8 10620.2 1063.81   4
  -4  -1  -9 13866.2 1287.28   2
   4   1   9 13394.7 1274.93   4
  -4  -1 -10 12622.5 663.083  17
   4   1  10 10715.9 1201.61   4
  -4  -1 -10 12813.5 600.940  16
  -4  -1 -11 3037.27 323.301  16
  -4  -1 -11 2781.43 355.146  17
   4   1  11 2978.47 697.183   4
  -4  -1 -12 3886.24 418.500  17
  -4  -1 -12 3621.69 360.168  16
  -4  -1 -13 6948.41 539.888  17
  -4  -1 -14 151.514 172.114  17
  -4  -1 -15 2607.13 330.573  17
  -4  -1 -16 627.158 199.446  17
  -4  -1 -17 4710.07 338.833  17
  -4  -1 -18 363.984 108.467  17
  -4  -2  15 4065.95 290.643  10
  -4  -2  14 6076.40 349.992   9
  -4  -2  14 7366.09 444.541  10
  -4  -2  14 6675.74 382.809  12
  -4  -2  13 3695.07 314.442   9
  -4  -2  13 3700.39 352.200  10
  -4  -2  13 3403.26 306.128  12
  -4  -2  12 4007.48 349.208   9
  -4  -2  12 3644.38 372.432  10
  -4  -2  12 3186.66 325.147  12
  -4  -2  11 194.607 130.549   9
  -4  -2  11 135.845 132.366  12
  -4  -2  11 238.585 153.687  10
  -4  -2  10 1423.87 255.776  10
  -4  -2  10 1572.77 229.881   9
  -4  -2  10 1325.69 233.546  12
  -4  -2   9 3865.21 378.629  10
  -4  -2   9 5250.77 414.417  12
  -4  -2   9 4378.12 795.693   6
  -4  -2   8 23947.5 1655.74   4
  -4  -2   8 21715.5 800.117  15
  -4  -2   8 22749.4 819.926  12
  -4  -2   8 24908.6 1796.48   6
  -4  -2   7 6088.85 807.020   4
  -4  -2   7 6089.42 867.070   6
  -4  -2   6 3451.05 565.898   4
  -4  -2   6 3599.12 671.714   6
  -4  -2   5 1116.82 271.974   5
  -4  -2   5 968.368 296.905   4
  -4  -2   5 592.645 330.491   6
  -4  -2   4 46083.4 1707.39   5
  -4  -2   4 42960.0 1605.92   4
  -4  -2   4 45326.8 2002.81   6
  -4  -2   3 47177.9 1756.60   5
  -4  -2   3 45609.5 1876.54   6
  -4  -2   2 41559.8 1672.38   5
  -4  -2   2 42944.8 1301.78   2
  -4  -2   2 37989.9 1618.27   6
  -4  -2   1 24985.9 1094.86   2
  -4  -2   1 23659.5 1187.26   6
  -4  -2   1 24434.3 1296.16   5
  -4  -2   0 13517.4 1010.71   5
  -4  -2   0 12926.5 859.355   2
  -4  -2   0 12925.9 820.153   6
  -4  -2  -1 161360. 3361.19   5
  -4  -2  -1 162699. 3142.00   2
  -4  -2  -1 160259. 2542.65   6
  -4  -2  -2 21106.2 1197.72   2
  -4  -2  -2 21185.5 806.041   6
  -4  -2  -2 20491.5 1198.93   5
  -4  -2  -3 53359.4 1404.23   3
  -4  -2  -3 55411.9 2023.74   2
  -4  -2  -3 56549.1 1977.40   5
  -4  -2  -4 2255.86 415.192   5
  -4  -2  -4 2329.79 468.793   2
  -4  -2  -4 3346.52 433.308   3
  -4  -2  -5 161686. 3272.58   5
  -4  -2  -5 160714. 3721.95   2
  -4  -2  -6 9998.02 814.164   5
  -4  -2  -6 9352.18 932.816   2
  -4  -2  -7 9967.15 799.573   5
  -4  -2  -7 9443.69 995.236   2
  -4  -2  -8 8521.22 997.197   2
   4   2   8 9143.34 1021.98   4
  -4  -2  -9 23441.0 1685.63   2
   4   2   9 23235.4 1714.13   4
  -4  -2 -10 4387.55 771.550   2
  -4  -2 -10 3297.18 359.647  17
  -4  -2 -10 3374.21 311.775  16
   4   2  10 4170.41 795.472   4
  -4  -2 -11 541.996 202.438  17
  -4  -2 -11 769.080 183.176  16
  -4  -2 -12 9500.86 636.608  17
  -4  -2 -13 863.790 249.280  17
  -4  -2 -14 6585.55 520.157  17
  -4  -2 -15 247.990 178.378  17
  -4  -2 -16 3632.61 347.728  17
  -4  -2 -17 241.273 126.966  17
  -4  -2 -18 9975.05 382.095  17
  -4  -3  15 3906.06 263.081  12
  -4  -3  14 28.2805 94.2749  10
  -4  -3  14 83.6176 107.713  12
  -4  -3  13 11470.8 517.620   9
  -4  -3  13 12978.4 602.404  10
  -4  -3  13 12368.5 529.244  14
  -4  -3  13 12010.4 575.281  12
  -4  -3  12 490.234 152.655   9
  -4  -3  12 588.970 171.148  10
  -4  -3  12 559.346 154.972  14
  -4  -3  12 572.360 168.548  12
  -4  -3  11 8902.32 556.368  10
  -4  -3  11 8279.76 494.406   9
  -4  -3  11 9171.21 560.312  12
  -4  -3  10 9687.32 593.904  12
  -4  -3  10 9875.59 583.576  10
  -4  -3   9 30300.6 2017.93   4
  -4  -3   9 31564.7 1043.58  12
  -4  -3   8 4637.73 456.406  15
  -4  -3   8 2925.06 629.351   4
  -4  -3   8 2864.17 326.451  12
  -4  -3   8 2861.33 657.574   6
  -4  -3   7 2720.98 549.256   4
  -4  -3   7 2189.95 567.852   6
  -4  -3   6 1765.16 413.138   4
  -4  -3   6 1964.22 504.914   6
  -4  -3   5 2996.88 504.538   4
  -4  -3   5 2462.38 420.513   5
  -4  -3   5 2543.07 544.923   6
  -4  -3   4 8807.86 808.660   5
  -4  -3   4 8325.57 909.557   6
  -4  -3   3 377.033 230.371   5
  -4  -3   3 636.945 279.877   6
  -4  -3   2 36.3069 120.272   2
  -4  -3   2 70.8420 221.795   5
  -4  -3   2 217.802 206.513   6
  -4  -3   1 400.335 228.500   2
  -4  -3   1 514.830 273.254   5
  -4  -3   1 317.075 198.089   6
  -4  -3   0 4802.65 644.679   5
  -4  -3   0 4852.98 579.497   2
  -4  -3   0 5325.53 554.057   6
  -4  -3  -1 41743.4 1774.58   5
  -4  -3  -1 42372.9 1724.56   2
  -4  -3  -1 42383.3 1374.38   6
  -4  -3  -2 17546.2 1186.28   5
  -4  -3  -2 19347.6 1220.15   2
  -4  -3  -2 18156.7 780.986   6
  -4  -3  -3 43041.7 1812.78   5
  -4  -3  -3 45818.6 1919.43   2
  -4  -3  -4 63947.3 2183.00   5
  -4  -3  -4 64805.0 2368.60   2
  -4  -3  -5 23312.1 1327.27   5
  -4  -3  -5 23327.2 1474.63   2
  -4  -3  -6 136377. 3147.97   5
  -4  -3  -6 143638. 3738.06   2
  -4  -3  -7 935.032 345.731   2
  -4  -3  -7 58.9992 148.425   5
  -4  -3  -8 92737.6 3201.56   2
   4   3   9 6194.24 919.797   4
  -4  -3  -9 5682.36 861.708   2
  -4  -3 -10 10340.6 1171.93   2
  -4  -3 -10 11078.1 631.448  17
   4   3  10 9937.81 1241.09   4
  -4  -3 -11 14201.8 1405.78   2
  -4  -3 -11 14479.9 756.624  17
   4   3  11 12757.8 1426.05   4
  -4  -3 -12 75806.3 1726.70  17
  -4  -3 -13 3377.28 398.886  17
  -4  -3 -13 4033.52 376.320   8
  -4  -3 -14 772.817 262.808  17
  -4  -3 -15 5.31160 141.245  17
  -4  -3 -16 1451.37 239.976  17
  -4  -3 -17-71.9852 114.536  17
  -4  -3 -18 737.601 127.858  17
  -4  -4  15 460.407 115.128  12
  -4  -4  14 146.774 85.7034  14
  -4  -4  14 212.887 113.134  12
  -4  -4  13 5485.01 356.572   9
  -4  -4  13 5005.35 344.475  14
  -4  -4  13 5649.58 409.837  12
  -4  -4  12 6854.63 433.152   9
  -4  -4  12 6384.53 410.497  14
  -4  -4  12 6260.61 461.725  12
  -4  -4  11 192.349 124.477   9
  -4  -4  11 159.504 159.302  12
  -4  -4  10 54456.0 1390.41  12
  -4  -4   9 132.050 237.568   4
  -4  -4   9 1225.09 258.324  12
  -4  -4   9 785.163 441.226   6
  -4  -4   8 51203.4 2540.01   4
  -4  -4   8 53057.5 1331.11  12
  -4  -4   7 5718.08 447.336  15
  -4  -4   7 5900.34 842.349   4
  -4  -4   7 5247.61 419.062  12
  -4  -4   7 6214.86 928.119   6
  -4  -4   6 52632.4 2289.95   4
  -4  -4   6 54670.5 2599.78   6
  -4  -4   5 215.893 172.916   5
  -4  -4   5 443.618 267.321   4
  -4  -4   5 756.728 338.413   6
  -4  -4   4 3351.51 570.305   5
  -4  -4   4 3412.90 617.706   6
  -4  -4   3 1459.42 389.535   5
  -4  -4   2 8787.85 876.147   5
  -4  -4   2 8158.25 768.900   2
  -4  -4   1 2119.88 486.951   5
  -4  -4   1 2666.09 478.070   2
  -4  -4   0 19113.0 1302.52   5
  -4  -4   0 19359.1 1233.89   2
  -4  -4  -1 4137.26 632.961   5
  -4  -4  -1 4391.96 632.818   2
  -4  -4  -1 4331.04 495.612   6
  -4  -4  -2 19266.5 1305.93   5
  -4  -4  -2 20852.5 1353.16   2
  -4  -4  -2 19012.0 879.111   6
  -4  -4  -3 105462. 3047.85   5
  -4  -4  -3 111431. 3203.78   2
  -4  -4  -4 12368.3 1038.55   5
  -4  -4  -4 11175.2 1050.13   2
  -4  -4  -5 1625.72 458.962   2
  -4  -4  -5 1165.95 376.956   5
  -4  -4  -6 21054.4 1309.57   5
  -4  -4  -6 22275.5 1554.35   2
  -4  -4  -7 48108.2 1955.95   5
  -4  -4  -7 47900.4 2329.45   2
  -4  -4  -8 21304.9 1606.06   2
   4   4   9 3605.44 743.277   4
  -4  -4  -9 5571.35 456.483  17
  -4  -4  -9 4267.81 750.373   2
  -4  -4 -10 506.120 202.101  17
  -4  -4 -10-303.343 295.800   2
   4   4  10 731.484 438.952   4
  -4  -4 -11 39777.0 2339.59   2
  -4  -4 -11 42121.7 1283.88  17
   4   4  11 44381.6 2690.51   4
  -4  -4 -11 44161.5 1202.69   8
  -4  -4 -12 1890.76 269.483   8
  -4  -4 -12 1683.15 295.806  17
  -4  -4 -13 15136.1 787.033  17
  -4  -4 -14 244.751 190.079  17
  -4  -4 -15 4269.49 400.085  17
  -4  -4 -16 242.921 147.410  17
  -4  -4 -17 2523.56 249.325  17
  -4  -5  15-74.8706 80.6759  12
  -4  -5  14 570.167 116.931  14
  -4  -5  14 533.642 142.725  12
  -4  -5  13 14074.5 534.244   9
  -4  -5  13 14678.5 562.821  14
  -4  -5  13 14703.2 643.029  12
  -4  -5  12 1517.30 212.377   9
  -4  -5  12 1519.43 253.467  12
  -4  -5  11 65.6502 148.207  12
  -4  -5  10 2918.45 356.606  12
  -4  -5   9 9246.97 605.815  12
  -4  -5   8 33201.0 1058.88  15
  -4  -5   8 32179.7 2074.06   4
  -4  -5   8 37854.8 1161.60  12
  -4  -5   8 36822.2 2364.38   6
  -4  -5   7 2.13818 170.755   4
  -4  -5   7 708.225 203.460  12
  -4  -5   7 774.974 467.403   6
  -4  -5   6 632.319 349.656   6
  -4  -5   5 5754.74 703.452   5
  -4  -5   4 869.880 327.570   5
  -4  -5   3 130546. 3501.11   5
  -4  -5   2 1622.29 401.980   2
  -4  -5   2 2013.05 512.784   5
  -4  -5   1 42606.4 2067.10   5
  -4  -5   1 42282.5 1982.12   2
  -4  -5   0 7381.18 881.240   5
  -4  -5   0 7383.72 868.041   2
  -4  -5  -1 713.413 341.286   2
  -4  -5  -1 654.703 364.147   5
  -4  -5  -2 6031.57 807.150   5
  -4  -5  -2 5931.14 807.796   2
  -4  -5  -3 3961.15 675.466   5
  -4  -5  -3 3902.60 659.774   2
  -4  -5  -4 33430.9 1807.27   5
  -4  -5  -4 33806.5 1906.00   2
  -4  -5  -5 20267.4 1403.41   5
  -4  -5  -5 20766.5 1522.73   2
  -4  -5  -6 10807.9 1004.12   5
  -4  -5  -6 10112.1 1098.13   2
  -4  -5  -7 5607.52 735.529   5
  -4  -5  -7 6397.05 906.982   2
  -4  -5  -8 61835.0 2800.00   2
  -4  -5  -9 978.075 241.363  17
  -4  -5  -9 1171.81 439.330   2
  -4  -5  -9 928.349 219.209   8
  -4  -5 -10 44631.0 1280.70  17
   4   5  10 46491.2 2725.70   4
  -4  -5 -10 47059.1 1258.30   8
  -4  -5 -10 44462.7 2470.05   2
  -4  -5 -11 958.148 252.401  17
  -4  -5 -11 1040.72 220.088   8
  -4  -5 -12 23271.3 975.422  17
  -4  -5 -13 8093.75 577.736  17
  -4  -5 -14 2020.45 311.060  17
  -4  -5 -15 150.889 140.723  17
  -4  -5 -16 8098.20 474.303  17
  -4  -5 -17 332.839 127.710  17
  -4  -6  15 3389.66 230.624  12
  -4  -6  14-94.4383 77.5599  14
  -4  -6  14-38.2071 106.737  12
  -4  -6  13 1020.57 163.952  14
  -4  -6  13 1223.90 218.529  12
  -4  -6  12 5838.76 377.188   9
  -4  -6  12 6373.91 464.717  12
  -4  -6  11 416.476 189.278  12
  -4  -6  10 8587.81 590.130  12
  -4  -6   9 556.570 203.572  12
  -4  -6   8 3585.38 390.950  12
  -4  -6   8 3701.23 826.776   6
  -4  -6   7 4061.69 360.263  18
  -4  -6   7 5133.09 488.000  15
  -4  -6   7 5090.04 437.251  12
  -4  -6   7 4408.54 858.396   6
  -4  -6   6 43517.9 1080.88  18
  -4  -6   6 46065.5 1213.86  12
  -4  -6   5 2911.11 559.637   5
  -4  -6   4 4903.51 734.429   5
  -4  -6   3 3993.88 702.514   5
  -4  -6   3 3660.85 678.411   2
  -4  -6   2 82480.8 3051.91   5
  -4  -6   2 79847.3 2988.45   2
  -4  -6   1 791.136 444.723   2
  -4  -6   1 1751.12 547.369   5
  -4  -6   0 63993.2 2789.72   5
  -4  -6   0 66787.3 2760.60   2
  -4  -6  -1 27035.4 1814.58   5
  -4  -6  -1 29458.9 1877.29   2
  -4  -6  -2 74572.1 2979.46   5
  -4  -6  -2 78293.4 3009.59   2
  -4  -6  -3 5055.25 798.918   5
  -4  -6  -3 5456.88 853.764   2
  -4  -6  -4 59963.6 2616.18   5
  -4  -6  -4 61605.2 2713.91   2
  -4  -6  -5 60091.9 2588.72   5
  -4  -6  -5 62927.4 2783.35   2
  -4  -6  -6 504.460 354.230   5
  -4  -6  -6 320.979 286.665   2
  -4  -6  -7 1173.09 463.191   2
  -4  -6  -7 1273.86 390.715   5
  -4  -6  -8 9498.76 570.778  17
  -4  -6  -8 11368.7 605.335   8
  -4  -6  -8 12169.8 1297.47   2
  -4  -6  -9 2522.30 329.148  17
  -4  -6  -9 2659.88 644.972   2
  -4  -6  -9 2509.35 317.019   8
  -4  -6 -10 943.585 424.353   2
  -4  -6 -10 266.086 197.707  17
  -4  -6 -10 234.622 158.899   8
   4   6  10 176.201 332.073   4
  -4  -6 -11 222.882 173.403  17
  -4  -6 -12 1617.47 297.436  17
  -4  -6 -13 15756.4 785.773  17
  -4  -6 -14 412.990 181.149  17
  -4  -6 -15 26829.9 903.676  17
  -4  -6 -16 383.261 150.453  17
  -4  -6 -17 15983.3 529.055  17
  -4  -7  15 78.3084 71.2925  12
  -4  -7  14 1991.52 172.519  14
  -4  -7  14 2255.43 221.507  12
  -4  -7  13 71.8829 83.0574  14
  -4  -7  13 10.2609 115.451  12
  -4  -7  12 501.179 132.347   9
  -4  -7  12 608.780 183.134  12
  -4  -7  11 90.9616 160.194  12
  -4  -7  10 322.162 184.625  12
   4   7  -9 2029.15 279.281  16
  -4  -7   9 2214.21 360.610  12
  -4  -7   8 3410.34 406.667  12
  -4  -7   7 7198.01 491.049  18
  -4  -7   7 7002.23 544.830  15
  -4  -7   7 7014.03 528.642  12
  -4  -7   6 359.600 160.884  18
  -4  -7   6 755.474 290.605  15
  -4  -7   6 225.216 149.249  12
  -4  -7   5 1636.15 251.925  18
  -4  -7   5 1620.64 281.818  15
  -4  -7   5 2231.70 297.392  12
  -4  -7   4 14410.4 1321.32   5
  -4  -7   3 75800.0 3102.02   5
  -4  -7   3 74905.0 3092.66   2
  -4  -7   2 2533.20 599.733   2
  -4  -7   2 2329.53 622.102   5
  -4  -7   1 31261.5 2081.57   5
  -4  -7   1 33232.6 2108.42   2
  -4  -7   0 264.784 464.495   2
  -4  -7   0 93.0267 489.209   5
  -4  -7  -1 116861. 3994.65   5
  -4  -7  -1 125040. 4087.94   2
  -4  -7  -2 1527.82 572.393   5
  -4  -7  -2 1650.52 618.157   2
   4   7   2 290.123 267.158   1
  -4  -7  -3 66679.8 3033.52   5
  -4  -7  -3 71183.9 3090.89   2
  -4  -7  -4 705.402 469.299   2
  -4  -7  -4 763.938 407.420   5
  -4  -7  -5 30114.1 1995.31   5
  -4  -7  -5 34745.3 2183.42   2
  -4  -7  -6 1835.82 588.841   2
  -4  -7  -6 1158.43 416.442   5
  -4  -7  -7 11179.4 1150.45   5
  -4  -7  -7 12091.9 639.185  17
  -4  -7  -7 11856.1 627.486   8
  -4  -7  -7 11831.1 1307.89   2
  -4  -7  -8 1069.53 231.080  17
  -4  -7  -8 1423.01 243.664   8
  -4  -7  -9 1960.41 306.081  17
  -4  -7  -9 1424.04 254.720   8
  -4  -7 -10 850.760 235.481  17
  -4  -7 -10 734.852 204.001   8
  -4  -7 -11 200.765 172.821  17
  -4  -7 -12 2660.62 363.001  17
  -4  -7 -13 7741.51 552.253  17
  -4  -7 -14 1808.31 278.188  17
  -4  -7 -15 437.540 163.668  17
  -4  -7 -16 1341.92 206.370  17
  -4  -7 -17 1755.04 177.979  17
  -4  -8  14 259.706 101.422  12
  -4  -8  13 14813.8 494.426  14
  -4  -8  13 16426.2 607.256  12
  -4  -8  12 3320.46 338.200  12
  -4  -8  11 6641.14 499.350  12
   4   8 -10 6396.06 423.285  16
  -4  -8  10 6935.40 550.692  12
   4   8  -9 20708.2 802.608  16
  -4  -8   9 22303.3 985.444  12
   4   8  -8 50.9236 126.399  16
  -4  -8   8 83.7971 154.480  12
  -4  -8   7 22.7185 130.426  18
  -4  -8   7 87.9611 155.911  12
  -4  -8   6 1340.55 236.912  18
  -4  -8   6 1803.73 322.709  15
  -4  -8   6 843.576 223.763  12
  -4  -8   5 4032.27 387.763  18
  -4  -8   5 4241.54 405.721  15
  -4  -8   5 3828.63 391.306  12
  -4  -8   4 5888.59 934.481   5
  -4  -8   4 6642.81 454.736  18
  -4  -8   4 5539.78 431.192  15
  -4  -8   4 6530.39 470.263  12
  -4  -8   3 5511.65 915.770   2
  -4  -8   3 4780.16 868.946   5
  -4  -8   3 4433.42 410.705   8
  -4  -8   3 5408.52 419.796  12
  -4  -8   2 25254.6 1972.49   5
  -4  -8   2 27385.9 2057.52   2
  -4  -8   1 799.298 452.322   2
  -4  -8   1 823.490 478.838   5
  -4  -8   0 26566.4 2061.81   5
  -4  -8   0 28299.1 2089.99   2
  -4  -8  -1 8939.89 1218.07   5
   4   8   1 9606.55 979.316   1
  -4  -8  -1 9079.52 1209.55   2
  -4  -8  -2 51904.6 2885.93   5
   4   8   2 61470.0 2421.06   1
  -4  -8  -2 55075.8 2907.29   2
  -4  -8  -3 17855.9 1687.89   5
  -4  -8  -3 18141.4 1674.74   2
  -4  -8  -4 17875.2 1676.76   5
  -4  -8  -4 18442.0 1696.88   2
  -4  -8  -5 224.910 284.781   2
  -4  -8  -5 175.895 350.482   5
  -4  -8  -5 315.724 155.099   8
  -4  -8  -6 32836.5 2124.38   5
  -4  -8  -6 35567.1 1091.42   8
  -4  -8  -6 33394.4 1057.07  17
  -4  -8  -6 34589.2 2319.73   2
  -4  -8  -7 9156.81 1099.18   5
  -4  -8  -7 9776.13 612.083  17
  -4  -8  -7 10261.2 599.799   8
  -4  -8  -7 9943.46 1240.49   2
  -4  -8  -8 2327.37 648.213   2
  -4  -8  -8 2610.51 356.759  17
  -4  -8  -8 3271.10 359.222   8
  -4  -8  -9 6805.09 526.839  17
  -4  -8  -9 6787.86 501.554   8
  -4  -8 -10 5768.14 505.454  17
  -4  -8 -11 3873.42 421.405  17
  -4  -8 -12 1.96494 204.591  17
  -4  -8 -13 5947.48 473.355  17
  -4  -8 -14-101.911 179.730  17
  -4  -8 -15 820.566 187.191  17
  -4  -8 -16 103.092 114.576  17
  -4  -9  14 2673.05 194.033  12
  -4  -9  13 1125.99 137.055  14
  -4  -9  13 1382.64 188.313  12
  -4  -9  12 14.5379 121.344  12
  -4  -9  11 1219.49 230.107  12
   4   9 -10 3304.47 324.994  16
  -4  -9  10 3945.64 405.439  12
   4   9  -9 435.314 178.539  16
  -4  -9   9 343.713 203.989  12
   4   9  -8 377.966 174.610  16
  -4  -9   8 694.435 238.051  12
  -4  -9   7 17916.7 797.088  18
  -4  -9   7 17486.4 852.875  12
  -4  -9   6 26275.9 961.291  18
  -4  -9   6 24124.2 999.528  12
  -4  -9   5 211.495 146.929  18
  -4  -9   5 741.968 222.544  15
  -4  -9   5 341.313 181.300  12
  -4  -9   4 3235.06 341.575  18
  -4  -9   4 3779.47 788.729   5
  -4  -9   4 3589.43 379.237  12
  -4  -9   3 20918.7 804.201  17
  -4  -9   3 19320.1 1808.52   5
  -4  -9   3 21856.2 834.541  18
  -4  -9   3 21787.4 845.694  12
  -4  -9   2 19174.1 1801.71   5
  -4  -9   2 19538.9 763.339  17
  -4  -9   2 18447.2 834.994   8
  -4  -9   2 18704.0 1829.66   2
  -4  -9   2 18449.5 766.922  12
  -4  -9   1-283.932 339.561   2
  -4  -9   1 171.894 162.104   8
  -4  -9   1 559.144 427.128   5
  -4  -9   0 925.469 483.746   2
  -4  -9   0 974.193 487.185   5
  -4  -9   0 608.291 196.428   8
  -4  -9  -1 1003.37 496.366   5
  -4  -9  -1 744.369 603.796   2
  -4  -9  -1 822.684 214.421   8
   4   9   1 611.283 337.908   1
  -4  -9  -2 10467.8 1424.51   5
  -4  -9  -2 11970.7 668.682   8
   4   9   2 11816.8 1155.97   1
  -4  -9  -2 10583.4 1379.43   2
  -4  -9  -3 92934.2 4023.82   5
  -4  -9  -3 102830. 1777.90  17
  -4  -9  -3 98361.8 1855.82   8
  -4  -9  -3 98172.4 4072.10   2
  -4  -9  -4 771.401 428.465   2
  -4  -9  -4 884.200 521.906   5
  -4  -9  -4 719.306 208.521  17
  -4  -9  -4 989.535 246.439   8
  -4  -9  -5 8167.35 1196.39   5
  -4  -9  -5 8191.91 539.701  17
  -4  -9  -5 8944.39 581.014   8
  -4  -9  -5 7248.42 1138.04   2
  -4  -9  -6 10605.8 1301.12   5
  -4  -9  -6 11375.1 649.974   8
  -4  -9  -6 10857.9 641.838  17
  -4  -9  -6 10719.3 1362.77   2
  -4  -9  -7 44979.2 1270.61   8
  -4  -9  -7 44831.1 1281.63  17
  -4  -9  -7 41908.6 2630.99   2
  -4  -9  -8 7008.65 512.729   8
  -4  -9  -8 7126.91 547.216  17
  -4  -9  -9 12897.1 670.188   8
  -4  -9  -9 13863.8 761.417  17
  -4  -9 -10 1153.46 269.132  17
  -4  -9 -11 18409.0 846.562  17
  -4  -9 -12 1704.30 294.152  17
  -4  -9 -13 2594.04 325.106  17
  -4  -9 -14 1294.39 241.439  17
  -4  -9 -15 577.938 158.475  17
  -4  -9 -16 344.916 109.434  17
  -4 -10  13 4037.44 252.801  12
  -4 -10  12 467.645 136.208  12
   4  10 -11 4952.04 325.260  16
  -4 -10  11 5104.66 388.013  12
   4  10 -10 135.374 128.761  16
  -4 -10  10 81.6738 146.985  12
   4  10  -9 10667.2 566.734  16
  -4 -10   9 11250.4 660.608  12
   4  10  -8 3193.19 358.133  16
  -4 -10   8 2829.93 381.118  12
  -4 -10   7 6986.26 523.133  18
   4  10  -7 7403.37 531.489  16
  -4 -10   7 6706.57 565.972  12
  -4 -10   6-63.3626 159.604  18
  -4 -10   6 44.3359 157.184  12
  -4 -10   5 28.9922 142.509  18
  -4 -10   5-18.5677 161.427  12
  -4 -10   4 3593.88 374.947  18
  -4 -10   4 3332.16 380.466  12
  -4 -10   3 33134.1 2442.17   5
  -4 -10   3 37489.3 1129.42  18
  -4 -10   3 35708.2 1088.40  17
  -4 -10   3 33618.2 1094.74  12
  -4 -10   2 9394.39 1371.26   5
  -4 -10   2 10966.6 607.384  17
  -4 -10   2 11196.6 616.771  12
  -4 -10   1 9697.12 1405.40   5
  -4 -10   1 9799.13 564.322  17
  -4 -10   1 9393.25 627.555   8
  -4 -10   1 7175.27 1208.79   2
  -4 -10   1 9485.56 560.563  12
  -4 -10   0 1725.89 653.606   2
  -4 -10   0 1538.84 629.894   5
  -4 -10   0 1960.15 277.486  17
  -4 -10   0 1855.11 317.208   8
  -4 -10  -1 24674.1 2212.05   5
  -4 -10  -1 25287.0 994.549   8
  -4 -10  -1 24435.8 2181.48   2
  -4 -10  -1 26036.7 918.470  17
  -4 -10  -2 6850.38 1214.98   5
  -4 -10  -2 7551.83 558.501   8
  -4 -10  -2 6963.26 1180.30   2
  -4 -10  -2 7785.17 515.493  17
  -4 -10  -3 24230.1 2186.31   5
  -4 -10  -3 25134.5 924.085  17
  -4 -10  -3 24318.8 977.675   8
  -4 -10  -3 24396.4 2156.53   2
  -4 -10  -4 422.219 180.296  17
  -4 -10  -4 61.5954 301.034   2
  -4 -10  -4 683.596 214.163   8
  -4 -10  -5 5040.49 995.420   2
  -4 -10  -5 5688.89 473.766  17
  -4 -10  -5 5627.48 506.835   8
  -4 -10  -5 5559.09 1068.52   5
  -4 -10  -6 4462.20 941.454   2
  -4 -10  -6 4574.51 891.088   5
  -4 -10  -6 5549.18 500.588   8
  -4 -10  -6 6713.38 521.305  17
  -4 -10  -7 8098.46 570.564   8
  -4 -10  -7 7978.03 577.696  17
  -4 -10  -8 4592.86 462.190  17
  -4 -10  -8 3872.96 412.499   8
  -4 -10  -9 49.5436 175.832  17
  -4 -10 -10 28366.9 1049.20  17
  -4 -10 -11 126.298 174.107  17
  -4 -10 -12 7131.08 508.887  17
  -4 -10 -13 768.799 209.734  17
  -4 -10 -14 12784.1 560.700  17
  -4 -10 -15 1118.44 174.532  17
  -4 -11  12 388.918 108.449  12
   4  11 -11 210.870 106.846  16
  -4 -11  11 96.5983 111.068  12
   4  11 -10 356.456 145.069  16
  -4 -11  10 386.122 169.928  12
   4  11  -9 1435.73 242.664  16
  -4 -11   9 1353.47 250.606  12
   4  11  -8 9905.47 572.919  16
  -4 -11   8 9270.93 604.458  12
  -4 -11   7 6887.43 513.368  18
   4  11  -7 7295.60 516.927  16
  -4 -11   7 6150.34 511.383  12
  -4 -11   6 17242.7 802.954  18
  -4 -11   6 15750.5 815.412  12
  -4 -11   5 260.519 208.207  18
  -4 -11   5 452.148 215.822  12
  -4 -11   4 30575.4 1044.23  18
  -4 -11   4 28324.1 1049.06  12
  -4 -11   3 1130.81 242.224  17
  -4 -11   3 1073.86 248.967  18
  -4 -11   3 1097.90 242.421  12
  -4 -11   2 3570.17 394.631  18
  -4 -11   2 3573.05 378.023  17
  -4 -11   2 3005.80 351.645  12
  -4 -11   1 695.458 191.463  17
  -4 -11   1 785.311 209.887  12
  -4 -11   0 29640.5 2505.88   5
  -4 -11   0 31027.2 1040.69  17
  -4 -11   0 30120.2 1136.82   8
  -4 -11   0 30815.3 2561.56   2
  -4 -11   0 28924.6 987.745  12
  -4 -11  -1 1789.98 311.311   8
  -4 -11  -1 1349.15 607.630   2
  -4 -11  -1 1206.94 230.659  17
  -4 -11  -1 1117.09 581.769   5
  -4 -11  -2 6862.58 1225.77   5
  -4 -11  -2 9468.18 649.589   8
  -4 -11  -2 9149.86 1360.73   2
  -4 -11  -2 9264.83 578.640  17
  -4 -11  -3 5346.51 1080.27   5
  -4 -11  -3 5325.01 464.608  17
  -4 -11  -3 5214.98 492.452   8
  -4 -11  -4 6957.06 560.825   8
  -4 -11  -4 7016.24 537.400  17
  -4 -11  -5 8983.27 618.172   8
  -4 -11  -5 8636.18 586.253  17
  -4 -11  -6 68.2694 165.291  17
  -4 -11  -6 304.755 198.966   8
  -4 -11  -7 3416.17 391.761  17
  -4 -11  -7 3258.18 378.824   8
  -4 -11  -8 13627.6 734.695  17
  -4 -11  -8 13131.6 680.621   8
  -4 -11  -9 5411.42 478.712  17
  -4 -11 -10 1634.05 291.423  17
  -4 -11 -11 1450.77 274.143  17
  -4 -11 -12 2933.41 327.832  17
  -4 -11 -13 21436.1 735.430  17
  -4 -11 -14 40.9721 110.852  17
  -4 -11 -15 4272.88 252.865  17
   4  12 -11 2870.44 203.044  16
  -4 -12  11 3054.91 227.388  12
   4  12 -10 51.7374 102.071  16
  -4 -12  10 3.36630 104.657  12
   4  12  -9 1691.81 232.411  16
  -4 -12   9 1287.39 215.383  12
   4  12  -8 2558.87 297.569  16
  -4 -12   8 2504.30 307.257  12
   4  12  -7 3800.64 370.013  16
  -4 -12   7 3301.64 362.242  12
  -4 -12   6 1291.37 273.767  18
   4  12  -6 1753.94 299.405  16
  -4 -12   6 1425.61 275.396  12
  -4 -12   5 3026.83 361.678  18
  -4 -12   5 2149.05 339.092  12
  -4 -12   4 6255.65 517.770  18
  -4 -12   4 5003.91 460.770  12
  -4 -12   3 22444.6 937.247  18
  -4 -12   3 23832.8 927.787  12
  -4 -12   2 2827.82 377.056  18
  -4 -12   2 2936.64 350.140  17
  -4 -12   2 2494.13 322.522  12
  -4 -12   1 26203.4 980.474  17
  -4 -12   1 26064.9 957.620  12
  -4 -12   0 4551.84 445.715  17
  -4 -12   0 4803.18 427.813  12
  -4 -12  -1 12900.3 772.464   8
  -4 -12  -1 12809.6 697.887  17
  -4 -12  -1 13706.7 669.858  12
  -4 -12  -2 124.389 178.084   8
  -4 -12  -2-36.6435 170.762  17
  -4 -12  -2 23.3085 121.144  12
  -4 -12  -3 15584.2 768.722  17
  -4 -12  -3 16310.5 834.816   8
  -4 -12  -4 3737.44 405.510  17
  -4 -12  -4 3868.65 428.161   8
  -4 -12  -5 2142.10 319.566  17
  -4 -12  -5 1763.20 308.012   8
  -4 -12  -6 2690.81 361.798  17
  -4 -12  -6 2221.51 325.933   8
  -4 -12  -7 795.502 249.494  17
  -4 -12  -7 929.881 234.592   8
  -4 -12  -8 6051.06 494.435  17
  -4 -12  -9 50.3604 171.211  17
  -4 -12 -10 1.12990 164.957  17
  -4 -12 -11 16.4175 151.920  17
  -4 -12 -12 16692.8 656.062  17
  -4 -12 -13 2385.30 241.857  17
  -4 -12 -14 2704.95 215.268  17
   4  13 -10-196.609 106.267  16
  -4 -13  10-125.775 82.6600  12
   4  13  -9 2295.60 234.822  16
  -4 -13   9 1823.75 206.035  12
   4  13  -8 2111.88 255.110  16
  -4 -13   8 1616.88 227.648  12
   4  13  -7 255.412 175.779  16
  -4 -13   7 148.885 127.141  12
  -4 -13   6 1840.60 290.848  18
   4  13  -6 2568.40 309.420  16
  -4 -13   6 1910.15 279.456  12
  -4 -13   5 2450.57 318.099  18
   4  13  -5 2865.15 342.683  16
  -4 -13   5 2437.95 323.197  12
  -4 -13   4 7344.32 523.505  18
   4  13  -4 7429.15 527.903  16
  -4 -13   4 6616.86 488.075  12
  -4 -13   3 33.9595 164.473  18
  -4 -13   3 145.176 162.313  12
  -4 -13   2 8682.94 570.800  17
  -4 -13   2 9441.11 606.335  18
  -4 -13   2 9551.41 570.617  12
  -4 -13   1 186.904 189.417  18
  -4 -13   1 145.769 151.020  17
  -4 -13   1 88.6893 134.971  12
  -4 -13   0 16988.3 789.610  17
  -4 -13   0 16305.6 728.514  12
  -4 -13  -1 190.328 218.637  17
  -4 -13  -2 15186.7 768.307  17
  -4 -13  -3 86.5295 174.614  17
  -4 -13  -4 14626.0 746.909  17
  -4 -13  -5 5107.69 460.487  17
  -4 -13  -5 5387.05 468.748   8
  -4 -13  -6 19387.6 846.571  17
  -4 -13  -6 16957.0 773.105   8
  -4 -13  -7 203.915 188.674  17
  -4 -13  -7 162.996 143.586   8
  -4 -13  -8 6295.13 486.524  17
  -4 -13  -9 1853.26 271.932  17
  -4 -13 -10 2380.55 297.927  17
  -4 -13 -11 251.539 142.382  17
  -4 -13 -12 224.993 115.749  17
  -4 -13 -13 13.7361 85.0773  17
   4  14  -9 120.973 93.2659  16
   4  14  -8 1386.65 182.936  16
  -4 -14   8 1180.61 150.710  12
   4  14  -7 747.590 173.381  16
  -4 -14   7 689.891 143.092  12
   4  14  -6 224.073 148.777  16
  -4 -14   6 80.8382 113.031  12
  -4 -14   5 16152.8 703.999  18
   4  14  -5 17306.8 694.292  16
  -4 -14   5 14870.3 622.252  12
  -4 -14   4 27.8036 148.066  18
   4  14  -4-9.93669 151.454  16
  -4 -14   4 46.7103 132.687  12
  -4 -14   3 5657.01 453.108  18
   4  14  -3 6102.36 464.411  16
  -4 -14   3 5838.51 424.812  12
  -4 -14   2 3584.65 383.458  18
  -4 -14   1 996.134 251.663  18
  -4 -14   1 883.056 245.015  17
  -4 -14   0 8641.65 573.004  18
  -4 -14   0 7831.97 546.198  17
  -4 -14  -1 1301.99 270.935  17
  -4 -14  -2 22492.5 895.042  17
  -4 -14  -3 17256.3 792.150  17
  -4 -14  -4 1548.52 282.504  17
  -4 -14  -5 11533.8 645.616  17
  -4 -14  -6 672.375 218.049  17
  -4 -14  -7 29274.1 957.855  17
  -4 -14  -8 3285.78 331.967  17
  -4 -14  -9 3797.70 338.635  17
  -4 -14 -11 107.401 98.7669  17
  -4 -14 -12 257.620 96.0803  17
   4  15  -8 381.544 102.316  16
   4  15  -7 86.7264 99.3656  16
   4  15  -6 4561.75 309.312  16
   4  15  -5 50.5928 119.215  16
  -4 -15   4 202.931 136.555  18
   4  15  -4 357.749 150.850  16
  -4 -15   3 164.272 145.594  18
   4  15  -3 85.9029 128.749  16
  -4 -15   2 2368.08 285.950  18
   4  15  -2 2257.41 266.070  16
  -4 -15   1-23.3468 139.154  18
   4  15  -1 44.2179 129.321  16
  -4 -15   0 2719.51 323.266  17
  -4 -15   0 3202.66 340.498  18
   4  15   0 3136.33 302.955  16
  -4 -15  -1 348.163 202.847  17
   4  15   1 164.998 120.420  16
  -4 -15  -2 12752.5 638.732  17
  -4 -15  -2 12739.0 642.566  18
  -4 -15  -3 554.533 208.225  17
  -4 -15  -4 5949.55 445.795  17
  -4 -15  -5 2763.85 312.960  17
  -4 -15  -6 2804.68 309.358  17
  -4 -15  -7 1988.32 258.188  17
  -4 -15  -8 9585.99 480.506  17
  -4 -15  -9 1998.99 220.453  17
  -4 -15 -10 3074.52 238.777  17
   4  16  -6 75.7857 73.5080  16
   4  16  -5 1831.19 182.132  16
   4  16  -4 7584.00 359.724  16
  -4 -16   3 807.749 163.398  18
   4  16  -3 890.200 154.183  16
  -4 -16   2-81.6359 114.728  18
   4  16  -2-74.3780 101.919  16
  -4 -16   1 1164.51 199.825  18
   4  16  -1 931.265 150.297  16
  -4 -16   0 84.7901 126.450  18
   4  16   0 143.931 102.049  16
  -4 -16  -1 70.1960 118.372  17
  -4 -16  -1 55.7777 130.189  18
  -4 -16  -2 337.914 141.220  17
  -4 -16  -2 295.817 146.183  18
  -4 -16  -3 237.999 135.328  18
  -4 -16  -3 110.407 119.478  17
  -4 -16  -4 1742.79 227.664  18
  -4 -16  -4 1781.45 239.350  17
  -4 -16  -5 3850.47 300.816  18
  -4 -16  -5 3902.66 317.228  17
  -4 -16  -6 277.473 128.524  17
  -4 -16  -7 4696.26 310.750  17
  -4 -16  -8 1839.65 189.366  17
  -4 -16  -9 4043.32 240.297  17
  -4 -17   2 713.393 131.251  18
  -4 -17   1 4751.32 287.192  18
   4  17  -1 4369.42 229.782   7
  -4 -17   0 755.312 144.563  18
  -4 -17  -1 1379.57 173.910  18
  -4 -17  -2 516.088 126.377  18
  -4 -17  -3 1134.51 166.190  17
  -4 -17  -3 1120.10 157.119  18
  -4 -17  -4 3424.60 236.883  18
  -4 -17  -4 3480.08 257.540  17
  -4 -17  -5 618.658 115.905  18
  -4 -17  -5 752.052 132.614  17
  -4 -17  -6 188.171 84.9740  17
  -5  15   1 3830.76 232.593   7
  -5  15   0 2301.40 193.744   7
  -5  15  -1 1214.68 149.581   7
  -5  15  -2 871.249 128.414   7
  -5  15  -3 5844.67 271.263   7
  -5  14   4 6243.19 294.848   7
  -5  14   3 303.954 105.714   7
  -5  14   2 3637.45 274.872   7
  -5  14   1-8.81678 107.682   7
  -5  14   0 3780.14 277.149  19
  -5  14   0 4726.87 333.032   7
  -5  14  -1 735.863 150.061  19
  -5  14  -1 788.279 166.920   7
  -5  14  -2 332.822 125.660  19
  -5  14  -2 459.486 141.315   7
  -5  14  -3 242.396 119.669  19
  -5  14  -3 103.193 100.694   7
  -5  14  -4 4698.41 319.575  19
  -5  14  -4 4915.55 300.591   7
  -5  14  -5 628.562 139.045  19
  -5  14  -5 590.685 122.194   7
  -5  14  -6 223.341 96.4102  19
  -5  13   7 69.3560 72.0294  13
  -5  13   6 40.4873 85.5234  13
  -5  13   5 10105.1 405.411   7
  -5  13   5 11648.1 510.576  13
  -5  13   4-44.6170 100.543   7
  -5  13   4 26.5791 81.1980  11
  -5  13   3 7167.95 407.222   7
  -5  13   2 312.417 143.801   7
  -5  13   1 6597.03 399.248  19
  -5  13   1 9141.19 499.221   7
  -5  13   0 1178.31 203.861  19
  -5  13   0 1649.69 244.169   7
  -5  13  -1 4155.71 352.850  19
  -5  13  -1 4056.92 357.435   7
  -5  13  -2 4990.32 394.312  19
  -5  13  -2 4984.80 384.306   7
  -5  13  -3 1399.02 233.022  19
  -5  13  -3 1271.45 216.455   7
  -5  13  -4 137.451 136.391  19
  -5  13  -4 178.306 124.565   7
  -5  13  -5 5220.85 382.572  19
  -5  13  -5 5030.46 334.459   7
  -5  13  -6 1658.99 221.410  19
  -5  13  -6 1333.55 170.091   7
  -5  13  -7 1069.33 170.981  19
  -5  13  -8 2634.59 210.792  19
  -5  12   9 478.782 104.316  13
  -5  12   8 800.084 142.472  13
  -5  12   7 642.212 148.074  13
  -5  12   6 3979.83 271.535   7
  -5  12   6 5003.95 362.533  13
  -5  12   5 4343.96 315.877   7
  -5  12   5 4857.15 376.664  13
  -5  12   4 3970.78 324.489   7
  -5  12   4 4630.51 385.461  13
  -5  12   4 3659.83 318.284  11
  -5  12   3 2441.67 276.626   7
  -5  12   3 2329.43 293.090  13
  -5  12   3 2220.10 268.959  11
  -5  12   2 6640.46 420.533  19
  -5  12   2 7759.74 500.610   7
  -5  12   2 7139.90 476.276  11
  -5  12   1 2803.64 308.914  19
  -5  12   1 3406.07 345.171   7
  -5  12   1 3277.36 343.660  11
  -5  12   0 5704.75 441.685  19
  -5  12   0 7063.76 491.616   7
  -5  12  -1 1415.89 264.269   7
  -5  12  -2 15227.3 713.555   7
  -5  12  -3 23.6664 144.697   7
  -5  12  -4 10894.0 575.055   7
  -5  12  -5 9752.92 515.380   7
  -5  12  -6 967.680 176.455   7
  -5  12  -7 417.589 152.610  19
  -5  12  -7 332.554 114.327   7
  -5  12  -8 2369.71 244.162  19
  -5  12  -8 2291.90 216.677  16
  -5  12  -9 2376.78 211.810  19
  -5  12  -9 2837.86 217.705  16
  -5  11  10 1313.53 154.907  13
  -5  11   9 3899.04 281.698  13
  -5  11   8 256.294 102.620  10
  -5  11   8 145.539 111.000  13
  -5  11   7 27.2401 80.0408  10
  -5  11   7 81.8414 118.254  13
  -5  11   6 1570.35 202.789  10
  -5  11   6 1264.05 186.128   7
  -5  11   6 1549.14 238.619  13
  -5  11   5 128.832 117.905  10
  -5  11   5 91.9729 144.995  13
  -5  11   5-36.8191 113.261   7
  -5  11   4 44.1291 120.911  11
  -5  11   4-5.31682 132.237  13
  -5  11   4 50.5736 116.504   7
  -5  11   4 25.2824 97.5415  10
  -5  11   3 13944.3 602.303  10
  -5  11   3 15098.2 696.981   7
  -5  11   3 16067.2 745.238  13
  -5  11   3 13878.1 669.091  11
  -5  11   2 8380.78 475.894  10
  -5  11   2 7680.35 493.027  19
  -5  11   2 8313.89 545.392   7
  -5  11   2 8809.04 566.274  13
  -5  11   2 7478.92 505.924  11
  -5  11   1 16320.5 764.443   7
  -5  11   1 17234.5 780.374  13
  -5  11   1 15150.7 716.016  19
  -5  11   1 16026.8 741.843  11
  -5  11   0 1988.63 301.527   7
  -5  11   0 1674.23 276.763  11
  -5  11  -1 11746.5 670.082   7
  -5  11  -2-77.7640 158.291   7
  -5  11  -3 6319.26 481.821   7
  -5  11  -4 1579.10 263.602   7
  -5  11  -5 15082.2 679.646   7
  -5  11  -6 972.274 197.033  16
  -5  11  -6 955.279 198.609   7
  -5  11  -7 18801.3 711.859  16
  -5  11  -7 20017.0 665.042   7
  -5  11  -8 3738.85 335.062  19
  -5  11  -8 3293.48 310.525  16
  -5  11  -9 3417.16 288.387  19
  -5  11  -9 4003.37 317.751  16
  -5  11 -10-140.423 122.615  16
  -5  11 -10 166.698 94.6741  19
  -5  11 -11 10957.9 409.475  16
  -5  10  11 4542.03 247.491  10
  -5  10  11 4430.11 255.546  13
  -5  10  10 406.360 114.420  10
  -5  10  10 531.636 126.228  13
  -5  10   9 7327.15 397.341  10
  -5  10   9 7378.81 428.609  13
  -5  10   8 182.422 116.965  10
  -5  10   8 205.569 129.172  13
  -5  10   7 13280.4 596.360  10
  -5  10   7 12337.5 615.183  13
  -5  10   6 958.878 190.893  10
  -5  10   6 1145.82 200.011   7
  -5  10   6 918.392 208.042  13
  -5  10   5 9760.67 543.155  10
  -5  10   5 11255.9 577.430   7
  -5  10   5 9714.10 582.375  13
  -5  10   4 815.195 193.775  11
  -5  10   4 796.810 186.672  10
  -5  10   4 559.364 193.300  13
  -5  10   4 527.610 180.682   7
  -5  10   3 893.541 212.897  11
  -5  10   3 756.188 212.872  13
  -5  10   3 845.154 216.253   7
  -5  10   3 801.211 179.750  10
  -5  10   2 2819.21 309.444  10
  -5  10   2 2548.00 312.776  19
  -5  10   2 2787.35 351.582   7
  -5  10   2 3337.81 364.495  13
  -5  10   2 3111.83 346.529  11
  -5  10   1 1730.92 259.800  10
  -5  10   1 1550.62 283.998  19
  -5  10   1 1783.75 290.525  13
  -5  10   1 1181.51 258.618   7
  -5  10   1 1600.63 277.449  11
  -5  10   0 3366.21 389.859   7
  -5  10   0 4135.47 402.234  13
  -5  10   0 3776.50 392.995  11
  -5  10  -1 2281.56 330.035   7
  -5  10  -1 3151.32 373.023  11
  -5  10  -2 35479.1 1153.19   7
  -5  10  -3 10320.8 634.293   7
  -5  10  -4 13836.8 715.628   7
  -5  10  -5 288.762 152.464  16
  -5  10  -5 262.975 155.481   7
  -5  10  -6 10027.8 581.551  16
  -5  10  -6 11862.9 596.747   7
  -5  10  -7 3003.11 339.609  16
  -5  10  -7 3075.39 301.886   7
  -5  10  -8 405.042 179.608  16
  -5  10  -9 2693.99 288.611  19
  -5  10  -9 2994.74 318.181  16
  -5  10 -10 2252.44 233.402  19
  -5  10 -10 2886.47 294.933  16
  -5  10 -11 679.323 162.250  16
  -5  10 -12 545.837 130.986  16
  -5   9  12 946.166 132.708  10
  -5   9  11 77.0854 88.6092  10
  -5   9  11 198.776 91.2841  13
  -5   9  10 12584.3 539.670  10
  -5   9  10 11654.7 520.157  13
  -5   9   9 5766.43 405.826  10
  -5   9   9 5067.01 375.750  13
  -5   9   8 2560.34 305.782  10
  -5   9   8 3116.92 329.901  13
  -5   9   7 704.809 179.388  10
  -5   9   7 887.274 205.905  13
  -5   9   7 693.603 160.990   7
  -5   9   6 15247.4 695.424  10
  -5   9   6 13593.6 629.854   7
  -5   9   6 13165.5 681.555  13
  -5   9   5 13613.9 662.517  10
  -5   9   5 12959.9 642.854   7
  -5   9   5 12599.8 668.677  13
  -5   9   4 884.055 201.158  10
  -5   9   4 644.236 196.560  13
  -5   9   4 553.818 195.112   7
  -5   9   3 9.30764 144.271  11
  -5   9   3 256.357 147.637  10
  -5   9   3 102.287 140.956  13
  -5   9   3 313.208 169.960   7
  -5   9   2 39980.3 1171.17  19
  -5   9   2 40276.8 1199.87   7
  -5   9   2 41087.5 1200.98  13
  -5   9   2 37820.9 1126.20  11
  -5   9   1 2772.18 314.334  10
  -5   9   1 2581.92 340.360   7
  -5   9   1 2496.29 321.766  13
  -5   9   1 2793.28 332.228  11
  -5   9   0 5773.09 444.315  10
  -5   9   0 6061.94 496.438   7
  -5   9   0 6234.10 482.472  13
  -5   9   0 5634.69 463.396  11
  -5   9  -1 6979.47 528.671   7
  -5   9  -1 7015.87 513.975  11
  -5   9  -2 9422.79 608.374   7
  -5   9  -3 8483.68 575.700   7
  -5   9  -4 425.869 200.111   7
  -5   9  -5 3663.72 384.813  16
  -5   9  -5 4137.91 388.622   7
  -5   9  -6 63.3932 138.692  16
  -5   9  -6 20.6273 113.079   7
  -5   9  -7 40508.0 1210.97  16
  -5   9  -8 5616.80 471.546  16
  -5   9  -9 3186.76 366.074  16
  -5   9  -9 2858.07 312.455  19
  -5   9 -10 2754.46 277.981  19
  -5   9 -10 3820.70 371.292  16
  -5   9 -11 15465.9 648.052  16
  -5   9 -12 1104.86 190.571  16
  -5   9 -13 1129.76 158.524  16
  -5   8  13 678.886 115.849  10
  -5   8  12 5563.68 335.809  10
  -5   8  11 20619.8 708.169  10
  -5   8  11 19349.4 638.361  13
  -5   8  10 186.390 138.834  10
  -5   8  10 103.528 103.870  13
  -5   8   9 9372.07 546.990  10
  -5   8   9 8476.60 502.671  13
  -5   8   8 1089.42 225.778  10
  -5   8   8 687.756 184.155  13
  -5   8   7 20841.0 753.863   7
  -5   8   7 20000.3 821.977  13
  -5   8   6 21194.2 860.473  10
  -5   8   6 18895.5 760.741   7
  -5   8   6 19039.5 808.671  13
  -5   8   5 6343.03 475.439  10
  -5   8   5 5748.73 439.930   7
  -5   8   5 5334.99 444.281  13
  -5   8   4 60.7825 129.419  10
  -5   8   4 33.0673 124.241  13
  -5   8   4 6.87399 138.754   7
  -5   8   3 9293.03 567.951  10
  -5   8   3 8225.13 520.010  19
  -5   8   3 9470.36 579.359   7
  -5   8   3 8163.03 536.782  13
  -5   8   2 5280.50 441.327  19
  -5   8   2 5449.49 434.685  10
  -5   8   2 5611.38 458.464   7
  -5   8   2 5036.97 426.460  13
  -5   8   1 3796.68 369.726  10
  -5   8   1 3842.22 800.266   3
  -5   8   1 3978.25 400.692   7
  -5   8   1 3928.87 376.963  13
  -5   8   1 3997.99 380.834  11
  -5   8   0 4613.19 390.391  10
  -5   8   0 4288.67 865.204   3
  -5   8   0 4172.08 404.415   7
  -5   8   0 4608.85 404.540  13
  -5   8   0 4066.62 388.801  11
  -5   8  -1 32574.9 2268.80   3
  -5   8  -1 35726.7 1046.58  10
  -5   8  -1 33788.9 1110.97   7
  -5   8  -1 33872.9 1073.83  13
  -5   8  -1 34850.8 1075.91  11
  -5   8  -2 7880.38 1153.15   3
  -5   8  -2 7287.11 533.902   7
  -5   8  -3 19795.6 844.491   7
  -5   8  -4 15241.8 724.104  16
  -5   8  -4 15471.5 733.848   7
  -5   8  -5 12669.2 681.302  16
  -5   8  -5 12884.6 657.960   7
  -5   8  -6 198.855 173.148  16
  -5   8  -6 149.763 126.571   7
  -5   8  -7 326.082 197.492  16
  -5   8  -8 2073.90 325.136  16
  -5   8  -9 238.996 140.838  19
  -5   8  -9 385.650 215.618  16
  -5   8 -10 14271.9 721.074  16
  -5   8 -11 665.063 210.506  16
  -5   8 -12 4310.42 359.029  16
  -5   8 -13 73.3832 114.033  16
  -5   8 -14 4957.75 279.118  16
  -5   7  14 359.720 91.2363  10
  -5   7  13 361.575 112.615  10
  -5   7  12 157.723 115.935  10
  -5   7  11 496.937 160.527  10
  -5   7  11 350.768 119.294  13
  -5   7  10 961.253 206.228  10
  -5   7  10 717.510 172.329  13
  -5   7   9 1823.74 276.829  10
  -5   7   9 1474.77 229.921  13
  -5   7   8 12297.4 677.481  10
  -5   7   8 11283.4 602.400  13
  -5   7   7 739.096 194.869  10
  -5   7   7 815.806 171.782   7
  -5   7   7 669.447 161.610  13
  -5   7   6 8062.84 549.872  10
  -5   7   6 7428.22 488.299   7
  -5   7   6 6831.27 490.513  13
  -5   7   5 71.8436 112.692  10
  -5   7   5 80.9577 120.872  13
  -5   7   5 30.9579 128.908   7
  -5   7   4 57247.1 1375.51  10
  -5   7   4 53969.8 2855.86   3
  -5   7   4 46044.3 1218.97   7
  -5   7   4 45352.9 1211.07  13
  -5   7   3 9010.58 550.567  10
  -5   7   3 9329.63 1188.88   3
  -5   7   3 7841.53 504.529  19
  -5   7   3 9173.73 564.057   7
  -5   7   3 8056.30 520.563  13
  -5   7   2 7292.02 487.084  10
  -5   7   2 6736.91 1004.83   3
  -5   7   2 6614.06 486.138  19
  -5   7   2 6974.88 494.637   7
  -5   7   2 6671.00 466.255  13
  -5   7   1 18430.3 801.989  19
  -5   7   1 19240.8 1677.76   3
  -5   7   1 18140.9 757.662  10
  -5   7   1 17604.2 778.053   7
  -5   7   1 17066.2 732.394  13
  -5   7   0 18350.9 1627.50   3
  -5   7   0 17374.9 728.172  10
  -5   7   0 17250.3 762.720   7
  -5   7   0 16572.0 707.795  13
  -5   7   0 16309.0 702.523  11
  -5   7  -1 138.307 122.710  11
  -5   7  -1-381.440 347.678   3
  -5   7  -1-36.1620 164.073  10
  -5   7  -1-48.1667 144.377  13
  -5   7  -1 181.880 137.226   7
  -5   7  -2 145.634 284.248   3
  -5   7  -2 281.600 144.318  10
  -5   7  -2 383.403 166.844   7
  -5   7  -3 129.070 268.804   3
  -5   7  -3 262.632 146.904   7
  -5   7  -4 23479.7 890.607  16
  -5   7  -4 24677.1 903.885   7
  -5   7  -4 24281.0 1961.65   3
  -5   7  -5 12865.0 705.571  16
  -5   7  -5 13884.1 668.647   7
  -5   7  -5 13915.2 1506.60   3
  -5   7  -6 9764.92 621.615  16
  -5   7  -6 9078.70 534.675   7
  -5   7  -7 750.408 241.180  16
  -5   7  -8 9242.25 617.900  16
  -5   7  -9 3858.04 371.219  19
  -5   7  -9 4148.35 433.348  16
  -5   7 -10 4424.23 457.850  16
  -5   7 -11 203.398 177.008  16
  -5   7 -12 646.055 213.280  16
  -5   7 -13 5522.43 384.674  16
  -5   7 -14 2648.03 240.945  16
  -5   6  14 2682.82 221.230  10
  -5   6  13-11.9065 101.223  10
  -5   6  12 4061.69 353.327  10
  -5   6  11 388.550 172.897  10
  -5   6  10 4004.50 391.471  10
  -5   6   9 3295.34 374.839  10
  -5   6   9 2835.74 313.134  13
  -5   6   8 1889.91 287.849  10
  -5   6   8 1379.34 235.716  13
  -5   6   7 289.766 156.275  10
  -5   6   7-5.11923 122.466   7
  -5   6   7 213.199 157.365  13
  -5   6   6 44.0977 124.030  10
  -5   6   6 125.164 120.291  13
  -5   6   6 52.1607 115.388   7
  -5   6   5 11527.3 639.540  10
  -5   6   5 12156.2 585.216   9
  -5   6   5 11920.2 1356.89   3
  -5   6   5 10655.6 573.980   7
  -5   6   5 10195.1 568.639  13
  -5   6   4 7087.18 494.224  10
  -5   6   4 7140.06 1022.26   3
  -5   6   4 7483.10 463.237   9
  -5   6   4 6933.73 475.567   7
  -5   6   4 6360.28 455.935  13
  -5   6   3 8437.61 534.979  10
  -5   6   3 8278.26 1084.48   3
  -5   6   3 7854.03 499.233  19
  -5   6   3 8460.30 516.755   7
  -5   6   3 7465.54 472.712  13
  -5   6   2 182.645 142.519  19
  -5   6   2 220.704 116.750  10
  -5   6   2 201.499 255.129   3
  -5   6   2 45.0271 114.204  13
  -5   6   2 194.384 127.762   7
  -5   6   1 36316.8 2169.59   3
  -5   6   1 36936.3 1040.40  10
  -5   6   1 32910.0 1027.94  19
  -5   6   1 31325.9 990.532   7
  -5   6   1 30455.1 914.474  13
  -5   6   0 2671.29 284.172  10
  -5   6   0 2412.99 593.783   3
  -5   6   0 3096.44 321.926   7
  -5   6   0 2710.95 284.026  13
  -5   6  -1 43748.0 1105.43  10
  -5   6  -1 41449.3 1134.39   7
  -5   6  -1 40437.0 1042.72  13
  -5   6  -1 45530.3 2449.84   3
  -5   6  -2 24478.0 856.094  10
  -5   6  -2 27393.6 918.936   7
  -5   6  -2 26821.5 1906.99   3
  -5   6  -3 37935.3 1081.12   7
  -5   6  -3 40654.4 2360.86   3
  -5   6  -4 11155.0 611.920  16
  -5   6  -4 10635.2 578.532   7
  -5   6  -4 10961.4 1276.28   3
  -5   6  -5 27618.7 996.483  16
  -5   6  -5 28175.1 907.306   7
  -5   6  -5 28926.2 2101.35   3
  -5   6  -6 31030.5 1075.77  16
  -5   6  -6 29439.9 2200.40   3
  -5   6  -7 268.810 199.585  16
  -5   6  -8 822.503 251.556  16
  -5   6  -9 16683.0 731.659  19
  -5   6  -9 18073.8 875.890  16
  -5   6 -10 998.925 263.837  16
  -5   6 -11 1419.92 291.567  16
  -5   6 -12 4718.89 413.593  16
  -5   6 -13 336.637 169.920  16
  -5   6 -14 2477.82 255.001  16
  -5   6 -15 249.826 97.1604  16
  -5   5  15 8674.46 331.388  10
  -5   5  14 4654.36 308.728  10
  -5   5  13 11209.2 536.580  10
  -5   5  12 738.484 201.205  10
  -5   5  11 1890.70 292.396  10
  -5   5  10 21740.9 912.908  10
  -5   5  10 26542.4 880.410   9
  -5   5   9 2746.70 345.490  10
  -5   5   9 4888.69 439.637   9
  -5   5   8 7413.92 552.222  10
  -5   5   8 7917.50 517.180   9
  -5   5   7 2716.75 365.720  10
  -5   5   7 3599.12 357.136   9
  -5   5   7 2803.19 314.116   7
  -5   5   6 10180.4 618.692  10
  -5   5   6 9614.30 532.077   9
  -5   5   6 10771.5 1283.09   3
  -5   5   6 11409.4 584.582   7
  -5   5   5 4714.44 416.075  10
  -5   5   5 4341.41 358.233   9
  -5   5   5 4900.98 855.939   3
  -5   5   5 4396.52 369.785   7
  -5   5   4 47618.8 1242.78  10
  -5   5   4 46859.3 2449.90   3
  -5   5   4 41806.6 1011.80   9
  -5   5   4 45563.0 1142.15   7
  -5   5   3 1028.05 452.086   3
  -5   5   3 777.720 186.104  10
  -5   5   3 757.490 189.585   7
  -5   5   2 1013.24 204.676  10
  -5   5   2 319.551 331.863   3
  -5   5   2 472.548 163.196   7
  -5   5   1-556.406 297.143   3
  -5   5   0 14858.5 1324.41   3
  -5   5  -1 1752.69 497.331   3
  -5   5  -2 79175.5 3051.14   3
  -5   5  -3 688.994 203.004  10
  -5   5  -3 253.179 232.427   3
  -5   5  -4 101601. 1740.85  16
  -5   5  -4 102401. 3660.91   3
  -5   5  -5 12422.2 660.773  16
  -5   5  -5 11205.4 1265.91   3
  -5   5  -6 64191.5 1484.10  16
  -5   5  -6 65022.0 3117.36   3
  -5   5  -7 542.547 404.184   3
  -5   5  -7 1244.21 258.669  16
  -5   5  -8 25146.7 912.102  19
  -5   5  -8 27952.5 1031.10  16
  -5   5  -9 10650.3 659.558  16
  -5   5 -10 5224.63 477.009  16
  -5   5 -11 1385.19 278.563  16
  -5   5 -12-3.65842 189.743  16
  -5   5 -13 192.431 161.412  16
  -5   5 -14 4607.63 348.654  16
  -5   5 -15 1643.13 189.786  16
  -5   4  15 2692.03 211.933  10
  -5   4  14 31893.6 823.622  10
  -5   4  13 1615.08 250.045  10
  -5   4  12 14355.9 697.468  10
  -5   4  11 6037.80 486.635  10
  -5   4  11 8333.47 511.615   9
  -5   4  10 57215.8 1472.64  10
  -5   4  10 54901.1 1263.39   9
  -5   4   9 2679.05 353.973  10
  -5   4   9 2535.64 327.418   9
  -5   4   8 21775.9 930.632  10
  -5   4   8 21580.1 811.681   9
  -5   4   7 5175.77 466.891  10
  -5   4   7 4839.13 394.407   9
  -5   4   7 4984.54 388.924   7
  -5   4   6 8207.07 555.258  10
  -5   4   6 6884.28 450.488   9
  -5   4   6 7186.70 466.300   7
  -5   4   5 204.444 145.106  10
  -5   4   5-84.5583 139.774   9
  -5   4   5 264.614 139.483   7
  -5   4   4 4570.29 389.005  10
  -5   4   4 4249.16 354.180   7
  -5   4   4 5169.58 793.004   3
  -5   4   3 383.594 208.008   3
  -5   4   2 1318.93 413.331   3
  -5   4   1 14695.7 1237.02   3
  -5   4   0 18142.8 1381.12   3
  -5   4  -1 21843.1 1498.36   3
  -5   4  -2 3546.31 631.805   3
  -5   4  -3 32868.3 1901.95   3
  -5   4  -4 1124.86 406.538   3
  -5   4  -5 9306.99 1114.37   3
  -5   4  -6 22112.7 869.714  16
  -5   4  -6 22042.3 1744.76   3
  -5   4  -7 6052.56 440.713  19
  -5   4  -7 6814.52 508.260  16
  -5   4  -7 6877.16 1040.35   3
  -5   4  -8 612.216 183.418  19
  -5   4  -8 525.467 357.720   3
  -5   4  -8 932.248 234.707  16
  -5   4  -9 12959.7 718.474  16
  -5   4 -10 12379.9 704.864  16
  -5   4 -11 21555.5 907.195  16
  -5   4 -12 522.278 199.155  16
  -5   4 -13 3350.18 329.594  17
  -5   4 -13 4607.46 397.692  16
  -5   4 -14-28.5523 96.5000  17
  -5   4 -14 26.6407 136.982  16
  -5   4 -15 363.775 120.908  17
  -5   4 -15 541.871 139.601  16
  -5   3  15 1764.45 184.603  10
  -5   3  14 4711.63 338.000  10
  -5   3  13 2155.52 271.463  10
  -5   3  12 1286.04 257.519  10
  -5   3  12 3833.49 363.764   9
  -5   3  11 11762.2 672.879  10
  -5   3  11 13815.2 644.958   9
  -5   3  10 3834.72 428.957  10
  -5   3  10 2828.21 337.645   9
  -5   3   9 51792.6 1420.46  10
  -5   3   9 53465.4 1276.02   9
  -5   3   8 671.130 209.487  10
  -5   3   8 650.282 183.787   9
  -5   3   7 3486.29 391.676  10
  -5   3   7 3582.48 335.317   9
  -5   3   7 3467.74 348.226   7
  -5   3   6 1949.25 281.033  10
  -5   3   6 1503.94 221.283   9
  -5   3   6 1827.37 250.524   7
  -5   3   5 40996.6 1147.80  10
  -5   3   5 38663.1 1011.94   7
  -5   3   4 15447.3 1282.32   3
  -5   3   3 5150.96 729.922   3
  -5   3   2 341.250 258.318   3
  -5   3   1 25004.2 1505.86   3
  -5   3   0 176.538 200.674   3
  -5   3  -1 192.933 192.512   3
  -5   3  -2 33042.2 1749.34   3
  -5   3  -3 7087.45 846.709   3
  -5   3  -4 25312.8 1658.16   3
  -5   3  -5 57.3030 209.299   3
  -5   3  -6 27370.8 925.317  16
  -5   3  -6 26732.9 1846.46   3
  -5   3  -7 634.373 175.821  19
  -5   3  -7 707.389 208.279  16
  -5   3  -8 51054.2 1325.94  16
  -5   3  -8 44026.6 2623.80   3
  -5   3  -9 1499.64 557.198   3
  -5   3  -9 2402.41 332.845  16
  -5   3 -10 1754.48 293.711  16
  -5   3 -11 470.425 209.298  16
  -5   3 -12 5570.61 460.599  16
  -5   3 -13 1453.93 247.363  17
  -5   3 -13 1844.81 272.618  16
  -5   3 -14 319.690 141.392  17
  -5   3 -14 444.190 159.737  16
  -5   3 -15 300.461 128.964  17
  -5   3 -15 74.9454 102.465  16
  -5   3 -16 1533.19 170.392  17
  -5   2  15 446.791 111.347  10
  -5   2  14 9216.72 470.910  10
  -5   2  13 89.6523 127.077  10
  -5   2  13 1991.58 278.598   9
  -5   2  12 6179.08 482.947  10
  -5   2  12 7362.86 461.867   9
  -5   2  11-6.96732 175.743   9
  -5   2  11 126.211 143.626  10
  -5   2  10 14375.5 751.044  10
  -5   2  10 16759.0 719.457   9
  -5   2   9 735.893 201.153   9
  -5   2   9 730.302 226.035  10
  -5   2   8 13839.4 724.889  10
  -5   2   8 16011.2 700.410   9
  -5   2   8 14760.9 647.731   7
  -5   2   8 16866.9 1540.11   6
  -5   2   7 4531.35 415.485  10
  -5   2   7 4386.86 371.251   9
  -5   2   7 4455.48 371.026   7
  -5   2   7 5347.03 868.668   6
  -5   2   6 20267.2 821.284  10
  -5   2   6 20021.3 743.772   9
  -5   2   6 18630.1 713.253   7
  -5   2   5 1413.41 465.512   6
  -5   2   4 67797.1 2526.03   3
  -5   2   4 63774.6 2572.37   6
  -5   2   3 10108.6 928.237   3
  -5   2   3 9389.86 941.484   5
  -5   2   3 9554.19 973.247   6
  -5   2   2 19426.5 1240.04   3
  -5   2   2 15541.7 1199.74   5
  -5   2   1 2650.38 471.976   3
  -5   2   1 2680.12 515.592   5
  -5   2   0 116.476 179.658   3
  -5   2   0 399.272 268.078   5
  -5   2  -1 49302.3 2110.99   5
  -5   2  -1 50529.3 1969.64   3
  -5   2  -2 3941.18 630.291   5
  -5   2  -2 3112.56 512.756   3
  -5   2  -3 6175.72 774.526   5
  -5   2  -3 5521.11 713.187   3
  -5   2  -4 8703.67 917.194   5
  -5   2  -4 8365.82 905.772   3
  -5   2  -5-54.8173 162.793   3
  -5   2  -5 204.015 224.151   5
  -5   2  -6 2067.90 517.833   3
  -5   2  -7 10848.1 592.733  16
  -5   2  -7 11018.3 1205.12   3
  -5   2  -8 442.618 335.386   3
  -5   2  -8 1817.61 283.350  16
  -5   2  -9 2274.06 599.900   3
  -5   2  -9 1463.53 257.138  16
  -5   2 -10 3756.45 392.241  16
  -5   2 -11 35670.3 1115.75  16
  -5   2 -12 2507.56 320.590  17
  -5   2 -12 3333.34 363.157  16
  -5   2 -13 1979.15 297.588  17
  -5   2 -13 2680.47 307.654  16
  -5   2 -14 344.922 150.179  17
  -5   2 -14 0.45044 123.326  16
  -5   2 -15 15766.0 629.454  17
  -5   2 -15 16156.0 571.640  16
  -5   2 -16 550.932 138.307  17
  -5   2 -16 651.970 137.211   8
  -5   1  15 749.529 135.696  10
  -5   1  14 2008.94 236.797  10
  -5   1  14 3188.89 266.266   9
  -5   1  13 864.814 213.975   9
  -5   1  13 451.874 165.726  10
  -5   1  12 9111.12 571.044  10
  -5   1  12 7688.99 473.514   9
  -5   1  11 293.084 157.491   9
  -5   1  11 248.555 180.758  10
  -5   1  10 20018.6 890.804  10
  -5   1  10 21580.1 812.656   9
  -5   1   9 16820.9 808.373  10
  -5   1   9 18827.0 770.394   9
  -5   1   8 10963.6 652.825  10
  -5   1   8 12403.1 618.262   9
  -5   1   8 12090.6 593.938  15
  -5   1   8 12976.1 1413.21   6
  -5   1   7 14959.6 721.548  10
  -5   1   7 17121.9 699.079   9
  -5   1   7 13282.4 627.182   7
  -5   1   7 15330.3 637.018  15
  -5   1   7 16416.1 1491.26   6
  -5   1   6 204.885 125.078   9
  -5   1   6 158.328 139.019   7
  -5   1   6 85.3117 180.119  10
  -5   1   6 206.068 213.667   6
  -5   1   5 84671.1 3101.90   6
  -5   1   4 9632.14 924.623   5
  -5   1   4 9672.25 1013.05   6
  -5   1   3 792.159 296.758   5
  -5   1   3 890.565 327.936   6
  -5   1   2 1366.47 386.042   5
  -5   1   2 2329.36 416.446   3
  -5   1   2 1284.32 387.129   6
  -5   1   1 181235. 3396.25   3
  -5   1   1 175178. 3898.89   5
  -5   1   1 181150. 3658.91   6
  -5   1   0 9467.79 778.178   3
  -5   1   0 11314.2 1006.71   5
  -5   1  -1 83410.0 2659.15   5
  -5   1  -1 87452.1 2381.93   3
  -5   1  -2 4041.56 622.878   5
  -5   1  -2 3754.64 526.370   3
  -5   1  -3 71272.5 2311.58   3
  -5   1  -3 74184.3 2545.57   5
  -5   1  -4 11686.3 1025.85   5
  -5   1  -4 10258.6 941.464   3
  -5   1  -5 18218.8 1277.92   5
  -5   1  -5 16357.5 1252.79   3
  -5   1  -6 324.398 275.790   3
  -5   1  -6-125.304 221.756   5
  -5   1  -7 216.770 260.798   3
  -5   1  -7 250.451 151.689  16
  -5   1  -8 29274.3 963.212  16
  -5   1  -8 23340.1 1821.59   3
  -5   1  -9 116.305 256.737   3
  -5   1  -9 222.163 137.559  16
  -5   1 -10 634.946 392.855   3
  -5   1 -10 122.598 142.984  16
  -5   1 -11 7314.00 529.077  17
  -5   1 -11 8769.35 569.613  16
  -5   1 -12 15013.9 743.673  17
  -5   1 -12 16373.1 758.399  16
  -5   1 -13 254.315 154.614  17
  -5   1 -13 110.157 119.911  16
  -5   1 -14 758.283 192.440  17
  -5   1 -14 433.872 159.721  16
  -5   1 -15 3416.14 323.356  17
  -5   1 -15 3032.11 265.205  16
  -5   1 -16 2632.60 254.629  17
  -5   1 -16 3053.88 244.272   8
  -5   0  15 18353.7 541.084  10
  -5   0  14 288.067 120.156  10
  -5   0  14 919.321 190.617   9
  -5   0  13 2598.83 291.980  10
  -5   0  13 2643.89 271.925   9
  -5   0  12 3624.36 368.595  10
  -5   0  12 4543.72 363.349   9
  -5   0  11 19047.3 842.481  10
  -5   0  11 19814.0 763.274   9
  -5   0  10 227.867 149.719  10
  -5   0  10 55.3165 126.338   9
  -5   0   9 5540.77 428.969   9
  -5   0   9 4685.21 433.605  10
  -5   0   8 3540.57 376.153  10
  -5   0   8 3789.05 354.915   9
  -5   0   8 4718.12 875.427   6
  -5   0   7 2959.33 304.412   9
  -5   0   7 2820.05 305.881   7
  -5   0   7 2696.82 308.258  15
  -5   0   7 3265.50 703.778   6
  -5   0   7 2940.99 326.219  10
  -5   0   6 22299.3 763.742   9
  -5   0   6 22821.1 1699.66   6
  -5   0   5 4984.37 690.266   5
  -5   0   5 4671.94 748.759   6
  -5   0   4 27692.7 1520.83   5
  -5   0   4 25108.7 1617.58   6
  -5   0   3 206.130 175.164   5
  -5   0   3 461.006 280.596   6
  -5   0   2 225860. 4338.11   5
  -5   0   2 222623. 4280.10   6
  -5   0   1 423.476 269.048   5
  -5   0   1 320.881 198.064   6
  -5   0   0 30486.4 1597.45   5
  -5   0   0 32218.0 1449.87   6
  -5   0  -1 92315.5 2519.03   2
  -5   0  -1 84930.2 2683.90   5
  -5   0  -2 74015.7 2366.02   2
  -5   0  -2 72766.2 2483.04   5
  -5   0  -2 70999.3 2002.32   3
  -5   0  -3 216.379 244.347   2
  -5   0  -3 554.219 204.591   3
  -5   0  -3 782.627 298.859   5
  -5   0  -4 4787.85 674.184   2
  -5   0  -4 4713.44 645.805   5
  -5   0  -4 5314.76 646.731   3
  -5   0  -5 591.736 303.616   3
  -5   0  -5 305.549 210.950   5
  -5   0  -5-45.7672 334.800   2
  -5   0  -6 95445.2 3276.66   2
  -5   0  -6 94285.6 2854.35   5
  -5   0  -7 10343.4 947.350   5
  -5   0  -7 8963.29 1050.70   3
  -5   0  -8 18765.7 759.124  16
  -5   0  -8 14173.6 1409.35   3
  -5   0  -9 1288.81 506.984   3
  -5   0  -9 900.737 208.093  16
  -5   0 -10 5501.74 980.101   3
  -5   0 -10 7751.24 526.755  16
  -5   0 -11 3361.06 369.060  17
  -5   0 -11 3484.05 371.715  16
  -5   0 -12 3037.27 357.723  17
  -5   0 -12 2987.69 329.416  16
  -5   0 -13 376.679 178.588  17
  -5   0 -13 391.072 156.452  16
  -5   0 -14 464.935 174.950  17
  -5   0 -14 434.764 148.588  16
  -5   0 -15 8332.92 495.643  17
  -5   0 -16 1262.62 196.815  17
  -5   0 -17 5523.56 288.099  17
  -5  -1  15 2094.17 182.160  10
  -5  -1  14 8908.80 437.395  10
  -5  -1  14 9120.72 403.584   9
  -5  -1  13 1581.09 225.750  10
  -5  -1  13 694.134 173.375   9
  -5  -1  12 3850.06 365.695  10
  -5  -1  12 4550.64 363.011   9
  -5  -1  11 178.217 125.223   9
  -5  -1  11 189.340 131.762  10
  -5  -1  10 2739.39 307.538   9
  -5  -1  10 2796.53 338.192  10
  -5  -1   9 10761.1 624.445  10
  -5  -1   9 12278.5 624.301   9
  -5  -1   8 9663.86 540.101   9
  -5  -1   8 11424.0 605.082  15
  -5  -1   8 11400.1 1330.23   6
  -5  -1   7 7103.56 486.173  10
  -5  -1   7 7094.79 481.075  15
  -5  -1   6 2600.72 284.528   7
  -5  -1   6 2531.63 276.009  15
  -5  -1   6 2896.91 658.033   6
  -5  -1   5 94.8804 206.321   5
  -5  -1   5 8.07528 374.632   6
  -5  -1   4 4445.45 619.630   5
  -5  -1   4 2950.01 587.878   6
  -5  -1   3 26903.5 1501.24   5
  -5  -1   3 25502.3 1546.26   6
  -5  -1   2 20388.4 1321.31   5
  -5  -1   2 16947.7 1206.50   6
  -5  -1   1 32795.8 1667.66   5
  -5  -1   1 32318.5 1546.11   6
  -5  -1   0 6781.22 636.555   2
  -5  -1   0 6802.38 774.144   5
  -5  -1   0 7924.07 721.478   6
  -5  -1  -1 221667. 3416.21   6
  -5  -1  -1 227565. 3943.62   2
  -5  -1  -2 2416.60 491.403   5
  -5  -1  -2 2844.40 487.136   2
  -5  -1  -3 95221.6 2854.24   5
  -5  -1  -3 91838.0 2789.41   2
  -5  -1  -4 1399.50 388.012   5
  -5  -1  -4 1482.95 431.007   2
  -5  -1  -5 191651. 4409.98   2
  -5  -1  -5 198712. 4128.55   5
  -5  -1  -6 519.255 295.930   5
  -5  -1  -6 947.333 399.634   2
  -5  -1  -7 4121.84 746.369   2
  -5  -1  -7 4169.56 614.355   5
  -5  -1  -7 3548.73 657.555   3
  -5  -1  -8 12370.5 1302.57   2
  -5  -1  -8 11362.4 590.694  16
  -5  -1  -8 9205.18 1097.60   3
  -5  -1  -9 28640.3 970.539  16
  -5  -1 -10 569.632 183.008  16
  -5  -1 -11 8316.02 564.807  17
  -5  -1 -11 9162.27 562.730  16
  -5  -1 -12 1635.06 300.560  17
  -5  -1 -12 1966.92 279.652  16
  -5  -1 -13 227.231 166.418  17
  -5  -1 -13 225.289 124.909  16
  -5  -1 -14 264.950 156.679  17
  -5  -1 -15 11699.2 589.605  17
  -5  -1 -15 10448.9 513.459   8
  -5  -1 -16 3391.96 291.724  17
  -5  -1 -17 2100.90 199.393  17
  -5  -2  14 1714.94 192.319  10
  -5  -2  14 1604.49 192.330   9
  -5  -2  13 6446.62 402.639  10
  -5  -2  13 6483.01 386.161   9
  -5  -2  12 5147.64 396.394  10
  -5  -2  12 5752.17 400.551   9
  -5  -2  11 15865.9 720.369  10
  -5  -2  11 17267.3 713.310   9
  -5  -2  10 1351.63 231.733   9
  -5  -2  10 1364.00 237.953  10
  -5  -2   9 26667.7 937.910  10
  -5  -2   9 28028.5 933.275  12
  -5  -2   8 6376.77 463.922  10
  -5  -2   8 9156.69 590.820  15
  -5  -2   8 6706.69 464.587  12
  -5  -2   8 8306.56 1144.00   6
  -5  -2   7 25953.8 907.900  15
  -5  -2   7 30168.6 2054.16   6
  -5  -2   6 467.453 152.410  15
  -5  -2   6 1444.98 503.730   6
  -5  -2   5 7541.77 808.918   5
  -5  -2   5 7051.88 943.320   6
  -5  -2   4 3636.05 565.669   5
  -5  -2   4 3276.43 614.268   6
  -5  -2   3 482.466 313.546   5
  -5  -2   3 857.430 322.207   6
  -5  -2   2 3608.07 580.012   6
  -5  -2   2 3691.77 608.178   5
  -5  -2   1 3409.99 584.223   5
  -5  -2   1 3889.42 550.406   6
  -5  -2   0 2502.71 517.774   5
  -5  -2   0 2930.41 453.101   6
  -5  -2   0 2872.29 443.492   2
  -5  -2  -1 255.204 215.198   5
  -5  -2  -1-73.6242 342.011   2
  -5  -2  -1 56.2254 237.766   6
  -5  -2  -2 27811.0 1586.32   5
  -5  -2  -2 26904.7 1485.25   2
  -5  -2  -3 1074.28 372.184   5
  -5  -2  -3 664.952 269.638   2
  -5  -2  -4 22823.7 1432.96   5
  -5  -2  -4 22110.6 1465.73   2
  -5  -2  -5 6312.71 775.630   5
  -5  -2  -5 5733.15 803.514   2
  -5  -2  -6 69302.8 2468.68   5
  -5  -2  -6 69721.9 2805.74   2
  -5  -2  -7 23327.5 1695.35   2
  -5  -2  -7 24368.4 1457.81   5
   5   2   7 23899.6 1594.05   4
  -5  -2  -8 54121.7 2683.10   2
  -5  -2  -8 52205.7 1224.81  16
  -5  -2  -9 2968.87 328.429  16
  -5  -2  -9 3822.19 768.394   2
  -5  -2 -10 33076.8 1079.86  17
  -5  -2 -10 34818.4 1041.08  16
  -5  -2 -11 18798.8 852.486  17
  -5  -2 -11 19408.1 797.362  16
  -5  -2 -12 17103.3 815.188  17
  -5  -2 -12 17288.6 718.293  16
  -5  -2 -13 254.958 171.799  17
  -5  -2 -14 20777.8 838.667  17
  -5  -2 -14 19369.3 768.851   8
  -5  -2 -15 4934.91 398.712  17
  -5  -2 -15 4539.21 340.342   8
  -5  -2 -16 1282.74 199.790  17
  -5  -2 -17 2195.57 200.472  17
  -5  -3  14 486.490 123.624   9
  -5  -3  13 892.004 162.698   9
  -5  -3  13 950.670 153.853  12
  -5  -3  12 7346.50 445.327   9
  -5  -3  12 6782.50 428.957  12
  -5  -3  11 1205.38 220.931   9
  -5  -3  11 876.340 199.461  12
  -5  -3  10 21179.3 808.928   9
  -5  -3  10 20157.7 806.388  12
  -5  -3   9 28119.8 968.998  15
  -5  -3   9 20579.9 840.682  12
  -5  -3   8 40264.4 1143.07  15
  -5  -3   8 41299.2 1177.86  12
  -5  -3   7 1539.95 278.656  15
  -5  -3   7 790.314 194.211  12
  -5  -3   7 774.939 392.068   6
  -5  -3   6 9537.36 556.473  15
  -5  -3   6 10528.8 551.771  12
  -5  -3   6 11139.1 1242.72   6
  -5  -3   5 24310.9 1472.59   5
  -5  -3   5 23603.2 1732.64   6
  -5  -3   4 111066. 3201.34   5
  -5  -3   4 108708. 3512.96   6
  -5  -3   3 22371.7 1456.11   5
  -5  -3   3 21376.7 1497.29   6
  -5  -3   2 14949.1 1212.74   5
  -5  -3   2 14408.2 1156.07   6
  -5  -3   1 1028.87 356.906   5
  -5  -3   1 1166.36 288.702   2
  -5  -3   1 814.594 286.685   6
  -5  -3   0 4837.18 707.492   5
  -5  -3   0 5376.13 652.688   2
  -5  -3   0 5277.80 615.215   6
  -5  -3  -1 48296.4 2185.26   5
  -5  -3  -1 47474.4 2002.43   2
  -5  -3  -1 50555.4 1677.90   6
  -5  -3  -2 8847.15 958.409   5
  -5  -3  -2 10161.7 994.244   2
  -5  -3  -3 2148.16 481.865   5
  -5  -3  -3 2869.50 543.775   2
  -5  -3  -4 9569.23 966.405   5
  -5  -3  -4 10490.6 1055.48   2
  -5  -3  -5 33177.5 1799.93   5
  -5  -3  -5 33122.5 1924.30   2
  -5  -3  -6 3001.11 551.637   5
  -5  -3  -6 4300.93 736.034   2
  -5  -3  -7 25979.2 1539.04   5
  -5  -3  -7 27319.6 1855.76   2
  -5  -3  -8 506.556 349.195   2
  -5  -3  -8 569.853 195.318  16
   5   3   8 1008.43 424.773   4
  -5  -3  -9 31740.5 2130.94   2
  -5  -3  -9 30143.1 1006.43  17
   5   3   9 32917.3 2166.41   4
  -5  -3  -9 33516.1 994.567  16
  -5  -3 -10 327.849 168.500  17
  -5  -3 -10 935.099 434.955   2
  -5  -3 -10 236.183 144.439  16
   5   3  10 335.511 380.417   4
  -5  -3 -11 52844.3 1405.60  17
  -5  -3 -11 53113.9 1249.92  16
  -5  -3 -12 1612.15 286.095  17
  -5  -3 -12 1582.74 235.457  16
  -5  -3 -12 1257.99 241.541   8
  -5  -3 -13 1394.33 267.797  17
  -5  -3 -13 1306.94 236.607   8
  -5  -3 -14 1432.85 255.408  17
  -5  -3 -14 1216.31 215.716   8
  -5  -3 -15 3630.26 338.193  17
  -5  -3 -16 7775.34 427.103  17
  -5  -3 -17 84.9836 86.8958  17
  -5  -4  14 381.560 104.486   9
  -5  -4  14 659.600 121.914  12
  -5  -4  13 4150.53 296.788   9
  -5  -4  13 3770.81 293.211  12
  -5  -4  12-13.1030 125.029   9
  -5  -4  12-19.2954 115.969  12
  -5  -4  11 876.486 195.179   9
  -5  -4  11 782.418 202.328  12
  -5  -4  10 4926.36 402.949   9
  -5  -4  10 5543.80 449.961  12
  -5  -4   9 16628.8 770.856  12
  -5  -4   8 7533.90 590.875  15
  -5  -4   8 3592.11 385.152  12
  -5  -4   7 42948.3 1203.24  15
  -5  -4   7 46014.3 1232.17  12
  -5  -4   6 7924.34 577.958  19
  -5  -4   6 6797.88 485.858  15
  -5  -4   6 7722.54 504.299  12
  -5  -4   6 8322.68 1126.11   6
  -5  -4   5 28321.1 936.407  15
  -5  -4   5 31112.8 2037.07   6
  -5  -4   4-106.031 196.718   5
  -5  -4   4 505.029 329.341   6
  -5  -4   3 29160.3 1724.71   5
  -5  -4   3 24796.3 1666.40   6
  -5  -4   2 31760.6 1821.51   5
  -5  -4   2 27304.5 1653.19   6
  -5  -4   1 2519.50 539.921   5
  -5  -4   1 2158.44 438.366   2
  -5  -4   1 2399.00 488.671   6
  -5  -4   0 1364.34 493.108   5
  -5  -4   0 384.507 286.322   2
  -5  -4   0 810.902 319.967   6
  -5  -4  -1 16417.4 1346.26   5
  -5  -4  -1 15692.5 1237.85   2
  -5  -4  -2 3618.08 675.610   5
  -5  -4  -2 3901.65 663.844   2
  -5  -4  -3 152.010 242.804   5
  -5  -4  -3 81.9256 205.825   2
  -5  -4  -4 9671.60 1026.16   5
  -5  -4  -4 10235.9 1097.82   2
  -5  -4  -5 15554.4 1300.52   5
  -5  -4  -5 16017.9 1415.18   2
  -5  -4  -6 17114.1 1324.55   5
  -5  -4  -6 16051.0 1431.44   2
  -5  -4  -7 18852.2 782.753   8
  -5  -4  -7 20201.0 1412.93   5
  -5  -4  -7 18910.3 1599.19   2
  -5  -4  -8 32526.3 992.272  16
  -5  -4  -8 34457.4 2187.00   2
  -5  -4  -9 843.773 233.127  17
  -5  -4  -9 302.052 306.579   2
  -5  -4  -9 901.805 205.080  16
  -5  -4  -9 624.846 210.920   8
   5   4   9 49.3871 203.449   4
  -5  -4 -10 11728.3 655.385  17
   5   4  10 11973.1 1412.98   4
  -5  -4 -10 12080.9 682.427   8
  -5  -4 -11 144.960 154.039  17
  -5  -4 -11 211.655 157.676   8
  -5  -4 -12 45799.0 1307.76  17
  -5  -4 -12 46043.8 1284.80   8
  -5  -4 -13 66.8381 144.228  17
  -5  -4 -13 123.785 139.075   8
  -5  -4 -14 21050.3 740.790   8
  -5  -4 -14 22121.0 848.776  17
  -5  -4 -15 1208.34 219.606  17
  -5  -4 -16 8765.90 445.445  17
  -5  -4 -17 51.2830 82.4134  17
  -5  -5  14 78.8444 77.9214  12
  -5  -5  13-79.3706 96.8764   9
  -5  -5  13-57.5907 104.007  12
  -5  -5  12 1051.62 180.228   9
  -5  -5  12 956.848 189.921  12
  -5  -5  11 115.961 117.662   9
  -5  -5  11 42.8669 151.277  12
  -5  -5  10 6797.06 504.443  12
  -5  -5   9 7197.35 532.227  12
  -5  -5   8 11744.8 676.071  15
  -5  -5   8 6838.06 526.052  12
  -5  -5   7 1717.96 274.794  12
  -5  -5   7 1389.41 550.060   6
  -5  -5   6 854.109 225.802  15
  -5  -5   6 1316.09 241.524  12
  -5  -5   6 1002.66 443.038   6
  -5  -5   5-246.415 198.785  15
  -5  -5   5 83.9052 131.792  12
  -5  -5   5 388.032 315.857   6
  -5  -5   4 44495.6 2191.11   5
  -5  -5   4 43110.9 1129.20  15
  -5  -5   4 44140.5 2395.53   6
  -5  -5   3 536.441 312.460   5
  -5  -5   3 1196.58 405.310   6
  -5  -5   2 30918.1 1893.00   5
  -5  -5   2 29734.0 1790.35   6
  -5  -5   1 33373.3 1981.74   5
  -5  -5   1 32746.7 1774.51   2
  -5  -5   1 28962.0 1658.09   6
  -5  -5   0 144370. 4115.36   5
  -5  -5   0 145442. 3856.12   2
  -5  -5   0 141373. 3462.68   6
  -5  -5  -1 728.008 345.490   2
  -5  -5  -1 210.709 243.750   5
  -5  -5  -2 1609.34 450.055   2
  -5  -5  -2 1720.63 481.073   5
  -5  -5  -3-277.272 288.276   5
  -5  -5  -3 68.5647 214.729   2
  -5  -5  -4 40597.5 2191.19   5
  -5  -5  -4 40965.2 2264.09   2
  -5  -5  -5 3201.09 649.395   5
  -5  -5  -5 2180.50 562.005   2
  -5  -5  -6 1006.48 372.955   5
  -5  -5  -6 792.399 402.243   2
  -5  -5  -7 478.846 346.220   2
  -5  -5  -7 1266.88 418.712   5
  -5  -5  -7 924.653 225.632   8
  -5  -5  -8 15063.5 707.500  17
  -5  -5  -8 15111.1 749.187   8
  -5  -5  -8 14466.9 1473.57   2
  -5  -5  -9 16227.7 759.944  17
   5   5   9 17961.4 1693.15   4
  -5  -5  -9 16317.3 771.618   8
  -5  -5  -9 16322.6 1565.96   2
  -5  -5 -10 876.475 230.568  17
  -5  -5 -10 1372.62 269.841   8
  -5  -5 -11 5612.48 463.897   8
  -5  -5 -11 5564.68 467.864  17
  -5  -5 -12 1000.33 247.882  17
  -5  -5 -12 907.126 217.579   8
  -5  -5 -13 7564.71 530.060  17
  -5  -5 -13 7996.65 496.750   8
  -5  -5 -14 4636.49 406.429  17
  -5  -5 -15 1833.81 244.343  17
  -5  -5 -16 1217.50 178.815  17
  -5  -5 -17 6151.95 295.216  17
  -5  -6  14 1163.82 146.128  12
  -5  -6  13 174.389 84.3236   9
  -5  -6  13 320.256 119.714  12
  -5  -6  12 2381.52 240.304   9
  -5  -6  12 2463.75 271.587  12
  -5  -6  11 3005.03 294.607   9
  -5  -6  11 3372.36 343.190  12
  -5  -6  10 2020.28 311.590  12
  -5  -6   9 2282.83 342.962  12
  -5  -6   8 7986.25 602.946  15
  -5  -6   8 487.503 179.043  12
  -5  -6   7 6924.67 553.394  15
  -5  -6   7 4021.41 420.932  12
  -5  -6   6 6685.11 506.510  15
  -5  -6   6 7410.13 522.768  12
  -5  -6   6 7348.37 1112.77   6
  -5  -6   5 16241.5 742.356  15
  -5  -6   5 19698.6 802.355  12
  -5  -6   5 18852.3 1699.58   6
  -5  -6   4 6818.80 932.408   5
  -5  -6   4 8892.25 621.285  19
  -5  -6   4 6803.16 480.035  15
  -5  -6   4 8425.54 515.855  12
  -5  -6   4 6862.10 1001.20   6
  -5  -6   3 9864.08 1144.98   5
  -5  -6   3 10880.8 664.406  19
  -5  -6   3 10937.8 583.941  12
  -5  -6   3 9967.07 1142.48   6
  -5  -6   2 21808.5 1667.61   5
  -5  -6   2 21009.3 1566.99   6
  -5  -6   1 15897.6 1440.64   5
  -5  -6   1 14825.5 1314.52   2
  -5  -6   1 14732.4 1246.54   6
  -5  -6   0 14991.7 1428.67   5
  -5  -6   0 13779.5 1307.59   2
  -5  -6   0 14103.8 1145.34   6
  -5  -6  -1 15645.7 1447.93   5
  -5  -6  -1 16139.0 1436.24   2
  -5  -6  -2 1504.36 489.534   2
  -5  -6  -2 1300.16 451.290   5
  -5  -6  -3 34525.3 2119.85   5
  -5  -6  -3 33882.0 2133.42   2
  -5  -6  -4 3408.91 705.726   5
  -5  -6  -4 2405.86 616.615   2
  -5  -6  -5 92969.7 3399.41   5
  -5  -6  -5 94712.8 3644.38   2
  -5  -6  -6 3836.66 723.352   5
  -5  -6  -6 3775.65 827.193   2
  -5  -6  -6 5426.59 444.536   8
  -5  -6  -7 9043.63 1061.29   5
  -5  -6  -7 8543.03 542.419  17
  -5  -6  -7 8367.63 562.231   8
  -5  -6  -7 8515.50 1174.22   2
  -5  -6  -8 3040.75 340.517  17
  -5  -6  -8 2692.27 687.477   2
  -5  -6  -8 3345.11 364.732   8
  -5  -6  -9 272.232 325.590   2
  -5  -6  -9 565.301 211.236  17
  -5  -6  -9 811.350 237.724   8
  -5  -6 -10 20117.6 869.890  17
  -5  -6 -10 19560.8 848.438   8
  -5  -6 -11 12533.4 694.181  17
  -5  -6 -11 12140.3 660.263   8
  -5  -6 -12 3161.16 370.601  17
  -5  -6 -12 3606.15 360.301   8
  -5  -6 -13 313.727 176.394  17
  -5  -6 -14 4359.26 383.076  17
  -5  -6 -15 8888.80 483.220  17
  -5  -6 -16 8946.03 418.772  17
  -5  -7  14 228.740 84.1617  12
  -5  -7  13 8940.59 415.166  12
  -5  -7  12 3098.96 254.435   9
  -5  -7  12 3003.62 292.638  12
  -5  -7  11 240.388 127.998   9
  -5  -7  11 151.265 149.981  12
  -5  -7  10 479.252 189.967  12
  -5  -7   9 4354.30 432.690  12
  -5  -7   8 1001.54 251.196  12
  -5  -7   7 3529.65 451.607  15
  -5  -7   7 170.950 154.878  12
  -5  -7   6 1498.96 241.337  18
  -5  -7   6 1918.83 295.715  12
  -5  -7   6 1359.12 563.359   6
  -5  -7   5 24154.0 833.026  18
  -5  -7   5 20540.1 844.412  15
  -5  -7   5 24266.7 919.135  12
  -5  -7   5 24420.4 1999.29   6
  -5  -7   4 50136.6 2563.16   5
  -5  -7   4 56356.2 1258.43  18
  -5  -7   4 51663.8 1294.31  15
  -5  -7   4 57175.7 1363.41  12
  -5  -7   4 53079.9 2819.61   6
  -5  -7   3 20680.3 1670.29   5
  -5  -7   3 21844.5 773.732  18
  -5  -7   3 21234.8 829.955   8
  -5  -7   3 20224.1 809.795  15
  -5  -7   3 23030.0 849.207  12
  -5  -7   2 1611.68 531.515   5
  -5  -7   2 1497.38 249.697   8
  -5  -7   1 20523.0 1735.73   5
  -5  -7   1 21325.6 898.069  19
  -5  -7   1 20886.1 1677.97   2
  -5  -7   0 37658.6 2357.40   5
  -5  -7   0 38648.3 2312.42   2
  -5  -7  -1 50319.7 2735.16   5
  -5  -7  -1 53755.9 2767.57   2
  -5  -7  -2 19474.1 1719.08   5
  -5  -7  -2 21352.3 1766.76   2
  -5  -7  -3 1072.86 457.587   2
  -5  -7  -3 870.994 410.198   5
  -5  -7  -3 1000.65 235.354   8
  -5  -7  -4 43325.7 2508.35   5
  -5  -7  -4 49835.9 1288.78   8
  -5  -7  -4 47394.0 2675.13   2
  -5  -7  -5 9790.21 1189.72   5
  -5  -7  -5 9409.86 585.151   8
  -5  -7  -5 8843.60 1188.70   2
  -5  -7  -6 21043.7 1689.84   5
  -5  -7  -6 22261.6 843.842  17
  -5  -7  -6 22402.3 903.467   8
  -5  -7  -6 22619.4 1898.46   2
  -5  -7  -7 6937.36 1004.04   5
  -5  -7  -7 6575.31 484.924  17
  -5  -7  -7 6530.99 512.412   8
  -5  -7  -7 7440.30 1134.23   2
  -5  -7  -8 29393.0 1033.25  17
  -5  -7  -8 28222.5 1020.72   8
  -5  -7  -8 27435.1 2126.36   2
  -5  -7  -9 1161.67 250.045  17
  -5  -7  -9 1187.50 256.535   8
  -5  -7 -10 5343.20 467.458  17
  -5  -7 -10 5113.05 455.338   8
  -5  -7 -11 4668.28 438.850  17
  -5  -7 -11 5091.38 435.746   8
  -5  -7 -12 1524.10 279.264  17
  -5  -7 -12 1472.82 236.334   8
  -5  -7 -13 3554.94 361.327  17
  -5  -7 -14 1919.29 272.266  17
  -5  -7 -15 321.552 141.253  17
  -5  -7 -16 248.598 105.971  17
  -5  -8  13 453.469 117.077  12
  -5  -8  12 515.531 118.219   9
  -5  -8  12 483.183 150.100  12
  -5  -8  11 31.9739 98.1371   9
  -5  -8  11 26.0070 124.152  12
  -5  -8  10 29537.0 999.215  12
   5   8  -9-50.3285 120.482  16
  -5  -8   9 69.7036 157.614  12
   5   8  -8 738.299 193.085  16
  -5  -8   8 416.983 200.711  12
  -5  -8   7 470.909 173.213  18
  -5  -8   7 374.833 195.764  12
  -5  -8   6 8163.18 522.580  18
  -5  -8   6 8720.85 604.818  15
  -5  -8   6 9464.95 645.118  12
  -5  -8   5 418.658 153.773  18
  -5  -8   5 241.073 155.008  12
  -5  -8   4 470.062 179.003  18
  -5  -8   4 678.773 372.643   5
  -5  -8   4 385.878 173.855  15
  -5  -8   4 615.601 187.946  12
  -5  -8   3 5778.90 441.419  18
  -5  -8   3 4585.86 895.764   5
  -5  -8   3 5280.21 450.433   8
  -5  -8   3 4690.81 413.559  15
  -5  -8   3 5562.08 461.577  12
  -5  -8   2 5209.92 927.775   5
  -5  -8   2 6057.51 477.493   8
  -5  -8   2 5573.36 429.330  15
  -5  -8   2 6592.05 473.440  12
  -5  -8   1 6809.27 1081.76   5
  -5  -8   1 6887.91 512.574   8
  -5  -8   1 6801.81 1020.20   2
  -5  -8   0-8.27868 186.309   2
  -5  -8   0 165.555 323.683   5
  -5  -8   0 224.532 169.677   8
  -5  -8  -1 1721.69 544.326   2
  -5  -8  -1 649.190 395.559   5
  -5  -8  -1 1344.84 257.030   8
  -5  -8  -2 9670.00 1271.47   5
  -5  -8  -2 10882.8 631.006   8
  -5  -8  -2 9424.89 1248.88   2
  -5  -8  -3 26114.0 2072.53   5
  -5  -8  -3 27879.3 1014.88   8
  -5  -8  -3 28966.3 2191.72   2
  -5  -8  -4 1229.11 567.818   2
  -5  -8  -4 675.752 421.255   5
  -5  -8  -4 639.147 238.462   8
  -5  -8  -5 857.369 431.792   2
  -5  -8  -5 1769.84 624.871   5
  -5  -8  -5 1517.23 258.069  17
  -5  -8  -5 1489.35 277.937   8
  -5  -8  -6 3196.32 713.769   5
  -5  -8  -6 3189.13 781.790   2
  -5  -8  -6 4151.10 398.014  17
  -5  -8  -6 4123.71 422.924   8
  -5  -8  -7 80540.5 1659.37  17
  -5  -8  -7 81875.7 1741.99   8
  -5  -8  -7 76594.0 3611.31   2
  -5  -8  -8 507.196 207.316  17
  -5  -8  -8 494.749 207.867   8
  -5  -8  -9 21671.8 912.389  17
  -5  -8  -9 21843.8 891.078   8
  -5  -8 -10 1739.77 291.079  17
  -5  -8 -10 2156.96 299.342   8
  -5  -8 -11 33677.4 1107.08  17
  -5  -8 -11 32986.4 1018.41   8
  -5  -8 -12 120.547 152.581  17
  -5  -8 -13 7919.12 501.290  17
  -5  -8 -14 1744.75 240.877  17
  -5  -8 -15 2687.38 250.791  17
  -5  -8 -16 810.968 127.482  17
  -5  -9  13 4603.60 252.839  12
  -5  -9  12 1589.04 197.738  12
  -5  -9  11 1507.90 180.927   9
  -5  -9  11 2095.10 256.275  12
  -5  -9  10 320.222 166.649  12
   5   9  -9 3532.21 321.066  16
  -5  -9   9 3565.27 401.971  12
   5   9  -8 1419.06 237.121  16
  -5  -9   8 1090.29 268.257  12
  -5  -9   7 17930.7 771.229  18
  -5  -9   7 19185.3 881.694  12
  -5  -9   6 8244.35 549.490  15
  -5  -9   6 7812.49 589.682  12
  -5  -9   6 8123.10 537.653  18
  -5  -9   5 39212.2 1132.01  18
  -5  -9   5 37442.3 1187.12  12
  -5  -9   4 529.396 177.004  18
  -5  -9   4 902.815 271.381  15
  -5  -9   4 360.027 181.893  12
  -5  -9   3 8081.67 1167.44   5
  -5  -9   3 9791.29 570.830  18
  -5  -9   3 8266.51 531.106  15
  -5  -9   3 9616.62 592.439  12
  -5  -9   2 16733.2 1708.87   5
  -5  -9   2 18668.4 857.375   8
  -5  -9   2 18223.6 750.646  15
  -5  -9   2 18830.7 807.888  12
  -5  -9   1 2101.71 636.120   5
  -5  -9   1 4190.68 425.138   8
  -5  -9   1 3956.71 857.659   2
  -5  -9   0 15997.9 1708.75   5
  -5  -9   0 16322.9 797.814   8
  -5  -9   0 14564.8 1611.15   2
  -5  -9  -1 792.857 462.549   2
  -5  -9  -1 737.329 467.404   5
  -5  -9  -1 799.136 231.711   8
  -5  -9  -2 17461.5 1793.96   5
  -5  -9  -2 18501.2 862.577   8
  -5  -9  -2 18031.6 1799.05   2
  -5  -9  -3 5600.05 1032.96   2
  -5  -9  -3 5844.83 442.647  17
  -5  -9  -3 5795.56 496.602   8
  -5  -9  -4 841.087 441.083   2
  -5  -9  -4 669.195 470.519   5
  -5  -9  -4 292.983 159.683  17
  -5  -9  -4 455.817 205.062   8
  -5  -9  -5 3014.74 785.334   2
  -5  -9  -5 3560.93 824.461   5
  -5  -9  -5 3214.40 383.344  17
  -5  -9  -5 3915.84 428.810   8
  -5  -9  -6 64321.5 1567.57   8
  -5  -9  -6 63987.7 1483.86  17
  -5  -9  -7 2247.44 307.457  17
  -5  -9  -7 2314.21 334.913   8
  -5  -9  -8 8150.02 567.850  17
  -5  -9  -8 7823.09 560.168   8
  -5  -9  -9 8700.45 585.241  17
  -5  -9  -9 8923.16 578.791   8
  -5  -9 -10 12407.8 690.716  17
  -5  -9 -10 11126.3 614.747   8
  -5  -9 -11 341.948 189.238  17
  -5  -9 -11 259.497 147.584   8
  -5  -9 -12 5656.78 441.331  17
  -5  -9 -13 5404.31 406.712  17
  -5  -9 -14 12975.7 546.415  17
  -5  -9 -15 16.3349 88.1358  17
  -5 -10  12 34.8886 78.7269  12
  -5 -10  11 407.980 101.815   9
  -5 -10  11 338.519 131.011  12
   5  10 -10 8784.13 414.523  16
  -5 -10  10 8990.04 501.118  12
   5  10  -9 5.81649 123.132  16
  -5 -10   9 108.525 146.360  12
   5  10  -8 5504.31 411.652  16
  -5 -10   8 5439.41 469.883  12
   5  10  -7 172.681 164.433  16
  -5 -10   7 174.072 185.691  12
  -5 -10   6 1425.12 264.604  18
  -5 -10   6 1541.81 298.574  12
  -5 -10   5 12388.5 665.565  18
  -5 -10   5 12223.9 711.091  12
  -5 -10   4 24952.3 928.251  18
  -5 -10   4 24152.3 973.113  12
  -5 -10   3 6099.47 478.763  18
  -5 -10   3 6464.05 511.760  12
  -5 -10   2 2644.52 327.597  18
  -5 -10   2 2712.43 336.503  12
  -5 -10   1 963.578 257.850   8
  -5 -10   1 698.914 203.030  12
  -5 -10   0 19392.1 1964.41   5
  -5 -10   0 23096.2 972.152   8
  -5 -10   0 21963.7 2060.26   2
  -5 -10  -1 7000.63 1189.39   5
  -5 -10  -1 8706.99 537.050  17
  -5 -10  -1 8303.35 600.232   8
  -5 -10  -1 8509.83 1318.56   2
  -5 -10  -2 17275.8 1856.59   5
  -5 -10  -2 22087.9 847.885  17
  -5 -10  -2 20685.1 926.527   8
  -5 -10  -2 19577.0 1956.64   2
  -5 -10  -3 2402.75 355.675   8
  -5 -10  -3 1609.95 275.761  17
  -5 -10  -4 3704.09 381.934  17
  -5 -10  -4 3552.28 416.527   8
  -5 -10  -5 4405.72 412.063  17
  -5 -10  -5 4423.79 451.395   8
  -5 -10  -6 3644.82 396.309  17
  -5 -10  -6 3940.48 430.504   8
  -5 -10  -7 3112.22 366.358  17
  -5 -10  -7 3706.80 413.706   8
  -5 -10  -8 6971.51 516.388  17
  -5 -10  -8 7118.94 530.048   8
  -5 -10  -9 4298.60 425.323  17
  -5 -10  -9 4484.62 420.384   8
  -5 -10 -10 632.096 208.600  17
  -5 -10 -10 585.597 185.437   8
  -5 -10 -11 28360.8 950.650  17
  -5 -10 -12 743.559 191.119  17
  -5 -10 -13 8760.79 469.483  17
  -5 -10 -14 666.042 142.943  17
  -5 -10 -15 3218.54 214.285  17
  -5 -11  11 4008.34 269.309  12
   5  11 -10 1191.49 166.352  16
  -5 -11  10 992.775 180.809  12
   5  11  -9 656.996 163.551  16
  -5 -11   9 420.184 160.257  12
   5  11  -8 3110.63 314.129  16
  -5 -11   8 2969.46 336.914  12
   5  11  -7 13048.5 644.473  16
  -5 -11   7 12896.9 696.584  12
  -5 -11   6 688.521 219.429  18
  -5 -11   6 305.236 228.820  12
  -5 -11   5 5984.59 477.642  18
  -5 -11   5 6182.25 504.398  12
  -5 -11   4 10782.6 630.297  18
  -5 -11   4 10200.9 632.094  12
  -5 -11   3 45791.2 1274.46  18
  -5 -11   3 46911.0 1312.52  12
  -5 -11   2 8404.03 568.616  18
  -5 -11   2 7121.77 524.990  12
  -5 -11   1 13478.7 670.492  17
  -5 -11   1 11622.6 683.254  12
  -5 -11   0 8007.18 531.529  17
  -5 -11   0 7387.41 584.884   8
  -5 -11   0 7450.26 521.562  12
  -5 -11  -1 30413.3 1009.62  17
  -5 -11  -1 32008.4 1162.43   8
  -5 -11  -2-108.566 161.464  17
  -5 -11  -2 56.7565 179.931   8
  -5 -11  -3 4175.18 403.500  17
  -5 -11  -3 3918.92 445.940   8
  -5 -11  -4 3981.94 401.161  17
  -5 -11  -4 4427.58 459.584   8
  -5 -11  -5 523.793 193.273  17
  -5 -11  -5 577.465 222.027   8
  -5 -11  -6 5086.54 454.294  17
  -5 -11  -6 4826.43 459.056   8
  -5 -11  -7-32.6701 145.932  17
  -5 -11  -7 193.695 163.396   8
  -5 -11  -8-122.336 188.773  17
  -5 -11  -8 36.0139 140.241   8
  -5 -11  -9 489.027 173.076  17
  -5 -11  -9 517.581 186.364   8
  -5 -11 -10 81.1959 151.981  17
  -5 -11 -11 4313.00 375.577  17
  -5 -11 -12 3563.48 322.147  17
  -5 -11 -13 5688.58 349.013  17
  -5 -11 -14 432.553 112.164  17
  -5 -12  10 78.2876 80.3279  12
   5  12  -9 6159.86 343.591  16
  -5 -12   9 5905.06 363.970  12
   5  12  -8 2612.10 265.666  16
  -5 -12   8 2582.65 281.983  12
   5  12  -7 113.786 139.289  16
  -5 -12   7 249.986 168.352  12
  -5 -12   6 1627.09 264.892  18
   5  12  -6 1619.83 273.669  16
  -5 -12   6 1647.68 284.678  12
  -5 -12   5 7676.56 520.662  18
  -5 -12   5 7835.38 541.587  12
  -5 -12   4 4893.50 428.168  18
  -5 -12   4 4705.80 430.692  12
  -5 -12   3 875.800 223.341  18
  -5 -12   3 884.637 227.495  12
  -5 -12   2 6864.84 516.379  18
  -5 -12   2 6559.00 512.676  12
  -5 -12   1 436.707 192.124  18
  -5 -12   1 716.994 209.295  17
  -5 -12   1 337.088 199.756  12
  -5 -12   0 9354.72 570.612  17
  -5 -12   0 9927.46 590.871  12
  -5 -12  -1 4518.92 414.834  17
  -5 -12  -1 4861.38 487.425   8
  -5 -12  -1 5123.60 431.095  12
  -5 -12  -2 23725.9 900.470  17
  -5 -12  -2 24500.7 1007.53   8
  -5 -12  -2 22017.6 859.938  12
  -5 -12  -3 450.530 177.783  17
  -5 -12  -3 467.416 214.276   8
  -5 -12  -4 712.699 204.678  17
  -5 -12  -4 531.851 218.786   8
  -5 -12  -5 1719.74 306.798   8
  -5 -12  -5 1317.01 248.141  17
  -5 -12  -6 18718.9 815.064  17
  -5 -12  -6 18003.2 820.883   8
  -5 -12  -7 779.022 211.975  17
  -5 -12  -7 755.468 206.354   8
  -5 -12  -8-28.5232 169.166  17
  -5 -12  -8 363.047 178.457   8
  -5 -12  -9 227.781 147.808  17
  -5 -12  -9 464.565 158.024   8
  -5 -12 -10 11515.5 576.649  17
  -5 -12 -11 120.566 132.881  17
  -5 -12 -12 13.9752 108.273  17
  -5 -12 -13 83.0804 85.6158  17
   5  13  -9 840.823 126.969  16
  -5 -13   9 684.023 127.130  12
   5  13  -8 3151.99 256.959  16
  -5 -13   8 2879.22 255.619  12
   5  13  -7 3354.13 302.898  16
  -5 -13   7 2924.56 289.381  12
   5  13  -6 1660.32 243.440  16
  -5 -13   6 1363.84 222.698  12
  -5 -13   5 1271.70 231.307  18
   5  13  -5 1266.32 231.241  16
  -5 -13   5 1265.07 238.175  12
  -5 -13   4 773.988 210.861  18
  -5 -13   4 467.633 177.423  12
  -5 -13   3 10400.0 589.649  18
  -5 -13   3 9887.12 584.054  12
  -5 -13   2 4731.81 429.872  18
  -5 -13   2 4417.08 396.019  12
  -5 -13   1 317.454 191.258  18
  -5 -13   1 252.387 147.608  17
  -5 -13   1 377.801 163.930  12
  -5 -13   0 2303.70 346.949  18
  -5 -13   0 2489.37 318.858  17
  -5 -13   0 2345.64 306.146  12
  -5 -13  -1 18886.4 790.969  17
  -5 -13  -1 19404.5 777.463  12
  -5 -13  -2 5833.55 454.980  17
  -5 -13  -2 5162.69 422.910  12
  -5 -13  -3 5056.08 429.386  17
  -5 -13  -3 5104.54 475.910   8
  -5 -13  -3 4905.62 401.290  12
  -5 -13  -4 2037.80 290.412  17
  -5 -13  -4 1697.82 296.977   8
  -5 -13  -4 1699.57 252.904  12
  -5 -13  -5 11533.4 628.573  17
  -5 -13  -5 11628.6 659.712   8
  -5 -13  -6 7688.23 507.050  17
  -5 -13  -6 7483.32 511.656   8
  -5 -13  -7 3597.02 353.176  17
  -5 -13  -7 3367.34 354.128   8
  -5 -13  -8 332.790 157.323   8
  -5 -13  -8 105.392 134.424  17
  -5 -13  -9 14647.9 626.176  17
  -5 -13 -10 244.301 128.455  17
  -5 -13 -11-7.04453 113.738  17
  -5 -13 -12 142.314 87.6209  17
   5  14  -8 899.631 131.110  16
   5  14  -7 3227.81 252.587  16
  -5 -14   7 2671.65 217.939  12
   5  14  -6 1671.17 210.995  16
  -5 -14   6 1371.92 190.752  12
  -5 -14   5 3766.28 321.896  18
   5  14  -5 4575.27 345.027  16
  -5 -14   5 3936.14 316.291  12
  -5 -14   4 1741.40 254.158  18
   5  14  -4 1718.29 252.656  16
  -5 -14   4 1700.77 241.630  12
  -5 -14   3 2799.41 316.046  18
   5  14  -3 2686.73 298.812  16
  -5 -14   3 2222.44 279.760  12
  -5 -14   2 4468.85 405.047  18
  -5 -14   2 4674.44 379.356  12
  -5 -14   1 190.169 161.841  18
  -5 -14   1 165.887 130.636  12
  -5 -14   0 2037.90 289.969  18
  -5 -14   0 1718.67 253.876  17
  -5 -14   0 1522.20 237.981  12
  -5 -14  -1 181.720 173.823  18
  -5 -14  -1 212.639 149.284  17
  -5 -14  -1 3.24358 117.999  12
  -5 -14  -2 6956.56 470.141  17
  -5 -14  -2 6516.29 424.583  12
  -5 -14  -3 3684.30 356.023  17
  -5 -14  -4 9252.14 534.402  17
  -5 -14  -5 19.7701 139.579  17
  -5 -14  -6 18600.1 720.860  17
  -5 -14  -7 1519.87 233.666  17
  -5 -14  -8 20929.3 705.084  17
  -5 -14  -9 385.978 139.933  17
  -5 -14 -10 6116.17 338.918  17
  -5 -14 -11 324.734 96.6725  17
   5  15  -6-29.3452 89.2674  16
   5  15  -5 259.349 114.444  16
  -5 -15   4 11784.8 500.516  18
   5  15  -4 13512.8 510.442  16
  -5 -15   3 243.825 133.831  18
   5  15  -3 154.860 127.472  16
  -5 -15   2 1717.17 242.343  18
   5  15  -2 1884.26 235.149  16
  -5 -15   1 96.2722 128.174  18
   5  15  -1 107.032 122.434  16
  -5 -15   0 9917.88 523.258  18
   5  15   0 10024.9 482.929  16
  -5 -15  -1 8884.19 511.094  18
  -5 -15  -1 7957.72 456.530  17
  -5 -15  -2 11.6806 123.768  17
  -5 -15  -2 115.501 147.762  18
  -5 -15  -3 5039.90 371.035  17
  -5 -15  -4 862.369 188.507  17
  -5 -15  -5 8519.41 458.971  17
  -5 -15  -6 2478.78 258.711  17
  -5 -15  -7 411.413 140.923  17
  -5 -15  -8 2434.93 224.246  17
  -5 -15  -9 929.023 140.510  17
   5  16  -4 1582.91 157.301  16
  -5 -16   3 303.952 110.048  18
   5  16  -3 255.385 102.407  16
  -5 -16   2-36.7849 103.385  18
   5  16  -2-27.2403 88.4410  16
  -5 -16   1 8553.71 419.633  18
   5  16  -1 8377.77 362.928  16
  -5 -16   0 6817.73 382.072  18
   5  16   0 6639.47 324.477  16
  -5 -16  -1 128.133 124.858  18
   5  16   1 40.4290 72.9918  16
  -5 -16  -2 92.3170 115.196  18
  -5 -16  -3-19.9230 107.016  18
  -5 -16  -3 208.201 102.764  17
  -5 -16  -4 5054.46 335.371  18
  -5 -16  -4 5311.51 325.114  17
  -5 -16  -5 615.091 147.804  18
  -5 -16  -5 558.112 130.316  17
  -5 -16  -6 92.4987 92.9073  18
  -5 -16  -6-27.2554 86.6141  17
  -5 -16  -7 673.219 121.421  18
  -5 -16  -7 560.243 110.352  17
  -5 -17   0 4113.93 245.846  18
  -5 -17  -1 1115.21 142.387  18
  -5 -17  -2 1981.93 179.472  18
  -5 -17  -3 5482.58 274.138  18
  -6  14   1 3925.66 235.068   7
  -6  14   0 1238.57 147.471   7
  -6  14  -1 1343.96 153.182   7
  -6  14  -2 3663.30 224.489   7
  -6  13   4 3986.22 236.441   7
  -6  13   3 2207.86 200.730   7
  -6  13   2 3423.19 263.376   7
  -6  13   1 3162.13 269.199   7
  -6  13   0 8096.17 386.874  19
  -6  13   0 9989.78 462.862   7
  -6  13  -1 161.588 103.694  19
  -6  13  -1 348.252 128.716   7
  -6  13  -2 875.077 159.593  19
  -6  13  -2 935.394 165.156   7
  -6  13  -3 833.927 158.635  19
  -6  13  -3 753.950 143.470   7
  -6  13  -4 7544.00 390.361  19
  -6  13  -4 8773.92 375.729   7
  -6  13  -5 8876.32 335.607   7
  -6  13  -5 8904.07 396.958  19
  -6  13  -6 2555.63 205.994  19
  -6  12   5 563.486 125.309   7
  -6  12   4 13.2130 92.3028   7
  -6  12   3 743.757 156.746   7
  -6  12   2-42.9661 133.152   7
  -6  12   1 160.445 106.416  19
  -6  12   1 131.632 118.997   7
  -6  12   0 1755.52 232.316  19
  -6  12   0 1585.42 229.625   7
  -6  12  -1 3352.48 317.118  19
  -6  12  -1 4250.85 350.107   7
  -6  12  -2 2391.65 281.994  19
  -6  12  -2 1708.94 239.249   7
  -6  12  -3 12900.9 600.430  19
  -6  12  -3 12685.5 555.703   7
  -6  12  -4 280.895 156.914  19
  -6  12  -4 44.2557 107.832   7
  -6  12  -5 9025.07 475.092  19
  -6  12  -5 8731.76 408.101   7
  -6  12  -6 3807.00 309.500  19
  -6  12  -6 3699.88 236.533   7
  -6  12  -7 177.961 102.215  19
  -6  11   7 1357.51 159.456  10
  -6  11   7 1315.73 166.822  13
  -6  11   6 4336.07 287.580  10
  -6  11   6 4337.65 281.544   7
  -6  11   6 4213.63 299.854  13
  -6  11   5 1744.79 211.049  10
  -6  11   5 1767.97 211.443   7
  -6  11   5 1340.76 202.049  13
  -6  11   4 256.508 140.367  10
  -6  11   4 22.4301 109.465   7
  -6  11   3 2603.35 289.490   7
  -6  11   2 578.548 153.648  19
  -6  11   2 449.270 168.848   7
  -6  11   1 5009.35 390.435  19
  -6  11   1 6255.42 457.795   7
  -6  11   0 9890.39 559.572  19
  -6  11   0 11458.1 608.062   7
  -6  11  -1 3676.44 369.713  19
  -6  11  -1 3259.25 347.118   7
  -6  11  -2 5775.01 458.079  19
  -6  11  -2 5876.60 446.336   7
  -6  11  -3 1304.64 255.662  19
  -6  11  -3 940.008 215.208   7
  -6  11  -4 6700.26 482.294  19
  -6  11  -4 6784.37 435.788   7
  -6  11  -5-59.2374 145.788  19
  -6  11  -5-57.7057 119.112   7
  -6  11  -6 5711.93 413.487  19
  -6  11  -6 5935.09 348.038   7
  -6  11  -7 1293.77 205.789  19
  -6  11  -8 651.917 144.871  19
  -6  11  -8 853.688 144.888  16
  -6  11  -9 120.831 82.1626  19
  -6  10   9 105.836 84.7708  10
  -6  10   8 1686.82 191.788  10
  -6  10   7-17.6406 108.539  10
  -6  10   7 20.0415 95.4792  13
  -6  10   6 16787.8 638.705  10
  -6  10   6 16557.5 608.418   7
  -6  10   5 4900.24 370.878  10
  -6  10   5 4919.80 376.947  13
  -6  10   4 383.786 150.424  10
  -6  10   4 328.605 139.580  13
  -6  10   4 479.321 161.429   7
  -6  10   3 1151.59 215.757  10
  -6  10   3 1216.94 219.017  13
  -6  10   3 1227.60 229.633   7
  -6  10   2 9741.08 539.270  10
  -6  10   2 8270.35 507.215  19
  -6  10   2 8760.84 557.289   7
  -6  10   1 12123.2 659.746   7
  -6  10   1 10663.2 596.376  19
  -6  10   0 574.054 196.356  19
  -6  10   0 876.688 227.952   7
  -6  10  -1 101.875 148.262  19
  -6  10  -1 311.508 175.613   7
  -6  10  -2 8692.36 603.139  19
  -6  10  -2 9193.62 571.709   7
  -6  10  -3 7064.41 541.183  19
  -6  10  -3 6956.75 490.513   7
  -6  10  -4 7149.20 537.321  19
  -6  10  -4 7262.29 487.198   7
  -6  10  -5 9385.53 582.710  19
  -6  10  -5 8924.35 508.576   7
  -6  10  -6 880.026 235.314  19
  -6  10  -6 380.547 142.405   7
  -6  10  -7 12186.8 602.701  19
  -6  10  -7 11861.4 541.579  16
  -6  10  -8 307.598 139.661  16
  -6  10  -8 441.354 146.650  19
  -6  10  -9 2204.43 224.806  19
  -6  10  -9 2727.50 257.615  16
  -6  10 -10 1812.26 201.639  16
  -6  10 -11 1884.08 172.027  16
  -6   9  10-140.895 98.3901  10
  -6   9   9 2930.06 260.153  10
  -6   9   8-52.9554 134.931  10
  -6   9   7 13773.0 614.247  10
  -6   9   7 13760.9 548.481   7
  -6   9   6 48.8082 109.537  13
  -6   9   6 13.4049 99.8440   7
  -6   9   5 19960.7 785.832  10
  -6   9   5 18648.9 737.106   7
  -6   9   5 18301.1 731.874  13
  -6   9   4 422.357 165.456  10
  -6   9   4 459.355 180.800  13
  -6   9   4 534.945 187.445   7
  -6   9   3 33635.2 1034.52  10
  -6   9   3 30243.5 941.033  19
  -6   9   3 32123.4 1013.82  13
  -6   9   2 1068.22 220.286  19
  -6   9   2 1379.53 239.993  10
  -6   9   2 1631.07 276.983   7
  -6   9   2 1242.86 234.190  13
  -6   9   1 10049.3 591.698  10
  -6   9   1 9125.59 588.420  19
  -6   9   1 9585.10 617.150   7
  -6   9   0 2235.90 330.310   7
  -6   9   0 1996.44 312.657  19
  -6   9  -1 25458.7 1006.18  19
  -6   9  -1 25829.8 975.511   7
  -6   9  -2 311.907 218.464  19
  -6   9  -2 371.864 191.009   7
  -6   9  -3 3975.64 441.064  19
  -6   9  -3 3732.35 385.138   7
  -6   9  -4 8978.11 631.141  19
  -6   9  -4 9605.48 571.894   7
  -6   9  -5 2987.40 373.187  19
  -6   9  -5 2263.97 288.152   7
  -6   9  -6 2819.11 346.413  19
  -6   9  -6 2756.90 303.725  16
  -6   9  -6 2323.37 269.763   7
  -6   9  -7 6436.09 487.059  19
  -6   9  -7 5726.36 433.657  16
  -6   9  -8 420.392 178.292  19
  -6   9  -8 513.967 178.121  16
  -6   9  -9 3583.87 302.768  19
  -6   9  -9 3957.96 350.197  16
  -6   9 -10 15058.4 600.096  16
  -6   9 -11 685.690 152.965  16
  -6   9 -12 4768.70 274.276  16
  -6   8  11 1238.49 162.616  10
  -6   8  10 1732.48 214.619  10
  -6   8   9 371.107 143.801  10
  -6   8   8 7740.62 484.453  10
  -6   8   7 13.9203 141.676  10
  -6   8   7 63.8470 107.297   7
  -6   8   6 14380.0 695.447  10
  -6   8   6 13732.6 639.983   7
  -6   8   5 1392.30 278.353  10
  -6   8   5 2004.71 293.307   7
  -6   8   5 1480.86 249.220  13
  -6   8   4 39626.3 1170.48  10
  -6   8   4 37754.3 1132.39   7
  -6   8   3 158.370 171.251  10
  -6   8   3 236.380 177.539  19
  -6   8   3 278.601 160.582  13
  -6   8   3 513.240 211.598   7
  -6   8   2 6945.93 510.558  10
  -6   8   2 6600.24 491.275  19
  -6   8   2 7404.19 539.459   7
  -6   8   2 6818.73 482.756  13
  -6   8   1 1611.54 268.726  10
  -6   8   1 1924.59 305.713  19
  -6   8   1 2056.24 316.919   7
  -6   8   1 1783.14 270.477  13
  -6   8   0 43159.3 1198.93  10
  -6   8   0 41438.9 1282.26  19
  -6   8   0 42205.9 1262.84   7
  -6   8  -1 1498.69 312.573  19
  -6   8  -1 1752.26 300.771   7
  -6   8  -2 2333.32 350.712  19
  -6   8  -2 1828.72 293.684   7
  -6   8  -3 9123.04 642.923  19
  -6   8  -3 8422.74 562.278   7
  -6   8  -4 7530.97 571.044  19
  -6   8  -4 7888.58 526.766   7
  -6   8  -5 4418.53 443.268  19
  -6   8  -5 3681.20 363.830  16
  -6   8  -5 4810.13 399.644   7
  -6   8  -6 804.404 225.230  19
  -6   8  -6 697.535 206.113  16
  -6   8  -6 1038.24 206.608   7
  -6   8  -7 985.551 229.522  19
  -6   8  -7 614.569 206.446  16
  -6   8  -8 5412.88 437.993  19
  -6   8  -8 5604.86 452.622  16
  -6   8  -9 6622.70 476.882  16
  -6   8  -9 6356.87 426.582  19
  -6   8 -10 7633.03 483.030  16
  -6   8 -11 1968.46 252.645  16
  -6   8 -12 1403.80 196.206  16
  -6   8 -13 4901.91 274.641  16
  -6   7  12 417.811 116.079  10
  -6   7  11 1419.89 198.338  10
  -6   7  10 56.2481 116.341  10
  -6   7   9 2104.30 278.570  10
  -6   7   8 155.584 140.042  10
  -6   7   7 310.627 171.027  10
  -6   7   7 76.2258 120.688   7
  -6   7   6 12707.2 686.635  10
  -6   7   6 12670.1 626.424   7
  -6   7   5 30389.5 1059.44  10
  -6   7   5 28343.7 961.596   7
  -6   7   4 4793.51 439.060  10
  -6   7   4 4792.57 421.860   7
  -6   7   3 30514.0 1056.78  10
  -6   7   3 30241.1 998.983  19
  -6   7   3 28818.0 1015.86   7
  -6   7   2 3126.77 361.975  10
  -6   7   2 2387.99 308.992  19
  -6   7   2 3042.73 360.060   7
  -6   7   1 41191.2 1202.94  10
  -6   7   1 40052.9 1213.86  19
  -6   7   1 41090.7 1218.44   7
  -6   7   1 39138.8 1101.92  13
  -6   7   0 5936.85 478.769  10
  -6   7   0 5632.17 494.042  19
  -6   7   0 6061.42 492.322   7
  -6   7  -1 17909.1 786.263  10
  -6   7  -1 15530.4 805.516  19
  -6   7  -1 16202.2 774.077   7
  -6   7  -2 7829.08 582.461  19
  -6   7  -2 7350.52 532.556   7
  -6   7  -3 9287.39 641.198  19
  -6   7  -3 7905.36 534.295   7
  -6   7  -4 8954.89 625.503  19
  -6   7  -4 8551.27 538.897   7
  -6   7  -5 6180.19 528.852  19
  -6   7  -5 5852.59 469.796  16
  -6   7  -5 6478.30 462.607   7
  -6   7  -6 646.903 219.040  19
  -6   7  -6 659.151 217.407  16
  -6   7  -7 7916.54 557.192  19
  -6   7  -7 7663.15 549.221  16
  -6   7  -8 20.9537 128.855  19
  -6   7  -8 49.8213 170.511  16
  -6   7  -9 3109.24 316.123  19
  -6   7  -9 2919.05 355.964  16
  -6   7 -10 985.180 231.190  16
  -6   7 -11 1737.89 266.501  16
  -6   7 -12 1555.31 227.371  16
  -6   7 -13 706.535 153.079  16
  -6   6  13 3172.85 222.975  10
  -6   6  12 12.6870 102.545  10
  -6   6  11 10663.0 534.195  10
  -6   6  10 4653.66 387.617  10
  -6   6   9 1823.97 290.875  10
  -6   6   8 72.2803 154.596  10
  -6   6   8 265.480 147.075   7
  -6   6   7 173.066 154.676  10
  -6   6   7 228.415 135.793   7
  -6   6   6 6274.15 507.202  10
  -6   6   6 5373.08 425.521   7
  -6   6   5 8679.22 590.476  10
  -6   6   5 9482.15 567.566   7
  -6   6   4 703.479 206.579  10
  -6   6   4 644.718 196.350   7
  -6   6   3 520.981 195.869  10
  -6   6   3 588.821 198.696   7
  -6   6   3 589.563 183.342  19
  -6   6   2 76.0478 143.819  19
  -6   6   2 50.0491 163.944  10
  -6   6   2 354.852 196.505   7
  -6   6   1 2969.16 342.871  10
  -6   6   1 2896.19 349.533  19
  -6   6   1 4001.89 773.602   3
  -6   6   1 2986.33 347.544   7
  -6   6   0 25901.9 947.630  10
  -6   6   0 25743.7 1974.25   3
  -6   6   0 26789.7 1011.33  19
  -6   6   0 25855.6 951.157   7
  -6   6  -1 6432.27 478.231  10
  -6   6  -1 6631.54 536.738  19
  -6   6  -1 5903.84 999.207   3
  -6   6  -1 5883.84 479.387   7
  -6   6  -2 19372.0 1733.39   3
  -6   6  -2 18463.7 789.678  10
  -6   6  -2 18157.3 859.173  19
  -6   6  -2 17713.0 787.361   7
  -6   6  -3 9919.89 651.156  19
  -6   6  -3 9432.71 566.056   7
  -6   6  -3 9401.50 1253.52   3
  -6   6  -4 29938.1 1098.48  19
  -6   6  -4 27445.5 957.618  16
  -6   6  -4 27883.6 945.976   7
  -6   6  -5 18517.6 875.327  19
  -6   6  -5 18299.2 811.815  16
  -6   6  -5 18574.3 750.953   7
  -6   6  -6 18589.9 863.735  19
  -6   6  -6 18025.3 821.424  16
  -6   6  -7 3499.99 380.117  19
  -6   6  -7 3341.48 386.592  16
  -6   6  -8 9674.86 585.900  19
  -6   6  -8 9562.30 616.428  16
  -6   6  -9 93.0877 129.168  19
  -6   6  -9-17.6643 185.302  16
  -6   6 -10 10110.1 635.379  16
  -6   6 -11 530.219 206.932  16
  -6   6 -12 6610.00 448.599  16
  -6   6 -13 368.311 154.770  16
  -6   6 -14 3589.73 257.422  16
  -6   5  13 245.359 100.262  10
  -6   5  12 10004.7 492.737  10
  -6   5  11 4520.28 381.576  10
  -6   5  10 7863.58 535.015  10
  -6   5   9 2091.67 309.579  10
  -6   5   9 7723.21 510.985   9
  -6   5   8 7325.52 550.556  10
  -6   5   8 7822.49 475.303   7
  -6   5   7 20285.7 885.625  10
  -6   5   7 20904.6 797.936   9
  -6   5   7 18916.4 772.858   7
  -6   5   6 6986.04 537.013  10
  -6   5   6 8255.29 515.859   9
  -6   5   6 6697.38 488.856   7
  -6   5   5 1906.87 308.422  10
  -6   5   5 1404.35 248.624   7
  -6   5   4 3715.19 389.656  10
  -6   5   4 4398.98 373.602   9
  -6   5   4 3437.60 358.599   7
  -6   5   3 2099.52 300.470  10
  -6   5   3 2010.11 286.783  19
  -6   5   3 2917.27 314.747   9
  -6   5   3 1614.76 524.565   3
  -6   5   3 2144.98 296.592   7
  -6   5   2 4362.64 405.046  10
  -6   5   2 3797.94 381.660  19
  -6   5   2 3039.53 669.508   3
  -6   5   2 4462.07 401.028   7
  -6   5   1 2675.59 317.789  10
  -6   5   1 3614.91 377.701  19
  -6   5   1 3485.16 702.436   3
  -6   5   1 3616.94 364.652   7
  -6   5   0 1771.08 269.512  10
  -6   5   0 2504.07 336.029  19
  -6   5   0 2115.54 575.985   3
  -6   5   0 1782.18 270.170   7
  -6   5  -1 26479.4 1919.68   3
  -6   5  -1 26780.5 942.509  10
  -6   5  -1 25413.2 976.947  19
  -6   5  -1 27065.7 937.526   7
  -6   5  -2 11801.7 1305.83   3
  -6   5  -2 10529.7 599.248  10
  -6   5  -2 10839.5 651.759  19
  -6   5  -2 11552.0 612.615   7
  -6   5  -3 1259.56 258.075  19
  -6   5  -3 469.944 310.628   3
  -6   5  -3 950.534 207.004   7
  -6   5  -4 25743.9 939.110  16
  -6   5  -4 26857.4 898.489   7
  -6   5  -4 27348.9 1041.02  19
  -6   5  -4 29289.1 2138.56   3
  -6   5  -5 7805.57 562.928  19
  -6   5  -5 6635.99 503.800  16
  -6   5  -5 7661.29 476.866   7
  -6   5  -5 7532.44 1108.04   3
  -6   5  -6 364.474 176.853  19
  -6   5  -6 358.186 204.908  16
  -6   5  -7 21656.4 889.070  19
  -6   5  -7 20550.8 891.259  16
  -6   5  -8 90.8454 123.424  19
  -6   5  -8 52.1667 186.161  16
  -6   5  -9 12863.7 627.114  19
  -6   5  -9 13872.3 758.959  16
  -6   5 -10 3358.17 385.932  16
  -6   5 -11 1484.27 273.128  16
  -6   5 -12 13035.3 643.652  16
  -6   5 -13 5365.52 392.647  16
  -6   5 -14 2181.62 226.059  16
  -6   4  14 1361.02 144.471  10
  -6   4  13 2275.13 232.686  10
  -6   4  12 186.785 118.425  10
  -6   4  11 12584.4 636.895  10
  -6   4  10 4929.03 435.733  10
  -6   4  10 9775.71 546.845   9
  -6   4   9 23016.8 932.547  10
  -6   4   9 26138.6 877.332   9
  -6   4   8 493.572 215.067  10
  -6   4   8 518.374 193.851   7
  -6   4   7 16709.7 811.976  10
  -6   4   7 14847.7 684.916   9
  -6   4   7 15712.2 701.094   7
  -6   4   6 5169.89 466.492  10
  -6   4   6 4373.91 387.660   9
  -6   4   6 4683.42 407.653   7
  -6   4   5 15167.3 761.563  10
  -6   4   5 15198.9 708.756   7
  -6   4   4 13904.4 710.185  10
  -6   4   4 12462.9 622.129  19
  -6   4   4 13247.6 659.710   7
  -6   4   3 8944.70 567.614  10
  -6   4   3 8289.01 465.999   9
  -6   4   3 8561.37 537.174  19
  -6   4   3 10186.8 588.113   7
  -6   4   2 9339.67 560.804  10
  -6   4   2 8269.88 533.190  19
  -6   4   2 9368.82 560.018   7
  -6   4   1 10601.3 589.381  10
  -6   4   1 11107.3 1176.26   3
  -6   4   1 10890.5 619.982  19
  -6   4   1 11622.9 608.189   7
  -6   4   0 5445.44 825.901   3
  -6   4   0 4600.99 389.491  10
  -6   4   0 5102.69 432.630  19
  -6   4   0 5003.52 406.235   7
  -6   4  -1 1551.89 240.463  10
  -6   4  -1 2017.57 289.863  19
  -6   4  -1 1483.58 431.830   3
  -6   4  -1 1891.84 259.353   7
  -6   4  -2 13715.7 649.328  10
  -6   4  -2 13830.9 701.456  19
  -6   4  -2 13312.2 632.143   7
  -6   4  -2 15752.3 1427.41   3
  -6   4  -3 10545.2 623.581  19
  -6   4  -3 8405.89 520.656  16
  -6   4  -3 8136.73 493.839   7
  -6   4  -3 8968.20 1106.08   3
  -6   4  -4 8389.53 563.724  19
  -6   4  -4 8141.32 534.603  16
  -6   4  -4 7145.68 455.863   7
  -6   4  -4 9025.71 1134.15   3
  -6   4  -5 164.911 155.432  19
  -6   4  -5-61.3965 175.979  16
  -6   4  -6 20269.0 878.964  16
  -6   4  -6 18151.9 1682.41   3
  -6   4  -7 4082.04 395.996  19
  -6   4  -7 4100.52 429.249  16
  -6   4  -8 19432.8 791.936  19
  -6   4  -8 19899.4 886.136  16
  -6   4  -9 998.585 254.136  16
  -6   4 -10 25448.3 983.296  16
  -6   4 -11 12600.2 688.550  16
  -6   4 -12 16333.7 740.858  16
  -6   4 -13 408.113 167.571  16
  -6   4 -14 6188.54 373.270  16
  -6   4 -15 145.472 101.673  16
  -6   3  14 176.392 85.5221  10
  -6   3  13 698.252 149.579  10
  -6   3  12 1735.48 239.107  10
  -6   3  12 5713.50 390.176   9
  -6   3  11 760.053 193.586  10
  -6   3  11 3488.48 380.095   9
  -6   3  10 11661.5 654.632  10
  -6   3  10 13701.5 640.664   9
  -6   3   9 227.573 183.219  10
  -6   3   9 342.486 203.848   9
  -6   3   8 62871.7 1546.75  10
  -6   3   8 60463.2 1336.52   7
  -6   3   7 1896.42 299.923  10
  -6   3   7 1551.42 239.288   9
  -6   3   7 1524.08 256.627   7
  -6   3   6 35500.5 1177.77  10
  -6   3   6 39252.1 1082.59   9
  -6   3   6 36630.5 1100.45   7
  -6   3   5 766.387 201.772  10
  -6   3   5 509.470 162.972   9
  -6   3   5 1050.42 227.946   7
  -6   3   4 35635.9 1102.76  10
  -6   3   4 35546.4 1055.56   7
  -6   3   4 34481.6 1016.68  19
  -6   3   3 170.140 159.029  10
  -6   3   3 106.927 104.646   9
  -6   3   3 154.699 135.806  19
  -6   3   3 205.202 153.996   7
  -6   3   2 40907.4 1123.62  10
  -6   3   2 37783.8 1091.53  19
  -6   3   2 40161.0 1097.52   7
  -6   3   1 14724.0 681.536  10
  -6   3   1 15791.4 725.017  19
  -6   3   1 15391.0 684.495   7
  -6   3   0 24457.0 889.151  19
  -6   3   0 23561.7 823.273   7
  -6   3  -1 525.831 165.939  19
  -6   3  -1-138.069 264.500   3
  -6   3  -1-5.94134 162.134  10
  -6   3  -1 260.246 125.511   7
  -6   3  -2 34310.6 985.566  10
  -6   3  -2 37535.7 1105.13  19
  -6   3  -2 34889.8 979.922   7
  -6   3  -2 38073.9 2068.60   3
  -6   3  -3 13938.5 665.785  10
  -6   3  -3 16531.5 746.933  19
  -6   3  -3 15176.5 679.734  16
  -6   3  -3 15233.0 644.362   7
  -6   3  -3 15250.6 1354.87   3
  -6   3  -4 14509.3 722.436  19
  -6   3  -4 13364.9 677.524  16
  -6   3  -4 12612.6 575.439   7
  -6   3  -5 406.694 162.617  19
  -6   3  -5 375.536 181.119  16
  -6   3  -6 259.680 140.960  19
  -6   3  -6 727.157 320.658   3
  -6   3  -6 310.842 174.805  16
  -6   3  -7 4405.22 390.085  19
  -6   3  -7 4375.35 863.204   3
  -6   3  -7 5060.68 451.326  16
  -6   3  -8 274.713 134.470  19
  -6   3  -8 197.429 178.578  16
  -6   3  -9 4224.08 437.188  16
  -6   3 -10 1127.61 268.917  16
  -6   3 -11 26902.6 983.751  16
  -6   3 -12 357.674 194.432  16
  -6   3 -13 6051.63 427.522  16
  -6   3 -14 142.931 136.214  16
  -6   3 -15 5597.18 307.635  16
  -6   2  14 3136.47 229.363  10
  -6   2  13 1427.50 198.667  10
  -6   2  12 1570.57 236.173  10
  -6   2  12 4215.30 357.557   9
  -6   2  11 264.788 170.352  10
  -6   2  11 865.943 235.171   9
  -6   2  10 96.6478 154.670  10
  -6   2  10 85.7779 158.606   9
  -6   2   9 14613.9 745.398  10
  -6   2   9 17662.7 744.626   9
  -6   2   8 5485.96 474.520  10
  -6   2   8 6533.26 469.113   9
  -6   2   8 6468.01 457.310   7
  -6   2   7 2312.34 329.314  10
  -6   2   7 2541.49 302.345   9
  -6   2   7 2164.30 288.689   7
  -6   2   6 3486.02 386.924  10
  -6   2   6 3769.81 359.078   9
  -6   2   6 3451.27 353.764   7
  -6   2   5 38746.8 1170.55  10
  -6   2   5 39134.6 1056.21   9
  -6   2   5 38860.0 1119.00   7
  -6   2   4 1059.33 219.134  10
  -6   2   4 804.904 190.830  19
  -6   2   4 705.204 158.313   9
  -6   2   4 977.461 210.061   7
  -6   2   3 29555.7 968.154  10
  -6   2   3 26986.7 815.789   9
  -6   2   3 28198.0 922.125  19
  -6   2   3 29653.5 941.139   7
  -6   2   2 2626.43 300.597  10
  -6   2   2 1938.25 507.012   5
  -6   2   2 2402.69 295.786  19
  -6   2   2 1944.93 266.676   7
  -6   2   1 56615.5 1252.89  10
  -6   2   1 57143.1 1315.78  19
  -6   2   1 57755.8 2642.46   5
  -6   2   1 55106.3 1238.69   7
  -6   2   0 439.870 298.480   5
  -6   2  -1 27850.7 1821.44   5
  -6   2  -2 3828.64 701.844   5
  -6   2  -2 3864.90 366.581  19
  -6   2  -3 9086.52 509.612  10
  -6   2  -3 10496.5 587.779  19
  -6   2  -3 10929.8 1162.19   5
  -6   2  -4 6851.28 475.518  19
  -6   2  -4 6508.61 894.287   5
  -6   2  -4 6529.95 460.994  16
  -6   2  -5 9737.88 569.000  19
  -6   2  -5 9358.22 564.767  16
  -6   2  -6 1990.12 292.487  16
  -6   2  -6 2022.45 272.628  19
  -6   2  -7 37237.2 1077.09  19
  -6   2  -7 37970.9 1159.10  16
  -6   2  -8 588.893 223.869  16
  -6   2  -9 14743.1 754.576  16
  -6   2 -10 15433.0 772.100  16
  -6   2 -11 70.8871 172.653  16
  -6   2 -12 9136.34 568.446  16
  -6   2 -13 4039.55 364.777  16
  -6   2 -14 3985.72 321.354  16
  -6   2 -15 613.018 138.156  16
  -6   1  14 133.088 82.4464  10
  -6   1  13-12.7157 97.4469  10
  -6   1  13 2070.23 238.026   9
  -6   1  12 751.805 179.024  10
  -6   1  12 1423.27 247.686   9
  -6   1  11 18907.3 778.551  10
  -6   1  11 20113.7 747.715   9
  -6   1  10 49.8387 131.798   9
  -6   1  10 131.132 145.964  10
  -6   1   9 175.342 150.442   9
  -6   1   9 118.816 138.995  10
  -6   1   8 38.8962 134.560  10
  -6   1   8 24.0828 138.048   9
  -6   1   7 1252.67 252.313  10
  -6   1   7 955.143 208.959   9
  -6   1   7 1229.62 235.755   7
  -6   1   6 25582.8 948.206  10
  -6   1   6 27174.3 909.945   9
  -6   1   6 25797.6 917.778   7
  -6   1   6 24696.2 832.840  15
  -6   1   5 185.491 130.886  10
  -6   1   5 76.4006 115.430   9
  -6   1   5 118.911 126.805   7
  -6   1   4 1435.51 233.909  10
  -6   1   4 1176.87 223.010  19
  -6   1   4 1390.18 214.526   9
  -6   1   4 1223.89 438.382   5
  -6   1   4 1482.25 234.593   7
  -6   1   4 692.706 339.141   6
  -6   1   3 11776.4 594.662  10
  -6   1   3 10991.9 1145.07   5
  -6   1   3 11105.0 525.772   9
  -6   1   3 10890.6 580.127  19
  -6   1   3 10716.8 578.239   7
  -6   1   3 12351.2 1197.72   6
  -6   1   2 73740.5 2887.33   5
  -6   1   2 64966.2 1344.10   7
  -6   1   1 98.6581 220.936   5
  -6   1   0 42356.3 2201.07   5
  -6   1  -1 279.249 273.083   5
  -6   1  -2 72816.2 2873.18   5
  -6   1  -3-21.7375 236.938   5
  -6   1  -4 53868.0 1277.38  19
  -6   1  -4 57135.0 2571.96   5
  -6   1  -4 56033.7 1283.79  16
  -6   1  -5 19207.6 758.881  19
  -6   1  -5 19264.4 782.452  16
  -6   1  -6 1045.64 208.450  19
  -6   1  -6 511.985 290.943   5
  -6   1  -6 904.136 203.846  16
  -6   1  -7 154.403 162.972  16
  -6   1  -7 322.804 142.394  19
  -6   1  -8 2821.11 345.640  16
  -6   1  -9 35527.2 1144.55  16
  -6   1 -10 81.6142 157.928  16
  -6   1 -11 1416.05 265.022  16
  -6   1 -12 1743.87 290.894  16
  -6   1 -13 217.997 160.040  16
  -6   1 -14 1687.69 231.086  16
  -6   1 -15 3064.46 276.942   8
  -6   0  14 4214.36 245.467  10
  -6   0  13 1204.31 181.378  10
  -6   0  13 2024.32 238.691   9
  -6   0  12 9534.36 504.199  10
  -6   0  12 9762.98 492.414   9
  -6   0  11 3166.78 331.089  10
  -6   0  11 3624.21 348.223   9
  -6   0  10 1884.23 282.817  10
  -6   0  10 2383.51 291.721   9
  -6   0   9 646.501 193.197  10
  -6   0   9 664.757 197.186   9
  -6   0   8 3033.21 347.462  10
  -6   0   8 3495.48 360.884   9
  -6   0   7 435.384 177.344  10
  -6   0   7 577.430 189.354   9
  -6   0   6 118.214 138.107  10
  -6   0   6 31.6504 113.607   9
  -6   0   6-135.068 205.097  15
  -6   0   6 24.6096 143.321   7
  -6   0   5 1620.43 249.524  10
  -6   0   5 1490.61 255.962  19
  -6   0   5 1567.03 233.220   9
  -6   0   5 1082.80 210.420  15
  -6   0   5 1278.30 233.535   7
  -6   0   5 1217.25 458.394   6
  -6   0   4 588.210 182.723  10
  -6   0   4 596.609 182.004  19
  -6   0   4 674.369 164.058   9
  -6   0   4 660.071 176.644   7
  -6   0   4 638.711 352.762   6
  -6   0   3 2915.49 606.907   5
  -6   0   3 2945.57 320.671  19
  -6   0   3 2703.57 298.719   7
  -6   0   3 2851.19 585.873   6
  -6   0   2 294.731 286.498   5
  -6   0   2 436.044 273.079   6
  -6   0   1 15749.1 1333.03   5
  -6   0   1 16661.0 1244.98   6
  -6   0   0 5597.99 811.214   5
  -6   0  -1 85086.2 3119.93   5
  -6   0  -2 322.147 255.796   5
  -6   0  -3 6156.74 848.781   5
  -6   0  -4 1101.72 404.225   5
  -6   0  -5 141479. 2086.36  16
  -6   0  -5 143575. 4014.67   5
  -6   0  -6 440.394 150.787  19
  -6   0  -6 533.370 185.972  16
  -6   0  -7 27290.9 976.401  16
  -6   0  -8 1438.04 276.288  16
  -6   0  -9 18671.3 820.515  16
  -6   0 -10 635.213 213.768  16
  -6   0 -11 1074.79 243.894  16
  -6   0 -12 8504.83 541.469  16
  -6   0 -13 742.595 200.874  16
  -6   0 -14 1340.16 205.446  16
  -6   0 -15-61.1433 110.660   8
  -6   0 -16 761.094 127.322   8
  -6  -1  14 1420.08 163.665   9
  -6  -1  13 6278.83 345.312  10
  -6  -1  13 6085.88 355.064   9
  -6  -1  12 575.348 155.863   9
  -6  -1  12 693.330 159.162  10
  -6  -1  11 21833.7 793.441  10
  -6  -1  11 25880.5 848.939   9
  -6  -1  10 310.517 145.388  10
  -6  -1  10 199.375 155.841   9
  -6  -1   9 11649.9 635.435  10
  -6  -1   9 13865.4 678.837   9
  -6  -1   8 20225.4 825.249  10
  -6  -1   8 21244.3 836.337   9
  -6  -1   7 8815.02 551.689  10
  -6  -1   7 9832.29 568.335   9
  -6  -1   7 9107.71 554.456  15
  -6  -1   6 403.060 166.532  10
  -6  -1   6 735.826 194.342   9
  -6  -1   6 120.095 187.791  15
  -6  -1   6 445.940 368.508   6
  -6  -1   5 40056.6 1079.32  10
  -6  -1   5 41957.0 1180.16   7
  -6  -1   5 39922.6 1116.88  15
  -6  -1   4 1397.93 260.236  19
  -6  -1   4 461.196 333.545   5
  -6  -1   4 1374.83 236.903   7
  -6  -1   4 1145.90 433.633   6
  -6  -1   3 464.096 153.089  19
  -6  -1   3 169.283 280.699   5
  -6  -1   3 303.754 138.708   7
  -6  -1   3 222.475 277.985   6
  -6  -1   2 1362.73 455.379   5
  -6  -1   2 1389.43 411.290   6
  -6  -1   1 469.169 295.652   5
  -6  -1   1 901.886 324.514   6
  -6  -1   0 3269.99 635.519   5
  -6  -1   0 3342.96 527.162   6
  -6  -1  -1 5329.68 710.128   2
  -6  -1  -1 3989.21 712.672   5
  -6  -1  -2 1657.28 476.991   5
  -6  -1  -2 2846.28 545.758   2
  -6  -1  -3 7653.68 923.862   2
  -6  -1  -3 7349.58 934.872   5
  -6  -1  -4 97249.2 3369.12   2
  -6  -1  -4 99856.8 3365.82   5
  -6  -1  -5 4287.00 785.264   2
  -6  -1  -5 3590.09 642.835   5
  -6  -1  -5 5090.63 407.617  16
  -6  -1  -6 15823.4 1473.26   2
  -6  -1  -6 14453.0 632.704  19
  -6  -1  -6 14685.2 1284.76   5
  -6  -1  -6 14719.2 686.697  16
  -6  -1  -7 376.773 157.206  16
  -6  -1  -8 4906.21 432.398  16
  -6  -1  -9 11540.0 649.699  16
  -6  -1 -10 17723.5 786.877  16
  -6  -1 -11 23961.1 918.301  16
  -6  -1 -12 2248.04 287.486  16
  -6  -1 -13 1898.16 260.311  16
  -6  -1 -14 23657.4 831.013   8
  -6  -1 -15 868.256 168.839   8
  -6  -2  14 3908.61 227.269   9
  -6  -2  13 5415.77 330.043   9
  -6  -2  12 699.493 165.271   9
  -6  -2  11 113.224 144.834   9
  -6  -2  10 15860.3 701.423   9
  -6  -2   9 3598.20 363.778   9
  -6  -2   8 33322.6 1050.15   9
  -6  -2   8 31980.8 1033.33  15
  -6  -2   7 1430.46 280.601  15
  -6  -2   6 79340.4 1609.23  15
  -6  -2   6 101459. 3920.67   6
  -6  -2   5 469.318 258.292  19
  -6  -2   5 1252.55 239.979  15
  -6  -2   5 1504.49 446.876   6
  -6  -2   4 21622.2 882.372  19
  -6  -2   4 25451.8 1712.82   5
  -6  -2   4 24819.4 1797.52   6
  -6  -2   3 848.277 205.026  19
  -6  -2   3 1830.11 513.296   5
  -6  -2   3 1487.03 248.862   7
  -6  -2   3 834.988 371.861   6
  -6  -2   2 19513.9 1516.68   5
  -6  -2   2 19007.6 1427.83   6
  -6  -2   1 5384.11 821.603   5
  -6  -2   1 4891.42 708.788   6
  -6  -2   0 754.103 344.918   5
  -6  -2  -1 4162.13 635.270   2
  -6  -2  -1 4561.13 747.724   5
  -6  -2  -2 4609.84 695.353   2
  -6  -2  -2 4030.52 715.856   5
  -6  -2  -3-198.062 236.539   5
  -6  -2  -3-191.352 336.295   2
  -6  -2  -4 32456.9 1978.69   2
  -6  -2  -4 34697.2 2013.98   5
  -6  -2  -5 19993.1 1613.51   2
  -6  -2  -5 20293.3 1542.36   5
  -6  -2  -5 21934.2 821.524  16
  -6  -2  -6 3276.06 651.649   5
  -6  -2  -6 2989.10 326.663  16
  -6  -2  -6 3471.03 741.012   2
  -6  -2  -7 77802.5 3369.27   2
  -6  -2  -7 75044.8 2883.20   5
  -6  -2  -7 77896.7 1587.82  16
  -6  -2  -8 11920.7 1388.65   2
  -6  -2  -8 11327.2 641.279  16
  -6  -2  -9 20936.0 845.527  16
  -6  -2 -10 303.892 171.371  16
  -6  -2 -11 40848.3 1149.32  16
  -6  -2 -12 229.700 144.000  16
  -6  -2 -13 9807.16 589.137   8
  -6  -2 -14 1118.35 216.558   8
  -6  -2 -15 2457.30 247.171   8
  -6  -3  14 418.735 102.318   9
  -6  -3  13 1333.00 178.543   9
  -6  -3  12 1679.78 220.583   9
  -6  -3  11 12076.6 579.807   9
  -6  -3  10 232.031 155.775   9
  -6  -3   9 17742.9 761.626   9
  -6  -3   9 15387.0 686.171  12
  -6  -3   8 7766.26 591.350  15
  -6  -3   8 2078.69 289.825  12
  -6  -3   7 17171.7 791.276  15
  -6  -3   7 16325.4 738.004  12
  -6  -3   6 22112.7 881.992  15
  -6  -3   6 21759.7 819.745  12
  -6  -3   6 23628.8 1943.38   6
  -6  -3   5 48618.9 1274.97  15
  -6  -3   5 50571.1 1208.10  12
  -6  -3   4-67.5898 278.753  19
  -6  -3   4 37.3321 262.790   5
  -6  -3   4 652.888 169.373  12
  -6  -3   3 54748.5 1402.84  19
  -6  -3   3 58560.5 2682.58   6
  -6  -3   3 61847.4 1267.60  12
  -6  -3   2 3806.93 704.735   5
  -6  -3   2 3941.15 700.482   6
  -6  -3   2 3476.66 375.457  19
  -6  -3   1 80858.4 3119.33   5
  -6  -3   1 84852.1 2853.84   6
  -6  -3   0 1589.43 495.725   5
  -6  -3  -1 62307.9 2779.67   5
  -6  -3  -1 63477.8 2500.64   2
  -6  -3  -2 1033.44 398.471   5
  -6  -3  -2 1043.75 387.000   2
  -6  -3  -3 14893.7 1361.57   5
  -6  -3  -3 15341.0 1341.77   2
  -6  -3  -4-27.2717 234.148   5
  -6  -3  -4 326.942 267.845   2
  -6  -3  -5-3.56537 237.059   5
  -6  -3  -5 235.999 304.945   2
  -6  -3  -5 283.583 154.722  16
  -6  -3  -5 241.621 151.277   8
  -6  -3  -6 5011.71 778.165   5
  -6  -3  -6 5154.96 440.136  16
  -6  -3  -6 5410.18 902.823   2
  -6  -3  -7 3052.81 626.997   5
  -6  -3  -7 3629.52 365.580  16
  -6  -3  -7 4770.55 847.700   2
  -6  -3  -8 1266.75 493.641   2
  -6  -3  -8 948.329 232.341  16
  -6  -3  -9 6708.33 493.880  16
  -6  -3 -10 17363.0 762.006  16
  -6  -3 -10 16774.6 821.732   8
  -6  -3 -11 622.612 228.119   8
  -6  -3 -12 8006.33 546.429   8
  -6  -3 -13 194.141 155.683   8
  -6  -3 -14 16115.4 634.894  17
  -6  -3 -14 17639.5 682.762   8
  -6  -3 -15 1514.10 193.265  17
  -6  -3 -15 1664.83 203.211   8
  -6  -4  13 872.162 136.750   9
  -6  -4  12 207.251 114.822   9
  -6  -4  11 164.460 122.438   9
  -6  -4  11 236.066 121.162  12
  -6  -4  10 65.0410 131.444   9
  -6  -4  10 211.017 124.923  12
  -6  -4   9 4844.10 407.661   9
  -6  -4   9 4423.46 398.893  12
  -6  -4   8 11323.7 699.340  15
  -6  -4   8 3623.18 378.154  12
  -6  -4   7 3172.29 396.998  15
  -6  -4   7 1083.05 231.157  12
  -6  -4   6 32337.7 1110.08  19
  -6  -4   6 35394.5 1115.98  15
  -6  -4   5-184.259 233.556  15
  -6  -4   5 258.159 151.532  12
  -6  -4   5 454.853 350.123   6
  -6  -4   4 23826.2 1700.13   5
  -6  -4   4 23558.7 888.393  15
  -6  -4   4 24558.4 853.136  12
  -6  -4   4 23396.7 1820.20   6
  -6  -4   3-54.4135 258.438  19
  -6  -4   3 934.563 417.915   5
  -6  -4   3 737.807 322.352   6
  -6  -4   3 649.995 187.734  12
  -6  -4   2 29602.6 1043.53  19
  -6  -4   2 31297.5 2013.51   5
  -6  -4   2 29936.3 1866.17   6
  -6  -4   1 4019.65 405.417  19
  -6  -4   1 4248.91 795.495   5
  -6  -4   1 4256.68 720.407   6
  -6  -4   0 37803.9 2228.62   5
  -6  -4  -1 879.938 419.820   5
  -6  -4  -1 834.916 354.432   2
  -6  -4  -2 35535.9 2167.75   5
  -6  -4  -2 34359.7 2009.52   2
  -6  -4  -3 567.325 382.468   5
  -6  -4  -3 129.417 373.273   2
  -6  -4  -4 103394. 3645.53   5
  -6  -4  -4 100121. 1815.75   8
  -6  -4  -4 100351. 3643.29   2
  -6  -4  -5 1502.47 482.388   5
  -6  -4  -5 637.981 389.592   2
  -6  -4  -5 1198.13 239.059   8
  -6  -4  -6 12865.5 691.527   8
  -6  -4  -6 11337.2 1329.51   2
  -6  -4  -6 11247.0 1196.74   5
  -6  -4  -7 10007.4 1115.15   5
  -6  -4  -7 10043.5 618.568   8
  -6  -4  -7 10000.8 1266.36   2
  -6  -4  -8 10638.7 1322.10   2
  -6  -4  -8 10470.9 656.836   8
  -6  -4  -9 4599.84 448.236   8
  -6  -4 -10 1644.81 303.055   8
  -6  -4 -11 8050.66 572.230   8
  -6  -4 -12 2630.86 333.589   8
  -6  -4 -13 1802.23 260.205  17
  -6  -4 -13 1691.22 258.445   8
  -6  -4 -14 308.403 148.205  17
  -6  -4 -14 274.977 147.376   8
  -6  -4 -15 5170.66 327.335  17
  -6  -5  13 625.631 116.128   9
  -6  -5  12 13095.1 509.390   9
  -6  -5  12 11847.3 477.826  12
  -6  -5  11 7275.48 431.658   9
  -6  -5  11 6398.48 405.434  12
  -6  -5  10 215.643 140.948   9
  -6  -5  10 191.941 123.797  12
  -6  -5   9 3095.40 348.029  12
  -6  -5   8 12659.7 694.472  15
  -6  -5   8 3548.15 382.777  12
  -6  -5   7 3639.97 464.845  15
  -6  -5   7 816.364 205.821  12
  -6  -5   6 4860.06 445.045  15
  -6  -5   6 4975.49 447.146  12
  -6  -5   5 6464.81 499.393  15
  -6  -5   5 7745.63 516.744  12
  -6  -5   5 7604.50 1113.93   6
  -6  -5   4 20224.6 879.274  19
  -6  -5   4 23970.0 1745.30   5
  -6  -5   4 22504.0 881.523  15
  -6  -5   4 23562.3 866.195  12
  -6  -5   4 23636.9 1870.79   6
  -6  -5   3 16357.5 819.961  19
  -6  -5   3 18193.5 1563.72   5
  -6  -5   3 19463.9 787.871  12
  -6  -5   3 19000.4 1619.80   6
  -6  -5   2 9105.87 596.726  19
  -6  -5   2 10913.5 1254.48   5
  -6  -5   2 10587.1 1155.09   6
  -6  -5   1 28161.1 2003.80   5
  -6  -5   1 28384.1 1026.88  19
  -6  -5   0 4106.35 819.309   5
  -6  -5   0 3556.65 393.286  19
  -6  -5  -1 76251.6 1634.40  19
  -6  -5  -1 75958.3 3307.80   5
  -6  -5  -1 71800.5 2966.19   2
  -6  -5  -2 14783.4 1469.08   5
  -6  -5  -2 16091.5 756.590  19
  -6  -5  -2 15135.1 701.932   8
  -6  -5  -2 17259.5 1508.22   2
  -6  -5  -3 10090.4 1226.24   5
  -6  -5  -3 12540.9 665.537  19
  -6  -5  -3 11312.7 637.735   8
  -6  -5  -3 12862.9 1352.50   2
  -6  -5  -4 2341.91 304.076  19
  -6  -5  -4 2524.14 629.871   5
  -6  -5  -4 1934.76 551.436   2
  -6  -5  -4 2432.23 316.195   8
  -6  -5  -5 6622.09 473.086  19
  -6  -5  -5 6503.25 969.853   5
  -6  -5  -5 6533.77 503.822   8
  -6  -5  -5 6261.76 994.918   2
  -6  -5  -6 8682.44 1081.54   5
  -6  -5  -6 9342.15 601.249   8
  -6  -5  -6 8790.72 1206.86   2
  -6  -5  -7 9063.36 1089.11   5
  -6  -5  -7 10065.5 642.164   8
  -6  -5  -7 9964.87 1284.15   2
  -6  -5  -8 4124.26 433.928   8
  -6  -5  -9 8205.70 582.341   8
  -6  -5 -10 3615.37 401.876   8
  -6  -5 -11 3551.70 393.366   8
  -6  -5 -12 3367.48 340.989  17
  -6  -5 -12 4657.79 410.777   8
  -6  -5 -13 93.0872 136.028  17
  -6  -5 -13 92.4307 130.389   8
  -6  -5 -14 884.434 180.991  17
  -6  -5 -14 785.874 170.750   8
  -6  -5 -15 534.751 138.354  17
  -6  -6  13 1284.05 136.147   9
  -6  -6  12 859.195 153.056   9
  -6  -6  12 994.641 156.919  12
  -6  -6  11 4389.60 334.956   9
  -6  -6  11 5259.55 373.186  12
  -6  -6  10 2247.04 268.909   9
  -6  -6  10 2072.80 271.532  12
  -6  -6   9 1971.45 292.656  12
  -6  -6   8 11031.7 700.059  15
  -6  -6   8 265.471 165.266  12
  -6  -6   7 10335.0 642.690  15
  -6  -6   7 5683.85 482.043  12
  -6  -6   6 5827.54 488.232  15
  -6  -6   6 5077.58 465.829  12
  -6  -6   5 4571.43 429.018  15
  -6  -6   5 5704.48 467.832  12
  -6  -6   4 17255.2 882.094  19
  -6  -6   4 14143.2 1400.76   5
  -6  -6   4 14963.2 728.564  15
  -6  -6   4 16391.9 760.640  12
  -6  -6   4 15372.7 1560.70   6
  -6  -6   3 1613.70 494.015   5
  -6  -6   3 1395.98 255.700  15
  -6  -6   3 1980.21 284.974  12
  -6  -6   3 1531.45 530.791   6
  -6  -6   2 10290.7 661.900  19
  -6  -6   2 9622.42 1208.15   5
  -6  -6   2 9407.87 551.024   8
  -6  -6   2 9769.93 579.413  12
  -6  -6   2 9318.00 1112.10   6
  -6  -6   1 590.952 296.637  19
  -6  -6   1 866.572 414.172   5
  -6  -6   1 472.206 216.497   8
  -6  -6   0 32397.9 2238.39   5
  -6  -6   0 35372.3 1165.53  19
  -6  -6   0 35646.5 1078.22   8
  -6  -6  -1 2269.36 319.741  19
  -6  -6  -1 3273.22 774.410   5
  -6  -6  -1 2030.59 562.483   2
  -6  -6  -1 3226.11 351.493   8
  -6  -6  -2 20531.9 1794.23   5
  -6  -6  -2 23496.3 906.663   8
  -6  -6  -2 22016.7 904.370  19
  -6  -6  -2 19876.9 1691.88   2
  -6  -6  -3 2880.80 350.418  19
  -6  -6  -3 3644.83 778.122   5
  -6  -6  -3 4566.20 852.518   2
  -6  -6  -3 3375.32 372.118   8
  -6  -6  -4 57065.7 2951.06   5
  -6  -6  -4 57061.3 1392.60  19
  -6  -6  -4 59178.1 1474.30   8
  -6  -6  -4 60334.7 3081.42   2
  -6  -6  -5 5241.18 921.836   5
  -6  -6  -5 5328.38 969.855   2
  -6  -6  -5 5936.93 495.207   8
  -6  -6  -6 56411.9 2837.10   5
  -6  -6  -6 59495.6 1509.40   8
  -6  -6  -6 56533.8 3055.80   2
  -6  -6  -7 60.4033 183.537   8
  -6  -6  -8 34306.3 1170.23   8
  -6  -6  -9 122.163 173.471   8
  -6  -6 -10 18197.8 846.945   8
  -6  -6 -11 4076.28 384.889  17
  -6  -6 -11 3763.19 385.772   8
  -6  -6 -12 744.143 189.811  17
  -6  -6 -12 870.186 215.376   8
  -6  -6 -13 371.722 147.183  17
  -6  -6 -13 277.390 141.002   8
  -6  -6 -14 1747.65 222.051  17
  -6  -6 -15 376.150 109.210  17
  -6  -7  12 4344.33 264.031   9
  -6  -7  12 3841.71 270.107  12
  -6  -7  11 228.627 109.378   9
  -6  -7  11 278.872 136.906  12
  -6  -7  10 13712.7 588.105   9
  -6  -7  10 14123.1 651.153  12
  -6  -7   9 266.693 173.832  12
  -6  -7   8 4279.16 424.311  12
  -6  -7   7 9664.78 656.168  15
  -6  -7   7 4078.82 419.680  12
  -6  -7   6 24876.1 936.747  15
  -6  -7   6 25715.5 984.149  12
  -6  -7   5 5271.48 457.436  15
  -6  -7   5 6110.36 489.746  12
  -6  -7   4 194.458 166.049  15
  -6  -7   4 754.122 212.476  12
  -6  -7   3 448.012 174.497   8
  -6  -7   3 240.538 158.803  12
  -6  -7   2 664.599 401.874   5
  -6  -7   2 901.603 232.885   8
  -6  -7   2 533.006 169.449  15
  -6  -7   2 956.853 211.948  12
  -6  -7   1 2800.48 703.987   5
  -6  -7   1 2776.07 332.160   8
  -6  -7   0 710.897 411.071   5
  -6  -7   0 444.513 193.970   8
  -6  -7  -1 600.579 431.901   5
  -6  -7  -1 85.8129 242.837   2
  -6  -7  -1 518.668 177.263   8
  -6  -7  -2 9022.57 1271.88   5
  -6  -7  -2 9869.66 635.507  19
  -6  -7  -2 10598.4 628.497   8
  -6  -7  -2 9445.02 1231.83   2
  -6  -7  -3 11201.5 1416.93   5
  -6  -7  -3 13633.4 705.580  19
  -6  -7  -3 14563.3 742.270   8
  -6  -7  -3 14687.7 1570.83   2
  -6  -7  -4 2349.19 329.749  19
  -6  -7  -4 1794.19 606.510   5
  -6  -7  -4 1537.44 586.598   2
  -6  -7  -4 2246.92 339.178   8
  -6  -7  -5 30492.5 2221.68   5
  -6  -7  -5 35260.8 1166.11   8
  -6  -7  -5 33364.0 2403.86   2
  -6  -7  -6 24742.0 1970.21   5
  -6  -7  -6 24439.0 991.953   8
  -6  -7  -7 47635.0 1385.73   8
  -6  -7  -8 3473.23 397.630   8
  -6  -7  -9 19381.6 873.401   8
  -6  -7 -10 1821.44 264.405  17
  -6  -7 -10 1879.34 299.657   8
  -6  -7 -11 23308.5 860.122  17
  -6  -7 -11 23815.0 882.451   8
  -6  -7 -12 913.793 197.635  17
  -6  -7 -12 1331.52 238.182   8
  -6  -7 -13 9294.11 492.220  17
  -6  -7 -13 8691.64 455.298   8
  -6  -7 -14 1392.56 195.247  17
  -6  -7 -15 482.231 111.239  17
  -6  -8  12 792.741 115.704   9
  -6  -8  12 942.770 143.769  12
  -6  -8  11 2388.65 218.681   9
  -6  -8  11 3069.83 273.812  12
  -6  -8  10 7320.49 462.898  12
  -6  -8   9 20276.7 815.655  12
  -6  -8   8 3583.87 392.275  12
  -6  -8   7 14986.7 766.267  12
  -6  -8   6 4975.55 470.610  15
  -6  -8   6 1250.15 292.693  12
  -6  -8   5 7404.87 521.765  15
  -6  -8   5 6261.53 511.938  12
  -6  -8   4 379.453 180.509  15
  -6  -8   4 642.830 207.046  12
  -6  -8   3 228.058 114.528  18
  -6  -8   3 100.646 156.962   8
  -6  -8   3-112.601 210.136  15
  -6  -8   3 375.752 179.188  12
  -6  -8   2 731.730 182.066  18
  -6  -8   2 879.223 218.587   8
  -6  -8   2 468.598 173.064  15
  -6  -8   2 590.675 198.377  12
  -6  -8   1 5668.59 1032.14   5
  -6  -8   1 6381.08 500.896   8
  -6  -8   0 2935.42 764.730   5
  -6  -8   0 4343.12 423.963   8
  -6  -8  -1 4367.85 889.586   2
  -6  -8  -1 3665.82 836.495   5
  -6  -8  -1 4099.76 417.993   8
  -6  -8  -2 14711.6 1627.26   5
  -6  -8  -2 16731.5 811.925   8
  -6  -8  -2 14690.1 1606.73   2
  -6  -8  -3 1653.51 621.429   5
  -6  -8  -3 1561.94 583.736   2
  -6  -8  -3 1983.07 326.607   8
  -6  -8  -4 3536.02 858.314   5
  -6  -8  -4 3817.60 882.576   2
  -6  -8  -4 3267.36 395.228   8
  -6  -8  -5 1916.59 315.890   8
  -6  -8  -6 2025.43 323.450   8
  -6  -8  -7 1470.96 298.330   8
  -6  -8  -8 8750.42 598.164   8
  -6  -8  -9 653.757 191.522  17
  -6  -8  -9 962.466 241.921   8
  -6  -8 -10 23316.1 863.385  17
  -6  -8 -10 23252.1 897.719   8
  -6  -8 -11 90.9763 140.169  17
  -6  -8 -11 272.485 150.009   8
  -6  -8 -12 15178.2 643.079  17
  -6  -8 -12 14770.1 618.545   8
  -6  -8 -13 1930.18 235.518  17
  -6  -8 -14 10691.7 445.702  17
  -6  -9  11 112.851 81.7885   9
  -6  -9  11 72.8838 90.0624  12
  -6  -9  10 1006.21 169.977   9
  -6  -9  10 1177.09 207.669  12
  -6  -9   9 2131.26 281.188  12
   6   9  -8 7204.06 429.202  16
  -6  -9   8 6742.09 519.137  12
  -6  -9   7 3825.92 408.327  12
  -6  -9   6 6073.01 434.869  18
  -6  -9   6 6850.34 552.120  12
  -6  -9   5 1264.66 226.962  18
  -6  -9   5 1047.03 257.493  12
  -6  -9   4 35772.5 1046.58  18
  -6  -9   4 33546.8 1051.76  15
  -6  -9   4 36078.2 1185.90  12
  -6  -9   3-2.22391 138.808  18
  -6  -9   3-165.149 184.356  15
  -6  -9   3-345.983 180.249  12
  -6  -9   2 9510.42 562.926  18
  -6  -9   2 9108.30 602.602   8
  -6  -9   2 8928.14 560.556  15
  -6  -9   2 9782.07 608.079  12
  -6  -9   1 6565.87 522.817   8
  -6  -9   1 6327.24 464.401  15
  -6  -9   1 7032.77 514.774  12
  -6  -9   0 6543.62 542.039   8
  -6  -9   0 6334.82 448.795  15
  -6  -9  -1 433.494 198.699   8
  -6  -9  -2 1090.58 287.983   8
  -6  -9  -3 6831.97 558.067   8
  -6  -9  -4 5824.42 502.941   8
  -6  -9  -5 268.684 194.603   8
  -6  -9  -6 1610.22 305.365   8
  -6  -9  -7 1356.98 280.241   8
  -6  -9  -8 127.465 132.116  17
  -6  -9  -8 471.482 194.390   8
  -6  -9  -9 3146.31 345.903  17
  -6  -9  -9 3173.34 384.402   8
  -6  -9 -10 93.8405 118.515  17
  -6  -9 -10 207.551 160.610   8
  -6  -9 -11 5583.22 408.350  17
  -6  -9 -11 6093.83 431.955   8
  -6  -9 -12 188.508 124.592  17
  -6  -9 -12 464.845 143.475   8
  -6  -9 -13 3870.22 290.700  17
  -6  -9 -14 2350.57 202.232  17
  -6 -10  11-47.8940 76.5084  12
  -6 -10  10-60.9398 88.3234   9
  -6 -10  10-183.751 110.879  12
  -6 -10   9 2095.96 253.443  12
   6  10  -8 581.566 164.988  16
  -6 -10   8 578.348 179.565  12
   6  10  -7 108.103 144.730  16
  -6 -10   7 31.0635 152.098  12
  -6 -10   6 312.609 159.518  18
  -6 -10   6 226.220 193.182  12
  -6 -10   5 13374.1 640.992  18
  -6 -10   5 15515.1 779.378  12
  -6 -10   4 3165.65 342.235  18
  -6 -10   4 3860.09 410.894  15
  -6 -10   4 3320.62 373.833  12
  -6 -10   3 784.312 209.031  18
  -6 -10   3 1109.16 242.960  15
  -6 -10   3 521.734 207.663  12
  -6 -10   2 335.992 187.452  18
  -6 -10   2 232.617 186.545  15
  -6 -10   2 251.198 185.382  12
  -6 -10   1 59527.3 1531.71   8
  -6 -10   1 58686.5 1487.46  12
  -6 -10   0 2471.76 364.076   8
  -6 -10   0 2313.59 334.875  12
  -6 -10  -1 40494.7 1308.21   8
  -6 -10  -2 4151.87 470.111   8
  -6 -10  -3 32821.5 1174.12   8
  -6 -10  -4 1039.13 294.215   8
  -6 -10  -5 12591.0 725.992   8
  -6 -10  -6 2791.66 375.536   8
  -6 -10  -7 93.4937 134.283  17
  -6 -10  -7 164.137 155.464   8
  -6 -10  -8-42.9601 172.755  17
  -6 -10  -8 158.544 160.208   8
  -6 -10  -9 60.6683 121.927  17
  -6 -10  -9 14.2621 147.598   8
  -6 -10 -10 48.4926 141.233  17
  -6 -10 -10 94.1473 138.582   8
  -6 -10 -11-39.2525 127.531  17
  -6 -10 -11-107.371 129.777   8
  -6 -10 -12 13645.6 540.898  17
  -6 -10 -13 814.539 140.881  17
  -6 -11  10 153.703 86.5612  12
   6  11  -9 728.436 129.212  16
  -6 -11   9 643.937 147.230  12
   6  11  -8 2114.38 223.171  16
  -6 -11   8 1640.77 235.874  12
   6  11  -7 291.467 137.773  16
  -6 -11   7 348.460 169.461  12
  -6 -11   6 235.381 168.835  12
  -6 -11   5 2393.37 284.382  18
  -6 -11   5 2117.14 318.359  12
  -6 -11   4 6877.10 480.423  18
  -6 -11   4 7420.36 546.319  12
  -6 -11   3 413.023 167.364  18
  -6 -11   3 505.643 210.331  12
  -6 -11   2 3227.04 352.454  18
  -6 -11   2 3509.27 389.038  12
  -6 -11   1 1204.50 248.464  18
  -6 -11   1 977.148 245.524  12
  -6 -11   0 20574.1 922.582   8
  -6 -11   0 20881.8 868.021  12
  -6 -11  -1 6420.81 540.301   8
  -6 -11  -1 5878.46 479.457  12
  -6 -11  -2 11556.4 711.187   8
  -6 -11  -3 4554.54 464.453   8
  -6 -11  -4 7318.38 568.452   8
  -6 -11  -5 3131.99 397.203   8
  -6 -11  -6 35156.9 1036.40  17
  -6 -11  -6 35525.2 1158.05   8
  -6 -11  -7 257.211 140.811  17
  -6 -11  -7 593.524 201.274   8
  -6 -11  -8 903.061 190.332  17
  -6 -11  -8 1035.36 237.095   8
  -6 -11  -9 583.208 160.070  17
  -6 -11  -9 881.175 207.096   8
  -6 -11 -10 3934.31 325.698  17
  -6 -11 -10 3951.16 330.611   8
  -6 -11 -11 1413.99 200.313  17
  -6 -11 -12 563.486 128.343  17
  -6 -12   9 40.3307 62.3479   9
  -6 -12   9 14.0012 77.6114  12
   6  12  -8 308.622 108.605  16
  -6 -12   8 264.644 115.146  12
   6  12  -7 1005.22 180.824  16
  -6 -12   7 728.153 178.066  12
   6  12  -6 762.430 189.485  16
  -6 -12   6 803.380 198.451  12
  -6 -12   5 3998.72 335.698  18
  -6 -12   5 3859.24 372.818  12
  -6 -12   4 2089.29 263.250  18
  -6 -12   4 2117.77 296.605  12
  -6 -12   3 7596.03 489.471  18
  -6 -12   3 8011.68 535.982  12
  -6 -12   2 184.512 143.162  18
  -6 -12   2 338.471 168.234  12
  -6 -12   1 4988.11 427.802  18
  -6 -12   1 4812.54 433.407  12
  -6 -12   0 7173.16 515.431  18
  -6 -12   0 6448.44 491.882  12
  -6 -12  -1 12364.1 706.336   8
  -6 -12  -1 12112.9 656.653  12
  -6 -12  -2 1934.49 330.355   8
  -6 -12  -2 1806.59 277.747  12
  -6 -12  -3 7320.94 552.408   8
  -6 -12  -4 167.984 188.784   8
  -6 -12  -5 21868.9 794.358  17
  -6 -12  -5 23069.9 922.258   8
  -6 -12  -6 2696.11 296.756  17
  -6 -12  -6 2676.62 338.380   8
  -6 -12  -7 6973.64 447.083  17
  -6 -12  -7 7122.31 487.039   8
  -6 -12  -8 336.444 133.864  17
  -6 -12  -8 659.722 190.528   8
  -6 -12  -9 5822.16 377.511  17
  -6 -12  -9 5594.34 381.116   8
  -6 -12 -10-153.620 137.323  17
  -6 -12 -10-27.1105 102.131   8
  -6 -12 -11 648.020 132.965  17
  -6 -13   8 1125.75 140.655  12
   6  13  -7 4608.76 277.034  16
  -6 -13   7 3730.25 276.054  12
   6  13  -6 1898.28 213.591  16
  -6 -13   6 1276.43 199.320  12
   6  13  -5 8040.94 439.090  16
  -6 -13   5 6788.75 428.978  12
  -6 -13   4 1870.72 236.899  18
  -6 -13   4 2173.80 271.736  12
  -6 -13   3 856.166 186.553  18
  -6 -13   3 645.974 193.676  12
  -6 -13   2 678.994 190.202  18
  -6 -13   2 685.014 183.717  12
  -6 -13   1 354.310 166.130  18
  -6 -13   1 403.637 171.715  12
  -6 -13   0 1013.19 224.893  18
  -6 -13   0 1160.27 219.880  12
  -6 -13  -1 11497.4 617.390  18
  -6 -13  -1 10647.0 572.761  12
  -6 -13  -2 8090.69 495.343  12
  -6 -13  -3 175.535 183.359   8
  -6 -13  -3 143.743 139.670  12
  -6 -13  -4 6328.26 415.289  17
  -6 -13  -4 6370.42 489.027   8
  -6 -13  -4 6320.79 434.758  12
  -6 -13  -5 4008.92 335.256  17
  -6 -13  -5 3604.12 369.342   8
  -6 -13  -5 4199.74 342.775  12
  -6 -13  -6 5766.52 391.495  17
  -6 -13  -6 5774.71 433.958   8
  -6 -13  -7 405.757 147.623  17
  -6 -13  -7 148.869 133.324   8
  -6 -13  -8 6965.01 393.428  17
  -6 -13  -8 6712.23 401.774   8
  -6 -13  -9 1281.33 178.623  17
  -6 -13 -10 4104.61 265.299  17
   6  14  -6 919.858 143.436  16
  -6 -14   6 772.831 128.247  12
   6  14  -5 2436.15 230.821  16
  -6 -14   5 1823.46 205.201  12
  -6 -14   4 14647.5 548.578  18
  -6 -14   4 14555.5 560.690  12
  -6 -14   3 4748.57 341.613  18
   6  14  -3 5424.66 366.705  16
  -6 -14   3 4764.85 345.611  12
  -6 -14   2 6829.92 418.053  18
  -6 -14   2 7089.26 427.833  12
  -6 -14   1 616.142 176.773  18
  -6 -14   1 760.981 175.608  12
  -6 -14   0 3727.34 336.860  18
  -6 -14   0 3498.31 315.263  12
  -6 -14  -1 459.561 154.749  18
  -6 -14  -1 277.023 131.982  12
  -6 -14  -2 1211.87 224.249  18
  -6 -14  -2 989.528 183.823  12
  -6 -14  -3 2956.52 267.862  17
  -6 -14  -3 2857.81 270.854  12
  -6 -14  -4 5699.95 360.740  17
  -6 -14  -4 5766.97 361.622  12
  -6 -14  -5 3905.77 298.191  17
  -6 -14  -5 3794.24 283.416  12
  -6 -14  -6 1027.30 170.152  17
  -6 -14  -7 644.247 145.137  17
  -6 -14  -8 172.384 104.326  17
  -6 -14  -9 5270.68 272.132  17
   6  15  -4 1789.66 180.706  16
  -6 -15   3 821.326 143.127  18
   6  15  -3 798.798 147.909  16
  -6 -15   3 787.432 131.119  12
  -6 -15   2 1218.57 177.827  18
   6  15  -2 1436.47 178.620  16
  -6 -15   2 1042.31 152.636  12
  -6 -15   1 5444.67 343.308  18
   6  15  -1 5542.52 334.988  16
  -6 -15   1 5457.74 314.926  12
  -6 -15   0 22.2413 98.4744  18
   6  15   0 126.796 107.225  16
  -6 -15   0-81.2054 102.588  12
  -6 -15  -1 1749.53 224.342  18
  -6 -15  -1 1566.06 189.832  12
  -6 -15  -2 240.472 135.791  18
  -6 -15  -3 911.627 172.439  18
  -6 -15  -4 2130.12 240.694  18
  -6 -15  -4 1647.08 179.653  17
  -6 -15  -5 3837.71 251.519  17
  -6 -15  -6 325.725 93.0358  17
  -6 -16   1 166.127 89.3332  18
  -6 -16   0 11529.5 417.928  18
  -6 -16  -1 937.992 144.791  18
  -6 -16  -2 3593.30 250.338  18
  -6 -16  -3 1680.94 177.964  18
  -6 -16  -4 2663.17 210.908  18
  -6 -16  -5 1723.23 168.162  18
  -7  12   3 619.435 118.841   7
  -7  12   2 3019.89 232.708   7
  -7  12   1 11.7992 90.1289   7
  -7  12   0 1761.03 172.420  19
  -7  12   0 2659.82 230.204   7
  -7  12  -1 1016.27 159.701   7
  -7  12  -1 687.710 128.659  19
  -7  12  -2 145.113 94.0151  19
  -7  12  -2 156.647 100.638   7
  -7  12  -3 4033.19 279.800  19
  -7  12  -3 3873.50 253.072   7
  -7  12  -4 19042.5 566.071  19
  -7  12  -5 6438.24 316.634  19
  -7  11   5 147.674 76.0985   7
  -7  11   4 515.455 118.725   7
  -7  11   3 3973.91 293.044   7
  -7  11   2 9146.35 453.015   7
  -7  11   1 233.991 102.301  19
  -7  11   1 492.581 154.871   7
  -7  11   0 7049.56 403.813  19
  -7  11   0 8141.48 453.801   7
  -7  11  -1 747.669 168.934  19
  -7  11  -1 550.284 156.964   7
  -7  11  -2 5209.81 378.968  19
  -7  11  -2 5526.37 364.159   7
  -7  11  -3 3056.37 296.670  19
  -7  11  -3 2904.94 265.649   7
  -7  11  -4 575.656 168.690  19
  -7  11  -4 643.968 146.493   7
  -7  11  -5 1427.74 202.953  19
  -7  11  -5 1344.25 158.788   7
  -7  11  -6 4177.82 290.982  19
  -7  11  -7 1933.67 184.698  19
  -7  10   7 7181.93 325.712  10
  -7  10   6 297.279 120.882  10
  -7  10   6-94.1331 88.7151   7
  -7  10   5 5392.20 340.596  10
  -7  10   5 5488.89 335.958   7
  -7  10   4 108.196 110.327   7
  -7  10   3 7097.89 432.505   7
  -7  10   2-177.274 122.113  19
  -7  10   2-25.3860 122.543   7
  -7  10   1 8705.14 479.662  19
  -7  10   1 9720.17 538.681   7
  -7  10   0 7952.69 482.960  19
  -7  10   0 8691.64 514.709   7
  -7  10  -1 820.297 199.601  19
  -7  10  -1 875.988 202.117   7
  -7  10  -2 1909.50 254.039   7
  -7  10  -2 2104.39 280.860  19
  -7  10  -3 9248.73 549.847  19
  -7  10  -3 8159.29 469.733   7
  -7  10  -4 4412.35 383.108  19
  -7  10  -4 4496.18 333.243   7
  -7  10  -5 1616.09 245.738  19
  -7  10  -5 1566.68 197.564   7
  -7  10  -6 7619.39 441.883  19
  -7  10  -7 15276.1 574.321  19
  -7  10  -8 1865.31 192.681  19
  -7   9   9-71.3484 79.0057  10
  -7   9   8 26.6914 88.4757  10
  -7   9   7 830.900 156.414  10
  -7   9   7 892.647 131.982   7
  -7   9   6 10005.8 487.173  10
  -7   9   6 9621.61 445.988   7
  -7   9   5 397.012 151.648  10
  -7   9   5 512.334 162.176   7
  -7   9   4 8656.02 495.410  10
  -7   9   4 9027.99 499.395   7
  -7   9   3 2008.49 271.688  10
  -7   9   3 1639.46 256.770   7
  -7   9   2 16925.1 715.149  10
  -7   9   2 16417.9 725.715   7
  -7   9   1 1359.53 240.341  19
  -7   9   1 1530.59 267.972   7
  -7   9   0 6709.24 493.472  19
  -7   9   0 7392.19 509.485   7
  -7   9  -1 198.486 160.989  19
  -7   9  -1 197.553 154.681   7
  -7   9  -2 8346.97 527.412   7
  -7   9  -2 8275.00 554.900  19
  -7   9  -3 5372.68 451.734  19
  -7   9  -3 4740.55 393.866   7
  -7   9  -4 207.299 157.934  19
  -7   9  -4 96.4914 127.212   7
  -7   9  -5 1647.05 270.633  19
  -7   9  -5 1473.13 205.238   7
  -7   9  -6 3815.49 362.378  19
  -7   9  -7 838.045 186.794  19
  -7   9  -7 697.830 149.834  16
  -7   9  -8 593.138 150.593  19
  -7   9  -8 361.407 116.528  16
  -7   9  -9 217.501 92.8747  19
  -7   9  -9 274.039 112.102  16
  -7   9 -10 4803.37 267.375  16
  -7   8  10 1669.32 165.006  10
  -7   8   9-24.8159 92.1618  10
  -7   8   8 162.432 104.304  10
  -7   8   7 205.194 124.978  10
  -7   8   7 228.436 115.146   7
  -7   8   6 3555.30 332.813  10
  -7   8   6 3586.52 313.321   7
  -7   8   5 2584.50 305.019  10
  -7   8   5 2687.79 305.321   7
  -7   8   4 1481.07 250.097   7
  -7   8   4 1264.20 235.457  10
  -7   8   3 2353.30 311.966  10
  -7   8   3 2651.70 288.518  19
  -7   8   3 2808.21 328.288   7
  -7   8   2 109.101 127.331  19
  -7   8   2 441.811 184.340  10
  -7   8   2 300.214 176.748   7
  -7   8   1 23631.9 907.170  19
  -7   8   1 25096.9 935.670   7
  -7   8   0 585.434 199.544  19
  -7   8   0 949.774 239.229   7
  -7   8  -1 20762.7 898.454  19
  -7   8  -1 21504.3 864.564   7
  -7   8  -2 424.733 218.133  19
  -7   8  -2 412.471 202.548   7
  -7   8  -3 44949.2 1325.67  19
  -7   8  -3 44791.1 1193.58   7
  -7   8  -4 1733.42 303.032  19
  -7   8  -4 1912.48 260.716   7
  -7   8  -5 12130.4 677.358  19
  -7   8  -5 12355.5 578.124   7
  -7   8  -6 2725.25 334.803  19
  -7   8  -6 2897.29 293.696  16
  -7   8  -7 4331.09 353.299  16
  -7   8  -7 4477.88 385.446  19
  -7   8  -8 1166.70 200.089  19
  -7   8  -8 1276.58 215.312  16
  -7   8  -9 4784.77 319.923  19
  -7   8  -9 5678.09 374.194  16
  -7   8 -10 741.078 153.985  16
  -7   8 -11-17.5818 98.1143  16
  -7   7  10-91.9089 99.4986  10
  -7   7   9-1.04184 116.496  10
  -7   7   8 396.394 137.739  10
  -7   7   8 691.095 138.799   7
  -7   7   7 8093.51 496.921  10
  -7   7   7 8657.19 459.738   7
  -7   7   6 1472.98 249.056  10
  -7   7   6 1046.05 198.379   7
  -7   7   5 173.246 162.926  10
  -7   7   5 378.462 183.336   7
  -7   7   4 182.252 155.298  10
  -7   7   4 471.074 185.958   7
  -7   7   3 22927.4 908.987  10
  -7   7   3 20536.0 802.993  19
  -7   7   3 22456.3 887.512   7
  -7   7   2 3713.61 391.917  10
  -7   7   2 3807.54 378.151  19
  -7   7   2 3623.36 390.060   7
  -7   7   1-93.2411 183.661  10
  -7   7   1 13.0953 160.990  19
  -7   7   1 118.791 145.067   7
  -7   7   0 7120.61 520.467  10
  -7   7   0 5549.82 482.550  19
  -7   7   0 5882.17 485.628   7
  -7   7  -1 2361.39 344.487  19
  -7   7  -1 2618.66 337.247   7
  -7   7  -2 8515.48 603.427  19
  -7   7  -2 7727.94 538.573   7
  -7   7  -3 566.200 231.585  19
  -7   7  -3 615.150 197.697   7
  -7   7  -4 11254.2 682.031  19
  -7   7  -4 10251.4 569.227   7
  -7   7  -5 263.561 194.482  19
  -7   7  -5 193.201 158.806  16
  -7   7  -5 379.375 156.182   7
  -7   7  -6 26845.2 986.629  19
  -7   7  -6 24651.4 875.771  16
  -7   7  -7 165.277 151.534  19
  -7   7  -7 343.276 170.416  16
  -7   7  -8 6506.05 441.749  19
  -7   7  -8 5911.73 446.074  16
  -7   7  -9 1647.73 220.769  19
  -7   7  -9 1914.58 267.487  16
  -7   7 -10 9870.40 508.859  16
  -7   7 -11 607.104 146.744  16
  -7   7 -12 284.259 109.107  16
  -7   6  11 1643.01 179.735  10
  -7   6  10 9035.54 453.768  10
  -7   6   9-111.720 145.534  10
  -7   6   8 17964.3 730.076  10
  -7   6   8 17502.1 623.529   7
  -7   6   7-41.6685 170.656  10
  -7   6   7-12.7633 120.175   7
  -7   6   6 11247.2 646.376  10
  -7   6   6 11834.2 607.054   7
  -7   6   5 573.599 204.147  10
  -7   6   5 947.278 212.402   7
  -7   6   4 8212.15 577.635  10
  -7   6   4 8410.60 559.240   7
  -7   6   3 546.766 208.086  10
  -7   6   3 653.641 187.415  19
  -7   6   3 768.670 218.799   7
  -7   6   2-75.6785 167.260  10
  -7   6   2 148.375 159.757  19
  -7   6   2 149.046 174.590   7
  -7   6   1 274.051 156.845  10
  -7   6   1 312.937 171.745  19
  -7   6   1 391.870 186.661   7
  -7   6   0 7554.34 532.938  10
  -7   6   0 7001.03 544.143  19
  -7   6   0 6447.98 504.470   7
  -7   6  -1 27816.3 995.810  10
  -7   6  -1 27213.0 1050.44  19
  -7   6  -1 26907.2 981.895   7
  -7   6  -2 15097.5 791.614  19
  -7   6  -2 12845.9 677.579   7
  -7   6  -3 8524.38 604.619  19
  -7   6  -3 7583.45 520.910   7
  -7   6  -4 16075.5 809.442  19
  -7   6  -4 14947.9 686.581   7
  -7   6  -5 41405.9 1184.04  16
  -7   6  -5 43036.8 1110.63   7
  -7   6  -6 1448.07 268.617  19
  -7   6  -6 1182.30 253.786  16
  -7   6  -7 1752.35 279.656  19
  -7   6  -7 1326.96 259.054  16
  -7   6  -8 456.264 164.600  19
  -7   6  -8 312.994 190.847  16
  -7   6  -9 12666.1 576.396  19
  -7   6  -9 14161.9 683.158  16
  -7   6 -10 102.047 149.616  16
  -7   6 -11 784.265 173.429  16
  -7   6 -12 442.839 136.052  16
  -7   6 -13 12811.6 443.655  16
  -7   5  12 108.785 73.8033  10
  -7   5  11 5917.88 345.445  10
  -7   5  10 2170.08 249.924  10
  -7   5   9 10795.6 562.282  10
  -7   5   8 81.3333 147.529  10
  -7   5   8 373.683 139.078   7
  -7   5   7 28556.0 997.169  10
  -7   5   7 29591.6 918.888   7
  -7   5   6 2793.38 355.909  10
  -7   5   6 2624.22 317.431   7
  -7   5   5 28748.5 1043.04  10
  -7   5   5 28818.6 995.011   7
  -7   5   4 0.21826 159.482  10
  -7   5   4-90.7555 130.207  19
  -7   5   4 30.6578 154.974   7
  -7   5   3 22204.5 929.032  10
  -7   5   3 21088.8 852.225  19
  -7   5   3 21847.7 898.845   7
  -7   5   2 993.998 234.795  10
  -7   5   2 1159.86 241.421  19
  -7   5   2 1655.17 285.535   7
  -7   5   1 638.524 212.296  19
  -7   5   1 420.566 173.485  10
  -7   5   1 521.736 180.494   7
  -7   5   0 79.5382 166.787  19
  -7   5   0 271.046 177.323  10
  -7   5   0 324.745 176.793   7
  -7   5  -1 576.546 211.979  10
  -7   5  -1 362.421 186.187  19
  -7   5  -1 425.820 185.732   7
  -7   5  -2 4903.72 462.605  19
  -7   5  -2 5065.54 430.742   7
  -7   5  -3 873.481 233.797  19
  -7   5  -3 1520.74 249.192   7
  -7   5  -4 10854.0 671.715  19
  -7   5  -4 11086.6 616.065  16
  -7   5  -4 10228.2 570.134   7
  -7   5  -5 675.805 223.214  19
  -7   5  -5 630.125 218.232  16
  -7   5  -5 959.668 203.469   7
  -7   5  -6 11091.2 651.573  19
  -7   5  -6 10028.8 614.855  16
  -7   5  -7 1810.49 286.179  19
  -7   5  -7 1915.47 313.988  16
  -7   5  -8 17296.1 745.968  19
  -7   5  -8 15811.2 770.736  16
  -7   5  -9 5558.81 400.071  19
  -7   5  -9 6182.28 484.150  16
  -7   5 -10 8881.93 553.304  16
  -7   5 -11 974.800 209.755  16
  -7   5 -12 6549.28 406.281  16
  -7   5 -13 292.648 124.329  16
  -7   4  12 181.450 85.2552  10
  -7   4  11 4016.91 304.144  10
  -7   4  10 176.867 124.575  10
  -7   4   9 417.662 166.749  10
  -7   4   8 16788.1 759.229  10
  -7   4   8 20055.1 746.043   9
  -7   4   7 402.396 185.297  10
  -7   4   7 709.448 190.036   7
  -7   4   6 10780.6 649.596  10
  -7   4   6 12394.5 609.606   9
  -7   4   6 10182.3 604.721   7
  -7   4   5 384.333 186.984  10
  -7   4   5 584.548 208.890   7
  -7   4   4 32847.0 1142.06  10
  -7   4   4 30966.7 908.641   9
  -7   4   4 32869.2 1086.06   7
  -7   4   4 33654.4 1050.04  19
  -7   4   3 2831.93 347.190  10
  -7   4   3 3244.41 358.547  19
  -7   4   3 2873.06 347.347   7
  -7   4   2 12018.9 674.651  10
  -7   4   2 12246.9 676.175  19
  -7   4   2 13350.7 700.352   7
  -7   4   1 16270.8 768.942  10
  -7   4   1 15945.9 784.135  19
  -7   4   1 15907.2 766.374   7
  -7   4   0 41827.7 1212.01  10
  -7   4   0 45098.0 1327.97  19
  -7   4   0 43561.9 1225.67   7
  -7   4  -1 315.202 183.175  19
  -7   4  -1 254.147 156.594  10
  -7   4  -1 420.660 169.953   7
  -7   4  -2 4696.85 452.032  10
  -7   4  -2 4482.21 442.394  19
  -7   4  -2 4082.95 383.564   7
  -7   4  -3 320.460 186.385  19
  -7   4  -3 323.231 156.772   7
  -7   4  -4 4198.70 428.742  19
  -7   4  -4 4045.97 399.398  16
  -7   4  -4 4285.25 369.002   7
  -7   4  -5 7131.61 538.162  19
  -7   4  -5 7015.00 524.033  16
  -7   4  -6 4265.50 419.261  19
  -7   4  -6 3896.10 409.820  16
  -7   4  -7 601.030 198.748  19
  -7   4  -7 442.549 204.179  16
  -7   4  -8 821.000 213.719  19
  -7   4  -8 1116.04 259.395  16
  -7   4  -9 14621.0 757.799  16
  -7   4 -10 349.986 206.257  16
  -7   4 -11 2627.19 323.186  16
  -7   4 -12 2003.35 272.290  16
  -7   4 -13 5599.13 355.762  16
  -7   4 -14-46.0608 87.2110  16
  -7   4 -14-23.5307 90.8420   8
  -7   3  12 233.886 94.5709  10
  -7   3  11 4112.03 320.098  10
  -7   3  10 333.135 147.113  10
  -7   3  10 4398.88 373.863   9
  -7   3   9 12874.6 647.540  10
  -7   3   9 18439.3 693.909   9
  -7   3   8 46.8092 134.023  10
  -7   3   8 944.811 267.808   9
  -7   3   7 204.336 159.979  10
  -7   3   7 494.829 203.394   9
  -7   3   7 90.2258 133.474   7
  -7   3   6 7792.96 557.939  10
  -7   3   6 7837.04 501.287   9
  -7   3   6 9334.81 577.977   7
  -7   3   5 28197.7 1045.96  10
  -7   3   5 24766.3 851.569   9
  -7   3   5 27674.9 984.486   7
  -7   3   4 1111.12 253.836  10
  -7   3   4 1393.34 253.541  19
  -7   3   4 607.650 168.411   9
  -7   3   4 1515.84 265.019   7
  -7   3   3 6812.13 511.894  10
  -7   3   3 6938.16 504.410  19
  -7   3   2 20767.2 867.746  10
  -7   3   2 21395.1 883.199  19
  -7   3   2 21154.3 873.320   7
  -7   3   1 20389.7 849.635  10
  -7   3   1 22028.6 914.814  19
  -7   3   1 21119.1 855.402   7
  -7   3   0 9681.70 587.209  10
  -7   3   0 10048.7 631.993  19
  -7   3   0 9323.10 581.475   7
  -7   3  -1 4595.02 409.286  10
  -7   3  -1 5006.00 463.290  19
  -7   3  -1 4705.26 414.997   7
  -7   3  -2 7520.21 523.721  10
  -7   3  -2 7652.93 567.179  19
  -7   3  -2 7156.83 488.325   7
  -7   3  -3 22951.4 952.380  19
  -7   3  -3 22082.4 904.100  16
  -7   3  -3 22059.2 821.611   7
  -7   3  -4 3134.40 366.452  19
  -7   3  -4 3205.36 356.033  16
  -7   3  -4 3425.02 331.116   7
  -7   3  -5 15920.9 790.339  19
  -7   3  -5 14755.1 752.985  16
  -7   3  -6 29524.5 1042.01  19
  -7   3  -6 27219.6 1015.15  16
  -7   3  -7 17600.9 780.913  19
  -7   3  -7 15385.6 793.906  16
  -7   3  -8 139.529 125.464  19
  -7   3  -8 180.578 190.394  16
  -7   3  -9 11481.3 673.068  16
  -7   3 -10 882.319 240.878  16
  -7   3 -11 936.394 244.820  16
  -7   3 -12 7206.73 472.511  16
  -7   3 -13 7849.36 441.504  16
  -7   3 -14 3240.53 253.093  16
  -7   3 -14 2808.35 257.310   8
  -7   2  12 1174.29 163.230  10
  -7   2  11 6446.56 396.794  10
  -7   2  11 10240.8 468.693   9
  -7   2  10 1246.23 230.120  10
  -7   2  10 3017.99 320.797   9
  -7   2   9 797.601 193.997  10
  -7   2   9 1380.05 250.154   9
  -7   2   8 12402.7 682.908  10
  -7   2   8 14292.9 660.715   9
  -7   2   7 2989.84 355.730  10
  -7   2   7 2806.16 320.020   9
  -7   2   7 3350.31 354.307   7
  -7   2   6 1092.48 245.212  10
  -7   2   6 1248.16 233.383   9
  -7   2   6 1251.48 248.666   7
  -7   2   5 37.3699 140.515  10
  -7   2   5-31.8582 116.852   9
  -7   2   5 121.595 169.598   7
  -7   2   4 1222.05 247.123  10
  -7   2   4 1071.56 233.211  19
  -7   2   4 1188.25 215.432   9
  -7   2   4 1422.83 256.567   7
  -7   2   3 268.693 160.304  10
  -7   2   3 469.450 174.970  19
  -7   2   3 643.097 207.299   7
  -7   2   2 50974.3 1315.95  10
  -7   2   2 51593.9 1346.66   7
  -7   2   2 50130.4 1339.80  19
  -7   2   1 6274.04 470.186  10
  -7   2   1 6239.32 495.280  19
  -7   2   1 6256.25 482.701   7
  -7   2   0 111422. 1870.32  10
  -7   2   0 114756. 2052.38  19
  -7   2   0 111397. 1898.81   7
  -7   2  -1 1397.71 282.963  19
  -7   2  -1 1481.35 249.298   7
  -7   2  -1 824.805 195.912  10
  -7   2  -2 12950.3 659.755  10
  -7   2  -2 14573.9 753.465  19
  -7   2  -2 13329.8 660.457  16
  -7   2  -2 13089.7 639.609   7
  -7   2  -3 5454.86 468.175  19
  -7   2  -3 5653.79 451.987  16
  -7   2  -3 5554.46 415.315   7
  -7   2  -4 27049.8 1003.89  19
  -7   2  -4 25676.5 963.555  16
  -7   2  -5 17959.7 822.826  19
  -7   2  -5 16963.2 810.608  16
  -7   2  -6 14942.6 735.291  19
  -7   2  -6 15380.2 763.321  16
  -7   2  -7 7466.89 513.453  19
  -7   2  -7 7546.63 553.078  16
  -7   2  -8 30760.6 1082.79  16
  -7   2  -8 30426.4 962.689  19
  -7   2  -9 1606.15 301.600  16
  -7   2 -10 2246.00 338.304  16
  -7   2 -11 103.150 166.239  16
  -7   2 -12 11937.4 604.839  16
  -7   2 -13 1984.58 251.636  16
  -7   2 -14 3842.36 307.363   8
  -7   2 -15 57.0686 78.3231   8
  -7   1  12 17145.2 543.035  10
  -7   1  12 20644.4 590.440   9
  -7   1  11 3670.40 306.569  10
  -7   1  11 6278.72 389.457   9
  -7   1  10 5731.80 408.210  10
  -7   1  10 6256.50 421.378   9
  -7   1   9 671.772 201.148  10
  -7   1   9 633.311 191.505   9
  -7   1   8 6016.92 471.214  10
  -7   1   8 7313.11 486.870   9
  -7   1   7 3117.70 356.640  10
  -7   1   7 3592.99 360.717   9
  -7   1   6 25277.7 948.427  10
  -7   1   6 25229.1 893.252   9
  -7   1   6 24988.1 841.058  15
  -7   1   5 944.598 216.001  10
  -7   1   5 99.7188 231.783  19
  -7   1   5 1185.90 214.873   9
  -7   1   5 395.607 194.464  15
  -7   1   5 983.398 225.404   7
  -7   1   4 201.306 138.345  10
  -7   1   4 414.071 173.356  19
  -7   1   4 347.549 134.959   9
  -7   1   4 518.310 191.823   7
  -7   1   3 8.75484 150.401  10
  -7   1   3-68.2915 158.128  19
  -7   1   3 107.089 113.347   9
  -7   1   3 59.0239 144.192   7
  -7   1   2 57.1356 149.938  10
  -7   1   2 218.283 152.518  19
  -7   1   2 578.862 388.656   5
  -7   1   2 448.663 179.099   7
  -7   1   1 1985.24 279.298  10
  -7   1   1 2303.63 317.157  19
  -7   1   1 2025.78 600.823   5
  -7   1   1 2033.42 293.779   7
  -7   1   0 5798.40 434.506  10
  -7   1   0 6586.54 1029.40   5
  -7   1   0 6124.73 496.681  19
  -7   1   0 6264.68 457.731   7
  -7   1  -1 35.5417 212.868   5
  -7   1  -1 96.2256 198.096  19
  -7   1  -1 249.260 143.038   7
  -7   1  -1 422.640 141.165  10
  -7   1  -2 714.562 207.798  10
  -7   1  -2 532.216 187.779  19
  -7   1  -2 559.351 354.329   5
  -7   1  -2 530.424 177.042   7
  -7   1  -3 98932.8 1874.86  19
  -7   1  -3 100762. 3835.92   5
  -7   1  -3 93532.3 1748.46  16
  -7   1  -3 94688.1 1615.96   7
  -7   1  -4 5082.71 447.698  19
  -7   1  -4 4500.37 851.002   5
  -7   1  -4 5228.56 442.178  16
  -7   1  -5 61483.4 1463.80  19
  -7   1  -5 59688.1 1460.28  16
  -7   1  -6 4141.77 397.088  19
  -7   1  -6 4032.84 417.256  16
  -7   1  -7 63292.5 1420.33  19
  -7   1  -7 61262.5 1533.95  16
  -7   1  -8 6039.01 512.043  16
  -7   1  -9 4358.53 435.306  16
  -7   1 -10 180.198 194.947  16
  -7   1 -11 5883.00 478.706  16
  -7   1 -12 209.478 159.412  16
  -7   1 -13 1633.16 235.172  16
  -7   1 -14 149.094 123.363   8
  -7   1 -15 4643.28 278.931   8
  -7   0  12 2346.06 201.881  10
  -7   0  12 3943.42 289.620   9
  -7   0  11 7877.84 419.478  10
  -7   0  11 9745.43 473.732   9
  -7   0  10 151.376 141.188  10
  -7   0  10 269.940 170.285   9
  -7   0   9 16604.9 710.068  10
  -7   0   9 21073.1 784.134   9
  -7   0   8 3586.77 361.299  10
  -7   0   8 4288.92 385.921   9
  -7   0   7 10962.2 611.138  10
  -7   0   7 11859.3 635.512   9
  -7   0   7 12852.9 617.116  15
  -7   0   6 4790.32 417.383  10
  -7   0   6 4749.19 409.781   9
  -7   0   6 4251.43 389.915  15
  -7   0   5 5508.61 436.770  10
  -7   0   5 4406.19 418.816  19
  -7   0   5 5988.71 446.349   9
  -7   0   5 6556.84 509.004   7
  -7   0   5 5283.36 429.810  15
  -7   0   4 657.414 182.328  10
  -7   0   4 784.077 212.737  19
  -7   0   4 714.603 177.811   9
  -7   0   4 141.085 209.541  15
  -7   0   4 851.578 223.198   7
  -7   0   3 3314.66 335.657  10
  -7   0   3 3437.89 381.850  19
  -7   0   3 3270.94 322.693   9
  -7   0   3 2576.59 691.478   5
  -7   0   3 2964.11 347.600   7
  -7   0   2 4013.53 363.570  10
  -7   0   2 4237.18 411.994  19
  -7   0   2 3313.69 725.844   5
  -7   0   2 3792.61 370.863   7
  -7   0   1 21575.2 794.489  10
  -7   0   1 23489.6 924.188  19
  -7   0   1 23095.5 1832.85   5
  -7   0   1 21093.3 835.477   7
  -7   0   0 11266.4 578.378  10
  -7   0   0 12701.3 692.959  19
  -7   0   0 11730.2 1310.85   5
  -7   0   0 12018.6 614.194   7
  -7   0  -1 2536.94 286.012  10
  -7   0  -1 3049.59 687.273   5
  -7   0  -1 2783.82 307.961   7
  -7   0  -1 2949.95 343.435  19
  -7   0  -2 328.957 168.002  10
  -7   0  -2-20.6076 181.402  19
  -7   0  -2-228.086 276.938   5
  -7   0  -2 108.384 107.115   7
  -7   0  -3 7312.82 530.221  19
  -7   0  -3 5938.48 967.875   5
  -7   0  -3 6437.01 477.350  16
  -7   0  -3 6738.42 489.081   8
  -7   0  -3 6178.00 419.501   7
  -7   0  -4 30878.4 1035.43  19
  -7   0  -4 29348.3 2075.31   5
  -7   0  -4 30648.3 1031.39  16
  -7   0  -5 19130.6 819.281  19
  -7   0  -5 20278.4 858.777  16
  -7   0  -6 10853.8 609.713  19
  -7   0  -6 11638.3 669.233  16
  -7   0  -7 1171.48 230.587  19
  -7   0  -7 1076.63 268.721  16
  -7   0  -8 34670.4 1139.00  16
  -7   0  -9 111.447 189.248  16
  -7   0 -10 45185.7 1279.73  16
  -7   0 -11 587.953 198.265  16
  -7   0 -12 3333.67 352.514  16
  -7   0 -13 501.258 179.734   8
  -7   0 -14 411.680 149.940   8
  -7   0 -15 1954.20 197.686   8
  -7  -1  13 1932.22 182.720   9
  -7  -1  12 3126.62 257.563   9
  -7  -1  11 994.135 198.006   9
  -7  -1  10 28563.6 819.761  10
  -7  -1  10 36752.2 984.546   9
  -7  -1   9 131.488 123.077  10
  -7  -1   9 57.4752 137.306   9
  -7  -1   8 1866.32 254.385  10
  -7  -1   8 2365.65 304.672   9
  -7  -1   7 43.3302 117.594  10
  -7  -1   7 38.0610 142.447   9
  -7  -1   6 28813.4 940.155  10
  -7  -1   6 30275.5 994.926   9
  -7  -1   6 28868.5 968.820  15
  -7  -1   5 1690.99 249.763  10
  -7  -1   5 1900.33 268.064   9
  -7  -1   5 1235.87 232.913  15
  -7  -1   4 273.190 271.724  19
  -7  -1   4 1095.45 207.282   9
  -7  -1   4 1297.35 258.639   7
  -7  -1   4 538.744 183.113  15
  -7  -1   3 35.2417 168.180  19
  -7  -1   3 249.565 145.846   9
  -7  -1   3 206.862 180.470   7
  -7  -1   3-39.2081 301.177   6
  -7  -1   2 16195.5 794.027  19
  -7  -1   2 17812.8 1592.11   5
  -7  -1   2 17049.4 755.341   7
  -7  -1   1 3944.24 768.045   5
  -7  -1   1 3223.74 337.769   7
  -7  -1   1 3062.80 362.982  19
  -7  -1   0 4981.49 442.805  19
  -7  -1   0 4332.88 822.937   5
  -7  -1   0 4466.37 387.080   7
  -7  -1  -1-20.9859 162.883  19
  -7  -1  -1-7.72599 240.845   5
  -7  -1  -1 108.731 128.206   7
  -7  -1  -2 4584.00 420.383  19
  -7  -1  -2 3942.59 350.651   7
  -7  -1  -3 76.6613 136.603  19
  -7  -1  -3-244.796 377.923   5
  -7  -1  -3-142.409 221.251   8
  -7  -1  -4 9577.13 1206.67   5
  -7  -1  -4 9191.85 572.273  19
  -7  -1  -4 9266.66 592.156   8
  -7  -1  -5 47.9618 157.971  19
  -7  -1  -5 453.025 203.241  16
  -7  -1  -6 8265.86 1115.52   5
  -7  -1  -6 8666.31 602.649  16
  -7  -1  -6 9001.55 553.104  19
  -7  -1  -7 2490.65 294.606  19
  -7  -1  -7 2341.91 335.862  16
  -7  -1  -8 269.398 212.918  16
  -7  -1  -9 10722.0 644.783  16
  -7  -1 -10 109.968 171.919  16
  -7  -1 -11 24450.1 916.240  16
  -7  -1 -12 504.572 196.307   8
  -7  -1 -13 14704.5 668.206   8
  -7  -1 -14-156.678 124.885   8
  -7  -1 -15 11805.0 441.375   8
  -7  -2  13 1513.54 164.179   9
  -7  -2  12-134.110 129.533   9
  -7  -2  11 418.214 145.893   9
  -7  -2  10 3472.42 324.188   9
  -7  -2   9 1277.49 233.459   9
  -7  -2   8 588.031 183.202   9
  -7  -2   8 7895.89 562.128  15
  -7  -2   7 21977.8 854.609   9
  -7  -2   7 21538.9 843.629  15
  -7  -2   6 578.769 261.770  19
  -7  -2   6 38.9961 144.313   9
  -7  -2   6 82.0819 184.961  15
  -7  -2   5 18905.6 791.150   9
  -7  -2   5 19061.9 825.427  15
  -7  -2   4 81.4370 262.787  19
  -7  -2   4 669.848 199.798  15
  -7  -2   3 84305.9 1850.07  19
  -7  -2   3 92605.1 3549.04   6
  -7  -2   2 346.607 212.093  19
  -7  -2   2 313.521 177.696   7
  -7  -2   1 15711.5 779.635  19
  -7  -2   1 15304.1 1506.57   5
  -7  -2   1 14903.6 710.212   7
  -7  -2   0 1588.23 280.527  19
  -7  -2   0 1354.39 244.175   7
  -7  -2  -1 30465.1 1049.43  19
  -7  -2  -1 29251.6 930.431   7
  -7  -2  -2 782.248 213.338  19
  -7  -2  -2 807.379 438.186   5
  -7  -2  -2 846.113 204.710   8
  -7  -2  -2 821.928 192.177   7
  -7  -2  -3 23224.2 1755.98   2
  -7  -2  -3 22580.1 1843.12   5
  -7  -2  -3 21758.7 875.409   8
  -7  -2  -3 24820.5 934.695  19
  -7  -2  -4 19675.3 1697.20   2
  -7  -2  -4 21213.3 857.713  19
  -7  -2  -4 18682.1 1665.53   5
  -7  -2  -4 19313.0 857.828   8
  -7  -2  -5 2999.81 660.870   5
  -7  -2  -5 2798.07 344.340   8
  -7  -2  -5 3305.98 750.416   2
  -7  -2  -5 2824.98 330.301  19
  -7  -2  -6 12628.9 642.215  19
  -7  -2  -6 12125.3 1330.04   5
  -7  -2  -6 11963.6 704.322   8
  -7  -2  -7 561.883 209.667  16
  -7  -2  -7 769.528 225.089   8
  -7  -2  -8 3400.12 380.272  16
  -7  -2  -8 3837.73 427.428   8
  -7  -2  -9 2642.01 341.928  16
  -7  -2  -9 2540.27 363.472   8
  -7  -2 -10 33758.2 1178.18   8
  -7  -2 -11 622.018 219.291   8
  -7  -2 -12 536.225 195.224   8
  -7  -2 -13 895.380 206.814   8
  -7  -2 -14 6291.00 394.043   8
  -7  -2 -15 1418.33 169.655   8
  -7  -3  12-364.643 140.812   9
  -7  -3  11 456.068 134.640   9
  -7  -3  10 8726.11 490.061   9
  -7  -3   9 125.539 128.398   9
  -7  -3   8 446.681 174.134   9
  -7  -3   8 9665.40 577.686  15
  -7  -3   7 81.9589 151.775   9
  -7  -3   7 3409.11 388.959  15
  -7  -3   6 7793.77 584.240  19
  -7  -3   6 5243.25 449.596  15
  -7  -3   5 12696.2 707.326  19
  -7  -3   5 13968.9 716.067  15
  -7  -3   4-283.722 267.215  19
  -7  -3   4 41.6767 232.905  15
  -7  -3   3-182.346 298.589  19
  -7  -3   3 463.618 428.441   6
  -7  -3   2 14997.6 788.401  19
  -7  -3   2 16100.9 1560.98   5
  -7  -3   1 17592.0 1636.21   5
  -7  -3   1 15305.3 790.897  19
  -7  -3   0 89066.7 1829.64  19
  -7  -3   0 86058.3 3604.43   5
  -7  -3  -1 5043.26 889.343   5
  -7  -3  -1 4555.66 429.672  19
  -7  -3  -2 38094.0 2406.42   5
  -7  -3  -2 36083.1 1093.25   8
  -7  -3  -2 39386.6 1198.23  19
  -7  -3  -3 7276.59 1026.68   2
  -7  -3  -3 6386.94 1021.83   5
  -7  -3  -3 7827.25 555.401  19
  -7  -3  -3 7127.31 517.597   8
  -7  -3  -4 51148.5 2740.05   2
  -7  -3  -4 52077.4 1364.00  19
  -7  -3  -4 53625.2 2845.03   5
  -7  -3  -4 52215.6 1390.13   8
  -7  -3  -5 309.216 178.595  19
  -7  -3  -5 528.115 391.537   5
  -7  -3  -5 1065.87 476.891   2
  -7  -3  -5 224.653 165.413   8
  -7  -3  -6 970.277 211.057  19
  -7  -3  -6 723.308 316.071   5
  -7  -3  -6 632.871 208.226   8
  -7  -3  -7 4590.15 461.324   8
  -7  -3  -8 104.360 178.823   8
  -7  -3  -9 1248.97 275.916   8
  -7  -3 -10 2444.85 350.647   8
  -7  -3 -11 1271.82 260.647   8
  -7  -3 -12 496.829 188.506   8
  -7  -3 -13 11664.9 576.750   8
  -7  -3 -14 159.387 113.816   8
  -7  -3 -15 9109.71 368.879   8
  -7  -4  12 16051.4 495.966   9
  -7  -4  11-167.754 121.315   9
  -7  -4  10 180.914 137.046   9
  -7  -4   9 301.945 149.227   9
  -7  -4   8 1578.70 256.254   9
  -7  -4   8 12311.9 675.760  15
  -7  -4   7 5520.72 480.422  15
  -7  -4   7 597.465 173.127  12
  -7  -4   6 3114.18 373.280  15
  -7  -4   6 3014.09 333.915  12
  -7  -4   5 2963.49 349.786  15
  -7  -4   5 3711.28 368.955  12
  -7  -4   4 1528.10 332.647  19
  -7  -4   4 608.989 222.937  15
  -7  -4   4 1130.16 231.633  12
  -7  -4   3 66735.5 1648.11  19
  -7  -4   3 76270.8 1548.02  12
  -7  -4   2 3073.33 386.851  19
  -7  -4   2 4429.15 837.595   5
  -7  -4   2 3987.40 369.181  12
  -7  -4   1 2363.74 359.768  19
  -7  -4   1 3144.18 783.428   5
  -7  -4   0 342.874 213.112  19
  -7  -4   0 898.607 444.088   5
  -7  -4  -1 49063.8 1411.07  19
  -7  -4  -1 45588.2 2688.00   5
  -7  -4  -1 46142.3 1225.12   8
  -7  -4  -2 965.332 237.416  19
  -7  -4  -2 1435.07 530.066   5
  -7  -4  -2 893.889 228.714   8
  -7  -4  -3 37634.0 1190.74  19
  -7  -4  -3 35768.5 2380.73   5
  -7  -4  -3 34215.8 1119.06   8
  -7  -4  -3 33228.1 2175.49   2
  -7  -4  -4 12043.6 678.093  19
  -7  -4  -4 12882.3 709.011   8
  -7  -4  -4 12835.9 1432.94   5
  -7  -4  -4 13069.2 1433.86   2
  -7  -4  -5 47602.2 2759.50   2
  -7  -4  -5 48033.6 1300.31  19
  -7  -4  -5 49321.1 2741.82   5
  -7  -4  -5 49354.2 1381.28   8
  -7  -4  -6 10400.4 594.185  19
  -7  -4  -6 10895.8 669.868   8
  -7  -4  -7 10968.1 680.725   8
  -7  -4  -8 11442.3 701.365   8
  -7  -4  -9 11489.0 691.589   8
  -7  -4 -10 1852.62 312.571   8
  -7  -4 -11 77.3741 155.726   8
  -7  -4 -12 1855.03 282.575   8
  -7  -4 -13 117.170 150.491   8
  -7  -4 -14 113.125 113.336   8
  -7  -5  12 997.095 138.074   9
  -7  -5  11 9407.79 430.253   9
  -7  -5  10 281.686 133.450   9
  -7  -5  10 488.626 134.407  12
  -7  -5   9 9884.34 533.652   9
  -7  -5   9 9285.00 492.702  12
  -7  -5   8 1479.19 250.260   9
  -7  -5   8 1067.12 214.057  12
  -7  -5   7 15820.4 759.970  15
  -7  -5   7 10472.7 606.613  12
  -7  -5   6 8827.98 582.398  15
  -7  -5   6 7732.13 519.847  12
  -7  -5   5 1219.35 256.251  15
  -7  -5   5 1859.03 283.735  12
  -7  -5   4 4868.93 442.321  15
  -7  -5   4 5498.38 444.958  12
  -7  -5   3 220.468 191.122  15
  -7  -5   3 438.372 168.461  12
  -7  -5   2 1878.39 332.591  19
  -7  -5   2 2166.99 301.162  12
  -7  -5   1 11786.6 731.586  19
  -7  -5   1 13215.9 1493.32   5
  -7  -5   0 71058.2 1718.71  19
  -7  -5   0 74180.4 1558.59   8
  -7  -5   0 71258.0 3416.53   5
  -7  -5  -1 1978.07 334.784  19
  -7  -5  -1 2298.57 671.682   5
  -7  -5  -1 2561.98 329.765   8
  -7  -5  -2 12256.0 730.540  19
  -7  -5  -2 12581.6 1451.81   5
  -7  -5  -2 12387.2 693.278   8
  -7  -5  -3 2744.81 351.448  19
  -7  -5  -3 2609.70 695.232   5
  -7  -5  -3 3141.63 792.956   2
  -7  -5  -3 2683.22 350.405   8
  -7  -5  -4 34960.1 2400.89   5
  -7  -5  -4 36990.8 1182.88  19
  -7  -5  -4 37488.3 1204.25   8
  -7  -5  -4 35414.6 2397.82   2
  -7  -5  -5 389.328 168.935  19
  -7  -5  -5 815.744 253.395   8
  -7  -5  -6 13281.0 742.214   8
  -7  -5  -7 920.601 230.557   8
  -7  -5  -8 9937.71 661.957   8
  -7  -5  -9 38.8065 169.333   8
  -7  -5 -10 39507.4 1229.90   8
  -7  -5 -11 253.734 175.678   8
  -7  -5 -12 7598.32 485.510   8
  -7  -5 -13 792.768 187.603   8
  -7  -5 -14 6537.02 352.564   8
  -7  -6  12 6198.37 270.628   9
  -7  -6  11 1205.92 167.974   9
  -7  -6  11 1375.94 163.816  12
  -7  -6  10 3696.44 301.235   9
  -7  -6  10 2806.87 254.089  12
  -7  -6   9 2797.54 295.586   9
  -7  -6   9 3038.17 301.021  12
  -7  -6   8 15893.6 706.395  12
  -7  -6   7 10559.1 664.873  15
  -7  -6   7 2101.20 297.992  12
  -7  -6   6 23506.3 896.462  15
  -7  -6   6 23524.0 919.262  12
  -7  -6   5 6129.50 489.526  15
  -7  -6   5 7123.80 518.597  12
  -7  -6   4 16598.3 787.402  15
  -7  -6   4 16420.6 769.642  12
  -7  -6   3-142.204 243.605  15
  -7  -6   3 122.384 133.085  12
  -7  -6   2 12996.7 798.670  19
  -7  -6   2 12280.6 653.866  12
  -7  -6   1 1362.72 358.624  19
  -7  -6   1 101.209 159.830   8
  -7  -6   0 7530.55 610.566  19
  -7  -6   0 7396.08 527.250   8
  -7  -6  -1 3999.85 441.989  19
  -7  -6  -1 4057.07 407.699   8
  -7  -6  -2 29260.0 1099.38  19
  -7  -6  -2 30415.2 1062.39   8
  -7  -6  -3 3557.18 410.066  19
  -7  -6  -3 3976.57 429.264   8
  -7  -6  -4 1714.76 301.117  19
  -7  -6  -4 1925.60 340.890   8
  -7  -6  -5 22810.2 898.254  19
  -7  -6  -5 24897.4 1015.91   8
  -7  -6  -6 16515.0 829.148   8
  -7  -6  -7 20858.3 928.398   8
  -7  -6  -8 4028.13 433.830   8
  -7  -6  -9 27666.1 1040.46   8
  -7  -6 -10 7172.07 529.573   8
  -7  -6 -11 1581.18 265.911   8
  -7  -6 -12 367.229 158.714   8
  -7  -6 -13 12259.3 530.340   8
  -7  -6 -14 5219.15 293.654   8
  -7  -7  11 1762.35 178.305   9
  -7  -7  11 1815.08 167.759  12
  -7  -7  10 3887.79 289.517   9
  -7  -7  10 3781.84 286.188  12
  -7  -7   9 5591.46 382.749   9
  -7  -7   9 6665.44 419.244  12
  -7  -7   8 2413.14 304.576  12
  -7  -7   7 22414.6 863.201  15
  -7  -7   7 14730.4 707.294  12
  -7  -7   6 4270.02 446.047  15
  -7  -7   6 78.9710 147.543  12
  -7  -7   5 15354.4 742.567  15
  -7  -7   5 15936.6 761.404  12
  -7  -7   4-15.3288 209.172  15
  -7  -7   4 301.283 188.500  12
  -7  -7   3 3476.65 382.521  15
  -7  -7   3 3999.79 398.096  12
  -7  -7   2-223.419 237.892  15
  -7  -7   2 291.097 198.013  12
  -7  -7   1 11840.3 660.623   8
  -7  -7   1 11408.9 654.551  12
  -7  -7   0 4125.50 498.249  19
  -7  -7   0 573.528 199.344   8
  -7  -7  -1 7485.43 592.603  19
  -7  -7  -1 5101.97 471.170   8
  -7  -7  -2 2392.44 428.365  19
  -7  -7  -2 617.181 226.060   8
  -7  -7  -3 19604.6 887.987  19
  -7  -7  -3 21024.8 914.538   8
  -7  -7  -4 7246.09 553.805  19
  -7  -7  -4 7360.52 570.816   8
  -7  -7  -5 1720.58 292.809  19
  -7  -7  -5 664.349 218.610   8
  -7  -7  -6 6466.70 530.225   8
  -7  -7  -7 483.180 217.905   8
  -7  -7  -8 21853.8 925.023   8
  -7  -7  -9 5800.50 483.878   8
  -7  -7 -10 15995.3 750.098   8
  -7  -7 -11 1056.93 221.946   8
  -7  -7 -12 17747.1 670.897   8
  -7  -7 -13 6.97615 111.482   8
  -7  -8  11 6019.03 268.686   9
  -7  -8  10 2572.55 220.639   9
  -7  -8  10 2157.36 210.458  12
  -7  -8   9 3518.91 285.226   9
  -7  -8   9 4280.92 328.307  12
  -7  -8   8 7918.03 493.005  12
  -7  -8   7 4809.70 417.872  12
  -7  -8   6 23758.2 868.620  15
  -7  -8   6 19881.5 833.970  12
  -7  -8   5 3519.88 425.584  15
  -7  -8   5 905.778 252.844  12
  -7  -8   4 17783.3 782.731  15
  -7  -8   4 18679.8 826.407  12
  -7  -8   3 108.069 181.132  15
  -7  -8   3 862.057 227.421  12
  -7  -8   2 4449.73 410.720   8
  -7  -8   2 3649.72 384.797  15
  -7  -8   2 4154.21 421.034  12
  -7  -8   1 529.350 194.961   8
  -7  -8   1 205.360 168.836  15
  -7  -8   1 442.042 194.331  12
  -7  -8   0 34757.7 1136.05   8
  -7  -8  -1 5812.55 488.393   8
  -7  -8  -2 1831.77 313.714   8
  -7  -8  -3 10772.9 663.029   8
  -7  -8  -4 11831.4 714.146   8
  -7  -8  -5 652.122 217.403   8
  -7  -8  -6 3267.50 389.828   8
  -7  -8  -7 456.192 213.896   8
  -7  -8  -8 674.352 232.228   8
  -7  -8  -9 460.403 194.529   8
  -7  -8 -10 6121.50 453.175   8
  -7  -8 -11 4549.34 365.891   8
  -7  -8 -12 548.011 153.171   8
  -7  -8 -13 6773.53 337.003   8
  -7  -9  10 254.658 87.2437   9
  -7  -9  10 253.482 91.1550  12
  -7  -9   9 166.579 97.7578   9
  -7  -9   9 242.959 115.180  12
  -7  -9   8 1730.19 236.099  12
   7   9  -7 5379.55 355.933  16
  -7  -9   7 5446.73 438.304  12
  -7  -9   6 4837.24 427.791  12
  -7  -9   5 16397.9 711.544  15
  -7  -9   5 13475.0 702.065  12
  -7  -9   4 4539.57 427.695  15
  -7  -9   4 3381.58 381.357  12
  -7  -9   3 3675.03 383.787  15
  -7  -9   3 3671.74 412.645  12
  -7  -9   2-188.996 228.841  15
  -7  -9   2 298.049 222.295  12
  -7  -9   1 59306.4 1469.86   8
  -7  -9   1 59839.1 1382.02  15
  -7  -9   1 63228.7 1507.18  12
  -7  -9   0 883.583 252.923   8
  -7  -9   0 186.314 172.586  15
  -7  -9   0 1028.96 252.976  12
  -7  -9  -1 19709.1 888.694   8
  -7  -9  -2 610.751 233.077   8
  -7  -9  -3 24010.0 979.096   8
  -7  -9  -4 207.888 196.522   8
  -7  -9  -5 3397.26 406.437   8
  -7  -9  -6 415.023 212.004   8
  -7  -9  -7 23162.0 941.347   8
  -7  -9  -8 2218.97 321.863   8
  -7  -9  -9 755.162 217.171   8
  -7  -9 -10 2960.08 314.469   8
  -7  -9 -11-166.333 147.585   8
  -7  -9 -12 916.284 157.870   8
  -7 -10   9 133.117 84.8688   9
  -7 -10   9 279.236 102.531  12
  -7 -10   8 303.106 126.788  12
   7  10  -7 1046.40 175.744  16
  -7 -10   7 1015.41 201.148  12
  -7 -10   6 8428.98 524.048  12
  -7 -10   5 1056.20 239.608  12
  -7 -10   4 2977.62 351.040  15
  -7 -10   4 55.8921 156.892  12
  -7 -10   3 1749.39 307.509  15
  -7 -10   3 471.983 209.045  12
  -7 -10   2 7030.06 453.057  18
  -7 -10   2 8483.64 505.485  15
  -7 -10   2 8382.16 572.165  12
  -7 -10   1 2788.95 313.346  18
  -7 -10   1 2987.23 361.556   8
  -7 -10   1 2025.87 271.376  15
  -7 -10   1 2793.77 349.090  12
  -7 -10   0 3763.85 359.359  18
  -7 -10   0 4436.97 442.762   8
  -7 -10   0 3993.18 366.448  15
  -7 -10   0 3578.74 416.994  12
  -7 -10  -1 429.076 229.752   8
  -7 -10  -1 457.183 233.789  12
  -7 -10  -2 24097.7 966.704   8
  -7 -10  -3 461.023 245.178   8
  -7 -10  -4 23102.2 955.122   8
  -7 -10  -5 10912.5 664.878   8
  -7 -10  -6 31442.1 1078.21   8
  -7 -10  -7 692.807 217.763   8
  -7 -10  -8 452.767 207.145   8
  -7 -10  -9 9964.12 544.440   8
  -7 -10 -10 3877.88 331.823   8
  -7 -10 -11 2116.30 225.352   8
  -7 -10 -12 224.774 94.4187   8
  -7 -11   8 896.498 148.140  12
   7  11  -7 357.338 118.235  16
  -7 -11   7 114.296 112.472  12
   7  11  -6 2829.71 262.114  16
  -7 -11   6 2331.83 279.294  12
  -7 -11   5 2792.86 311.935  12
  -7 -11   4 5432.17 441.514  12
  -7 -11   3 478.250 150.239  18
  -7 -11   3 746.256 224.623  12
  -7 -11   2 1743.66 245.225  18
  -7 -11   2 2018.56 289.493  12
  -7 -11   1 324.570 154.119  18
  -7 -11   1 245.588 183.710  12
  -7 -11   0 2170.79 277.332  18
  -7 -11   0 2210.89 311.815   8
  -7 -11   0 2367.47 317.831  12
  -7 -11  -1 5369.17 469.381   8
  -7 -11  -1 5435.63 454.001  12
  -7 -11  -2 1096.85 255.090   8
  -7 -11  -2 975.910 225.758  12
  -7 -11  -3 3545.57 413.069   8
  -7 -11  -4 297.897 199.631   8
  -7 -11  -5 10489.3 632.513   8
  -7 -11  -6 653.499 222.971   8
  -7 -11  -7 16435.0 735.324   8
  -7 -11  -8 203.988 161.737   8
  -7 -11  -9 21982.6 737.491   8
  -7 -11 -10 2646.05 247.919   8
  -7 -11 -11 7589.08 339.370   8
  -7 -12   7 3399.89 250.451  12
   7  12  -6 924.956 156.042  16
  -7 -12   6 865.690 171.312  12
   7  12  -5 3351.68 286.172  16
  -7 -12   5 3596.83 315.869  12
  -7 -12   4 1849.95 206.161  18
  -7 -12   4 2053.49 264.770  12
  -7 -12   3 2997.37 272.616  18
  -7 -12   3 3536.21 338.477  12
  -7 -12   2 7233.47 425.090  18
  -7 -12   2 7296.37 481.725  12
  -7 -12   1 129.236 111.650  18
  -7 -12   1 208.839 149.161  12
  -7 -12   0 350.541 147.335  18
  -7 -12   0 200.559 149.427  12
  -7 -12  -1 530.255 166.256  18
  -7 -12  -1 361.081 166.391  12
  -7 -12  -2 6905.32 501.160   8
  -7 -12  -2 7249.32 483.438  12
  -7 -12  -3 1179.11 246.569   8
  -7 -12  -3 1267.92 235.876  12
  -7 -12  -4 1914.13 294.915   8
  -7 -12  -5 4156.18 388.633   8
  -7 -12  -6 6579.46 456.005   8
  -7 -12  -7 119.493 147.054   8
  -7 -12  -8 10870.4 516.374   8
  -7 -12  -9 7500.45 386.507   8
  -7 -12 -10 9205.93 369.777   8
  -7 -13   6 2508.62 207.675  12
   7  13  -5-54.1411 91.9416  16
  -7 -13   5-57.9144 100.285  12
   7  13  -4 2143.31 224.123  16
  -7 -13   4 1953.77 236.238  12
  -7 -13   3 2720.41 241.792  18
  -7 -13   3 2937.35 287.902  12
  -7 -13   2 19991.3 640.625  18
  -7 -13   2 21418.5 727.390  12
  -7 -13   1 5386.05 354.794  18
  -7 -13   1 6334.65 408.839  12
  -7 -13   0 265.732 129.406  18
  -7 -13   0 215.487 134.758  12
  -7 -13  -1 5473.37 382.857  18
  -7 -13  -1 5034.86 387.536  12
  -7 -13  -2 5769.91 390.312  18
  -7 -13  -2 6438.26 417.517  12
  -7 -13  -3-12.2980 126.904  12
  -7 -13  -4 1053.05 188.235  12
  -7 -13  -5 10759.1 541.600   8
  -7 -13  -5 10907.2 493.186  12
  -7 -13  -6 267.576 152.756   8
  -7 -13  -6 197.234 126.642  12
  -7 -13  -7 6212.05 375.553   8
  -7 -13  -7 5648.54 332.816  12
  -7 -13  -8 3224.77 233.745  12
   7  14  -4 225.625 100.047  16
  -7 -14   4 73.6290 79.9083  12
   7  14  -3 7009.59 341.958  16
  -7 -14   3 6067.70 329.497  12
  -7 -14   2 1970.85 192.327  18
   7  14  -2 2441.50 233.789  16
  -7 -14   2 1830.97 207.092  12
  -7 -14   1 6925.63 356.051  18
  -7 -14   1 7817.70 397.935  12
  -7 -14   0 4615.79 304.506  18
  -7 -14   0 4529.54 312.009  12
  -7 -14  -1 7466.94 394.166  18
  -7 -14  -1 7606.55 393.887  12
  -7 -14  -2-13.1884 99.2108  18
  -7 -14  -2-23.5890 107.789  12
  -7 -14  -3 1938.51 228.052  18
  -7 -14  -3 1663.18 200.510  12
  -7 -14  -4 931.603 169.990  18
  -7 -14  -4 793.924 153.824  12
  -7 -14  -5 1712.06 180.942  12
  -7 -14  -6 314.101 98.8804  12
   7  15  -1 6171.11 283.055  16
  -7 -15   0 3369.77 219.050  18
   7  15   0 3886.27 231.324  16
  -7 -15  -1 445.436 117.823  18
   7  15   1 247.038 97.6733  16
  -7 -15  -2 412.092 108.386  18
  -7 -15  -3 139.955 82.5933  18
  -7 -15  -4 13620.7 438.521  18
  -7 -15  -5 1292.70 145.069  18
  -8  11   1 1584.92 159.789   7
  -8  11   0 348.685 101.557   7
  -8  11  -1 2757.86 206.793   7
  -8  10   4 10619.8 378.950   7
  -8  10   3 622.577 126.691   7
  -8  10   2 8249.29 393.718   7
  -8  10   1 191.598 83.3968  19
  -8  10   1 86.0369 100.466   7
  -8  10   0 958.589 151.283  19
  -8  10   0 1321.01 182.003   7
  -8  10  -1-89.0571 92.6821  19
  -8  10  -1 70.7915 114.636   7
  -8  10  -2 1566.26 202.282  19
  -8  10  -2 1304.29 174.982   7
  -8  10  -3 6090.77 360.079  19
  -8  10  -3 6546.51 335.329   7
  -8  10  -4 213.837 111.657  19
  -8  10  -4 403.158 104.792   7
  -8  10  -5 66.1926 90.8471  19
  -8   9   5 368.108 103.482   7
  -8   9   4 514.391 124.999   7
  -8   9   3 74.5317 100.103   7
  -8   9   2 33.5558 83.0184  19
  -8   9   2 190.113 127.587   7
  -8   9   1 10804.4 489.256  19
  -8   9   1 14226.6 595.609   7
  -8   9   0-95.5575 120.910  19
  -8   9   0 73.3625 137.712   7
  -8   9  -1 3327.51 305.934  19
  -8   9  -1 3374.23 304.093   7
  -8   9  -2 32.8418 116.179  19
  -8   9  -2 187.391 124.320   7
  -8   9  -3 12542.9 579.883  19
  -8   9  -3 13677.1 534.467   7
  -8   9  -4 1173.76 202.982  19
  -8   9  -4 1068.03 167.555   7
  -8   9  -5 8649.67 454.779  19
  -8   9  -6 68.8811 99.4646  19
  -8   9  -7 2042.74 200.295  19
  -8   8   7 7624.21 353.509  10
  -8   8   6 808.378 165.055  10
  -8   8   6 739.981 135.318   7
  -8   8   5 475.414 161.417  10
  -8   8   5 207.970 105.961   7
  -8   8   4 1235.18 212.532  10
  -8   8   4 489.512 143.098   7
  -8   8   3 2906.06 294.936   7
  -8   8   2 1257.78 192.679  19
  -8   8   2 1443.95 231.020   7
  -8   8   1 325.650 141.128  19
  -8   8   1 415.149 168.545   7
  -8   8   0 1795.43 257.751  19
  -8   8   0 1966.80 271.270   7
  -8   8  -1 1334.87 232.167  19
  -8   8  -1 1231.46 222.887   7
  -8   8  -2 12682.3 635.146  19
  -8   8  -2 11973.9 578.000   7
  -8   8  -3 1988.05 280.897  19
  -8   8  -3 1657.83 227.578   7
  -8   8  -4 7502.58 486.804  19
  -8   8  -4 8447.44 437.329   7
  -8   8  -5 537.831 175.577  19
  -8   8  -6 9439.60 492.779  19
  -8   8  -7 1932.43 221.761  19
  -8   8  -8 2921.77 232.275  19
  -8   7   8 373.682 108.324  10
  -8   7   7 5029.28 330.436  10
  -8   7   6 238.677 138.299  10
  -8   7   6 394.194 127.278   7
  -8   7   5 253.465 131.224  10
  -8   7   5 442.178 137.217   7
  -8   7   4 3359.18 342.662  10
  -8   7   4 3647.29 331.423   7
  -8   7   3 2520.43 319.251  10
  -8   7   3 2090.55 243.062  19
  -8   7   3 2625.73 298.824   7
  -8   7   2 6911.92 481.979  10
  -8   7   2 5669.73 414.344  19
  -8   7   2 6894.18 474.151   7
  -8   7   1 1121.16 216.552  19
  -8   7   1 1241.59 240.085   7
  -8   7   0 4258.67 394.210  19
  -8   7   0 3955.30 378.884   7
  -8   7  -1 702.372 208.691  19
  -8   7  -1 814.588 202.334   7
  -8   7  -2 1494.61 272.352  19
  -8   7  -2 981.436 209.320   7
  -8   7  -3 354.010 183.224  19
  -8   7  -3 271.678 135.764   7
  -8   7  -4 1500.23 271.015  19
  -8   7  -4 1333.91 212.687   7
  -8   7  -5 10013.0 575.838  19
  -8   7  -6 2348.09 287.803  19
  -8   7  -7 6792.88 418.638  19
  -8   7  -7 5941.32 361.305  16
  -8   7  -8 1856.85 220.173  19
  -8   7  -8 1994.76 221.524  16
  -8   7  -9 12696.3 431.989  19
  -8   7  -9 14088.1 503.698  16
  -8   6   9 1366.18 161.578  10
  -8   6   8-58.3101 110.176  10
  -8   6   7 27828.3 817.072  10
  -8   6   6 1008.92 191.475  10
  -8   6   6 1190.01 195.836   7
  -8   6   5 18789.9 742.670  10
  -8   6   5 21008.3 754.071   7
  -8   6   4 16.0662 163.846  10
  -8   6   4 237.135 147.893   7
  -8   6   3 9853.96 586.191  10
  -8   6   3 8986.14 510.058  19
  -8   6   3 10150.4 581.383   7
  -8   6   2 2603.64 346.210  10
  -8   6   2 2831.77 322.044  19
  -8   6   2 3212.29 357.752   7
  -8   6   1 11319.8 649.456  10
  -8   6   1 10092.3 596.351  19
  -8   6   1 10082.2 603.276   7
  -8   6   0 2557.57 330.477  19
  -8   6   0 2959.35 337.695   7
  -8   6  -1 289.319 176.270  19
  -8   6  -1 170.224 141.433   7
  -8   6  -2 100.043 182.138  19
  -8   6  -2 240.096 142.846   7
  -8   6  -3 9656.71 618.750  19
  -8   6  -3 8778.99 516.968   7
  -8   6  -4 2094.72 313.580  19
  -8   6  -4 2253.25 270.189   7
  -8   6  -5 5982.35 471.298  19
  -8   6  -6 467.254 180.637  19
  -8   6  -6 599.838 167.612  16
  -8   6  -7 138.399 135.553  19
  -8   6  -7 33.1282 119.934  16
  -8   6  -8 1562.56 219.226  19
  -8   6  -8 1566.03 227.169  16
  -8   6  -9 288.170 113.808  19
  -8   6  -9 206.227 122.429  16
  -8   6 -10 319.718 121.091  16
  -8   5  10 776.548 118.963  10
  -8   5   9-88.5547 103.652  10
  -8   5   8 3865.01 316.443  10
  -8   5   7 1376.69 226.378  10
  -8   5   6 8808.25 517.539  10
  -8   5   6 9212.30 505.288   7
  -8   5   5 7583.70 502.523  10
  -8   5   5 9679.12 544.513   7
  -8   5   4 18868.2 812.344  10
  -8   5   4 21457.0 841.087   7
  -8   5   3-76.2532 184.843  10
  -8   5   3 52.8972 137.706  19
  -8   5   3 91.6249 162.384   7
  -8   5   2 22929.5 896.575  10
  -8   5   2 22912.7 884.168  19
  -8   5   2 23415.2 913.884   7
  -8   5   1 973.059 240.918  19
  -8   5   1 799.011 228.845   7
  -8   5   1 1072.28 263.208  10
  -8   5   0 13086.6 710.859  10
  -8   5   0 12878.6 704.065  19
  -8   5   0 12302.1 662.423   7
  -8   5  -1 849.138 244.317  19
  -8   5  -1 876.815 222.501   7
  -8   5  -2 38022.8 1229.12  19
  -8   5  -2 37386.4 1099.08   7
  -8   5  -3 5330.90 491.374  19
  -8   5  -3 5596.77 433.315   7
  -8   5  -4 776.360 241.721  19
  -8   5  -4 605.777 179.901   7
  -8   5  -5 1957.13 299.230  19
  -8   5  -5 1800.66 262.229  16
  -8   5  -6 5583.00 454.568  19
  -8   5  -6 4783.92 397.999  16
  -8   5  -7 1320.35 237.071  19
  -8   5  -7 1408.76 232.032  16
  -8   5  -8 598.715 174.023  19
  -8   5  -8 465.376 181.053  16
  -8   5  -9 23010.9 787.362  16
  -8   5  -9 20375.0 645.496  19
  -8   5 -10 1405.21 220.092  16
  -8   5 -11 9335.15 437.209  16
  -8   5 -11 8390.40 417.869   8
  -8   4  10 32.5525 75.9545  10
  -8   4   9 6101.49 365.083  10
  -8   4   8 8192.01 464.858  10
  -8   4   7 3379.65 328.293  10
  -8   4   6 2894.07 324.630  10
  -8   4   6 3678.17 354.319   7
  -8   4   5 4148.24 392.780  10
  -8   4   5 4379.96 395.069   7
  -8   4   4 3227.81 358.856  10
  -8   4   4 3260.43 332.194  19
  -8   4   4 3872.34 390.229   7
  -8   4   3 22919.3 902.367  10
  -8   4   3 20989.4 852.052  19
  -8   4   3 23299.8 921.162   7
  -8   4   2 2352.21 324.237  10
  -8   4   2 2373.98 324.287  19
  -8   4   2 2277.25 330.560   7
  -8   4   1 13143.2 703.316  10
  -8   4   1 13501.6 720.504  19
  -8   4   1 13800.3 723.060   7
  -8   4   0 4349.53 427.603  10
  -8   4   0 3522.53 399.391  19
  -8   4   0 3484.85 372.590   7
  -8   4  -1 32938.9 1148.77  19
  -8   4  -1 31990.9 1046.02   7
  -8   4  -2 1464.22 291.867  19
  -8   4  -2 769.411 210.916   7
  -8   4  -3 17901.9 843.355  19
  -8   4  -3 16413.6 717.310   7
  -8   4  -4 972.897 248.829  19
  -8   4  -4 617.258 184.278  16
  -8   4  -4 837.447 190.892   7
  -8   4  -5 1579.31 271.194  19
  -8   4  -5 1282.63 255.683  16
  -8   4  -6 169.716 148.368  19
  -8   4  -6 166.446 162.098  16
  -8   4  -7 223.542 145.154  19
  -8   4  -7 94.2213 142.644  16
  -8   4  -8 2973.20 303.227  19
  -8   4  -8 2905.53 341.211  16
  -8   4  -9 7439.14 482.898  16
  -8   4 -10 48.4495 131.311  16
  -8   4 -11 254.526 137.983  16
  -8   4 -12 2266.29 227.334   8
  -8   3  10 57.1978 84.7480  10
  -8   3   9 289.696 119.175  10
  -8   3   8 1382.69 217.345  10
  -8   3   7 314.465 155.687  10
  -8   3   7 3822.98 351.229   9
  -8   3   6 1081.89 222.178  10
  -8   3   6 1416.25 244.130   7
  -8   3   5-18.2935 151.267  10
  -8   3   5 548.139 200.246   7
  -8   3   4 3410.18 368.879  10
  -8   3   4 3150.49 347.462  19
  -8   3   4 3621.54 390.018   7
  -8   3   3 2126.28 309.144  10
  -8   3   3 2369.11 322.432  19
  -8   3   3 2726.12 353.148   7
  -8   3   2 12415.8 665.502  10
  -8   3   2 12582.8 695.677  19
  -8   3   2 12639.4 691.317   7
  -8   3   1-226.510 164.419  10
  -8   3   1 272.786 177.363  19
  -8   3   1 321.112 200.006   7
  -8   3   0 12506.9 677.762  10
  -8   3   0 12885.4 731.095  19
  -8   3   0 12264.0 668.024   7
  -8   3  -1 476.075 215.297  19
  -8   3  -1 489.391 196.606   7
  -8   3  -2 30404.8 1104.63  19
  -8   3  -2 25478.6 918.182   7
  -8   3  -3 1190.69 271.623  19
  -8   3  -3 1290.70 230.426   7
  -8   3  -4 27018.2 1024.40  19
  -8   3  -4 25838.3 854.881   7
  -8   3  -5 3185.55 374.996  19
  -8   3  -5 2630.09 332.885  16
  -8   3  -6 14754.7 728.540  19
  -8   3  -6 13230.7 707.700  16
  -8   3  -7 379.081 161.450  19
  -8   3  -7 269.742 181.086  16
  -8   3  -8 24213.7 831.294  19
  -8   3  -8 24286.3 916.278  16
  -8   3  -9 302.190 190.222  16
  -8   3 -10 82.5237 159.897  16
  -8   3 -11 200.790 144.400  16
  -8   3 -12 8011.64 435.135   8
  -8   3 -13 1028.89 158.021   8
  -8   2  10 4871.74 299.831  10
  -8   2   9-45.4783 115.754  10
  -8   2   9 3173.14 297.943   9
  -8   2   8 9881.75 518.680  10
  -8   2   8 14465.7 579.899   9
  -8   2   7 267.798 140.671  10
  -8   2   7 1242.28 237.232   9
  -8   2   6 658.098 185.646  10
  -8   2   6 1066.00 230.064   9
  -8   2   5 2183.03 295.208  10
  -8   2   5 2076.99 275.703   9
  -8   2   5 2852.53 354.903   7
  -8   2   4 3965.08 384.431  10
  -8   2   4 3517.83 368.613  19
  -8   2   3 348.754 162.105  10
  -8   2   3 360.010 195.629  19
  -8   2   3 374.723 193.710   7
  -8   2   2 69.6632 155.560  10
  -8   2   2 369.664 184.593  19
  -8   2   2 601.089 188.986   7
  -8   2   1 11181.2 627.704  10
  -8   2   1 11817.5 704.129  19
  -8   2   1 11502.1 656.720   7
  -8   2   0 1622.49 270.077  10
  -8   2   0 1594.07 298.843  19
  -8   2   0 1679.65 274.217   7
  -8   2  -1 10251.3 649.143  19
  -8   2  -1 9796.07 586.163   7
  -8   2  -2 313.090 204.970  19
  -8   2  -2 134.342 126.280   7
  -8   2  -3 18199.9 866.193  19
  -8   2  -3 18611.7 753.229   7
  -8   2  -4 15716.0 798.277  19
  -8   2  -5 18256.5 830.602  19
  -8   2  -5 17055.2 803.702  16
  -8   2  -5 16618.5 775.428   8
  -8   2  -6 2348.55 313.930  19
  -8   2  -6 2041.96 326.530  16
  -8   2  -7 1938.42 276.066  19
  -8   2  -7 1643.21 291.054  16
  -8   2  -8 2667.85 356.561  16
  -8   2  -8 2710.10 308.253  19
  -8   2  -9 10218.1 598.474  16
  -8   2 -10 1330.10 248.911  16
  -8   2 -11 8069.55 487.098  16
  -8   2 -11 7927.54 498.210   8
  -8   2 -12 335.733 139.106   8
  -8   2 -13 173.154 102.844   8
  -8   1  10 3406.75 244.960  10
  -8   1  10 7680.97 374.599   9
  -8   1   9 3572.37 291.320  10
  -8   1   9 5621.82 364.628   9
  -8   1   8 2147.01 257.220  10
  -8   1   8 2612.92 290.273   9
  -8   1   7 14574.9 647.941  10
  -8   1   7 16198.7 662.234   9
  -8   1   6 681.432 186.673  10
  -8   1   6 414.180 163.059   9
  -8   1   5 12600.8 643.296  10
  -8   1   5 12128.3 647.288  19
  -8   1   5 12322.9 593.331   9
  -8   1   5 12481.8 585.360  15
  -8   1   4 2424.43 301.232  10
  -8   1   4 1569.24 263.592  19
  -8   1   4 2124.38 249.889   9
  -8   1   4 1606.02 246.469  15
  -8   1   3 5269.51 428.929  10
  -8   1   3 5821.94 484.406  19
  -8   1   3 5957.30 489.853   7
  -8   1   3 5180.18 406.332  15
  -8   1   2 2757.45 323.445  10
  -8   1   2 3094.33 382.683  19
  -8   1   2 3182.15 359.105   7
  -8   1   1 4303.40 389.519  10
  -8   1   1 4799.83 462.211  19
  -8   1   1 4730.52 436.074   7
  -8   1   0 2010.64 290.018  10
  -8   1   0 1797.22 302.319  19
  -8   1   0 1679.60 268.584   7
  -8   1  -1-16.5599 178.637  19
  -8   1  -1 142.938 137.379   7
  -8   1  -2-67.2448 211.782  19
  -8   1  -2 16.2733 105.887   7
  -8   1  -3 1538.60 288.100  19
  -8   1  -3 1311.75 230.263   7
  -8   1  -4 27373.9 1044.13  19
  -8   1  -5 24216.0 952.049  19
  -8   1  -5 19968.3 871.408   8
  -8   1  -6 27253.0 978.568  19
  -8   1  -6 25128.0 991.832  16
  -8   1  -6 24751.3 980.065   8
  -8   1  -7 334.495 158.094  19
  -8   1  -7 106.445 202.117  16
  -8   1  -8 44652.5 1122.67  19
  -8   1  -8 46924.6 1309.95  16
  -8   1  -9 378.636 220.606  16
  -8   1 -10 9730.82 580.137  16
  -8   1 -10 9573.72 588.329   8
  -8   1 -11 1526.06 261.968   8
  -8   1 -12 4390.96 359.971   8
  -8   1 -13 1501.35 207.283   8
  -8   1 -14 4874.55 277.426   8
  -8   0  11 2812.86 221.897   9
  -8   0  10 18411.1 580.362   9
  -8   0   9 101.801 127.535   9
  -8   0   8 13666.1 571.775  10
  -8   0   8 16527.6 656.390   9
  -8   0   7 2243.07 267.014  10
  -8   0   7 2972.55 308.411   9
  -8   0   6 26200.9 864.610  10
  -8   0   6 28432.9 866.013  15
  -8   0   5-181.158 152.089  10
  -8   0   5-45.9797 127.796   9
  -8   0   5-163.400 204.049  15
  -8   0   4 11343.5 596.687  10
  -8   0   4 9804.82 620.081  19
  -8   0   4 10618.8 559.011   9
  -8   0   4 11486.3 614.723  15
  -8   0   3 4875.10 401.387  10
  -8   0   3 4445.91 448.384  19
  -8   0   3 4044.25 384.890  15
  -8   0   2 14242.7 661.727  10
  -8   0   2 14875.6 788.146  19
  -8   0   2 15249.9 756.700   7
  -8   0   1 3224.98 335.245  10
  -8   0   1 3243.00 391.630  19
  -8   0   1 4228.49 398.603   7
  -8   0   0 3460.46 357.033  10
  -8   0   0 3724.92 407.110  19
  -8   0   0 3401.24 359.563   7
  -8   0  -1 2863.02 376.477  19
  -8   0  -1 2672.55 314.500   7
  -8   0  -2 9246.74 617.079  19
  -8   0  -2 8479.73 524.087   7
  -8   0  -3 4901.98 461.351  19
  -8   0  -3 4880.09 386.789   7
  -8   0  -4 111.695 151.214  19
  -8   0  -4-48.8413 184.596   8
  -8   0  -5 5068.47 461.112   8
  -8   0  -5 5104.89 456.783  19
  -8   0  -6 858.158 228.611  19
  -8   0  -6 291.411 194.477   8
  -8   0  -7 415.967 167.167  19
  -8   0  -7 368.745 183.617   8
  -8   0  -8 834.534 246.594   8
  -8   0  -9 16885.7 804.139   8
  -8   0 -10 245.018 176.348   8
  -8   0 -11 13465.0 669.633   8
  -8   0 -12 6827.23 450.830   8
  -8   0 -13 21988.3 690.887   8
  -8   0 -14 1538.44 174.933   8
  -8  -1  11 1347.19 178.566   9
  -8  -1  10 33.6117 118.160   9
  -8  -1   9 2522.97 262.425   9
  -8  -1   8 676.598 170.438   9
  -8  -1   7 23375.1 817.230   9
  -8  -1   7 27143.0 844.339  15
  -8  -1   6 587.996 180.157   9
  -8  -1   6 2435.51 332.373  15
  -8  -1   5 6212.49 487.297  19
  -8  -1   5 7811.20 495.671   9
  -8  -1   5 7645.72 509.517  15
  -8  -1   4 2533.97 343.375  19
  -8  -1   4 3575.24 347.676   9
  -8  -1   4 3362.87 349.446  15
  -8  -1   3 21052.1 925.074  19
  -8  -1   3 19025.4 742.284   9
  -8  -1   3 21961.6 867.618  15
  -8  -1   2 12674.2 733.273  19
  -8  -1   1 37653.5 1242.40  19
  -8  -1   1 37321.0 1157.63   7
  -8  -1   0 74.8082 173.141  19
  -8  -1   0 24.7369 132.205   7
  -8  -1  -1 11095.0 682.567  19
  -8  -1  -1 11050.1 607.648   7
  -8  -1  -2 161.139 153.509  19
  -8  -1  -2 444.527 149.779   7
  -8  -1  -3 18981.0 871.693  19
  -8  -1  -3 17114.4 703.854   7
  -8  -1  -4 2224.27 314.352  19
  -8  -1  -4 1701.34 269.628   8
  -8  -1  -5 14920.8 747.867  19
  -8  -1  -5 13574.1 734.386   8
  -8  -1  -6 8275.17 544.983  19
  -8  -1  -6 6927.07 537.405   8
  -8  -1  -7 6450.52 469.932  19
  -8  -1  -7 6273.10 519.276   8
  -8  -1  -8 7244.87 568.566   8
  -8  -1  -9 4006.28 430.542   8
  -8  -1 -10 5004.90 454.819   8
  -8  -1 -11 479.514 191.600   8
  -8  -1 -12 1526.82 238.012   8
  -8  -1 -13 502.901 156.446   8
  -8  -1 -14 8372.69 371.557   8
  -8  -2  11 955.040 155.381   9
  -8  -2  10 4040.08 293.637   9
  -8  -2   9 2476.41 253.822   9
  -8  -2   8 3412.02 316.962   9
  -8  -2   7 1484.60 238.708   9
  -8  -2   7 7489.82 475.779  15
  -8  -2   6 15783.6 719.153  19
  -8  -2   6 16426.3 711.906   9
  -8  -2   6 18090.7 741.443  15
  -8  -2   5 115.308 143.142   9
  -8  -2   5-299.844 188.038  15
  -8  -2   4 15658.9 801.836  19
  -8  -2   4 18016.7 748.168   9
  -8  -2   4 17236.3 784.893  15
  -8  -2   3 1447.28 263.769  19
  -8  -2   3 1908.16 261.706   9
  -8  -2   3 1827.07 291.954  15
  -8  -2   2 16366.5 840.461  19
  -8  -2   1-259.355 278.561  19
  -8  -2   0 16619.0 836.727  19
  -8  -2  -1 4642.05 467.210  19
  -8  -2  -2 15915.1 810.139  19
  -8  -2  -3 11933.2 712.584  19
  -8  -2  -3 11570.2 647.127   8
  -8  -2  -4 27512.1 1046.13  19
  -8  -2  -4 25060.9 974.037   8
  -8  -2  -5 1119.66 240.290  19
  -8  -2  -5 560.236 179.738   8
  -8  -2  -6 8801.54 570.945  19
  -8  -2  -6 8167.33 590.668   8
  -8  -2  -7 1478.92 254.626  19
  -8  -2  -7 1806.39 306.765   8
  -8  -2  -8 3173.63 396.336   8
  -8  -2  -9 911.746 240.067   8
  -8  -2 -10 1019.62 243.791   8
  -8  -2 -11 1127.78 230.700   8
  -8  -2 -12 236.609 151.203   8
  -8  -2 -13 1785.23 230.876   8
  -8  -2 -14 164.647 96.9544   8
  -8  -3  11 500.600 119.580   9
  -8  -3  10 2263.56 221.454   9
  -8  -3   9 471.483 137.731   9
  -8  -3   8 980.687 188.713   9
  -8  -3   7 8318.72 499.260   9
  -8  -3   7 14181.7 645.619  15
  -8  -3   6 2686.96 307.546   9
  -8  -3   6 4662.00 428.030  15
  -8  -3   5 4729.59 396.545   9
  -8  -3   5 3887.76 386.458  15
  -8  -3   4 4446.05 478.293  19
  -8  -3   4 4331.05 382.225   9
  -8  -3   4 3833.16 399.412  15
  -8  -3   3-357.413 294.744  19
  -8  -3   3 134.303 128.129   9
  -8  -3   3-223.453 231.246  15
  -8  -3   2-183.705 311.407  19
  -8  -3   1 19493.0 934.822  19
  -8  -3   0 5754.98 516.176  19
  -8  -3  -1 15721.1 820.518  19
  -8  -3  -2 4717.31 462.687  19
  -8  -3  -2 5320.72 438.035   8
  -8  -3  -3 73355.2 1723.30  19
  -8  -3  -3 66484.4 1552.27   8
  -8  -3  -4 2272.39 335.519  19
  -8  -3  -4 2862.39 354.917   8
  -8  -3  -5 2299.65 313.687  19
  -8  -3  -5 2753.84 367.207   8
  -8  -3  -6 69.5621 167.545   8
  -8  -3  -7 26469.7 1042.31   8
  -8  -3  -8 6228.07 522.546   8
  -8  -3  -9 5325.47 479.521   8
  -8  -3 -10 626.071 215.677   8
  -8  -3 -11 1455.70 267.824   8
  -8  -3 -12 393.864 155.659   8
  -8  -3 -13 235.445 127.699   8
  -8  -3 -14 278.081 98.4311   8
  -8  -4  11 14979.8 438.570   9
  -8  -4  10 32.9834 96.6236   9
  -8  -4   9 273.475 129.804   9
  -8  -4   8 912.376 184.724   9
  -8  -4   7 3253.30 316.571   9
  -8  -4   7 10926.4 592.334  15
  -8  -4   6-38.8204 149.778   9
  -8  -4   6 2788.16 352.458  15
  -8  -4   5 2758.98 314.456   9
  -8  -4   5 2876.33 350.315  15
  -8  -4   4 4221.86 510.530  19
  -8  -4   4 479.327 203.578  15
  -8  -4   3 20616.8 923.718  19
  -8  -4   3 22213.1 901.709  15
  -8  -4   2 1518.16 311.881  19
  -8  -4   2 1731.87 250.441  12
  -8  -4   1 1982.48 336.125  19
  -8  -4   1 2980.28 323.381  12
  -8  -4   0 8112.44 607.462  19
  -8  -4   0 9290.02 556.568  12
  -8  -4  -1-207.177 261.465  19
  -8  -4  -2 1558.02 304.661  19
  -8  -4  -2 2011.22 301.534   8
  -8  -4  -3 21636.0 951.846  19
  -8  -4  -3 23599.2 924.762   8
  -8  -4  -4-64.4317 256.075  19
  -8  -4  -4 244.629 170.402   8
  -8  -4  -5 738.282 200.201  19
  -8  -4  -5 1599.73 292.109   8
  -8  -4  -6 19596.6 826.139  19
  -8  -4  -6 20080.3 904.272   8
  -8  -4  -7 607.372 238.031   8
  -8  -4  -8 7995.20 571.429   8
  -8  -4  -9 538.660 218.250   8
  -8  -4 -10 24452.4 915.677   8
  -8  -4 -11 66.7714 144.245   8
  -8  -4 -12 2581.67 278.630   8
  -8  -4 -13 4828.30 321.017   8
  -8  -4 -14 2328.46 190.088   8
  -8  -5  10 8220.97 368.400   9
  -8  -5   9 318.497 120.445   9
  -8  -5   8 6176.34 398.090   9
  -8  -5   7 94.2371 129.184   9
  -8  -5   7 9749.56 581.576  15
  -8  -5   6 15514.2 686.894   9
  -8  -5   6 16624.4 682.094  12
  -8  -5   5 657.567 248.316  15
  -8  -5   5 266.399 145.098  12
  -8  -5   4 18535.6 816.870  15
  -8  -5   4 20438.2 802.135  12
  -8  -5   3 6123.55 496.754  15
  -8  -5   3 6371.27 462.325  12
  -8  -5   2 8989.94 587.465  15
  -8  -5   2 9139.10 558.193  12
  -8  -5   1 2989.44 414.686  19
  -8  -5   1 2453.52 312.565  12
  -8  -5   0 576.243 235.109  19
  -8  -5   0 666.027 201.784  12
  -8  -5  -1-145.229 238.337  19
  -8  -5  -1 9.07265 145.986   8
  -8  -5  -2 3881.22 440.289  19
  -8  -5  -2 5109.11 450.680   8
  -8  -5  -3 3340.90 396.236  19
  -8  -5  -3 4863.46 437.519   8
  -8  -5  -4 258.607 237.803  19
  -8  -5  -4 817.536 223.729   8
  -8  -5  -5 18979.8 829.696  19
  -8  -5  -5 20402.6 904.409   8
  -8  -5  -6-143.239 208.274  19
  -8  -5  -6 68.6984 170.057   8
  -8  -5  -7 9889.67 643.206   8
  -8  -5  -8 3236.65 379.021   8
  -8  -5  -9 31299.2 1077.56   8
  -8  -5 -10 531.119 192.353   8
  -8  -5 -11 5599.04 417.154   8
  -8  -5 -12 602.560 158.738   8
  -8  -5 -13 10668.1 447.335   8
  -8  -6  10 1032.52 135.125   9
  -8  -6   9 816.354 153.177   9
  -8  -6   8 69.7746 111.344   9
  -8  -6   8-6.21672 98.5829  12
  -8  -6   7 26695.2 836.244   9
  -8  -6   7 24547.2 777.466  12
  -8  -6   6 6110.22 502.734  15
  -8  -6   6-41.7567 123.525  12
  -8  -6   5 8038.26 546.007  15
  -8  -6   5 5746.19 430.526  12
  -8  -6   4 63.3873 212.299  15
  -8  -6   4 611.660 195.635  12
  -8  -6   3 31184.0 1048.10  15
  -8  -6   3 30947.0 1004.58  12
  -8  -6   2 3053.23 367.815  15
  -8  -6   2 2814.85 334.266  12
  -8  -6   1 14942.5 806.486  19
  -8  -6   1 10849.7 619.585  12
  -8  -6   0 3013.42 491.095  19
  -8  -6   0 285.730 168.867  12
  -8  -6  -1 2307.75 381.176  19
  -8  -6  -1 496.195 176.783   8
  -8  -6  -2 4679.39 438.983   8
  -8  -6  -2 5057.83 515.369  19
  -8  -6  -3 6550.56 542.780  19
  -8  -6  -3 6448.88 504.747   8
  -8  -6  -4 641.266 245.671  19
  -8  -6  -4-54.9144 159.423   8
  -8  -6  -5 2202.73 338.589  19
  -8  -6  -5 1986.25 315.160   8
  -8  -6  -6 8550.22 591.946   8
  -8  -6  -7 110.311 159.006   8
  -8  -6  -8 8507.07 578.165   8
  -8  -6  -9 84.4738 159.166   8
  -8  -6 -10 12585.7 633.376   8
  -8  -6 -11 261.966 135.644   8
  -8  -6 -12 9379.87 456.462   8
  -8  -6 -13 730.706 134.307   8
  -8  -7  10 234.505 81.6430   9
  -8  -7   9-68.5054 106.621   9
  -8  -7   8 4580.82 321.155   9
  -8  -7   8 4655.26 306.861  12
  -8  -7   7 336.000 143.935   9
  -8  -7   7 752.244 166.293  12
  -8  -7   6 14614.0 668.471  15
  -8  -7   6 6925.12 456.716  12
  -8  -7   5 15928.0 705.574  15
  -8  -7   5 11988.0 613.396  12
  -8  -7   4 30426.6 986.589  15
  -8  -7   4 32492.2 1028.31  12
  -8  -7   3 1881.88 303.199  15
  -8  -7   3 2215.23 307.013  12
  -8  -7   2 21627.2 867.515  15
  -8  -7   2 21321.4 866.324  12
  -8  -7   1 1149.26 254.569  15
  -8  -7   1 1465.43 265.862  12
  -8  -7   0 15805.9 725.930   8
  -8  -7   0 15314.0 751.816  12
  -8  -7  -1 11879.1 762.982  19
  -8  -7  -1 7449.97 520.639   8
  -8  -7  -2 20453.0 875.509  19
  -8  -7  -2 18009.5 819.028   8
  -8  -7  -3 3673.72 473.562  19
  -8  -7  -3 114.084 169.961   8
  -8  -7  -4 6539.52 504.609  19
  -8  -7  -4 3464.71 392.394   8
  -8  -7  -5 4239.46 418.606  19
  -8  -7  -5 2634.81 355.521   8
  -8  -7  -6 2030.46 323.228   8
  -8  -7  -7 480.954 224.666   8
  -8  -7  -8 83.8587 163.530   8
  -8  -7  -9 3629.18 368.109   8
  -8  -7 -10 436.695 181.803   8
  -8  -7 -11-78.9761 138.929   8
  -8  -7 -12 191.671 109.452   8
  -8  -8   9 1995.33 177.120   9
  -8  -8   8 1.58098 84.5242   9
  -8  -8   8-24.1791 80.5360  12
  -8  -8   7 1912.90 223.231   9
  -8  -8   7 2261.44 247.673  12
  -8  -8   6 799.259 184.528  12
  -8  -8   5 12975.6 611.695  15
  -8  -8   5 8783.13 522.662  12
  -8  -8   4 1955.31 312.619  15
  -8  -8   4 166.214 164.213  12
  -8  -8   3 2063.83 310.222  15
  -8  -8   3 2228.34 300.283  12
  -8  -8   2 12201.8 637.379  15
  -8  -8   2 13369.4 674.228  12
  -8  -8   1 24071.7 845.581   8
  -8  -8   1 25518.7 910.942  15
  -8  -8   1 24547.7 920.448  12
  -8  -8   0 258.662 166.340   8
  -8  -8   0-282.068 219.362  15
  -8  -8   0 10.7370 161.581  12
  -8  -8  -1 10409.8 609.962   8
  -8  -8  -1 9306.33 599.625  12
  -8  -8  -2 1335.49 269.479   8
  -8  -8  -3 27305.7 1011.28   8
  -8  -8  -4 2190.74 330.494   8
  -8  -8  -5 1137.56 253.737   8
  -8  -8  -6-20.4262 174.178   8
  -8  -8  -7 215.253 198.999   8
  -8  -8  -8-75.4882 163.526   8
  -8  -8  -9 2630.76 311.122   8
  -8  -8 -10 1619.40 233.616   8
  -8  -8 -11 3.94057 107.578   8
  -8  -8 -12 1736.63 184.520   8
  -8  -9   8 52.9569 79.1801   9
  -8  -9   8 22.5431 67.1827  12
  -8  -9   7 402.322 117.374   9
  -8  -9   7 454.770 128.549  12
  -8  -9   6 392.067 135.398  12
  -8  -9   5 8512.87 492.682  15
  -8  -9   5 562.859 170.374  12
  -8  -9   4 8428.34 501.772  15
  -8  -9   4 4851.81 397.906  12
  -8  -9   3 4294.92 375.097  15
  -8  -9   3 3291.50 343.684  12
  -8  -9   2 1590.84 264.530  15
  -8  -9   2 1501.86 267.572  12
  -8  -9   1-419.875 240.394  15
  -8  -9   1 145.739 185.771  12
  -8  -9   0 45077.1 1193.99   8
  -8  -9   0 44185.9 1129.25  15
  -8  -9   0 46167.7 1233.65  12
  -8  -9  -1 744.932 230.354   8
  -8  -9  -1 356.458 187.177  15
  -8  -9  -1 475.688 196.463  12
  -8  -9  -2 9377.37 592.179   8
  -8  -9  -2 10177.5 551.660  15
  -8  -9  -3 2056.76 317.632   8
  -8  -9  -4 13909.4 705.449   8
  -8  -9  -5 5807.17 470.480   8
  -8  -9  -6 14634.9 722.095   8
  -8  -9  -7 3295.64 355.469   8
  -8  -9  -8 8795.22 528.699   8
  -8  -9  -9 990.603 207.720   8
  -8  -9 -10 4783.15 344.882   8
  -8  -9 -11 106.718 100.363   8
  -8 -10   7 198.545 90.2738   9
  -8 -10   7 241.468 96.1938  12
  -8 -10   6 2322.72 239.207  12
  -8 -10   5 1859.27 245.195  12
  -8 -10   4 2861.59 294.608  12
  -8 -10   3 3412.62 322.362  15
  -8 -10   3 801.033 199.493  12
  -8 -10   2 8555.14 462.142  15
  -8 -10   2 8099.77 497.569  12
  -8 -10   1 2382.14 272.438  15
  -8 -10   1 1916.71 289.991  12
  -8 -10   0 1080.15 207.441  15
  -8 -10   0 1493.89 256.714  12
  -8 -10  -1 2162.15 295.618   8
  -8 -10  -1 1418.01 216.192  15
  -8 -10  -1 2109.56 289.354  12
  -8 -10  -2 2521.69 317.751   8
  -8 -10  -2 2381.65 305.386  12
  -8 -10  -3 3282.89 364.796   8
  -8 -10  -4 821.759 218.677   8
  -8 -10  -5 23950.9 880.281   8
  -8 -10  -6 460.600 193.328   8
  -8 -10  -7 13946.4 648.489   8
  -8 -10  -8 4383.86 359.444   8
  -8 -10  -9 15557.0 601.673   8
  -8 -10 -10 119.158 109.024   8
  -8 -11   6 326.788 114.001  12
   8  11  -5 8912.84 373.079  16
  -8 -11   5 8514.90 425.425  12
  -8 -11   4 152.286 116.423  12
  -8 -11   3 1227.79 201.804  12
  -8 -11   2 2676.10 294.531  12
  -8 -11   1 6535.17 432.150  12
  -8 -11   0 4445.25 378.172  12
  -8 -11  -1 290.569 150.572  12
  -8 -11  -2 730.054 192.030   8
  -8 -11  -2 514.338 185.537  12
  -8 -11  -3 549.206 142.579  18
  -8 -11  -3 670.207 203.907   8
  -8 -11  -3 539.397 194.463  12
  -8 -11  -4 12653.4 626.917   8
  -8 -11  -4 12899.8 613.183  12
  -8 -11  -5 8565.36 506.378   8
  -8 -11  -6 656.042 185.524   8
  -8 -11  -7 1365.57 220.795   8
  -8 -11  -8 8086.25 425.394   8
  -8 -11  -9 216.979 108.464   8
  -8 -11 -10 2717.50 202.273   8
  -8 -12   5 1962.89 187.042  12
   8  12  -4 72.1350 92.4850  16
  -8 -12   4 24.9528 95.1006  12
  -8 -12   3 110.422 111.774  12
  -8 -12   2 12494.3 538.879  12
  -8 -12   1 210.567 136.153  12
  -8 -12   0 849.852 184.033  12
  -8 -12  -1 317.199 150.109  12
  -8 -12  -2 9079.89 420.260  18
  -8 -12  -2 10631.6 510.890  12
  -8 -12  -3 1613.88 193.175  18
  -8 -12  -3 1661.80 226.058  12
  -8 -12  -4 1316.12 180.059  18
  -8 -12  -4 1408.54 219.699   8
  -8 -12  -4 1545.34 217.633  12
  -8 -12  -5 122.948 115.357   8
  -8 -12  -5 100.247 118.256  12
  -8 -12  -6 3345.69 288.274   8
  -8 -12  -6 3484.33 274.841  12
  -8 -12  -7 2803.28 250.265   8
  -8 -12  -7 2467.56 225.069  12
  -8 -12  -8 898.404 147.225   8
  -8 -12  -8 654.687 121.066  12
   8  13  -3 6843.13 304.825  16
  -8 -13   3 6443.08 324.115  12
  -8 -13   2 128.926 98.0272  12
  -8 -13   1 6799.09 363.345  12
  -8 -13   0 570.647 153.413  12
  -8 -13  -1 1454.75 195.609  12
  -8 -13  -2 645.060 123.042  18
  -8 -13  -2 781.048 155.439  12
  -8 -13  -3 9707.69 381.136  18
  -8 -13  -3 10097.1 439.166  12
  -8 -13  -4 154.408 89.4205  18
  -8 -13  -4 137.901 100.527  12
  -8 -13  -5 2212.89 190.005  18
  -8 -13  -5 2346.96 211.223  12
  -8 -13  -6 1146.07 148.897  12
  -9   8   3 2126.59 190.574   7
  -9   8   2 552.317 118.926   7
  -9   8   1 262.604 105.363   7
  -9   8   0 70.3274 76.6900  19
  -9   8   0 65.4687 92.0500   7
  -9   8  -1 148.140 103.277  19
  -9   8  -1 163.345 99.3002   7
  -9   8  -2 4792.95 320.490  19
  -9   8  -2 4084.49 270.265   7
  -9   8  -3 351.031 130.343  19
  -9   8  -3 239.892 86.6510   7
  -9   8  -4 951.147 159.375  19
  -9   8  -5 3890.35 263.300  19
  -9   7   4 3407.87 251.354   7
  -9   7   3 4429.50 309.688   7
  -9   7   2 1358.66 172.586  19
  -9   7   2 1299.96 194.271   7
  -9   7   1 5770.84 353.991  19
  -9   7   1 6591.97 394.384   7
  -9   7   0 1013.31 178.493  19
  -9   7   0 815.882 175.457   7
  -9   7  -1 5302.44 370.932  19
  -9   7  -1 4999.65 341.862   7
  -9   7  -2-68.3642 121.273  19
  -9   7  -2-83.7218 107.055   7
  -9   7  -3 430.722 145.762  19
  -9   7  -3 387.355 122.020   7
  -9   7  -4 473.509 153.092  19
  -9   7  -5 1379.01 198.579  19
  -9   7  -6 25.7566 105.632  19
  -9   6   4 6088.92 364.279   7
  -9   6   3 38.0558 105.028   7
  -9   6   2 11408.4 515.993  19
  -9   6   2 14882.4 614.841   7
  -9   6   1 6015.94 404.847  19
  -9   6   1 6509.08 423.229   7
  -9   6   0 125.358 133.415  19
  -9   6   0 77.7741 117.383   7
  -9   6  -1 3155.65 319.331  19
  -9   6  -1 3422.92 313.974   7
  -9   6  -2 11895.2 601.632  19
  -9   6  -2 12265.8 543.907   7
  -9   6  -3 4601.24 389.391  19
  -9   6  -3 4271.52 313.631   7
  -9   6  -4 1754.64 248.004  19
  -9   6  -5 288.166 143.193  19
  -9   6  -6 8956.55 456.353  19
  -9   6  -7 254.686 121.501  19
  -9   5   7 2659.96 210.966  10
  -9   5   6 2155.52 221.575  10
  -9   5   5 1387.27 208.184  10
  -9   5   4 1916.36 256.971  10
  -9   5   4 1421.09 211.093   7
  -9   5   3 14063.3 573.466  19
  -9   5   3 19481.3 714.465   7
  -9   5   2 127.602 113.878  19
  -9   5   2 505.312 174.487   7
  -9   5   1 6921.11 463.792  19
  -9   5   1 7771.39 481.428   7
  -9   5   0 1157.98 235.168  19
  -9   5   0 1206.66 229.084   7
  -9   5  -1 46316.2 1212.97  19
  -9   5  -1 45729.8 1111.02   7
  -9   5  -2 747.690 225.813  19
  -9   5  -2 577.771 166.294   7
  -9   5  -3 4144.61 383.954  19
  -9   5  -3 3987.68 317.388   7
  -9   5  -4 698.632 199.916  19
  -9   5  -5 14746.2 654.519  19
  -9   5  -6 11983.5 557.080  19
  -9   5  -7 109.836 123.281  19
  -9   5  -8 21.9766 85.5388  19
  -9   4   7 827.177 144.543  10
  -9   4   6 392.176 127.399  10
  -9   4   5 658.657 157.198  10
  -9   4   4 748.955 189.669  10
  -9   4   4 438.530 156.959   7
  -9   4   3 541.800 202.844  10
  -9   4   3 154.570 141.986   7
  -9   4   2 2250.88 279.695  19
  -9   4   2 2654.75 305.375   7
  -9   4   1 145.779 146.781  19
  -9   4   1 154.717 152.953   7
  -9   4   0 10475.1 602.081  19
  -9   4   0 10344.8 566.155   7
  -9   4  -1 5170.12 442.970  19
  -9   4  -1 3742.96 355.229   7
  -9   4  -2 11675.6 644.714  19
  -9   4  -2 10075.8 538.599   7
  -9   4  -3 4154.46 400.071  19
  -9   4  -3 3933.19 330.693   7
  -9   4  -4 19882.4 814.668  19
  -9   4  -5 1198.73 238.002  19
  -9   4  -6 1737.32 249.151  19
  -9   4  -7 1072.34 193.755  19
  -9   4  -8 9728.46 439.342  19
  -9   4  -9 376.475 115.256   8
  -9   3   7 1063.22 161.362  10
  -9   3   6 693.928 149.403  10
  -9   3   5 308.077 145.432  10
  -9   3   4 12593.1 581.718  10
  -9   3   4 10939.4 533.860  19
  -9   3   3 2752.02 318.187  10
  -9   3   3 2335.46 300.624   7
  -9   3   2 7818.61 498.679  10
  -9   3   2 6398.00 469.212  19
  -9   3   2 7152.87 489.940   7
  -9   3   1 1753.73 280.960  19
  -9   3   1 1596.08 264.244   7
  -9   3   0 1137.35 251.210  19
  -9   3   0 927.384 219.566   7
  -9   3  -1 16914.3 787.771  19
  -9   3  -1 15624.5 692.884   7
  -9   3  -2 56.6685 166.697  19
  -9   3  -2-3.18824 124.171   7
  -9   3  -3 6138.73 490.066  19
  -9   3  -3 5982.30 411.182   7
  -9   3  -4 2023.69 314.253  19
  -9   3  -5 16386.9 731.710  19
  -9   3  -6 630.674 182.738  19
  -9   3  -7 23457.5 774.370  19
  -9   3  -8 138.969 106.614  19
  -9   3  -8 95.3648 113.366   8
  -9   3  -9 923.865 168.417   8
  -9   3 -10 456.046 124.005   8
  -9   2   7 6592.81 346.209  10
  -9   2   6 3387.78 285.345  10
  -9   2   5 9388.50 480.098  10
  -9   2   4 2730.84 285.597  10
  -9   2   4 1281.21 203.947  19
  -9   2   3 427.332 160.434  10
  -9   2   2 3648.20 356.800  10
  -9   2   2 3397.59 372.478  19
  -9   2   2 3679.71 380.502   7
  -9   2   1 5793.14 481.090  19
  -9   2   1 5059.00 424.354   7
  -9   2   0 3784.69 402.090  19
  -9   2   0 3566.38 360.477   7
  -9   2  -1 3200.02 387.423  19
  -9   2  -1 3002.87 337.312   7
  -9   2  -2 312.688 205.816  19
  -9   2  -2 401.751 157.016   7
  -9   2  -3 377.796 209.066  19
  -9   2  -3 241.864 126.682   7
  -9   2  -4 25460.7 957.032  19
  -9   2  -5 1315.99 258.511  19
  -9   2  -6 1386.34 240.481  19
  -9   2  -7 3300.91 319.414  19
  -9   2  -7 3527.20 326.407   8
  -9   2  -8 32142.8 843.783  19
  -9   2  -8 29274.8 882.074   8
  -9   2  -9 332.782 143.409   8
  -9   2 -10 6143.14 373.834   8
  -9   2 -11 289.079 106.593   8
  -9   1   7 4038.36 283.750   9
  -9   1   6 12280.3 498.255  10
  -9   1   6 14590.0 513.926   9
  -9   1   5 1999.96 234.949  10
  -9   1   4 21182.1 729.896  10
  -9   1   4 20553.9 787.516  19
  -9   1   3-231.139 238.809  19
  -9   1   3-208.452 170.178  15
  -9   1   2 15945.8 674.114  10
  -9   1   2 16545.6 790.307  19
  -9   1   2 15491.2 649.821  15
  -9   1   1 4797.42 452.547  19
  -9   1   1 4677.38 416.280   7
  -9   1   0 5613.49 490.200  19
  -9   1   0 5185.41 429.147   7
  -9   1  -1 11168.3 674.150  19
  -9   1  -1 10822.6 595.722   7
  -9   1  -2 2005.56 324.906  19
  -9   1  -2 1674.39 246.361   7
  -9   1  -3 413.133 186.198  19
  -9   1  -4 193.089 164.973  19
  -9   1  -5 926.462 233.282  19
  -9   1  -6 97.5548 144.920  19
  -9   1  -6 6.63098 111.207   8
  -9   1  -7 7355.23 459.183  19
  -9   1  -7 6443.98 449.527   8
  -9   1  -8 8486.58 451.600  19
  -9   1  -8 8737.59 519.389   8
  -9   1  -9 1666.25 243.129   8
  -9   1 -10 194.427 129.015   8
  -9   1 -11 4366.08 307.741   8
  -9   0   8 1816.44 203.390   9
  -9   0   7 10190.7 434.210   9
  -9   0   6 1285.15 206.353   9
  -9   0   6 6630.29 376.880  15
  -9   0   5 10778.9 533.624  19
  -9   0   5 12397.4 528.282  15
  -9   0   4 4080.73 380.076  19
  -9   0   4 4745.42 363.172  15
  -9   0   3 8725.34 565.062  19
  -9   0   3 9363.45 520.554  15
  -9   0   2 853.704 241.501  19
  -9   0   2 1023.47 208.114  15
  -9   0   1 8727.01 606.226  19
  -9   0   0 2303.72 356.679  19
  -9   0  -1 13345.5 745.173  19
  -9   0  -2 21.9623 179.883  19
  -9   0  -3 14528.6 758.464  19
  -9   0  -4 950.838 243.130  19
  -9   0  -5 895.153 228.842  19
  -9   0  -6 1219.13 234.058  19
  -9   0  -6 1247.39 220.690   8
  -9   0  -7 14990.9 660.267  19
  -9   0  -7 13380.5 659.228   8
  -9   0  -8 275.820 151.923   8
  -9   0  -9 243.748 156.635   8
  -9   0 -10 2590.72 276.093   8
  -9   0 -11 10561.0 480.183   8
  -9   0 -12 5012.87 296.771   8
  -9  -1   9 4487.77 248.440   9
  -9  -1   8 1092.84 170.995   9
  -9  -1   7 1916.42 218.275   9
  -9  -1   6 3949.68 307.840   9
  -9  -1   6 9790.90 474.671  15
  -9  -1   5 10829.2 554.052  19
  -9  -1   5 10948.2 524.729  15
  -9  -1   4 5600.70 452.375  19
  -9  -1   4 5480.56 406.794  15
  -9  -1   3 2340.83 318.694  19
  -9  -1   3 2714.42 314.662  15
  -9  -1   2 17391.2 824.780  19
  -9  -1   2 18954.2 774.376  15
  -9  -1   1 2304.75 350.180  19
  -9  -1   0 14912.4 790.904  19
  -9  -1  -1 2380.74 355.068  19
  -9  -1  -2 34927.2 1180.62  19
  -9  -1  -3 998.756 274.920  19
  -9  -1  -4 20398.6 875.544  19
  -9  -1  -5 369.580 178.911  19
  -9  -1  -5 409.541 158.982   8
  -9  -1  -6 1827.46 266.487  19
  -9  -1  -6 2401.93 305.725   8
  -9  -1  -7 1343.66 223.080  19
  -9  -1  -7 2041.73 295.384   8
  -9  -1  -8 13456.8 660.141   8
  -9  -1  -9 890.602 202.689   8
  -9  -1 -10 139.338 125.756   8
  -9  -1 -11 128.874 115.117   8
  -9  -1 -12 105.071 96.1069   8
  -9  -2   9 2872.91 212.211   9
  -9  -2   8-168.721 140.947   9
  -9  -2   7 74.6903 130.941   9
  -9  -2   6 141.780 112.207   9
  -9  -2   6 6114.29 413.530  15
  -9  -2   5 1438.34 211.810   9
  -9  -2   5 3588.31 345.051  15
  -9  -2   4 2988.26 379.338  19
  -9  -2   4 1284.24 225.678  15
  -9  -2   3 30.2928 188.303  19
  -9  -2   3 27.4565 187.633  15
  -9  -2   2 1762.14 290.848  19
  -9  -2   2 1767.04 282.070  15
  -9  -2   1 23695.3 995.491  19
  -9  -2   0 674.768 228.666  19
  -9  -2  -1 10117.9 658.234  19
  -9  -2  -2 10885.1 678.924  19
  -9  -2  -3 40919.8 1272.29  19
  -9  -2  -4-76.3706 235.009  19
  -9  -2  -4 122.763 114.109   8
  -9  -2  -5 16402.7 762.007  19
  -9  -2  -5 16955.9 751.745   8
  -9  -2  -6 244.320 224.784  19
  -9  -2  -6 1301.20 248.295   8
  -9  -2  -7 42886.5 1089.48  19
  -9  -2  -7 42208.2 1183.53   8
  -9  -2  -8 2296.62 297.309   8
  -9  -2  -9 6195.40 443.423   8
  -9  -2 -10 131.157 133.669   8
  -9  -2 -11 9963.20 482.753   8
  -9  -2 -12 125.833 99.1091   8
  -9  -3   9 7370.93 308.305   9
  -9  -3   7 12271.2 487.665   9
  -9  -3   6 633.894 148.829   9
  -9  -3   6 7705.68 460.410  15
  -9  -3   5 1008.50 172.251   9
  -9  -3   5 3709.01 346.716  15
  -9  -3   4 24.8210 112.331   9
  -9  -3   4-74.0587 164.034  15
  -9  -3   3 2202.75 376.713  19
  -9  -3   3 73.5656 166.579  15
  -9  -3   2 4645.49 464.177  19
  -9  -3   2 4440.04 410.697  15
  -9  -3   1 3077.65 379.978  19
  -9  -3   0 376.949 247.805  19
  -9  -3  -1 5247.89 488.147  19
  -9  -3  -2 54434.5 1474.91  19
  -9  -3  -3 2078.32 319.218  19
  -9  -3  -4 4227.27 426.772  19
  -9  -3  -4 4624.98 406.389   8
  -9  -3  -5 1160.09 235.331  19
  -9  -3  -5 2216.58 302.167   8
  -9  -3  -6 34591.7 1040.19  19
  -9  -3  -6 36672.3 1114.34   8
  -9  -3  -7 4599.41 408.251   8
  -9  -3  -8 3514.65 359.026   8
  -9  -3  -9 1860.29 270.672   8
  -9  -3 -10 7605.82 462.014   8
  -9  -3 -11 77.9413 111.331   8
  -9  -3 -12 3431.02 254.857   8
  -9  -4   8 14837.2 479.089   9
  -9  -4   7 720.648 143.985   9
  -9  -4   6 318.075 122.233   9
  -9  -4   6 7405.97 453.297  15
  -9  -4   5 485.663 139.823   9
  -9  -4   5 3609.36 361.108  15
  -9  -4   4 4788.12 345.935   9
  -9  -4   4 6380.61 447.384  15
  -9  -4   3 4925.36 545.070  19
  -9  -4   3 179.199 171.548  15
  -9  -4   2 4847.34 504.325  19
  -9  -4   2 2213.43 311.345  15
  -9  -4   1 1095.08 343.938  19
  -9  -4   0 281.152 262.125  19
  -9  -4  -1 1513.45 301.453  19
  -9  -4  -2-517.221 344.097  19
  -9  -4  -3-469.967 232.117  19
  -9  -4  -3 639.046 173.835   8
  -9  -4  -4 1909.48 281.451  19
  -9  -4  -4 2558.95 308.867   8
  -9  -4  -5 18404.3 789.959  19
  -9  -4  -5 19507.9 808.478   8
  -9  -4  -6 218.308 193.125  19
  -9  -4  -6 729.854 216.174   8
  -9  -4  -7 9781.72 578.530   8
  -9  -4  -8 881.332 204.780   8
  -9  -4  -9 26263.6 865.159   8
  -9  -4 -10 3320.07 305.890   8
  -9  -4 -11 7514.25 410.502   8
  -9  -4 -12 1385.46 172.883   8
  -9  -5   8 228.366 90.5877   9
  -9  -5   7 30140.7 730.727   9
  -9  -5   6 1425.28 192.116   9
  -9  -5   6 9090.27 503.811  15
  -9  -5   5 6757.35 398.114   9
  -9  -5   5 10769.8 539.630  15
  -9  -5   4 113.637 106.891   9
  -9  -5   4 906.402 244.327  15
  -9  -5   3 18472.0 659.532   9
  -9  -5   3 25251.6 887.532  15
  -9  -5   2 8664.60 645.367  19
  -9  -5   2 555.913 212.773  15
  -9  -5   1 1402.12 267.597  15
  -9  -5   1 1295.97 214.953  12
  -9  -5   0 8934.20 637.807  19
  -9  -5   0 6313.57 426.139  12
  -9  -5  -1 1840.44 368.762  19
  -9  -5  -1 598.311 164.736  12
  -9  -5  -2 2844.27 385.277  19
  -9  -5  -2 1922.81 268.328  12
  -9  -5  -3 1319.17 295.878  19
  -9  -5  -3 728.012 185.596   8
  -9  -5  -4 520.977 260.856  19
  -9  -5  -4 186.694 162.229   8
  -9  -5  -5 7618.46 508.098  19
  -9  -5  -5 6807.74 492.794   8
  -9  -5  -6 1940.91 278.105  19
  -9  -5  -6 997.343 224.484   8
  -9  -5  -7 459.724 186.425   8
  -9  -5  -8 3688.66 356.271   8
  -9  -5  -9 3273.14 314.123   8
  -9  -5 -10 2325.09 259.269   8
  -9  -5 -11 1853.15 211.368   8
  -9  -5 -12 5462.02 291.036   8
  -9  -6   8 5222.53 259.097   9
  -9  -6   7 1723.55 181.546   9
  -9  -6   6 1158.16 172.890   9
  -9  -6   6 10790.1 513.559  15
  -9  -6   5 87.8415 100.675   9
  -9  -6   5 5901.71 417.832  15
  -9  -6   4 4898.11 342.181   9
  -9  -6   4 7645.36 464.974  15
  -9  -6   3 189.261 125.758   9
  -9  -6   3-4.72962 166.565  15
  -9  -6   3 39.3681 110.655  12
  -9  -6   2 9907.51 566.849  15
  -9  -6   2 9643.78 521.124  12
  -9  -6   1 3029.39 347.266  15
  -9  -6   1 2757.52 298.117  12
  -9  -6   0 11050.6 610.078  15
  -9  -6   0 9356.56 526.210  12
  -9  -6  -1 6959.39 573.836  19
  -9  -6  -1 925.725 205.222  12
  -9  -6  -2 14793.2 663.272   8
  -9  -6  -2 14167.2 664.761  12
  -9  -6  -3 6051.29 501.834  19
  -9  -6  -3 2121.30 286.553   8
  -9  -6  -4 7533.81 510.774  19
  -9  -6  -4 4456.56 400.648   8
  -9  -6  -5 3369.43 394.280  19
  -9  -6  -5 1674.99 267.213   8
  -9  -6  -6 4681.29 414.975   8
  -9  -6  -7 2476.09 305.039   8
  -9  -6  -8 2769.58 304.285   8
  -9  -6  -9 6891.50 430.009   8
  -9  -6 -10 187.536 123.311   8
  -9  -6 -11 958.605 159.201   8
  -9  -7   7 385.707 99.7840   9
  -9  -7   6 3529.79 257.978   9
  -9  -7   5 710.649 143.915   9
  -9  -7   5 950.418 160.522  12
  -9  -7   4 1838.35 215.802   9
  -9  -7   4 2424.14 254.062  12
  -9  -7   3 5034.93 391.337  15
  -9  -7   3 4059.57 340.232  12
  -9  -7   2 8736.78 513.993  15
  -9  -7   2 9290.80 500.658  12
  -9  -7   1 32731.9 978.323  15
  -9  -7   1 31807.3 943.295  12
  -9  -7   0 1619.10 269.812  15
  -9  -7   0 1743.76 250.797  12
  -9  -7  -1 13764.5 606.207   8
  -9  -7  -1 13491.3 644.066  12
  -9  -7  -2 1972.59 265.493   8
  -9  -7  -2 1835.93 279.901  12
  -9  -7  -3 14158.7 663.375   8
  -9  -7  -4-135.123 162.718   8
  -9  -7  -5 9588.69 563.756   8
  -9  -7  -6 9286.06 544.367   8
  -9  -7  -7 139.824 140.853   8
  -9  -7  -8 1732.73 250.597   8
  -9  -7  -9 655.442 173.433   8
  -9  -7 -10 1857.29 209.217   8
  -9  -7 -11-72.1394 89.5446   8
  -9  -8   6 145.770 80.6312   9
  -9  -8   5 1043.59 152.676   9
  -9  -8   5 1293.66 170.307  12
  -9  -8   4 1227.35 172.632   9
  -9  -8   4 1734.58 223.906  12
  -9  -8   3 116.785 101.138   9
  -9  -8   3 65.5611 110.675  12
  -9  -8   2 4852.27 366.234  15
  -9  -8   2 4812.83 362.046  12
  -9  -8   1 1210.92 212.110  15
  -9  -8   1 1614.56 240.464  12
  -9  -8   0 2102.60 270.186  15
  -9  -8   0 2593.52 289.851  12
  -9  -8  -1 1152.73 200.451   8
  -9  -8  -1 535.504 171.083  15
  -9  -8  -1 943.932 206.779  12
  -9  -8  -2 17829.8 701.627   8
  -9  -8  -2 18487.0 700.823  15
  -9  -8  -2 17734.4 731.496  12
  -9  -8  -3 954.335 210.915   8
  -9  -8  -3 1115.12 221.023  12
  -9  -8  -4 24237.5 839.138   8
  -9  -8  -5 103.615 146.763   8
  -9  -8  -6 18151.2 719.394   8
  -9  -8  -7 769.709 185.581   8
  -9  -8  -8 16633.1 639.132   8
  -9  -8  -9 117.774 114.438   8
  -9  -8 -10 81.3308 93.2484   8
  -9  -9   5 88.2703 74.7583   9
  -9  -9   5 57.8817 81.2431  12
  -9  -9   4 4602.86 276.252   9
  -9  -9   4 5688.80 344.201  12
  -9  -9   3 373.575 104.822   9
  -9  -9   3 591.355 148.494  12
  -9  -9   2 5369.87 350.237  15
  -9  -9   2 3076.32 283.125  12
  -9  -9   1 6965.25 397.030  15
  -9  -9   1 6523.53 418.589  12
  -9  -9   0 2078.41 245.888  15
  -9  -9   0 2471.64 269.192  12
  -9  -9  -1 428.257 143.245   8
  -9  -9  -1 284.266 149.166  12
  -9  -9  -2 1342.96 212.548   8
  -9  -9  -2 1427.02 222.392  12
  -9  -9  -3 5679.36 401.555   8
  -9  -9  -3 5164.38 347.664  15
  -9  -9  -3 5907.23 407.527  12
  -9  -9  -4 2610.88 289.419   8
  -9  -9  -4 2016.86 226.428  15
  -9  -9  -4 2725.57 286.297  12
  -9  -9  -5 8358.95 481.204   8
  -9  -9  -5 8316.15 397.781  15
  -9  -9  -6 3087.44 298.724   8
  -9  -9  -7 2668.47 274.633   8
  -9  -9  -8 821.588 164.074   8
  -9  -9  -9 13492.2 489.721   8
  -9 -10   4 254.182 101.459  12
  -9 -10   3 238.658 81.1791   9
  -9 -10   3 246.117 113.585  12
  -9 -10   2 3149.05 261.101  15
  -9 -10   2 389.813 121.926  12
  -9 -10   1 4733.72 298.355  15
  -9 -10   1 2639.29 261.308  12
  -9 -10   0 2014.01 213.532  15
  -9 -10   0 1123.92 187.541  12
  -9 -10  -1 2462.03 228.402  15
  -9 -10  -1 2597.74 265.524  12
  -9 -10  -2 322.109 133.887   8
  -9 -10  -2 444.299 161.844  12
  -9 -10  -3 1006.26 184.117   8
  -9 -10  -3 931.343 184.939  12
  -9 -10  -4 5650.31 372.108   8
  -9 -10  -4 5466.04 375.697  12
  -9 -10  -5 126.776 117.052   8
  -9 -10  -5 135.189 121.712  12
  -9 -10  -6 1228.86 191.085   8
  -9 -10  -6 1216.35 189.208  12
  -9 -10  -7 377.259 128.552   8
  -9 -10  -8 23386.6 626.101   8
  -9 -11   3 130.444 83.2199  12
  -9 -11   2 14456.4 499.343  12
  -9 -11   1 3323.09 258.837  12
  -9 -11   0 570.501 141.258  12
  -9 -11  -1 1070.18 173.378  12
  -9 -11  -2 10772.3 475.344  12
  -9 -11  -3 903.318 167.729  12
  -9 -11  -4 8118.86 402.374   8
  -9 -11  -4 8349.09 400.467  12
  -9 -11  -5 195.632 106.015   8
  -9 -11  -5 193.333 107.170  12
  -9 -11  -6 563.422 127.635   8
  -9 -11  -6 353.862 110.734  12
  -9 -11  -7 2824.44 217.619   8
  -9 -11  -7 2694.20 210.644  12
  -9 -12   0-16.9064 76.8124  12
  -9 -12  -1 8180.38 360.301  12
  -9 -12  -2 450.819 116.022  12
  -9 -12  -3 6166.07 311.592  12
  -9 -12  -4 120.155 84.4250  12
 -10   5   0 1566.54 193.819  19
 -10   5  -1 365.295 129.168  19
 -10   5  -2 8002.90 414.907  19
 -10   5  -3 694.714 157.126  19
 -10   5  -4 5635.55 333.010  19
 -10   5  -5 3685.80 256.820  19
 -10   4   1-119.763 171.322  19
 -10   4   0 587.632 158.297  19
 -10   4  -1 5097.10 364.172  19
 -10   4  -2 1388.80 218.052  19
 -10   4  -3 7873.38 442.387  19
 -10   4  -4 582.913 155.109  19
 -10   4  -5 7057.18 383.572  19
 -10   4  -6 3693.82 263.212  19
 -10   3   1 624.007 155.488  19
 -10   3   0-31.0067 189.826  19
 -10   3  -1 3773.61 340.371  19
 -10   3  -2 508.275 166.263  19
 -10   3  -3 3604.42 333.887  19
 -10   3  -4 223.674 141.157  19
 -10   3  -5 2539.24 260.398  19
 -10   3  -6 2637.50 248.151  19
 -10   2   3 549.230 156.316  19
 -10   2   2 6649.57 406.389  19
 -10   2   1 2581.94 284.105  19
 -10   2   0 7740.34 486.178  19
 -10   2  -1 16.9573 214.218  19
 -10   2  -2 3993.00 375.270  19
 -10   2  -3 1829.99 258.972  19
 -10   2  -4 8375.37 482.916  19
 -10   2  -5 1002.59 199.812  19
 -10   2  -6 1781.10 220.273  19
 -10   2  -7 2062.75 205.246  19
 -10   1   3 26913.8 748.560  19
 -10   1   2 813.240 195.224  19
 -10   1   1 3495.92 335.802  19
 -10   1   0-514.758 270.129  19
 -10   1  -1 13677.2 662.753  19
 -10   1  -1 12546.7 518.668  15
 -10   1  -2 8692.34 538.784  19
 -10   1  -3-208.603 227.559  19
 -10   1  -4 1305.53 241.299  19
 -10   1  -5 423.033 156.456  19
 -10   1  -6-368.490 208.580  19
 -10   0   4 11534.4 452.940  19
 -10   0   3 1997.37 256.518  19
 -10   0   3 2350.04 223.379  15
 -10   0   2 4784.17 381.413  19
 -10   0   2 4132.60 293.936  15
 -10   0   1 70.1844 192.530  19
 -10   0   1-370.475 200.319  15
 -10   0   0 29670.7 976.003  19
 -10   0   0 29397.1 823.515  15
 -10   0  -1-288.809 221.520  19
 -10   0  -2 10469.7 588.831  19
 -10   0  -3-625.384 222.292  19
 -10   0  -4 30994.6 949.709  19
 -10   0  -5 3000.49 305.666  19
 -10   0  -6 5474.18 371.451  19
 -10   0  -7 567.719 130.589  19
 -10  -1   4 3287.06 262.029  15
 -10  -1   3 2708.45 303.501  19
 -10  -1   3 897.591 179.757  15
 -10  -1   2 894.166 221.509  19
 -10  -1   1 10221.3 566.139  19
 -10  -1   1 10286.8 506.078  15
 -10  -1   0-443.004 251.909  19
 -10  -1  -1 2988.81 340.012  19
 -10  -1  -2 845.909 215.603  19
 -10  -1  -3 25681.8 898.400  19
 -10  -1  -4 1664.82 255.230  19
 -10  -1  -5 2375.44 275.773  19
 -10  -1  -6 8418.01 448.564  19
 -10  -1  -7 11510.5 458.321  19
 -10  -1  -7 12032.4 471.867   8
 -10  -1  -8 461.797 117.426   8
 -10  -2   4 5562.28 333.941  15
 -10  -2   3 6533.52 414.843  19
 -10  -2   3 2411.16 253.531  15
 -10  -2   2 4534.03 381.138  19
 -10  -2   2 1821.70 225.856  15
 -10  -2   1 1321.23 268.405  19
 -10  -2   1 248.918 155.528  15
 -10  -2   0 1645.61 281.405  19
 -10  -2   0 1209.84 216.262  15
 -10  -2  -1 6852.38 492.012  19
 -10  -2  -2 5295.23 431.274  19
 -10  -2  -3 89.5634 233.248  19
 -10  -2  -4 5922.98 434.711  19
 -10  -2  -5-104.941 174.750  19
 -10  -2  -6 6435.09 389.655  19
 -10  -2  -7 1085.20 169.465   8
 -10  -2  -8 6392.52 353.573   8
 -10  -2  -9 89.8525 89.0201   8
 -10  -3   5 8048.57 363.040  15
 -10  -3   4 17367.9 562.439  15
 -10  -3   3 1394.96 216.202  15
 -10  -3   2 5250.00 441.425  19
 -10  -3   2 623.955 161.184  15
 -10  -3   1 2318.22 360.071  19
 -10  -3   1-365.538 166.505  15
 -10  -3   0 2580.68 330.609  19
 -10  -3   0 288.361 159.578  15
 -10  -3  -1 2730.80 358.263  19
 -10  -3  -2 606.586 226.763  19
 -10  -3  -3 214.913 180.256  19
 -10  -3  -4 234.260 178.094  19
 -10  -3  -5 1657.50 243.717  19
 -10  -3  -6 1253.97 216.749  19
 -10  -3  -6 725.308 151.764   8
 -10  -3  -7 8063.27 416.808   8
 -10  -3  -8 599.149 146.611   8
 -10  -3  -9 6884.35 342.172   8
 -10  -4   5 20349.7 549.058  15
 -10  -4   4 6703.87 367.923  15
 -10  -4   3 10030.2 468.996  15
 -10  -4   2 7266.09 429.250  15
 -10  -4   1 26393.2 844.489  19
 -10  -4   1 22044.3 752.885  15
 -10  -4   0 5260.67 439.502  19
 -10  -4  -1 17269.0 746.060  19
 -10  -4  -1 16652.7 676.265  15
 -10  -4  -2 1529.54 313.613  19
 -10  -4  -3 3462.37 374.013  19
 -10  -4  -4 2548.82 309.858  19
 -10  -4  -5 1696.73 265.829  19
 -10  -4  -5-59.3952 116.268   8
 -10  -4  -6 2014.65 250.609  19
 -10  -4  -6 68.2692 103.256   8
 -10  -4  -7 4728.34 323.214   8
 -10  -4  -8 2800.25 248.102   8
 -10  -4  -9 688.600 133.059   8
 -10  -5   4 9495.09 422.241  15
 -10  -5   3 2433.04 257.126  15
 -10  -5   2 31538.3 839.092  15
 -10  -5   1 2491.57 278.524  15
 -10  -5   0 2756.66 302.735  15
 -10  -5  -1 8020.37 504.507  19
 -10  -5  -1 57.9567 164.549  15
 -10  -5  -2 22253.0 784.933  19
 -10  -5  -3 4513.72 409.207  19
 -10  -5  -4 9133.83 476.295  19
 -10  -5  -5 501.781 134.631   8
 -10  -5  -6 13403.2 537.881   8
 -10  -5  -7-94.9854 108.791   8
 -10  -5  -8 309.502 111.564   8
 -10  -5  -9 12.0263 76.1706   8
 -10  -6   4 13229.0 460.287  15
 -10  -6   3 14200.2 510.100  15
 -10  -6   2 948.375 198.295  15
 -10  -6   1 5059.39 356.692  15
 -10  -6   0-433.786 205.077  15
 -10  -6  -1 25199.1 778.389  15
 -10  -6  -2-89.6597 177.112  15
 -10  -6  -3 19224.4 601.430  12
 -10  -6  -4 381.348 125.650   8
 -10  -6  -4 1.74610 90.0287  12
 -10  -6  -5 9233.50 436.434   8
 -10  -6  -5 9112.96 413.357  12
 -10  -6  -6 2005.55 217.296   8
 -10  -6  -6 1625.12 182.285  12
 -10  -6  -7 2097.80 216.521   8
 -10  -6  -7 1865.31 178.865  12
 -10  -6  -8 3.41441 93.6201   8
 -10  -7   3 6097.07 333.485  15
 -10  -7   2 4223.96 291.130  15
 -10  -7   1 3538.61 283.686  15
 -10  -7   0-229.078 164.453  15
 -10  -7   0 148.705 92.8474  12
 -10  -7  -1-387.581 192.679  15
 -10  -7  -1-293.472 129.724  12
 -10  -7  -2 16768.3 600.620  15
 -10  -7  -2 15859.4 545.149  12
 -10  -7  -3 528.224 159.600  15
 -10  -7  -3 522.595 134.209  12
 -10  -7  -4 6718.59 353.768   8
 -10  -7  -4 6448.32 369.367  15
 -10  -7  -4 6163.93 342.865  12
 -10  -7  -5 301.503 121.187   8
 -10  -7  -5 148.612 94.3728  12
 -10  -7  -6 10976.7 447.907   8
 -10  -7  -6 10372.5 414.304  12
 -10  -7  -7-150.538 115.981   8
 -10  -7  -7 180.000 74.4733  12
 -10  -8   2 4303.37 279.546  15
 -10  -8   1 6213.80 322.667  15
 -10  -8   0 642.686 154.748  15
 -10  -8   0 260.834 105.197  12
 -10  -8  -1 4319.59 289.479  15
 -10  -8  -1 4799.82 295.478  12
 -10  -8  -2 2418.56 226.608  15
 -10  -8  -2 3597.69 265.220  12
 -10  -8  -3 345.254 128.998  15
 -10  -8  -3 863.025 149.614  12
 -10  -8  -4 252.270 105.248   8
 -10  -8  -4 121.844 85.7574  12
 -10  -8  -5 12381.7 452.570   8
 -10  -8  -5 11034.7 395.492  15
 -10  -8  -5 12368.0 448.002  12
 -10  -8  -6 145.616 89.0995   8
 -10  -8  -6 15.7143 78.5039  12
 -10  -9  -1 5556.68 291.854  12
 -10  -9  -2 70.2435 82.0397  12
 -10  -9  -3 389.356 111.128  12
 -10  -9  -4 6176.17 305.014  12
 -11   0  -1 2282.63 221.716  19
 -11   0  -2 2057.44 218.914  19
 -11   0  -3 19489.9 555.422  19
 -11  -1   0 3460.47 262.819  19
 -11  -1  -1 2625.68 247.326  19
 -11  -1  -2 8787.67 397.555  19
 -11  -1  -3 4219.31 287.857  19
 -11  -2  -1 3894.50 292.382  19
 -11  -2  -2 3417.53 277.577  19
 -11  -2  -3 2828.12 254.366  19
 -11  -3  -1 465.737 116.179  15
 -11  -3  -3 592.132 131.414  15
 -11  -4  -2 13530.7 454.246  15
   0   0   0    0.00    0.00   0
TITL tpst-Ag in P-1
REM P-1 (#2 in standard setting)
CELL 1.54184   8.967275  14.735531  15.183238  86.3745  84.0813  83.4509
ZERR   19.00   0.000242   0.000605   0.000598   0.0033   0.0027   0.0028
LATT  1
SFAC C H N O F S Ag
UNIT 19.00 19.00 19.00 19.00 19.00 19.00 19.00
TREF
HKLF 4
END
;
_shelx_hkl_checksum              96161
_shelx_fab_file
;
    0    0    2    -69.52      0.00
    0    0    3    -55.99      0.00
    0    0    4      9.34      0.00
    0    0    5      4.53      0.00
    0    0    6     -8.44      0.00
    0    0    7     -9.81      0.00
    0    0    8    -28.39      0.00
    0    0    9    -29.42      0.00
    0    0   10      9.15      0.00
    0    0   11     29.07      0.00
    0    0   12      8.03      0.00
    0    0   13     -7.74      0.00
    0    0   14     -1.67      0.00
    0    0   15      2.86      0.00
    0    0   16      1.55      0.00
    0    0   17      3.75      0.00
    0    0   18      4.85      0.00
    0   -1   18      4.67      0.00
    0   -1   17      2.77      0.00
    0   -1   16     -1.28      0.00
    0   -1   15     -0.43      0.00
    0   -1   14     -6.18      0.00
    0   -1   13    -13.23      0.00
    0   -1   12      4.40      0.00
    0   -1   11     24.27      0.00
    0   -1   10      1.21      0.00
    0   -1    9    -34.63      0.00
    0   -1    8    -21.22      0.00
    0   -1    7     11.64      0.00
    0   -1    6      5.79      0.00
    0   -1    5    -10.75      0.00
    0   -1    4    -13.45      0.00
    0   -1    3    -28.44      0.00
    0   -1    2      1.07      0.00
    0   -1    1    131.02      0.00
    0    1    1     35.90      0.00
    0    1    2    -91.32      0.00
    0    1    3    -42.91      0.00
    0    1    4     23.36      0.00
    0    1    5      5.11      0.00
    0    1    6    -30.24      0.00
    0    1    7    -32.14      0.00
    0    1    8    -20.78      0.00
    0    1    9     -8.85      0.00
    0    1   10     11.26      0.00
    0    1   11     20.15      0.00
    0    1   12      9.12      0.00
    0    1   13     -0.87      0.00
    0    1   14     -1.41      0.00
    0    1   15      2.67      0.00
    0    1   16      6.01      0.00
    0    1   17      5.39      0.00
    0    1   18      2.75      0.00
    0   -2   18      3.36      0.00
    0   -2   17      3.08      0.00
    0   -2   16     -1.80      0.00
    0   -2   15     -5.32      0.00
    0   -2   14    -10.74      0.00
    0   -2   13    -13.80      0.00
    0   -2   12     -0.52      0.00
    0   -2   11     12.53      0.00
    0   -2   10     -0.16      0.00
    0   -2    9    -22.41      0.00
    0   -2    8    -15.04      0.00
    0   -2    7     15.00      0.00
    0   -2    6     18.72      0.00
    0   -2    5     -5.09      0.00
    0   -2    4    -14.69      0.00
    0   -2    3      1.22      0.00
    0   -2    2     23.56      0.00
    0   -2    1     39.71      0.00
    0    2    0     36.14      0.00
    0    2    1     -1.97      0.00
    0    2    2    -40.05      0.00
    0    2    3    -35.03      0.00
    0    2    4    -10.01      0.00
    0    2    5     -8.51      0.00
    0    2    6    -27.87      0.00
    0    2    7    -26.70      0.00
    0    2    8     -2.61      0.00
    0    2    9      6.31      0.00
    0    2   10      1.92      0.00
    0    2   11      5.01      0.00
    0    2   12      9.37      0.00
    0    2   13      2.68      0.00
    0    2   14     -5.92      0.00
    0    2   15      0.43      0.00
    0    2   16      9.74      0.00
    0    2   17      5.38      0.00
    0    2   18     -1.31      0.00
    0   -3   18      1.28      0.00
    0   -3   17      3.59      0.00
    0   -3   16      0.05      0.00
    0   -3   15     -7.68      0.00
    0   -3   14    -11.55      0.00
    0   -3   13     -9.56      0.00
    0   -3   12     -3.48      0.00
    0   -3   11      3.98      0.00
    0   -3   10      6.42      0.00
    0   -3    9     -5.96      0.00
    0   -3    8    -14.73      0.00
    0   -3    7     13.25      0.00
    0   -3    6     42.19      0.00
    0   -3    5     18.24      0.00
    0   -3    4    -19.01      0.00
    0   -3    3    -10.10      0.00
    0   -3    2      1.14      0.00
    0   -3    1    -31.49      0.00
    0    3    0    -31.58      0.00
    0    3    1     15.41      0.00
    0    3    2     -1.46      0.00
    0    3    3    -61.76      0.00
    0    3    4    -49.11      0.00
    0    3    5      5.97      0.00
    0    3    6     12.06      0.00
    0    3    7     -5.04      0.00
    0    3    8      3.19      0.00
    0    3    9      7.06      0.00
    0    3   10     -5.24      0.00
    0    3   11     -2.46      0.00
    0    3   12      8.32      0.00
    0    3   13      0.18      0.00
    0    3   14    -10.72      0.00
    0    3   15     -0.21      0.00
    0    3   16     10.50      0.00
    0    3   17      2.90      0.00
    0    3   18     -4.22      0.00
    0   -4   17      4.93      0.00
    0   -4   16      4.43      0.00
    0   -4   15     -6.52      0.00
    0   -4   14    -10.40      0.00
    0   -4   13     -4.40      0.00
    0   -4   12     -1.77      0.00
    0   -4   11      3.49      0.00
    0   -4   10     14.16      0.00
    0   -4    9      4.82      0.00
    0   -4    8    -13.18      0.00
    0   -4    7     15.53      0.00
    0   -4    6     57.90      0.00
    0   -4    5     26.60      0.00
    0   -4    4    -36.21      0.00
    0   -4    3    -31.88      0.00
    0   -4    2     -3.60      0.00
    0   -4    1    -27.59      0.00
    0    4    0    -30.06      0.00
    0    4    1     16.38      0.00
    0    4    2     -6.91      0.00
    0    4    3    -70.91      0.00
    0    4    4    -37.28      0.00
    0    4    5     42.61      0.00
    0    4    6     44.82      0.00
    0    4    7      1.98      0.00
    0    4    8     -4.27      0.00
    0    4    9      7.24      0.00
    0    4   10      2.16      0.00
    0    4   11      0.00      0.00
    0    4   12      3.17      0.00
    0    4   13     -5.28      0.00
    0    4   14    -10.14      0.00
    0    4   15      1.28      0.00
    0    4   16      7.28      0.00
    0    4   17     -0.13      0.00
    0    4   18     -3.72      0.00
    0   -5   17      7.38      0.00
    0   -5   16      7.00      0.00
    0   -5   15     -6.41      0.00
    0   -5   14    -10.44      0.00
    0   -5   13      0.04      0.00
    0   -5   12      5.50      0.00
    0   -5   11      8.56      0.00
    0   -5   10     15.15      0.00
    0   -5    9      6.30      0.00
    0   -5    8     -8.20      0.00
    0   -5    7     14.08      0.00
    0   -5    6     45.35      0.00
    0   -5    5     14.53      0.00
    0   -5    4    -40.90      0.00
    0   -5    3    -32.85      0.00
    0   -5    2      6.27      0.00
    0   -5    1     -0.33      0.00
    0    5    0    -15.76      0.00
    0    5    1     -0.57      0.00
    0    5    2    -10.55      0.00
    0    5    3    -34.27      0.00
    0    5    4     -0.98      0.00
    0    5    5     47.76      0.00
    0    5    6     37.43      0.00
    0    5    7     -1.37      0.00
    0    5    8     -5.71      0.00
    0    5    9     13.43      0.00
    0    5   10     15.70      0.00
    0    5   11      3.67      0.00
    0    5   12     -5.11      0.00
    0    5   13     -7.89      0.00
    0    5   14     -4.70      0.00
    0    5   15      0.85      0.00
    0    5   16      1.19      0.00
    0    5   17     -1.40      0.00
    0    5   18     -1.13      0.00
    0   -6   17      6.89      0.00
    0   -6   16      3.47      0.00
    0   -6   15     -7.47      0.00
    0   -6   14     -8.78      0.00
    0   -6   13      4.27      0.00
    0   -6   12     13.02      0.00
    0   -6   11     10.52      0.00
    0   -6   10      5.89      0.00
    0   -6    9      0.29      0.00
    0   -6    8     -3.67      0.00
    0   -6    7      2.99      0.00
    0   -6    6     12.64      0.00
    0   -6    5      1.32      0.00
    0   -6    4    -25.69      0.00
    0   -6    3    -28.12      0.00
    0   -6    2      1.99      0.00
    0   -6    1     20.98      0.00
    0    6    0      8.49      0.00
    0    6    1     -4.48      0.00
    0    6    2     -1.88      0.00
    0    6    3      3.14      0.00
    0    6    4      7.60      0.00
    0    6    5     14.25      0.00
    0    6    6     14.33      0.00
    0    6    7      2.69      0.00
    0    6    8     -1.25      0.00
    0    6    9     13.86      0.00
    0    6   10     20.90      0.00
    0    6   11      4.20      0.00
    0    6   12    -10.58      0.00
    0    6   13     -6.30      0.00
    0    6   14     -0.04      0.00
    0    6   15     -2.78      0.00
    0    6   16     -4.03      0.00
    0    6   17     -0.23      0.00
    0    6   18      1.47      0.00
    0   -7   16     -0.55      0.00
    0   -7   15     -4.05      0.00
    0   -7   14     -4.04      0.00
    0   -7   13      4.66      0.00
    0   -7   12     12.99      0.00
    0   -7   11      5.94      0.00
    0   -7   10     -6.64      0.00
    0   -7    9     -6.69      0.00
    0   -7    8     -1.93      0.00
    0   -7    7    -10.43      0.00
    0   -7    6    -15.83      0.00
    0   -7    5     -4.15      0.00
    0   -7    4     -9.26      0.00
    0   -7    3    -28.43      0.00
    0   -7    2     -4.25      0.00
    0   -7    1     44.10      0.00
    0    7    0     37.49      0.00
    0    7    1     -4.60      0.00
    0    7    2     -7.25      0.00
    0    7    3      9.18      0.00
    0    7    4     -4.14      0.00
    0    7    5    -15.37      0.00
    0    7    6      0.25      0.00
    0    7    7      4.90      0.00
    0    7    8     -4.68      0.00
    0    7    9      5.26      0.00
    0    7   10     18.20      0.00
    0    7   11      5.11      0.00
    0    7   12    -10.09      0.00
    0    7   13     -4.34      0.00
    0    7   14      1.15      0.00
    0    7   15     -4.85      0.00
    0    7   16     -4.86      0.00
    0    7   17      1.79      0.00
    0   -8   16      0.95      0.00
    0   -8   15      2.04      0.00
    0   -8   14     -1.85      0.00
    0   -8   13     -1.06      0.00
    0   -8   12      7.17      0.00
    0   -8   11      2.27      0.00
    0   -8   10    -12.30      0.00
    0   -8    9    -10.36      0.00
    0   -8    8     -1.62      0.00
    0   -8    7    -15.01      0.00
    0   -8    6    -25.82      0.00
    0   -8    5     -5.22      0.00
    0   -8    4      0.46      0.00
    0   -8    3    -19.51      0.00
    0   -8    2      5.06      0.00
    0   -8    1     58.01      0.00
    0    8    0     44.30      0.00
    0    8    1    -14.71      0.00
    0    8    2    -22.14      0.00
    0    8    3      4.15      0.00
    0    8    4     -5.31      0.00
    0    8    5    -23.10      0.00
    0    8    6    -11.88      0.00
    0    8    7     -5.09      0.00
    0    8    8    -10.50      0.00
    0    8    9      1.04      0.00
    0    8   10     15.13      0.00
    0    8   11      6.15      0.00
    0    8   12     -7.32      0.00
    0    8   13     -4.09      0.00
    0    8   14      1.43      0.00
    0    8   15     -2.14      0.00
    0    8   16     -2.43      0.00
    0    8   17      1.56      0.00
    0   -9   15      3.35      0.00
    0   -9   14     -4.12      0.00
    0   -9   13     -6.47      0.00
    0   -9   12      3.65      0.00
    0   -9   11      3.88      0.00
    0   -9   10    -10.69      0.00
    0   -9    9    -11.60      0.00
    0   -9    8     -0.76      0.00
    0   -9    7     -7.53      0.00
    0   -9    6    -17.07      0.00
    0   -9    5     -1.76      0.00
    0   -9    4      8.78      0.00
    0   -9    3      0.94      0.00
    0   -9    2     16.61      0.00
    0   -9    1     44.10      0.00
    0    9    0     25.15      0.00
    0    9    1    -19.34      0.00
    0    9    2    -21.15      0.00
    0    9    3      5.37      0.00
    0    9    4      0.82      0.00
    0    9    5    -21.95      0.00
    0    9    6    -23.03      0.00
    0    9    7    -12.70      0.00
    0    9    8     -4.66      0.00
    0    9    9      5.39      0.00
    0    9   10      9.77      0.00
    0    9   11      3.14      0.00
    0    9   12     -4.31      0.00
    0    9   13     -2.78      0.00
    0    9   14      2.49      0.00
    0    9   15      1.79      0.00
    0    9   16     -0.59      0.00
    0  -10   14     -5.15      0.00
    0  -10   13     -5.39      0.00
    0  -10   12      2.80      0.00
    0  -10   11      4.61      0.00
    0  -10   10     -7.27      0.00
    0  -10    9    -10.88      0.00
    0  -10    8      1.54      0.00
    0  -10    7      7.56      0.00
    0  -10    6      2.25      0.00
    0  -10    5      2.86      0.00
    0  -10    4     10.54      0.00
    0  -10    3     14.03      0.00
    0  -10    2     13.81      0.00
    0  -10    1     12.74      0.00
    0   10    0      5.42      0.00
    0   10    1     -6.60      0.00
    0   10    2     -8.51      0.00
    0   10    3      0.99      0.00
    0   10    4      0.26      0.00
    0   10    5    -14.50      0.00
    0   10    6    -19.75      0.00
    0   10    7     -7.07      0.00
    0   10    8      6.61      0.00
    0   10    9      6.58      0.00
    0   10   10     -0.10      0.00
    0   10   11     -0.08      0.00
    0   10   12      1.36      0.00
    0   10   13      0.15      0.00
    0   10   14      2.17      0.00
    0   10   15      3.07      0.00
    0   10   16      0.31      0.00
    0  -11   14     -2.48      0.00
    0  -11   13     -1.41      0.00
    0  -11   12     -0.38      0.00
    0  -11   11      1.04      0.00
    0  -11   10     -2.75      0.00
    0  -11    9     -6.25      0.00
    0  -11    8      4.79      0.00
    0  -11    7     20.42      0.00
    0  -11    6     16.19      0.00
    0  -11    5     -1.36      0.00
    0  -11    4     -0.15      0.00
    0  -11    3     12.77      0.00
    0  -11    2      4.50      0.00
    0  -11    1     -9.59      0.00
    0   11    0     -1.79      0.00
    0   11    1      5.58      0.00
    0   11    2     -6.45      0.00
    0   11    3    -11.60      0.00
    0   11    4      0.29      0.00
    0   11    5      2.63      0.00
    0   11    6     -5.24      0.00
    0   11    7     -0.22      0.00
    0   11    8      8.60      0.00
    0   11    9      1.71      0.00
    0   11   10     -5.49      0.00
    0   11   11      2.12      0.00
    0   11   12      6.47      0.00
    0   11   13      0.54      0.00
    0   11   14     -0.17      0.00
    0   11   15      2.65      0.00
    0  -12   13     -0.30      0.00
    0  -12   12     -3.99      0.00
    0  -12   11     -1.12      0.00
    0  -12   10      3.74      0.00
    0  -12    9      0.70      0.00
    0  -12    8      5.48      0.00
    0  -12    7     21.07      0.00
    0  -12    6     15.53      0.00
    0  -12    5    -10.79      0.00
    0  -12    4    -11.91      0.00
    0  -12    3      7.36      0.00
    0  -12    2      0.40      0.00
    0  -12    1    -16.37      0.00
    0   12    0     -6.80      0.00
    0   12    1      2.69      0.00
    0   12    2    -11.45      0.00
    0   12    3    -15.26      0.00
    0   12    4      7.10      0.00
    0   12    5     16.85      0.00
    0   12    6      2.99      0.00
    0   12    7     -1.99      0.00
    0   12    8      3.77      0.00
    0   12    9      1.22      0.00
    0   12   10     -1.46      0.00
    0   12   11      4.14      0.00
    0   12   12      4.40      0.00
    0   12   13     -2.22      0.00
    0   12   14     -2.04      0.00
    0  -13   12     -2.82      0.00
    0  -13   11      1.00      0.00
    0  -13   10      7.79      0.00
    0  -13    9      4.39      0.00
    0  -13    8      2.12      0.00
    0  -13    7     11.76      0.00
    0  -13    6      8.58      0.00
    0  -13    5    -12.76      0.00
    0  -13    4    -15.48      0.00
    0  -13    3      0.97      0.00
    0  -13    2     -0.83      0.00
    0  -13    1    -14.74      0.00
    0   13    0    -11.79      0.00
    0   13    1     -3.36      0.00
    0   13    2     -7.81      0.00
    0   13    3     -6.94      0.00
    0   13    4      9.99      0.00
    0   13    5     15.40      0.00
    0   13    6      1.50      0.00
    0   13    7     -4.47      0.00
    0   13    8      2.64      0.00
    0   13    9      6.42      0.00
    0   13   10      3.63      0.00
    0   13   11      0.18      0.00
    0   13   12     -2.39      0.00
    0   13   13     -3.99      0.00
    0  -14   11      2.81      0.00
    0  -14   10      5.86      0.00
    0  -14    9      3.75      0.00
    0  -14    8     -0.41      0.00
    0  -14    7      2.70      0.00
    0  -14    6      2.92      0.00
    0  -14    5     -8.24      0.00
    0  -14    4    -14.42      0.00
    0  -14    3     -6.43      0.00
    0  -14    2      0.01      0.00
    0  -14    1     -5.26      0.00
    0   14    0     -9.42      0.00
    0   14    1     -3.68      0.00
    0   14    2      0.98      0.00
    0   14    3      0.79      0.00
    0   14    4      3.43      0.00
    0   14    5      4.72      0.00
    0   14    6      0.69      0.00
    0   14    7     -0.75      0.00
    0   14    8      3.88      0.00
    0   14    9      8.14      0.00
    0   14   10      3.92      0.00
    0   14   11     -4.58      0.00
    0   14   12     -6.05      0.00
    0  -15    9      2.71      0.00
    0  -15    8      0.58      0.00
    0  -15    7     -3.01      0.00
    0  -15    6     -2.64      0.00
    0  -15    5     -3.22      0.00
    0  -15    4     -9.20      0.00
    0  -15    3     -8.25      0.00
    0  -15    2      4.43      0.00
    0  -15    1      7.30      0.00
    0   15    0     -3.00      0.00
    0   15    1     -2.80      0.00
    0   15    2      5.69      0.00
    0   15    3      3.09      0.00
    0   15    4     -4.34      0.00
    0   15    5     -2.24      0.00
    0   15    6      3.73      0.00
    0   15    7      3.27      0.00
    0   15    8      1.64      0.00
    0   15    9      4.42      0.00
    0   15   10      2.46      0.00
    0  -16    7     -5.97      0.00
    0  -16    6     -5.49      0.00
    0  -16    5      2.09      0.00
    0  -16    4     -0.67      0.00
    0  -16    3     -4.56      0.00
    0  -16    2      6.67      0.00
    0  -16    1     12.79      0.00
    0   16    0      1.92      0.00
    0   16    1     -1.97      0.00
    0   16    2      5.09      0.00
    0   16    3      2.20      0.00
    0   16    4     -6.32      0.00
    0   16    5     -2.90      0.00
    0   16    6      4.59      0.00
    0   16    7      2.39      0.00
    0   16    8     -1.64      0.00
    0   16    9      0.76      0.00
    0  -17    5      4.69      0.00
    0  -17    4      3.55      0.00
    0  -17    3     -1.57      0.00
    0  -17    2      4.21      0.00
    0  -17    1     10.05      0.00
    0   17    0      4.28      0.00
    0   17    1     -1.17      0.00
    0   17    2      0.84      0.00
    0   17    3      0.33      0.00
    0   17    4     -3.48      0.00
    0   17    5     -1.81      0.00
    0   17    6      1.62      0.00
    0   17    7      0.23      0.00
   -1   17    6      2.37      0.00
   -1   17    5      3.68      0.00
   -1   17    4      0.77      0.00
   -1   17    3     -0.80      0.00
   -1   17    2      2.75      0.00
   -1   17    1      2.23      0.00
   -1   17    0     -4.74      0.00
    1  -17    1     -4.17      0.00
    1  -17    2      3.92      0.00
    1  -17    3      4.23      0.00
    1  -17    4     -2.31      0.00
    1  -17    5     -3.68      0.00
   -1   16    9      1.78      0.00
   -1   16    8      2.86      0.00
   -1   16    7      1.50      0.00
   -1   16    6      0.93      0.00
   -1   16    5      2.28      0.00
   -1   16    4      4.08      0.00
   -1   16    3      2.39      0.00
   -1   16    2     -0.58      0.00
   -1   16    1     -1.21      0.00
   -1   16    0     -3.09      0.00
    1  -16    1     -5.05      0.00
    1  -16    2     -2.32      0.00
    1  -16    3      0.29      0.00
    1  -16    4     -3.78      0.00
    1  -16    5     -7.48      0.00
    1  -16    6     -1.45      0.00
    1  -16    7      4.93      0.00
   -1   15   10      1.13      0.00
   -1   15    9      0.75      0.00
   -1   15    8      1.64      0.00
   -1   15    7      0.76      0.00
   -1   15    6     -2.21      0.00
   -1   15    5      0.72      0.00
   -1   15    4      8.26      0.00
   -1   15    3      5.11      0.00
   -1   15    2     -4.86      0.00
   -1   15    1     -3.37      0.00
   -1   15    0      1.20      0.00
    1  -15    1     -7.25      0.00
    1  -15    2    -13.41      0.00
    1  -15    3     -3.57      0.00
    1  -15    4      1.57      0.00
    1  -15    5     -6.02      0.00
    1  -15    6     -3.65      0.00
    1  -15    7      7.01      0.00
    1  -15    8      5.06      0.00
    1  -15    9     -2.13      0.00
   -1   14   11      6.97      0.00
   -1   14   10      3.62      0.00
   -1   14    9     -4.03      0.00
   -1   14    8     -2.90      0.00
   -1   14    7      0.12      0.00
   -1   14    6     -3.03      0.00
   -1   14    5     -0.82      0.00
   -1   14    4      8.53      0.00
   -1   14    3      6.11      0.00
   -1   14    2     -5.81      0.00
   -1   14    1     -4.09      0.00
   -1   14    0      3.05      0.00
    1  -14    1     -7.78      0.00
    1  -14    2    -16.48      0.00
    1  -14    3     -0.26      0.00
    1  -14    4     10.14      0.00
    1  -14    5     -3.21      0.00
    1  -14    6     -7.08      0.00
    1  -14    7      7.24      0.00
    1  -14    8     10.47      0.00
    1  -14    9      0.50      0.00
    1  -14   10     -2.03      0.00
    1  -14   11      0.76      0.00
   -1   13   13      3.16      0.00
   -1   13   12      5.70      0.00
   -1   13   11      9.48      0.00
   -1   13   10      1.54      0.00
   -1   13    9     -9.60      0.00
   -1   13    8     -5.56      0.00
   -1   13    7      1.96      0.00
   -1   13    6     -2.20      0.00
   -1   13    5     -5.76      0.00
   -1   13    4      1.62      0.00
   -1   13    3      5.22      0.00
   -1   13    2     -2.29      0.00
   -1   13    1     -3.19      0.00
   -1   13    0      3.45      0.00
    1  -13    1     -1.56      0.00
    1  -13    2     -7.25      0.00
    1  -13    3      4.41      0.00
    1  -13    4     11.34      0.00
    1  -13    5     -0.21      0.00
    1  -13    6     -4.43      0.00
    1  -13    7      8.40      0.00
    1  -13    8     13.89      0.00
    1  -13    9      2.34      0.00
    1  -13   10     -6.40      0.00
    1  -13   11     -4.25      0.00
    1  -13   12     -1.85      0.00
   -1   12   14      3.97      0.00
   -1   12   13      6.40      0.00
   -1   12   12      5.60      0.00
   -1   12   11      3.46      0.00
   -1   12   10     -3.51      0.00
   -1   12    9     -8.31      0.00
   -1   12    8     -2.75      0.00
   -1   12    7      1.96      0.00
   -1   12    6     -4.56      0.00
   -1   12    5    -13.55      0.00
   -1   12    4     -8.76      0.00
   -1   12    3      4.93      0.00
   -1   12    2      6.30      0.00
   -1   12    1     -1.39      0.00
   -1   12    0     -0.50      0.00
    1  -12    1      5.63      0.00
    1  -12    2      6.83      0.00
    1  -12    3      5.68      0.00
    1  -12    4      7.29      0.00
    1  -12    5      8.08      0.00
    1  -12    6      4.52      0.00
    1  -12    7      4.17      0.00
    1  -12    8      7.27      0.00
    1  -12    9      0.13      0.00
    1  -12   10    -11.62      0.00
    1  -12   11     -9.85      0.00
    1  -12   12     -0.58      0.00
    1  -12   13      2.54      0.00
   -1   11   15     -0.09      0.00
   -1   11   14      3.45      0.00
   -1   11   13      5.76      0.00
   -1   11   12     -0.03      0.00
   -1   11   11     -5.97      0.00
   -1   11   10     -3.71      0.00
   -1   11    9      1.24      0.00
   -1   11    8     -0.41      0.00
   -1   11    7     -5.37      0.00
   -1   11    6     -8.63      0.00
   -1   11    5    -15.43      0.00
   -1   11    4    -13.66      0.00
   -1   11    3      6.28      0.00
   -1   11    2     13.04      0.00
   -1   11    1     -6.31      0.00
   -1   11    0    -12.20      0.00
    1  -11    1     11.17      0.00
    1  -11    2     23.20      0.00
    1  -11    3      7.44      0.00
    1  -11    4      2.70      0.00
    1  -11    5     14.24      0.00
    1  -11    6      6.74      0.00
    1  -11    7     -9.09      0.00
    1  -11    8     -5.81      0.00
    1  -11    9     -2.56      0.00
    1  -11   10    -13.05      0.00
    1  -11   11    -13.11      0.00
    1  -11   12      0.77      0.00
    1  -11   13      5.47      0.00
   -1   10   15     -1.31      0.00
   -1   10   14     -1.36      0.00
   -1   10   13      1.07      0.00
   -1   10   12     -4.61      0.00
   -1   10   11     -9.12      0.00
   -1   10   10      1.35      0.00
   -1   10    9      8.54      0.00
   -1   10    8     -4.57      0.00
   -1   10    7    -13.99      0.00
   -1   10    6     -5.00      0.00
   -1   10    5     -4.48      0.00
   -1   10    4    -10.54      0.00
   -1   10    3      3.29      0.00
   -1   10    2     10.07      0.00
   -1   10    1    -13.35      0.00
   -1   10    0    -18.17      0.00
    1  -10    1     18.77      0.00
    1  -10    2     35.21      0.00
    1  -10    3      6.14      0.00
    1  -10    4     -6.81      0.00
    1  -10    5      7.91      0.00
    1  -10    6      0.45      0.00
    1  -10    7    -18.37      0.00
    1  -10    8    -12.76      0.00
    1  -10    9     -3.03      0.00
    1  -10   10    -11.48      0.00
    1  -10   11    -14.81      0.00
    1  -10   12     -0.02      0.00
    1  -10   13      8.43      0.00
    1  -10   14      3.71      0.00
   -1    9   16      2.10      0.00
   -1    9   15     -4.75      0.00
   -1    9   14     -6.84      0.00
   -1    9   13     -0.89      0.00
   -1    9   12     -2.71      0.00
   -1    9   11     -7.27      0.00
   -1    9   10      2.21      0.00
   -1    9    9      7.06      0.00
   -1    9    8     -7.43      0.00
   -1    9    7    -11.18      0.00
   -1    9    6      7.18      0.00
   -1    9    5     10.84      0.00
   -1    9    4     -4.67      0.00
   -1    9    3     -2.81      0.00
   -1    9    2      6.72      0.00
   -1    9    1     -5.41      0.00
   -1    9    0     -9.23      0.00
    1   -9    1     17.95      0.00
    1   -9    2     27.84      0.00
    1   -9    3     -0.91      0.00
    1   -9    4    -16.63      0.00
    1   -9    5     -4.52      0.00
    1   -9    6     -2.82      0.00
    1   -9    7    -11.53      0.00
    1   -9    8     -8.58      0.00
    1   -9    9     -3.47      0.00
    1   -9   10     -9.83      0.00
    1   -9   11    -12.92      0.00
    1   -9   12      1.10      0.00
    1   -9   13     12.85      0.00
    1   -9   14      8.27      0.00
    1   -9   15      0.42      0.00
   -1    8   16     -1.22      0.00
   -1    8   15     -6.25      0.00
   -1    8   14     -5.22      0.00
   -1    8   13      1.71      0.00
   -1    8   12      0.12      0.00
   -1    8   11     -6.83      0.00
   -1    8   10     -2.23      0.00
   -1    8    9      4.13      0.00
   -1    8    8      0.16      0.00
   -1    8    7      0.07      0.00
   -1    8    6     11.31      0.00
   -1    8    5     16.75      0.00
   -1    8    4      7.13      0.00
   -1    8    3      2.14      0.00
   -1    8    2     11.70      0.00
   -1    8    1     12.62      0.00
   -1    8    0     -0.50      0.00
    1   -8    1     -3.48      0.00
    1   -8    2      3.32      0.00
    1   -8    3     -2.12      0.00
    1   -8    4    -16.25      0.00
    1   -8    5    -16.04      0.00
    1   -8    6     -0.75      0.00
    1   -8    7      7.92      0.00
    1   -8    8      2.20      0.00
    1   -8    9     -4.85      0.00
    1   -8   10     -6.32      0.00
    1   -8   11     -3.99      0.00
    1   -8   12      5.71      0.00
    1   -8   13     14.97      0.00
    1   -8   14      9.53      0.00
    1   -8   15     -2.37      0.00
    1   -8   16     -5.69      0.00
   -1    7   17     -2.99      0.00
   -1    7   16     -4.81      0.00
   -1    7   15     -0.96      0.00
   -1    7   14      2.23      0.00
   -1    7   13      2.01      0.00
   -1    7   12     -0.19      0.00
   -1    7   11     -4.10      0.00
   -1    7   10     -4.30      0.00
   -1    7    9      2.75      0.00
   -1    7    8      8.61      0.00
   -1    7    7      2.19      0.00
   -1    7    6     -1.86      0.00
   -1    7    5     16.99      0.00
   -1    7    4     31.25      0.00
   -1    7    3     17.11      0.00
   -1    7    2     10.13      0.00
   -1    7    1     16.66      0.00
   -1    7    0     -4.36      0.00
    1   -7    1    -32.54      0.00
    1   -7    2    -17.54      0.00
    1   -7    3      6.97      0.00
    1   -7    4    -11.41      0.00
    1   -7    5    -28.89      0.00
    1   -7    6      1.71      0.00
    1   -7    7     29.08      0.00
    1   -7    8     13.62      0.00
    1   -7    9     -4.53      0.00
    1   -7   10      0.11      0.00
    1   -7   11      6.25      0.00
    1   -7   12      6.97      0.00
    1   -7   13     10.32      0.00
    1   -7   14      6.35      0.00
    1   -7   15     -4.98      0.00
    1   -7   16     -6.03      0.00
   -1    6   17     -7.23      0.00
   -1    6   16     -4.10      0.00
   -1    6   15      7.13      0.00
   -1    6   14      6.78      0.00
   -1    6   13     -1.15      0.00
   -1    6   12      1.61      0.00
   -1    6   11      3.59      0.00
   -1    6   10     -5.62      0.00
   -1    6    9     -4.85      0.00
   -1    6    8      5.63      0.00
   -1    6    7     -5.52      0.00
   -1    6    6    -16.46      0.00
   -1    6    5     18.30      0.00
   -1    6    4     49.87      0.00
   -1    6    3     20.56      0.00
   -1    6    2     -8.32      0.00
   -1    6    1      3.10      0.00
   -1    6    0    -10.86      0.00
    1   -6    1    -45.13      0.00
    1   -6    2    -24.66      0.00
    1   -6    3     11.57      0.00
    1   -6    4    -12.63      0.00
    1   -6    5    -37.66      0.00
    1   -6    6      3.94      0.00
    1   -6    7     42.07      0.00
    1   -6    8     22.05      0.00
    1   -6    9     -2.15      0.00
    1   -6   10      1.92      0.00
    1   -6   11      6.18      0.00
    1   -6   12      1.69      0.00
    1   -6   13      3.11      0.00
    1   -6   14      3.08      0.00
    1   -6   15     -4.54      0.00
    1   -6   16     -4.36      0.00
    1   -6   17      1.94      0.00
   -1    5   17     -7.81      0.00
   -1    5   16     -0.41      0.00
   -1    5   15     11.29      0.00
   -1    5   14      6.81      0.00
   -1    5   13     -1.22      0.00
   -1    5   12      5.88      0.00
   -1    5   11      7.14      0.00
   -1    5   10    -10.18      0.00
   -1    5    9    -14.35      0.00
   -1    5    8      0.34      0.00
   -1    5    7     -7.38      0.00
   -1    5    6    -23.30      0.00
   -1    5    5      5.53      0.00
   -1    5    4     39.51      0.00
   -1    5    3     14.20      0.00
   -1    5    2    -20.68      0.00
   -1    5    1    -12.58      0.00
   -1    5    0    -13.44      0.00
    1   -5    1    -35.95      0.00
    1   -5    2    -21.77      0.00
    1   -5    3      5.18      0.00
    1   -5    4    -13.10      0.00
    1   -5    5    -30.86      0.00
    1   -5    6      5.28      0.00
    1   -5    7     40.38      0.00
    1   -5    8     24.74      0.00
    1   -5    9     -2.82      0.00
    1   -5   10     -8.50      0.00
    1   -5   11     -4.10      0.00
    1   -5   12     -1.15      0.00
    1   -5   13      1.61      0.00
    1   -5   14      1.34      0.00
    1   -5   15     -3.92      0.00
    1   -5   16     -4.99      0.00
    1   -5   17     -1.06      0.00
   -1    4   18     -2.76      0.00
   -1    4   17     -4.63      0.00
   -1    4   16      2.91      0.00
   -1    4   15     10.91      0.00
   -1    4   14      7.55      0.00
   -1    4   13      3.02      0.00
   -1    4   12      4.79      0.00
   -1    4   11      1.98      0.00
   -1    4   10     -8.45      0.00
   -1    4    9     -9.19      0.00
   -1    4    8      2.06      0.00
   -1    4    7     -7.68      0.00
   -1    4    6    -34.57      0.00
   -1    4    5    -24.13      0.00
   -1    4    4     19.40      0.00
   -1    4    3     28.67      0.00
   -1    4    2     -9.80      0.00
   -1    4    1    -36.17      0.00
   -1    4    0    -23.20      0.00
    1   -4    1     -4.66      0.00
    1   -4    2      2.24      0.00
    1   -4    3      3.42      0.00
    1   -4    4     -3.90      0.00
    1   -4    5    -11.06      0.00
    1   -4    6      2.14      0.00
    1   -4    7     24.09      0.00
    1   -4    8     19.70      0.00
    1   -4    9     -8.90      0.00
    1   -4   10    -24.81      0.00
    1   -4   11    -12.15      0.00
    1   -4   12      5.26      0.00
    1   -4   13      5.51      0.00
    1   -4   14     -1.45      0.00
    1   -4   15     -4.57      0.00
    1   -4   16     -5.23      0.00
    1   -4   17     -2.98      0.00
    1   -4   18      1.08      0.00
   -1    3   18     -0.07      0.00
   -1    3   17      0.32      0.00
   -1    3   16      3.99      0.00
   -1    3   15      8.35      0.00
   -1    3   14     10.06      0.00
   -1    3   13      5.81      0.00
   -1    3   12     -3.63      0.00
   -1    3   11     -3.72      0.00
   -1    3   10      7.12      0.00
   -1    3    9      8.03      0.00
   -1    3    8     -2.98      0.00
   -1    3    7    -20.75      0.00
   -1    3    6    -42.29      0.00
   -1    3    5    -34.18      0.00
   -1    3    4     21.93      0.00
   -1    3    3     58.03      0.00
   -1    3    2     -3.56      0.00
   -1    3    1    -76.80      0.00
   -1    3    0    -26.21      0.00
    1   -3    1     63.67      0.00
    1   -3    2     55.01      0.00
    1   -3    3      6.70      0.00
    1   -3    4      3.06      0.00
    1   -3    5      7.52      0.00
    1   -3    6     -3.85      0.00
    1   -3    7      2.11      0.00
    1   -3    8      9.63      0.00
    1   -3    9    -14.66      0.00
    1   -3   10    -33.87      0.00
    1   -3   11    -12.02      0.00
    1   -3   12     14.16      0.00
    1   -3   13      9.24      0.00
    1   -3   14     -2.80      0.00
    1   -3   15     -1.86      0.00
    1   -3   16     -0.88      0.00
    1   -3   17     -1.93      0.00
    1   -3   18      0.83      0.00
   -1    2   18      1.80      0.00
   -1    2   17      3.48      0.00
   -1    2   16      2.47      0.00
   -1    2   15      4.07      0.00
   -1    2   14     10.22      0.00
   -1    2   13      4.04      0.00
   -1    2   12    -12.72      0.00
   -1    2   11     -4.82      0.00
   -1    2   10     22.80      0.00
   -1    2    9     15.30      0.00
   -1    2    8    -21.23      0.00
   -1    2    7    -31.99      0.00
   -1    2    6    -22.11      0.00
   -1    2    5    -10.28      0.00
   -1    2    4     28.14      0.00
   -1    2    3     56.33      0.00
   -1    2    2    -15.26      0.00
   -1    2    1    -88.58      0.00
   -1    2    0      8.91      0.00
    1   -2    1    134.81      0.00
    1   -2    2     86.88      0.00
    1   -2    3     -7.15      0.00
    1   -2    4     -2.23      0.00
    1   -2    5     18.70      0.00
    1   -2    6     -5.39      0.00
    1   -2    7    -13.92      0.00
    1   -2    8     -0.58      0.00
    1   -2    9    -14.99      0.00
    1   -2   10    -31.04      0.00
    1   -2   11     -8.54      0.00
    1   -2   12     17.13      0.00
    1   -2   13     12.70      0.00
    1   -2   14      2.12      0.00
    1   -2   15      3.71      0.00
    1   -2   16      3.38      0.00
    1   -2   17     -0.90      0.00
    1   -2   18     -0.28      0.00
   -1    1   18      0.63      0.00
   -1    1   17      2.50      0.00
   -1    1   16     -0.74      0.00
   -1    1   15     -0.60      0.00
   -1    1   14      7.25      0.00
   -1    1   13      0.18      0.00
   -1    1   12    -17.56      0.00
   -1    1   11     -6.90      0.00
   -1    1   10     21.21      0.00
   -1    1    9      8.57      0.00
   -1    1    8    -29.73      0.00
   -1    1    7    -23.23      0.00
   -1    1    6      7.98      0.00
   -1    1    5      9.15      0.00
   -1    1    4     11.84      0.00
   -1    1    3     29.17      0.00
   -1    1    2     -1.36      0.00
   -1    1    1    -36.01      0.00
   -1    1    0     35.01      0.00
    1   -1    1    109.82      0.00
    1   -1    2     52.60      0.00
    1   -1    3    -21.97      0.00
    1   -1    4     -6.68      0.00
    1   -1    5     17.73      0.00
    1   -1    6     -4.03      0.00
    1   -1    7    -19.25      0.00
    1   -1    8     -7.72      0.00
    1   -1    9     -9.87      0.00
    1   -1   10    -19.83      0.00
    1   -1   11     -6.38      0.00
    1   -1   12     13.62      0.00
    1   -1   13     16.51      0.00
    1   -1   14      8.95      0.00
    1   -1   15      3.95      0.00
    1   -1   16      1.92      0.00
    1   -1   17      0.21      0.00
    1   -1   18      0.11      0.00
   -1    0   18     -2.84      0.00
   -1    0   17     -1.75      0.00
   -1    0   16     -2.77      0.00
   -1    0   15     -1.13      0.00
   -1    0   14      4.47      0.00
   -1    0   13     -3.70      0.00
   -1    0   12    -19.04      0.00
   -1    0   11    -13.01      0.00
   -1    0   10      7.78      0.00
   -1    0    9      6.92      0.00
   -1    0    8    -15.03      0.00
   -1    0    7    -13.44      0.00
   -1    0    6      8.00      0.00
   -1    0    5      9.86      0.00
   -1    0    4      8.12      0.00
   -1    0    3     28.46      0.00
   -1    0    2     40.30      0.00
   -1    0    1      9.34      0.00
    1    0    0    -24.84      0.00
    1    0    1    -13.16      0.00
    1    0    2      8.68      0.00
    1    0    3      0.60      0.00
    1    0    4    -13.26      0.00
    1    0    5     -9.61      0.00
    1    0    6     -5.49      0.00
    1    0    7     -9.33      0.00
    1    0    8     -5.60      0.00
    1    0    9     -1.97      0.00
    1    0   10     -7.51      0.00
    1    0   11     -6.47      0.00
    1    0   12      6.44      0.00
    1    0   13     16.34      0.00
    1    0   14      9.12      0.00
    1    0   15     -3.40      0.00
    1    0   16     -2.42      0.00
    1    0   17      3.28      0.00
    1    0   18      1.94      0.00
   -1   -1   18     -6.34      0.00
   -1   -1   17     -5.81      0.00
   -1   -1   16     -0.80      0.00
   -1   -1   15      3.84      0.00
   -1   -1   14      2.56      0.00
   -1   -1   13     -7.43      0.00
   -1   -1   12    -17.10      0.00
   -1   -1   11    -15.40      0.00
   -1   -1   10      0.44      0.00
   -1   -1    9     16.40      0.00
   -1   -1    8      2.78      0.00
   -1   -1    7    -23.01      0.00
   -1   -1    6    -11.90      0.00
   -1   -1    5     26.62      0.00
   -1   -1    4     46.49      0.00
   -1   -1    3     43.81      0.00
   -1   -1    2     38.41      0.00
   -1   -1    1    -15.68      0.00
    1    1    0   -111.23      0.00
    1    1    1    -97.20      0.00
    1    1    2     15.03      0.00
    1    1    3     30.06      0.00
    1    1    4    -44.06      0.00
    1    1    5    -50.08      0.00
    1    1    6      4.54      0.00
    1    1    7     21.85      0.00
    1    1    8      6.55      0.00
    1    1    9      1.34      0.00
    1    1   10     -0.67      0.00
    1    1   11     -6.14      0.00
    1    1   12     -0.62      0.00
    1    1   13      9.73      0.00
    1    1   14      2.13      0.00
    1    1   15    -10.83      0.00
    1    1   16     -4.06      0.00
    1    1   17      6.09      0.00
    1    1   18      2.28      0.00
   -1   -2   18     -7.77      0.00
   -1   -2   17     -7.24      0.00
   -1   -2   16      3.55      0.00
   -1   -2   15      9.92      0.00
   -1   -2   14      0.93      0.00
   -1   -2   13     -8.83      0.00
   -1   -2   12     -9.74      0.00
   -1   -2   11     -8.51      0.00
   -1   -2   10      2.24      0.00
   -1   -2    9     21.88      0.00
   -1   -2    8      6.67      0.00
   -1   -2    7    -33.87      0.00
   -1   -2    6    -13.43      0.00
   -1   -2    5     61.61      0.00
   -1   -2    4     80.77      0.00
   -1   -2    3     25.23      0.00
   -1   -2    2    -14.81      0.00
   -1   -2    1    -47.37      0.00
    1    2    0   -109.08      0.00
    1    2    1    -81.76      0.00
    1    2    2     24.39      0.00
    1    2    3     14.26      0.00
    1    2    4    -72.89      0.00
    1    2    5    -52.35      0.00
    1    2    6     37.43      0.00
    1    2    7     55.89      0.00
    1    2    8     13.92      0.00
    1    2    9     -3.87      0.00
    1    2   10      2.20      0.00
    1    2   11     -1.35      0.00
    1    2   12     -4.05      0.00
    1    2   13      0.30      0.00
    1    2   14     -4.97      0.00
    1    2   15    -11.27      0.00
    1    2   16     -2.46      0.00
    1    2   17      5.18      0.00
    1    2   18      0.67      0.00
   -1   -3   17     -6.21      0.00
   -1   -3   16      7.05      0.00
   -1   -3   15     13.65      0.00
   -1   -3   14      0.82      0.00
   -1   -3   13     -7.01      0.00
   -1   -3   12     -0.74      0.00
   -1   -3   11      1.41      0.00
   -1   -3   10      4.59      0.00
   -1   -3    9     16.27      0.00
   -1   -3    8      4.81      0.00
   -1   -3    7    -24.66      0.00
   -1   -3    6      0.30      0.00
   -1   -3    5     67.72      0.00
   -1   -3    4     66.56      0.00
   -1   -3    3     -8.74      0.00
   -1   -3    2    -44.33      0.00
   -1   -3    1    -30.74      0.00
    1    3    0    -44.05      0.00
    1    3    1    -42.86      0.00
    1    3    2     -3.90      0.00
    1    3    3    -15.16      0.00
    1    3    4    -47.25      0.00
    1    3    5     -5.71      0.00
    1    3    6     60.39      0.00
    1    3    7     57.73      0.00
    1    3    8      8.57      0.00
    1    3    9     -8.95      0.00
    1    3   10      4.69      0.00
    1    3   11      5.73      0.00
    1    3   12     -3.24      0.00
    1    3   13     -5.91      0.00
    1    3   14     -6.40      0.00
    1    3   15     -5.74      0.00
    1    3   16     -1.10      0.00
    1    3   17      1.31      0.00
    1    3   18     -0.51      0.00
   -1   -4   17     -2.78      0.00
   -1   -4   16      8.19      0.00
   -1   -4   15     13.00      0.00
   -1   -4   14      1.57      0.00
   -1   -4   13     -4.99      0.00
   -1   -4   12      2.78      0.00
   -1   -4   11      6.92      0.00
   -1   -4   10      5.35      0.00
   -1   -4    9      7.34      0.00
   -1   -4    8      4.64      0.00
   -1   -4    7     -7.68      0.00
   -1   -4    6     -1.21      0.00
   -1   -4    5     29.65      0.00
   -1   -4    4     32.43      0.00
   -1   -4    3     -8.17      0.00
   -1   -4    2    -32.83      0.00
   -1   -4    1    -15.34      0.00
    1    4    0     -4.73      0.00
    1    4    1    -19.21      0.00
    1    4    2    -23.15      0.00
    1    4    3     -8.13      0.00
    1    4    4     12.81      0.00
    1    4    5     31.20      0.00
    1    4    6     38.74      0.00
    1    4    7     28.41      0.00
    1    4    8      3.66      0.00
    1    4    9     -8.28      0.00
    1    4   10      2.30      0.00
    1    4   11      9.06      0.00
    1    4   12      0.96      0.00
    1    4   13     -6.29      0.00
    1    4   14     -3.73      0.00
    1    4   15     -0.51      0.00
    1    4   16     -1.87      0.00
    1    4   17     -2.15      0.00
    1    4   18     -0.52      0.00
   -1   -5   17      0.94      0.00
   -1   -5   16      4.89      0.00
   -1   -5   15      7.63      0.00
   -1   -5   14      2.87      0.00
   -1   -5   13     -3.94      0.00
   -1   -5   12     -0.57      0.00
   -1   -5   11      7.24      0.00
   -1   -5   10      6.58      0.00
   -1   -5    9     -0.21      0.00
   -1   -5    8     -0.35      0.00
   -1   -5    7     -3.78      0.00
   -1   -5    6    -18.64      0.00
   -1   -5    5    -11.70      0.00
   -1   -5    4     18.67      0.00
   -1   -5    3     14.48      0.00
   -1   -5    2    -28.21      0.00
   -1   -5    1    -32.42      0.00
    1    5    0      9.62      0.00
    1    5    1     16.17      0.00
    1    5    2     -7.37      0.00
    1    5    3      9.43      0.00
    1    5    4     39.09      0.00
    1    5    5     23.23      0.00
    1    5    6     -2.47      0.00
    1    5    7      3.01      0.00
    1    5    8      5.09      0.00
    1    5    9    -10.10      0.00
    1    5   10     -7.95      0.00
    1    5   11      7.82      0.00
    1    5   12      6.62      0.00
    1    5   13     -3.83      0.00
    1    5   14     -2.20      0.00
    1    5   15      1.50      0.00
    1    5   16     -2.44      0.00
    1    5   17     -3.17      0.00
    1    5   18     -0.10      0.00
   -1   -6   17      0.78      0.00
   -1   -6   16     -0.69      0.00
   -1   -6   15      3.69      0.00
   -1   -6   14      6.10      0.00
   -1   -6   13     -3.81      0.00
   -1   -6   12     -7.56      0.00
   -1   -6   11      4.57      0.00
   -1   -6   10      8.00      0.00
   -1   -6    9     -6.41      0.00
   -1   -6    8    -11.83      0.00
   -1   -6    7    -10.07      0.00
   -1   -6    6    -25.34      0.00
   -1   -6    5    -22.26      0.00
   -1   -6    4     17.98      0.00
   -1   -6    3     19.26      0.00
   -1   -6    2    -36.72      0.00
   -1   -6    1    -40.45      0.00
    1    6    0     30.33      0.00
    1    6    1     50.92      0.00
    1    6    2      5.14      0.00
    1    6    3     -1.67      0.00
    1    6    4     21.43      0.00
    1    6    5      4.59      0.00
    1    6    6    -18.61      0.00
    1    6    7     -5.86      0.00
    1    6    8      0.58      0.00
    1    6    9    -17.85      0.00
    1    6   10    -17.21      0.00
    1    6   11      5.44      0.00
    1    6   12     10.23      0.00
    1    6   13     -1.71      0.00
    1    6   14     -2.61      0.00
    1    6   15      2.44      0.00
    1    6   16     -0.25      0.00
    1    6   17     -1.83      0.00
    1    6   18      0.24      0.00
   -1   -7   16     -1.67      0.00
   -1   -7   15      4.82      0.00
   -1   -7   14      7.24      0.00
   -1   -7   13     -6.25      0.00
   -1   -7   12    -12.98      0.00
   -1   -7   11      3.08      0.00
   -1   -7   10     10.17      0.00
   -1   -7    9     -8.84      0.00
   -1   -7    8    -20.47      0.00
   -1   -7    7    -12.10      0.00
   -1   -7    6    -11.40      0.00
   -1   -7    5     -9.28      0.00
   -1   -7    4     11.74      0.00
   -1   -7    3      8.88      0.00
   -1   -7    2    -26.36      0.00
   -1   -7    1    -18.46      0.00
    1    7    0     39.16      0.00
    1    7    1     47.72      0.00
    1    7    2     -3.47      0.00
    1    7    3    -21.19      0.00
    1    7    4      2.84      0.00
    1    7    5      5.96      0.00
    1    7    6     -9.66      0.00
    1    7    7    -11.18      0.00
    1    7    8    -10.99      0.00
    1    7    9    -19.95      0.00
    1    7   10    -15.54      0.00
    1    7   11      3.19      0.00
    1    7   12      9.43      0.00
    1    7   13      0.34      0.00
    1    7   14     -2.51      0.00
    1    7   15      2.91      0.00
    1    7   16      2.94      0.00
    1    7   17      0.11      0.00
   -1   -8   16      1.34      0.00
   -1   -8   15      4.75      0.00
   -1   -8   14      2.06      0.00
   -1   -8   13     -8.51      0.00
   -1   -8   12    -10.75      0.00
   -1   -8   11      5.16      0.00
   -1   -8   10     11.87      0.00
   -1   -8    9     -6.85      0.00
   -1   -8    8    -20.65      0.00
   -1   -8    7     -8.06      0.00
   -1   -8    6      8.66      0.00
   -1   -8    5      9.65      0.00
   -1   -8    4      6.16      0.00
   -1   -8    3      5.00      0.00
   -1   -8    2      0.46      0.00
   -1   -8    1      2.27      0.00
    1    8    0     15.85      0.00
    1    8    1     16.18      0.00
    1    8    2     -6.41      0.00
    1    8    3    -18.19      0.00
    1    8    4     -1.93      0.00
    1    8    5     12.42      0.00
    1    8    6      2.70      0.00
    1    8    7    -12.25      0.00
    1    8    8    -13.92      0.00
    1    8    9     -9.81      0.00
    1    8   10     -6.82      0.00
    1    8   11     -1.03      0.00
    1    8   12      5.11      0.00
    1    8   13      2.86      0.00
    1    8   14     -1.77      0.00
    1    8   15      1.15      0.00
    1    8   16      3.87      0.00
    1    8   17      1.16      0.00
   -1   -9   15      0.68      0.00
   -1   -9   14     -4.02      0.00
   -1   -9   13     -5.32      0.00
   -1   -9   12     -2.04      0.00
   -1   -9   11      5.74      0.00
   -1   -9   10      8.61      0.00
   -1   -9    9     -3.16      0.00
   -1   -9    8    -15.29      0.00
   -1   -9    7     -4.50      0.00
   -1   -9    6     22.31      0.00
   -1   -9    5     26.85      0.00
   -1   -9    4      6.32      0.00
   -1   -9    3      2.29      0.00
   -1   -9    2     12.32      0.00
   -1   -9    1      0.34      0.00
    1    9    0    -16.03      0.00
    1    9    1     -4.94      0.00
    1    9    2      6.13      0.00
    1    9    3     -7.26      0.00
    1    9    4    -10.37      0.00
    1    9    5     11.13      0.00
    1    9    6     16.62      0.00
    1    9    7     -0.58      0.00
    1    9    8     -5.67      0.00
    1    9    9      0.53      0.00
    1    9   10     -2.84      0.00
    1    9   11     -6.40      0.00
    1    9   12      1.28      0.00
    1    9   13      4.57      0.00
    1    9   14     -1.73      0.00
    1    9   15     -1.76      0.00
    1    9   16      2.94      0.00
   -1  -10   14     -4.72      0.00
   -1  -10   13      0.52      0.00
   -1  -10   12      3.95      0.00
   -1  -10   11      1.06      0.00
   -1  -10   10      2.15      0.00
   -1  -10    9      1.37      0.00
   -1  -10    8     -8.09      0.00
   -1  -10    7     -3.16      0.00
   -1  -10    6     25.84      0.00
   -1  -10    5     32.81      0.00
   -1  -10    4      1.70      0.00
   -1  -10    3    -10.42      0.00
   -1  -10    2      3.35      0.00
   -1  -10    1     -7.68      0.00
    1   10    0    -25.83      0.00
    1   10    1     -7.87      0.00
    1   10    2      9.57      0.00
    1   10    3    -10.38      0.00
    1   10    4    -18.72      0.00
    1   10    5     13.92      0.00
    1   10    6     31.78      0.00
    1   10    7     12.20      0.00
    1   10    8     -1.56      0.00
    1   10    9     -0.04      0.00
    1   10   10     -4.04      0.00
    1   10   11     -7.03      0.00
    1   10   12     -0.02      0.00
    1   10   13      3.22      0.00
    1   10   14     -2.26      0.00
    1   10   15     -2.78      0.00
    1   10   16      2.04      0.00
   -1  -11   14     -2.47      0.00
   -1  -11   13      1.90      0.00
   -1  -11   12      3.33      0.00
   -1  -11   11     -2.39      0.00
   -1  -11   10     -0.06      0.00
   -1  -11    9      5.60      0.00
   -1  -11    8     -2.14      0.00
   -1  -11    7     -3.54      0.00
   -1  -11    6     17.82      0.00
   -1  -11    5     22.95      0.00
   -1  -11    4     -6.58      0.00
   -1  -11    3    -21.21      0.00
   -1  -11    2     -7.11      0.00
   -1  -11    1     -6.73      0.00
    1   11    0    -17.91      0.00
    1   11    1    -10.72      0.00
    1   11    2     -2.57      0.00
    1   11    3    -12.77      0.00
    1   11    4     -9.51      0.00
    1   11    5     20.55      0.00
    1   11    6     32.38      0.00
    1   11    7     10.97      0.00
    1   11    8     -5.35      0.00
    1   11    9     -4.27      0.00
    1   11   10     -2.28      0.00
    1   11   11     -2.79      0.00
    1   11   12     -2.08      0.00
    1   11   13     -1.18      0.00
    1   11   14     -2.22      0.00
    1   11   15     -1.93      0.00
   -1  -12   12      1.65      0.00
   -1  -12   11      1.10      0.00
   -1  -12   10      2.37      0.00
   -1  -12    9      5.08      0.00
   -1  -12    8     -0.55      0.00
   -1  -12    7     -4.78      0.00
   -1  -12    6      4.52      0.00
   -1  -12    5      9.06      0.00
   -1  -12    4     -6.09      0.00
   -1  -12    3    -19.28      0.00
   -1  -12    2    -12.78      0.00
   -1  -12    1     -4.13      0.00
    1   12    0     -7.94      0.00
    1   12    1    -12.24      0.00
    1   12    2     -7.57      0.00
    1   12    3     -0.21      0.00
    1   12    4      6.99      0.00
    1   12    5     15.06      0.00
    1   12    6     15.08      0.00
    1   12    7      3.82      0.00
    1   12    8     -5.26      0.00
    1   12    9     -4.22      0.00
    1   12   10      0.47      0.00
    1   12   11     -0.40      0.00
    1   12   12     -5.08      0.00
    1   12   13     -4.32      0.00
    1   12   14     -1.22      0.00
   -1  -13   12      2.19      0.00
   -1  -13   11      6.18      0.00
   -1  -13   10      3.11      0.00
   -1  -13    9     -0.89      0.00
   -1  -13    8     -1.84      0.00
   -1  -13    7     -3.75      0.00
   -1  -13    6     -4.29      0.00
   -1  -13    5      1.13      0.00
   -1  -13    4      1.43      0.00
   -1  -13    3    -12.12      0.00
   -1  -13    2    -17.39      0.00
   -1  -13    1     -2.70      0.00
    1   13    0      5.31      0.00
    1   13    1     -2.29      0.00
    1   13    2     -1.45      0.00
    1   13    3     10.64      0.00
    1   13    4     11.02      0.00
    1   13    5      0.33      0.00
    1   13    6     -0.85      0.00
    1   13    7      3.78      0.00
    1   13    8     -0.36      0.00
    1   13    9     -5.29      0.00
    1   13   10     -1.75      0.00
    1   13   11     -0.05      0.00
    1   13   12     -3.97      0.00
    1   13   13     -3.24      0.00
   -1  -14   11      6.38      0.00
   -1  -14   10      0.74      0.00
   -1  -14    9     -6.17      0.00
   -1  -14    8     -2.18      0.00
   -1  -14    7     -0.73      0.00
   -1  -14    6     -7.07      0.00
   -1  -14    5     -2.09      0.00
   -1  -14    4      6.91      0.00
   -1  -14    3     -5.42      0.00
   -1  -14    2    -15.97      0.00
   -1  -14    1      2.90      0.00
    1   14    0     19.14      0.00
    1   14    1      8.68      0.00
    1   14    2      0.31      0.00
    1   14    3      7.90      0.00
    1   14    4      6.13      0.00
    1   14    5     -6.49      0.00
    1   14    6     -4.01      0.00
    1   14    7      5.69      0.00
    1   14    8     -0.23      0.00
    1   14    9     -9.04      0.00
    1   14   10     -4.45      0.00
    1   14   11      1.85      0.00
    1   14   12      0.68      0.00
   -1  -15    9     -6.50      0.00
   -1  -15    8     -1.78      0.00
   -1  -15    7      0.69      0.00
   -1  -15    6     -5.50      0.00
   -1  -15    5     -1.62      0.00
   -1  -15    4      8.16      0.00
   -1  -15    3      0.95      0.00
   -1  -15    2     -7.02      0.00
   -1  -15    1      7.65      0.00
    1   15    0     20.83      0.00
    1   15    1      9.77      0.00
    1   15    2     -2.92      0.00
    1   15    3      0.70      0.00
    1   15    4      3.00      0.00
    1   15    5     -2.89      0.00
    1   15    6     -1.89      0.00
    1   15    7      1.79      0.00
    1   15    8     -3.49      0.00
    1   15    9     -8.00      0.00
    1   15   10     -3.19      0.00
   -1  -16    7      0.74      0.00
   -1  -16    6     -0.67      0.00
   -1  -16    5      0.70      0.00
   -1  -16    4      4.99      0.00
   -1  -16    3      4.16      0.00
   -1  -16    2      1.43      0.00
   -1  -16    1      5.15      0.00
    1   16    0     10.26      0.00
    1   16    1      5.49      0.00
    1   16    2     -3.61      0.00
    1   16    3     -3.39      0.00
    1   16    4      1.79      0.00
    1   16    5      1.74      0.00
    1   16    6     -1.17      0.00
    1   16    7     -2.69      0.00
    1   16    8     -2.76      0.00
    1   16    9     -2.36      0.00
    1   16   10     -1.47      0.00
   -1  -17    5      0.89      0.00
   -1  -17    4     -0.05      0.00
   -1  -17    3      3.47      0.00
   -1  -17    2      4.12      0.00
   -1  -17    1     -0.85      0.00
    1   17    0     -1.04      0.00
    1   17    1      1.67      0.00
    1   17    2     -1.64      0.00
    1   17    3     -3.92      0.00
    1   17    4      0.41      0.00
    1   17    5      2.88      0.00
    1   17    6     -0.37      0.00
    1   17    7     -2.21      0.00
   -2   17    4     -0.32      0.00
   -2   17    3      3.31      0.00
   -2   17    1     -3.93      0.00
   -2   17    0      0.38      0.00
    2  -17    1      6.01      0.00
    2  -17    2      0.94      0.00
    2  -17    3     -6.17      0.00
   -2   16    7      0.05      0.00
   -2   16    6      0.14      0.00
   -2   16    5     -2.40      0.00
   -2   16    4     -1.94      0.00
   -2   16    3      1.96      0.00
   -2   16    2      0.27      0.00
   -2   16    1     -3.21      0.00
   -2   16    0      3.09      0.00
    2  -16    1      8.29      0.00
    2  -16    2     -2.05      0.00
    2  -16    3    -11.48      0.00
    2  -16    4     -3.38      0.00
    2  -16    5      4.96      0.00
    2  -16    6     -0.71      0.00
   -2   15    9      2.83      0.00
   -2   15    8     -2.67      0.00
   -2   15    7     -1.30      0.00
   -2   15    6      0.68      0.00
   -2   15    5     -2.90      0.00
   -2   15    4     -5.85      0.00
   -2   15    3     -2.41      0.00
   -2   15    2      1.97      0.00
   -2   15    1      1.91      0.00
   -2   15    0      3.00      0.00
    2  -15    1      4.58      0.00
    2  -15    2     -1.50      0.00
    2  -15    3     -5.98      0.00
    2  -15    4      1.99      0.00
    2  -15    5      7.79      0.00
    2  -15    6     -0.75      0.00
    2  -15    7     -7.55      0.00
    2  -15    8     -0.73      0.00
   -2   14   11      3.18      0.00
   -2   14   10      3.71      0.00
   -2   14    9      0.25      0.00
   -2   14    8     -3.02      0.00
   -2   14    7     -1.21      0.00
   -2   14    6      0.32      0.00
   -2   14    5     -3.89      0.00
   -2   14    4     -9.74      0.00
   -2   14    3     -6.84      0.00
   -2   14    2      3.61      0.00
   -2   14    1      6.10      0.00
   -2   14    0      0.48      0.00
    2  -14    1      1.26      0.00
    2  -14    2      6.87      0.00
    2  -14    3      6.77      0.00
    2  -14    4      3.20      0.00
    2  -14    5      2.35      0.00
    2  -14    6      0.33      0.00
    2  -14    7     -3.94      0.00
    2  -14    8     -1.30      0.00
    2  -14    9      5.27      0.00
    2  -14   10      4.13      0.00
   -2   13   12      2.88      0.00
   -2   13   11     -0.74      0.00
   -2   13   10     -4.04      0.00
   -2   13    9     -1.41      0.00
   -2   13    8      1.81      0.00
   -2   13    7     -0.29      0.00
   -2   13    6     -2.88      0.00
   -2   13    5     -3.56      0.00
   -2   13    4     -8.34      0.00
   -2   13    3     -9.68      0.00
   -2   13    2      1.95      0.00
   -2   13    1      9.21      0.00
   -2   13    0      0.62      0.00
    2  -13    1     -1.62      0.00
    2  -13    2     11.81      0.00
    2  -13    3     14.02      0.00
    2  -13    4     -0.85      0.00
    2  -13    5     -3.36      0.00
    2  -13    6      6.28      0.00
    2  -13    7      2.09      0.00
    2  -13    8     -6.79      0.00
    2  -13    9     -1.43      0.00
    2  -13   10      3.95      0.00
    2  -13   11     -1.66      0.00
   -2   12   13     -0.94      0.00
   -2   12   12     -0.88      0.00
   -2   12   11     -6.57      0.00
   -2   12   10     -9.92      0.00
   -2   12    9      0.41      0.00
   -2   12    8      8.30      0.00
   -2   12    7     -0.42      0.00
   -2   12    6     -6.23      0.00
   -2   12    5      1.15      0.00
   -2   12    4     -0.37      0.00
   -2   12    3     -9.66      0.00
   -2   12    2     -1.41      0.00
   -2   12    1     10.62      0.00
   -2   12    0     -0.35      0.00
    2  -12    1     -9.76      0.00
    2  -12    2      7.05      0.00
    2  -12    3     15.85      0.00
    2  -12    4     -0.26      0.00
    2  -12    5     -3.67      0.00
    2  -12    6      7.46      0.00
    2  -12    7     -0.71      0.00
    2  -12    8    -15.64      0.00
    2  -12    9     -7.79      0.00
    2  -12   10      5.49      0.00
    2  -12   11      0.70      0.00
    2  -12   12     -6.08      0.00
   -2   11   14     -2.43      0.00
   -2   11   13     -7.29      0.00
   -2   11   12     -5.65      0.00
   -2   11   11     -7.33      0.00
   -2   11   10     -8.90      0.00
   -2   11    9      2.34      0.00
   -2   11    8      9.76      0.00
   -2   11    7     -0.30      0.00
   -2   11    6     -3.92      0.00
   -2   11    5      8.97      0.00
   -2   11    4      9.33      0.00
   -2   11    3     -6.30      0.00
   -2   11    2     -5.13      0.00
   -2   11    1      7.22      0.00
   -2   11    0     -1.93      0.00
    2  -11    1    -14.47      0.00
    2  -11    2      0.25      0.00
    2  -11    3     14.47      0.00
    2  -11    4      3.89      0.00
    2  -11    5     -5.36      0.00
    2  -11    6     -3.86      0.00
    2  -11    7     -9.28      0.00
    2  -11    8    -15.08      0.00
    2  -11    9     -4.80      0.00
    2  -11   10      8.42      0.00
    2  -11   11      3.44      0.00
    2  -11   12     -6.57      0.00
    2  -11   13     -3.30      0.00
   -2   10   15      0.84      0.00
   -2   10   14     -5.83      0.00
   -2   10   13     -9.70      0.00
   -2   10   12     -4.66      0.00
   -2   10   11     -2.75      0.00
   -2   10   10     -5.62      0.00
   -2   10    9     -0.42      0.00
   -2   10    8      6.36      0.00
   -2   10    7      5.25      0.00
   -2   10    6      5.38      0.00
   -2   10    5     12.20      0.00
   -2   10    4     12.22      0.00
   -2   10    3     -0.66      0.00
   -2   10    2     -5.17      0.00
   -2   10    1      5.26      0.00
   -2   10    0      4.85      0.00
    2  -10    1     -8.50      0.00
    2  -10    2     -8.71      0.00
    2  -10    3      4.11      0.00
    2  -10    4      5.97      0.00
    2  -10    5     -7.68      0.00
    2  -10    6    -17.72      0.00
    2  -10    7    -12.21      0.00
    2  -10    8     -1.06      0.00
    2  -10    9      5.78      0.00
    2  -10   10      9.18      0.00
    2  -10   11      5.03      0.00
    2  -10   12     -3.57      0.00
    2  -10   13     -2.78      0.00
    2  -10   14      3.26      0.00
   -2    9   15     -3.67      0.00
   -2    9   14     -3.74      0.00
   -2    9   13     -3.11      0.00
   -2    9   12     -1.13      0.00
   -2    9   11     -0.81      0.00
   -2    9   10     -4.00      0.00
   -2    9    9     -3.58      0.00
   -2    9    8      5.34      0.00
   -2    9    7     15.84      0.00
   -2    9    6     12.22      0.00
   -2    9    5      1.43      0.00
   -2    9    4      4.73      0.00
   -2    9    3      9.81      0.00
   -2    9    2      4.96      0.00
   -2    9    1      7.99      0.00
   -2    9    0     13.24      0.00
    2   -9    1     -3.08      0.00
    2   -9    2    -22.70      0.00
    2   -9    3    -10.13      0.00
    2   -9    4     10.75      0.00
    2   -9    5     -4.35      0.00
    2   -9    6    -26.33      0.00
    2   -9    7    -10.98      0.00
    2   -9    8     14.75      0.00
    2   -9    9     16.04      0.00
    2   -9   10      8.85      0.00
    2   -9   11      8.06      0.00
    2   -9   12      3.23      0.00
    2   -9   13     -1.84      0.00
    2   -9   14      1.67      0.00
    2   -9   15      3.70      0.00
   -2    8   16     -5.71      0.00
   -2    8   15     -4.16      0.00
   -2    8   14      4.30      0.00
   -2    8   13      4.16      0.00
   -2    8   12     -2.56      0.00
   -2    8   11     -1.55      0.00
   -2    8   10      1.21      0.00
   -2    8    9     -1.18      0.00
   -2    8    8      6.03      0.00
   -2    8    7     19.54      0.00
   -2    8    6      6.10      0.00
   -2    8    5    -19.00      0.00
   -2    8    4     -4.58      0.00
   -2    8    3     24.38      0.00
   -2    8    2     17.91      0.00
   -2    8    1      3.75      0.00
   -2    8    0      7.29      0.00
    2   -8    1     -5.42      0.00
    2   -8    2    -30.04      0.00
    2   -8    3    -14.06      0.00
    2   -8    4     17.65      0.00
    2   -8    5     -1.40      0.00
    2   -8    6    -32.73      0.00
    2   -8    7    -12.75      0.00
    2   -8    8     21.53      0.00
    2   -8    9     22.58      0.00
    2   -8   10     11.53      0.00
    2   -8   11     11.22      0.00
    2   -8   12      5.96      0.00
    2   -8   13     -4.55      0.00
    2   -8   14     -2.04      0.00
    2   -8   15      2.74      0.00
   -2    7   16     -5.65      0.00
   -2    7   15     -0.23      0.00
   -2    7   14      8.82      0.00
   -2    7   13      4.66      0.00
   -2    7   12     -4.46      0.00
   -2    7   11      1.74      0.00
   -2    7   10      8.58      0.00
   -2    7    9      0.75      0.00
   -2    7    8      0.90      0.00
   -2    7    7     11.11      0.00
   -2    7    6     -4.50      0.00
   -2    7    5    -30.05      0.00
   -2    7    4    -10.52      0.00
   -2    7    3     27.10      0.00
   -2    7    2     18.61      0.00
   -2    7    1     -9.61      0.00
   -2    7    0     -9.64      0.00
    2   -7    1     -7.97      0.00
    2   -7    2    -19.51      0.00
    2   -7    3     -6.37      0.00
    2   -7    4     15.89      0.00
    2   -7    5     -4.52      0.00
    2   -7    6    -33.45      0.00
    2   -7    7    -15.72      0.00
    2   -7    8     18.56      0.00
    2   -7    9     25.99      0.00
    2   -7   10     15.45      0.00
    2   -7   11      6.93      0.00
    2   -7   12     -1.66      0.00
    2   -7   13     -8.97      0.00
    2   -7   14     -4.06      0.00
    2   -7   15      1.72      0.00
    2   -7   16     -1.45      0.00
   -2    6   16     -1.51      0.00
   -2    6   15      2.39      0.00
   -2    6   14      6.47      0.00
   -2    6   13      3.85      0.00
   -2    6   12     -0.21      0.00
   -2    6   11      4.15      0.00
   -2    6   10      6.27      0.00
   -2    6    9     -2.16      0.00
   -2    6    8     -3.47      0.00
   -2    6    7      4.89      0.00
   -2    6    6     -3.94      0.00
   -2    6    5    -26.85      0.00
   -2    6    4    -22.70      0.00
   -2    6    3      8.01      0.00
   -2    6    2     13.30      0.00
   -2    6    1    -13.33      0.00
   -2    6    0    -23.70      0.00
    2   -6    1     -8.66      0.00
    2   -6    2      2.66      0.00
    2   -6    3      5.82      0.00
    2   -6    4      6.50      0.00
    2   -6    5     -4.50      0.00
    2   -6    6    -20.29      0.00
    2   -6    7    -15.69      0.00
    2   -6    8      8.82      0.00
    2   -6    9     24.68      0.00
    2   -6   10     14.26      0.00
    2   -6   11     -6.23      0.00
    2   -6   12    -13.16      0.00
    2   -6   13     -8.09      0.00
    2   -6   14     -1.59      0.00
    2   -6   15      0.83      0.00
    2   -6   16     -1.53      0.00
    2   -6   17     -3.14      0.00
   -2    5   17      1.90      0.00
   -2    5   16      2.92      0.00
   -2    5   15      2.27      0.00
   -2    5   14      2.83      0.00
   -2    5   13      6.20      0.00
   -2    5   12      4.37      0.00
   -2    5   11     -3.28      0.00
   -2    5   10     -5.39      0.00
   -2    5    9      0.75      0.00
   -2    5    8      6.82      0.00
   -2    5    7      8.47      0.00
   -2    5    6      0.97      0.00
   -2    5    5    -22.13      0.00
   -2    5    4    -38.15      0.00
   -2    5    3    -12.57      0.00
   -2    5    2     20.40      0.00
   -2    5    1     -0.69      0.00
   -2    5    0    -36.36      0.00
    2   -5    1    -14.95      0.00
    2   -5    2     27.11      0.00
    2   -5    3     24.83      0.00
    2   -5    4      4.64      0.00
    2   -5    5      5.69      0.00
    2   -5    6      0.89      0.00
    2   -5    7    -15.59      0.00
    2   -5    8     -5.67      0.00
    2   -5    9     17.56      0.00
    2   -5   10      8.96      0.00
    2   -5   11    -17.40      0.00
    2   -5   12    -18.06      0.00
    2   -5   13     -1.56      0.00
    2   -5   14      2.87      0.00
    2   -5   15     -0.03      0.00
    2   -5   16     -0.73      0.00
    2   -5   17     -1.90      0.00
   -2    4   17      4.97      0.00
   -2    4   16      5.69      0.00
   -2    4   15      0.98      0.00
   -2    4   14     -0.13      0.00
   -2    4   13      6.93      0.00
   -2    4   12      2.75      0.00
   -2    4   11    -14.85      0.00
   -2    4   10    -12.78      0.00
   -2    4    9     13.85      0.00
   -2    4    8     23.58      0.00
   -2    4    7      8.08      0.00
   -2    4    6     -1.66      0.00
   -2    4    5    -13.21      0.00
   -2    4    4    -34.70      0.00
   -2    4    3    -16.34      0.00
   -2    4    2     29.96      0.00
   -2    4    1      8.07      0.00
   -2    4    0    -49.48      0.00
    2   -4    1    -19.80      0.00
    2   -4    2     52.44      0.00
    2   -4    3     50.50      0.00
    2   -4    4     13.41      0.00
    2   -4    5     14.96      0.00
    2   -4    6     11.80      0.00
    2   -4    7    -18.88      0.00
    2   -4    8    -17.60      0.00
    2   -4    9     11.13      0.00
    2   -4   10      7.27      0.00
    2   -4   11    -18.60      0.00
    2   -4   12    -17.08      0.00
    2   -4   13      2.74      0.00
    2   -4   14      6.48      0.00
    2   -4   15      1.97      0.00
    2   -4   16      2.54      0.00
    2   -4   17      1.19      0.00
   -2    3   17      5.18      0.00
   -2    3   16      5.24      0.00
   -2    3   15     -1.88      0.00
   -2    3   14     -4.56      0.00
   -2    3   13      3.13      0.00
   -2    3   12     -1.39      0.00
   -2    3   11    -19.36      0.00
   -2    3   10    -12.83      0.00
   -2    3    9     20.71      0.00
   -2    3    8     27.15      0.00
   -2    3    7      1.85      0.00
   -2    3    6     -0.86      0.00
   -2    3    5      6.03      0.00
   -2    3    4    -16.70      0.00
   -2    3    3    -19.03      0.00
   -2    3    2     18.63      0.00
   -2    3    1      8.49      0.00
   -2    3    0    -39.70      0.00
    2   -3    1    -11.97      0.00
    2   -3    2     58.50      0.00
    2   -3    3     59.75      0.00
    2   -3    4     20.07      0.00
    2   -3    5      9.69      0.00
    2   -3    6      2.83      0.00
    2   -3    7    -19.97      0.00
    2   -3    8    -15.30      0.00
    2   -3    9     11.12      0.00
    2   -3   10      8.73      0.00
    2   -3   11    -14.19      0.00
    2   -3   12    -15.64      0.00
    2   -3   13      2.40      0.00
    2   -3   14     10.78      0.00
    2   -3   15      7.59      0.00
    2   -3   16      4.39      0.00
    2   -3   17      1.10      0.00
    2   -3   18     -1.24      0.00
   -2    2   18      2.85      0.00
   -2    2   17      2.07      0.00
   -2    2   16      0.23      0.00
   -2    2   15     -6.34      0.00
   -2    2   14     -7.93      0.00
   -2    2   13     -0.56      0.00
   -2    2   12     -3.13      0.00
   -2    2   11    -16.78      0.00
   -2    2   10    -14.33      0.00
   -2    2    9     10.70      0.00
   -2    2    8     21.88      0.00
   -2    2    7      8.26      0.00
   -2    2    6      7.27      0.00
   -2    2    5     10.84      0.00
   -2    2    4    -12.59      0.00
   -2    2    3    -25.85      0.00
   -2    2    2      3.11      0.00
   -2    2    1     22.27      0.00
   -2    2    0     -3.14      0.00
    2   -2    1    -17.22      0.00
    2   -2    2     14.21      0.00
    2   -2    3     40.85      0.00
    2   -2    4     23.87      0.00
    2   -2    5     -8.70      0.00
    2   -2    6    -20.34      0.00
    2   -2    7    -12.75      0.00
    2   -2    8      1.91      0.00
    2   -2    9     12.80      0.00
    2   -2   10      7.01      0.00
    2   -2   11     -7.95      0.00
    2   -2   12    -11.59      0.00
    2   -2   13      1.49      0.00
    2   -2   14     13.62      0.00
    2   -2   15      9.36      0.00
    2   -2   16     -1.20      0.00
    2   -2   17     -3.86      0.00
    2   -2   18     -0.88      0.00
   -2    1   18      2.09      0.00
   -2    1   17     -3.09      0.00
   -2    1   16     -7.53      0.00
   -2    1   15     -8.18      0.00
   -2    1   14     -4.51      0.00
   -2    1   13     -0.69      0.00
   -2    1   12     -3.95      0.00
   -2    1   11    -12.65      0.00
   -2    1   10    -17.18      0.00
   -2    1    9     -1.91      0.00
   -2    1    8     24.78      0.00
   -2    1    7     25.62      0.00
   -2    1    6      1.46      0.00
   -2    1    5    -14.79      0.00
   -2    1    4    -13.73      0.00
   -2    1    3     -6.45      0.00
   -2    1    2     10.03      0.00
   -2    1    1     34.83      0.00
   -2    1    0     12.84      0.00
    2   -1    1    -53.03      0.00
    2   -1    2    -48.92      0.00
    2   -1    3     23.82      0.00
    2   -1    4     29.63      0.00
    2   -1    5    -33.89      0.00
    2   -1    6    -46.16      0.00
    2   -1    7      0.27      0.00
    2   -1    8     23.18      0.00
    2   -1    9     12.01      0.00
    2   -1   10      3.45      0.00
    2   -1   11      1.19      0.00
    2   -1   12     -3.86      0.00
    2   -1   13     -0.77      0.00
    2   -1   14      8.68      0.00
    2   -1   15      2.56      0.00
    2   -1   16    -10.48      0.00
    2   -1   17     -7.97      0.00
    2   -1   18      1.07      0.00
   -2    0   17     -7.61      0.00
   -2    0   16    -12.02      0.00
   -2    0   15     -3.72      0.00
   -2    0   14      3.80      0.00
   -2    0   13     -0.21      0.00
   -2    0   12     -4.91      0.00
   -2    0   11     -5.99      0.00
   -2    0   10    -12.00      0.00
   -2    0    9     -3.46      0.00
   -2    0    8     30.17      0.00
   -2    0    7     31.11      0.00
   -2    0    6    -18.22      0.00
   -2    0    5    -36.38      0.00
   -2    0    4      8.25      0.00
   -2    0    3     35.51      0.00
   -2    0    2     14.07      0.00
   -2    0    1      8.93      0.00
    2    0    0     -4.33      0.00
    2    0    1    -64.82      0.00
    2    0    2    -59.74      0.00
    2    0    3     22.19      0.00
    2    0    4     21.43      0.00
    2    0    5    -55.94      0.00
    2    0    6    -56.12      0.00
    2    0    7     15.67      0.00
    2    0    8     39.09      0.00
    2    0    9     11.49      0.00
    2    0   10      2.43      0.00
    2    0   11      9.11      0.00
    2    0   12      1.47      0.00
    2    0   13     -5.61      0.00
    2    0   14     -1.38      0.00
    2    0   15     -5.71      0.00
    2    0   16    -14.06      0.00
    2    0   17     -7.72      0.00
    2    0   18      2.09      0.00
   -2   -1   17     -7.87      0.00
   -2   -1   16     -9.96      0.00
   -2   -1   15      2.47      0.00
   -2   -1   14      8.86      0.00
   -2   -1   13     -0.12      0.00
   -2   -1   12     -1.91      0.00
   -2   -1   11      4.34      0.00
   -2   -1   10     -1.44      0.00
   -2   -1    9     -2.03      0.00
   -2   -1    8     23.32      0.00
   -2   -1    7     24.61      0.00
   -2   -1    6    -20.19      0.00
   -2   -1    5    -26.82      0.00
   -2   -1    4     29.52      0.00
   -2   -1    3     45.95      0.00
   -2   -1    2     -7.05      0.00
   -2   -1    1    -27.16      0.00
    2    1    0     -5.20      0.00
    2    1    1    -18.03      0.00
    2    1    2    -23.67      0.00
    2    1    3      8.34      0.00
    2    1    4     -3.41      0.00
    2    1    5    -49.83      0.00
    2    1    6    -34.62      0.00
    2    1    7     26.77      0.00
    2    1    8     41.19      0.00
    2    1    9     12.24      0.00
    2    1   10      3.02      0.00
    2    1   11      8.77      0.00
    2    1   12      1.40      0.00
    2    1   13     -7.11      0.00
    2    1   14     -6.34      0.00
    2    1   15     -7.57      0.00
    2    1   16    -10.40      0.00
    2    1   17     -5.88      0.00
    2    1   18      0.61      0.00
   -2   -2   17     -3.99      0.00
   -2   -2   16     -5.10      0.00
   -2   -2   15      3.97      0.00
   -2   -2   14      8.85      0.00
   -2   -2   13      3.43      0.00
   -2   -2   12      4.44      0.00
   -2   -2   11      8.42      0.00
   -2   -2   10      0.76      0.00
   -2   -2    9     -4.62      0.00
   -2   -2    8     12.54      0.00
   -2   -2    7     24.36      0.00
   -2   -2    6      0.32      0.00
   -2   -2    5    -15.33      0.00
   -2   -2    4      6.92      0.00
   -2   -2    3     15.13      0.00
   -2   -2    2    -14.28      0.00
   -2   -2    1    -24.33      0.00
    2    2    0      9.32      0.00
    2    2    1     26.87      0.00
    2    2    2      5.18      0.00
    2    2    3    -12.29      0.00
    2    2    4    -11.45      0.00
    2    2    5     -8.40      0.00
    2    2    6     -0.13      0.00
    2    2    7     18.46      0.00
    2    2    8     25.90      0.00
    2    2    9     13.21      0.00
    2    2   10      1.17      0.00
    2    2   11     -1.63      0.00
    2    2   12     -0.46      0.00
    2    2   13     -0.25      0.00
    2    2   14     -2.71      0.00
    2    2   15     -4.42      0.00
    2    2   16     -5.27      0.00
    2    2   17     -4.75      0.00
    2    2   18     -0.68      0.00
   -2   -3   17      0.60      0.00
   -2   -3   16     -0.86      0.00
   -2   -3   15      1.04      0.00
   -2   -3   14      6.85      0.00
   -2   -3   13      9.26      0.00
   -2   -3   12      5.39      0.00
   -2   -3   11     -2.20      0.00
   -2   -3   10     -5.63      0.00
   -2   -3    9     -1.05      0.00
   -2   -3    8     11.91      0.00
   -2   -3    7     25.75      0.00
   -2   -3    6     10.34      0.00
   -2   -3    5    -29.03      0.00
   -2   -3    4    -38.62      0.00
   -2   -3    3     -5.58      0.00
   -2   -3    2     13.11      0.00
   -2   -3    1    -10.33      0.00
    2    3    0     -9.94      0.00
    2    3    1     30.05      0.00
    2    3    2     29.53      0.00
    2    3    3     -3.08      0.00
    2    3    4      5.11      0.00
    2    3    5     26.88      0.00
    2    3    6      9.92      0.00
    2    3    7     -8.17      0.00
    2    3    8      5.88      0.00
    2    3    9     12.80      0.00
    2    3   10     -6.99      0.00
    2    3   11    -16.33      0.00
    2    3   12      0.72      0.00
    2    3   13     11.38      0.00
    2    3   14      3.20      0.00
    2    3   15     -2.08      0.00
    2    3   16     -2.20      0.00
    2    3   17     -3.18      0.00
    2    3   18      0.06      0.00
   -2   -4   17      3.85      0.00
   -2   -4   16      1.35      0.00
   -2   -4   15     -3.66      0.00
   -2   -4   14      3.81      0.00
   -2   -4   13     11.98      0.00
   -2   -4   12     -1.55      0.00
   -2   -4   11    -18.29      0.00
   -2   -4   10     -7.83      0.00
   -2   -4    9     12.17      0.00
   -2   -4    8     13.95      0.00
   -2   -4    7     11.31      0.00
   -2   -4    6     -2.62      0.00
   -2   -4    5    -42.62      0.00
   -2   -4    4    -52.69      0.00
   -2   -4    3      0.95      0.00
   -2   -4    2     29.46      0.00
   -2   -4    1    -24.72      0.00
    2    4    0    -43.81      0.00
    2    4    1     31.39      0.00
    2    4    2     65.75      0.00
    2    4    3     22.93      0.00
    2    4    4      8.53      0.00
    2    4    5     19.51      0.00
    2    4    6     -4.76      0.00
    2    4    7    -25.73      0.00
    2    4    8     -4.56      0.00
    2    4    9      6.34      0.00
    2    4   10    -18.33      0.00
    2    4   11    -23.92      0.00
    2    4   12      5.07      0.00
    2    4   13     18.29      0.00
    2    4   14      4.66      0.00
    2    4   15     -2.23      0.00
    2    4   16     -0.08      0.00
    2    4   17     -0.48      0.00
    2    4   18      1.39      0.00
   -2   -5   17      3.63      0.00
   -2   -5   16     -0.22      0.00
   -2   -5   15     -6.44      0.00
   -2   -5   14      2.00      0.00
   -2   -5   13     10.25      0.00
   -2   -5   12     -8.97      0.00
   -2   -5   11    -25.11      0.00
   -2   -5   10     -2.66      0.00
   -2   -5    9     21.92      0.00
   -2   -5    8      8.65      0.00
   -2   -5    7    -10.44      0.00
   -2   -5    6    -13.96      0.00
   -2   -5    5    -27.66      0.00
   -2   -5    4    -31.43      0.00
   -2   -5    3      1.31      0.00
   -2   -5    2     10.36      0.00
   -2   -5    1    -35.76      0.00
    2    5    0    -35.88      0.00
    2    5    1     45.61      0.00
    2    5    2     78.82      0.00
    2    5    3     25.26      0.00
    2    5    4    -12.33      0.00
    2    5    5     -9.01      0.00
    2    5    6    -12.50      0.00
    2    5    7    -18.74      0.00
    2    5    8     -7.76      0.00
    2    5    9     -5.59      0.00
    2    5   10    -21.52      0.00
    2    5   11    -18.58      0.00
    2    5   12      6.43      0.00
    2    5   13     15.30      0.00
    2    5   14      3.43      0.00
    2    5   15     -1.85      0.00
    2    5   16      1.54      0.00
    2    5   17      1.95      0.00
    2    5   18      2.30      0.00
   -2   -6   16     -2.53      0.00
   -2   -6   15     -3.33      0.00
   -2   -6   14      2.41      0.00
   -2   -6   13      4.79      0.00
   -2   -6   12    -11.17      0.00
   -2   -6   11    -19.53      0.00
   -2   -6   10      2.84      0.00
   -2   -6    9     21.09      0.00
   -2   -6    8      4.21      0.00
   -2   -6    7    -16.69      0.00
   -2   -6    6    -10.05      0.00
   -2   -6    5     -1.25      0.00
   -2   -6    4     -8.93      0.00
   -2   -6    3    -11.87      0.00
   -2   -6    2     -7.64      0.00
   -2   -6    1     -9.80      0.00
    2    6    0      1.33      0.00
    2    6    1     35.60      0.00
    2    6    2     46.33      0.00
    2    6    3     11.57      0.00
    2    6    4    -22.97      0.00
    2    6    5    -22.69      0.00
    2    6    6     -6.09      0.00
    2    6    7     -2.25      0.00
    2    6    8     -8.77      0.00
    2    6    9    -12.02      0.00
    2    6   10    -11.19      0.00
    2    6   11     -6.64      0.00
    2    6   12      1.85      0.00
    2    6   13      8.08      0.00
    2    6   14      4.95      0.00
    2    6   15     -0.79      0.00
    2    6   16     -0.11      0.00
    2    6   17      2.47      0.00
    2    6   18      2.86      0.00
   -2   -7   16     -1.77      0.00
   -2   -7   15      1.86      0.00
   -2   -7   14      1.35      0.00
   -2   -7   13     -2.11      0.00
   -2   -7   12     -7.58      0.00
   -2   -7   11     -7.85      0.00
   -2   -7   10      4.17      0.00
   -2   -7    9     15.10      0.00
   -2   -7    8      8.71      0.00
   -2   -7    7     -7.52      0.00
   -2   -7    6     -6.50      0.00
   -2   -7    5      9.29      0.00
   -2   -7    4      5.20      0.00
   -2   -7    3    -11.96      0.00
   -2   -7    2     -1.98      0.00
   -2   -7    1     22.29      0.00
    2    7    0     15.94      0.00
    2    7    1     -2.70      0.00
    2    7    2      6.59      0.00
    2    7    3     14.44      0.00
    2    7    4    -10.29      0.00
    2    7    5    -25.42      0.00
    2    7    6     -4.05      0.00
    2    7    7     10.04      0.00
    2    7    8     -1.84      0.00
    2    7    9     -5.54      0.00
    2    7   10      3.86      0.00
    2    7   11      2.28      0.00
    2    7   12     -3.47      0.00
    2    7   13      3.65      0.00
    2    7   14      7.03      0.00
    2    7   15     -2.51      0.00
    2    7   16     -4.91      0.00
    2    7   17      1.52      0.00
   -2   -8   15      3.25      0.00
   -2   -8   14     -0.49      0.00
   -2   -8   13     -5.04      0.00
   -2   -8   12     -1.23      0.00
   -2   -8   11      1.16      0.00
   -2   -8   10      0.64      0.00
   -2   -8    9      8.77      0.00
   -2   -8    8     15.83      0.00
   -2   -8    7      0.43      0.00
   -2   -8    6    -12.58      0.00
   -2   -8    5      6.81      0.00
   -2   -8    4     19.37      0.00
   -2   -8    3      2.10      0.00
   -2   -8    2      2.51      0.00
   -2   -8    1     21.06      0.00
    2    8    0      2.37      0.00
    2    8    1    -26.55      0.00
    2    8    2     -2.61      0.00
    2    8    3     26.10      0.00
    2    8    4     -3.11      0.00
    2    8    5    -32.61      0.00
    2    8    6     -7.00      0.00
    2    8    7     21.14      0.00
    2    8    8     12.90      0.00
    2    8    9      5.08      0.00
    2    8   10     10.08      0.00
    2    8   11      3.85      0.00
    2    8   12     -4.84      0.00
    2    8   13      1.46      0.00
    2    8   14      4.39      0.00
    2    8   15     -5.72      0.00
    2    8   16     -7.40      0.00
    2    8   17      0.94      0.00
   -2   -9   15      3.02      0.00
   -2   -9   14      1.15      0.00
   -2   -9   13     -3.18      0.00
   -2   -9   12      1.32      0.00
   -2   -9   11      2.00      0.00
   -2   -9   10     -4.24      0.00
   -2   -9    9      4.78      0.00
   -2   -9    8     18.01      0.00
   -2   -9    7      1.94      0.00
   -2   -9    6    -17.59      0.00
   -2   -9    5      2.62      0.00
   -2   -9    4     24.48      0.00
   -2   -9    3      6.78      0.00
   -2   -9    2     -9.39      0.00
   -2   -9    1     -1.65      0.00
    2    9    0     -6.70      0.00
    2    9    1    -16.13      0.00
    2    9    2      4.08      0.00
    2    9    3     17.01      0.00
    2    9    4    -12.18      0.00
    2    9    5    -31.41      0.00
    2    9    6     -1.95      0.00
    2    9    7     27.17      0.00
    2    9    8     19.74      0.00
    2    9    9      6.30      0.00
    2    9   10      4.42      0.00
    2    9   11      1.34      0.00
    2    9   12     -2.22      0.00
    2    9   13     -0.93      0.00
    2    9   14     -1.34      0.00
    2    9   15     -5.80      0.00
    2    9   16     -4.95      0.00
   -2  -10   14      3.98      0.00
   -2  -10   13     -1.78      0.00
   -2  -10   12     -2.74      0.00
   -2  -10   11     -1.70      0.00
   -2  -10   10     -3.24      0.00
   -2  -10    9      5.37      0.00
   -2  -10    8     14.56      0.00
   -2  -10    7      1.52      0.00
   -2  -10    6    -15.30      0.00
   -2  -10    5     -4.83      0.00
   -2  -10    4     12.76      0.00
   -2  -10    3      2.60      0.00
   -2  -10    2    -17.32      0.00
   -2  -10    1    -15.36      0.00
    2   10    0     -2.30      0.00
    2   10    1      2.93      0.00
    2   10    2      1.95      0.00
    2   10    3     -3.37      0.00
    2   10    4    -11.62      0.00
    2   10    5    -11.56      0.00
    2   10    6      2.99      0.00
    2   10    7     16.01      0.00
    2   10    8     11.67      0.00
    2   10    9      0.67      0.00
    2   10   10     -2.76      0.00
    2   10   11      0.34      0.00
    2   10   12      1.34      0.00
    2   10   13     -3.11      0.00
    2   10   14     -5.10      0.00
    2   10   15     -3.14      0.00
    2   10   16     -1.61      0.00
   -2  -11   13     -2.51      0.00
   -2  -11   12     -7.65      0.00
   -2  -11   11     -2.86      0.00
   -2  -11   10      4.15      0.00
   -2  -11    9      7.55      0.00
   -2  -11    8      6.76      0.00
   -2  -11    7      0.23      0.00
   -2  -11    6    -10.29      0.00
   -2  -11    5    -13.42      0.00
   -2  -11    4     -0.65      0.00
   -2  -11    3      6.04      0.00
   -2  -11    2    -10.25      0.00
   -2  -11    1    -18.83      0.00
    2   11    0     -0.47      0.00
    2   11    1     12.84      0.00
    2   11    2      1.91      0.00
    2   11    3     -5.81      0.00
    2   11    4      3.92      0.00
    2   11    5      5.25      0.00
    2   11    6     -5.59      0.00
    2   11    7     -4.28      0.00
    2   11    8      3.24      0.00
    2   11    9     -0.46      0.00
    2   11   10     -5.23      0.00
    2   11   11     -0.35      0.00
    2   11   12      2.75      0.00
    2   11   13     -2.82      0.00
    2   11   14     -4.82      0.00
    2   11   15     -1.25      0.00
   -2  -12   12     -7.81      0.00
   -2  -12   11     -1.34      0.00
   -2  -12   10      9.51      0.00
   -2  -12    9      6.71      0.00
   -2  -12    8     -1.85      0.00
   -2  -12    7     -1.88      0.00
   -2  -12    6     -5.45      0.00
   -2  -12    5    -14.66      0.00
   -2  -12    4     -3.58      0.00
   -2  -12    3     13.08      0.00
   -2  -12    2     -2.44      0.00
   -2  -12    1    -20.20      0.00
    2   12    0     -0.27      0.00
    2   12    1     22.71      0.00
    2   12    2     13.83      0.00
    2   12    3      2.46      0.00
    2   12    4      9.06      0.00
    2   12    5      3.64      0.00
    2   12    6    -15.58      0.00
    2   12    7    -12.76      0.00
    2   12    8      2.82      0.00
    2   12    9      0.70      0.00
    2   12   10     -7.07      0.00
    2   12   11     -2.54      0.00
    2   12   12      3.52      0.00
    2   12   13      1.04      0.00
    2   12   14     -2.00      0.00
   -2  -13   11     -1.05      0.00
   -2  -13   10      8.26      0.00
   -2  -13    9      4.08      0.00
   -2  -13    8     -5.97      0.00
   -2  -13    7     -3.44      0.00
   -2  -13    6     -1.83      0.00
   -2  -13    5     -8.79      0.00
   -2  -13    4     -1.53      0.00
   -2  -13    3     11.90      0.00
   -2  -13    2      0.42      0.00
   -2  -13    1    -12.70      0.00
    2   13    0      7.00      0.00
    2   13    1     29.19      0.00
    2   13    2     19.13      0.00
    2   13    3      0.82      0.00
    2   13    4     -0.59      0.00
    2   13    5     -2.74      0.00
    2   13    6    -12.27      0.00
    2   13    7     -8.96      0.00
    2   13    8      0.71      0.00
    2   13    9     -2.02      0.00
    2   13   10     -6.81      0.00
    2   13   11     -1.93      0.00
    2   13   12      4.73      0.00
    2   13   13      4.49      0.00
   -2  -14   10      4.09      0.00
   -2  -14    9      2.75      0.00
   -2  -14    8     -4.92      0.00
   -2  -14    7     -4.68      0.00
   -2  -14    6     -0.60      0.00
   -2  -14    5     -1.32      0.00
   -2  -14    4     -0.02      0.00
   -2  -14    3      5.17      0.00
   -2  -14    2      4.75      0.00
   -2  -14    1      2.69      0.00
    2   14    0     10.74      0.00
    2   14    1     18.53      0.00
    2   14    2     10.28      0.00
    2   14    3     -3.95      0.00
    2   14    4     -7.49      0.00
    2   14    5     -3.97      0.00
    2   14    6     -3.84      0.00
    2   14    7     -5.80      0.00
    2   14    8     -5.07      0.00
    2   14    9     -2.45      0.00
    2   14   10     -0.27      0.00
    2   14   11      0.98      0.00
    2   14   12      2.94      0.00
   -2  -15    9      2.28      0.00
   -2  -15    8     -2.25      0.00
   -2  -15    7     -5.27      0.00
   -2  -15    6     -0.33      0.00
   -2  -15    5      4.41      0.00
   -2  -15    4      0.69      0.00
   -2  -15    3     -0.45      0.00
   -2  -15    2      8.44      0.00
   -2  -15    1     10.88      0.00
    2   15    0      2.45      0.00
    2   15    1     -0.67      0.00
    2   15    2      2.06      0.00
    2   15    3     -1.40      0.00
    2   15    4     -7.56      0.00
    2   15    5     -5.26      0.00
    2   15    6     -0.98      0.00
    2   15    7     -4.23      0.00
    2   15    8     -4.88      0.00
    2   15    9      2.56      0.00
    2   15   10      5.61      0.00
    2   15   11      1.05      0.00
   -2  -16    7     -3.93      0.00
   -2  -16    6     -0.03      0.00
   -2  -16    5      5.96      0.00
   -2  -16    4      0.73      0.00
   -2  -16    3     -3.22      0.00
   -2  -16    2      6.18      0.00
   -2  -16    1      7.23      0.00
    2   16    0     -7.02      0.00
    2   16    1    -10.39      0.00
    2   16    2      0.68      0.00
    2   16    3      2.67      0.00
    2   16    4     -6.41      0.00
    2   16    5     -7.43      0.00
    2   16    6     -1.07      0.00
    2   16    7     -0.11      0.00
    2   16    8      0.61      0.00
    2   16    9      5.07      0.00
   -2  -17    5      4.22      0.00
   -2  -17    4      0.94      0.00
   -2  -17    3     -3.31      0.00
   -2  -17    2      0.72      0.00
   -2  -17    1      0.81      0.00
    2   17    0     -7.51      0.00
    2   17    1     -8.16      0.00
    2   17    2      0.88      0.00
    2   17    3      2.88      0.00
    2   17    4     -4.53      0.00
    2   17    5     -6.23      0.00
    2   17    6     -0.21      0.00
    2   17    7      3.03      0.00
   -3   16    5      0.61      0.00
   -3   16    4     -1.19      0.00
   -3   16    3     -3.57      0.00
   -3   16    2     -1.54      0.00
   -3   16    1      3.53      0.00
   -3   16    0      1.56      0.00
    3  -16    1     -4.00      0.00
    3  -16    2     -2.21      0.00
    3  -16    3      3.54      0.00
    3  -16    4      4.85      0.00
    3  -16    5      2.41      0.00
   -3   15    8     -1.47      0.00
   -3   15    7      0.18      0.00
   -3   15    6     -1.34      0.00
   -3   15    5     -2.26      0.00
   -3   15    4     -0.56      0.00
   -3   15    3     -0.92      0.00
   -3   15    2     -1.35      0.00
   -3   15    1      1.83      0.00
   -3   15    0      0.82      0.00
    3  -15    1     -4.41      0.00
    3  -15    2     -1.31      0.00
    3  -15    3      8.20      0.00
    3  -15    4      8.60      0.00
    3  -15    5     -0.13      0.00
    3  -15    6     -1.36      0.00
   -3   14   10     -3.85      0.00
   -3   14    9     -6.91      0.00
   -3   14    8     -1.67      0.00
   -3   14    7      1.49      0.00
   -3   14    6     -3.44      0.00
   -3   14    5     -3.51      0.00
   -3   14    4      5.08      0.00
   -3   14    3      5.88      0.00
   -3   14    2     -3.04      0.00
   -3   14    1     -3.56      0.00
   -3   14    0      3.05      0.00
    3  -14    1      0.93      0.00
    3  -14    2     -2.83      0.00
    3  -14    3      3.16      0.00
    3  -14    4      5.34      0.00
    3  -14    5     -2.34      0.00
    3  -14    6     -0.92      0.00
    3  -14    7      8.65      0.00
    3  -14    8      4.59      0.00
    3  -14    9     -6.11      0.00
   -3   13   11     -1.55      0.00
   -3   13   10     -6.03      0.00
   -3   13    9     -8.88      0.00
   -3   13    8     -2.24      0.00
   -3   13    7      2.49      0.00
   -3   13    6     -1.88      0.00
   -3   13    5      0.08      0.00
   -3   13    4     11.69      0.00
   -3   13    3     11.00      0.00
   -3   13    2     -3.69      0.00
   -3   13    1     -5.13      0.00
   -3   13    0      6.67      0.00
    3  -13    1      2.63      0.00
    3  -13    2    -12.09      0.00
    3  -13    3     -9.72      0.00
    3  -13    4      1.51      0.00
    3  -13    5      2.78      0.00
    3  -13    6      2.79      0.00
    3  -13    7      6.04      0.00
    3  -13    8      0.70      0.00
    3  -13    9     -7.93      0.00
    3  -13   10     -5.02      0.00
    3  -13   11      1.94      0.00
   -3   12   12     -4.35      0.00
   -3   12   11     -2.85      0.00
   -3   12   10     -4.05      0.00
   -3   12    9     -6.66      0.00
   -3   12    8     -3.33      0.00
   -3   12    7      2.23      0.00
   -3   12    6      3.67      0.00
   -3   12    5      6.02      0.00
   -3   12    4     12.01      0.00
   -3   12    3     11.24      0.00
   -3   12    2      0.95      0.00
   -3   12    1     -2.83      0.00
   -3   12    0      3.19      0.00
    3  -12    1     -1.19      0.00
    3  -12    2    -16.22      0.00
    3  -12    3    -16.62      0.00
    3  -12    4     -0.39      0.00
    3  -12    5      8.83      0.00
    3  -12    6      3.19      0.00
    3  -12    7     -3.34      0.00
    3  -12    8     -3.03      0.00
    3  -12    9     -1.74      0.00
    3  -12   10     -0.79      0.00
    3  -12   11      1.75      0.00
    3  -12   12      1.67      0.00
   -3   11   13     -2.57      0.00
   -3   11   12     -1.60      0.00
   -3   11   11     -0.41      0.00
   -3   11   10     -0.14      0.00
   -3   11    9     -2.45      0.00
   -3   11    8     -4.50      0.00
   -3   11    7      0.65      0.00
   -3   11    6      9.80      0.00
   -3   11    5      9.72      0.00
   -3   11    4      4.17      0.00
   -3   11    3      6.01      0.00
   -3   11    2      6.91      0.00
   -3   11    1     -0.62      0.00
   -3   11    0     -2.82      0.00
    3  -11    1      1.25      0.00
    3  -11    2     -6.24      0.00
    3  -11    3    -17.36      0.00
    3  -11    4     -7.45      0.00
    3  -11    5      9.32      0.00
    3  -11    6      3.96      0.00
    3  -11    7     -8.05      0.00
    3  -11    8     -1.58      0.00
    3  -11    9      7.92      0.00
    3  -11   10      3.45      0.00
    3  -11   11     -0.80      0.00
    3  -11   12      2.35      0.00
    3  -11   13      1.97      0.00
   -3   10   14     -4.12      0.00
   -3   10   13      2.63      0.00
   -3   10   12      5.25      0.00
   -3   10   11      1.36      0.00
   -3   10   10      1.48      0.00
   -3   10    9      2.12      0.00
   -3   10    8     -3.66      0.00
   -3   10    7     -0.94      0.00
   -3   10    6     12.27      0.00
   -3   10    5      7.85      0.00
   -3   10    4     -9.22      0.00
   -3   10    3     -4.41      0.00
   -3   10    2      9.79      0.00
   -3   10    1      3.72      0.00
   -3   10    0     -2.62      0.00
    3  -10    1      8.49      0.00
    3  -10    2      4.75      0.00
    3  -10    3    -19.02      0.00
    3  -10    4    -15.78      0.00
    3  -10    5     10.60      0.00
    3  -10    6     11.03      0.00
    3  -10    7     -5.19      0.00
    3  -10    8     -1.29      0.00
    3  -10    9      9.87      0.00
    3  -10   10      4.49      0.00
    3  -10   11     -1.17      0.00
    3  -10   12      5.42      0.00
    3  -10   13      5.41      0.00
    3  -10   14     -2.07      0.00
   -3    9   14     -1.63      0.00
   -3    9   13      7.59      0.00
   -3    9   12      7.79      0.00
   -3    9   11      0.55      0.00
   -3    9   10      3.45      0.00
   -3    9    9      7.47      0.00
   -3    9    8     -1.50      0.00
   -3    9    7     -3.83      0.00
   -3    9    6      7.37      0.00
   -3    9    5      0.91      0.00
   -3    9    4    -20.31      0.00
   -3    9    3    -14.73      0.00
   -3    9    2      8.52      0.00
   -3    9    1      8.73      0.00
   -3    9    0     -0.38      0.00
    3   -9    1      7.72      0.00
    3   -9    2      5.67      0.00
    3   -9    3    -16.96      0.00
    3   -9    4    -14.27      0.00
    3   -9    5     13.94      0.00
    3   -9    6     17.14      0.00
    3   -9    7     -2.20      0.00
    3   -9    8     -7.29      0.00
    3   -9    9      1.59      0.00
    3   -9   10      4.26      0.00
    3   -9   11      2.98      0.00
    3   -9   12      6.17      0.00
    3   -9   13      2.81      0.00
    3   -9   14     -4.71      0.00
   -3    8   15     -1.70      0.00
   -3    8   14      0.33      0.00
   -3    8   13      5.57      0.00
   -3    8   12      6.60      0.00
   -3    8   11      4.04      0.00
   -3    8   10      7.61      0.00
   -3    8    9      7.75      0.00
   -3    8    8     -3.57      0.00
   -3    8    7     -8.85      0.00
   -3    8    6     -1.09      0.00
   -3    8    5     -2.25      0.00
   -3    8    4    -19.01      0.00
   -3    8    3    -21.62      0.00
   -3    8    2     -1.10      0.00
   -3    8    1      9.56      0.00
   -3    8    0      1.72      0.00
    3   -8    1     -0.92      0.00
    3   -8    2      0.08      0.00
    3   -8    3     -6.80      0.00
    3   -8    4     -5.07      0.00
    3   -8    5     11.30      0.00
    3   -8    6     16.83      0.00
    3   -8    7      1.67      0.00
    3   -8    8    -13.35      0.00
    3   -8    9     -9.66      0.00
    3   -8   10      3.67      0.00
    3   -8   11      6.08      0.00
    3   -8   12     -0.77      0.00
    3   -8   13     -5.84      0.00
    3   -8   14     -5.80      0.00
    3   -8   15     -0.75      0.00
   -3    7   15      1.31      0.00
   -3    7   14     -1.26      0.00
   -3    7   13      1.21      0.00
   -3    7   12      9.22      0.00
   -3    7   11     11.74      0.00
   -3    7   10      5.53      0.00
   -3    7    9     -3.49      0.00
   -3    7    8     -8.49      0.00
   -3    7    7     -8.06      0.00
   -3    7    6     -2.11      0.00
   -3    7    5      4.14      0.00
   -3    7    4     -7.89      0.00
   -3    7    3    -27.62      0.00
   -3    7    2    -16.64      0.00
   -3    7    1     11.25      0.00
   -3    7    0     10.47      0.00
    3   -7    1     -9.17      0.00
    3   -7    2     -9.06      0.00
    3   -7    3      3.69      0.00
    3   -7    4      3.49      0.00
    3   -7    5      5.15      0.00
    3   -7    6     18.34      0.00
    3   -7    7     12.60      0.00
    3   -7    8    -13.22      0.00
    3   -7    9    -18.54      0.00
    3   -7   10      0.14      0.00
    3   -7   11      3.86      0.00
    3   -7   12    -10.40      0.00
    3   -7   13    -12.39      0.00
    3   -7   14     -2.95      0.00
    3   -7   15      1.84      0.00
    3   -7   16      2.55      0.00
   -3    6   16      3.11      0.00
   -3    6   15      2.21      0.00
   -3    6   14     -2.15      0.00
   -3    6   13      0.22      0.00
   -3    6   12     12.75      0.00
   -3    6   11     13.43      0.00
   -3    6   10     -6.05      0.00
   -3    6    9    -17.60      0.00
   -3    6    8     -6.00      0.00
   -3    6    7      3.86      0.00
   -3    6    6      3.79      0.00
   -3    6    5     10.40      0.00
   -3    6    4      2.84      0.00
   -3    6    3    -27.41      0.00
   -3    6    2    -23.86      0.00
   -3    6    1     18.24      0.00
   -3    6    0     22.92      0.00
    3   -6    1    -15.44      0.00
    3   -6    2    -22.05      0.00
    3   -6    3      6.55      0.00
    3   -6    4     11.83      0.00
    3   -6    5      7.89      0.00
    3   -6    6     26.23      0.00
    3   -6    7     24.20      0.00
    3   -6    8    -10.95      0.00
    3   -6    9    -24.54      0.00
    3   -6   10     -5.36      0.00
    3   -6   11      1.32      0.00
    3   -6   12    -12.60      0.00
    3   -6   13    -12.10      0.00
    3   -6   14      1.14      0.00
    3   -6   15      4.53      0.00
    3   -6   16      3.65      0.00
   -3    5   16      2.83      0.00
   -3    5   15      2.83      0.00
   -3    5   14     -1.54      0.00
   -3    5   13     -1.15      0.00
   -3    5   12      9.59      0.00
   -3    5   11      7.59      0.00
   -3    5   10    -14.80      0.00
   -3    5    9    -20.66      0.00
   -3    5    8      2.62      0.00
   -3    5    7     13.95      0.00
   -3    5    6      5.06      0.00
   -3    5    5     10.56      0.00
   -3    5    4     13.40      0.00
   -3    5    3    -13.97      0.00
   -3    5    2    -19.90      0.00
   -3    5    1     18.97      0.00
   -3    5    0     26.76      0.00
    3   -5    1    -17.13      0.00
    3   -5    2    -31.99      0.00
    3   -5    3      1.44      0.00
    3   -5    4     20.73      0.00
    3   -5    5     20.47      0.00
    3   -5    6     29.57      0.00
    3   -5    7     21.57      0.00
    3   -5    8    -11.23      0.00
    3   -5    9    -23.54      0.00
    3   -5   10     -6.14      0.00
    3   -5   11      3.38      0.00
    3   -5   12     -6.96      0.00
    3   -5   13     -9.19      0.00
    3   -5   14      1.77      0.00
    3   -5   15      6.63      0.00
    3   -5   16      6.36      0.00
    3   -5   17      5.00      0.00
   -3    4   17      1.06      0.00
   -3    4   16      1.72      0.00
   -3    4   15      1.45      0.00
   -3    4   14     -3.46      0.00
   -3    4   13     -5.16      0.00
   -3    4   12      2.78      0.00
   -3    4   11      3.40      0.00
   -3    4   10    -11.17      0.00
   -3    4    9    -15.12      0.00
   -3    4    8      1.39      0.00
   -3    4    7      9.81      0.00
   -3    4    6      5.07      0.00
   -3    4    5     12.88      0.00
   -3    4    4     19.94      0.00
   -3    4    3     -1.74      0.00
   -3    4    2    -17.95      0.00
   -3    4    1      6.45      0.00
   -3    4    0     24.31      0.00
    3   -4    1     -4.72      0.00
    3   -4    2    -33.21      0.00
    3   -4    3    -14.85      0.00
    3   -4    4     20.86      0.00
    3   -4    5     30.79      0.00
    3   -4    6     18.84      0.00
    3   -4    7      3.13      0.00
    3   -4    8     -9.35      0.00
    3   -4    9    -10.97      0.00
    3   -4   10     -1.76      0.00
    3   -4   11      4.85      0.00
    3   -4   12     -0.91      0.00
    3   -4   13     -6.94      0.00
    3   -4   14     -0.45      0.00
    3   -4   15      8.46      0.00
    3   -4   16      9.16      0.00
    3   -4   17      3.63      0.00
   -3    3   17      0.96      0.00
   -3    3   16     -0.54      0.00
   -3    3   15     -4.47      0.00
   -3    3   14     -7.37      0.00
   -3    3   13     -5.80      0.00
   -3    3   12      0.44      0.00
   -3    3   11      4.43      0.00
   -3    3   10     -1.35      0.00
   -3    3    9    -12.52      0.00
   -3    3    8    -12.98      0.00
   -3    3    7      2.37      0.00
   -3    3    6     15.74      0.00
   -3    3    5     13.80      0.00
   -3    3    4      4.42      0.00
   -3    3    3     -5.93      0.00
   -3    3    2    -14.53      0.00
   -3    3    1     -1.28      0.00
   -3    3    0     27.47      0.00
    3   -3    1     15.95      0.00
    3   -3    2    -35.87      0.00
    3   -3    3    -43.64      0.00
    3   -3    4      9.70      0.00
    3   -3    5     33.65      0.00
    3   -3    6      1.01      0.00
    3   -3    7    -17.60      0.00
    3   -3    8     -2.67      0.00
    3   -3    9      5.22      0.00
    3   -3   10      0.04      0.00
    3   -3   11      2.02      0.00
    3   -3   12      4.54      0.00
    3   -3   13     -2.74      0.00
    3   -3   14     -2.56      0.00
    3   -3   15      7.74      0.00
    3   -3   16      7.76      0.00
    3   -3   17     -1.64      0.00
   -3    2   17      1.15      0.00
   -3    2   16     -4.32      0.00
   -3    2   15    -11.54      0.00
   -3    2   14     -7.34      0.00
   -3    2   13      0.79      0.00
   -3    2   12      3.08      0.00
   -3    2   11      6.34      0.00
   -3    2   10      6.19      0.00
   -3    2    9    -12.05      0.00
   -3    2    8    -23.46      0.00
   -3    2    7      4.10      0.00
   -3    2    6     27.47      0.00
   -3    2    5     -0.14      0.00
   -3    2    4    -27.98      0.00
   -3    2    3     -9.52      0.00
   -3    2    2      8.07      0.00
   -3    2    1      8.13      0.00
   -3    2    0     27.18      0.00
    3   -2    1     21.16      0.00
    3   -2    2    -41.62      0.00
    3   -2    3    -61.31      0.00
    3   -2    4      1.87      0.00
    3   -2    5     31.80      0.00
    3   -2    6    -11.92      0.00
    3   -2    7    -30.00      0.00
    3   -2    8      1.24      0.00
    3   -2    9     13.00      0.00
    3   -2   10     -0.45      0.00
    3   -2   11      1.62      0.00
    3   -2   12     10.46      0.00
    3   -2   13      1.03      0.00
    3   -2   14     -5.82      0.00
    3   -2   15      2.60      0.00
    3   -2   16      2.58      0.00
    3   -2   17     -6.19      0.00
    3   -2   18     -6.56      0.00
   -3    1   17      0.16      0.00
   -3    1   16     -6.50      0.00
   -3    1   15    -12.21      0.00
   -3    1   14     -1.77      0.00
   -3    1   13      8.22      0.00
   -3    1   12      5.81      0.00
   -3    1   11      8.28      0.00
   -3    1   10     12.13      0.00
   -3    1    9     -6.55      0.00
   -3    1    8    -22.22      0.00
   -3    1    7      5.15      0.00
   -3    1    6     24.23      0.00
   -3    1    5    -16.23      0.00
   -3    1    4    -41.60      0.00
   -3    1    3      2.81      0.00
   -3    1    2     36.01      0.00
   -3    1    1     17.52      0.00
   -3    1    0     11.94      0.00
    3   -1    1     11.32      0.00
    3   -1    2    -28.01      0.00
    3   -1    3    -43.36      0.00
    3   -1    4      1.94      0.00
    3   -1    5     23.45      0.00
    3   -1    6    -13.35      0.00
    3   -1    7    -30.01      0.00
    3   -1    8     -2.02      0.00
    3   -1    9     12.57      0.00
    3   -1   10      4.39      0.00
    3   -1   11      5.49      0.00
    3   -1   12      9.08      0.00
    3   -1   13     -1.82      0.00
    3   -1   14     -8.46      0.00
    3   -1   15     -1.21      0.00
    3   -1   16      0.05      0.00
    3   -1   17     -5.58      0.00
    3   -1   18     -5.73      0.00
   -3    0   17     -0.05      0.00
   -3    0   16     -2.95      0.00
   -3    0   15     -5.93      0.00
   -3    0   14      2.13      0.00
   -3    0   13      9.24      0.00
   -3    0   12      8.95      0.00
   -3    0   11     13.43      0.00
   -3    0   10     15.20      0.00
   -3    0    9     -2.62      0.00
   -3    0    8    -19.70      0.00
   -3    0    7     -2.53      0.00
   -3    0    6     15.09      0.00
   -3    0    5    -10.33      0.00
   -3    0    4    -28.05      0.00
   -3    0    3      6.47      0.00
   -3    0    2     37.16      0.00
   -3    0    1     21.14      0.00
    3    0    0      1.57      0.00
    3    0    1      4.69      0.00
    3    0    2      1.86      0.00
    3    0    3     -8.11      0.00
    3    0    4     -0.35      0.00
    3    0    5     12.33      0.00
    3    0    6      0.39      0.00
    3    0    7    -17.61      0.00
    3    0    8     -9.34      0.00
    3    0    9      8.91      0.00
    3    0   10     12.59      0.00
    3    0   11      4.76      0.00
    3    0   12     -4.16      0.00
    3    0   13     -7.59      0.00
    3    0   14     -3.86      0.00
    3    0   15      1.98      0.00
    3    0   16      2.35      0.00
    3    0   17     -1.80      0.00
    3    0   18     -4.24      0.00
   -3   -1   17      2.22      0.00
   -3   -1   16      3.35      0.00
   -3   -1   15     -0.49      0.00
   -3   -1   14     -0.33      0.00
   -3   -1   13      6.85      0.00
   -3   -1   12     15.21      0.00
   -3   -1   11     16.56      0.00
   -3   -1   10      5.49      0.00
   -3   -1    9     -9.35      0.00
   -3   -1    8    -16.71      0.00
   -3   -1    7     -6.04      0.00
   -3   -1    6     12.99      0.00
   -3   -1    5      6.51      0.00
   -3   -1    4    -18.63      0.00
   -3   -1    3    -16.13      0.00
   -3   -1    2     20.89      0.00
   -3   -1    1     36.80      0.00
    3    1    0      5.64      0.00
    3    1    1    -11.50      0.00
    3    1    2     11.11      0.00
    3    1    3     16.46      0.00
    3    1    4      0.54      0.00
    3    1    5     10.33      0.00
    3    1    6     20.73      0.00
    3    1    7     -3.98      0.00
    3    1    8    -18.75      0.00
    3    1    9      2.61      0.00
    3    1   10     15.00      0.00
    3    1   11     -4.40      0.00
    3    1   12    -19.88      0.00
    3    1   13     -8.22      0.00
    3    1   14      6.68      0.00
    3    1   15      8.43      0.00
    3    1   16      5.67      0.00
    3    1   17      1.57      0.00
    3    1   18     -2.43      0.00
   -3   -2   16      6.24      0.00
   -3   -2   15      0.95      0.00
   -3   -2   14     -4.59      0.00
   -3   -2   13      5.87      0.00
   -3   -2   12     19.26      0.00
   -3   -2   11      8.57      0.00
   -3   -2   10    -15.31      0.00
   -3   -2    9    -16.14      0.00
   -3   -2    8     -2.99      0.00
   -3   -2    7     -0.09      0.00
   -3   -2    6      6.47      0.00
   -3   -2    5      6.43      0.00
   -3   -2    4    -22.62      0.00
   -3   -2    3    -33.68      0.00
   -3   -2    2     17.84      0.00
   -3   -2    1     52.75      0.00
    3    2    0     -2.96      0.00
    3    2    1    -46.98      0.00
    3    2    2     -1.50      0.00
    3    2    3     33.95      0.00
    3    2    4     14.41      0.00
    3    2    5     13.77      0.00
    3    2    6     25.81      0.00
    3    2    7     -2.36      0.00
    3    2    8    -26.09      0.00
    3    2    9     -4.52      0.00
    3    2   10      8.80      0.00
    3    2   11    -14.48      0.00
    3    2   12    -26.09      0.00
    3    2   13     -4.26      0.00
    3    2   14     13.67      0.00
    3    2   15     11.88      0.00
    3    2   16      7.73      0.00
    3    2   17      4.06      0.00
    3    2   18     -0.25      0.00
   -3   -3   16      5.32      0.00
   -3   -3   15      0.68      0.00
   -3   -3   14     -6.59      0.00
   -3   -3   13      4.21      0.00
   -3   -3   12     15.19      0.00
   -3   -3   11     -4.40      0.00
   -3   -3   10    -27.07      0.00
   -3   -3    9    -10.57      0.00
   -3   -3    8     13.30      0.00
   -3   -3    7      0.85      0.00
   -3   -3    6    -11.61      0.00
   -3   -3    5     -4.41      0.00
   -3   -3    4    -14.33      0.00
   -3   -3    3    -20.09      0.00
   -3   -3    2     19.27      0.00
   -3   -3    1     37.75      0.00
    3    3    0    -23.71      0.00
    3    3    1    -62.92      0.00
    3    3    2     -6.35      0.00
    3    3    3     43.72      0.00
    3    3    4     26.90      0.00
    3    3    5      8.90      0.00
    3    3    6      8.89      0.00
    3    3    7     -9.26      0.00
    3    3    8    -23.72      0.00
    3    3    9     -8.12      0.00
    3    3   10      0.32      0.00
    3    3   11    -15.22      0.00
    3    3   12    -20.04      0.00
    3    3   13     -2.47      0.00
    3    3   14     11.73      0.00
    3    3   15     11.86      0.00
    3    3   16      9.07      0.00
    3    3   17      5.23      0.00
    3    3   18      0.44      0.00
   -3   -4   16      1.89      0.00
   -3   -4   15     -1.20      0.00
   -3   -4   14     -5.85      0.00
   -3   -4   13      1.31      0.00
   -3   -4   12      7.59      0.00
   -3   -4   11     -7.48      0.00
   -3   -4   10    -19.39      0.00
   -3   -4    9     -2.12      0.00
   -3   -4    8     13.89      0.00
   -3   -4    7     -4.26      0.00
   -3   -4    6    -19.68      0.00
   -3   -4    5     -3.01      0.00
   -3   -4    4      8.03      0.00
   -3   -4    3      1.43      0.00
   -3   -4    2      5.21      0.00
   -3   -4    1      7.85      0.00
    3    4    0    -17.31      0.00
    3    4    1    -36.71      0.00
    3    4    2     -9.73      0.00
    3    4    3     27.35      0.00
    3    4    4     26.01      0.00
    3    4    5      1.35      0.00
    3    4    6    -12.37      0.00
    3    4    7    -13.68      0.00
    3    4    8    -11.12      0.00
    3    4    9     -4.85      0.00
    3    4   10     -1.49      0.00
    3    4   11     -4.88      0.00
    3    4   12     -9.58      0.00
    3    4   13     -6.73      0.00
    3    4   14      5.03      0.00
    3    4   15     12.17      0.00
    3    4   16      9.10      0.00
    3    4   17      2.82      0.00
    3    4   18     -1.33      0.00
   -3   -5   16     -2.83      0.00
   -3   -5   15     -3.57      0.00
   -3   -5   14     -2.17      0.00
   -3   -5   13      0.28      0.00
   -3   -5   12      3.20      0.00
   -3   -5   11      0.47      0.00
   -3   -5   10     -4.53      0.00
   -3   -5    9     -3.43      0.00
   -3   -5    8      3.00      0.00
   -3   -5    7      1.95      0.00
   -3   -5    6     -4.79      0.00
   -3   -5    5      2.08      0.00
   -3   -5    4     13.95      0.00
   -3   -5    3      8.47      0.00
   -3   -5    2     -4.11      0.00
   -3   -5    1      3.61      0.00
    3    5    0     15.26      0.00
    3    5    1     -8.46      0.00
    3    5    2    -32.53      0.00
    3    5    3     -5.04      0.00
    3    5    4     26.14      0.00
    3    5    5      4.92      0.00
    3    5    6    -24.75      0.00
    3    5    7    -14.97      0.00
    3    5    8      4.90      0.00
    3    5    9      6.07      0.00
    3    5   10      4.62      0.00
    3    5   11      6.56      0.00
    3    5   12     -3.49      0.00
    3    5   13    -11.80      0.00
    3    5   14      1.96      0.00
    3    5   15     13.44      0.00
    3    5   16      5.14      0.00
    3    5   17     -3.62      0.00
    3    5   18     -3.60      0.00
   -3   -6   15     -4.68      0.00
   -3   -6   14      1.51      0.00
   -3   -6   13      1.61      0.00
   -3   -6   12      2.77      0.00
   -3   -6   11      8.60      0.00
   -3   -6   10      3.46      0.00
   -3   -6    9    -10.21      0.00
   -3   -6    8     -2.50      0.00
   -3   -6    7     18.83      0.00
   -3   -6    6     10.64      0.00
   -3   -6    5    -10.42      0.00
   -3   -6    4     -1.44      0.00
   -3   -6    3     15.98      0.00
   -3   -6    2     13.01      0.00
   -3   -6    1     17.47      0.00
    3    6    0     26.36      0.00
    3    6    1    -12.05      0.00
    3    6    2    -53.76      0.00
    3    6    3    -16.99      0.00
    3    6    4     34.65      0.00
    3    6    5     10.64      0.00
    3    6    6    -31.74      0.00
    3    6    7    -15.28      0.00
    3    6    8     19.01      0.00
    3    6    9     19.76      0.00
    3    6   10     11.15      0.00
    3    6   11      9.99      0.00
    3    6   12     -1.33      0.00
    3    6   13     -9.89      0.00
    3    6   14      3.12      0.00
    3    6   15     10.42      0.00
    3    6   16     -2.46      0.00
    3    6   17     -9.36      0.00
   -3   -7   15     -5.65      0.00
   -3   -7   14      2.87      0.00
   -3   -7   13      5.00      0.00
   -3   -7   12      4.33      0.00
   -3   -7   11      9.59      0.00
   -3   -7   10      2.45      0.00
   -3   -7    9    -13.49      0.00
   -3   -7    8     -0.96      0.00
   -3   -7    7     25.44      0.00
   -3   -7    6      7.21      0.00
   -3   -7    5    -28.88      0.00
   -3   -7    4    -11.04      0.00
   -3   -7    3     31.28      0.00
   -3   -7    2     32.78      0.00
   -3   -7    1     13.23      0.00
    3    7    0      1.29      0.00
    3    7    1    -25.04      0.00
    3    7    2    -40.95      0.00
    3    7    3     -3.63      0.00
    3    7    4     30.31      0.00
    3    7    5      2.02      0.00
    3    7    6    -31.71      0.00
    3    7    7     -9.36      0.00
    3    7    8     26.61      0.00
    3    7    9     26.07      0.00
    3    7   10     11.64      0.00
    3    7   11      5.76      0.00
    3    7   12     -0.37      0.00
    3    7   13     -3.83      0.00
    3    7   14      1.55      0.00
    3    7   15      2.00      0.00
    3    7   16     -7.00      0.00
    3    7   17     -8.85      0.00
   -3   -8   15     -5.53      0.00
   -3   -8   14      4.10      0.00
   -3   -8   13      9.27      0.00
   -3   -8   12      5.32      0.00
   -3   -8   11      3.90      0.00
   -3   -8   10     -2.62      0.00
   -3   -8    9    -11.22      0.00
   -3   -8    8     -0.09      0.00
   -3   -8    7     15.27      0.00
   -3   -8    6     -2.47      0.00
   -3   -8    5    -28.13      0.00
   -3   -8    4     -7.82      0.00
   -3   -8    3     31.82      0.00
   -3   -8    2     28.73      0.00
   -3   -8    1     -5.63      0.00
    3    8    0    -23.34      0.00
    3    8    1    -19.10      0.00
    3    8    2     -8.11      0.00
    3    8    3      3.23      0.00
    3    8    4      3.98      0.00
    3    8    5     -8.55      0.00
    3    8    6    -14.49      0.00
    3    8    7      1.31      0.00
    3    8    8     19.87      0.00
    3    8    9     18.51      0.00
    3    8   10      6.11      0.00
    3    8   11     -1.77      0.00
    3    8   12     -2.08      0.00
    3    8   13     -0.95      0.00
    3    8   14     -2.92      0.00
    3    8   15     -4.07      0.00
    3    8   16     -4.32      0.00
    3    8   17     -3.62      0.00
   -3   -9   14      4.61      0.00
   -3   -9   13     10.61      0.00
   -3   -9   12      4.58      0.00
   -3   -9   11     -3.40      0.00
   -3   -9   10     -6.36      0.00
   -3   -9    9     -5.11      0.00
   -3   -9    8     -0.86      0.00
   -3   -9    7      1.69      0.00
   -3   -9    6     -2.61      0.00
   -3   -9    5    -11.75      0.00
   -3   -9    4     -8.26      0.00
   -3   -9    3     12.09      0.00
   -3   -9    2     17.24      0.00
   -3   -9    1     -7.85      0.00
    3    9    0    -24.77      0.00
    3    9    1     -7.93      0.00
    3    9    2      7.67      0.00
    3    9    3     -4.95      0.00
    3    9    4    -14.33      0.00
    3    9    5      0.59      0.00
    3    9    6      9.95      0.00
    3    9    7      1.73      0.00
    3    9    8     -0.63      0.00
    3    9    9      4.68      0.00
    3    9   10      0.85      0.00
    3    9   11     -7.72      0.00
    3    9   12     -5.76      0.00
    3    9   13     -1.08      0.00
    3    9   14     -3.81      0.00
    3    9   15     -3.38      0.00
    3    9   16      0.33      0.00
   -3  -10   14      2.21      0.00
   -3  -10   13      8.27      0.00
   -3  -10   12      3.90      0.00
   -3  -10   11     -7.46      0.00
   -3  -10   10     -7.35      0.00
   -3  -10    9      1.12      0.00
   -3  -10    8     -0.63      0.00
   -3  -10    7     -5.28      0.00
   -3  -10    6      2.12      0.00
   -3  -10    5      0.82      0.00
   -3  -10    4    -12.92      0.00
   -3  -10    3     -2.85      0.00
   -3  -10    2     18.94      0.00
   -3  -10    1      5.60      0.00
    3   10    0    -19.99      0.00
    3   10    1    -10.54      0.00
    3   10    2      6.82      0.00
    3   10    3     -2.37      0.00
    3   10    4     -5.15      0.00
    3   10    5     15.35      0.00
    3   10    6     16.07      0.00
    3   10    7     -9.66      0.00
    3   10    8    -16.12      0.00
    3   10    9     -0.93      0.00
    3   10   10      0.36      0.00
    3   10   11     -9.99      0.00
    3   10   12     -8.54      0.00
    3   10   13     -0.68      0.00
    3   10   14      0.36      0.00
    3   10   15      0.23      0.00
    3   10   16      1.33      0.00
   -3  -11   13      5.45      0.00
   -3  -11   12      4.25      0.00
   -3  -11   11     -7.61      0.00
   -3  -11   10     -7.69      0.00
   -3  -11    9      3.51      0.00
   -3  -11    8      1.02      0.00
   -3  -11    7     -5.83      0.00
   -3  -11    6      2.82      0.00
   -3  -11    5      4.25      0.00
   -3  -11    4     -9.82      0.00
   -3  -11    3     -1.97      0.00
   -3  -11    2     21.22      0.00
   -3  -11    1     10.43      0.00
    3   11    0    -18.24      0.00
    3   11    1    -12.79      0.00
    3   11    2     10.60      0.00
    3   11    3     12.63      0.00
    3   11    4      6.80      0.00
    3   11    5     10.40      0.00
    3   11    6      4.37      0.00
    3   11    7    -13.03      0.00
    3   11    8    -13.05      0.00
    3   11    9      0.64      0.00
    3   11   10     -0.14      0.00
    3   11   11     -9.80      0.00
    3   11   12     -8.18      0.00
    3   11   13      1.37      0.00
    3   11   14      5.42      0.00
    3   11   15      2.62      0.00
   -3  -12   12      3.90      0.00
   -3  -12   11     -5.78      0.00
   -3  -12   10     -7.75      0.00
   -3  -12    9      2.35      0.00
   -3  -12    8      3.48      0.00
   -3  -12    7     -2.66      0.00
   -3  -12    6     -0.37      0.00
   -3  -12    5      2.96      0.00
   -3  -12    4     -0.75      0.00
   -3  -12    3      1.66      0.00
   -3  -12    2     11.26      0.00
   -3  -12    1      6.78      0.00
    3   12    0     -7.38      0.00
    3   12    1     -4.04      0.00
    3   12    2     11.48      0.00
    3   12    3     14.17      0.00
    3   12    4      3.28      0.00
    3   12    5     -4.59      0.00
    3   12    6     -3.60      0.00
    3   12    7     -2.66      0.00
    3   12    8     -3.37      0.00
    3   12    9     -1.94      0.00
    3   12   10     -2.59      0.00
    3   12   11     -5.13      0.00
    3   12   12     -3.56      0.00
    3   12   13      2.92      0.00
    3   12   14      6.57      0.00
   -3  -13   11     -3.11      0.00
   -3  -13   10     -5.86      0.00
   -3  -13    9      0.32      0.00
   -3  -13    8      5.19      0.00
   -3  -13    7      1.23      0.00
   -3  -13    6     -4.10      0.00
   -3  -13    5     -0.47      0.00
   -3  -13    4      5.25      0.00
   -3  -13    3      1.58      0.00
   -3  -13    2      0.09      0.00
   -3  -13    1      7.52      0.00
    3   13    0      7.72      0.00
    3   13    1     -1.17      0.00
    3   13    2     -3.13      0.00
    3   13    3      2.46      0.00
    3   13    4     -0.69      0.00
    3   13    5     -9.63      0.00
    3   13    6     -4.23      0.00
    3   13    7      5.34      0.00
    3   13    8      0.22      0.00
    3   13    9     -5.46      0.00
    3   13   10     -0.50      0.00
    3   13   11      3.25      0.00
    3   13   12      0.93      0.00
    3   13   13      0.91      0.00
   -3  -14   10     -2.88      0.00
   -3  -14    9     -1.73      0.00
   -3  -14    8      4.58      0.00
   -3  -14    7      3.58      0.00
   -3  -14    6     -5.97      0.00
   -3  -14    5     -3.92      0.00
   -3  -14    4      6.56      0.00
   -3  -14    3      2.26      0.00
   -3  -14    2     -3.09      0.00
   -3  -14    1      7.89      0.00
    3   14    0      9.21      0.00
    3   14    1     -9.93      0.00
    3   14    2    -17.40      0.00
    3   14    3     -2.87      0.00
    3   14    4      2.75      0.00
    3   14    5     -7.62      0.00
    3   14    6     -5.73      0.00
    3   14    7      5.13      0.00
    3   14    8      2.50      0.00
    3   14    9     -1.63      0.00
    3   14   10      4.23      0.00
    3   14   11      6.46      0.00
    3   14   12      0.94      0.00
   -3  -15    8      2.95      0.00
   -3  -15    7      4.35      0.00
   -3  -15    6     -5.02      0.00
   -3  -15    5     -5.22      0.00
   -3  -15    4      5.49      0.00
   -3  -15    3      4.39      0.00
   -3  -15    2     -2.81      0.00
   -3  -15    1      0.87      0.00
    3   15    0     -0.08      0.00
    3   15    1    -14.01      0.00
    3   15    2    -16.21      0.00
    3   15    3     -1.07      0.00
    3   15    4      4.03      0.00
    3   15    5     -5.60      0.00
    3   15    6     -5.59      0.00
    3   15    7      4.39      0.00
    3   15    8      6.23      0.00
    3   15    9      3.27      0.00
    3   15   10      3.43      0.00
    3   15   11      2.65      0.00
   -3  -16    7      3.69      0.00
   -3  -16    6     -2.45      0.00
   -3  -16    5     -3.98      0.00
   -3  -16    4      3.43      0.00
   -3  -16    3      5.07      0.00
   -3  -16    2     -2.49      0.00
   -3  -16    1     -6.37      0.00
    3   16    0     -5.34      0.00
    3   16    1     -7.09      0.00
    3   16    2     -6.79      0.00
    3   16    3     -0.90      0.00
    3   16    4      1.33      0.00
    3   16    5     -1.59      0.00
    3   16    6     -0.52      0.00
    3   16    7      4.60      0.00
    3   16    8      5.72      0.00
    3   16    9      2.32      0.00
   -3  -17    4      1.06      0.00
   -3  -17    3      3.59      0.00
   -3  -17    2     -0.90      0.00
   -3  -17    1     -6.57      0.00
    3   17    0     -3.76      0.00
    3   17    1      0.93      0.00
    3   17    2     -0.19      0.00
    3   17    3     -2.10      0.00
    3   17    4     -0.02      0.00
    3   17    5      3.50      0.00
    3   17    6      4.19      0.00
    3   17    7      2.89      0.00
   -4   16    1     -1.24      0.00
   -4   16    0     -1.44      0.00
    4  -16    1      3.21      0.00
    4  -16    2      3.40      0.00
   -4   15    5     -1.67      0.00
   -4   15    4     -1.19      0.00
   -4   15    3      4.58      0.00
   -4   15    2      4.96      0.00
   -4   15    1     -3.45      0.00
   -4   15    0     -3.25      0.00
    4  -15    1      6.95      0.00
    4  -15    2      6.49      0.00
    4  -15    3     -3.50      0.00
    4  -15    4     -5.82      0.00
    4  -15    5     -1.65      0.00
    4  -15    6     -0.50      0.00
   -4   14    8     -2.91      0.00
   -4   14    7     -0.97      0.00
   -4   14    6      1.93      0.00
   -4   14    5      2.37      0.00
   -4   14    4      2.38      0.00
   -4   14    3      4.70      0.00
   -4   14    2      3.87      0.00
   -4   14    1     -2.09      0.00
   -4   14    0     -1.07      0.00
    4  -14    1      7.32      0.00
    4  -14    2      4.43      0.00
    4  -14    3     -8.43      0.00
    4  -14    4    -11.48      0.00
    4  -14    5     -3.10      0.00
    4  -14    6      2.51      0.00
    4  -14    7     -0.20      0.00
    4  -14    8     -3.00      0.00
   -4   13   10     -1.76      0.00
   -4   13    9     -0.40      0.00
   -4   13    8      0.20      0.00
   -4   13    7     -0.08      0.00
   -4   13    6      2.90      0.00
   -4   13    5      6.15      0.00
   -4   13    4      3.27      0.00
   -4   13    3     -1.22      0.00
   -4   13    2      0.66      0.00
   -4   13    1      3.08      0.00
   -4   13    0      0.14      0.00
    4  -13    1     -0.42      0.00
    4  -13    2      1.40      0.00
    4  -13    3     -3.47      0.00
    4  -13    4     -9.53      0.00
    4  -13    5     -4.54      0.00
    4  -13    6      3.93      0.00
    4  -13    7      0.35      0.00
    4  -13    8     -5.90      0.00
    4  -13    9     -1.07      0.00
   -4   12   11      0.70      0.00
   -4   12   10      0.05      0.00
   -4   12    9      3.39      0.00
   -4   12    8      5.76      0.00
   -4   12    7      1.29      0.00
   -4   12    6      0.51      0.00
   -4   12    5      5.96      0.00
   -4   12    4      1.99      0.00
   -4   12    3     -8.41      0.00
   -4   12    2     -5.31      0.00
   -4   12    1      3.11      0.00
   -4   12    0     -2.31      0.00
    4  -12    1     -5.60      0.00
    4  -12    2      7.45      0.00
    4  -12    3     11.21      0.00
    4  -12    4     -4.45      0.00
    4  -12    5     -9.26      0.00
    4  -12    6      2.83      0.00
    4  -12    7      4.14      0.00
    4  -12    8     -4.37      0.00
    4  -12    9     -1.93      0.00
    4  -12   10      3.89      0.00
    4  -12   11      1.34      0.00
   -4   11   12      2.53      0.00
   -4   11   11      3.32      0.00
   -4   11   10      1.65      0.00
   -4   11    9      6.07      0.00
   -4   11    8      9.45      0.00
   -4   11    7      1.28      0.00
   -4   11    6     -3.62      0.00
   -4   11    5      3.24      0.00
   -4   11    4      0.26      0.00
   -4   11    3    -14.85      0.00
   -4   11    2    -15.55      0.00
   -4   11    1     -3.21      0.00
   -4   11    0     -0.88      0.00
    4  -11    1      0.66      0.00
    4  -11    2     16.15      0.00
    4  -11    3     19.29      0.00
    4  -11    4     -1.90      0.00
    4  -11    5    -10.63      0.00
    4  -11    6      4.34      0.00
    4  -11    7     10.00      0.00
    4  -11    8     -1.50      0.00
    4  -11    9     -7.06      0.00
    4  -11   10     -2.23      0.00
    4  -11   11      0.89      0.00
    4  -11   12      2.12      0.00
   -4   10   12      2.06      0.00
   -4   10   11      2.27      0.00
   -4   10   10      2.72      0.00
   -4   10    9      7.16      0.00
   -4   10    8      8.24      0.00
   -4   10    7     -0.38      0.00
   -4   10    6     -6.14      0.00
   -4   10    5     -1.01      0.00
   -4   10    4     -2.55      0.00
   -4   10    3    -17.41      0.00
   -4   10    2    -22.50      0.00
   -4   10    1     -8.29      0.00
   -4   10    0      5.26      0.00
    4  -10    1      9.41      0.00
    4  -10    2     14.33      0.00
    4  -10    3     14.76      0.00
    4  -10    4      3.20      0.00
    4  -10    5     -2.89      0.00
    4  -10    6      5.23      0.00
    4  -10    7      9.19      0.00
    4  -10    8     -1.76      0.00
    4  -10    9    -13.68      0.00
    4  -10   10    -10.24      0.00
    4  -10   11      1.97      0.00
    4  -10   12      6.54      0.00
    4  -10   13      3.10      0.00
   -4    9   13     -0.66      0.00
   -4    9   12     -2.18      0.00
   -4    9   11      1.22      0.00
   -4    9   10      6.08      0.00
   -4    9    9      5.49      0.00
   -4    9    8      0.73      0.00
   -4    9    7     -2.88      0.00
   -4    9    6     -5.71      0.00
   -4    9    5     -5.22      0.00
   -4    9    4     -2.44      0.00
   -4    9    3     -9.16      0.00
   -4    9    2    -19.64      0.00
   -4    9    1    -11.91      0.00
   -4    9    0      8.20      0.00
    4   -9    1     13.36      0.00
    4   -9    2      5.45      0.00
    4   -9    3      6.72      0.00
    4   -9    4     11.62      0.00
    4   -9    5      4.53      0.00
    4   -9    6     -2.50      0.00
    4   -9    7      1.16      0.00
    4   -9    8     -0.84      0.00
    4   -9    9    -14.21      0.00
    4   -9   10    -14.68      0.00
    4   -9   11      2.02      0.00
    4   -9   12      7.39      0.00
    4   -9   13     -1.82      0.00
    4   -9   14     -5.12      0.00
   -4    8   14      3.13      0.00
   -4    8   13     -1.98      0.00
   -4    8   12     -4.48      0.00
   -4    8   11      3.07      0.00
   -4    8   10      8.33      0.00
   -4    8    9     -1.53      0.00
   -4    8    8     -9.61      0.00
   -4    8    7     -2.94      0.00
   -4    8    6     -1.01      0.00
   -4    8    5     -5.06      0.00
   -4    8    4      3.87      0.00
   -4    8    3      7.26      0.00
   -4    8    2    -11.20      0.00
   -4    8    1    -16.38      0.00
   -4    8    0      7.09      0.00
    4   -8    1     17.00      0.00
    4   -8    2      0.50      0.00
    4   -8    3     -0.74      0.00
    4   -8    4     12.59      0.00
    4   -8    5      2.31      0.00
    4   -8    6    -12.93      0.00
    4   -8    7     -2.56      0.00
    4   -8    8      6.30      0.00
    4   -8    9     -7.64      0.00
    4   -8   10    -15.30      0.00
    4   -8   11     -0.96      0.00
    4   -8   12      5.55      0.00
    4   -8   13     -4.31      0.00
    4   -8   14     -6.31      0.00
   -4    7   15      3.27      0.00
   -4    7   14      4.33      0.00
   -4    7   13     -0.51      0.00
   -4    7   12     -4.86      0.00
   -4    7   11      1.84      0.00
   -4    7   10      4.58      0.00
   -4    7    9     -8.86      0.00
   -4    7    8    -13.48      0.00
   -4    7    7      1.23      0.00
   -4    7    6      5.24      0.00
   -4    7    5     -1.42      0.00
   -4    7    4     10.77      0.00
   -4    7    3     20.95      0.00
   -4    7    2     -1.37      0.00
   -4    7    1    -17.83      0.00
   -4    7    0      4.28      0.00
    4   -7    1     20.66      0.00
    4   -7    2      1.58      0.00
    4   -7    3     -9.82      0.00
    4   -7    4      0.82      0.00
    4   -7    5     -3.38      0.00
    4   -7    6    -11.89      0.00
    4   -7    7      2.10      0.00
    4   -7    8     12.11      0.00
    4   -7    9     -1.76      0.00
    4   -7   10    -13.04      0.00
    4   -7   11     -2.38      0.00
    4   -7   12      7.07      0.00
    4   -7   13     -0.03      0.00
    4   -7   14     -4.15      0.00
    4   -7   15     -0.85      0.00
   -4    6   15      3.21      0.00
   -4    6   14      5.37      0.00
   -4    6   13      0.07      0.00
   -4    6   12     -7.82      0.00
   -4    6   11     -4.77      0.00
   -4    6   10     -0.71      0.00
   -4    6    9     -6.89      0.00
   -4    6    8     -7.43      0.00
   -4    6    7      2.67      0.00
   -4    6    6      4.92      0.00
   -4    6    5      2.21      0.00
   -4    6    4     14.47      0.00
   -4    6    3     25.63      0.00
   -4    6    2      6.54      0.00
   -4    6    1    -16.42      0.00
   -4    6    0     -3.30      0.00
    4   -6    1     18.74      0.00
    4   -6    2      7.17      0.00
    4   -6    3    -16.18      0.00
    4   -6    4    -15.58      0.00
    4   -6    5     -4.17      0.00
    4   -6    6      0.48      0.00
    4   -6    7      4.14      0.00
    4   -6    8      5.30      0.00
    4   -6    9     -0.53      0.00
    4   -6   10     -4.92      0.00
    4   -6   11      2.27      0.00
    4   -6   12     11.20      0.00
    4   -6   13      6.32      0.00
    4   -6   14     -2.15      0.00
    4   -6   15     -2.54      0.00
   -4    5   16      1.28      0.00
   -4    5   15      2.83      0.00
   -4    5   14      2.28      0.00
   -4    5   13     -3.03      0.00
   -4    5   12    -10.58      0.00
   -4    5   11     -9.71      0.00
   -4    5   10     -0.84      0.00
   -4    5    9      4.26      0.00
   -4    5    8      0.05      0.00
   -4    5    7     -6.22      0.00
   -4    5    6     -1.98      0.00
   -4    5    5      9.35      0.00
   -4    5    4     15.55      0.00
   -4    5    3     15.55      0.00
   -4    5    2      3.87      0.00
   -4    5    1    -15.94      0.00
   -4    5    0    -13.45      0.00
    4   -5    1     13.46      0.00
    4   -5    2     18.25      0.00
    4   -5    3    -13.22      0.00
    4   -5    4    -28.17      0.00
    4   -5    5     -4.17      0.00
    4   -5    6     10.41      0.00
    4   -5    7     -3.22      0.00
    4   -5    8    -10.12      0.00
    4   -5    9      0.78      0.00
    4   -5   10      8.13      0.00
    4   -5   11      7.91      0.00
    4   -5   12     11.03      0.00
    4   -5   13      9.43      0.00
    4   -5   14     -1.15      0.00
    4   -5   15     -5.07      0.00
    4   -5   16     -0.31      0.00
   -4    4   16      2.32      0.00
   -4    4   15      0.52      0.00
   -4    4   14     -4.19      0.00
   -4    4   13     -5.61      0.00
   -4    4   12     -7.50      0.00
   -4    4   11     -8.07      0.00
   -4    4   10      3.01      0.00
   -4    4    9     14.52      0.00
   -4    4    8      1.51      0.00
   -4    4    7    -18.64      0.00
   -4    4    6     -4.78      0.00
   -4    4    5     19.70      0.00
   -4    4    4      8.45      0.00
   -4    4    3    -10.93      0.00
   -4    4    2     -8.15      0.00
   -4    4    1    -10.87      0.00
   -4    4    0    -14.86      0.00
    4   -4    1     11.37      0.00
    4   -4    2     29.87      0.00
    4   -4    3     -4.24      0.00
    4   -4    4    -34.02      0.00
    4   -4    5     -8.16      0.00
    4   -4    6     11.52      0.00
    4   -4    7    -11.24      0.00
    4   -4    8    -20.58      0.00
    4   -4    9      2.15      0.00
    4   -4   10     15.21      0.00
    4   -4   11      7.92      0.00
    4   -4   12      7.54      0.00
    4   -4   13     10.90      0.00
    4   -4   14      0.27      0.00
    4   -4   15     -6.94      0.00
    4   -4   16     -1.65      0.00
   -4    3   16      1.65      0.00
   -4    3   15     -2.05      0.00
   -4    3   14     -7.42      0.00
   -4    3   13     -3.80      0.00
   -4    3   12     -0.46      0.00
   -4    3   11     -2.83      0.00
   -4    3   10      6.01      0.00
   -4    3    9     18.07      0.00
   -4    3    8      1.48      0.00
   -4    3    7    -21.15      0.00
   -4    3    6     -2.00      0.00
   -4    3    5     21.24      0.00
   -4    3    4     -6.45      0.00
   -4    3    3    -34.24      0.00
   -4    3    2    -13.46      0.00
   -4    3    1      3.28      0.00
   -4    3    0     -4.93      0.00
    4   -3    1     10.59      0.00
    4   -3    2     32.26      0.00
    4   -3    3      6.35      0.00
    4   -3    4    -26.70      0.00
    4   -3    5    -10.76      0.00
    4   -3    6      7.66      0.00
    4   -3    7    -11.32      0.00
    4   -3    8    -22.05      0.00
    4   -3    9     -3.22      0.00
    4   -3   10     10.50      0.00
    4   -3   11      7.29      0.00
    4   -3   12      8.32      0.00
    4   -3   13     10.87      0.00
    4   -3   14     -0.42      0.00
    4   -3   15     -8.31      0.00
    4   -3   16     -3.86      0.00
    4   -3   17     -1.42      0.00
   -4    2   16     -0.39      0.00
   -4    2   15     -0.26      0.00
   -4    2   14     -2.90      0.00
   -4    2   13     -0.34      0.00
   -4    2   12      2.86      0.00
   -4    2   11      1.66      0.00
   -4    2   10      8.45      0.00
   -4    2    9     17.63      0.00
   -4    2    8      4.19      0.00
   -4    2    7    -15.46      0.00
   -4    2    6     -4.40      0.00
   -4    2    5     10.95      0.00
   -4    2    4    -10.44      0.00
   -4    2    3    -31.15      0.00
   -4    2    2     -9.87      0.00
   -4    2    1     12.81      0.00
   -4    2    0      7.24      0.00
    4   -2    1      9.84      0.00
    4   -2    2     26.66      0.00
    4   -2    3     20.11      0.00
    4   -2    4     -5.10      0.00
    4   -2    5     -9.99      0.00
    4   -2    6      1.01      0.00
    4   -2    7     -4.19      0.00
    4   -2    8    -17.35      0.00
    4   -2    9    -13.58      0.00
    4   -2   10      2.49      0.00
    4   -2   11     12.43      0.00
    4   -2   12     11.17      0.00
    4   -2   13      3.81      0.00
    4   -2   14     -4.94      0.00
    4   -2   15     -7.31      0.00
    4   -2   16     -3.85      0.00
    4   -2   17     -1.47      0.00
   -4    1   16      0.23      0.00
   -4    1   15      6.53      0.00
   -4    1   14      4.43      0.00
   -4    1   13     -1.33      0.00
   -4    1   12     -0.17      0.00
   -4    1   11      6.15      0.00
   -4    1   10     11.89      0.00
   -4    1    9     11.73      0.00
   -4    1    8      1.38      0.00
   -4    1    7    -12.16      0.00
   -4    1    6    -11.20      0.00
   -4    1    5      3.63      0.00
   -4    1    4      6.33      0.00
   -4    1    3    -10.42      0.00
   -4    1    2    -15.24      0.00
   -4    1    1      5.60      0.00
   -4    1    0     20.43      0.00
    4   -1    1     15.81      0.00
    4   -1    2     17.36      0.00
    4   -1    3     26.68      0.00
    4   -1    4     13.29      0.00
    4   -1    5    -10.69      0.00
    4   -1    6     -5.07      0.00
    4   -1    7      7.61      0.00
    4   -1    8     -7.84      0.00
    4   -1    9    -20.66      0.00
    4   -1   10     -2.08      0.00
    4   -1   11     17.31      0.00
    4   -1   12      8.00      0.00
    4   -1   13     -8.12      0.00
    4   -1   14     -7.85      0.00
    4   -1   15     -2.36      0.00
    4   -1   16     -0.91      0.00
    4   -1   17      0.99      0.00
   -4    0   16      3.24      0.00
   -4    0   15     10.99      0.00
   -4    0   14      6.27      0.00
   -4    0   13     -6.41      0.00
   -4    0   12     -3.52      0.00
   -4    0   11     10.55      0.00
   -4    0   10      9.65      0.00
   -4    0    9     -5.05      0.00
   -4    0    8     -9.45      0.00
   -4    0    7     -7.53      0.00
   -4    0    6     -9.15      0.00
   -4    0    5      5.49      0.00
   -4    0    4     24.29      0.00
   -4    0    3      1.82      0.00
   -4    0    2    -31.19      0.00
   -4    0    1     -6.10      0.00
    4    0    0     35.94      0.00
    4    0    1     22.59      0.00
    4    0    2     -3.09      0.00
    4    0    3     10.16      0.00
    4    0    4     14.40      0.00
    4    0    5     -9.48      0.00
    4    0    6     -4.14      0.00
    4    0    7     18.06      0.00
    4    0    8      0.63      0.00
    4    0    9    -22.77      0.00
    4    0   10     -5.61      0.00
    4    0   11     15.15      0.00
    4    0   12      1.84      0.00
    4    0   13    -14.18      0.00
    4    0   14     -6.71      0.00
    4    0   15      1.61      0.00
    4    0   16      1.86      0.00
    4    0   17      4.21      0.00
   -4   -1   16      2.97      0.00
   -4   -1   15      8.59      0.00
   -4   -1   14      3.57      0.00
   -4   -1   13     -9.33      0.00
   -4   -1   12     -4.42      0.00
   -4   -1   11      8.66      0.00
   -4   -1   10     -1.61      0.00
   -4   -1    9    -21.73      0.00
   -4   -1    8    -13.51      0.00
   -4   -1    7      4.66      0.00
   -4   -1    6      0.39      0.00
   -4   -1    5      5.48      0.00
   -4   -1    4     25.35      0.00
   -4   -1    3      3.43      0.00
   -4   -1    2    -36.06      0.00
   -4   -1    1    -10.27      0.00
    4    1    0     38.04      0.00
    4    1    1     15.99      0.00
    4    1    2    -29.11      0.00
    4    1    3    -19.14      0.00
    4    1    4      5.06      0.00
    4    1    5     -0.34      0.00
    4    1    6      2.82      0.00
    4    1    7     17.01      0.00
    4    1    8      0.32      0.00
    4    1    9    -21.25      0.00
    4    1   10     -7.90      0.00
    4    1   11     10.23      0.00
    4    1   12      1.60      0.00
    4    1   13    -10.94      0.00
    4    1   14     -6.48      0.00
    4    1   15      0.30      0.00
    4    1   16      3.44      0.00
    4    1   17      6.97      0.00
    4    1   18      5.44      0.00
   -4   -2   15      4.24      0.00
   -4   -2   14      1.28      0.00
   -4   -2   13     -9.20      0.00
   -4   -2   12     -6.85      0.00
   -4   -2   11      0.79      0.00
   -4   -2   10     -7.97      0.00
   -4   -2    9    -19.36      0.00
   -4   -2    8     -6.65      0.00
   -4   -2    7     11.46      0.00
   -4   -2    6      5.56      0.00
   -4   -2    5      3.98      0.00
   -4   -2    4     19.41      0.00
   -4   -2    3      6.75      0.00
   -4   -2    2    -25.69      0.00
   -4   -2    1    -15.97      0.00
    4    2    0     18.57      0.00
    4    2    1      7.53      0.00
    4    2    2    -34.09      0.00
    4    2    3    -38.60      0.00
    4    2    4     -6.71      0.00
    4    2    5     12.40      0.00
    4    2    6      9.67      0.00
    4    2    7      3.14      0.00
    4    2    8     -7.40      0.00
    4    2    9    -14.09      0.00
    4    2   10     -3.94      0.00
    4    2   11      9.56      0.00
    4    2   12      8.26      0.00
    4    2   13     -3.60      0.00
    4    2   14     -8.81      0.00
    4    2   15     -3.34      0.00
    4    2   16      4.60      0.00
    4    2   17      7.49      0.00
    4    2   18      3.54      0.00
   -4   -3   15      1.09      0.00
   -4   -3   14     -1.58      0.00
   -4   -3   13     -8.66      0.00
   -4   -3   12     -9.24      0.00
   -4   -3   11     -2.62      0.00
   -4   -3   10      0.92      0.00
   -4   -3    9     -2.51      0.00
   -4   -3    8     -4.80      0.00
   -4   -3    7      3.11      0.00
   -4   -3    6     11.88      0.00
   -4   -3    5     15.47      0.00
   -4   -3    4     15.87      0.00
   -4   -3    3      3.49      0.00
   -4   -3    2    -19.05      0.00
   -4   -3    1    -23.75      0.00
    4    3    0      2.16      0.00
    4    3    1     17.70      0.00
    4    3    2    -14.62      0.00
    4    3    3    -46.70      0.00
    4    3    4    -19.56      0.00
    4    3    5     22.48      0.00
    4    3    6     14.62      0.00
    4    3    7    -13.41      0.00
    4    3    8    -14.42      0.00
    4    3    9     -0.93      0.00
    4    3   10      6.86      0.00
    4    3   11     13.17      0.00
    4    3   12     15.50      0.00
    4    3   13      2.76      0.00
    4    3   14    -10.20      0.00
    4    3   15     -5.16      0.00
    4    3   16      4.50      0.00
    4    3   17      4.18      0.00
    4    3   18     -0.72      0.00
   -4   -4   15     -2.04      0.00
   -4   -4   14     -5.64      0.00
   -4   -4   13     -6.63      0.00
   -4   -4   12     -6.30      0.00
   -4   -4   11      1.42      0.00
   -4   -4   10     13.50      0.00
   -4   -4    9      8.41      0.00
   -4   -4    8    -12.79      0.00
   -4   -4    7     -5.90      0.00
   -4   -4    6     28.84      0.00
   -4   -4    5     33.03      0.00
   -4   -4    4      1.76      0.00
   -4   -4    3    -17.45      0.00
   -4   -4    2    -17.32      0.00
   -4   -4    1    -14.49      0.00
    4    4    0      7.57      0.00
    4    4    1     32.14      0.00
    4    4    2      0.65      0.00
    4    4    3    -48.46      0.00
    4    4    4    -25.23      0.00
    4    4    5     28.06      0.00
    4    4    6     16.83      0.00
    4    4    7    -22.37      0.00
    4    4    8    -15.05      0.00
    4    4    9     12.08      0.00
    4    4   10     16.87      0.00
    4    4   11     15.44      0.00
    4    4   12     17.53      0.00
    4    4   13      6.39      0.00
    4    4   14     -7.80      0.00
    4    4   15     -4.62      0.00
    4    4   16      1.69      0.00
    4    4   17     -1.89      0.00
   -4   -5   15     -3.74      0.00
   -4   -5   14     -8.03      0.00
   -4   -5   13     -3.05      0.00
   -4   -5   12      0.19      0.00
   -4   -5   11      5.60      0.00
   -4   -5   10     15.66      0.00
   -4   -5    9      6.87      0.00
   -4   -5    8    -17.88      0.00
   -4   -5    7     -3.87      0.00
   -4   -5    6     40.99      0.00
   -4   -5    5     31.46      0.00
   -4   -5    4    -24.03      0.00
   -4   -5    3    -36.36      0.00
   -4   -5    2     -5.77      0.00
   -4   -5    1      9.35      0.00
    4    5    0     14.94      0.00
    4    5    1     23.60      0.00
    4    5    2     -0.16      0.00
    4    5    3    -35.17      0.00
    4    5    4    -16.59      0.00
    4    5    5     24.27      0.00
    4    5    6     13.27      0.00
    4    5    7    -19.34      0.00
    4    5    8     -9.96      0.00
    4    5    9     15.36      0.00
    4    5   10     17.86      0.00
    4    5   11     14.13      0.00
    4    5   12     15.13      0.00
    4    5   13      8.24      0.00
    4    5   14     -2.94      0.00
    4    5   15     -4.96      0.00
    4    5   16     -3.94      0.00
    4    5   17     -6.45      0.00
   -4   -6   15     -3.05      0.00
   -4   -6   14     -7.70      0.00
   -4   -6   13     -0.41      0.00
   -4   -6   12      4.99      0.00
   -4   -6   11      6.05      0.00
   -4   -6   10      8.50      0.00
   -4   -6    9      0.13      0.00
   -4   -6    8    -14.68      0.00
   -4   -6    7     -0.43      0.00
   -4   -6    6     29.87      0.00
   -4   -6    5     12.35      0.00
   -4   -6    4    -33.94      0.00
   -4   -6    3    -32.45      0.00
   -4   -6    2      5.22      0.00
   -4   -6    1     18.10      0.00
    4    6    0      6.47      0.00
    4    6    1      1.85      0.00
    4    6    2      0.51      0.00
    4    6    3     -7.29      0.00
    4    6    4     -5.74      0.00
    4    6    5      7.00      0.00
    4    6    6      6.75      0.00
    4    6    7     -5.21      0.00
    4    6    8     -4.60      0.00
    4    6    9      5.17      0.00
    4    6   10     10.95      0.00
    4    6   11     13.01      0.00
    4    6   12     11.23      0.00
    4    6   13      6.30      0.00
    4    6   14     -1.66      0.00
    4    6   15     -8.54      0.00
    4    6   16     -8.49      0.00
    4    6   17     -5.10      0.00
   -4   -7   15     -1.13      0.00
   -4   -7   14     -5.14      0.00
   -4   -7   13     -0.01      0.00
   -4   -7   12      6.26      0.00
   -4   -7   11      5.39      0.00
   -4   -7   10      0.50      0.00
   -4   -7    9     -5.82      0.00
   -4   -7    8     -9.34      0.00
   -4   -7    7     -3.51      0.00
   -4   -7    6      7.43      0.00
   -4   -7    5      2.98      0.00
   -4   -7    4    -16.08      0.00
   -4   -7    3    -21.23      0.00
   -4   -7    2     -5.60      0.00
   -4   -7    1      7.51      0.00
    4    7    0      1.70      0.00
    4    7    1     -4.35      0.00
    4    7    2      7.01      0.00
    4    7    3     10.24      0.00
    4    7    4     -7.23      0.00
    4    7    5    -10.67      0.00
    4    7    6      8.13      0.00
    4    7    7     12.28      0.00
    4    7    8     -5.35      0.00
    4    7    9    -11.80      0.00
    4    7   10      3.52      0.00
    4    7   11     12.48      0.00
    4    7   12      3.92      0.00
    4    7   13     -2.17      0.00
    4    7   14     -5.18      0.00
    4    7   15    -10.36      0.00
    4    7   16     -6.75      0.00
    4    7   17      0.81      0.00
   -4   -8   14     -2.41      0.00
   -4   -8   13     -2.29      0.00
   -4   -8   12      5.37      0.00
   -4   -8   11      6.40      0.00
   -4   -8   10     -4.14      0.00
   -4   -8    9    -10.08      0.00
   -4   -8    8     -5.63      0.00
   -4   -8    7     -5.44      0.00
   -4   -8    6     -2.97      0.00
   -4   -8    5     10.08      0.00
   -4   -8    4      5.20      0.00
   -4   -8    3    -21.89      0.00
   -4   -8    2    -24.63      0.00
   -4   -8    1      5.59      0.00
    4    8    0     16.75      0.00
    4    8    1      1.54      0.00
    4    8    2      0.90      0.00
    4    8    3      4.67      0.00
    4    8    4     -8.93      0.00
    4    8    5     -7.74      0.00
    4    8    6     17.36      0.00
    4    8    7     18.18      0.00
    4    8    8    -13.37      0.00
    4    8    9    -23.08      0.00
    4    8   10      0.44      0.00
    4    8   11      9.08      0.00
    4    8   12     -5.75      0.00
    4    8   13    -10.71      0.00
    4    8   14     -6.22      0.00
    4    8   15     -5.40      0.00
    4    8   16     -0.74      0.00
   -4   -9   14     -2.12      0.00
   -4   -9   13     -5.36      0.00
   -4   -9   12      4.31      0.00
   -4   -9   11      7.56      0.00
   -4   -9   10     -6.88      0.00
   -4   -9    9    -12.89      0.00
   -4   -9    8     -2.17      0.00
   -4   -9    7      0.29      0.00
   -4   -9    6      0.55      0.00
   -4   -9    5     15.17      0.00
   -4   -9    4     10.25      0.00
   -4   -9    3    -22.96      0.00
   -4   -9    2    -24.35      0.00
   -4   -9    1     16.41      0.00
    4    9    0     28.62      0.00
    4    9    1     -1.81      0.00
    4    9    2    -15.14      0.00
    4    9    3     -1.77      0.00
    4    9    4      5.55      0.00
    4    9    5      8.94      0.00
    4    9    6     16.18      0.00
    4    9    7      6.55      0.00
    4    9    8    -18.09      0.00
    4    9    9    -19.27      0.00
    4    9   10      1.28      0.00
    4    9   11      3.37      0.00
    4    9   12    -10.26      0.00
    4    9   13    -10.86      0.00
    4    9   14     -1.93      0.00
    4    9   15      2.03      0.00
    4    9   16      2.90      0.00
   -4  -10   13     -5.69      0.00
   -4  -10   12      2.84      0.00
   -4  -10   11      5.70      0.00
   -4  -10   10     -7.99      0.00
   -4  -10    9    -12.30      0.00
   -4  -10    8      1.22      0.00
   -4  -10    7      8.07      0.00
   -4  -10    6      5.90      0.00
   -4  -10    5      9.71      0.00
   -4  -10    4      5.86      0.00
   -4  -10    3    -11.99      0.00
   -4  -10    2    -10.92      0.00
   -4  -10    1     14.19      0.00
    4   10    0     18.47      0.00
    4   10    1     -6.56      0.00
    4   10    2    -15.94      0.00
    4   10    3      3.44      0.00
    4   10    4     19.06      0.00
    4   10    5     12.96      0.00
    4   10    6     -0.11      0.00
    4   10    7     -6.76      0.00
    4   10    8     -9.24      0.00
    4   10    9     -5.74      0.00
    4   10   10      0.39      0.00
    4   10   11     -1.43      0.00
    4   10   12     -6.05      0.00
    4   10   13     -4.04      0.00
    4   10   14      2.49      0.00
    4   10   15      5.46      0.00
   -4  -11   12      0.24      0.00
   -4  -11   11      2.02      0.00
   -4  -11   10     -4.88      0.00
   -4  -11    9     -7.32      0.00
   -4  -11    8      1.89      0.00
   -4  -11    7     10.84      0.00
   -4  -11    6      8.79      0.00
   -4  -11    5      2.19      0.00
   -4  -11    4      0.91      0.00
   -4  -11    3     -0.65      0.00
   -4  -11    2     -5.65      0.00
   -4  -11    1     -3.09      0.00
    4   11    0      5.24      0.00
    4   11    1      3.50      0.00
    4   11    2     -4.07      0.00
    4   11    3      1.09      0.00
    4   11    4     12.19      0.00
    4   11    5      5.02      0.00
    4   11    6    -11.36      0.00
    4   11    7     -8.67      0.00
    4   11    8      3.38      0.00
    4   11    9      2.16      0.00
    4   11   10     -4.16      0.00
    4   11   11     -1.68      0.00
    4   11   12      3.39      0.00
    4   11   13      2.97      0.00
    4   11   14      2.83      0.00
    4   11   15      3.83      0.00
   -4  -12   11     -0.02      0.00
   -4  -12   10      1.18      0.00
   -4  -12    9     -1.65      0.00
   -4  -12    8     -1.03      0.00
   -4  -12    7      9.03      0.00
   -4  -12    6     11.12      0.00
   -4  -12    5     -1.83      0.00
   -4  -12    4     -5.71      0.00
   -4  -12    3      0.14      0.00
   -4  -12    2     -6.47      0.00
   -4  -12    1    -11.69      0.00
    4   12    0      4.14      0.00
    4   12    1     13.52      0.00
    4   12    2     -2.92      0.00
    4   12    3    -12.45      0.00
    4   12    4      0.62      0.00
    4   12    5      3.77      0.00
    4   12    6     -9.43      0.00
    4   12    7     -7.48      0.00
    4   12    8      5.39      0.00
    4   12    9      2.53      0.00
    4   12   10     -4.16      0.00
    4   12   11      3.48      0.00
    4   12   12     10.32      0.00
    4   12   13      4.79      0.00
    4   12   14     -0.38      0.00
   -4  -13   10      4.84      0.00
   -4  -13    9      0.44      0.00
   -4  -13    8     -4.50      0.00
   -4  -13    7      6.23      0.00
   -4  -13    6     11.71      0.00
   -4  -13    5     -4.08      0.00
   -4  -13    4    -12.55      0.00
   -4  -13    3     -3.22      0.00
   -4  -13    2     -2.12      0.00
   -4  -13    1     -6.81      0.00
    4   13    0      2.77      0.00
    4   13    1      7.30      0.00
    4   13    2     -9.15      0.00
    4   13    3    -15.62      0.00
    4   13    4      0.21      0.00
    4   13    5      6.28      0.00
    4   13    6     -5.88      0.00
    4   13    7     -8.64      0.00
    4   13    8      1.89      0.00
    4   13    9      4.76      0.00
    4   13   10      2.44      0.00
    4   13   11      6.54      0.00
    4   13   12      8.06      0.00
    4   13   13      1.67      0.00
   -4  -14    9     -0.53      0.00
   -4  -14    8     -4.79      0.00
   -4  -14    7      4.01      0.00
   -4  -14    6      8.69      0.00
   -4  -14    5     -4.63      0.00
   -4  -14    4    -13.43      0.00
   -4  -14    3     -3.55      0.00
   -4  -14    2      3.92      0.00
   -4  -14    1     -2.15      0.00
    4   14    0     -5.00      0.00
    4   14    1     -2.78      0.00
    4   14    2     -5.61      0.00
    4   14    3     -5.07      0.00
    4   14    4      1.61      0.00
    4   14    5      2.60      0.00
    4   14    6     -3.21      0.00
    4   14    7     -5.14      0.00
    4   14    8      1.56      0.00
    4   14    9      7.14      0.00
    4   14   11      2.32      0.00
    4   14   12      0.78      0.00
   -4  -15    8     -1.69      0.00
   -4  -15    7      2.00      0.00
   -4  -15    6      3.92      0.00
   -4  -15    5     -1.84      0.00
   -4  -15    4     -7.75      0.00
   -4  -15    3     -3.03      0.00
   -4  -15    2      4.38      0.00
   -4  -15    1     -0.71      0.00
    4   15    0     -8.06      0.00
    4   15    1     -3.25      0.00
    4   15    2      4.28      0.00
    4   15    3      3.62      0.00
    4   15    4     -1.61      0.00
    4   15    5     -1.36      0.00
    4   15    6      2.91      0.00
    4   15    7      1.95      0.00
    4   15    8      1.10      0.00
    4   15    9      3.84      0.00
    4   15   10      2.08      0.00
   -4  -16    6      0.64      0.00
   -4  -16    5      2.07      0.00
   -4  -16    4     -1.83      0.00
   -4  -16    3     -4.17      0.00
   -4  -16    2      1.56      0.00
   -4  -16    1      2.59      0.00
    4   16    0     -2.63      0.00
    4   16    1      0.59      0.00
    4   16    2      8.01      0.00
    4   16    3      4.85      0.00
    4   16    4     -3.17      0.00
    4   16    5     -0.02      0.00
    4   16    6      7.81      0.00
    4   16    7      4.48      0.00
    4   16    8     -1.41      0.00
    4   16    9     -0.40      0.00
   -4  -17    2      0.21      0.00
   -4  -17    1      5.82      0.00
    4   17    0      2.79      0.00
    4   17    1      0.90      0.00
    4   17    2      4.27      0.00
    4   17    3      3.21      0.00
    4   17    4     -0.88      0.00
    4   17    5      2.03      0.00
    4   17    6      6.24      0.00
   -5   15    1      2.16      0.00
   -5   15    0      2.53      0.00
    5  -15    1     -1.02      0.00
    5  -15    2     -1.79      0.00
    5  -15    3      0.81      0.00
   -5   14    4      1.34      0.00
   -5   14    3      1.60      0.00
   -5   14    2     -2.17      0.00
   -5   14    1      0.22      0.00
   -5   14    0      3.74      0.00
    5  -14    1     -3.21      0.00
    5  -14    2     -6.81      0.00
    5  -14    3      1.66      0.00
    5  -14    4      4.62      0.00
    5  -14    5     -3.80      0.00
    5  -14    6     -6.26      0.00
   -5   13    7      4.03      0.00
   -5   13    6     -0.98      0.00
   -5   13    5     -4.83      0.00
   -5   13    4     -0.42      0.00
   -5   13    3      2.06      0.00
   -5   13    2     -3.73      0.00
   -5   13    1     -4.52      0.00
   -5   13    0     -0.50      0.00
    5  -13    1     -5.04      0.00
    5  -13    2     -6.45      0.00
    5  -13    3      5.95      0.00
    5  -13    4     11.18      0.00
    5  -13    5     -0.19      0.00
    5  -13    6     -6.14      0.00
    5  -13    7      2.45      0.00
    5  -13    8      7.91      0.00
   -5   12    9      2.99      0.00
   -5   12    8      3.77      0.00
   -5   12    7      3.57      0.00
   -5   12    6     -2.47      0.00
   -5   12    5     -6.93      0.00
   -5   12    4     -1.18      0.00
   -5   12    3      2.86      0.00
   -5   12    2     -4.47      0.00
   -5   12    1    -10.26      0.00
   -5   12    0     -5.78      0.00
    5  -12    1     -1.51      0.00
    5  -12    2      0.56      0.00
    5  -12    3      7.52      0.00
    5  -12    4     10.87      0.00
    5  -12    5      3.62      0.00
    5  -12    6     -2.08      0.00
    5  -12    7      2.91      0.00
    5  -12    8      8.93      0.00
    5  -12    9      4.72      0.00
   -5   11   10      1.12      0.00
   -5   11    9      2.06      0.00
   -5   11    8      1.21      0.00
   -5   11    7     -0.55      0.00
   -5   11    6     -3.33      0.00
   -5   11    5     -5.90      0.00
   -5   11    4     -3.29      0.00
   -5   11    3      1.21      0.00
   -5   11    2     -1.14      0.00
   -5   11    1     -7.74      0.00
   -5   11    0     -5.86      0.00
    5  -11    1      3.08      0.00
    5  -11    2      5.01      0.00
    5  -11    3      1.87      0.00
    5  -11    4      4.35      0.00
    5  -11    5      7.85      0.00
    5  -11    6      3.19      0.00
    5  -11    7     -1.19      0.00
    5  -11    8      4.31      0.00
    5  -11    9      5.88      0.00
    5  -11   10     -4.54      0.00
    5  -11   11     -9.53      0.00
   -5   10   11     -1.09      0.00
   -5   10   10     -0.23      0.00
   -5   10    9      1.71      0.00
   -5   10    8     -2.64      0.00
   -5   10    7     -6.07      0.00
   -5   10    6     -3.17      0.00
   -5   10    5     -4.53      0.00
   -5   10    4     -6.90      0.00
   -5   10    3      2.78      0.00
   -5   10    2     12.18      0.00
   -5   10    1      3.88      0.00
   -5   10    0     -5.41      0.00
    5  -10    1      1.22      0.00
    5  -10    2      4.61      0.00
    5  -10    3     -3.54      0.00
    5  -10    4     -1.47      0.00
    5  -10    5      7.80      0.00
    5  -10    6      0.65      0.00
    5  -10    7    -10.18      0.00
    5  -10    8     -0.79      0.00
    5  -10    9      9.51      0.00
    5  -10   10     -0.53      0.00
    5  -10   11    -10.40      0.00
    5  -10   12     -5.27      0.00
   -5    9   12      0.81      0.00
   -5    9   11     -1.79      0.00
   -5    9   10     -0.08      0.00
   -5    9    9      1.28      0.00
   -5    9    8     -5.99      0.00
   -5    9    7     -9.44      0.00
   -5    9    6     -2.64      0.00
   -5    9    5     -3.16      0.00
   -5    9    4     -5.74      0.00
   -5    9    3     11.25      0.00
   -5    9    2     27.66      0.00
   -5    9    1     13.15      0.00
   -5    9    0     -8.47      0.00
    5   -9    1     -3.84      0.00
    5   -9    2      5.87      0.00
    5   -9    3     -2.59      0.00
    5   -9    4     -7.83      0.00
    5   -9    5     -3.65      0.00
    5   -9    6     -9.79      0.00
    5   -9    7    -14.16      0.00
    5   -9    8      1.55      0.00
    5   -9    9     14.94      0.00
    5   -9   10      4.90      0.00
    5   -9   11     -9.27      0.00
    5   -9   12     -7.44      0.00
    5   -9   13     -0.38      0.00
   -5    8   13      3.16      0.00
   -5    8   12      2.07      0.00
   -5    8   11     -2.56      0.00
   -5    8   10     -1.72      0.00
   -5    8    9     -0.07      0.00
   -5    8    8     -5.00      0.00
   -5    8    7     -7.65      0.00
   -5    8    6     -2.87      0.00
   -5    8    5     -1.32      0.00
   -5    8    4      1.08      0.00
   -5    8    3     17.99      0.00
   -5    8    2     31.01      0.00
   -5    8    1     14.85      0.00
   -5    8    0     -9.39      0.00
    5   -8    1     -6.92      0.00
    5   -8    2      7.21      0.00
    5   -8    3     -0.12      0.00
    5   -8    4    -17.57      0.00
    5   -8    5    -21.35      0.00
    5   -8    6    -15.27      0.00
    5   -8    7     -4.58      0.00
    5   -8    8      9.29      0.00
    5   -8    9     15.29      0.00
    5   -8   10      6.88      0.00
    5   -8   11     -5.48      0.00
    5   -8   12     -5.86      0.00
    5   -8   13      2.42      0.00
    5   -8   14      4.82      0.00
   -5    7   14      0.07      0.00
   -5    7   13      2.89      0.00
   -5    7   12      0.87      0.00
   -5    7   11     -4.07      0.00
   -5    7   10     -4.25      0.00
   -5    7    9     -0.31      0.00
   -5    7    8      1.67      0.00
   -5    7    7     -2.41      0.00
   -5    7    6     -6.31      0.00
   -5    7    5     -1.32      0.00
   -5    7    4      8.34      0.00
   -5    7    3     16.15      0.00
   -5    7    2     19.89      0.00
   -5    7    1     12.01      0.00
   -5    7    0     -5.71      0.00
    5   -7    1    -11.18      0.00
    5   -7    2      0.98      0.00
    5   -7    3      0.46      0.00
    5   -7    4    -22.05      0.00
    5   -7    5    -30.35      0.00
    5   -7    6     -9.37      0.00
    5   -7    7     11.18      0.00
    5   -7    8     12.20      0.00
    5   -7    9      6.93      0.00
    5   -7   10      5.77      0.00
    5   -7   11      1.80      0.00
    5   -7   12     -1.31      0.00
    5   -7   13      4.46      0.00
    5   -7   14      7.74      0.00
   -5    6   14     -0.15      0.00
   -5    6   13     -1.34      0.00
   -5    6   12     -1.69      0.00
   -5    6   11     -2.55      0.00
   -5    6   10     -4.23      0.00
   -5    6    9      0.91      0.00
   -5    6    8      9.48      0.00
   -5    6    7      1.76      0.00
   -5    6    6    -12.14      0.00
   -5    6    5     -2.84      0.00
   -5    6    4     13.02      0.00
   -5    6    3      7.64      0.00
   -5    6    2      0.59      0.00
   -5    6    1      5.16      0.00
   -5    6    0     -2.26      0.00
    5   -6    1    -17.65      0.00
    5   -6    2     -9.51      0.00
    5   -6    3      4.31      0.00
    5   -6    4    -11.97      0.00
    5   -6    5    -25.43      0.00
    5   -6    6     -2.01      0.00
    5   -6    7     18.95      0.00
    5   -6    8      9.20      0.00
    5   -6    9     -1.63      0.00
    5   -6   10      4.71      0.00
    5   -6   11      7.03      0.00
    5   -6   12     -0.38      0.00
    5   -6   13      1.95      0.00
    5   -6   14      7.60      0.00
    5   -6   15      2.77      0.00
   -5    5   15      1.31      0.00
   -5    5   14     -1.15      0.00
   -5    5   13     -5.43      0.00
   -5    5   12     -2.17      0.00
   -5    5   11      2.10      0.00
   -5    5   10     -1.60      0.00
   -5    5    9      2.06      0.00
   -5    5    8     13.18      0.00
   -5    5    7      3.62      0.00
   -5    5    6    -14.41      0.00
   -5    5    5     -3.78      0.00
   -5    5    4     11.93      0.00
   -5    5    3     -3.41      0.00
   -5    5    2    -17.19      0.00
   -5    5    1     -3.43      0.00
   -5    5    0     -0.46      0.00
    5   -5    1    -18.51      0.00
    5   -5    2    -12.71      0.00
    5   -5    3     12.16      0.00
    5   -5    4      5.55      0.00
    5   -5    5    -14.42      0.00
    5   -5    6     -1.63      0.00
    5   -5    7     17.51      0.00
    5   -5    8     10.21      0.00
    5   -5    9     -1.88      0.00
    5   -5   10      0.27      0.00
    5   -5   11      1.61      0.00
    5   -5   12     -4.44      0.00
    5   -5   13     -0.88      0.00
    5   -5   14      6.49      0.00
    5   -5   15      2.38      0.00
   -5    4   15      0.74      0.00
   -5    4   14     -0.55      0.00
   -5    4   13     -4.95      0.00
   -5    4   12     -0.98      0.00
   -5    4   11      5.48      0.00
   -5    4   10      1.70      0.00
   -5    4    9      2.67      0.00
   -5    4    8     12.10      0.00
   -5    4    7      5.56      0.00
   -5    4    6    -10.31      0.00
   -5    4    5     -6.74      0.00
   -5    4    4      2.96      0.00
   -5    4    3     -8.42      0.00
   -5    4    2    -20.03      0.00
   -5    4    1     -7.84      0.00
   -5    4    0      1.00      0.00
    5   -4    1     -9.00      0.00
    5   -4    2     -5.88      0.00
    5   -4    3     15.48      0.00
    5   -4    4     16.75      0.00
    5   -4    5     -2.75      0.00
    5   -4    6     -3.37      0.00
    5   -4    7     14.32      0.00
    5   -4    8     17.58      0.00
    5   -4    9      2.00      0.00
    5   -4   10    -11.45      0.00
    5   -4   11    -11.91      0.00
    5   -4   12     -6.10      0.00
    5   -4   13      0.96      0.00
    5   -4   14      4.22      0.00
    5   -4   15      0.46      0.00
   -5    3   15     -0.24      0.00
   -5    3   14      2.86      0.00
   -5    3   13      0.11      0.00
   -5    3   12     -0.48      0.00
   -5    3   11      4.06      0.00
   -5    3   10      4.25      0.00
   -5    3    9      4.35      0.00
   -5    3    8      8.65      0.00
   -5    3    7      6.16      0.00
   -5    3    6     -5.96      0.00
   -5    3    5    -13.83      0.00
   -5    3    4     -6.61      0.00
   -5    3    3      2.00      0.00
   -5    3    2     -4.21      0.00
   -5    3    1     -9.47      0.00
   -5    3    0     -0.89      0.00
    5   -3    1      6.16      0.00
    5   -3    2      5.51      0.00
    5   -3    3     10.19      0.00
    5   -3    4     16.88      0.00
    5   -3    5      7.12      0.00
    5   -3    6     -3.18      0.00
    5   -3    7     11.31      0.00
    5   -3    8     24.29      0.00
    5   -3    9      4.61      0.00
    5   -3   10    -23.10      0.00
    5   -3   11    -21.43      0.00
    5   -3   12     -2.31      0.00
    5   -3   13      3.54      0.00
    5   -3   14     -1.26      0.00
    5   -3   15     -2.76      0.00
    5   -3   16     -1.90      0.00
   -5    2   15      0.11      0.00
   -5    2   14      6.30      0.00
   -5    2   13      4.88      0.00
   -5    2   12     -2.41      0.00
   -5    2   11     -1.00      0.00
   -5    2   10      6.67      0.00
   -5    2    9      6.66      0.00
   -5    2    8      0.70      0.00
   -5    2    7     -0.71      0.00
   -5    2    6     -5.80      0.00
   -5    2    5    -17.77      0.00
   -5    2    4     -6.80      0.00
   -5    2    3     22.15      0.00
   -5    2    2     15.37      0.00
   -5    2    1    -14.62      0.00
   -5    2    0     -6.95      0.00
    5   -2    1     21.05      0.00
    5   -2    2     16.38      0.00
    5   -2    3     -1.85      0.00
    5   -2    4      3.83      0.00
    5   -2    5      7.26      0.00
    5   -2    6     -3.08      0.00
    5   -2    7      9.35      0.00
    5   -2    8     27.53      0.00
    5   -2    9      7.23      0.00
    5   -2   10    -25.73      0.00
    5   -2   11    -22.49      0.00
    5   -2   12      0.81      0.00
    5   -2   13      2.68      0.00
    5   -2   14     -6.17      0.00
    5   -2   15     -4.31      0.00
    5   -2   16     -0.99      0.00
   -5    1   15     -0.12      0.00
   -5    1   14      4.74      0.00
   -5    1   13      4.81      0.00
   -5    1   12     -4.68      0.00
   -5    1   11     -4.68      0.00
   -5    1   10      6.79      0.00
   -5    1    9      3.23      0.00
   -5    1    8    -12.38      0.00
   -5    1    7    -10.58      0.00
   -5    1    6     -3.55      0.00
   -5    1    5    -11.20      0.00
   -5    1    4      0.36      0.00
   -5    1    3     33.59      0.00
   -5    1    2     23.33      0.00
   -5    1    1    -19.21      0.00
   -5    1    0    -10.97      0.00
    5   -1    1     28.52      0.00
    5   -1    2     18.86      0.00
    5   -1    3    -19.62      0.00
    5   -1    4    -21.84      0.00
    5   -1    5     -4.63      0.00
    5   -1    6     -0.62      0.00
    5   -1    7     11.92      0.00
    5   -1    8     26.32      0.00
    5   -1    9      8.47      0.00
    5   -1   10    -20.53      0.00
    5   -1   11    -19.10      0.00
    5   -1   12      0.67      0.00
    5   -1   13      2.60      0.00
    5   -1   14     -5.67      0.00
    5   -1   15     -5.02      0.00
    5   -1   16     -1.74      0.00
   -5    0   15     -3.13      0.00
   -5    0   14     -0.46      0.00
   -5    0   13      2.56      0.00
   -5    0   12     -4.35      0.00
   -5    0   11     -7.19      0.00
   -5    0   10      0.16      0.00
   -5    0    9     -3.80      0.00
   -5    0    8    -16.36      0.00
   -5    0    7    -10.31      0.00
   -5    0    6      2.32      0.00
   -5    0    5     -0.46      0.00
   -5    0    4      6.08      0.00
   -5    0    3     29.08      0.00
   -5    0    2     21.53      0.00
   -5    0    1    -13.86      0.00
    5    0    0    -12.11      0.00
    5    0    1     18.26      0.00
    5    0    2      8.93      0.00
    5    0    3    -33.05      0.00
    5    0    4    -45.03      0.00
    5    0    5    -18.29      0.00
    5    0    6      7.31      0.00
    5    0    7     17.50      0.00
    5    0    8     17.75      0.00
    5    0    9      5.12      0.00
    5    0   10    -11.66      0.00
    5    0   11    -12.87      0.00
    5    0   12      0.83      0.00
    5    0   13      6.03      0.00
    5    0   14     -2.11      0.00
    5    0   15     -7.09      0.00
    5    0   16     -3.43      0.00
    5    0   17      3.52      0.00
   -5   -1   15     -4.04      0.00
   -5   -1   14     -2.36      0.00
   -5   -1   13      1.16      0.00
   -5   -1   12     -4.28      0.00
   -5   -1   11    -11.20      0.00
   -5   -1   10     -6.50      0.00
   -5   -1    9      0.31      0.00
   -5   -1    8     -1.76      0.00
   -5   -1    7     -3.92      0.00
   -5   -1    6      0.42      0.00
   -5   -1    5      6.10      0.00
   -5   -1    4     11.90      0.00
   -5   -1    3     18.95      0.00
   -5   -1    2     16.30      0.00
   -5   -1    1     -3.87      0.00
    5    1    0    -17.29      0.00
    5    1    1     -5.97      0.00
    5    1    2      0.06      0.00
    5    1    3    -25.52      0.00
    5    1    4    -49.06      0.00
    5    1    5    -25.38      0.00
    5    1    6     16.24      0.00
    5    1    7     21.82      0.00
    5    1    8      5.54      0.00
    5    1    9      0.13      0.00
    5    1   10     -1.14      0.00
    5    1   11     -4.54      0.00
    5    1   12      1.80      0.00
    5    1   13      9.36      0.00
    5    1   14      1.81      0.00
    5    1   15     -7.31      0.00
    5    1   16     -3.51      0.00
    5    1   17      3.50      0.00
   -5   -2   14     -1.36      0.00
   -5   -2   13     -2.08      0.00
   -5   -2   12     -6.06      0.00
   -5   -2   11    -11.29      0.00
   -5   -2   10     -2.78      0.00
   -5   -2    9     15.17      0.00
   -5   -2    8     15.12      0.00
   -5   -2    7     -5.85      0.00
   -5   -2    6    -10.09      0.00
   -5   -2    5     13.13      0.00
   -5   -2    4     22.76      0.00
   -5   -2    3      8.73      0.00
   -5   -2    2      3.33      0.00
   -5   -2    1     -1.97      0.00
    5    2    0    -22.66      0.00
    5    2    1    -21.27      0.00
    5    2    2      5.82      0.00
    5    2    3     -0.23      0.00
    5    2    4    -35.92      0.00
    5    2    5    -26.07      0.00
    5    2    6     19.82      0.00
    5    2    7     23.88      0.00
    5    2    8     -0.98      0.00
    5    2    9     -1.61      0.00
    5    2   10      6.46      0.00
    5    2   11      1.12      0.00
    5    2   12      1.55      0.00
    5    2   13     10.61      0.00
    5    2   14      6.45      0.00
    5    2   15     -3.98      0.00
    5    2   16     -3.06      0.00
    5    2   17      1.17      0.00
   -5   -3   14     -2.17      0.00
   -5   -3   13     -6.29      0.00
   -5   -3   12     -5.09      0.00
   -5   -3   11     -4.01      0.00
   -5   -3   10      5.69      0.00
   -5   -3    9     22.85      0.00
   -5   -3    8     18.25      0.00
   -5   -3    7    -12.53      0.00
   -5   -3    6    -15.46      0.00
   -5   -3    5     20.96      0.00
   -5   -3    4     27.37      0.00
   -5   -3    3     -6.38      0.00
   -5   -3    2    -15.55      0.00
   -5   -3    1     -4.70      0.00
    5    3    0    -15.90      0.00
    5    3    1    -15.78      0.00
    5    3    2     16.13      0.00
    5    3    3     19.68      0.00
    5    3    4    -17.52      0.00
    5    3    5    -21.69      0.00
    5    3    6     15.90      0.00
    5    3    7     24.20      0.00
    5    3    8      2.99      0.00
    5    3    9     -0.56      0.00
    5    3   10      4.41      0.00
    5    3   11     -0.26      0.00
    5    3   12      0.68      0.00
    5    3   13     10.21      0.00
    5    3   14      9.05      0.00
    5    3   15     -0.97      0.00
    5    3   16     -3.57      0.00
    5    3   17     -1.38      0.00
   -5   -4   14     -2.79      0.00
   -5   -4   13     -6.31      0.00
   -5   -4   12     -1.24      0.00
   -5   -4   11      3.17      0.00
   -5   -4   10      8.93      0.00
   -5   -4    9     17.89      0.00
   -5   -4    8     11.73      0.00
   -5   -4    7    -13.22      0.00
   -5   -4    6    -14.39      0.00
   -5   -4    5     14.79      0.00
   -5   -4    4     14.60      0.00
   -5   -4    3    -17.35      0.00
   -5   -4    2    -22.27      0.00
   -5   -4    1     -3.58      0.00
    5    4    0     -2.26      0.00
    5    4    1     -3.56      0.00
    5    4    2     14.90      0.00
    5    4    3     22.57      0.00
    5    4    4     -0.09      0.00
    5    4    5    -13.70      0.00
    5    4    6      6.52      0.00
    5    4    7     23.08      0.00
    5    4    8     13.10      0.00
    5    4    9     -2.00      0.00
    5    4   10     -8.40      0.00
    5    4   11     -5.98      0.00
    5    4   12      1.78      0.00
    5    4   13      7.86      0.00
    5    4   14      6.37      0.00
    5    4   15     -0.84      0.00
    5    4   16     -4.16      0.00
    5    4   17     -2.12      0.00
   -5   -5   14     -0.08      0.00
   -5   -5   13     -2.46      0.00
   -5   -5   12     -0.09      0.00
   -5   -5   11      4.63      0.00
   -5   -5   10      8.69      0.00
   -5   -5    9      9.26      0.00
   -5   -5    8      3.17      0.00
   -5   -5    7    -10.35      0.00
   -5   -5    6    -17.14      0.00
   -5   -5    5     -7.20      0.00
   -5   -5    4      0.00      0.00
   -5   -5    3     -6.83      0.00
   -5   -5    2    -12.92      0.00
   -5   -5    1     -7.45      0.00
    5    5    0      2.02      0.00
    5    5    1      4.68      0.00
    5    5    2      7.74      0.00
    5    5    3     16.44      0.00
    5    5    4     11.43      0.00
    5    5    5     -7.04      0.00
    5    5    6     -3.29      0.00
    5    5    7     20.52      0.00
    5    5    8     20.06      0.00
    5    5    9     -8.15      0.00
    5    5   10    -22.45      0.00
    5    5   11     -8.17      0.00
    5    5   12      4.78      0.00
    5    5   13      2.33      0.00
    5    5   14     -1.20      0.00
    5    5   15     -3.04      0.00
    5    5   16     -4.00      0.00
    5    5   17     -0.84      0.00
   -5   -6   14      3.87      0.00
   -5   -6   13      0.49      0.00
   -5   -6   12     -3.29      0.00
   -5   -6   11      3.07      0.00
   -5   -6   10      9.89      0.00
   -5   -6    9      3.45      0.00
   -5   -6    8     -4.60      0.00
   -5   -6    7     -9.18      0.00
   -5   -6    6    -21.67      0.00
   -5   -6    5    -22.69      0.00
   -5   -6    4      2.99      0.00
   -5   -6    3     16.33      0.00
   -5   -6    2     -6.90      0.00
   -5   -6    1    -20.90      0.00
    5    6    0      1.79      0.00
    5    6    1     16.64      0.00
    5    6    2      6.64      0.00
    5    6    3      5.90      0.00
    5    6    4      9.63      0.00
    5    6    5     -4.18      0.00
    5    6    6     -6.69      0.00
    5    6    7     16.80      0.00
    5    6    8     18.69      0.00
    5    6    9    -13.55      0.00
    5    6   10    -25.88      0.00
    5    6   11     -4.93      0.00
    5    6   12      4.08      0.00
    5    6   13     -6.89      0.00
    5    6   14     -9.51      0.00
    5    6   15     -4.54      0.00
    5    6   16     -1.67      0.00
   -5   -7   14      5.64      0.00
   -5   -7   13      0.10      0.00
   -5   -7   12     -7.18      0.00
   -5   -7   11      2.43      0.00
   -5   -7   10     11.99      0.00
   -5   -7    9      0.95      0.00
   -5   -7    8     -9.58      0.00
   -5   -7    7     -8.28      0.00
   -5   -7    6    -17.55      0.00
   -5   -7    5    -17.95      0.00
   -5   -7    4     14.50      0.00
   -5   -7    3     26.91      0.00
   -5   -7    2     -9.02      0.00
   -5   -7    1    -24.86      0.00
    5    7    0     10.39      0.00
    5    7    1     29.25      0.00
    5    7    2      4.87      0.00
    5    7    3     -9.98      0.00
    5    7    4     -0.48      0.00
    5    7    5      1.10      0.00
    5    7    6     -0.88      0.00
    5    7    7     11.32      0.00
    5    7    8     10.75      0.00
    5    7    9    -12.12      0.00
    5    7   10    -17.61      0.00
    5    7   11     -2.96      0.00
    5    7   12     -3.14      0.00
    5    7   13    -13.66      0.00
    5    7   14    -11.06      0.00
    5    7   15     -1.75      0.00
    5    7   16      2.88      0.00
   -5   -8   13     -1.71      0.00
   -5   -8   12     -7.90      0.00
   -5   -8   11      2.09      0.00
   -5   -8   10     10.65      0.00
   -5   -8    9     -0.29      0.00
   -5   -8    8    -10.43      0.00
   -5   -8    7     -5.79      0.00
   -5   -8    6     -6.13      0.00
   -5   -8    5     -4.54      0.00
   -5   -8    4     16.44      0.00
   -5   -8    3     21.82      0.00
   -5   -8    2     -3.70      0.00
   -5   -8    1    -11.03      0.00
    5    8    0     14.85      0.00
    5    8    1     23.48      0.00
    5    8    2     -2.42      0.00
    5    8    3    -18.28      0.00
    5    8    4     -3.99      0.00
    5    8    5      9.09      0.00
    5    8    6      5.37      0.00
    5    8    7      2.51      0.00
    5    8    8      1.97      0.00
    5    8    9     -3.72      0.00
    5    8   10     -5.91      0.00
    5    8   11     -5.73      0.00
    5    8   12     -9.16      0.00
    5    8   13     -9.57      0.00
    5    8   14     -4.03      0.00
    5    8   15      2.82      0.00
    5    8   16      5.83      0.00
   -5   -9   13     -1.85      0.00
   -5   -9   12     -5.78      0.00
   -5   -9   11     -0.90      0.00
   -5   -9   10      5.18      0.00
   -5   -9    9      1.21      0.00
   -5   -9    8     -6.28      0.00
   -5   -9    7     -4.64      0.00
   -5   -9    6      1.29      0.00
   -5   -9    5      4.50      0.00
   -5   -9    4     10.38      0.00
   -5   -9    3     13.90      0.00
   -5   -9    2      7.69      0.00
   -5   -9    1     -0.55      0.00
    5    9    0     -0.68      0.00
    5    9    1      4.16      0.00
    5    9    2     -0.20      0.00
    5    9    3     -9.53      0.00
    5    9    4     -4.54      0.00
    5    9    5      7.15      0.00
    5    9    6      4.35      0.00
    5    9    7     -4.54      0.00
    5    9    8     -1.67      0.00
    5    9    9      5.46      0.00
    5    9   10      0.88      0.00
    5    9   11     -9.17      0.00
    5    9   12     -6.62      0.00
    5    9   13      2.22      0.00
    5    9   14      3.31      0.00
    5    9   15      3.71      0.00
   -5  -10   12     -3.45      0.00
   -5  -10   11     -4.24      0.00
   -5  -10   10      2.17      0.00
   -5  -10    9      7.56      0.00
   -5  -10    8     -0.55      0.00
   -5  -10    7     -8.26      0.00
   -5  -10    6      1.54      0.00
   -5  -10    5     10.40      0.00
   -5  -10    4      5.89      0.00
   -5  -10    3      4.96      0.00
   -5  -10    2      8.10      0.00
   -5  -10    1     -4.12      0.00
    5   10    0    -17.51      0.00
    5   10    1     -3.19      0.00
    5   10    2     12.39      0.00
    5   10    3     -1.54      0.00
    5   10    4    -14.17      0.00
    5   10    5     -3.17      0.00
    5   10    6      4.23      0.00
    5   10    7     -3.10      0.00
    5   10    8     -2.25      0.00
    5   10    9      6.60      0.00
    5   10   10      1.03      0.00
    5   10   11     -7.86      0.00
    5   10   12      1.47      0.00
    5   10   13     10.41      0.00
    5   10   14      4.54      0.00
    5   10   15      1.12      0.00
   -5  -11   11     -3.20      0.00
   -5  -11   10      4.07      0.00
   -5  -11    9     12.39      0.00
   -5  -11    8      0.76      0.00
   -5  -11    7    -12.50      0.00
   -5  -11    6      1.36      0.00
   -5  -11    5     14.80      0.00
   -5  -11    4      2.33      0.00
   -5  -11    3     -7.48      0.00
   -5  -11    2     -1.63      0.00
   -5  -11    1     -5.65      0.00
    5   11    0    -13.73      0.00
    5   11    1      1.36      0.00
    5   11    2     13.36      0.00
    5   11    3     -6.02      0.00
    5   11    4    -20.15      0.00
    5   11    5     -4.48      0.00
    5   11    6      8.97      0.00
    5   11    7      0.83      0.00
    5   11    8     -5.63      0.00
    5   11    9      0.47      0.00
    5   11   10      1.30      0.00
    5   11   11     -0.36      0.00
    5   11   12      7.24      0.00
    5   11   13      9.31      0.00
    5   11   14      1.32      0.00
   -5  -12   10      5.18      0.00
   -5  -12    9      9.44      0.00
   -5  -12    8     -1.39      0.00
   -5  -12    7    -10.71      0.00
   -5  -12    6      2.23      0.00
   -5  -12    5     12.08      0.00
   -5  -12    4     -2.73      0.00
   -5  -12    3    -15.23      0.00
   -5  -12    2     -6.58      0.00
   -5  -12    1      2.08      0.00
    5   12    0     -0.71      0.00
    5   12    1     -0.05      0.00
    5   12    2      1.22      0.00
    5   12    3     -6.61      0.00
    5   12    4     -8.68      0.00
    5   12    5      1.33      0.00
    5   12    6      7.52      0.00
    5   12    7      0.73      0.00
    5   12    8     -6.99      0.00
    5   12    9     -2.55      0.00
    5   12   10      5.16      0.00
    5   12   11      6.83      0.00
    5   12   12      5.48      0.00
    5   12   13      1.70      0.00
   -5  -13    9      2.67      0.00
   -5  -13    8     -2.17      0.00
   -5  -13    7     -4.94      0.00
   -5  -13    6     -0.55      0.00
   -5  -13    5      2.64      0.00
   -5  -13    4     -3.62      0.00
   -5  -13    3    -10.55      0.00
   -5  -13    2     -4.57      0.00
   -5  -13    1      6.70      0.00
    5   13    0      4.70      0.00
    5   13    1     -5.04      0.00
    5   13    2     -4.68      0.00
    5   13    3      3.33      0.00
    5   13    4      5.14      0.00
    5   13    5     -0.01      0.00
    5   13    6     -0.20      0.00
    5   13    7      2.53      0.00
    5   13    8     -1.13      0.00
    5   13    9     -1.30      0.00
    5   13   10      5.86      0.00
    5   13   11      6.35      0.00
    5   13   12     -1.06      0.00
   -5  -14    8     -0.97      0.00
   -5  -14    7     -1.23      0.00
   -5  -14    6     -5.47      0.00
   -5  -14    5     -3.76      0.00
   -5  -14    4      2.65      0.00
   -5  -14    3     -0.14      0.00
   -5  -14    2     -4.06      0.00
   -5  -14    1      3.27      0.00
    5   14    0      6.06      0.00
    5   14    1     -2.77      0.00
    5   14    2     -1.89      0.00
    5   14    3      9.17      0.00
    5   14    4      6.87      0.00
    5   14    5     -4.81      0.00
    5   14    6     -2.28      0.00
    5   14    7      7.46      0.00
    5   14    8      3.95      0.00
    5   14    9     -2.21      0.00
    5   14   10      1.31      0.00
    5   14   11      1.74      0.00
   -5  -15    6     -6.66      0.00
   -5  -15    5     -2.84      0.00
   -5  -15    4      8.24      0.00
   -5  -15    3      4.68      0.00
   -5  -15    2     -5.76      0.00
   -5  -15    1     -0.16      0.00
    5   15    0      8.80      0.00
    5   15    1      2.82      0.00
    5   15    2     -0.83      0.00
    5   15    3      5.36      0.00
    5   15    4      3.10      0.00
    5   15    5     -3.71      0.00
    5   15    6      0.95      0.00
    5   15    7      7.53      0.00
    5   15    8      2.60      0.00
    5   15    9     -3.57      0.00
   -5  -16    4      6.69      0.00
   -5  -16    3      3.33      0.00
   -5  -16    2     -4.37      0.00
   -5  -16    1     -0.12      0.00
    5   16    0      8.39      0.00
    5   16    1      4.00      0.00
    5   16    2     -2.80      0.00
    5   16    3     -0.51      0.00
    5   16    4      1.09      0.00
    5   16    5      0.12      0.00
    5   16    6      1.49      0.00
    5   16    7      2.20      0.00
    5   17    0      3.15      0.00
    5   17    1      1.60      0.00
    5   17    2     -3.24      0.00
    5   17    3     -3.10      0.00
   -6   14    1     -3.43      0.00
   -6   14    0     -6.29      0.00
    6  -14    1     -3.38      0.00
    6  -14    2     -2.09      0.00
   -6   13    4     -0.36      0.00
   -6   13    3      0.14      0.00
   -6   13    2     -0.07      0.00
   -6   13    1     -2.93      0.00
   -6   13    0     -6.63      0.00
    6  -13    1     -4.67      0.00
    6  -13    2      0.07      0.00
    6  -13    3      0.72      0.00
    6  -13    4      1.72      0.00
    6  -13    5      6.92      0.00
    6  -13    6      9.36      0.00
   -6   12    5      2.64      0.00
   -6   12    4      2.20      0.00
   -6   12    3     -2.47      0.00
   -6   12    2     -2.98      0.00
   -6   12    1      1.91      0.00
   -6   12    0      0.08      0.00
    6  -12    1     -3.13      0.00
    6  -12    2      1.32      0.00
    6  -12    3      3.26      0.00
    6  -12    4      0.23      0.00
    6  -12    5      3.29      0.00
    6  -12    6      8.90      0.00
    6  -12    7      2.98      0.00
   -6   11    7     -1.75      0.00
   -6   11    6     -0.28      0.00
   -6   11    5      4.18      0.00
   -6   11    4      1.97      0.00
   -6   11    3     -6.19      0.00
   -6   11    2     -1.57      0.00
   -6   11    1     11.94      0.00
   -6   11    0      8.94      0.00
    6  -11    1     -2.85      0.00
    6  -11    2     -1.01      0.00
    6  -11    3      3.78      0.00
    6  -11    4     -0.21      0.00
    6  -11    5     -0.95      0.00
    6  -11    6      2.89      0.00
    6  -11    7     -2.26      0.00
    6  -11    8     -9.84      0.00
    6  -11    9     -5.04      0.00
   -6   10    9     -1.43      0.00
   -6   10    8     -0.49      0.00
   -6   10    7     -1.12      0.00
   -6   10    6     -0.14      0.00
   -6   10    5      3.70      0.00
   -6   10    4      1.37      0.00
   -6   10    3     -3.81      0.00
   -6   10    2      4.03      0.00
   -6   10    1     16.49      0.00
   -6   10    0     10.75      0.00
    6  -10    1     -3.96      0.00
    6  -10    2     -3.36      0.00
    6  -10    3      4.35      0.00
    6  -10    4      1.50      0.00
    6  -10    5     -5.32      0.00
    6  -10    6     -7.46      0.00
    6  -10    7     -8.31      0.00
    6  -10    8     -8.27      0.00
    6  -10    9     -4.08      0.00
    6  -10   10      1.80      0.00
    6  -10   11      4.41      0.00
   -6    9   10     -1.85      0.00
   -6    9    9     -1.73      0.00
   -6    9    8     -0.12      0.00
   -6    9    7      2.20      0.00
   -6    9    6      2.25      0.00
   -6    9    5      2.46      0.00
   -6    9    4      3.00      0.00
   -6    9    3      2.07      0.00
   -6    9    2      3.35      0.00
   -6    9    1      7.60      0.00
   -6    9    0      6.93      0.00
    6   -9    1     -1.22      0.00
    6   -9    2     -4.50      0.00
    6   -9    3      1.30      0.00
    6   -9    4      1.94      0.00
    6   -9    5     -7.59      0.00
    6   -9    6    -13.70      0.00
    6   -9    7     -7.89      0.00
    6   -9    8     -1.15      0.00
    6   -9    9     -2.16      0.00
    6   -9   10     -0.72      0.00
    6   -9   11      6.26      0.00
    6   -9   12      7.01      0.00
   -6    8   11     -1.60      0.00
   -6    8   10     -1.45      0.00
   -6    8    9     -3.07      0.00
   -6    8    8     -0.28      0.00
   -6    8    7      7.79      0.00
   -6    8    6      6.91      0.00
   -6    8    5      0.86      0.00
   -6    8    4      2.84      0.00
   -6    8    3      3.46      0.00
   -6    8    2     -5.38      0.00
   -6    8    1     -6.96      0.00
   -6    8    0      3.87      0.00
    6   -8    1      3.41      0.00
    6   -8    2     -9.75      0.00
    6   -8    3     -8.50      0.00
    6   -8    4      3.16      0.00
    6   -8    5     -0.06      0.00
    6   -8    6     -8.78      0.00
    6   -8    7     -2.66      0.00
    6   -8    8      4.26      0.00
    6   -8    9     -2.15      0.00
    6   -8   10     -3.59      0.00
    6   -8   11      7.22      0.00
    6   -8   12     10.15      0.00
    6   -8   13      2.72      0.00
   -6    7   12     -3.25      0.00
   -6    7   11     -1.89      0.00
   -6    7   10      0.56      0.00
   -6    7    9     -3.49      0.00
   -6    7    8     -0.23      0.00
   -6    7    7     12.86      0.00
   -6    7    6     11.44      0.00
   -6    7    5     -1.39      0.00
   -6    7    4     -1.66      0.00
   -6    7    3     -0.22      0.00
   -6    7    2    -12.70      0.00
   -6    7    1    -16.25      0.00
   -6    7    0     -0.26      0.00
    6   -7    1      1.30      0.00
    6   -7    2    -17.99      0.00
    6   -7    3    -15.26      0.00
    6   -7    4     11.59      0.00
    6   -7    5     17.45      0.00
    6   -7    6      1.94      0.00
    6   -7    7     -1.78      0.00
    6   -7    8      2.72      0.00
    6   -7    9     -0.97      0.00
    6   -7   10     -2.21      0.00
    6   -7   11      5.90      0.00
    6   -7   12      7.31      0.00
    6   -7   13     -0.67      0.00
   -6    6   13      0.76      0.00
   -6    6   12     -3.75      0.00
   -6    6   11     -0.97      0.00
   -6    6   10      2.11      0.00
   -6    6    9     -2.34      0.00
   -6    6    8      0.88      0.00
   -6    6    7     13.96      0.00
   -6    6    6     12.60      0.00
   -6    6    5     -2.76      0.00
   -6    6    4     -7.82      0.00
   -6    6    3     -5.62      0.00
   -6    6    2    -12.47      0.00
   -6    6    1    -17.17      0.00
   -6    6    0     -8.91      0.00
    6   -6    1     -7.20      0.00
    6   -6    2    -16.89      0.00
    6   -6    3     -7.14      0.00
    6   -6    4     22.98      0.00
    6   -6    5     30.66      0.00
    6   -6    6      8.64      0.00
    6   -6    7     -6.17      0.00
    6   -6    8     -1.04      0.00
    6   -6    9      5.50      0.00
    6   -6   10      3.25      0.00
    6   -6   11     -0.92      0.00
    6   -6   12     -3.11      0.00
    6   -6   13     -4.96      0.00
    6   -6   14     -3.58      0.00
   -6    5   13      1.70      0.00
   -6    5   12     -1.09      0.00
   -6    5   11     -0.53      0.00
   -6    5   10      1.29      0.00
   -6    5    9      0.03      0.00
   -6    5    8      2.19      0.00
   -6    5    7      9.43      0.00
   -6    5    6      9.93      0.00
   -6    5    5     -1.70      0.00
   -6    5    4    -12.72      0.00
   -6    5    3    -10.60      0.00
   -6    5    2     -5.04      0.00
   -6    5    1    -10.02      0.00
   -6    5    0    -16.64      0.00
    6   -5    1    -12.19      0.00
    6   -5    2     -1.41      0.00
    6   -5    3     10.44      0.00
    6   -5    4     24.79      0.00
    6   -5    5     29.06      0.00
    6   -5    6     10.87      0.00
    6   -5    7     -8.32      0.00
    6   -5    8     -3.26      0.00
    6   -5    9     11.17      0.00
    6   -5   10      6.14      0.00
    6   -5   11    -10.97      0.00
    6   -5   12    -13.79      0.00
    6   -5   13     -4.96      0.00
    6   -5   14     -0.84      0.00
   -6    4   14     -0.55      0.00
   -6    4   13      3.06      0.00
   -6    4   12      3.38      0.00
   -6    4   11     -0.82      0.00
   -6    4   10     -2.18      0.00
   -6    4    9      1.51      0.00
   -6    4    8      2.83      0.00
   -6    4    7      2.43      0.00
   -6    4    6      5.40      0.00
   -6    4    5      0.31      0.00
   -6    4    4    -15.06      0.00
   -6    4    3    -12.84      0.00
   -6    4    2      6.59      0.00
   -6    4    1      3.71      0.00
   -6    4    0    -16.64      0.00
    6   -4    1    -10.68      0.00
    6   -4    2     15.90      0.00
    6   -4    3     22.99      0.00
    6   -4    4     16.01      0.00
    6   -4    5     17.78      0.00
    6   -4    6     10.61      0.00
    6   -4    7     -8.82      0.00
    6   -4    8     -8.13      0.00
    6   -4    9      9.10      0.00
    6   -4   10      5.95      0.00
    6   -4   11    -14.72      0.00
    6   -4   12    -16.46      0.00
    6   -4   13     -1.84      0.00
    6   -4   14      1.49      0.00
    6   -4   15     -2.31      0.00
   -6    3   14     -2.33      0.00
   -6    3   13      3.45      0.00
   -6    3   12      6.76      0.00
   -6    3   11     -2.13      0.00
   -6    3   10     -7.04      0.00
   -6    3    9      1.67      0.00
   -6    3    8      3.20      0.00
   -6    3    7     -3.87      0.00
   -6    3    6     -0.38      0.00
   -6    3    5      0.68      0.00
   -6    3    4    -13.49      0.00
   -6    3    3    -10.23      0.00
   -6    3    2     17.25      0.00
   -6    3    1     17.66      0.00
   -6    3    0    -10.99      0.00
    6   -3    1     -9.44      0.00
    6   -3    2     21.49      0.00
    6   -3    3     25.89      0.00
    6   -3    4      6.50      0.00
    6   -3    5      3.42      0.00
    6   -3    6      2.64      0.00
    6   -3    7    -13.33      0.00
    6   -3    8    -14.65      0.00
    6   -3    9      3.99      0.00
    6   -3   10      7.70      0.00
    6   -3   11     -8.48      0.00
    6   -3   12    -12.07      0.00
    6   -3   13     -0.39      0.00
    6   -3   14      2.17      0.00
    6   -3   15     -1.04      0.00
   -6    2   14     -3.41      0.00
   -6    2   13      1.22      0.00
   -6    2   12      6.06      0.00
   -6    2   11     -3.21      0.00
   -6    2   10     -9.98      0.00
   -6    2    9     -0.75      0.00
   -6    2    8      1.16      0.00
   -6    2    7     -6.98      0.00
   -6    2    6     -3.99      0.00
   -6    2    5      0.34      0.00
   -6    2    4     -7.21      0.00
   -6    2    3     -3.34      0.00
   -6    2    2     20.61      0.00
   -6    2    1     23.34      0.00
   -6    2    0     -4.85      0.00
    6   -2    1    -11.97      0.00
    6   -2    2     12.94      0.00
    6   -2    3     21.56      0.00
    6   -2    4      1.96      0.00
    6   -2    5    -11.77      0.00
    6   -2    6    -13.53      0.00
    6   -2    7    -18.13      0.00
    6   -2    8    -15.23      0.00
    6   -2    9      1.02      0.00
    6   -2   10     10.10      0.00
    6   -2   11      1.53      0.00
    6   -2   12     -5.87      0.00
    6   -2   13     -0.45      0.00
    6   -2   14      4.69      0.00
    6   -2   15      3.59      0.00
   -6    1   14     -3.18      0.00
   -6    1   13     -1.25      0.00
   -6    1   12      3.33      0.00
   -6    1   11     -2.77      0.00
   -6    1   10    -11.99      0.00
   -6    1    9     -7.37      0.00
   -6    1    8      0.34      0.00
   -6    1    7      0.47      0.00
   -6    1    6     -0.91      0.00
   -6    1    5     -1.01      0.00
   -6    1    4      0.20      0.00
   -6    1    3      4.43      0.00
   -6    1    2     14.99      0.00
   -6    1    1     19.20      0.00
   -6    1    0      0.56      0.00
    6   -1    1    -17.05      0.00
    6   -1    2     -5.64      0.00
    6   -1    3     13.78      0.00
    6   -1    4      5.77      0.00
    6   -1    5    -20.12      0.00
    6   -1    6    -27.68      0.00
    6   -1    7    -17.22      0.00
    6   -1    8     -9.06      0.00
    6   -1    9     -1.04      0.00
    6   -1   10      9.66      0.00
    6   -1   11      9.36      0.00
    6   -1   12     -0.59      0.00
    6   -1   13     -0.08      0.00
    6   -1   14      8.63      0.00
    6   -1   15      7.65      0.00
   -6    0   14      1.11      0.00
   -6    0   13      0.00      0.00
   -6    0   12      0.41      0.00
   -6    0   11     -3.79      0.00
   -6    0   10    -13.66      0.00
   -6    0    9     -9.97      0.00
   -6    0    8      8.78      0.00
   -6    0    7     16.32      0.00
   -6    0    6      2.30      0.00
   -6    0    5     -7.25      0.00
   -6    0    4      4.54      0.00
   -6    0    3     11.59      0.00
   -6    0    2      6.46      0.00
   -6    0    1      9.14      0.00
    6    0    0      1.83      0.00
    6    0    1    -23.65      0.00
    6    0    2    -23.60      0.00
    6    0    3     11.08      0.00
    6    0    4     20.71      0.00
    6    0    5    -14.46      0.00
    6    0    6    -32.33      0.00
    6    0    7    -12.88      0.00
    6    0    8     -0.50      0.00
    6    0    9     -0.69      0.00
    6    0   10      7.45      0.00
    6    0   11     11.71      0.00
    6    0   12      1.46      0.00
    6    0   13     -0.48      0.00
    6    0   14     10.49      0.00
    6    0   15      9.77      0.00
    6    0   16     -0.85      0.00
   -6   -1   14      7.18      0.00
   -6   -1   13      1.72      0.00
   -6   -1   12     -3.88      0.00
   -6   -1   11     -5.05      0.00
   -6   -1   10     -9.03      0.00
   -6   -1    9     -3.64      0.00
   -6   -1    8     18.09      0.00
   -6   -1    7     24.16      0.00
   -6   -1    6     -1.00      0.00
   -6   -1    5    -14.46      0.00
   -6   -1    4      7.07      0.00
   -6   -1    3     17.09      0.00
   -6   -1    2     -1.09      0.00
   -6   -1    1     -5.60      0.00
    6    1    0     -5.09      0.00
    6    1    1    -26.32      0.00
    6    1    2    -26.15      0.00
    6    1    3     17.80      0.00
    6    1    4     38.32      0.00
    6    1    5      0.15      0.00
    6    1    6    -28.32      0.00
    6    1    7     -9.85      0.00
    6    1    8      7.50      0.00
    6    1    9      4.57      0.00
    6    1   10      4.37      0.00
    6    1   11      6.08      0.00
    6    1   12     -0.93      0.00
    6    1   13     -1.31      0.00
    6    1   14     10.33      0.00
    6    1   15     10.86      0.00
   -6   -2   14      7.35      0.00
   -6   -2   13      0.35      0.00
   -6   -2   12     -5.58      0.00
   -6   -2   11     -1.74      0.00
   -6   -2   10     -0.79      0.00
   -6   -2    9      0.80      0.00
   -6   -2    8     16.16      0.00
   -6   -2    7     20.50      0.00
   -6   -2    6     -3.29      0.00
   -6   -2    5    -15.21      0.00
   -6   -2    4      5.00      0.00
   -6   -2    3     13.25      0.00
   -6   -2    2     -8.39      0.00
   -6   -2    1    -19.24      0.00
    6    2    0    -13.97      0.00
    6    2    1    -18.38      0.00
    6    2    2    -11.03      0.00
    6    2    3     24.88      0.00
    6    2    4     43.49      0.00
    6    2    5     13.20      0.00
    6    2    6    -19.29      0.00
    6    2    7    -10.04      0.00
    6    2    8     11.58      0.00
    6    2    9     11.27      0.00
    6    2   10     -0.29      0.00
    6    2   11     -5.41      0.00
    6    2   12     -5.10      0.00
    6    2   13     -0.43      0.00
    6    2   14      8.46      0.00
    6    2   15      8.68      0.00
   -6   -3   14      2.10      0.00
   -6   -3   13      0.98      0.00
   -6   -3   12     -0.68      0.00
   -6   -3   11      1.52      0.00
   -6   -3   10      0.68      0.00
   -6   -3    9     -0.15      0.00
   -6   -3    8      9.97      0.00
   -6   -3    7     14.80      0.00
   -6   -3    6     -0.84      0.00
   -6   -3    5    -14.61      0.00
   -6   -3    4     -9.26      0.00
   -6   -3    3     -0.69      0.00
   -6   -3    2     -7.32      0.00
   -6   -3    1    -19.39      0.00
    6    3    0    -17.61      0.00
    6    3    1     -5.50      0.00
    6    3    2      7.93      0.00
    6    3    3     23.21      0.00
    6    3    4     33.04      0.00
    6    3    5     19.36      0.00
    6    3    6     -9.30      0.00
    6    3    7    -12.84      0.00
    6    3    8      9.12      0.00
    6    3    9     13.77      0.00
    6    3   10     -5.59      0.00
    6    3   11    -15.69      0.00
    6    3   12     -7.13      0.00
    6    3   13      1.50      0.00
    6    3   14      4.17      0.00
    6    3   15      3.32      0.00
   -6   -4   13      6.60      0.00
   -6   -4   12      5.22      0.00
   -6   -4   11     -1.93      0.00
   -6   -4   10     -3.41      0.00
   -6   -4    9      1.71      0.00
   -6   -4    8      7.13      0.00
   -6   -4    7      7.93      0.00
   -6   -4    6     -0.49      0.00
   -6   -4    5    -18.52      0.00
   -6   -4    4    -27.14      0.00
   -6   -4    3     -7.51      0.00
   -6   -4    2      9.22      0.00
   -6   -4    1     -8.34      0.00
    6    4    0    -20.60      0.00
    6    4    1      1.47      0.00
    6    4    2     20.67      0.00
    6    4    3     17.35      0.00
    6    4    4     16.91      0.00
    6    4    5     17.62      0.00
    6    4    6     -2.85      0.00
    6    4    7    -16.42      0.00
    6    4    8      1.24      0.00
    6    4    9     10.47      0.00
    6    4   10     -8.23      0.00
    6    4   11    -17.83      0.00
    6    4   12     -5.23      0.00
    6    4   13      2.43      0.00
    6    4   14     -0.56      0.00
    6    4   15     -0.86      0.00
   -6   -5   13     11.10      0.00
   -6   -5   12      5.27      0.00
   -6   -5   11     -8.51      0.00
   -6   -5   10     -5.96      0.00
   -6   -5    9      5.93      0.00
   -6   -5    8      5.26      0.00
   -6   -5    7      0.10      0.00
   -6   -5    6     -2.43      0.00
   -6   -5    5    -18.81      0.00
   -6   -5    4    -28.65      0.00
   -6   -5    3      1.62      0.00
   -6   -5    2     26.35      0.00
   -6   -5    1     -1.28      0.00
    6    5    0    -23.50      0.00
    6    5    1      4.30      0.00
    6    5    2     28.00      0.00
    6    5    3     14.21      0.00
    6    5    4      2.69      0.00
    6    5    5      7.89      0.00
    6    5    6     -2.69      0.00
    6    5    7    -18.34      0.00
    6    5    8     -6.77      0.00
    6    5    9      5.56      0.00
    6    5   10     -4.96      0.00
    6    5   11    -10.91      0.00
    6    5   12     -1.81      0.00
    6    5   13      1.07      0.00
    6    5   14     -2.97      0.00
    6    5   15     -1.72      0.00
   -6   -6   13      9.39      0.00
   -6   -6   12      1.31      0.00
   -6   -6   11    -11.22      0.00
   -6   -6   10     -6.26      0.00
   -6   -6    9      6.88      0.00
   -6   -6    8      4.29      0.00
   -6   -6    7     -3.46      0.00
   -6   -6    6     -2.23      0.00
   -6   -6    5     -9.24      0.00
   -6   -6    4    -12.95      0.00
   -6   -6    3     11.83      0.00
   -6   -6    2     27.43      0.00
   -6   -6    1      1.78      0.00
    6    6    0    -16.59      0.00
    6    6    1      6.45      0.00
    6    6    2     26.29      0.00
    6    6    3     11.05      0.00
    6    6    4     -7.21      0.00
    6    6    5     -5.17      0.00
    6    6    6     -6.16      0.00
    6    6    7    -15.10      0.00
    6    6    8     -8.62      0.00
    6    6    9      3.34      0.00
    6    6   10      2.22      0.00
    6    6   11     -1.75      0.00
    6    6   12     -1.35      0.00
    6    6   13     -1.17      0.00
    6    6   14     -0.94      0.00
    6    6   15      0.39      0.00
   -6   -7   12     -0.62      0.00
   -6   -7   11     -8.82      0.00
   -6   -7   10     -7.39      0.00
   -6   -7    9      3.04      0.00
   -6   -7    8      4.90      0.00
   -6   -7    7     -2.09      0.00
   -6   -7    6     -1.30      0.00
   -6   -7    5      1.81      0.00
   -6   -7    4      2.99      0.00
   -6   -7    3     11.87      0.00
   -6   -7    2     18.25      0.00
   -6   -7    1      8.73      0.00
    6    7    0     -4.20      0.00
    6    7    1     -1.07      0.00
    6    7    2     11.14      0.00
    6    7    3      8.23      0.00
    6    7    4     -8.17      0.00
    6    7    5    -14.45      0.00
    6    7    6     -9.20      0.00
    6    7    7     -6.43      0.00
    6    7    8     -4.30      0.00
    6    7    9      2.11      0.00
    6    7   10      6.78      0.00
    6    7   11      2.88      0.00
    6    7   12     -2.98      0.00
    6    7   13      0.51      0.00
    6    7   14      5.77      0.00
    6    7   15      3.42      0.00
   -6   -8   12      0.48      0.00
   -6   -8   11     -5.90      0.00
   -6   -8   10    -10.86      0.00
   -6   -8    9     -2.40      0.00
   -6   -8    8      7.88      0.00
   -6   -8    7      2.24      0.00
   -6   -8    6     -3.52      0.00
   -6   -8    5      4.85      0.00
   -6   -8    4     11.09      0.00
   -6   -8    3      7.63      0.00
   -6   -8    2      8.23      0.00
   -6   -8    1     11.28      0.00
    6    8    0     -2.43      0.00
    6    8    1    -17.27      0.00
    6    8    2     -3.67      0.00
    6    8    3     12.22      0.00
    6    8    4     -2.55      0.00
    6    8    5    -20.43      0.00
    6    8    6    -11.22      0.00
    6    8    7      3.14      0.00
    6    8    8      0.71      0.00
    6    8    9     -1.35      0.00
    6    8   10      5.26      0.00
    6    8   11      3.18      0.00
    6    8   12     -1.66      0.00
    6    8   13      6.51      0.00
    6    8   14     11.29      0.00
   -6   -9   11     -4.88      0.00
   -6   -9   10    -11.68      0.00
   -6   -9    9     -2.15      0.00
   -6   -9    8     13.43      0.00
   -6   -9    7      5.80      0.00
   -6   -9    6     -8.29      0.00
   -6   -9    5      2.78      0.00
   -6   -9    4     14.74      0.00
   -6   -9    3      3.86      0.00
   -6   -9    2     -3.79      0.00
   -6   -9    1      1.59      0.00
    6    9    0     -7.83      0.00
    6    9    1    -21.47      0.00
    6    9    2     -4.20      0.00
    6    9    3     15.52      0.00
    6    9    4     -1.92      0.00
    6    9    5    -22.92      0.00
    6    9    6     -9.42      0.00
    6    9    7      9.38      0.00
    6    9    8      2.41      0.00
    6    9    9     -6.28      0.00
    6    9   10      0.14      0.00
    6    9   11      2.91      0.00
    6    9   12      3.03      0.00
    6    9   13     10.05      0.00
    6    9   14      9.67      0.00
   -6  -10   11     -2.89      0.00
   -6  -10   10     -5.73      0.00
   -6  -10    9      2.92      0.00
   -6  -10    8     14.15      0.00
   -6  -10    7      5.13      0.00
   -6  -10    6     -8.68      0.00
   -6  -10    5      2.24      0.00
   -6  -10    4     13.18      0.00
   -6  -10    3     -1.19      0.00
   -6  -10    2    -14.12      0.00
   -6  -10    1     -8.77      0.00
    6   10    0     -5.45      0.00
    6   10    1     -8.41      0.00
    6   10    2     -0.41      0.00
    6   10    3      7.40      0.00
    6   10    4     -3.61      0.00
    6   10    5    -13.57      0.00
    6   10    6     -2.86      0.00
    6   10    7      8.29      0.00
    6   10    8      0.79      0.00
    6   10    9     -7.89      0.00
    6   10   10     -3.12      0.00
    6   10   11      3.72      0.00
    6   10   12      6.73      0.00
    6   10   13      7.42      0.00
   -6  -11   10      0.39      0.00
   -6  -11    9      3.95      0.00
   -6  -11    8      7.28      0.00
   -6  -11    7      3.94      0.00
   -6  -11    6     -2.50      0.00
   -6  -11    5     -0.15      0.00
   -6  -11    4      3.24      0.00
   -6  -11    3     -4.40      0.00
   -6  -11    2    -12.80      0.00
   -6  -11    1     -9.43      0.00
    6   11    0      1.00      0.00
    6   11    1      3.54      0.00
    6   11    2     -1.64      0.00
    6   11    3     -1.08      0.00
    6   11    4      3.50      0.00
    6   11    5      2.62      0.00
    6   11    6     -0.63      0.00
    6   11    7      0.14      0.00
    6   11    8      0.86      0.00
    6   11    9     -2.36      0.00
    6   11   10     -2.64      0.00
    6   11   11      3.29      0.00
    6   11   12      6.35      0.00
   -6  -12    9      1.31      0.00
   -6  -12    8      0.97      0.00
   -6  -12    7      4.13      0.00
   -6  -12    6      1.07      0.00
   -6  -12    5     -8.13      0.00
   -6  -12    4     -7.47      0.00
   -6  -12    3      0.33      0.00
   -6  -12    2     -1.14      0.00
   -6  -12    1     -6.61      0.00
    6   12    0      0.48      0.00
    6   12    1      7.20      0.00
    6   12    2      0.31      0.00
    6   12    3      0.35      0.00
    6   12    4     10.54      0.00
    6   12    5      7.45      0.00
    6   12    6     -5.44      0.00
    6   12    7     -4.88      0.00
    6   12    8      5.66      0.00
    6   12    9      4.77      0.00
    6   12   10     -2.85      0.00
    6   12   11     -0.45      0.00
   -6  -13    8     -1.13      0.00
   -6  -13    7      1.99      0.00
   -6  -13    6     -1.85      0.00
   -6  -13    5    -13.11      0.00
   -6  -13    4     -7.86      0.00
   -6  -13    3      9.18      0.00
   -6  -13    2      7.85      0.00
   -6  -13    1     -6.53      0.00
    6   13    0     -3.00      0.00
    6   13    1      9.70      0.00
    6   13    2      6.27      0.00
    6   13    3      1.51      0.00
    6   13    4      5.19      0.00
    6   13    5      0.97      0.00
    6   13    6     -6.57      0.00
    6   13    7     -1.49      0.00
    6   13    8      8.27      0.00
    6   13    9      4.81      0.00
    6   13   10     -5.05      0.00
   -6  -14    6     -3.86      0.00
   -6  -14    5     -8.26      0.00
   -6  -14    4     -0.91      0.00
   -6  -14    3     11.19      0.00
   -6  -14    2      7.62      0.00
   -6  -14    1     -5.20      0.00
    6   14    0     -2.41      0.00
    6   14    1      9.97      0.00
    6   14    2      6.97      0.00
    6   14    3     -2.86      0.00
    6   14    4     -4.16      0.00
    6   14    5     -3.02      0.00
    6   14    6     -1.40      0.00
    6   14    7      2.04      0.00
    6   14    8      3.82      0.00
    6   14    9      0.61      0.00
   -6  -15    4      2.85      0.00
   -6  -15    3      5.20      0.00
   -6  -15    2      4.04      0.00
   -6  -15    1     -0.36      0.00
    6   15    0     -1.01      0.00
    6   15    1      4.28      0.00
    6   15    2      3.20      0.00
    6   15    3     -4.85      0.00
    6   15    4     -7.28      0.00
    6   15    5     -2.46      0.00
    6   15    6      2.10      0.00
   -6  -16    1      2.86      0.00
    6   16    0     -2.02      0.00
    6   16    1     -2.06      0.00
    6   16    2      1.11      0.00
    6   16    3     -2.35      0.00
    6   16    4     -5.85      0.00
    6   16    5     -1.91      0.00
   -7   12    3     -1.44      0.00
   -7   12    2     -3.43      0.00
   -7   12    1      1.59      0.00
   -7   12    0     10.26      0.00
    7  -12    1      9.33      0.00
    7  -12    2      1.65      0.00
    7  -12    3     -0.50      0.00
    7  -12    4      0.34      0.00
    7  -12    5     -2.23      0.00
   -7   11    5     -2.35      0.00
   -7   11    4     -2.50      0.00
   -7   11    3     -0.97      0.00
   -7   11    2      1.40      0.00
   -7   11    1      3.87      0.00
   -7   11    0      7.05      0.00
    7  -11    1      7.58      0.00
    7  -11    2      2.10      0.00
    7  -11    3     -2.31      0.00
    7  -11    4     -1.43      0.00
    7  -11    5     -1.23      0.00
    7  -11    6     -5.60      0.00
    7  -11    7     -8.53      0.00
   -7   10    7      1.41      0.00
   -7   10    6      0.25      0.00
   -7   10    5     -2.69      0.00
   -7   10    4     -2.91      0.00
   -7   10    3      1.71      0.00
   -7   10    2      4.65      0.00
   -7   10    1     -0.49      0.00
   -7   10    0     -2.61      0.00
    7  -10    1      4.49      0.00
    7  -10    2      4.34      0.00
    7  -10    3     -4.52      0.00
    7  -10    4     -5.69      0.00
    7  -10    5     -0.53      0.00
    7  -10    6     -2.66      0.00
    7  -10    7     -7.73      0.00
    7  -10    8     -2.82      0.00
   -7    9    9      2.09      0.00
   -7    9    8     -0.61      0.00
   -7    9    7     -1.19      0.00
   -7    9    6      1.48      0.00
   -7    9    5      0.75      0.00
   -7    9    4     -2.10      0.00
   -7    9    3      0.02      0.00
   -7    9    2      1.50      0.00
   -7    9    1     -6.49      0.00
   -7    9    0     -9.11      0.00
    7   -9    1      3.03      0.00
    7   -9    2      5.04      0.00
    7   -9    3     -9.19      0.00
    7   -9    4    -11.40      0.00
    7   -9    5      1.85      0.00
    7   -9    6      5.78      0.00
    7   -9    7     -1.25      0.00
    7   -9    8     -0.63      0.00
    7   -9    9      4.80      0.00
    7   -9   10      3.57      0.00
   -7    8   10      1.77      0.00
   -7    8    9      2.23      0.00
   -7    8    8     -1.60      0.00
   -7    8    7     -2.37      0.00
   -7    8    6      3.62      0.00
   -7    8    5      4.48      0.00
   -7    8    4     -3.28      0.00
   -7    8    3     -6.11      0.00
   -7    8    2     -2.70      0.00
   -7    8    1     -5.09      0.00
   -7    8    0     -7.54      0.00
    7   -8    1     -0.56      0.00
    7   -8    2     -0.31      0.00
    7   -8    3    -12.01      0.00
    7   -8    4    -10.72      0.00
    7   -8    5      6.93      0.00
    7   -8    6     14.30      0.00
    7   -8    7      5.05      0.00
    7   -8    8     -0.91      0.00
    7   -8    9      3.81      0.00
    7   -8   10      7.16      0.00
    7   -8   11      3.08      0.00
   -7    7   10      1.92      0.00
   -7    7    9      1.58      0.00
   -7    7    8     -0.18      0.00
   -7    7    7     -1.00      0.00
   -7    7    6      2.30      0.00
   -7    7    5      3.03      0.00
   -7    7    4     -4.57      0.00
   -7    7    3     -9.73      0.00
   -7    7    2     -3.85      0.00
   -7    7    1      2.09      0.00
   -7    7    0     -2.13      0.00
    7   -7    1     -7.48      0.00
    7   -7    2     -6.50      0.00
    7   -7    3     -4.62      0.00
    7   -7    4     -1.16      0.00
    7   -7    5      7.87      0.00
    7   -7    6     13.93      0.00
    7   -7    7      7.69      0.00
    7   -7    8     -1.34      0.00
    7   -7    9      2.39      0.00
    7   -7   10     10.32      0.00
    7   -7   11      4.49      0.00
    7   -7   12     -6.71      0.00
   -7    6   11      3.58      0.00
   -7    6   10      1.47      0.00
   -7    6    9     -0.14      0.00
   -7    6    8      1.60      0.00
   -7    6    7     -0.98      0.00
   -7    6    6     -4.70      0.00
   -7    6    5     -1.77      0.00
   -7    6    4     -1.69      0.00
   -7    6    3     -8.31      0.00
   -7    6    2     -5.20      0.00
   -7    6    1      7.19      0.00
   -7    6    0      4.64      0.00
    7   -6    1     -8.53      0.00
    7   -6    2     -4.54      0.00
    7   -6    3      8.86      0.00
    7   -6    4      6.79      0.00
    7   -6    5      0.01      0.00
    7   -6    6      5.97      0.00
    7   -6    7      9.26      0.00
    7   -6    8      0.24      0.00
    7   -6    9     -0.99      0.00
    7   -6   10      7.96      0.00
    7   -6   11      4.29      0.00
    7   -6   12     -8.46      0.00
    7   -6   13     -9.06      0.00
   -7    5   12      1.92      0.00
   -7    5   11      5.51      0.00
   -7    5   10      0.47      0.00
   -7    5    9     -3.61      0.00
   -7    5    8      0.09      0.00
   -7    5    7     -3.27      0.00
   -7    5    6    -10.25      0.00
   -7    5    5     -3.22      0.00
   -7    5    4      3.53      0.00
   -7    5    3     -6.39      0.00
   -7    5    2     -9.06      0.00
   -7    5    1      9.06      0.00
   -7    5    0     15.89      0.00
    7   -5    1      2.33      0.00
    7   -5    2      1.38      0.00
    7   -5    3     12.49      0.00
    7   -5    4      5.36      0.00
    7   -5    5     -8.08      0.00
    7   -5    6     -0.66      0.00
    7   -5    7      8.22      0.00
    7   -5    8     -2.06      0.00
    7   -5    9     -8.97      0.00
    7   -5   10      1.09      0.00
    7   -5   11      5.49      0.00
    7   -5   12     -3.79      0.00
    7   -5   13     -7.22      0.00
   -7    4   12      1.41      0.00
   -7    4   11      5.69      0.00
   -7    4   10     -1.68      0.00
   -7    4    9     -7.78      0.00
   -7    4    8     -2.40      0.00
   -7    4    7     -2.73      0.00
   -7    4    6     -8.19      0.00
   -7    4    5     -1.82      0.00
   -7    4    4      3.89      0.00
   -7    4    3     -6.66      0.00
   -7    4    2     -9.98      0.00
   -7    4    1     12.36      0.00
   -7    4    0     28.46      0.00
    7   -4    1     14.95      0.00
    7   -4    2     -0.17      0.00
    7   -4    3      1.23      0.00
    7   -4    4      0.07      0.00
    7   -4    5     -7.36      0.00
    7   -4    6     -5.06      0.00
    7   -4    7     -1.68      0.00
    7   -4    8    -10.22      0.00
    7   -4    9    -14.31      0.00
    7   -4   10     -1.76      0.00
    7   -4   11      9.21      0.00
    7   -4   12      3.94      0.00
    7   -4   13     -4.05      0.00
    7   -4   14     -3.32      0.00
   -7    3   12     -0.23      0.00
   -7    3   11      3.16      0.00
   -7    3   10     -2.33      0.00
   -7    3    9     -7.96      0.00
   -7    3    8     -3.39      0.00
   -7    3    7     -0.03      0.00
   -7    3    6     -1.92      0.00
   -7    3    5     -1.39      0.00
   -7    3    4     -0.96      0.00
   -7    3    3     -4.40      0.00
   -7    3    2     -2.60      0.00
   -7    3    1     14.89      0.00
   -7    3    0     30.51      0.00
    7   -3    1     18.26      0.00
    7   -3    2     -7.79      0.00
    7   -3    3    -14.80      0.00
    7   -3    4     -3.94      0.00
    7   -3    5     -1.35      0.00
    7   -3    6    -10.73      0.00
    7   -3    7    -15.95      0.00
    7   -3    8    -13.88      0.00
    7   -3    9     -9.08      0.00
    7   -3   10      0.22      0.00
    7   -3   11     10.48      0.00
    7   -3   12      9.15      0.00
    7   -3   13     -1.10      0.00
    7   -3   14     -3.60      0.00
   -7    2   12     -0.94      0.00
   -7    2   11      1.25      0.00
   -7    2   10      0.82      0.00
   -7    2    9     -5.25      0.00
   -7    2    8     -5.82      0.00
   -7    2    7      2.00      0.00
   -7    2    6      6.33      0.00
   -7    2    5      0.32      0.00
   -7    2    4     -4.71      0.00
   -7    2    3      1.39      0.00
   -7    2    2      6.58      0.00
   -7    2    1      9.95      0.00
   -7    2    0     19.99      0.00
    7   -2    1     15.95      0.00
    7   -2    2    -12.26      0.00
    7   -2    3    -27.39      0.00
    7   -2    4     -8.23      0.00
    7   -2    5      4.76      0.00
    7   -2    6    -12.00      0.00
    7   -2    7    -21.27      0.00
    7   -2    8     -7.95      0.00
    7   -2    9      1.02      0.00
    7   -2   10      1.58      0.00
    7   -2   11      8.12      0.00
    7   -2   12     10.76      0.00
    7   -2   13      0.86      0.00
    7   -2   14     -2.92      0.00
    7   -2   15      4.00      0.00
   -7    1   12      1.59      0.00
   -7    1   11      1.01      0.00
   -7    1   10      3.55      0.00
   -7    1    9     -2.78      0.00
   -7    1    8     -7.06      0.00
   -7    1    7      5.09      0.00
   -7    1    6     14.32      0.00
   -7    1    5      3.27      0.00
   -7    1    4     -6.90      0.00
   -7    1    3      2.97      0.00
   -7    1    2      8.72      0.00
   -7    1    1      1.55      0.00
   -7    1    0      8.08      0.00
    7   -1    1     13.13      0.00
    7   -1    2    -12.61      0.00
    7   -1    3    -33.39      0.00
    7   -1    4    -11.38      0.00
    7   -1    5     11.66      0.00
    7   -1    6     -2.42      0.00
    7   -1    7    -14.35      0.00
    7   -1    8     -0.80      0.00
    7   -1    9      7.75      0.00
    7   -1   10      3.97      0.00
    7   -1   11      6.08      0.00
    7   -1   12      8.20      0.00
    7   -1   13     -0.46      0.00
    7   -1   14     -3.93      0.00
    7   -1   15      2.51      0.00
   -7    0   12      3.58      0.00
   -7    0   11      0.42      0.00
   -7    0   10      5.01      0.00
   -7    0    9      1.42      0.00
   -7    0    8     -5.62      0.00
   -7    0    7      4.95      0.00
   -7    0    6     15.63      0.00
   -7    0    5      4.43      0.00
   -7    0    4     -9.05      0.00
   -7    0    3     -2.53      0.00
   -7    0    2      4.75      0.00
   -7    0    1     -1.82      0.00
    7    0    0      1.04      0.00
    7    0    1      7.09      0.00
    7    0    2    -11.58      0.00
    7    0    3    -29.32      0.00
    7    0    4    -10.41      0.00
    7    0    5     16.91      0.00
    7    0    6     12.68      0.00
    7    0    7     -2.59      0.00
    7    0    8      0.75      0.00
    7    0    9     10.07      0.00
    7    0   10      9.62      0.00
    7    0   11      4.72      0.00
    7    0   12      0.60      0.00
    7    0   13     -4.89      0.00
    7    0   14     -5.70      0.00
    7    0   15      0.03      0.00
   -7   -1   13      3.01      0.00
   -7   -1   12      3.06      0.00
   -7   -1   11      2.25      0.00
   -7   -1   10      6.72      0.00
   -7   -1    9      2.78      0.00
   -7   -1    8     -7.28      0.00
   -7   -1    7      0.32      0.00
   -7   -1    6     12.79      0.00
   -7   -1    5      6.13      0.00
   -7   -1    4     -9.49      0.00
   -7   -1    3    -12.49      0.00
   -7   -1    2     -3.15      0.00
   -7   -1    1      0.65      0.00
    7    1    0     -0.61      0.00
    7    1    1     -1.11      0.00
    7    1    2     -8.47      0.00
    7    1    3    -16.41      0.00
    7    1    4     -7.63      0.00
    7    1    5     15.05      0.00
    7    1    6     23.14      0.00
    7    1    7      7.16      0.00
    7    1    8     -2.77      0.00
    7    1    9      7.56      0.00
    7    1   10     13.94      0.00
    7    1   11      2.88      0.00
    7    1   12     -8.02      0.00
    7    1   13     -8.51      0.00
    7    1   14     -5.44      0.00
    7    1   15     -1.85      0.00
   -7   -2   13     -2.74      0.00
   -7   -2   12      4.79      0.00
   -7   -2   11      6.81      0.00
   -7   -2   10      3.47      0.00
   -7   -2    9     -2.59      0.00
   -7   -2    8     -7.32      0.00
   -7   -2    7      0.13      0.00
   -7   -2    6     10.83      0.00
   -7   -2    5      7.62      0.00
   -7   -2    4    -10.92      0.00
   -7   -2    3    -25.53      0.00
   -7   -2    2    -11.41      0.00
   -7   -2    1     10.17      0.00
    7    2    0      5.81      0.00
    7    2    1     -6.32      0.00
    7    2    2     -4.36      0.00
    7    2    3     -2.40      0.00
    7    2    4     -6.00      0.00
    7    2    5      6.68      0.00
    7    2    6     24.10      0.00
    7    2    7     11.19      0.00
    7    2    8     -8.59      0.00
    7    2    9      0.78      0.00
    7    2   10     13.71      0.00
    7    2   11      1.89      0.00
    7    2   12    -12.06      0.00
    7    2   13     -8.72      0.00
    7    2   14     -3.54      0.00
    7    2   15     -3.24      0.00
   -7   -3   12      8.72      0.00
   -7   -3   11      7.97      0.00
   -7   -3   10     -4.09      0.00
   -7   -3    9     -5.86      0.00
   -7   -3    8     -0.33      0.00
   -7   -3    7      2.43      0.00
   -7   -3    6      5.63      0.00
   -7   -3    5      4.73      0.00
   -7   -3    4    -14.12      0.00
   -7   -3    3    -32.40      0.00
   -7   -3    2     -9.58      0.00
   -7   -3    1     25.50      0.00
    7    3    0     16.09      0.00
    7    3    1     -7.99      0.00
    7    3    2     -2.54      0.00
    7    3    3      5.78      0.00
    7    3    4     -4.75      0.00
    7    3    5     -2.03      0.00
    7    3    6     16.41      0.00
    7    3    7      8.12      0.00
    7    3    8    -13.17      0.00
    7    3    9     -5.28      0.00
    7    3   10     10.60      0.00
    7    3   11      2.35      0.00
    7    3   12     -9.70      0.00
    7    3   13     -5.42      0.00
    7    3   14     -1.31      0.00
    7    3   15     -3.11      0.00
   -7   -4   12      8.71      0.00
   -7   -4   11      5.05      0.00
   -7   -4   10     -7.19      0.00
   -7   -4    9     -4.48      0.00
   -7   -4    8      3.65      0.00
   -7   -4    7      0.27      0.00
   -7   -4    6     -0.97      0.00
   -7   -4    5      1.23      0.00
   -7   -4    4    -11.53      0.00
   -7   -4    3    -22.60      0.00
   -7   -4    2      1.88      0.00
   -7   -4    1     33.38      0.00
    7    4    0     21.53      0.00
    7    4    1     -5.72      0.00
    7    4    2     -4.02      0.00
    7    4    3      5.27      0.00
    7    4    4     -2.69      0.00
    7    4    5     -6.49      0.00
    7    4    6      3.40      0.00
    7    4    7     -0.36      0.00
    7    4    8    -13.10      0.00
    7    4    9     -5.91      0.00
    7    4   10      7.32      0.00
    7    4   11      4.02      0.00
    7    4   12     -2.77      0.00
    7    4   13     -0.74      0.00
    7    4   14      0.10      0.00
   -7   -5   12      4.20      0.00
   -7   -5   11      3.30      0.00
   -7   -5   10     -4.66      0.00
   -7   -5    9     -5.22      0.00
   -7   -5    8      0.30      0.00
   -7   -5    7     -0.83      0.00
   -7   -5    6     -1.73      0.00
   -7   -5    5      0.57      0.00
   -7   -5    4     -2.81      0.00
   -7   -5    3     -4.48      0.00
   -7   -5    2      8.82      0.00
   -7   -5    1     26.83      0.00
    7    5    0     23.09      0.00
    7    5    1      0.94      0.00
    7    5    2     -9.70      0.00
    7    5    3     -3.81      0.00
    7    5    4     -0.55      0.00
    7    5    5     -6.29      0.00
    7    5    6    -10.03      0.00
    7    5    7     -8.92      0.00
    7    5    8     -6.41      0.00
    7    5    9     -0.53      0.00
    7    5   10      5.34      0.00
    7    5   11      6.34      0.00
    7    5   12      3.80      0.00
    7    5   13      1.01      0.00
    7    5   14     -0.22      0.00
   -7   -6   12      0.86      0.00
   -7   -6   11      4.42      0.00
   -7   -6   10     -1.43      0.00
   -7   -6    9     -8.18      0.00
   -7   -6    8     -3.98      0.00
   -7   -6    7      2.25      0.00
   -7   -6    6      1.27      0.00
   -7   -6    5     -1.55      0.00
   -7   -6    4      1.66      0.00
   -7   -6    3      6.88      0.00
   -7   -6    2      7.73      0.00
   -7   -6    1     15.12      0.00
    7    6    0     22.61      0.00
    7    6    1      5.02      0.00
    7    6    2    -19.75      0.00
    7    6    3    -15.91      0.00
    7    6    4      1.85      0.00
    7    6    5     -2.54      0.00
    7    6    6    -17.54      0.00
    7    6    7    -11.22      0.00
    7    6    8      4.78      0.00
    7    6    9      6.59      0.00
    7    6   10      3.75      0.00
    7    6   11      6.99      0.00
    7    6   12      5.38      0.00
    7    6   13     -1.00      0.00
    7    6   14     -0.53      0.00
   -7   -7   11      4.92      0.00
   -7   -7   10     -0.65      0.00
   -7   -7    9    -10.20      0.00
   -7   -7    8     -5.94      0.00
   -7   -7    7      6.60      0.00
   -7   -7    6      4.07      0.00
   -7   -7    5     -7.02      0.00
   -7   -7    4     -1.26      0.00
   -7   -7    3     10.27      0.00
   -7   -7    2      5.39      0.00
   -7   -7    1      4.49      0.00
    7    7    0     14.78      0.00
    7    7    1      1.15      0.00
    7    7    2    -26.37      0.00
    7    7    3    -20.76      0.00
    7    7    4      4.78      0.00
    7    7    5      2.33      0.00
    7    7    6    -15.76      0.00
    7    7    7     -6.85      0.00
    7    7    8     12.56      0.00
    7    7    9      9.50      0.00
    7    7   10      1.58      0.00
    7    7   11      4.55      0.00
    7    7   12      2.68      0.00
    7    7   13     -2.79      0.00
   -7   -8   11      2.34      0.00
   -7   -8   10     -1.35      0.00
   -7   -8    9     -7.82      0.00
   -7   -8    8     -2.81      0.00
   -7   -8    7     10.66      0.00
   -7   -8    6      5.52      0.00
   -7   -8    5    -10.54      0.00
   -7   -8    4     -4.23      0.00
   -7   -8    3      9.43      0.00
   -7   -8    2      2.70      0.00
   -7   -8    1     -4.45      0.00
    7    8    0      1.95      0.00
    7    8    1     -3.68      0.00
    7    8    2    -20.54      0.00
    7    8    3    -15.71      0.00
    7    8    4      4.74      0.00
    7    8    5      5.91      0.00
    7    8    6     -6.39      0.00
    7    8    7     -1.69      0.00
    7    8    8     10.54      0.00
    7    8    9      7.64      0.00
    7    8   10      1.00      0.00
    7    8   11      1.02      0.00
    7    8   12     -0.73      0.00
    7    8   13     -2.62      0.00
   -7   -9   10      0.40      0.00
   -7   -9    9     -0.39      0.00
   -7   -9    8      2.36      0.00
   -7   -9    7      9.32      0.00
   -7   -9    6      5.41      0.00
   -7   -9    5     -6.46      0.00
   -7   -9    4     -4.80      0.00
   -7   -9    3      2.63      0.00
   -7   -9    2     -0.05      0.00
   -7   -9    1     -5.60      0.00
    7    9    0     -5.29      0.00
    7    9    1     -3.96      0.00
    7    9    2     -7.87      0.00
    7    9    3     -8.58      0.00
    7    9    4      1.77      0.00
    7    9    5     10.00      0.00
    7    9    6      5.15      0.00
    7    9    7     -1.04      0.00
    7    9    8      1.82      0.00
    7    9    9      6.47      0.00
    7    9   10      4.42      0.00
    7    9   11     -1.38      0.00
    7    9   12     -3.61      0.00
   -7  -10    9      3.72      0.00
   -7  -10    8      2.09      0.00
   -7  -10    7      3.12      0.00
   -7  -10    6      6.13      0.00
   -7  -10    5      0.44      0.00
   -7  -10    4     -9.16      0.00
   -7  -10    3     -8.09      0.00
   -7  -10    2      2.35      0.00
   -7  -10    1      3.43      0.00
    7   10    0     -5.95      0.00
    7   10    1     -5.14      0.00
    7   10    2      0.56      0.00
    7   10    3     -1.75      0.00
    7   10    4      2.49      0.00
    7   10    5     13.73      0.00
    7   10    6      9.97      0.00
    7   10    7     -4.62      0.00
    7   10    8     -4.03      0.00
    7   10    9      9.20      0.00
    7   10   10      8.73      0.00
    7   10   11     -3.46      0.00
    7   10   12     -6.08      0.00
   -7  -11    8      0.07      0.00
   -7  -11    7     -0.05      0.00
   -7  -11    6      5.03      0.00
   -7  -11    5     -0.52      0.00
   -7  -11    4    -16.19      0.00
   -7  -11    3    -12.32      0.00
   -7  -11    2     10.02      0.00
   -7  -11    1     12.69      0.00
    7   11    0     -6.31      0.00
    7   11    1     -8.21      0.00
    7   11    2      5.52      0.00
    7   11    3      6.81      0.00
    7   11    4      4.84      0.00
    7   11    5      9.27      0.00
    7   11    6      4.64      0.00
    7   11    7     -6.11      0.00
    7   11    8     -2.02      0.00
    7   11    9     10.95      0.00
    7   11   10      7.57      0.00
    7   11   11     -5.75      0.00
   -7  -12    7     -0.94      0.00
   -7  -12    6     -1.29      0.00
   -7  -12    5     -6.16      0.00
   -7  -12    4    -14.47      0.00
   -7  -12    3     -5.51      0.00
   -7  -12    2     14.10      0.00
   -7  -12    1     12.96      0.00
    7   12    0     -5.43      0.00
    7   12    1     -6.32      0.00
    7   12    2      8.90      0.00
    7   12    3     10.07      0.00
    7   12    4      0.86      0.00
    7   12    5     -1.79      0.00
    7   12    6     -1.86      0.00
    7   12    7     -2.04      0.00
    7   12    8      2.16      0.00
    7   12    9      6.20      0.00
    7   12   10      1.54      0.00
   -7  -13    6     -5.46      0.00
   -7  -13    5     -5.21      0.00
   -7  -13    4     -3.25      0.00
   -7  -13    3      2.75      0.00
   -7  -13    2      8.85      0.00
   -7  -13    1      7.23      0.00
    7   13    0      0.08      0.00
    7   13    1     -1.22      0.00
    7   13    2      5.11      0.00
    7   13    3      4.36      0.00
    7   13    4     -4.41      0.00
    7   13    5     -7.33      0.00
    7   13    6     -2.73      0.00
    7   13    7      1.98      0.00
    7   13    8      1.95      0.00
   -7  -14    4      4.84      0.00
   -7  -14    3      3.81      0.00
   -7  -14    2      0.55      0.00
   -7  -14    1      3.22      0.00
    7   14    0      5.60      0.00
    7   14    1     -0.51      0.00
    7   14    2     -3.60      0.00
    7   14    3     -0.84      0.00
    7   14    4     -2.76      0.00
    7   14    5     -5.19      0.00
    7   14    6     -1.78      0.00
   -7  -15    1      2.08      0.00
    7   15    0      5.50      0.00
    7   15    1     -2.67      0.00
    7   15    2     -7.32      0.00
    7   15    3     -0.54      0.00
    7   15    4      1.51      0.00
    7   15    5     -2.03      0.00
   -8   11    1      0.85      0.00
   -8   11    0     -4.45      0.00
    8  -11    1     -6.81      0.00
   -8   10    4      3.25      0.00
   -8   10    3      0.96      0.00
   -8   10    2     -2.25      0.00
   -8   10    1     -2.80      0.00
   -8   10    0     -5.30      0.00
    8  -10    1     -6.58      0.00
    8  -10    2     -0.55      0.00
    8  -10    3      1.79      0.00
    8  -10    4     -4.69      0.00
    8  -10    5     -5.89      0.00
   -8    9    5      2.75      0.00
   -8    9    4      4.65      0.00
   -8    9    3     -0.23      0.00
   -8    9    2     -5.42      0.00
   -8    9    1     -4.16      0.00
   -8    9    0     -1.14      0.00
    8   -9    1     -2.17      0.00
    8   -9    2     -2.59      0.00
    8   -9    3     -2.15      0.00
    8   -9    4     -4.27      0.00
    8   -9    5     -3.25      0.00
    8   -9    6      4.27      0.00
    8   -9    7     10.45      0.00
   -8    8    7     -0.60      0.00
   -8    8    6      0.50      0.00
   -8    8    5      1.15      0.00
   -8    8    4      2.51      0.00
   -8    8    3      1.36      0.00
   -8    8    2     -3.88      0.00
   -8    8    1     -4.11      0.00
   -8    8    0      3.33      0.00
    8   -8    1      2.86      0.00
    8   -8    2     -5.01      0.00
    8   -8    3     -4.13      0.00
    8   -8    4      1.81      0.00
    8   -8    5      1.81      0.00
    8   -8    6      1.53      0.00
    8   -8    7      7.32      0.00
    8   -8    8      8.13      0.00
   -8    7    8     -3.20      0.00
   -8    7    7      0.34      0.00
   -8    7    6      0.15      0.00
   -8    7    5     -3.32      0.00
   -8    7    4      1.32      0.00
   -8    7    3      6.70      0.00
   -8    7    2     -0.97      0.00
   -8    7    1     -6.84      0.00
   -8    7    0      3.40      0.00
    8   -7    1      7.63      0.00
    8   -7    2     -1.82      0.00
    8   -7    3     -1.52      0.00
    8   -7    4      6.24      0.00
    8   -7    5      2.58      0.00
    8   -7    6     -3.16      0.00
    8   -7    7      3.33      0.00
    8   -7    8      7.63      0.00
    8   -7    9     -2.21      0.00
   -8    6    9     -1.62      0.00
   -8    6    8     -5.54      0.00
   -8    6    7     -2.20      0.00
   -8    6    6     -1.54      0.00
   -8    6    5     -3.01      0.00
   -8    6    4      4.30      0.00
   -8    6    3      9.69      0.00
   -8    6    2     -1.46      0.00
   -8    6    1    -10.72      0.00
   -8    6    0      1.54      0.00
    8   -6    1     13.52      0.00
    8   -6    2      6.77      0.00
    8   -6    3     -0.34      0.00
    8   -6    4      1.13      0.00
    8   -6    5     -0.33      0.00
    8   -6    6     -2.36      0.00
    8   -6    7      2.45      0.00
    8   -6    8      3.45      0.00
    8   -6    9     -7.02      0.00
    8   -6   10    -13.92      0.00
   -8    5   10      0.79      0.00
   -8    5    9     -3.84      0.00
   -8    5    8     -7.22      0.00
   -8    5    7     -3.23      0.00
   -8    5    6      1.44      0.00
   -8    5    5      3.62      0.00
   -8    5    4      6.23      0.00
   -8    5    3      5.28      0.00
   -8    5    2     -2.96      0.00
   -8    5    1     -8.52      0.00
   -8    5    0      1.54      0.00
    8   -5    1     15.59      0.00
    8   -5    2     11.35      0.00
    8   -5    3     -4.37      0.00
    8   -5    4     -9.12      0.00
    8   -5    5     -1.47      0.00
    8   -5    6      4.39      0.00
    8   -5    7      1.79      0.00
    8   -5    8     -5.43      0.00
    8   -5    9    -11.79      0.00
    8   -5   10    -12.50      0.00
    8   -5   11     -4.28      0.00
   -8    4   10     -2.14      0.00
   -8    4    9     -2.67      0.00
   -8    4    8     -2.86      0.00
   -8    4    7     -0.33      0.00
   -8    4    6      5.22      0.00
   -8    4    5      8.24      0.00
   -8    4    4      3.95      0.00
   -8    4    3     -0.70      0.00
   -8    4    2      0.87      0.00
   -8    4    1      0.05      0.00
   -8    4    0     -1.17      0.00
    8   -4    1      7.11      0.00
    8   -4    2      9.31      0.00
    8   -4    3     -6.52      0.00
    8   -4    4    -15.80      0.00
    8   -4    5     -2.02      0.00
    8   -4    6      9.50      0.00
    8   -4    7     -0.08      0.00
    8   -4    8    -11.06      0.00
    8   -4    9     -8.82      0.00
    8   -4   10     -4.86      0.00
    8   -4   11     -2.43      0.00
    8   -4   12      4.78      0.00
   -8    3   10     -1.52      0.00
   -8    3    9      4.31      0.00
   -8    3    8      3.88      0.00
   -8    3    7     -0.63      0.00
   -8    3    6      3.41      0.00
   -8    3    5      9.45      0.00
   -8    3    4      4.49      0.00
   -8    3    3     -0.26      0.00
   -8    3    2      6.21      0.00
   -8    3    1      3.49      0.00
   -8    3    0    -10.01      0.00
    8   -3    1     -4.81      0.00
    8   -3    2      8.45      0.00
    8   -3    3     -2.69      0.00
    8   -3    4    -18.39      0.00
    8   -3    5     -5.78      0.00
    8   -3    6     10.97      0.00
    8   -3    7      3.31      0.00
    8   -3    8     -6.25      0.00
    8   -3    9     -1.63      0.00
    8   -3   10     -0.16      0.00
    8   -3   11     -2.87      0.00
    8   -3   12      3.43      0.00
    8   -3   13      9.06      0.00
   -8    2   10      2.07      0.00
   -8    2    9      9.49      0.00
   -8    2    8      5.85      0.00
   -8    2    7     -4.36      0.00
   -8    2    6     -0.02      0.00
   -8    2    5     11.22      0.00
   -8    2    4      9.58      0.00
   -8    2    3      1.95      0.00
   -8    2    2      2.18      0.00
   -8    2    1     -3.03      0.00
   -8    2    0    -15.17      0.00
    8   -2    1     -7.76      0.00
    8   -2    2      8.78      0.00
    8   -2    3      0.19      0.00
    8   -2    4    -18.07      0.00
    8   -2    5     -8.83      0.00
    8   -2    6     13.18      0.00
    8   -2    7     13.87      0.00
    8   -2    8      2.89      0.00
    8   -2    9     -0.51      0.00
    8   -2   10     -0.84      0.00
    8   -2   11     -0.39      0.00
    8   -2   12      4.53      0.00
    8   -2   13      6.34      0.00
   -8    1   10      3.62      0.00
   -8    1    9      8.99      0.00
   -8    1    8      4.71      0.00
   -8    1    7     -6.66      0.00
   -8    1    6     -3.08      0.00
   -8    1    5     10.25      0.00
   -8    1    4     11.83      0.00
   -8    1    3      0.30      0.00
   -8    1    2     -8.56      0.00
   -8    1    1    -10.04      0.00
   -8    1    0     -9.78      0.00
    8   -1    1     -4.12      0.00
    8   -1    2      2.90      0.00
    8   -1    3     -1.58      0.00
    8   -1    4    -11.72      0.00
    8   -1    5     -6.31      0.00
    8   -1    6     14.69      0.00
    8   -1    7     22.42      0.00
    8   -1    8      7.82      0.00
    8   -1    9     -4.89      0.00
    8   -1   10     -1.78      0.00
    8   -1   11      5.15      0.00
    8   -1   12      4.75      0.00
    8   -1   13      0.16      0.00
    8   -1   14     -3.58      0.00
   -8    0   11      1.91      0.00
   -8    0   10      3.90      0.00
   -8    0    9      5.31      0.00
   -8    0    8      1.05      0.00
   -8    0    7     -8.57      0.00
   -8    0    6     -6.43      0.00
   -8    0    5      6.06      0.00
   -8    0    4     11.25      0.00
   -8    0    3     -0.19      0.00
   -8    0    2    -15.79      0.00
   -8    0    1    -13.21      0.00
    8    0    0     -1.19      0.00
    8    0    1     -1.25      0.00
    8    0    2     -6.42      0.00
    8    0    3     -2.94      0.00
    8    0    4      0.05      0.00
    8    0    5     -0.89      0.00
    8    0    6     10.70      0.00
    8    0    7     22.05      0.00
    8    0    8      8.71      0.00
    8    0    9     -8.56      0.00
    8    0   10     -3.90      0.00
    8    0   11      6.52      0.00
    8    0   12      2.81      0.00
    8    0   13     -4.52      0.00
    8    0   14     -4.60      0.00
   -8   -1   11      2.27      0.00
   -8   -1   10      3.66      0.00
   -8   -1    9     -1.32      0.00
   -8   -1    8     -4.03      0.00
   -8   -1    7     -7.22      0.00
   -8   -1    6     -6.16      0.00
   -8   -1    5      3.36      0.00
   -8   -1    4     11.60      0.00
   -8   -1    3      1.95      0.00
   -8   -1    2    -18.69      0.00
   -8   -1    1    -14.82      0.00
    8    1    0      5.31      0.00
    8    1    1      2.40      0.00
    8    1    2     -9.65      0.00
    8    1    3     -0.49      0.00
    8    1    4     10.31      0.00
    8    1    5      2.95      0.00
    8    1    6      3.16      0.00
    8    1    7     14.75      0.00
    8    1    8      6.96      0.00
    8    1    9    -10.77      0.00
    8    1   10     -8.94      0.00
    8    1   11      2.73      0.00
    8    1   12      2.07      0.00
    8    1   13     -3.70      0.00
    8    1   14     -2.43      0.00
   -8   -2   11      2.41      0.00
   -8   -2   10      1.75      0.00
   -8   -2    9     -5.67      0.00
   -8   -2    8     -3.98      0.00
   -8   -2    7     -2.11      0.00
   -8   -2    6     -4.69      0.00
   -8   -2    5      1.28      0.00
   -8   -2    4     10.79      0.00
   -8   -2    3      3.21      0.00
   -8   -2    2    -16.40      0.00
   -8   -2    1    -12.26      0.00
    8    2    0      9.32      0.00
    8    2    1      7.99      0.00
    8    2    2     -4.24      0.00
    8    2    3      2.43      0.00
    8    2    4     11.95      0.00
    8    2    5      4.22      0.00
    8    2    6     -1.78      0.00
    8    2    7      4.86      0.00
    8    2    8      1.71      0.00
    8    2    9    -11.44      0.00
    8    2   10    -11.93      0.00
    8    2   11     -1.13      0.00
    8    2   12      3.48      0.00
    8    2   13      1.11      0.00
    8    2   14      0.62      0.00
   -8   -3   11      0.52      0.00
   -8   -3   10      1.77      0.00
   -8   -3    9     -2.93      0.00
   -8   -3    8     -2.26      0.00
   -8   -3    7     -1.69      0.00
   -8   -3    6     -5.45      0.00
   -8   -3    5     -0.22      0.00
   -8   -3    4      8.75      0.00
   -8   -3    3      5.83      0.00
   -8   -3    2     -6.36      0.00
   -8   -3    1     -7.27      0.00
    8    3    0      6.85      0.00
    8    3    1     12.36      0.00
    8    3    2      4.53      0.00
    8    3    3     -0.22      0.00
    8    3    4      3.31      0.00
    8    3    5      4.81      0.00
    8    3    6     -0.90      0.00
    8    3    7     -4.46      0.00
    8    3    8     -5.32      0.00
    8    3    9     -8.92      0.00
    8    3   10     -9.63      0.00
    8    3   11     -2.55      0.00
    8    3   12      5.52      0.00
    8    3   13      6.07      0.00
    8    3   14      2.30      0.00
   -8   -4   11     -1.00      0.00
   -8   -4   10      4.47      0.00
   -8   -4    9      0.73      0.00
   -8   -4    8     -4.70      0.00
   -8   -4    7     -4.63      0.00
   -8   -4    6     -3.72      0.00
   -8   -4    5      1.34      0.00
   -8   -4    4      7.44      0.00
   -8   -4    3      9.03      0.00
   -8   -4    2      3.21      0.00
   -8   -4    1     -6.33      0.00
    8    4    0     -1.05      0.00
    8    4    1     13.41      0.00
    8    4    2      9.21      0.00
    8    4    3     -8.68      0.00
    8    4    4     -8.43      0.00
    8    4    5      6.80      0.00
    8    4    6      3.84      0.00
    8    4    7    -10.58      0.00
    8    4    8    -10.18      0.00
    8    4    9     -3.83      0.00
    8    4   10     -4.36      0.00
    8    4   11     -1.58      0.00
    8    4   12      7.13      0.00
    8    4   13      7.46      0.00
    8    4   14      0.71      0.00
   -8   -5   10      5.57      0.00
   -8   -5    9      1.80      0.00
   -8   -5    8     -6.11      0.00
   -8   -5    7     -5.19      0.00
   -8   -5    6      0.02      0.00
   -8   -5    5      4.07      0.00
   -8   -5    4      5.17      0.00
   -8   -5    3      6.32      0.00
   -8   -5    2      4.52      0.00
   -8   -5    1     -7.19      0.00
    8    5    0     -7.52      0.00
    8    5    1      9.24      0.00
    8    5    2      7.34      0.00
    8    5    3    -14.42      0.00
    8    5    4    -13.87      0.00
    8    5    5      8.56      0.00
    8    5    6      8.20      0.00
    8    5    7    -10.57      0.00
    8    5    8     -9.66      0.00
    8    5    9      1.35      0.00
    8    5   10      0.70      0.00
    8    5   11      0.56      0.00
    8    5   12      6.59      0.00
    8    5   13      4.15      0.00
   -8   -6   10      4.06      0.00
   -8   -6    9      2.35      0.00
   -8   -6    8     -5.28      0.00
   -8   -6    7     -5.91      0.00
   -8   -6    6      2.54      0.00
   -8   -6    5      6.98      0.00
   -8   -6    4      2.24      0.00
   -8   -6    3     -0.64      0.00
   -8   -6    2      0.91      0.00
   -8   -6    1     -6.02      0.00
    8    6    0    -10.28      0.00
    8    6    1      1.08      0.00
    8    6    2      3.27      0.00
    8    6    3    -11.42      0.00
    8    6    4    -11.50      0.00
    8    6    5      7.44      0.00
    8    6    6     10.98      0.00
    8    6    7     -3.04      0.00
    8    6    8     -4.73      0.00
    8    6    9      2.74      0.00
    8    6   10      2.66      0.00
    8    6   11      1.83      0.00
    8    6   12      3.40      0.00
    8    6   13     -0.35      0.00
   -8   -7   10      1.60      0.00
   -8   -7    9      1.91      0.00
   -8   -7    8     -4.32      0.00
   -8   -7    7     -5.39      0.00
   -8   -7    6      5.23      0.00
   -8   -7    5     10.50      0.00
   -8   -7    4      2.97      0.00
   -8   -7    3     -4.83      0.00
   -8   -7    2     -4.61      0.00
   -8   -7    1     -4.59      0.00
    8    7    0     -8.23      0.00
    8    7    1     -5.15      0.00
    8    7    2      0.10      0.00
    8    7    3     -3.38      0.00
    8    7    4     -5.23      0.00
    8    7    5      5.07      0.00
    8    7    6     13.44      0.00
    8    7    7      7.28      0.00
    8    7    8     -1.59      0.00
    8    7    9     -2.30      0.00
    8    7   10      1.10      0.00
    8    7   11      2.53      0.00
    8    7   12      0.39      0.00
   -8   -8    9      1.64      0.00
   -8   -8    8     -1.59      0.00
   -8   -8    7     -2.82      0.00
   -8   -8    6      5.49      0.00
   -8   -8    5     13.25      0.00
   -8   -8    4      7.93      0.00
   -8   -8    3     -7.17      0.00
   -8   -8    2    -12.10      0.00
   -8   -8    1     -2.13      0.00
    8    8    0     -0.33      0.00
    8    8    1     -6.98      0.00
    8    8    2     -3.03      0.00
    8    8    3      3.67      0.00
    8    8    4      1.93      0.00
    8    8    5      4.38      0.00
    8    8    6     14.19      0.00
    8    8    7     11.86      0.00
    8    8    8     -3.84      0.00
    8    8    9     -9.33      0.00
    8    8   10     -0.14      0.00
    8    8   11      4.20      0.00
    8    8   12     -0.64      0.00
   -8   -9    8     -0.81      0.00
   -8   -9    7     -2.67      0.00
   -8   -9    6      3.01      0.00
   -8   -9    5     13.89      0.00
   -8   -9    4      9.66      0.00
   -8   -9    3    -11.90      0.00
   -8   -9    2    -17.03      0.00
   -8   -9    1      2.62      0.00
    8    9    0      7.86      0.00
    8    9    1     -6.28      0.00
    8    9    2     -5.14      0.00
    8    9    3      7.46      0.00
    8    9    4      7.50      0.00
    8    9    5      4.47      0.00
    8    9    6     10.23      0.00
    8    9    7      8.08      0.00
    8    9    8     -6.84      0.00
    8    9    9    -10.73      0.00
    8    9   10      0.59      0.00
    8    9   11      4.63      0.00
   -8  -10    7     -2.06      0.00
   -8  -10    6      2.00      0.00
   -8  -10    5      9.04      0.00
   -8  -10    4      3.21      0.00
   -8  -10    3    -14.56      0.00
   -8  -10    2    -14.11      0.00
   -8  -10    1      5.40      0.00
    8   10    0      9.99      0.00
    8   10    1     -2.63      0.00
    8   10    2     -3.31      0.00
    8   10    3      7.50      0.00
    8   10    4      8.28      0.00
    8   10    5      2.62      0.00
    8   10    6      2.84      0.00
    8   10    7      1.62      0.00
    8   10    8     -5.64      0.00
    8   10    9     -6.97      0.00
    8   10   10     -0.57      0.00
   -8  -11    6      0.56      0.00
   -8  -11    5      0.33      0.00
   -8  -11    4     -2.77      0.00
   -8  -11    3     -8.29      0.00
   -8  -11    2     -5.94      0.00
   -8  -11    1      2.65      0.00
    8   11    0      7.31      0.00
    8   11    1      4.59      0.00
    8   11    2      0.93      0.00
    8   11    3      2.52      0.00
    8   11    4      3.53      0.00
    8   11    5      0.18      0.00
    8   11    6     -2.12      0.00
    8   11    7     -2.16      0.00
    8   11    8     -2.91      0.00
    8   11    9     -4.36      0.00
    8   11   10     -4.13      0.00
   -8  -12    5     -2.46      0.00
   -8  -12    4     -0.71      0.00
   -8  -12    3      1.54      0.00
   -8  -12    2     -0.44      0.00
   -8  -12    1     -2.75      0.00
    8   12    0      4.58      0.00
    8   12    1     10.61      0.00
    8   12    2      1.55      0.00
    8   12    3     -5.87      0.00
    8   12    4     -1.31      0.00
    8   12    5      1.33      0.00
    8   12    6     -2.23      0.00
    8   12    7     -3.86      0.00
    8   12    8     -2.55      0.00
   -8  -13    3      4.76      0.00
   -8  -13    2      0.00      0.00
   -8  -13    1     -4.94      0.00
    8   13    0      3.05      0.00
    8   13    1      9.48      0.00
    8   13    2     -2.36      0.00
    8   13    3    -10.29      0.00
    8   13    4     -0.84      0.00
    8   13    5      4.56      0.00
    8   13    6     -1.29      0.00
   -9    8    3      0.69      0.00
   -9    8    2      6.57      0.00
   -9    8    1      3.42      0.00
   -9    8    0     -3.24      0.00
    9   -8    1      0.03      0.00
    9   -8    2      5.71      0.00
    9   -8    3      4.94      0.00
    9   -8    4      4.00      0.00
    9   -8    5      2.82      0.00
   -9    7    4     -2.04      0.00
   -9    7    3      2.13      0.00
   -9    7    2      5.52      0.00
   -9    7    1      2.44      0.00
   -9    7    0     -4.40      0.00
    9   -7    1     -2.52      0.00
    9   -7    2      6.79      0.00
    9   -7    3      8.92      0.00
    9   -7    4      2.95      0.00
    9   -7    5     -2.68      0.00
    9   -7    6     -5.12      0.00
   -9    6    4      0.67      0.00
   -9    6    3      1.24      0.00
   -9    6    2      1.45      0.00
   -9    6    1      2.58      0.00
   -9    6    0     -2.16      0.00
    9   -6    1     -5.30      0.00
    9   -6    2      3.50      0.00
    9   -6    3      9.26      0.00
    9   -6    4      1.13      0.00
    9   -6    5     -7.52      0.00
    9   -6    6     -6.52      0.00
    9   -6    7     -2.04      0.00
   -9    5    7      3.76      0.00
   -9    5    6     -0.64      0.00
   -9    5    5     -1.64      0.00
   -9    5    4      0.69      0.00
   -9    5    3     -0.81      0.00
   -9    5    2     -0.91      0.00
   -9    5    1      4.52      0.00
   -9    5    0      0.57      0.00
    9   -5    1     -9.74      0.00
    9   -5    2     -3.69      0.00
    9   -5    3      8.68      0.00
    9   -5    4      3.49      0.00
    9   -5    5     -9.10      0.00
    9   -5    6     -8.69      0.00
    9   -5    7     -0.76      0.00
    9   -5    8      2.04      0.00
   -9    4    7      6.18      0.00
   -9    4    6     -2.20      0.00
   -9    4    5     -4.47      0.00
   -9    4    4     -0.06      0.00
   -9    4    3      0.82      0.00
   -9    4    2      0.34      0.00
   -9    4    1      3.52      0.00
   -9    4    0     -1.65      0.00
    9   -4    1    -12.99      0.00
    9   -4    2     -6.44      0.00
    9   -4    3     10.69      0.00
    9   -4    4      7.82      0.00
    9   -4    5     -9.37      0.00
    9   -4    6    -12.04      0.00
    9   -4    7     -0.63      0.00
    9   -4    8      6.86      0.00
    9   -4    9      8.25      0.00
   -9    3    7      4.55      0.00
   -9    3    6     -4.35      0.00
   -9    3    5     -5.79      0.00
   -9    3    4      0.67      0.00
   -9    3    3      4.01      0.00
   -9    3    2      0.61      0.00
   -9    3    1     -3.31      0.00
   -9    3    0     -6.23      0.00
    9   -3    1     -8.11      0.00
    9   -3    2     -1.17      0.00
    9   -3    3     10.26      0.00
    9   -3    4      7.66      0.00
    9   -3    5     -7.93      0.00
    9   -3    6    -12.60      0.00
    9   -3    7      0.26      0.00
    9   -3    8     11.91      0.00
    9   -3    9     10.72      0.00
    9   -3   10      2.98      0.00
   -9    2    7      2.92      0.00
   -9    2    6     -3.18      0.00
   -9    2    5     -5.92      0.00
   -9    2    4     -1.93      0.00
   -9    2    3      2.97      0.00
   -9    2    2     -0.44      0.00
   -9    2    1     -8.57      0.00
   -9    2    0     -6.65      0.00
    9   -2    1      1.81      0.00
    9   -2    2      4.14      0.00
    9   -2    3      3.69      0.00
    9   -2    4      4.08      0.00
    9   -2    5     -2.42      0.00
    9   -2    6     -9.29      0.00
    9   -2    7     -0.90      0.00
    9   -2    8     11.90      0.00
    9   -2    9      9.53      0.00
    9   -2   10     -0.45      0.00
    9   -2   11     -2.26      0.00
   -9    1    7      1.78      0.00
   -9    1    6     -2.57      0.00
   -9    1    5     -7.76      0.00
   -9    1    4     -6.84      0.00
   -9    1    3      1.51      0.00
   -9    1    2      2.99      0.00
   -9    1    1     -7.18      0.00
   -9    1    0     -5.77      0.00
    9   -1    1      6.56      0.00
    9   -1    2      5.70      0.00
    9   -1    3     -1.41      0.00
    9   -1    4      2.61      0.00
    9   -1    5      3.66      0.00
    9   -1    6     -6.84      0.00
    9   -1    7     -6.00      0.00
    9   -1    8      7.58      0.00
    9   -1    9      8.85      0.00
    9   -1   10     -1.11      0.00
    9   -1   11     -4.04      0.00
   -9    0    8     -1.80      0.00
   -9    0    7     -0.81      0.00
   -9    0    6     -2.06      0.00
   -9    0    5     -6.68      0.00
   -9    0    4     -6.80      0.00
   -9    0    3      3.83      0.00
   -9    0    2      8.19      0.00
   -9    0    1     -4.74      0.00
    9    0    0     -7.56      0.00
    9    0    1      5.73      0.00
    9    0    2      8.40      0.00
    9    0    3      1.69      0.00
    9    0    4      3.16      0.00
    9    0    5      3.79      0.00
    9    0    6     -7.14      0.00
    9    0    7     -9.56      0.00
    9    0    8      3.62      0.00
    9    0    9      7.76      0.00
    9    0   10     -2.20      0.00
    9    0   11     -7.67      0.00
    9    0   12     -3.83      0.00
   -9   -1    9     -0.63      0.00
   -9   -1    8     -2.43      0.00
   -9   -1    7     -0.79      0.00
   -9   -1    6      1.59      0.00
   -9   -1    5     -2.23      0.00
   -9   -1    4     -3.77      0.00
   -9   -1    3      4.86      0.00
   -9   -1    2      8.81      0.00
   -9   -1    1     -3.08      0.00
    9    1    0     -8.37      0.00
    9    1    1      3.60      0.00
    9    1    2     12.87      0.00
    9    1    3      9.40      0.00
    9    1    4      1.23      0.00
    9    1    5     -3.60      0.00
    9    1    6     -7.18      0.00
    9    1    7     -7.02      0.00
    9    1    8      0.51      0.00
    9    1    9      3.43      0.00
    9    1   10     -3.04      0.00
    9    1   11     -7.61      0.00
    9    1   12     -3.93      0.00
   -9   -2    9      1.72      0.00
   -9   -2    8      0.55      0.00
   -9   -2    7      1.03      0.00
   -9   -2    6      3.97      0.00
   -9   -2    5     -0.02      0.00
   -9   -2    4     -2.72      0.00
   -9   -2    3      3.04      0.00
   -9   -2    2      7.14      0.00
   -9   -2    1      0.02      0.00
    9    2    0     -7.41      0.00
    9    2    1      0.42      0.00
    9    2    2     15.22      0.00
    9    2    3     13.58      0.00
    9    2    4     -5.88      0.00
    9    2    5    -14.10      0.00
    9    2    6     -4.98      0.00
    9    2    7     -0.57      0.00
    9    2    8     -1.94      0.00
    9    2    9     -0.90      0.00
    9    2   10     -0.83      0.00
    9    2   11     -3.38      0.00
    9    2   12     -2.67      0.00
   -9   -3    9      3.91      0.00
   -9   -3    7      1.36      0.00
   -9   -3    6      3.17      0.00
   -9   -3    5      0.04      0.00
   -9   -3    4     -1.23      0.00
   -9   -3    3      2.36      0.00
   -9   -3    2      4.32      0.00
   -9   -3    1      0.95      0.00
    9    3    0     -6.01      0.00
    9    3    1     -1.93      0.00
    9    3    2     12.64      0.00
    9    3    3     10.04      0.00
    9    3    4    -13.21      0.00
    9    3    5    -19.53      0.00
    9    3    6     -1.48      0.00
    9    3    7      5.52      0.00
    9    3    8     -1.63      0.00
    9    3    9     -1.77      0.00
    9    3   10      2.02      0.00
    9    3   11      0.12      0.00
    9    3   12     -1.55      0.00
   -9   -4    8      4.47      0.00
   -9   -4    7      1.78      0.00
   -9   -4    6      0.87      0.00
   -9   -4    5      0.54      0.00
   -9   -4    4      2.71      0.00
   -9   -4    3      1.92      0.00
   -9   -4    2     -2.19      0.00
   -9   -4    1     -1.55      0.00
    9    4    0     -2.42      0.00
    9    4    1     -1.96      0.00
    9    4    2      5.79      0.00
    9    4    3      4.40      0.00
    9    4    4    -11.45      0.00
    9    4    5    -16.07      0.00
    9    4    6     -0.29      0.00
    9    4    7      8.34      0.00
    9    4    8      2.23      0.00
    9    4    9      0.10      0.00
    9    4   10      2.52      0.00
    9    4   11      1.22      0.00
    9    4   12     -0.41      0.00
   -9   -5    8      5.32      0.00
   -9   -5    7      0.49      0.00
   -9   -5    6     -2.18      0.00
   -9   -5    5      2.57      0.00
   -9   -5    4      6.33      0.00
   -9   -5    3      0.39      0.00
   -9   -5    2     -7.86      0.00
   -9   -5    1     -4.30      0.00
    9    5    0      1.10      0.00
    9    5    1     -0.12      0.00
    9    5    2      1.24      0.00
    9    5    3      3.39      0.00
    9    5    4     -2.61      0.00
    9    5    5     -9.80      0.00
    9    5    6     -3.27      0.00
    9    5    7      8.40      0.00
    9    5    8      8.57      0.00
    9    5    9      2.93      0.00
    9    5   10      0.61      0.00
    9    5   11      0.71      0.00
    9    5   12      0.60      0.00
   -9   -6    8      2.91      0.00
   -9   -6    7     -1.74      0.00
   -9   -6    6     -1.86      0.00
   -9   -6    5      4.67      0.00
   -9   -6    4      6.75      0.00
   -9   -6    3      1.45      0.00
   -9   -6    2     -7.53      0.00
   -9   -6    1     -7.76      0.00
    9    6    0      1.72      0.00
    9    6    1      5.16      0.00
    9    6    2      2.01      0.00
    9    6    3      2.71      0.00
    9    6    4      2.56      0.00
    9    6    5     -5.61      0.00
    9    6    6     -5.82      0.00
    9    6    7      8.48      0.00
    9    6    8     13.81      0.00
    9    6    9      3.61      0.00
    9    6   10     -3.50      0.00
    9    6   11     -0.83      0.00
   -9   -7    7      0.05      0.00
   -9   -7    6      0.38      0.00
   -9   -7    5      2.25      0.00
   -9   -7    4      5.18      0.00
   -9   -7    3      5.86      0.00
   -9   -7    2     -4.91      0.00
   -9   -7    1    -11.76      0.00
    9    7    0      1.68      0.00
    9    7    1     11.06      0.00
    9    7    2      2.92      0.00
    9    7    3     -1.04      0.00
    9    7    4      2.75      0.00
    9    7    5     -1.99      0.00
    9    7    6     -4.68      0.00
    9    7    7      7.65      0.00
    9    7    8     12.75      0.00
    9    7    9      0.42      0.00
    9    7   10     -7.03      0.00
    9    7   11     -1.45      0.00
   -9   -8    6     -1.18      0.00
   -9   -8    5     -2.54      0.00
   -9   -8    4      3.99      0.00
   -9   -8    3      7.32      0.00
   -9   -8    2     -4.76      0.00
   -9   -8    1    -12.86      0.00
    9    8    0      0.92      0.00
    9    8    1     11.80      0.00
    9    8    2      3.88      0.00
    9    8    3     -1.73      0.00
    9    8    4      1.57      0.00
    9    8    5     -0.76      0.00
    9    8    6     -3.41      0.00
    9    8    7      3.88      0.00
    9    8    8      6.29      0.00
    9    8    9     -2.46      0.00
    9    8   10     -5.95      0.00
   -9   -9    5     -3.95      0.00
   -9   -9    4      1.17      0.00
   -9   -9    3      2.68      0.00
   -9   -9    2     -4.83      0.00
   -9   -9    1     -9.81      0.00
    9    9    0     -1.68      0.00
    9    9    1      9.37      0.00
    9    9    2      8.69      0.00
    9    9    3      1.27      0.00
    9    9    4     -2.86      0.00
    9    9    5     -4.15      0.00
    9    9    6     -3.14      0.00
    9    9    7      0.44      0.00
    9    9    8      0.96      0.00
    9    9    9     -1.78      0.00
   -9  -10    4     -2.69      0.00
   -9  -10    3     -1.42      0.00
   -9  -10    2     -1.35      0.00
   -9  -10    1     -4.24      0.00
    9   10    0     -3.35      0.00
    9   10    1      7.59      0.00
    9   10    2     12.72      0.00
    9   10    3      1.55      0.00
    9   10    4     -9.22      0.00
    9   10    5     -6.99      0.00
    9   10    6     -0.68      0.00
    9   10    7      0.21      0.00
    9   10    8     -1.29      0.00
   -9  -11    3     -0.69      0.00
   -9  -11    2      3.08      0.00
   -9  -11    1      0.66      0.00
    9   11    0     -2.81      0.00
    9   11    1      4.98      0.00
    9   11    2     10.13      0.00
    9   11    3     -1.23      0.00
    9   11    4    -11.03      0.00
    9   11    5     -4.93      0.00
    9   11    6      2.75      0.00
    9   11    7      0.59      0.00
    9   12    0     -1.50      0.00
    9   12    1      1.02      0.00
    9   12    2      3.45      0.00
    9   12    3     -2.58      0.00
    9   12    4     -6.87      0.00
  -10    5    0     -1.45      0.00
   10   -5    1     -0.31      0.00
   10   -5    2     -5.61      0.00
   10   -5    3     -6.87      0.00
   10   -5    4      1.07      0.00
   10   -5    5      5.14      0.00
  -10    4    1     -1.45      0.00
  -10    4    0     -2.29      0.00
   10   -4    1     -0.67      0.00
   10   -4    2     -1.22      0.00
   10   -4    3     -3.33      0.00
   10   -4    4      0.36      0.00
   10   -4    5      5.41      0.00
   10   -4    6      4.14      0.00
  -10    3    1      2.99      0.00
  -10    3    0     -0.41      0.00
   10   -3    1     -0.61      0.00
   10   -3    2      1.95      0.00
   10   -3    3     -1.10      0.00
   10   -3    4     -1.88      0.00
   10   -3    5      4.86      0.00
   10   -3    6      7.26      0.00
  -10    2    3     -6.19      0.00
  -10    2    2      2.14      0.00
  -10    2    1      8.82      0.00
  -10    2    0      1.57      0.00
   10   -2    1     -3.57      0.00
   10   -2    2     -0.13      0.00
   10   -2    3      0.23      0.00
   10   -2    4     -0.54      0.00
   10   -2    5      5.21      0.00
   10   -2    6      7.82      0.00
   10   -2    7     -0.32      0.00
  -10    1    3     -2.62      0.00
  -10    1    2      6.06      0.00
  -10    1    1      9.87      0.00
  -10    1    0     -0.13      0.00
   10   -1    1     -7.48      0.00
   10   -1    2     -3.36      0.00
   10   -1    3      3.01      0.00
   10   -1    4      4.74      0.00
   10   -1    5      4.57      0.00
   10   -1    6      3.36      0.00
  -10    0    4      0.02      0.00
  -10    0    3      0.90      0.00
  -10    0    2      5.49      0.00
  -10    0    1      5.01      0.00
   10    0    0     -1.52      0.00
   10    0    1     -7.22      0.00
   10    0    2     -5.61      0.00
   10    0    3      4.08      0.00
   10    0    4      8.63      0.00
   10    0    5      1.51      0.00
   10    0    6     -3.19      0.00
   10    0    7     -2.32      0.00
  -10   -1    4     -2.61      0.00
  -10   -1    3      0.62      0.00
  -10   -1    2      2.19      0.00
  -10   -1    1      1.05      0.00
   10    1    0      0.80      0.00
   10    1    1     -4.91      0.00
   10    1    2     -8.66      0.00
   10    1    3      1.55      0.00
   10    1    4      8.33      0.00
   10    1    5     -1.94      0.00
   10    1    6     -7.25      0.00
   10    1    7     -0.72      0.00
   10    1    8     -0.20      0.00
  -10   -2    4     -6.67      0.00
  -10   -2    3      1.02      0.00
  -10   -2    2      1.30      0.00
  -10   -2    1      0.23      0.00
   10    2    0      3.33      0.00
   10    2    1     -3.47      0.00
   10    2    2    -10.44      0.00
   10    2    3     -1.89      0.00
   10    2    4      5.72      0.00
   10    2    5     -1.75      0.00
   10    2    6     -6.45      0.00
   10    2    7     -0.09      0.00
   10    2    8      1.51      0.00
   10    2    9     -0.98      0.00
  -10   -3    5    -11.44      0.00
  -10   -3    4     -6.87      0.00
  -10   -3    3      3.77      0.00
  -10   -3    2      2.35      0.00
  -10   -3    1      0.59      0.00
   10    3    0      3.76      0.00
   10    3    1     -2.91      0.00
   10    3    2     -9.35      0.00
   10    3    3     -2.87      0.00
   10    3    4      5.78      0.00
   10    3    5      4.53      0.00
   10    3    6     -1.70      0.00
   10    3    7     -1.34      0.00
   10    3    8      1.80      0.00
   10    3    9      2.35      0.00
  -10   -4    5    -12.16      0.00
  -10   -4    4     -4.27      0.00
  -10   -4    3      5.04      0.00
  -10   -4    2      4.48      0.00
  -10   -4    1      2.64      0.00
   10    4    0      0.81      0.00
   10    4    1     -5.07      0.00
   10    4    2     -5.43      0.00
   10    4    3      1.44      0.00
   10    4    4      9.20      0.00
   10    4    5     11.01      0.00
   10    4    6      1.75      0.00
   10    4    7     -4.38      0.00
   10    4    8      0.49      0.00
   10    4    9      4.26      0.00
  -10   -5    4     -3.19      0.00
  -10   -5    3      3.99      0.00
  -10   -5    2      8.39      0.00
  -10   -5    1      4.86      0.00
   10    5    0     -5.49      0.00
   10    5    1     -7.56      0.00
   10    5    2      1.29      0.00
   10    5    3      6.77      0.00
   10    5    4      8.58      0.00
   10    5    5      9.95      0.00
   10    5    6      1.59      0.00
   10    5    7     -6.14      0.00
   10    5    8     -0.49      0.00
   10    5    9      4.75      0.00
  -10   -6    4     -4.58      0.00
  -10   -6    3      3.69      0.00
  -10   -6    2     11.07      0.00
  -10   -6    1      4.46      0.00
   10    6    0     -8.97      0.00
   10    6    1     -6.71      0.00
   10    6    2      4.54      0.00
   10    6    3      6.04      0.00
   10    6    4      3.64      0.00
   10    6    5      5.09      0.00
   10    6    6      1.05      0.00
   10    6    7     -4.51      0.00
   10    6    8     -0.73      0.00
  -10   -7    3      4.24      0.00
  -10   -7    2      8.25      0.00
  -10   -7    1      2.72      0.00
   10    7    0     -6.58      0.00
   10    7    1     -6.47      0.00
   10    7    2      0.81      0.00
   10    7    3      4.33      0.00
   10    7    4      3.15      0.00
   10    7    5      1.86      0.00
   10    7    6     -0.15      0.00
   10    7    7     -2.69      0.00
  -10   -8    2      1.75      0.00
  -10   -8    1      2.11      0.00
   10    8    0     -2.66      0.00
   10    8    1     -8.03      0.00
   10    8    2     -2.08      0.00
   10    8    3      7.49      0.00
   10    8    4      5.50      0.00
   10    8    5     -2.16      0.00
   10    8    6     -3.22      0.00
   10    9    1     -6.84      0.00
   10    9    2     -1.09      0.00
   10    9    3      8.64      0.00
   10    9    4      3.80      0.00
   11    0    1      8.01      0.00
   11    0    2      0.97      0.00
   11    0    3     -7.29      0.00
   11    1    0      5.85      0.00
   11    1    1      8.28      0.00
   11    1    2     -1.19      0.00
   11    1    3     -6.21      0.00
   11    2    1      5.42      0.00
   11    2    2     -1.70      0.00
   11    2    3     -1.38      0.00
   11    3    1      1.10      0.00
   11    3    3      2.77      0.00
   11    4    2     -0.69      0.00
   11    0    0      1.62      0.00
  -11    1    0     -0.74      0.00
    0    1    0    185.25      0.00
  -11    2    0      1.69      0.00
   11    2    0      7.73      0.00
  -11    3    0      4.36      0.00
   11    3    0      7.11      0.00
  -11    4    0      3.53      0.00
   11    4    0      4.55      0.00
   11    5    0      2.51      0.00
  -10    6    0     -0.22      0.00
   11    6    0      2.92      0.00
  -10    7    0      0.09      0.00
   11    7    0      2.82      0.00
  -10    8    0      0.06      0.00
   11    8    0      1.12      0.00
   -9    9    0     -0.93      0.00
   10    9    0      0.51      0.00
   -9   10    0     -0.11      0.00
   10   10    0      2.36      0.00
   10   11    0      1.55      0.00
   -8   12    0     -1.15      0.00
   -7   13    0      6.50      0.00
    9   13    0     -0.38      0.00
   -7   14    0      2.30      0.00
    8   14    0      1.05      0.00
   -6   15    0     -3.29      0.00
    8   15    0     -1.03      0.00
   -5   16    0      0.49      0.00
    7   16    0      2.10      0.00
   -4   17    0      0.59      0.00
   -3   17    0      0.21      0.00
    6   17    0     -2.50      0.00
   -2   18    0     -0.03      0.00
   -1   18    0     -2.54      0.00
    0   18    0      2.93      0.00
    1   18    0     -4.89      0.00
    2   18    0     -2.48      0.00
    3   18    0     -1.54      0.00
    4   18    0      3.06      0.00
    5   18    0     -1.16      0.00
   -5  -18    1     -1.39      0.00
   -4  -18    1      4.66      0.00
   -3  -18    1     -2.90      0.00
   -2  -18    1     -1.36      0.00
   -1  -18    1     -3.93      0.00
    0  -18    1      4.15      0.00
    1  -18    1     -2.08      0.00
    2  -18    1      1.45      0.00
   -6  -17    1      1.86      0.00
   -5  -17    1     -0.33      0.00
    3  -17    1     -1.10      0.00
    4  -17    1      1.60      0.00
   -7  -16    1      0.94      0.00
    5  -16    1     -0.61      0.00
   -8  -15    1     -0.50      0.00
    6  -15    1     -0.74      0.00
   -8  -14    1     -2.82      0.00
    7  -14    1      1.92      0.00
   -9  -13    1      1.91      0.00
    7  -13    1      6.38      0.00
   -9  -12    1      2.47      0.00
    8  -12    1     -3.04      0.00
  -10  -11    1      3.51      0.00
  -10  -10    1      4.78      0.00
    9  -10    1      1.20      0.00
  -10   -9    1      3.42      0.00
    9   -9    1      1.62      0.00
   10   -8    1     -0.83      0.00
  -11   -7    1      0.29      0.00
   10   -7    1     -0.12      0.00
  -11   -6    1      2.30      0.00
   10   -6    1      0.39      0.00
  -11   -5    1      4.88      0.00
  -11   -4    1      5.98      0.00
   11   -4    1      1.20      0.00
  -11   -3    1      4.23      0.00
   11   -3    1      2.06      0.00
  -11   -2    1      0.91      0.00
   11   -2    1      2.06      0.00
  -11   -1    1     -2.66      0.00
   11   -1    1      4.42      0.00
  -11    0    1     -4.41      0.00
    0    0    1    121.76      0.00
  -11    1    1     -1.97      0.00
  -11    2    1      1.84      0.00
  -11    3    1      2.56      0.00
  -11    4    1      1.03      0.00
   11    4    1     -2.49      0.00
  -10    5    1     -3.20      0.00
   11    5    1     -1.23      0.00
  -10    6    1     -3.26      0.00
   11    6    1      2.15      0.00
  -10    7    1     -2.11      0.00
   11    7    1      1.96      0.00
   11    8    1      0.63      0.00
   -9    9    1      2.76      0.00
   -9   10    1      0.40      0.00
   10   10    1     -3.84      0.00
   10   11    1     -1.94      0.00
   -8   12    1      2.07      0.00
   -7   13    1     -1.16      0.00
    9   13    1     -1.80      0.00
    8   14    1      3.23      0.00
   -6   15    1     -2.77      0.00
    8   15    1     -0.88      0.00
   -5   16    1      2.74      0.00
    7   16    1     -2.35      0.00
   -4   17    1     -0.33      0.00
   -3   17    1      1.31      0.00
    6   17    1     -3.39      0.00
   -2   18    1     -0.88      0.00
   -1   18    1      2.57      0.00
    0   18    1     -1.32      0.00
    1   18    1      0.17      0.00
    2   18    1     -2.69      0.00
    3   18    1      2.77      0.00
    4   18    1     -0.91      0.00
    5   18    1     -0.02      0.00
   -4  -18    2      0.11      0.00
   -3  -18    2      1.23      0.00
   -2  -18    2     -2.09      0.00
   -1  -18    2      2.29      0.00
    0  -18    2      1.21      0.00
    1  -18    2      3.33      0.00
    2  -18    2      1.17      0.00
   -6  -17    2      1.19      0.00
   -5  -17    2     -0.80      0.00
    3  -17    2     -0.08      0.00
    4  -17    2      0.99      0.00
   -7  -16    2     -0.78      0.00
   -6  -16    2      2.40      0.00
    5  -16    2      1.11      0.00
   -7  -15    2     -2.31      0.00
    6  -15    2     -1.86      0.00
   -8  -14    2     -0.46      0.00
   -9  -13    2      2.16      0.00
    7  -13    2      1.15      0.00
   -9  -12    2      3.89      0.00
    8  -12    2     -0.03      0.00
    8  -11    2     -0.41      0.00
  -10  -10    2     -0.05      0.00
    9  -10    2      1.18      0.00
  -10   -9    2     -1.65      0.00
    9   -9    2      3.40      0.00
   10   -8    2     -2.36      0.00
  -11   -7    2     -1.00      0.00
   10   -7    2     -4.38      0.00
  -11   -6    2     -0.53      0.00
   10   -6    2     -6.21      0.00
  -11   -5    2     -0.88      0.00
  -11   -4    2     -1.35      0.00
   11   -4    2      0.39      0.00
  -11   -3    2     -1.85      0.00
   11   -3    2     -0.11      0.00
  -11   -2    2     -3.06      0.00
   11   -2    2     -0.06      0.00
  -11   -1    2     -4.16      0.00
   11   -1    2      1.43      0.00
  -11    0    2     -2.39      0.00
  -11    1    2      1.39      0.00
  -11    2    2      2.10      0.00
  -11    3    2     -0.54      0.00
  -10    3    2     -0.83      0.00
   11    3    2     -1.47      0.00
  -10    4    2     -1.19      0.00
  -10    5    2     -1.45      0.00
   11    5    2      0.44      0.00
  -10    6    2     -1.43      0.00
   11    6    2     -1.50      0.00
  -10    7    2     -0.54      0.00
   11    7    2     -4.04      0.00
   11    8    2     -2.37      0.00
   -9    9    2      3.83      0.00
   -9   10    2      0.77      0.00
   10   10    2     -1.23      0.00
   -8   11    2      1.39      0.00
   10   11    2     -2.14      0.00
   -8   12    2      1.26      0.00
   -7   13    2     -3.24      0.00
    9   13    2     -1.21      0.00
   -6   14    2      0.68      0.00
    8   14    2     -4.12      0.00
   -6   15    2      0.24      0.00
   -5   15    2      1.07      0.00
    8   15    2     -1.45      0.00
   -5   16    2      2.37      0.00
   -4   16    2      2.39      0.00
    7   16    2     -4.74      0.00
   -4   17    2     -0.33      0.00
   -3   17    2     -1.06      0.00
   -2   17    2      0.81      0.00
    6   17    2      0.94      0.00
   -2   18    2      0.85      0.00
   -1   18    2      2.03      0.00
    0   18    2     -2.40      0.00
    1   18    2      0.39      0.00
    2   18    2      0.02      0.00
    3   18    2      1.46      0.00
    4   18    2     -0.04      0.00
    5   18    2     -1.39      0.00
   -4  -18    3     -2.57      0.00
   -3  -18    3      1.61      0.00
   -2  -18    3     -1.99      0.00
   -1  -18    3      1.54      0.00
    0  -18    3     -0.34      0.00
    1  -18    3      2.97      0.00
    2  -18    3     -0.38      0.00
   -5  -17    3      1.54      0.00
   -4  -17    3     -4.54      0.00
    3  -17    3     -0.02      0.00
   -6  -16    3      0.09      0.00
    4  -16    3      0.12      0.00
    5  -16    3      1.18      0.00
   -7  -15    3      1.20      0.00
    6  -15    3     -3.20      0.00
   -8  -14    3      2.18      0.00
    6  -14    3     -2.86      0.00
    7  -13    3      0.83      0.00
   -9  -12    3      0.25      0.00
    8  -12    3      1.43      0.00
    8  -11    3      2.78      0.00
  -10  -10    3     -1.81      0.00
    9  -10    3     -0.11      0.00
  -10   -9    3     -1.87      0.00
    9   -9    3      0.93      0.00
  -10   -8    3      1.89      0.00
   10   -7    3     -3.91      0.00
  -11   -6    3     -1.15      0.00
   10   -6    3     -7.22      0.00
  -11   -5    3     -2.45      0.00
  -11   -4    3     -2.54      0.00
   11   -4    3      2.05      0.00
  -11   -3    3     -2.81      0.00
   11   -3    3      0.49      0.00
  -11   -2    3     -4.05      0.00
   11   -2    3     -1.88      0.00
  -11   -1    3     -4.40      0.00
   11   -1    3     -4.59      0.00
  -11    0    3     -1.77      0.00
  -11    1    3      1.11      0.00
  -11    2    3      0.53      0.00
  -10    3    3     -4.64      0.00
  -10    4    3     -1.51      0.00
   11    4    3      3.73      0.00
  -10    5    3     -0.34      0.00
   11    5    3     -0.20      0.00
  -10    6    3      0.28      0.00
   11    6    3     -5.87      0.00
  -10    7    3      0.71      0.00
   11    7    3     -5.99      0.00
   11    8    3     -2.53      0.00
   -9    9    3     -0.31      0.00
   10   10    3      4.27      0.00
   -8   11    3      0.75      0.00
   10   11    3      0.19      0.00
   -8   12    3     -0.34      0.00
   -7   13    3      0.41      0.00
    9   13    3     -0.87      0.00
   -6   14    3     -0.36      0.00
    8   14    3     -6.88      0.00
   -6   15    3     -0.06      0.00
   -5   15    3      2.14      0.00
    8   15    3     -1.57      0.00
   -5   16    3      0.74      0.00
   -4   16    3      0.47      0.00
    7   16    3      0.56      0.00
   -4   17    3     -1.28      0.00
   -3   17    3     -2.03      0.00
    6   17    3      0.09      0.00
   -2   18    3      1.82      0.00
   -1   18    3     -2.01      0.00
    0   18    3     -0.46      0.00
    1   18    3     -2.15      0.00
    2   18    3      1.13      0.00
    3   18    3     -1.66      0.00
    4   18    3      1.87      0.00
    5   18    3     -2.55      0.00
   -3  -18    4     -0.81      0.00
   -2  -18    4      0.99      0.00
   -1  -18    4     -2.01      0.00
    0  -18    4      2.05      0.00
    1  -18    4     -0.51      0.00
   -5  -17    4      2.16      0.00
   -4  -17    4      0.15      0.00
    2  -17    4     -3.83      0.00
    3  -17    4     -0.36      0.00
   -6  -16    4      1.98      0.00
    4  -16    4     -0.13      0.00
   -7  -15    4      4.61      0.00
    5  -15    4     -0.31      0.00
   -8  -14    4      1.30      0.00
    6  -14    4      1.05      0.00
   -8  -13    4      2.49      0.00
    7  -13    4      1.27      0.00
   -9  -12    4     -0.10      0.00
    8  -12    4     -0.36      0.00
   -9  -11    4     -2.35      0.00
    8  -11    4     -1.93      0.00
    9  -10    4      0.38      0.00
  -10   -9    4     -0.29      0.00
    9   -9    4      2.05      0.00
  -10   -8    4     -1.18      0.00
  -10   -7    4     -4.14      0.00
   10   -7    4     -0.19      0.00
   10   -6    4     -0.09      0.00
  -11   -5    4      1.21      0.00
  -11   -4    4      1.04      0.00
   11   -4    4      0.73      0.00
  -11   -3    4     -1.21      0.00
   11   -3    4      0.68      0.00
  -11   -2    4     -3.78      0.00
   11   -2    4      0.30      0.00
  -11   -1    4     -4.02      0.00
   11   -1    4     -1.40      0.00
  -11    0    4     -1.60      0.00
   11    0    4     -3.27      0.00
  -11    1    4     -0.19      0.00
  -10    1    4     -1.69      0.00
   11    1    4     -2.54      0.00
  -10    2    4     -2.41      0.00
   11    2    4      0.03      0.00
  -10    3    4     -0.43      0.00
   11    3    4      2.15      0.00
  -10    4    4      0.21      0.00
   11    4    4      1.36      0.00
  -10    5    4     -0.08      0.00
   11    5    4     -2.56      0.00
  -10    6    4      0.20      0.00
   11    6    4     -3.48      0.00
   11    7    4      0.21      0.00
   -9    8    4     -3.25      0.00
   11    8    4      1.30      0.00
   -9    9    4     -1.61      0.00
   10   10    4      1.01      0.00
   -8   11    4      0.11      0.00
   10   11    4      0.70      0.00
   -7   12    4     -0.02      0.00
   -7   13    4      0.92      0.00
    9   13    4     -1.64      0.00
   -6   14    4     -1.74      0.00
    8   14    4      1.66      0.00
   -5   15    4      1.45      0.00
    8   15    4      1.31      0.00
   -4   16    4     -2.84      0.00
    7   16    4      2.68      0.00
   -3   17    4      0.04      0.00
    5   17    4      0.05      0.00
    6   17    4     -3.33      0.00
   -2   18    4      0.37      0.00
   -1   18    4     -0.37      0.00
    0   18    4     -0.37      0.00
    1   18    4     -0.51      0.00
    2   18    4     -1.65      0.00
    3   18    4      0.56      0.00
    4   18    4      1.19      0.00
    5   18    4     -0.97      0.00
   -2  -18    5      2.25      0.00
   -1  -18    5     -0.02      0.00
    0  -18    5      2.50      0.00
    1  -18    5      0.19      0.00
   -4  -17    5      3.06      0.00
   -3  -17    5     -1.56      0.00
    2  -17    5      0.00      0.00
    3  -17    5      1.03      0.00
   -6  -16    5      2.62      0.00
   -5  -16    5      0.02      0.00
    4  -16    5      0.66      0.00
   -7  -15    5      2.28      0.00
   -6  -15    5     -0.45      0.00
    5  -15    5     -4.69      0.00
   -7  -14    5      0.24      0.00
    6  -14    5      6.49      0.00
   -8  -13    5      0.77      0.00
    7  -13    5     -1.83      0.00
   -9  -11    5     -2.04      0.00
    8  -11    5     -3.60      0.00
   -9  -10    5     -3.52      0.00
  -10   -9    5     -1.35      0.00
    9   -9    5      3.91      0.00
  -10   -8    5     -5.21      0.00
  -10   -7    5     -7.51      0.00
   10   -7    5      0.20      0.00
  -10   -6    5     -7.07      0.00
   10   -6    5      2.70      0.00
  -10   -5    5     -9.06      0.00
   11   -3    5     -0.03      0.00
  -10   -2    5     -6.09      0.00
   11   -2    5      1.87      0.00
  -10   -1    5      0.37      0.00
   11   -1    5      2.59      0.00
  -10    0    5      2.52      0.00
   11    0    5      1.83      0.00
  -10    1    5      1.69      0.00
   11    1    5      1.05      0.00
  -10    2    5      2.76      0.00
   11    2    5      1.23      0.00
  -10    3    5      3.33      0.00
   11    3    5      1.81      0.00
  -10    4    5      1.74      0.00
   11    4    5      0.12      0.00
  -10    5    5      1.05      0.00
   11    5    5     -2.34      0.00
   -9    6    5     -1.81      0.00
   11    6    5     -0.89      0.00
   -9    7    5     -2.53      0.00
   11    7    5      1.62      0.00
   -9    8    5     -0.87      0.00
   11    8    5      0.99      0.00
   -9    9    5      0.19      0.00
   10    9    5     -5.60      0.00
   -8   10    5      0.93      0.00
   10   10    5     -3.98      0.00
   -8   11    5     -0.29      0.00
   10   11    5     -0.41      0.00
   -7   12    5     -0.74      0.00
    9   12    5     -1.34      0.00
   -7   13    5     -0.25      0.00
   -6   13    5      0.89      0.00
    9   13    5     -0.43      0.00
   -6   14    5      0.76      0.00
   -5   14    5     -1.36      0.00
    8   14    5      4.60      0.00
   -5   15    5     -0.18      0.00
    8   15    5      2.02      0.00
   -4   16    5     -1.76      0.00
    7   16    5      0.02      0.00
   -3   17    5      1.44      0.00
   -2   17    5     -1.43      0.00
    5   17    5      1.23      0.00
    6   17    5     -1.49      0.00
   -1   18    5      2.76      0.00
    0   18    5     -1.20      0.00
    1   18    5      1.99      0.00
    2   18    5     -2.44      0.00
    3   18    5      4.98      0.00
    4   18    5      1.17      0.00
   -4  -17    6     -0.22      0.00
   -3  -17    6     -0.14      0.00
   -2  -17    6     -0.07      0.00
   -1  -17    6      2.61      0.00
    0  -17    6     -3.27      0.00
    1  -17    6     -0.11      0.00
    2  -17    6     -1.83      0.00
   -5  -16    6     -3.64      0.00
    3  -16    6      1.61      0.00
    4  -16    6     -0.76      0.00
   -6  -15    6     -1.93      0.00
    5  -15    6     -4.52      0.00
   -7  -14    6     -3.07      0.00
    6  -14    6      6.04      0.00
   -8  -13    6      0.92      0.00
    7  -13    6     -2.89      0.00
   -8  -12    6     -1.01      0.00
    7  -12    6     -5.06      0.00
   -9  -11    6     -1.55      0.00
    8  -11    6      1.50      0.00
   -9  -10    6     -1.69      0.00
    8  -10    6      2.99      0.00
   -9   -9    6     -2.74      0.00
    9   -9    6     -0.11      0.00
  -10   -8    6     -3.45      0.00
    9   -8    6     -2.48      0.00
  -10   -7    6     -2.64      0.00
  -10   -6    6     -3.28      0.00
   10   -6    6      0.00      0.00
  -10   -5    6     -5.81      0.00
   10   -5    6      1.59      0.00
  -10   -4    6     -5.18      0.00
  -10   -3    6     -1.84      0.00
   11   -3    6      0.79      0.00
  -10   -2    6      1.63      0.00
   11   -2    6      0.44      0.00
  -10   -1    6      2.85      0.00
   11   -1    6     -0.82      0.00
  -10    0    6      0.70      0.00
   11    0    6     -1.35      0.00
  -10    1    6     -0.16      0.00
   11    1    6      0.03      0.00
  -10    2    6      1.58      0.00
   11    2    6      3.09      0.00
  -10    3    6      1.95      0.00
   11    3    6      5.15      0.00
  -10    4    6      1.81      0.00
   11    4    6      3.13      0.00
  -10    5    6      2.00      0.00
   11    5    6     -0.25      0.00
   -9    6    6     -1.59      0.00
   11    6    6     -1.38      0.00
   -9    7    6     -0.59      0.00
   11    7    6     -1.98      0.00
   -9    8    6      1.18      0.00
   -8    9    6     -1.73      0.00
   10    9    6     -3.97      0.00
   -8   10    6     -2.10      0.00
   10   10    6     -1.45      0.00
   -7   11    6      0.20      0.00
   10   11    6     -0.08      0.00
   -7   12    6     -0.17      0.00
   -6   12    6      0.80      0.00
    9   12    6      3.01      0.00
   -6   13    6      2.31      0.00
    9   13    6      0.75      0.00
   -6   14    6      2.45      0.00
   -5   14    6     -0.58      0.00
    8   14    6     -1.28      0.00
   -5   15    6     -0.66      0.00
   -4   15    6      0.52      0.00
    7   15    6     -1.61      0.00
   -4   16    6      0.30      0.00
   -3   16    6      0.70      0.00
    6   16    6      1.84      0.00
    7   16    6     -0.73      0.00
   -3   17    6      0.93      0.00
   -2   17    6      0.27      0.00
    5   17    6     -0.74      0.00
    6   17    6      0.90      0.00
   -1   18    6      1.35      0.00
    0   18    6     -0.72      0.00
    1   18    6      1.04      0.00
    2   18    6      0.43      0.00
    3   18    6      4.24      0.00
    4   18    6      1.40      0.00
   -3  -17    7      1.80      0.00
   -2  -17    7     -1.67      0.00
   -1  -17    7      0.88      0.00
    0  -17    7     -4.63      0.00
    1  -17    7      0.94      0.00
   -5  -16    7     -0.97      0.00
   -4  -16    7     -0.06      0.00
    2  -16    7     -4.78      0.00
    3  -16    7      1.43      0.00
   -6  -15    7     -1.67      0.00
   -5  -15    7     -0.68      0.00
    3  -15    7      4.56      0.00
    4  -15    7     -0.74      0.00
   -6  -14    7     -1.11      0.00
    5  -14    7      1.16      0.00
   -7  -13    7     -2.34      0.00
    6  -13    7      3.40      0.00
   -8  -12    7      0.07      0.00
    7  -12    7     -4.42      0.00
   -8  -11    7      0.42      0.00
    8  -11    7      3.91      0.00
   -9  -10    7      0.22      0.00
    8  -10    7      8.52      0.00
   -9   -9    7      0.27      0.00
    9   -9    7     -4.12      0.00
   -9   -8    7      1.71      0.00
    9   -8    7     -6.11      0.00
    9   -7    7     -4.91      0.00
  -10   -6    7     -0.59      0.00
   10   -6    7     -0.64      0.00
  -10   -5    7      0.15      0.00
   10   -5    7     -0.78      0.00
  -10   -4    7      3.38      0.00
   10   -4    7     -0.16      0.00
  -10   -3    7      5.23      0.00
   10   -3    7      0.73      0.00
  -10   -2    7      4.79      0.00
   11   -2    7     -1.28      0.00
  -10   -1    7      1.74      0.00
   10   -1    7     -2.42      0.00
   11   -1    7     -3.23      0.00
  -10    0    7     -1.55      0.00
   11    0    7     -3.09      0.00
  -10    1    7     -1.61      0.00
   11    1    7     -1.41      0.00
  -10    2    7     -0.86      0.00
   11    2    7      1.11      0.00
  -10    3    7     -0.66      0.00
   11    3    7      2.59      0.00
   11    4    7      1.56      0.00
   11    5    7      0.31      0.00
   -9    6    7      0.90      0.00
   11    6    7     -0.12      0.00
   -9    7    7      0.50      0.00
   10    8    7     -1.97      0.00
   -8    9    7     -2.38      0.00
   10    9    7     -0.31      0.00
   -8   10    7     -2.01      0.00
   10   10    7      0.82      0.00
   -7   11    7      2.30      0.00
   -7   12    7      0.82      0.00
   -6   12    7     -0.88      0.00
    9   12    7     -0.17      0.00
   -6   13    7      0.38      0.00
    8   13    7     -4.82      0.00
    9   13    7     -0.28      0.00
   -5   14    7      1.55      0.00
    7   14    7      1.76      0.00
    8   14    7     -3.81      0.00
   -4   15    7     -0.29      0.00
    6   15    7      0.87      0.00
    7   15    7      0.41      0.00
   -3   16    7     -0.61      0.00
    6   16    7     -0.71      0.00
   -2   17    7      0.99      0.00
   -1   17    7      0.40      0.00
    4   17    7      2.11      0.00
    5   17    7     -2.03      0.00
    0   18    7     -0.02      0.00
    1   18    7     -0.07      0.00
    2   18    7      2.09      0.00
    3   18    7      0.62      0.00
   -1  -17    8     -1.65      0.00
    0  -17    8      0.47      0.00
   -4  -16    8      0.93      0.00
   -3  -16    8      1.97      0.00
   -2  -16    8     -0.06      0.00
   -1  -16    8     -1.98      0.00
    0  -16    8      1.39      0.00
    1  -16    8      2.04      0.00
    2  -16    8      0.24      0.00
    3  -16    8     -0.31      0.00
   -5  -15    8      0.12      0.00
    3  -15    8      2.92      0.00
    4  -15    8      0.29      0.00
   -6  -14    8     -1.35      0.00
    5  -14    8      3.86      0.00
   -7  -13    8      0.81      0.00
    6  -13    8     -2.29      0.00
   -7  -12    8      0.94      0.00
    6  -12    8     -6.27      0.00
    7  -12    8     -2.56      0.00
   -8  -11    8     -1.99      0.00
    7  -11    8     -4.21      0.00
   -8  -10    8     -2.81      0.00
    8  -10    8      4.55      0.00
   -9   -9    8      0.07      0.00
    8   -9    8      7.24      0.00
   -9   -8    8      0.72      0.00
    9   -8    8     -3.07      0.00
   -9   -7    8      0.56      0.00
    9   -7    8     -2.41      0.00
    9   -6    8     -0.53      0.00
   10   -5    8     -0.33      0.00
  -10   -4    8      1.78      0.00
   10   -4    8     -1.66      0.00
  -10   -3    8      2.42      0.00
   -9   -3    8      3.06      0.00
   10   -3    8     -3.68      0.00
  -10   -2    8      2.29      0.00
   10   -2    8     -6.36      0.00
  -10   -1    8      0.75      0.00
   10   -1    8     -6.48      0.00
  -10    0    8     -0.12      0.00
   10    0    8     -3.31      0.00
   11    0    8     -0.22      0.00
  -10    1    8     -0.06      0.00
   -9    1    8      0.61      0.00
   11    1    8     -0.12      0.00
   -9    2    8      3.56      0.00
   11    2    8     -0.28      0.00
   -9    3    8      7.32      0.00
   11    3    8     -0.82      0.00
   -9    4    8      6.95      0.00
   11    4    8     -1.36      0.00
   -9    5    8      2.85      0.00
   11    5    8     -0.53      0.00
   -9    6    8      0.95      0.00
   10    7    8     -1.95      0.00
   -8    8    8     -2.11      0.00
   10    8    8     -2.73      0.00
   -8    9    8     -1.28      0.00
   10    9    8     -1.72      0.00
   -7   10    8      1.47      0.00
   10   10    8     -0.91      0.00
   -7   11    8      2.03      0.00
   -6   11    8     -1.76      0.00
    9   11    8     -2.52      0.00
   -6   12    8     -2.32      0.00
    9   12    8     -2.22      0.00
   -6   13    8     -1.24      0.00
   -5   13    8      3.76      0.00
    8   13    8     -2.71      0.00
   -5   14    8      1.67      0.00
    7   14    8     -0.14      0.00
    8   14    8     -1.43      0.00
   -4   15    8     -2.47      0.00
    6   15    8     -1.42      0.00
    7   15    8     -0.29      0.00
   -3   16    8     -0.99      0.00
   -2   16    8      0.11      0.00
    5   16    8      0.05      0.00
    6   16    8     -2.48      0.00
   -2   17    8      1.28      0.00
   -1   17    8      1.35      0.00
    0   17    8     -1.78      0.00
    1   17    8      0.23      0.00
    2   17    8      2.90      0.00
    3   17    8      1.61      0.00
    4   17    8     -2.27      0.00
    5   17    8     -0.33      0.00
    1   18    8      0.76      0.00
    2   18    8      1.32      0.00
   -3  -16    9     -1.83      0.00
   -2  -16    9      1.57      0.00
   -1  -16    9     -3.91      0.00
    0  -16    9      2.30      0.00
    1  -16    9     -1.51      0.00
    2  -16    9      2.45      0.00
   -4  -15    9     -0.78      0.00
   -3  -15    9     -2.92      0.00
    2  -15    9      5.46      0.00
    3  -15    9     -2.18      0.00
   -5  -14    9     -1.41      0.00
    4  -14    9     -1.11      0.00
    5  -14    9      1.18      0.00
   -6  -13    9      0.14      0.00
    5  -13    9      3.31      0.00
   -7  -12    9      0.05      0.00
    6  -12    9     -3.22      0.00
   -7  -11    9      1.54      0.00
    7  -11    9      0.70      0.00
   -8  -10    9     -1.42      0.00
    7  -10    9      3.42      0.00
   -8   -9    9      1.19      0.00
    8   -9    9     -0.18      0.00
    8   -8    9     -0.78      0.00
   -9   -7    9     -0.11      0.00
    9   -7    9      0.99      0.00
   -9   -6    9      1.41      0.00
    9   -6    9      0.76      0.00
   -9   -5    9      2.37      0.00
    9   -5    9      3.17      0.00
   -9   -4    9      3.34      0.00
   10   -4    9     -0.18      0.00
   10   -3    9     -1.69      0.00
   10   -2    9     -3.27      0.00
   10   -1    9     -3.70      0.00
   -9    0    9     -1.20      0.00
   10    0    9     -4.02      0.00
   -9    1    9     -0.91      0.00
   10    1    9     -3.70      0.00
   -9    2    9      1.24      0.00
   -9    3    9      2.64      0.00
   -9    4    9      0.37      0.00
   -9    5    9     -1.46      0.00
   10    6    9      2.79      0.00
   -8    7    9     -0.74      0.00
   10    7    9     -0.78      0.00
   -8    8    9     -0.82      0.00
   10    8    9     -2.22      0.00
   10    9    9     -1.42      0.00
   -7   10    9      1.94      0.00
    9   10    9     -0.61      0.00
   -6   11    9     -2.60      0.00
    9   11    9     -0.62      0.00
   -6   12    9     -2.11      0.00
    8   12    9     -3.65      0.00
   -5   13    9      2.23      0.00
    7   13    9     -0.79      0.00
    8   13    9     -1.83      0.00
   -4   14    9     -2.46      0.00
    7   14    9     -3.03      0.00
   -4   15    9     -2.09      0.00
   -3   15    9     -2.67      0.00
    6   15    9     -0.64      0.00
    7   15    9     -1.73      0.00
   -2   16    9      3.06      0.00
    5   16    9     -1.80      0.00
    6   16    9      0.14      0.00
   -1   17    9      1.08      0.00
    0   17    9     -0.64      0.00
    1   17    9      0.80      0.00
    2   17    9      2.52      0.00
    3   17    9     -0.22      0.00
    4   17    9     -0.89      0.00
   -3  -15   10     -1.28      0.00
   -2  -15   10      0.87      0.00
   -1  -15   10     -1.06      0.00
    0  -15   10      1.59      0.00
    1  -15   10     -0.91      0.00
    2  -15   10      2.91      0.00
   -5  -14   10      0.64      0.00
   -4  -14   10      3.55      0.00
    3  -14   10     -4.70      0.00
    4  -14   10      0.72      0.00
   -6  -13   10      0.56      0.00
   -5  -13   10      3.08      0.00
    4  -13   10      3.94      0.00
    5  -13   10     -1.34      0.00
   -6  -12   10      1.39      0.00
    5  -12   10     -4.15      0.00
    6  -12   10      2.30      0.00
   -7  -11   10      1.03      0.00
    6  -11   10      2.59      0.00
    7  -11   10      0.26      0.00
   -7  -10   10      2.60      0.00
    7  -10   10      1.27      0.00
   -8   -9   10      1.23      0.00
    8   -9   10     -1.63      0.00
   -8   -8   10      0.49      0.00
    8   -8   10     -4.55      0.00
    8   -7   10     -9.22      0.00
    9   -7   10      1.49      0.00
   -9   -6   10     -0.52      0.00
    9   -6   10      2.14      0.00
   -9   -5   10     -0.91      0.00
    9   -5   10      5.07      0.00
   -9   -4   10     -0.90      0.00
    9   -4   10      6.41      0.00
   -9   -3   10     -1.39      0.00
   10   -3   10     -0.12      0.00
   -9   -2   10     -2.20      0.00
   10   -2   10      0.19      0.00
   -9   -1   10     -2.20      0.00
   10   -1   10     -0.16      0.00
   -9    0   10     -1.89      0.00
   10    0   10     -1.56      0.00
   -9    1   10     -0.63      0.00
   10    1   10     -1.09      0.00
   -9    2   10      1.06      0.00
   10    2   10      1.07      0.00
   -9    3   10      0.11      0.00
   10    3   10      2.01      0.00
   10    4   10      1.87      0.00
   10    5   10      1.37      0.00
   -8    6   10      2.48      0.00
   10    6   10     -0.22      0.00
   -8    7   10      2.01      0.00
   10    7   10     -1.22      0.00
   10    8   10     -0.19      0.00
   -7    9   10      1.69      0.00
    9    9   10     -2.26      0.00
   -7   10   10      1.32      0.00
   -6   10   10     -1.97      0.00
    9   10   10     -0.40      0.00
   -6   11   10     -1.72      0.00
    9   11   10      0.48      0.00
   -5   12   10      2.66      0.00
    8   12   10     -4.83      0.00
   -5   13   10      1.46      0.00
    7   13   10     -1.93      0.00
    8   13   10     -2.07      0.00
   -4   14   10     -1.35      0.00
    4   14   10      5.38      0.00
    6   14   10     -4.42      0.00
    7   14   10     -1.08      0.00
   -3   15   10     -0.50      0.00
   -2   15   10      6.33      0.00
    5   15   10     -1.46      0.00
    6   15   10     -1.00      0.00
   -2   16   10      3.55      0.00
   -1   16   10     -1.46      0.00
    0   16   10      1.63      0.00
    2   16   10      4.51      0.00
    3   16   10     -0.37      0.00
    4   16   10     -0.25      0.00
    5   16   10     -0.70      0.00
    1   17   10     -1.25      0.00
    2   17   10      1.22      0.00
    3   17   10     -1.13      0.00
   -2  -15   11     -1.50      0.00
   -1  -15   11      3.26      0.00
    0  -15   11      1.97      0.00
    1  -15   11      1.73      0.00
   -4  -14   11      0.31      0.00
   -3  -14   11     -0.32      0.00
   -2  -14   11     -1.79      0.00
    2  -14   11     -1.19      0.00
    3  -14   11      0.75      0.00
   -5  -13   11      1.91      0.00
   -4  -13   11      0.01      0.00
    4  -13   11      1.55      0.00
   -6  -12   11     -0.22      0.00
   -5  -12   11      0.26      0.00
    5  -12   11     -6.15      0.00
   -6  -11   11     -0.35      0.00
    6  -11   11      2.18      0.00
   -7  -10   11      0.83      0.00
    7  -10   11     -0.22      0.00
   -7   -9   11      0.15      0.00
    7   -9   11      1.11      0.00
   -8   -8   11     -0.48      0.00
    8   -8   11     -0.58      0.00
   -8   -7   11      0.14      0.00
    8   -7   11     -3.72      0.00
   -8   -6   11      0.54      0.00
    8   -6   11     -5.96      0.00
   -8   -5   11     -0.43      0.00
    9   -5   11      2.04      0.00
    9   -4   11      0.66      0.00
    9   -3   11     -1.81      0.00
   -9   -2   11     -2.24      0.00
   10   -2   11     -0.09      0.00
   -9   -1   11     -2.73      0.00
   10   -1   11     -0.12      0.00
   -9    0   11     -2.75      0.00
   10    0   11      0.55      0.00
   -8    1   11      2.03      0.00
   10    1   11      2.41      0.00
   -8    2   11     -0.08      0.00
   10    2   11      2.57      0.00
   -8    3   11     -2.39      0.00
   10    3   11      0.53      0.00
   -8    4   11     -1.53      0.00
   10    4   11     -1.18      0.00
   -8    5   11     -0.05      0.00
   10    5   11     -2.01      0.00
   -8    6   11     -0.08      0.00
   10    6   11     -2.24      0.00
   -7    7   11      1.34      0.00
   -7    8   11     -0.22      0.00
    9    8   11     -0.68      0.00
   -7    9   11     -0.08      0.00
   -6    9   11     -0.71      0.00
    9    9   11     -0.98      0.00
   -6   10   11     -0.76      0.00
    8   10   11      1.47      0.00
    9   10   11     -1.85      0.00
   -6   11   11     -0.23      0.00
   -5   11   11      0.94      0.00
    8   11   11     -1.65      0.00
   -5   12   11      1.41      0.00
    7   12   11     -5.44      0.00
    8   12   11     -1.09      0.00
   -4   13   11     -1.48      0.00
    6   13   11     -3.89      0.00
    7   13   11     -1.78      0.00
   -3   14   11      0.90      0.00
    6   14   11     -3.27      0.00
   -2   15   11      2.58      0.00
   -1   15   11      1.09      0.00
    0   15   11     -4.49      0.00
    1   15   11      2.83      0.00
    4   15   11     -2.26      0.00
    5   15   11      0.03      0.00
   -1   16   11     -1.80      0.00
    0   16   11     -1.52      0.00
    1   16   11      0.83      0.00
    2   16   11     -0.23      0.00
    3   16   11     -0.39      0.00
    4   16   11     -2.02      0.00
   -2  -14   12     -2.52      0.00
   -1  -14   12      2.18      0.00
    0  -14   12      0.91      0.00
    1  -14   12     -0.51      0.00
    2  -14   12     -2.78      0.00
   -4  -13   12     -1.90      0.00
   -3  -13   12      1.96      0.00
   -2  -13   12     -4.91      0.00
    2  -13   12     -4.94      0.00
    3  -13   12      1.37      0.00
   -5  -12   12      0.77      0.00
   -4  -12   12     -1.84      0.00
    4  -12   12     -0.45      0.00
    5  -12   12     -2.13      0.00
   -5  -11   12     -1.19      0.00
    5  -11   12     -3.22      0.00
   -6  -10   12      0.25      0.00
    6  -10   12      2.78      0.00
   -7   -9   12     -0.58      0.00
   -6   -9   12      0.92      0.00
    7   -9   12      0.96      0.00
   -7   -8   12      0.59      0.00
    7   -8   12     -2.15      0.00
   -7   -7   12      0.79      0.00
    8   -7   12      1.81      0.00
   -8   -6   12     -0.80      0.00
    8   -6   12      4.34      0.00
   -8   -5   12     -2.85      0.00
    8   -5   12      6.06      0.00
   -8   -4   12     -2.87      0.00
    9   -4   12     -3.34      0.00
   -8   -3   12     -2.56      0.00
    9   -3   12     -2.07      0.00
   -8   -2   12     -4.08      0.00
    9   -2   12     -0.12      0.00
   -8   -1   12     -4.82      0.00
    9   -1   12     -1.42      0.00
   -8    0   12     -1.92      0.00
   -8    1   12      1.37      0.00
   -8    2   12      1.39      0.00
   10    2   12      0.71      0.00
   -8    3   12     -0.10      0.00
   10    3   12     -0.19      0.00
   -8    4   12     -1.03      0.00
   -7    6   12      1.78      0.00
    9    6   12      1.54      0.00
   -7    7   12      0.99      0.00
    9    7   12      2.44      0.00
   -6    8   12     -0.32      0.00
    9    8   12      1.83      0.00
   -6    9   12      1.36      0.00
    8    9   12     -1.13      0.00
    9    9   12     -0.43      0.00
   -6   10   12      0.85      0.00
   -5   10   12      0.49      0.00
    8   10   12     -1.35      0.00
   -5   11   12      0.84      0.00
    7   11   12     -6.63      0.00
    8   11   12      0.17      0.00
   -4   12   12      0.08      0.00
    6   12   12      2.99      0.00
    7   12   12     -4.24      0.00
   -3   13   12     -1.80      0.00
    6   13   12      0.58      0.00
    7   13   12     -1.23      0.00
   -3   14   12      0.48      0.00
   -2   14   12      2.03      0.00
   -1   14   12      2.18      0.00
    5   14   12     -4.17      0.00
    6   14   12      0.56      0.00
   -1   15   12     -0.20      0.00
    0   15   12     -4.46      0.00
    1   15   12      3.01      0.00
    2   15   12     -0.78      0.00
    3   15   12     -0.05      0.00
    4   15   12     -2.38      0.00
    5   15   12     -2.15      0.00
    2   16   12     -1.41      0.00
   -2  -13   13     -0.86      0.00
   -1  -13   13     -1.68      0.00
    0  -13   13     -0.77      0.00
    1  -13   13     -0.54      0.00
    2  -13   13     -1.33      0.00
   -4  -12   13     -1.31      0.00
   -3  -12   13      3.47      0.00
   -2  -12   13     -2.38      0.00
   -1  -12   13     -0.65      0.00
    2  -12   13     -1.94      0.00
    3  -12   13     -0.87      0.00
    4  -12   13      1.68      0.00
   -5  -11   13      0.02      0.00
   -4  -11   13     -3.44      0.00
    4  -11   13      3.87      0.00
    5  -11   13      0.87      0.00
   -5  -10   13     -0.65      0.00
    5  -10   13     -0.10      0.00
   -6   -9   13      0.19      0.00
    6   -9   13      2.21      0.00
   -6   -8   13      1.15      0.00
    7   -8   13     -3.26      0.00
   -7   -7   13     -2.16      0.00
   -6   -7   13      4.39      0.00
    7   -7   13     -7.33      0.00
   -7   -6   13     -2.27      0.00
    8   -6   13      4.67      0.00
   -7   -5   13     -0.33      0.00
    8   -5   13      7.35      0.00
   -7   -4   13     -0.54      0.00
    8   -4   13      8.75      0.00
   -7   -3   13     -3.36      0.00
    9   -2   13     -1.11      0.00
   -8   -1   13     -3.78      0.00
    9   -1   13     -1.46      0.00
   -8    0   13     -1.90      0.00
   -7    0   13      6.60      0.00
    9    0   13      0.02      0.00
   -7    1   13      3.94      0.00
    9    1   13      1.90      0.00
   -7    2   13     -0.37      0.00
    9    2   13      2.40      0.00
   -7    3   13     -2.55      0.00
    9    3   13      1.92      0.00
   -7    4   13     -2.86      0.00
    9    4   13      1.02      0.00
   -7    5   13     -1.80      0.00
    9    5   13      0.13      0.00
   -7    6   13     -0.32      0.00
    9    6   13     -0.03      0.00
   -6    7   13      0.87      0.00
    8    7   13     -2.35      0.00
    9    7   13      0.22      0.00
   -6    8   13      1.13      0.00
    8    8   13     -2.46      0.00
   -5    9   13      1.37      0.00
    7    9   13     -2.40      0.00
    8    9   13     -2.31      0.00
   -5   10   13      0.50      0.00
   -4   10   13      0.17      0.00
    7   10   13     -2.40      0.00
    8   10   13     -1.29      0.00
   -4   11   13     -1.30      0.00
    6   11   13      2.06      0.00
    7   11   13     -1.56      0.00
   -4   12   13     -1.57      0.00
   -3   12   13     -2.82      0.00
    6   12   13     -1.31      0.00
    7   12   13     -0.49      0.00
   -3   13   13     -1.37      0.00
   -2   13   13      1.83      0.00
    5   13   13     -4.53      0.00
    6   13   13     -1.01      0.00
   -1   14   13      0.37      0.00
    0   14   13     -2.82      0.00
    1   14   13     -0.46      0.00
    2   14   13      3.60      0.00
    3   14   13     -1.98      0.00
    4   14   13     -0.56      0.00
    5   14   13     -4.42      0.00
    0   15   13     -0.54      0.00
    1   15   13      0.88      0.00
    2   15   13      1.03      0.00
    3   15   13     -1.45      0.00
   -2  -12   14      1.71      0.00
   -1  -12   14     -1.42      0.00
    0  -12   14     -0.21      0.00
    1  -12   14      0.81      0.00
    2  -12   14      1.33      0.00
   -3  -11   14     -0.35      0.00
   -2  -11   14      3.75      0.00
    1  -11   14      0.83      0.00
    2  -11   14      2.39      0.00
    3  -11   14     -1.07      0.00
    4  -11   14      2.04      0.00
   -4  -10   14     -2.62      0.00
    4  -10   14     -0.76      0.00
    5  -10   14     -0.86      0.00
   -5   -9   14      1.30      0.00
    5   -9   14      0.63      0.00
   -5   -8   14      4.11      0.00
    6   -8   14     -0.34      0.00
   -6   -7   14      2.30      0.00
    6   -7   14     -2.94      0.00
    7   -7   14     -2.44      0.00
   -6   -6   14      3.33      0.00
    7   -6   14     -2.00      0.00
   -6   -5   14      1.62      0.00
    7   -5   14     -2.06      0.00
   -7   -4   14     -3.37      0.00
   -6   -4   14     -0.44      0.00
    8   -4   14      3.87      0.00
   -7   -3   14     -6.10      0.00
    8   -3   14      3.82      0.00
   -7   -2   14     -4.20      0.00
    8   -2   14      0.52      0.00
   -7   -1   14      0.40      0.00
   -7    0   14      2.09      0.00
   -7    1   14      0.84      0.00
    9    1   14      3.16      0.00
   -7    2   14     -0.21      0.00
    9    2   14      3.88      0.00
   -7    3   14     -0.75      0.00
    9    3   14      2.92      0.00
    9    4   14      0.93      0.00
   -6    5   14      1.53      0.00
    8    5   14     -2.68      0.00
   -6    6   14      2.60      0.00
    8    6   14     -3.79      0.00
   -6    7   14      2.16      0.00
    7    7   14      0.46      0.00
    8    7   14     -2.19      0.00
   -5    8   14     -0.46      0.00
    7    8   14      0.37      0.00
    8    8   14     -0.82      0.00
   -5    9   14     -0.18      0.00
   -4    9   14      2.11      0.00
    7    9   14     -1.42      0.00
   -4   10   14     -0.29      0.00
    6   10   14      3.40      0.00
    7   10   14     -2.11      0.00
   -3   11   14     -2.41      0.00
    6   11   14     -1.52      0.00
    7   11   14     -1.00      0.00
   -3   12   14      0.19      0.00
   -2   12   14     -0.23      0.00
    5   12   14     -1.83      0.00
    6   12   14     -2.62      0.00
   -2   13   14      0.04      0.00
   -1   13   14      2.47      0.00
    0   13   14     -2.14      0.00
    1   13   14     -0.05      0.00
    2   13   14      0.27      0.00
    3   13   14      3.19      0.00
    4   13   14     -2.63      0.00
    5   13   14     -1.84      0.00
    0   14   14     -1.05      0.00
    1   14   14      0.50      0.00
    2   14   14      0.78      0.00
    3   14   14     -0.06      0.00
   -2  -11   15      2.74      0.00
   -1  -11   15     -1.09      0.00
    0  -11   15     -1.89      0.00
    1  -11   15     -0.62      0.00
    2  -11   15      2.12      0.00
   -3  -10   15     -1.19      0.00
   -2  -10   15      3.55      0.00
   -1  -10   15     -1.86      0.00
    0  -10   15      0.15      0.00
    1  -10   15      0.46      0.00
    2  -10   15      3.56      0.00
    3  -10   15     -1.85      0.00
   -4   -9   15      2.48      0.00
   -3   -9   15     -3.03      0.00
    3   -9   15     -2.12      0.00
    4   -9   15     -1.86      0.00
   -5   -8   15      0.93      0.00
   -4   -8   15      1.39      0.00
    4   -8   15     -1.07      0.00
    5   -8   15      1.79      0.00
   -5   -7   15      1.18      0.00
    5   -7   15      2.80      0.00
    6   -7   15      0.10      0.00
   -5   -6   15      1.28      0.00
    6   -6   15     -0.47      0.00
   -6   -5   15     -3.20      0.00
   -5   -5   15      1.96      0.00
    6   -5   15     -1.16      0.00
    7   -5   15      0.11      0.00
   -6   -4   15     -3.58      0.00
   -5   -4   15      3.77      0.00
    7   -4   15      0.46      0.00
   -6   -3   15      0.29      0.00
   -5   -3   15      4.44      0.00
    7   -3   15      2.51      0.00
   -6   -2   15      4.09      0.00
   -5   -2   15      0.52      0.00
    8   -2   15     -2.83      0.00
   -6   -1   15      2.75      0.00
    8   -1   15     -3.70      0.00
   -6    0   15     -0.39      0.00
    8    0   15     -2.33      0.00
   -6    1   15     -1.15      0.00
    8    1   15     -0.48      0.00
   -6    2   15     -1.38      0.00
    8    2   15      0.46      0.00
   -6    3   15     -1.97      0.00
    8    3   15      0.34      0.00
   -6    4   15     -1.45      0.00
    7    4   15     -1.55      0.00
    8    4   15     -0.74      0.00
    7    5   15      0.24      0.00
    8    5   15     -1.34      0.00
   -5    6   15      0.47      0.00
    7    6   15      2.37      0.00
    8    6   15     -0.57      0.00
   -5    7   15     -0.82      0.00
    7    7   15      3.54      0.00
   -4    8   15      3.42      0.00
    6    8   15      3.64      0.00
    7    8   15      1.88      0.00
   -4    9   15      1.91      0.00
   -3    9   15     -5.21      0.00
    6    9   15      1.01      0.00
    7    9   15     -0.59      0.00
   -3   10   15     -4.25      0.00
    6   10   15     -0.85      0.00
   -2   11   15      2.52      0.00
    5   11   15     -1.28      0.00
    6   11   15     -0.69      0.00
   -1   12   15      0.30      0.00
    0   12   15      1.78      0.00
    1   12   15     -1.14      0.00
    2   12   15     -0.86      0.00
    3   12   15      2.69      0.00
    4   12   15      0.19      0.00
    5   12   15     -1.31      0.00
    0   13   15      0.56      0.00
    1   13   15     -0.53      0.00
    2   13   15     -0.80      0.00
    3   13   15      1.51      0.00
   -1  -10   16      0.96      0.00
    0  -10   16      2.27      0.00
    1  -10   16      0.12      0.00
    2  -10   16      0.75      0.00
   -2   -9   16     -0.77      0.00
   -1   -9   16      2.14      0.00
    0   -9   16      3.41      0.00
    1   -9   16     -2.28      0.00
    2   -9   16      0.04      0.00
    3   -9   16      1.95      0.00
   -3   -8   16     -4.07      0.00
   -2   -8   16     -0.62      0.00
    2   -8   16     -1.02      0.00
    3   -8   16      2.27      0.00
    4   -8   16      0.12      0.00
   -4   -7   16      2.03      0.00
   -3   -7   16     -4.85      0.00
    4   -7   16      0.10      0.00
    5   -7   16     -0.86      0.00
   -4   -6   16      2.76      0.00
   -3   -6   16     -5.22      0.00
    4   -6   16     -0.03      0.00
    5   -6   16     -1.88      0.00
   -5   -5   16      0.37      0.00
   -4   -5   16      2.78      0.00
    5   -5   16     -2.24      0.00
    6   -5   16     -0.65      0.00
   -5   -4   16      1.95      0.00
   -4   -4   16      2.08      0.00
    5   -4   16     -2.37      0.00
    6   -4   16     -1.36      0.00
   -5   -3   16      2.10      0.00
   -4   -3   16      0.31      0.00
    6   -3   16     -0.59      0.00
    7   -3   16      4.77      0.00
   -5   -2   16     -0.54      0.00
   -4   -2   16      0.24      0.00
    6   -2   16      0.04      0.00
    7   -2   16      4.95      0.00
   -5   -1   16     -1.50      0.00
    6   -1   16     -0.87      0.00
    7   -1   16      3.36      0.00
   -5    0   16      0.04      0.00
    7    0   16      2.27      0.00
   -5    1   16     -0.43      0.00
    6    1   16      0.40      0.00
    7    1   16      0.74      0.00
   -5    2   16     -2.22      0.00
    6    2   16      0.46      0.00
    7    2   16     -1.06      0.00
   -5    3   16     -1.79      0.00
    6    3   16     -0.05      0.00
    7    3   16     -1.05      0.00
   -5    4   16     -0.25      0.00
    6    4   16      0.01      0.00
    7    4   16      0.09      0.00
   -5    5   16      0.40      0.00
    6    5   16     -0.11      0.00
    7    5   16      0.83      0.00
   -4    6   16      0.69      0.00
    6    6   16     -0.13      0.00
    7    6   16      1.33      0.00
   -4    7   16      1.16      0.00
   -3    7   16      1.49      0.00
    6    7   16     -0.07      0.00
    7    7   16      1.24      0.00
   -3    8   16     -1.71      0.00
    6    8   16     -0.80      0.00
   -3    9   16     -2.79      0.00
   -2    9   16     -0.94      0.00
    5    9   16      5.07      0.00
    6    9   16     -1.43      0.00
   -2   10   16      2.56      0.00
   -1   10   16      1.33      0.00
    4   10   16      2.69      0.00
    5   10   16      2.68      0.00
   -1   11   16     -0.32      0.00
    0   11   16      1.26      0.00
    1   11   16      0.84      0.00
    2   11   16     -0.42      0.00
    3   11   16      0.02      0.00
    4   11   16      1.24      0.00
    0   12   16      1.06      0.00
    1   12   16     -0.44      0.00
    2   12   16     -0.04      0.00
    3   12   16     -0.70      0.00
   -2   -8   17     -2.34      0.00
   -1   -8   17     -1.17      0.00
    0   -8   17      0.04      0.00
    1   -8   17     -1.26      0.00
    2   -8   17     -2.58      0.00
   -2   -7   17     -2.84      0.00
   -1   -7   17     -1.45      0.00
    0   -7   17      2.54      0.00
    1   -7   17      1.18      0.00
    2   -7   17     -2.76      0.00
    3   -7   17      1.97      0.00
    4   -7   17      0.46      0.00
   -3   -6   17     -0.14      0.00
   -2   -6   17     -0.21      0.00
    3   -6   17      3.57      0.00
    4   -6   17      1.39      0.00
   -4   -5   17      1.11      0.00
   -3   -5   17      0.67      0.00
    4   -5   17      2.08      0.00
    5   -5   17     -1.21      0.00
   -4   -4   17      0.86      0.00
   -3   -4   17      1.42      0.00
    4   -4   17      0.79      0.00
    5   -4   17     -2.05      0.00
   -4   -3   17     -0.17      0.00
   -3   -3   17      2.39      0.00
    5   -3   17     -1.76      0.00
    6   -3   17     -0.40      0.00
   -4   -2   17      0.18      0.00
   -3   -2   17      3.51      0.00
    5   -2   17     -0.05      0.00
    6   -2   17     -1.77      0.00
   -4   -1   17      0.50      0.00
    5   -1   17      1.93      0.00
    6   -1   17     -3.26      0.00
   -4    0   17     -1.66      0.00
    6    0   17     -3.57      0.00
   -4    1   17     -3.00      0.00
    6    1   17     -3.50      0.00
    7    1   17      0.83      0.00
   -4    2   17     -1.33      0.00
    6    2   17     -3.10      0.00
    7    2   17      0.65      0.00
   -4    3   17      0.17      0.00
    6    3   17     -1.74      0.00
    7    3   17      0.69      0.00
   -4    4   17      0.04      0.00
    6    4   17     -0.94      0.00
   -4    5   17     -0.29      0.00
   -3    5   17      1.88      0.00
    6    5   17     -1.29      0.00
   -3    6   17      1.87      0.00
   -2    6   17     -1.58      0.00
    5    6   17      1.98      0.00
    6    6   17     -1.17      0.00
   -3    7   17      0.40      0.00
   -2    7   17     -2.87      0.00
    5    7   17      4.11      0.00
    6    7   17     -0.38      0.00
   -2    8   17     -1.07      0.00
   -1    8   17      1.74      0.00
    4    8   17      4.31      0.00
    5    8   17      3.48      0.00
   -2    9   17      1.07      0.00
   -1    9   17      2.59      0.00
    0    9   17     -0.64      0.00
    1    9   17      1.90      0.00
    2    9   17      0.89      0.00
    3    9   17     -0.08      0.00
    4    9   17      2.73      0.00
    5    9   17      1.67      0.00
    0   10   17     -1.15      0.00
    1   10   17      2.20      0.00
    2   10   17      0.11      0.00
    3   10   17      0.08      0.00
    4   10   17      0.21      0.00
   -1   -6   18      1.08      0.00
    0   -6   18      1.63      0.00
    1   -6   18      2.07      0.00
    2   -6   18     -1.87      0.00
   -2   -5   18      1.92      0.00
   -1   -5   18     -1.15      0.00
    0   -5   18     -0.51      0.00
    1   -5   18      0.92      0.00
    2   -5   18     -2.04      0.00
    3   -5   18      1.18      0.00
   -3   -4   18      0.53      0.00
   -2   -4   18      1.70      0.00
   -1   -4   18     -4.61      0.00
    0   -4   18     -0.79      0.00
    2   -4   18     -1.22      0.00
    3   -4   18     -1.00      0.00
    4   -4   18     -1.17      0.00
   -3   -3   18      0.40      0.00
   -2   -3   18      1.61      0.00
   -1   -3   18     -6.94      0.00
    3   -3   18     -4.77      0.00
    4   -3   18     -1.87      0.00
    5   -3   18     -0.32      0.00
   -3   -2   18      0.14      0.00
   -2   -2   18      0.81      0.00
    4   -2   18     -0.25      0.00
    5   -2   18      1.98      0.00
   -3   -1   18     -1.11      0.00
   -2   -1   18      0.02      0.00
    4   -1   18      2.47      0.00
    5   -1   18      4.31      0.00
   -3    0   18     -1.49      0.00
   -2    0   18      0.80      0.00
    4    0   18      4.73      0.00
    5    0   18      4.88      0.00
   -3    1   18     -0.63      0.00
    5    1   18      3.13      0.00
   -3    2   18     -0.08      0.00
    5    2   18      0.63      0.00
    6    2   18     -1.73      0.00
   -3    3   18      0.45      0.00
   -2    3   18      2.99      0.00
    5    3   18     -0.56      0.00
   -3    4   18      1.13      0.00
   -2    4   18      2.07      0.00
    4    4   18     -4.75      0.00
    5    4   18     -0.01      0.00
   -2    5   18      0.58      0.00
   -1    5   18     -3.56      0.00
    4    5   18     -5.32      0.00
    5    5   18      1.62      0.00
   -2    6   18     -0.30      0.00
   -1    6   18     -2.11      0.00
    3    6   18     -4.04      0.00
    4    6   18     -1.86      0.00
    5    6   18      2.94      0.00
   -1    7   18      0.05      0.00
    0    7   18      2.46      0.00
    1    7   18     -0.40      0.00
    2    7   18      2.99      0.00
    3    7   18     -2.39      0.00
    4    7   18      1.95      0.00
   -1    8   18      0.74      0.00
    0    8   18      0.92      0.00
    1    8   18     -1.39      0.00
    2    8   18      2.85      0.00
    3    8   18     -0.71      0.00
    4    8   18      2.34      0.00
    1    9   18     -0.90      0.00
    2    9   18      2.07      0.00
    0   -4   19     -1.66      0.00
    1   -4   19      2.17      0.00
    2   -4   19     -0.45      0.00
   -1   -3   19     -1.91      0.00
    0   -3   19     -0.87      0.00
    1   -3   19      2.02      0.00
    2   -3   19     -0.69      0.00
    3   -3   19     -1.70      0.00
   -1   -2   19     -2.84      0.00
    0   -2   19      0.18      0.00
    1   -2   19      1.20      0.00
    2   -2   19      0.58      0.00
    3   -2   19     -1.79      0.00
   -2   -1   19      1.97      0.00
   -1   -1   19     -2.49      0.00
    0   -1   19      1.27      0.00
    1   -1   19      0.55      0.00
    2   -1   19      2.26      0.00
    3   -1   19     -2.17      0.00
    4   -1   19      0.81      0.00
   -2    0   19      2.53      0.00
   -1    0   19     -1.25      0.00
    0    0   19      1.70      0.00
    1    0   19     -0.58      0.00
    2    0   19      2.52      0.00
    3    0   19     -2.40      0.00
    4    0   19      1.68      0.00
   -2    1   19      2.68      0.00
   -1    1   19     -0.11      0.00
    0    1   19      0.81      0.00
    1    1   19     -2.30      0.00
    2    1   19      2.14      0.00
    3    1   19     -1.49      0.00
    4    1   19      1.43      0.00
   -2    2   19      2.26      0.00
   -1    2   19      0.34      0.00
    0    2   19     -0.88      0.00
    1    2   19     -2.73      0.00
    2    2   19      2.71      0.00
    3    2   19     -0.39      0.00
    4    2   19     -0.22      0.00
   -1    3   19      0.13      0.00
    0    3   19     -1.62      0.00
    1    3   19     -1.42      0.00
    2    3   19      3.31      0.00
    3    3   19     -0.72      0.00
    4    3   19     -2.02      0.00
   -1    4   19     -0.12      0.00
    0    4   19     -1.04      0.00
    1    4   19     -0.34      0.00
    2    4   19      2.94      0.00
    3    4   19     -1.59      0.00
    4    4   19     -2.32      0.00
   -1    5   19     -0.14      0.00
    0    5   19     -0.23      0.00
    1    5   19     -0.05      0.00
    2    5   19      2.27      0.00
    3    5   19     -1.47      0.00
    0    6   19      0.20      0.00
    1    6   19     -0.09      0.00
    2    6   19      1.32      0.00
    3    6   19     -0.53      0.00
    0    0    0      0.00      0.00
# SQUEEZE RESULTS (Version = 290617)
# Note: Data are Listed for all Voids in the P1 Unit Cell
# i.e. Centre of Gravity, Solvent Accessible Volume,
# Recovered number of Electrons in the Void and
# Details about the Squeezed Material
loop_
  _platon_squeeze_void_nr
  _platon_squeeze_void_average_x
  _platon_squeeze_void_average_y
  _platon_squeeze_void_average_z
  _platon_squeeze_void_volume
  _platon_squeeze_void_count_electrons
  _platon_squeeze_void_content
   1  0.087  0.000  0.000       521       251 ' '
# Missing Reflections Below sin(th)/lambda = 0.25
loop_
  _platon_missing_refln_index_h
  _platon_missing_refln_index_k
  _platon_missing_refln_index_l
  _platon_missing_refln_theta
    0    1    0     3.023
    0    0    1     2.930
_platon_squeeze_void_probe_radius                  1.20
_platon_squeeze_details
)
TITL CF solution in P-1
CELL    8.9673   14.7355   15.1832     86.37     84.08     83.45
SPGR P-1
# Solvent Accessible Volume =       522
# Electrons Found in S.A.V. =       251
# Note: Atoms in Void are Labelled as Cxxx and Qxxx for all Others
C101 0.722 0.012 0.190 !      27.06 eA-3
C102 0.517 0.892 0.272 !      24.76 eA-3
C103 0.205 0.121 0.057 !      16.57 eA-3
C104 0.972 0.140 0.284 !      12.83 eA-3
C105 0.048 0.121 0.099 !      11.80 eA-3
C106 0.437 1.000 0.112 !      11.05 eA-3
C107 0.665 0.895 0.078 !      10.25 eA-3
C108 0.226 0.228 0.200 !       9.63 eA-3
C109 0.154 0.270 0.153 !       7.74 eA-3
C110 0.577 0.949 0.172 !       6.84 eA-3
C111 0.114 0.141 0.214 !       6.69 eA-3
C112 0.340 0.172 0.188 !       6.44 eA-3
C113 0.292 0.031 0.082 !       5.68 eA-3
C114 0.406 0.049 0.154 !       5.00 eA-3
C115 0.284 0.166 0.007 !       4.80 eA-3
C116 0.197 0.166 0.176 !       4.25 eA-3
Q117 0.150 0.204 0.449 !       1.62 eA-3
Q118 0.319 0.502 0.481 !       1.62 eA-3
Q119 0.807 0.402 0.299 !       1.57 eA-3
Q120 0.649 0.507 0.139 !       1.52 eA-3
Q121 0.508 0.401 0.216 !       1.46 eA-3
Q122 0.665 0.329 0.341 !       1.43 eA-3
Q123 0.062 1.001 0.470 !       1.42 eA-3
C124 0.625 0.030 0.137 !       1.42 eA-3
Q125 0.882 0.628 0.139 !       1.38 eA-3
Q126 0.568 0.588 0.019 !       1.37 eA-3
Q127 0.680 0.324 0.236 !       1.37 eA-3
Q128 0.705 0.642 0.261 !       1.34 eA-3
C129 0.056 0.163 0.156 !       1.33 eA-3
C130 0.172 0.142 0.128 !       1.31 eA-3
C131 0.524 0.970 0.230 !       1.29 eA-3
C132 0.661 0.969 0.220 !       1.29 eA-3
C133 0.483 0.957 0.216 !       1.29 eA-3
Q134 0.122 0.921 0.250 !       1.27 eA-3
Q135 0.336 0.407 0.046 !       1.27 eA-3
Q136 0.189 0.534 0.051 !       1.23 eA-3
Q137 0.413 0.367 0.038 !       1.22 eA-3
Q138 0.178 0.580 0.017 !       1.21 eA-3
Q139 0.537 0.121 0.405 !       1.21 eA-3
Q140 0.477 0.666 0.064 !       1.17 eA-3
Q141 0.633 0.411 0.172 !       1.17 eA-3
C142 0.647 0.908 0.266 !       1.12 eA-3
C143 0.687 0.935 0.213 !       1.12 eA-3
Q144 0.249 0.750 0.169 !       1.11 eA-3
C145 0.588 0.950 0.244 !       1.11 eA-3
Q146 0.597 0.233 0.482 !       1.07 eA-3
Q147 0.401 0.890 0.236 !       1.07 eA-3
Q148 0.974 0.053 0.488 !       1.06 eA-3
Q149 0.085 0.472 0.403 !       1.06 eA-3
C150 0.808 0.031 0.126 !       1.05 eA-3
Q151 0.298 0.534 0.420 !       1.05 eA-3
C152 0.480 0.830 0.266 !       1.04 eA-3
Q153 0.554 0.513 0.019 !       1.03 eA-3
Q154 0.814 0.996 0.233 !       0.98 eA-3
Q155 0.848 0.746 0.301 !       0.98 eA-3
Q156 0.538 0.483 0.279 !       0.96 eA-3
C157 0.218 0.185 0.072 !       0.96 eA-3
C158 0.478 0.845 0.313 !       0.95 eA-3
C159 0.208 0.203 0.037 !       0.95 eA-3
Q160 0.622 0.845 0.268 !       0.94 eA-3
Q161 0.909 0.870 0.396 !       0.93 eA-3
C162 0.137 0.189 0.089 !       0.93 eA-3
Q163 0.691 0.083 0.120 !       0.92 eA-3
Q164 0.579 0.060 0.420 !       0.91 eA-3
Q165 0.243 0.828 0.080 !       0.91 eA-3
Q166 0.953 0.796 0.255 !       0.90 eA-3
Q167 0.183 0.499 0.172 !       0.89 eA-3
C168 0.338 0.110 0.156 !       0.87 eA-3
Q169 0.278 0.296 0.187 !       0.86 eA-3
Q170 0.682 0.327 0.159 !       0.85 eA-3
Q171 0.316 0.837 0.467 !       0.85 eA-3
Q172 0.444 0.440 0.052 !       0.84 eA-3
Q173 0.989 0.215 0.185 !       0.83 eA-3
Q174 0.157 0.047 0.064 !       0.83 eA-3
C175 0.713 0.960 0.253 !       0.82 eA-3
C176 0.753 0.969 0.108 !       0.82 eA-3
Q177 0.971 0.076 0.330 !       0.82 eA-3
Q178 0.215 0.843 0.121 !       0.81 eA-3
Q179 0.852 0.812 0.410 !       0.81 eA-3
C180 0.967 0.120 0.154 !       0.81 eA-3
Q181 0.844 0.787 0.466 !       0.81 eA-3
Q182 0.203 0.622 0.390 !       0.81 eA-3
Q183 0.059 0.078 0.280 !       0.80 eA-3
Q184 0.366 0.253 0.438 !       0.79 eA-3
Q185 0.424 0.653 0.145 !       0.79 eA-3
Q186 0.707 0.016 0.408 !       0.79 eA-3
Q187 0.229 0.817 0.042 !       0.79 eA-3
Q188 0.023 0.894 0.264 !       0.78 eA-3
Q189 0.613 0.485 0.342 !       0.78 eA-3
Q190 0.741 0.734 0.437 !       0.77 eA-3
C191 0.495 0.009 0.218 !       0.77 eA-3
C192 0.438 0.065 0.042 !       0.77 eA-3
Q193 0.357 0.466 0.002 !       0.76 eA-3
Q194 0.368 0.373 0.107 !       0.76 eA-3
Q195 0.053 0.219 0.106 !       0.76 eA-3
Q196 0.268 0.344 0.137 !       0.76 eA-3
Q197 0.980 0.549 0.213 !       0.75 eA-3
Q198 0.046 0.065 0.436 !       0.75 eA-3
C199 0.906 0.081 0.168 !       0.75 eA-3
)
;
_shelx_fab_checksum              90415
loop_
_space_group_symop_operation_xyz
'x, y, z'
'-x, -y, -z'
loop_
_atom_site_label
_atom_site_type_symbol
_atom_site_fract_x
_atom_site_fract_y
_atom_site_fract_z
_atom_site_U_iso_or_equiv
_atom_site_adp_type
_atom_site_occupancy
_atom_site_site_symmetry_order
_atom_site_calc_flag
_atom_site_refinement_flags_posn
_atom_site_refinement_flags_adp
_atom_site_refinement_flags_occupancy
Ag1 Ag 2.000000 0.000000 0.500000 0.03536(14) Uani 1 2 d S . P
Cl1 Cl 0.84578(19) 0.36502(10) 0.60504(11) 0.0476(3) Uani 1 1 d . . .
S1 S 1.29538(14) 0.35111(9) 0.72434(9) 0.0306(3) Uani 1 1 d . . .
F1 F 0.8362(5) 0.3774(3) 0.2711(3) 0.0662(12) Uani 1 1 d . . .
O1 O 0.5211(6) 0.4505(4) 0.3050(4) 0.0666(15) Uani 1 1 d . . .
N1 N 1.2456(4) 0.2603(3) 0.5922(3) 0.0259(8) Uani 1 1 d . U .
C1 C 1.1703(5) 0.2011(3) 0.5566(3) 0.0254(10) Uani 1 1 d . . .
Ag2 Ag 0.60628(4) 0.58085(3) 0.97637(3) 0.03513(11) Uani 1 1 d . . .
Cl2 Cl 0.70693(18) 0.47923(13) 0.46694(10) 0.0519(4) Uani 1 1 d . . .
S2 S 1.20274(14) 0.18404(9) 0.44299(8) 0.0303(3) Uani 1 1 d . . .
F2 F 0.7938(5) 0.2978(3) 0.1651(3) 0.0621(11) Uani 1 1 d . . .
O2 O 0.4598(5) 0.3527(3) 0.1951(3) 0.0457(10) Uani 1 1 d . . .
N2 N 1.0663(5) 0.1506(3) 0.5996(3) 0.0282(9) Uani 1 1 d . . .
C2 C 1.0397(5) 0.1648(3) 0.6856(3) 0.0266(10) Uani 1 1 d . . .
Cl3 Cl 0.87846(17) 0.55840(9) 0.59012(10) 0.0419(3) Uani 1 1 d . . .
S3 S 0.91027(14) 0.09642(9) 0.74166(10) 0.0343(3) Uani 1 1 d . . .
F3 F 0.6986(5) 0.2680(4) 0.2979(4) 0.0854(17) Uani 1 1 d . . .
O3 O 0.6166(5) 0.4749(3) 0.1515(3) 0.0501(11) Uani 1 1 d . . .
N3 N 1.1025(5) 0.2245(3) 0.7294(3) 0.0266(8) Uani 1 1 d . . .
C3 C 1.2031(5) 0.2697(3) 0.6788(3) 0.0259(10) Uani 1 1 d . . .
S4 S 0.56426(16) 0.41164(9) 0.21989(9) 0.0358(3) Uani 1 1 d . . .
N4 N 1.7818(5) 0.0748(3) 0.4794(3) 0.0296(9) Uani 1 1 d . U .
C4 C 1.3740(6) 0.2386(4) 0.4138(4) 0.0303(11) Uani 1 1 d . . .
H4A H 1.385852 0.252263 0.348920 0.036 Uiso 1 1 calc R U .
H4B H 1.365005 0.297297 0.443220 0.036 Uiso 1 1 calc R U .
N5 N 0.8000(5) 0.4934(3) 0.9254(3) 0.0299(9) Uani 1 1 d . . .
C5 C 1.5121(5) 0.1795(3) 0.4407(3) 0.0257(10) Uani 1 1 d . . .
N6 N 0.5593(5) 0.3196(3) 0.9623(3) 0.0301(9) Uani 1 1 d . . .
C6 C 1.5563(6) 0.0955(4) 0.4051(4) 0.0372(13) Uani 1 1 d . . .
H6 H 1.495457 0.071824 0.366329 0.045 Uiso 1 1 calc R U .
C7 C 1.6891(6) 0.0461(4) 0.4262(4) 0.0355(12) Uani 1 1 d . . .
H7 H 1.716271 -0.011696 0.401316 0.043 Uiso 1 1 calc R U .
C8 C 1.6044(6) 0.2080(4) 0.4989(4) 0.0375(12) Uani 1 1 d . . .
H8 H 1.576705 0.263889 0.527278 0.045 Uiso 1 1 calc R U .
C9 C 1.7356(6) 0.1554(4) 0.5155(4) 0.0359(12) Uani 1 1 d . . .
H9 H 1.797621 0.177240 0.554773 0.043 Uiso 1 1 calc R U .
C10 C 0.9109(6) 0.1233(4) 0.8560(4) 0.0362(12) Uani 1 1 d . . .
H10A H 0.907472 0.065898 0.893416 0.043 Uiso 1 1 calc R U .
H10B H 1.007462 0.147373 0.862981 0.043 Uiso 1 1 calc R U .
C11 C 0.7837(6) 0.1914(3) 0.8904(4) 0.0294(10) Uani 1 1 d . . .
C12 C 0.7213(7) 0.1808(4) 0.9771(4) 0.0383(13) Uani 1 1 d . . .
H12 H 0.754827 0.129043 1.013328 0.046 Uiso 1 1 calc R U .
C13 C 0.6110(6) 0.2449(4) 1.0107(4) 0.0354(12) Uani 1 1 d . . .
H13 H 0.569455 0.236523 1.070439 0.043 Uiso 1 1 calc R U .
C14 C 0.7279(6) 0.2674(4) 0.8403(4) 0.0298(11) Uani 1 1 d . . .
H14 H 0.766524 0.276579 0.780126 0.036 Uiso 1 1 calc R U .
C15 C 0.6167(6) 0.3294(4) 0.8776(3) 0.0293(10) Uani 1 1 d . . .
H15 H 0.579358 0.380873 0.842250 0.035 Uiso 1 1 calc R U .
C16 C 1.2210(6) 0.3416(4) 0.8389(4) 0.0331(11) Uani 1 1 d . U .
H16A H 1.215597 0.275920 0.855493 0.040 Uiso 1 1 calc R U .
H16B H 1.294419 0.363173 0.875021 0.040 Uiso 1 1 calc R U .
C17 C 1.0677(5) 0.3924(3) 0.8649(3) 0.0270(10) Uani 1 1 d . . .
C18 C 0.9955(6) 0.4574(4) 0.8095(3) 0.0302(11) Uani 1 1 d . . .
H18 H 1.036736 0.468410 0.750168 0.036 Uiso 1 1 calc R U .
C19 C 0.8616(6) 0.5062(4) 0.8422(4) 0.0322(11) Uani 1 1 d . U .
H19 H 0.811853 0.550449 0.803823 0.039 Uiso 1 1 calc R U .
C20 C 1.0013(6) 0.3773(4) 0.9503(3) 0.0305(11) Uani 1 1 d . . .
H20 H 1.047062 0.331956 0.989193 0.037 Uiso 1 1 calc R U .
C21 C 0.8681(6) 0.4287(4) 0.9785(4) 0.0319(11) Uani 1 1 d . . .
H21 H 0.823515 0.417919 1.037175 0.038 Uiso 1 1 calc R U .
C22 C 0.7311(7) 0.3339(4) 0.2400(4) 0.0432(14) Uani 1 1 d . . .
C42 C 0.7571(7) 0.4756(4) 0.5757(4) 0.0408(13) Uani 1 1 d . . .
H42 H 0.663078 0.487795 0.616550 0.049 Uiso 1 1 calc R U .
loop_
_atom_site_aniso_label
_atom_site_aniso_U_11
_atom_site_aniso_U_22
_atom_site_aniso_U_33
_atom_site_aniso_U_23
_atom_site_aniso_U_13
_atom_site_aniso_U_12
Ag1 0.0216(3) 0.0358(3) 0.0486(3) 0.0010(2) -0.0096(2) 0.0011(2)
Cl1 0.0557(9) 0.0348(7) 0.0512(8) 0.0061(6) -0.0113(7) 0.0010(6)
S1 0.0240(6) 0.0318(6) 0.0372(7) -0.0061(5) -0.0032(5) -0.0063(5)
F1 0.043(2) 0.081(3) 0.079(3) -0.008(2) -0.012(2) -0.019(2)
O1 0.051(3) 0.093(4) 0.057(3) -0.031(3) 0.009(2) -0.011(3)
N1 0.0173(18) 0.0270(19) 0.033(2) -0.0040(16) -0.0026(15) -0.0006(15)
C1 0.017(2) 0.025(2) 0.033(3) -0.0016(19) -0.0059(19) 0.0043(17)
Ag2 0.0264(2) 0.0433(2) 0.0371(2) -0.01318(16) -0.00093(15) -0.00565(16)
Cl2 0.0449(8) 0.0697(10) 0.0407(8) 0.0027(7) -0.0139(6) 0.0007(7)
S2 0.0230(6) 0.0371(6) 0.0312(6) -0.0081(5) -0.0032(5) -0.0004(5)
F2 0.070(3) 0.062(3) 0.051(2) -0.0096(19) -0.005(2) 0.010(2)
O2 0.046(2) 0.047(2) 0.046(2) -0.0019(19) -0.0071(19) -0.0127(19)
N2 0.021(2) 0.028(2) 0.036(2) -0.0031(17) -0.0058(17) -0.0008(16)
C2 0.020(2) 0.022(2) 0.037(3) -0.0029(19) -0.002(2) 0.0018(17)
Cl3 0.0432(8) 0.0351(7) 0.0455(7) 0.0008(6) -0.0033(6) 0.0016(5)
S3 0.0250(6) 0.0300(6) 0.0469(8) -0.0007(5) 0.0035(5) -0.0066(5)
F3 0.062(3) 0.100(4) 0.089(3) 0.063(3) -0.013(3) -0.022(3)
O3 0.046(3) 0.039(2) 0.059(3) 0.014(2) 0.011(2) -0.0031(19)
N3 0.023(2) 0.025(2) 0.031(2) -0.0057(16) -0.0024(17) -0.0015(16)
C3 0.021(2) 0.023(2) 0.033(3) -0.0061(19) -0.0045(19) 0.0039(18)
S4 0.0369(7) 0.0359(7) 0.0354(7) -0.0017(5) 0.0001(5) -0.0107(5)
N4 0.025(2) 0.029(2) 0.036(2) -0.0042(17) -0.0068(17) -0.0028(16)
C4 0.024(3) 0.034(3) 0.031(3) 0.000(2) -0.002(2) 0.000(2)
N5 0.024(2) 0.034(2) 0.033(2) -0.0062(18) -0.0041(17) -0.0052(17)
C5 0.022(2) 0.027(2) 0.027(2) 0.0020(19) 0.0016(19) -0.0018(18)
N6 0.025(2) 0.032(2) 0.035(2) -0.0063(18) -0.0032(18) -0.0071(17)
C6 0.032(3) 0.036(3) 0.045(3) -0.012(2) -0.014(2) 0.004(2)
C7 0.032(3) 0.029(3) 0.047(3) -0.009(2) -0.014(2) 0.003(2)
C8 0.031(3) 0.034(3) 0.049(3) -0.011(2) -0.005(2) -0.003(2)
C9 0.023(3) 0.038(3) 0.049(3) -0.011(2) -0.011(2) -0.002(2)
C10 0.027(3) 0.038(3) 0.040(3) 0.005(2) 0.000(2) 0.002(2)
C11 0.025(3) 0.028(2) 0.036(3) -0.001(2) -0.005(2) -0.0074(19)
C12 0.041(3) 0.033(3) 0.038(3) 0.008(2) 0.000(2) -0.004(2)
C13 0.035(3) 0.039(3) 0.031(3) 0.003(2) 0.005(2) -0.011(2)
C14 0.026(3) 0.033(3) 0.032(3) 0.001(2) -0.003(2) -0.009(2)
C15 0.025(2) 0.031(3) 0.034(3) -0.004(2) -0.008(2) -0.0062(19)
C16 0.034(2) 0.031(2) 0.035(2) -0.0028(19) -0.009(2) -0.0004(19)
C17 0.022(2) 0.029(2) 0.032(3) -0.0051(19) -0.0039(19) -0.0076(19)
C18 0.027(3) 0.036(3) 0.027(2) -0.001(2) 0.001(2) -0.004(2)
C19 0.032(2) 0.033(2) 0.032(2) -0.0024(19) -0.006(2) -0.0029(19)
C20 0.030(3) 0.031(3) 0.033(3) 0.003(2) -0.011(2) -0.010(2)
C21 0.027(3) 0.040(3) 0.030(3) -0.005(2) -0.003(2) -0.012(2)
C22 0.046(4) 0.047(3) 0.037(3) 0.007(3) -0.002(3) -0.015(3)
C42 0.041(3) 0.038(3) 0.042(3) 0.002(2) -0.008(3) 0.005(2)
loop_
_atom_type_symbol
_atom_type_description
_atom_type_scat_dispersion_real
_atom_type_scat_dispersion_imag
_atom_type_scat_source
C C 0.0181 0.0091 'International Tables Vol C Tables 4.2.6.8 and 6.1.1.4'
H H 0.0000 0.0000 'International Tables Vol C Tables 4.2.6.8 and 6.1.1.4'
Ag Ag 0.1306 4.2820 'International Tables Vol C Tables 4.2.6.8 and 6.1.1.4'
F F 0.0727 0.0534 'International Tables Vol C Tables 4.2.6.8 and 6.1.1.4'
N N 0.0311 0.0180 'International Tables Vol C Tables 4.2.6.8 and 6.1.1.4'
O O 0.0492 0.0322 'International Tables Vol C Tables 4.2.6.8 and 6.1.1.4'
S S 0.3331 0.5567 'International Tables Vol C Tables 4.2.6.8 and 6.1.1.4'
Cl Cl 0.3639 0.7018 'International Tables Vol C Tables 4.2.6.8 and 6.1.1.4'
loop_
_geom_angle_atom_site_label_1
_geom_angle_atom_site_label_2
_geom_angle_atom_site_label_3
_geom_angle
_geom_angle_site_symmetry_1
_geom_angle_site_symmetry_3
N4 Ag1 N4 180.0 2_956 .
C3 S1 C16 101.1(3) . .
C1 N1 C3 112.8(4) . .
N1 C1 N2 126.6(5) . .
N1 C1 S2 119.6(4) . .
N2 C1 S2 113.8(4) . .
N6 Ag2 N5 169.92(16) 2_667 .
N6 Ag2 Ag2 92.31(12) 2_667 2_667
N5 Ag2 Ag2 95.40(12) . 2_667
C1 S2 C4 101.4(2) . .
C2 N2 C1 113.7(4) . .
N2 C2 N3 126.1(5) . .
N2 C2 S3 113.6(4) . .
N3 C2 S3 120.3(4) . .
C2 S3 C10 103.2(3) . .
C3 N3 C2 113.7(4) . .
N3 C3 N1 127.0(4) . .
N3 C3 S1 120.2(4) . .
N1 C3 S1 112.9(4) . .
O3 S4 O2 115.6(3) . .
O3 S4 O1 114.5(3) . .
O2 S4 O1 113.8(3) . .
O3 S4 C22 104.2(3) . .
O2 S4 C22 103.8(3) . .
O1 S4 C22 102.9(3) . .
C7 N4 C9 115.8(5) . .
C7 N4 Ag1 122.1(4) . .
C9 N4 Ag1 122.0(3) . .
C5 C4 S2 112.2(4) . .
C19 N5 C21 118.5(5) . .
C19 N5 Ag2 120.9(4) . .
C21 N5 Ag2 120.5(4) . .
C6 C5 C8 116.7(5) . .
C6 C5 C4 121.3(5) . .
C8 C5 C4 122.0(5) . .
C15 N6 C13 118.0(5) . .
C15 N6 Ag2 122.6(4) . 2_667
C13 N6 Ag2 119.4(4) . 2_667
C7 C6 C5 119.8(5) . .
N4 C7 C6 123.9(5) . .
C9 C8 C5 119.9(5) . .
N4 C9 C8 123.9(5) . .
C11 C10 S3 115.4(4) . .
C12 C11 C14 117.4(5) . .
C12 C11 C10 119.3(5) . .
C14 C11 C10 123.3(5) . .
C13 C12 C11 119.9(5) . .
N6 C13 C12 122.5(5) . .
C15 C14 C11 120.1(5) . .
N6 C15 C14 122.1(5) . .
C17 C16 S1 117.7(4) . .
C18 C17 C20 118.4(5) . .
C18 C17 C16 123.2(5) . .
C20 C17 C16 118.3(5) . .
C17 C18 C19 118.9(5) . .
N5 C19 C18 122.6(5) . .
C21 C20 C17 119.6(5) . .
N5 C21 C20 122.0(5) . .
F3 C22 F2 109.0(6) . .
F3 C22 F1 107.7(6) . .
F2 C22 F1 106.6(5) . .
F3 C22 S4 111.3(5) . .
F2 C22 S4 110.7(4) . .
F1 C22 S4 111.4(5) . .
Cl2 C42 Cl3 112.1(3) . .
Cl2 C42 Cl1 110.2(3) . .
Cl3 C42 Cl1 109.3(3) . .
loop_
_geom_bond_atom_site_label_1
_geom_bond_atom_site_label_2
_geom_bond_distance
_geom_bond_site_symmetry_2
Ag1 N4 2.176(4) 2_956
Ag1 N4 2.176(4) .
Cl1 C42 1.781(6) .
S1 C3 1.747(5) .
S1 C16 1.800(6) .
F1 C22 1.338(7) .
O1 S4 1.446(5) .
N1 C1 1.333(6) .
N1 C3 1.342(6) .
C1 N2 1.349(7) .
C1 S2 1.749(5) .
Ag2 N6 2.147(4) 2_667
Ag2 N5 2.148(4) .
Ag2 Ag2 3.2191(8) 2_667
Cl2 C42 1.751(6) .
S2 C4 1.816(5) .
F2 C22 1.330(8) .
O2 S4 1.440(4) .
N2 C2 1.329(7) .
C2 N3 1.340(6) .
C2 S3 1.744(5) .
Cl3 C42 1.763(7) .
S3 C10 1.806(6) .
F3 C22 1.306(7) .
O3 S4 1.430(4) .
N3 C3 1.333(7) .
S4 C22 1.817(7) .
N4 C7 1.336(7) .
N4 C9 1.343(7) .
C4 C5 1.507(7) .
N5 C19 1.337(7) .
N5 C21 1.343(7) .
C5 C6 1.381(7) .
C5 C8 1.386(8) .
N6 C15 1.340(7) .
N6 C13 1.349(7) .
C6 C7 1.378(7) .
C8 C9 1.370(8) .
C10 C11 1.505(7) .
C11 C12 1.384(8) .
C11 C14 1.387(7) .
C12 C13 1.369(8) .
C14 C15 1.376(7) .
C16 C17 1.516(7) .
C17 C18 1.381(7) .
C17 C20 1.385(7) .
C18 C19 1.389(7) .
C20 C21 1.383(8) .
