#------------------------------------------------------------------------------
#$Date: 2019-10-28 18:13:19 +0200 (Mon, 28 Oct 2019) $
#$Revision: 220234 $
#$URL: file:///home/coder/svn-repositories/cod/cif/4/51/51/4515120.cif $
#------------------------------------------------------------------------------
#
# This file is available in the Crystallography Open Database (COD),
# http://www.crystallography.net/
#
# All data on this site have been placed in the public domain by the
# contributors.
#
data_4515120
loop_
_publ_author_name
'Wu, Bowei'
'Wong, Y. T. Angel'
'Lucier, Bryan E. G.'
'Boyle, Paul D.'
'Huang, Yining'
_publ_section_title
;
 Exploring Host-Guest Interactions in the
 \a-Zn<sub>3</sub>(HCOO)<sub>6</sub> Metal-Organic Framework.
;
_journal_issue                   2
_journal_name_full               'ACS omega'
_journal_page_first              4000
_journal_page_last               4011
_journal_paper_doi               10.1021/acsomega.8b03623
_journal_volume                  4
_journal_year                    2019
_chemical_formula_sum            'C6.25 H6 O12.5 Zn3'
_chemical_formula_weight         477.22
_space_group_crystal_system      monoclinic
_space_group_IT_number           14
_space_group_name_Hall           '-P 2yn'
_space_group_name_H-M_alt        'P 1 21/n 1'
_symmetry_space_group_name_Hall  '-P 2yn'
_symmetry_space_group_name_H-M   'P 1 21/n 1'
_atom_sites_solution_hydrogens   difmap
_atom_sites_solution_primary     isomor
_atom_sites_solution_secondary   difmap
_audit_creation_method           SHELXL-2014/7
_cell_angle_alpha                90
_cell_angle_beta                 91.297(5)
_cell_angle_gamma                90
_cell_formula_units_Z            4
_cell_length_a                   11.3261(15)
_cell_length_b                   9.8210(14)
_cell_length_c                   14.4412(19)
_cell_measurement_reflns_used    9044
_cell_measurement_temperature    120
_cell_measurement_theta_max      67.59
_cell_measurement_theta_min      3.06
_cell_volume                     1605.9(4)
_computing_cell_refinement       SAINT
_computing_data_collection       Apex2
_computing_data_reduction        SAINT
_computing_molecular_graphics    NRCVAX
_computing_publication_material  cif2tables.py
_computing_structure_refinement  SHELXL-2014
_diffrn_ambient_temperature      120
_diffrn_detector                 'CCD plate'
_diffrn_detector_type            'Bruker Apex2'
_diffrn_measured_fraction_theta_full 0.973
_diffrn_measured_fraction_theta_max 0.973
_diffrn_measurement_device       '\k-geometry diffractometer'
_diffrn_measurement_device_type  'Bruker-Nonius KappaCCD Apex2'
_diffrn_measurement_method       'phi and omega scans'
_diffrn_radiation_type           CuK\a
_diffrn_radiation_wavelength     1.54178
_diffrn_reflns_av_unetI/netI     0.0179
_diffrn_reflns_Laue_measured_fraction_full 0.973
_diffrn_reflns_Laue_measured_fraction_max 0.973
_diffrn_reflns_limit_h_max       13
_diffrn_reflns_limit_h_min       -13
_diffrn_reflns_limit_k_max       11
_diffrn_reflns_limit_k_min       0
_diffrn_reflns_limit_l_max       17
_diffrn_reflns_limit_l_min       0
_diffrn_reflns_number            5024
_diffrn_reflns_point_group_measured_fraction_full 0.973
_diffrn_reflns_point_group_measured_fraction_max 0.973
_diffrn_reflns_theta_full        67.585
_diffrn_reflns_theta_max         67.585
_diffrn_reflns_theta_min         5.964
_diffrn_source                   'sealed tube'
_exptl_absorpt_coefficient_mu    5.787
_exptl_absorpt_correction_T_max  0.466764
_exptl_absorpt_correction_T_min  0.190615
_exptl_absorpt_correction_type   multi-scan
_exptl_absorpt_process_details   SADABS
_exptl_crystal_colour            colourless
_exptl_crystal_density_diffrn    1.974
_exptl_crystal_description       prism
_exptl_crystal_F_000             934
_exptl_crystal_size_max          0.657
_exptl_crystal_size_mid          0.617
_exptl_crystal_size_min          0.177
_refine_diff_density_max         0.559
_refine_diff_density_min         -0.724
_refine_diff_density_rms         0.107
_refine_ls_extinction_method     none
_refine_ls_goodness_of_fit_ref   1.224
_refine_ls_hydrogen_treatment    refall
_refine_ls_matrix_type           full
_refine_ls_number_parameters     245
_refine_ls_number_reflns         5024
_refine_ls_number_restraints     12
_refine_ls_restrained_S_all      1.223
_refine_ls_R_factor_all          0.0306
_refine_ls_R_factor_gt           0.0303
_refine_ls_shift/su_max          0.000
_refine_ls_shift/su_mean         0.000
_refine_ls_structure_factor_coef Fsqd
_refine_ls_weighting_details
'w=1/[\s^2^(Fo^2^)+(0.0507P)^2^+2.3833P] where P=(Fo^2^+2Fc^2^)/3'
_refine_ls_weighting_scheme      calc
_refine_ls_wR_factor_gt          0.0986
_refine_ls_wR_factor_ref         0.0992
_reflns_Friedel_coverage         0.000
_reflns_number_gt                4992
_reflns_number_total             5024
_reflns_threshold_expression     'I > 2\s(I)'
_cod_data_source_file            ao8b03623_si_002.cif
_cod_data_source_block           n17100
_cod_original_formula_sum        'C6.25 H6 O12.50 Zn3'
_cod_database_code               4515120
_shelx_shelxl_version_number     2014/7
_shelx_space_group_comment
;
The symmetry employed for this shelxl refinement is uniquely defined
by the following loop, which should always be used as a source of
symmetry information in preference to the above space-group names.
They are only intended as comments.
;
_shelx_estimated_absorpt_t_min   0.115
_shelx_estimated_absorpt_t_max   0.427
_shelx_res_file
;

    n17100.res created by SHELXL-2014/7


TITL n17100: 110K
CELL 1.54178 11.32608    9.82102   14.44120   90.0000   91.2973   90.0000
ZERR     4    0.00152    0.00136    0.00190    0.0000    0.0048    0.0000
LATT  1
SYMM 1/2-X, 1/2+Y, 1/2-Z
SFAC  C  H   O   ZN
UNIT 25 24  50   12
TEMP -153
SIZE 0.177 0.617 0.657
ACTA
REM omit reflections either blocked by the beamstop or on the
REM edge of the detector.
OMIT -1   0   1
OMIT  1   0   1
OMIT  1   0   1
OMIT  0   1   1
OMIT  0   1   1
REM omit these because they to far out of their predicted position
REM and probably didn't integrate well.
OMIT  11   0   9
OMIT   8   2  11
OMIT   4  10   5
OMIT   4  10   5
OMIT  -4  10   6
OMIT  -6  10   1
OMIT -13   1   4
OMIT -11   1   9
OMIT   5  10   5
OMIT   3   8  10
MERG 0
DFIX 1.16 0.005 C1X O1X C1X O2X
DFIX 2.32 0.02 O1X O2X
RIGU C1X O1X O2X
L.S. 12 4
FMAP  2
PLAN 35
BOND $H
CONF
REM Instructions for potential hydrogen bonds
EQIV $1 x-1/2, -y+1/2, z-1/2
HTAB C3 O8_$1
EQIV $2 -x+1/2, y+1/2, -z+1/2
HTAB C4 O6_$2
EQIV $3 -x+1/2, y-1/2, -z+1/2
HTAB C6 O4_$3
REM 0.24961  converged occupancy for CO2 molecule 0.2496(141)
WGHT    0.050700    2.383300
BASF   0.40046
FVAR       0.42204
MOLE 1
ZN1   4    0.243313    0.077563    0.368321    11.00000    0.00996    0.00970 =
         0.00981    0.00060    0.00347    0.00014
ZN2   4    0.240500    0.391261    0.312997    11.00000    0.01153    0.01013 =
         0.01057    0.00103    0.00315   -0.00007
ZN3   4    0.500000    0.000000    0.500000    10.50000    0.00898    0.01468 =
         0.01264    0.00131    0.00195   -0.00063
ZN4   4    0.000000    0.000000    0.500000    10.50000    0.01042    0.01342 =
         0.01327    0.00160    0.00582   -0.00139
O1    3    0.315677   -0.027421    0.476916    11.00000    0.01178    0.01678 =
         0.01274    0.00291    0.00384   -0.00190
C1    1    0.257235   -0.105694    0.530595    11.00000    0.01708    0.01273 =
         0.01181    0.00314    0.00122   -0.00021
H1    2    0.299879   -0.157534    0.569393    11.00000    0.00413
O2    3    0.149581   -0.114094    0.533884    11.00000    0.01050    0.01885 =
         0.02231    0.00625    0.00638   -0.00126
O3    3    0.102477    0.155148    0.439546    11.00000    0.01277    0.00908 =
         0.01576    0.00153    0.00725    0.00121
C2    1    0.070647    0.278594    0.448841    11.00000    0.01162    0.02318 =
         0.01237    0.00057    0.00342    0.00033
H2    2    0.002887    0.291969    0.491185    11.00000    0.00577
O4    3    0.111759    0.379176    0.408805    11.00000    0.01783    0.01328 =
         0.01822    0.00231    0.00759    0.00022
O5    3    0.191865    0.199380    0.254189    11.00000    0.01506    0.00918 =
         0.01190   -0.00031    0.00232   -0.00100
C3    1    0.169926    0.171957    0.169666    11.00000    0.01490    0.01442 =
         0.01054    0.00132   -0.00107    0.00240
H3    2    0.138305    0.248971    0.135820    11.00000    0.00815
O6    3    0.183275    0.060643    0.131111    11.00000    0.01941    0.01256 =
         0.01438   -0.00305   -0.00102    0.00140
O7    3    0.347188    0.255374    0.390484    11.00000    0.01040    0.01546 =
         0.01119    0.00135    0.00032    0.00065
C4    1    0.422224    0.288337    0.453278    11.00000    0.01550    0.01424 =
         0.01994   -0.00130    0.00124   -0.00298
H4    2    0.437744    0.391590    0.460136    11.00000    0.04471
O8    3    0.481369    0.209213    0.502377    11.00000    0.01741    0.01745 =
         0.02156    0.00058   -0.00341    0.00117
O9    3    0.149404   -0.083191    0.304875    11.00000    0.01165    0.01236 =
         0.01370   -0.00137    0.00419   -0.00169
C5    1    0.045785   -0.129376    0.313345    11.00000    0.01562    0.01686 =
         0.01470   -0.00327    0.00403   -0.00563
H5    2    0.016626   -0.189191    0.269447    11.00000    0.00840
O10   3   -0.023439   -0.104406    0.376068    11.00000    0.01499    0.02421 =
         0.01778   -0.00213    0.00811   -0.00582
O11   3    0.370012   -0.006861    0.280391    11.00000    0.01120    0.01139 =
         0.01436   -0.00254    0.00466    0.00023
C6    1    0.481371   -0.014875    0.287811    11.00000    0.01331    0.01762 =
         0.01000    0.00046    0.00311   -0.00067
H6    2    0.524502   -0.039752    0.233931    11.00000    0.03058
O12   3    0.541056    0.003527    0.359648    11.00000    0.01341    0.03026 =
         0.01396    0.00166    0.00157    0.00017
MOLE 2
C1X   1   -0.255412   -0.250507    0.300283    10.25000    0.03550    0.25938 =
         0.11795    0.08134    0.02003    0.02224
O1X   3   -0.259679   -0.298427    0.373625    10.25000    0.07119    0.20198 =
         0.10038    0.05146    0.02394    0.01272
O2X   3   -0.244872   -0.173251    0.240170    10.25000    0.05582    0.19671 =
         0.07385    0.02519   -0.00005   -0.00653
MOLE 0
HKLF 5

REM  n17100: 110K
REM R1 =  0.0303 for    4992 Fo > 4sig(Fo)  and  0.0306 for all    5024 data
REM    245 parameters refined using     12 restraints

END

WGHT      0.0508      2.3822

REM Highest difference peak  0.559,  deepest hole -0.724,  1-sigma level  0.107
Q1    1   0.3358  0.0465  0.3042  11.00000  0.05    0.56
Q2    1  -0.3854 -0.3515  0.2869  11.00000  0.05    0.48
Q3    1  -0.0835 -0.0050  0.5803  11.00000  0.05    0.45
Q4    1   0.1774 -0.0964  0.2642  11.00000  0.05    0.42
Q5    1   0.2184  0.2657  0.2597  11.00000  0.05    0.40
Q6    1   0.1636  0.1240  0.4366  11.00000  0.05    0.38
Q7    1   0.3360  0.1515  0.3104  11.00000  0.05    0.38
Q8    1   0.3229 -0.0264  0.2377  11.00000  0.05    0.37
Q9    1  -0.3736 -0.4233  0.3415  11.00000  0.05    0.37
Q10   1   0.2017  0.1725  0.4004  11.00000  0.05    0.36
Q11   1   0.1587  0.3254  0.3782  11.00000  0.05    0.36
Q12   1   0.1480  0.4094  0.3798  11.00000  0.05    0.36
Q13   1   0.2995 -0.2164  0.5464  11.00000  0.05    0.34
Q14   1   0.0739  0.0018  0.1043  11.00000  0.05    0.34
Q15   1   0.3268  0.1012  0.4067  11.00000  0.05    0.33
Q16   1  -0.3239 -0.3194  0.2649  11.00000  0.05    0.33
Q17   1   0.3798 -0.0259  0.3554  11.00000  0.05    0.33
Q18   1   0.0392 -0.2832  0.2446  11.00000  0.05    0.33
Q19   1   0.3361 -0.1005  0.6597  11.00000  0.05    0.32
Q20   1   0.4071  0.2719  0.3984  11.00000  0.05    0.32
Q21   1   0.2819 -0.2007  0.5273  11.00000  0.05    0.31
Q22   1   0.3472 -0.0701  0.2984  11.00000  0.05    0.31
Q23   1   0.2818 -0.0559  0.4855  11.00000  0.05    0.30
Q24   1   0.5325  0.1181  0.4159  11.00000  0.05    0.30
Q25   1   0.5800 -0.0304  0.4231  11.00000  0.05    0.30
Q26   1   0.4901  0.3313  0.5613  11.00000  0.05    0.29
Q27   1   0.3437  0.0984  0.2316  11.00000  0.05    0.29
Q28   1   0.1055  0.4741  0.5064  11.00000  0.05    0.29
Q29   1   0.3377  0.2040  0.2421  11.00000  0.05    0.29
Q30   1   0.0613 -0.3533  0.3077  11.00000  0.05    0.29
Q31   1   0.3749  0.0988  0.4997  11.00000  0.05    0.29
Q32   1   0.4173  0.1526  0.3843  11.00000  0.05    0.29
Q33   1   0.0812  0.1189  0.0831  11.00000  0.05    0.28
Q34   1   0.0570  0.1082  0.4379  11.00000  0.05    0.28
Q35   1   0.4030 -0.0743  0.4077  11.00000  0.05    0.28
;
_shelx_res_checksum              95402
_shelx_hkl_file
;
   1   0   0 1.10770 0.07313   2
   1   0   0 1.23373 0.06785   1
   2   0   0 473.213 4.96719   2
   2   0   0 637.354 7.11540   1
   3   0   0 4.10336 0.35446   1
   3   0   0 0.71200 0.11557   2
  -1   0   5 5176.10 74.4141  -2
   4   0   0 5176.10 74.4141   1
   5   0   0 0.76062 0.15504   2
   5   0   0 2.05078 0.19188   1
   6   0   0 6.52664 0.38155   1
   6   0   0 3.78588 0.30276   2
   7   0   0 1.14311 0.23198   2
   7   0   0 2.15703 0.76180   1
  -2   0  10 4120.33 73.1942  -2
   8   0   0 4120.33 73.1942   1
   9   0   0 1.00963 0.31187   2
   9   0   0 0.57171 0.35566   1
  10   0   0 166.825 3.00264   2
  10   0   0 282.764 4.75674   1
  11   0   0 1.39715 0.39570   1
  11   0   0 0.47143 0.31587   2
  -3   0  15 1544.59 59.6677  -2
  12   0   0 1544.59 59.6677   1
  13   0   0 0.61968 0.34538   1
  13   0   0 1.24402 0.46096   2
   0   1   0 1.41140 0.61313   1
   1   1   0 5.59854 0.11189   1
   1   1   0 3.70792 0.07646   2
   2   1   0 77.0807 0.69772   2
   2   1   0 109.935 0.97145   1
   3   1   0 140.617 1.24602   2
   3   1   0 199.769 1.73269   1
  -1   1   5 155.487 1.71822  -2
   4   1   0 155.487 1.71822   1
   5   1   0 3.66570 0.20980   1
   5   1   0 2.41759 0.18565   2
   6   1   0 161.382 1.67976   1
   6   1   0 108.409 1.29609   2
   7   1   0 7.78649 0.39017   2
   7   1   0 11.4572 0.47522   1
  -2   1  10 604.204 7.18316  -2
   8   1   0 604.204 7.18316   1
   9   1   0 46.9922 0.79803   2
   9   1   0 69.6406 1.50169   1
  -2   1  11 1802.85 73.8588  -2
   9   1   0 1802.85 73.8588   1
  10   1   0 26.3684 0.64860   2
  10   1   0 42.4263 0.95059   1
  11   1   0 11.7185 0.68912   1
  11   1   0 6.11278 0.43141   2
  -3   1  15 25.1334 1.42189  -2
  12   1   0 25.1334 1.42189   1
  13   1   0 13.7032 0.79087   1
  13   1   0 9.34279 0.64779   2
   0   2   0 5055.05 137.835  -2
   0   2   0 5055.05 137.835   1
   1   2   0 246.228 3.03343   2
   1   2   0 328.527 4.71624   1
   2   2   0 42.8050 0.48251   2
   2   2   0 60.0313 0.65360   1
   3   2   0 13.8350 0.23316   2
   3   2   0 19.4948 0.28650   1
  -1   2   5 2386.50 25.7404  -2
   4   2   0 2386.50 25.7404   1
   5   2   0 8.96358 0.34457   1
   5   2   0 5.89446 0.28951   2
   6   2   0 221.525 2.50622   1
   6   2   0 146.681 1.89601   2
   7   2   0 94.4561 1.34938   1
   7   2   0 61.5709 0.96681   2
  -2   2  10 1690.91 18.0907  -2
   8   2   0 1690.91 18.0907   1
   9   2   0 65.4476 1.19507   1
   9   2   0 44.4214 0.81787   2
  10   2   0 7.51639 0.39110   2
  10   2   0 13.3384 0.63555   1
  11   2   0 73.6822 1.58041   1
  11   2   0 45.3664 1.15273   2
  -3   2  15 247.375 6.38117  -2
  12   2   0 247.375 6.38117   1
  13   2   0 40.5632 1.18403   1
  13   2   0 23.5242 0.94112   2
   0   3   0 2.88349 0.14255   1
   1   3   0 694.648 9.18272   2
   1   3   0 989.962 13.6549   1
   2   3   0 185.388 2.37472   1
   2   3   0 127.549 1.88059   2
   3   3   0 109.248 1.32359   1
   3   3   0 75.1020 1.01189   2
  -1   3   5 80.6577 1.28900  -2
   4   3   0 80.6577 1.28900   1
   5   3   0 4.59701 0.27619   1
   5   3   0 3.05387 0.25742   2
   6   3   0 201.197 2.71341   2
   6   3   0 299.436 3.74061   1
   7   3   0 31.6926 0.79699   2
   7   3   0 49.4357 1.02632   1
  -2   3  10 207.164 2.79379  -2
   8   3   0 207.164 2.79379   1
   9   3   0 83.8027 1.44915   1
   9   3   0 56.9132 0.93574   2
  10   3   0 315.183 3.94128   1
  10   3   0 201.219 2.89677   2
  11   3   0 12.0614 0.56196   2
  11   3   0 20.8323 0.81601   1
  -3   3  15 167.635 3.18942  -2
  12   3   0 167.635 3.18942   1
  13   3   0 38.7585 2.68204   2
  13   3   0 58.3118 2.53871   1
  -3   3  16 66.7372 3.80506  -2
  13   3   0 66.7372 3.80506   1
   0   4   0 25.9890 1.33271  -2
   0   4   0 25.9890 1.33271   1
   1   4   0 3.71592 0.21493   1
   1   4   0 2.19484 0.16863   2
   2   4   0 3924.79 52.9830   1
   2   4   0 2677.55 37.0561   2
   3   4   0 163.837 2.24916   1
   3   4   0 111.917 1.66985   2
  -1   4   5 721.220 10.9483  -2
   4   4   0 721.220 10.9483   1
   5   4   0 460.447 5.66581   1
   5   4   0 292.764 4.72923   2
   6   4   0 1866.60 24.8068   2
   6   4   0 2780.87 31.8692   1
   7   4   0 94.1679 1.62728   2
   7   4   0 145.315 2.22000   1
  -2   4  10 396.696 5.01427  -2
   8   4   0 396.696 5.01427   1
   9   4   0 12.5570 0.46577   2
   9   4   0 18.7683 0.67864   1
  -2   4  11 41.6262 3.51237  -2
   9   4   0 41.6262 3.51237   1
  10   4   0 612.034 8.74053   2
  10   4   0 919.413 10.1612   1
  11   4   0 61.3179 1.38509   2
  11   4   0 102.408 2.18950   1
  -3   4  15 48.3324 1.17937  -2
  12   4   0 48.3324 1.17937   1
   1   5   0 545.972 18.8036   1
   1   5   0 378.610 15.9649   2
   2   5   0 22.6536 0.72896   2
   2   5   0 31.9290 0.99836   1
   3   5   0 143.182 2.75412   1
   3   5   0 95.7460 2.69617   2
  -1   5   5 233.488 4.71225  -2
   4   5   0 233.488 4.71225   1
   5   5   0 49.4359 1.33452   1
   5   5   0 35.1117 1.08529   2
   6   5   0 144.623 2.95364   1
   6   5   0 102.776 2.15916   2
   7   5   0 166.490 2.07509   2
   7   5   0 237.490 3.14697   1
  -2   5  10 134.739 2.45132  -2
   8   5   0 134.739 2.45132   1
   9   5   0 35.2988 0.75673   2
   9   5   0 53.2273 1.20780   1
  10   5   0 2.08111 0.25608   2
  10   5   0 3.43265 0.43458   1
  11   5   0 8.08878 0.52585   2
  11   5   0 14.5635 0.81365   1
  -3   5  15 79.3826 2.90571  -2
  12   5   0 79.3826 2.90571   1
   0   6   0 227.985 15.8709  -2
   0   6   0 227.985 15.8709   1
   1   6   0 886.082 49.0196   1
   1   6   0 624.660 35.9128   2
   2   6   0 2640.99 59.0916   2
   2   6   0 3415.74 79.8716   1
   3   6   0 691.214 14.3830   1
   3   6   0 487.455 10.0589   2
  -1   6   5 1170.97 26.9445  -2
   4   6   0 1170.97 26.9445   1
   5   6   0 219.046 5.04224   1
   5   6   0 160.389 6.07047   2
   6   6   0 1080.08 16.4069   2
   6   6   0 1593.83 23.4347   1
   7   6   0 124.624 2.30983   2
   7   6   0 186.803 3.34524   1
  -2   6  10 204.933 4.45982  -2
   8   6   0 204.933 4.45982   1
   9   6   0 275.697 5.67972   1
   9   6   0 172.696 3.06437   2
  -2   6  11 282.417 12.0380  -2
   9   6   0 282.417 12.0380   1
  10   6   0 1347.50 20.8470   1
  10   6   0 848.382 12.6031   2
  11   6   0 62.8351 1.80794   1
  11   6   0 36.4522 1.08084   2
   0   7   0 0.35113 0.73283   1
   1   7   0 34.9677 1.32892   2
   1   7   0 50.5126 1.55874   1
   2   7   0 157.593 3.21102   1
   2   7   0 108.715 2.90832   2
   3   7   0 164.918 3.21283   2
   3   7   0 230.413 3.95386   1
  -1   7   5 177.678 3.86699  -2
   4   7   0 177.678 3.86699   1
   5   7   0 61.3300 2.01750   1
   5   7   0 40.9854 1.61158   2
   6   7   0 54.3818 1.89778   1
   6   7   0 33.7079 1.37272   2
   7   7   0 6.86178 0.82136   1
   7   7   0 5.18469 0.70963   2
  -2   7  10 238.079 5.25750  -2
   8   7   0 238.079 5.25750   1
  -2   7  11 22.7548 2.34626  -2
   9   7   0 22.7548 2.34626   1
   9   7   0 5.99452 0.48841   2
   9   7   0 12.1260 1.24752   1
  10   7   0 119.597 2.34690   2
  10   7   0 189.688 3.69952   1
   0   8   0 1131.20 28.0722  -2
   0   8   0 1131.20 28.0722   1
   1   8   0 26.9491 1.14925   2
   1   8   0 37.2601 1.26949   1
   2   8   0 612.796 8.51419   1
   2   8   0 426.736 7.31153   2
   3   8   0 21.6474 0.93229   1
   3   8   0 15.4593 0.89941   2
  -1   8   5 148.168 3.56833  -2
   4   8   0 148.168 3.56833   1
   5   8   0 11.5499 1.29923   1
   5   8   0 9.08000 0.72512   2
   6   8   0 109.990 2.66167   2
   6   8   0 167.285 3.79902   1
   7   8   0 83.3040 2.33018   1
   7   8   0 56.5585 1.80314   2
  -2   8  10 370.567 7.65263  -2
   8   8   0 370.567 7.65263   1
   9   8   0 2.93834 0.47701   1
  -2   8  11 7.60525 1.51779  -2
   9   8   0 7.60525 1.51779   1
   9   8   0 2.79960 0.33578   2
   0   9   0 2.12829 1.07720   1
   1   9   0 74.5319 2.54706   1
   1   9   0 53.0665 1.92026   2
   2   9   0 5.86252 0.77295   1
   2   9   0 9.19441 0.93792   2
   3   9   0 30.3521 1.72996   1
   3   9   0 23.3598 1.54712   2
  -1   9   5 61.8629 1.99813  -2
   4   9   0 61.8629 1.99813   1
   5   9   0 12.6444 1.10101   2
   5   9   0 17.4177 1.08728   1
   6   9   0 39.4671 1.66900   2
   6   9   0 62.0998 2.42873   1
   7   9   0 22.8483 1.23628   2
   7   9   0 37.9677 1.74590   1
  -2   9   9 127.758 5.93596  -2
   7   9   0 127.758 5.93596   1
  -2   9  10 117.680 4.12175  -2
   8   9   0 117.680 4.12175   1
   0  10   0 2138.90 51.2471  -2
   0  10   0 2138.90 51.2471   1
   1  10   0 656.918 12.9700   2
   1  10   0 902.019 16.3371   1
   2  10   0 7.91576 0.96327   2
   2  10   0 6.61351 0.92637   1
   3  10   0 147.382 4.30118   2
   3  10   0 202.591 6.64132   1
  -1  10   5 716.855 22.1283  -2
   4  10   0 716.855 22.1283   1
   5  10   0 198.642 7.39405   2
   5  10   0 269.832 9.83647   1
   6  10   0 0.54012 0.37120   2
   6  10   0 2.54237 1.18379   1
   7  10   0 164.422 8.46065   1
   0  11   0 2.36300 1.20673   1
   1  11   0 1.48233 0.89045   1
   1  11   0 1.21163 0.59407   2
   2  11   0 5.08545 1.58808   1
   2  11   0 4.21363 1.23966   2
   3  11   0 4.81568 1.52696   1
   3  11   0 2.09645 0.94841   2
  -1  11   5 191.839 9.23197  -2
   4  11   0 191.839 9.23197   1
 -12   0   1 0.51981 0.44111   1
 -12   0   1 1.09611 0.46750   2
 -11   0   1 88.1238 2.04879   1
 -11   0   1 58.0819 2.07806   2
 -10   0   1 0.85557 0.24672   2
 -10   0   1 1.70748 0.41534   1
  -3   0  11 119.023 3.26262  -2
  -9   0   1 119.023 3.26262   1
  -8   0   1 1.63822 0.27963   2
  -8   0   1 1.64324 0.35228   1
  -7   0   1 562.580 6.78556   1
  -7   0   1 383.756 5.20622   2
  -6   0   1 1.31129 0.20424   1
  -6   0   1 0.91877 0.17844   2
  -2   0   6 1080.51 12.3853  -2
  -5   0   1 1080.51 12.3853   1
  -4   0   1 1.97958 0.22531   1
  -4   0   1 1.79608 0.20108   2
  -3   0   1 1149.90 13.4574   1
  -3   0   1 775.875 9.40500   2
  -2   0   1 2.63178 0.31239   2
  -2   0   1 3.86315 0.28946   1
  -1   0   1 9999.99 121.685  -2
  -1   0   1 9999.99 121.685   1
   0   0   1 0.96284 0.05908   2
   0   0   1 2.32042 0.10661   1
   1   0   1 5447.20 63.9114   2
   1   0   1 6937.78 104.588   1
   2   0   1 0.93839 0.07379   2
   2   0   1 1.19937 0.08725   1
   0   0   4 1328.15 16.9531  -2
   3   0   1 1328.15 16.9531   1
   4   0   1 1.17316 0.17500   1
   4   0   1 1.14759 0.15535   2
   5   0   1 15.0378 0.44893   1
   5   0   1 11.2925 0.35836   2
   6   0   1 1.48160 0.20528   1
   6   0   1 0.80654 0.15239   2
  -1   0   9 1142.77 18.1416  -2
   7   0   1 1142.77 18.1416   1
   8   0   1 0.53503 0.24087   2
   8   0   1 0.77265 0.34529   1
   9   0   1 1294.21 19.2403   1
   9   0   1 884.954 12.4073   2
  10   0   1 0.43913 0.24050   2
  10   0   1 1.86567 0.37284   1
  -2   0  14 1686.85 38.4010  -2
  11   0   1 1686.85 38.4010   1
  12   0   1 0.34447 0.30423   2
  12   0   1 1.68097 0.70486   1
  13   0   1 262.317 7.58638   2
  13   0   1 415.992 9.80868   1
 -12   1   1 280.075 4.50573   1
 -12   1   1 182.586 4.75881   2
 -11   1   1 11.4482 0.55313   2
 -11   1   1 20.5616 0.78293   1
 -10   1   1 268.653 3.60080   1
 -10   1   1 169.401 2.26448   2
  -3   1  12 445.205 13.7552  -2
 -10   1   1 445.205 13.7552   1
  -3   1  11 343.053 4.77083  -2
  -9   1   1 343.053 4.77083   1
  -8   1   1 550.355 5.47058   1
  -8   1   1 364.216 3.56383   2
  -7   1   1 539.011 5.04341   2
  -7   1   1 810.463 7.38965   1
  -6   1   1 181.101 1.96688   2
  -6   1   1 267.238 2.55510   1
  -2   1   6 1015.23 10.0799  -2
  -5   1   1 1015.23 10.0799   1
  -4   1   1 2250.64 20.8006   1
  -4   1   1 1508.75 14.3187   2
  -3   1   1 107.457 1.09895   1
  -3   1   1 74.0071 0.82485   2
  -2   1   1 506.356 4.22321   1
  -2   1   1 350.804 3.08784   2
  -1   1   1 1074.37 8.92049  -2
  -1   1   1 1074.37 8.92049   1
   0   1   1 4386.53 43.3444   1
   0   1   1 3080.97 33.0814   2
   1   1   1 390.445 2.96055   2
   1   1   1 545.609 4.29583   1
   2   1   1 1027.44 8.68635   1
   2   1   1 732.751 5.88823   2
   0   1   4 1198.17 10.6062  -2
   3   1   1 1198.17 10.6062   1
   4   1   1 1484.92 13.3559   1
   4   1   1 1089.60 9.85772   2
   5   1   1 183.756 1.86003   2
   5   1   1 259.724 2.51983   1
   6   1   1 714.001 6.63082   2
   6   1   1 1047.35 9.14564   1
  -1   1   9 27.5964 0.79989  -2
   7   1   1 27.5964 0.79989   1
   8   1   1 1059.60 10.3593   1
   8   1   1 729.810 7.05201   2
   9   1   1 3.77339 0.31497   2
   9   1   1 5.02553 0.39061   1
  10   1   1 6.39495 0.45194   1
  10   1   1 4.70645 0.32482   2
  -2   1  14 109.932 2.48611  -2
  11   1   1 109.932 2.48611   1
  12   1   1 256.078 4.53341   1
  12   1   1 161.772 3.86318   2
  -2   1  15 487.162 20.5385  -2
  12   1   1 487.162 20.5385   1
  13   1   1 22.0172 0.99805   1
  13   1   1 14.9124 0.99769   2
  -4   2  16 139.352 4.06410  -2
 -13   2   1 139.352 4.06410   1
 -12   2   1 12.4864 0.78866   1
 -12   2   1 8.06270 0.51243   2
 -11   2   1 0.96652 0.21333   2
 -11   2   1 1.27170 0.30558   1
 -10   2   1 44.1266 0.86585   2
 -10   2   1 70.7263 1.33792   1
  -3   2  12 216.692 10.2340  -2
 -10   2   1 216.692 10.2340   1
  -3   2  11 93.6791 1.73789  -2
  -9   2   1 93.6791 1.73789   1
  -8   2   1 223.078 2.49676   2
  -8   2   1 337.809 3.55768   1
  -7   2   1 658.579 6.51658   1
  -7   2   1 426.782 4.49040   2
  -6   2   1 154.140 1.94878   1
  -6   2   1 98.4435 1.36857   2
  -2   2   6 445.435 5.04240  -2
  -5   2   1 445.435 5.04240   1
  -4   2   1 3.16943 0.23154   1
  -4   2   1 2.78347 0.19511   2
  -3   2   1 573.414 5.20669   1
  -3   2   1 392.580 3.66813   2
  -2   2   1 478.632 4.50847   1
  -2   2   1 327.395 3.11431   2
  -1   2   1 618.275 6.67787  -2
  -1   2   1 618.275 6.67787   1
   0   2   1 308.782 3.54601   1
   0   2   1 214.715 2.67274   2
   1   2   1 387.116 4.19415   1
   1   2   1 277.816 2.76682   2
   2   2   1 4.69518 0.13492   1
   2   2   1 3.40280 0.09187   2
   0   2   4 374.987 3.54632  -2
   3   2   1 374.987 3.54632   1
   4   2   1 204.014 2.24186   2
   4   2   1 290.705 3.23557   1
   5   2   1 80.7491 1.06521   1
   5   2   1 57.9487 0.86042   2
   6   2   1 2.16686 0.21725   2
   6   2   1 3.82585 0.26039   1
  -1   2   8 1993.55 75.4571  -2
   6   2   1 1993.55 75.4571   1
  -1   2   9 191.061 2.59823  -2
   7   2   1 191.061 2.59823   1
   8   2   1 10.7370 0.53022   1
   8   2   1 6.47573 0.35578   2
  -1   2  10 411.444 17.4684  -2
   8   2   1 411.444 17.4684   1
   9   2   1 208.660 2.51028   2
   9   2   1 314.833 3.92998   1
  10   2   1 40.4591 0.96513   1
  10   2   1 24.1524 0.69250   2
  -2   2  14 245.541 4.45736  -2
  11   2   1 245.541 4.45736   1
  12   2   1 1.66712 0.33311   2
  12   2   1 2.91463 0.48799   1
  -2   2  15 10.4017 2.46185  -2
  12   2   1 10.4017 2.46185   1
  13   2   1 105.226 2.84587   2
  13   2   1 165.879 3.29298   1
 -12   3   1 251.270 5.05596   2
 -12   3   1 379.298 5.77134   1
 -11   3   1 93.1707 1.92624   2
 -11   3   1 146.924 2.74164   1
 -10   3   1 37.5618 0.91399   2
 -10   3   1 58.0671 1.28691   1
  -3   3  11 757.660 9.13840  -2
  -9   3   1 757.660 9.13840   1
  -8   3   1 406.255 4.11490   1
  -8   3   1 271.254 3.12196   2
  -7   3   1 960.571 11.1210   2
  -7   3   1 1443.86 15.6944   1
  -6   3   1 80.6011 1.35516   2
  -6   3   1 128.773 1.91658   1
  -2   3   6 1113.66 12.6754  -2
  -5   3   1 1113.66 12.6754   1
  -4   3   1 386.868 4.71023   2
  -4   3   1 596.989 6.75214   1
  -3   3   1 1055.29 11.5518   2
  -3   3   1 1565.85 17.0268   1
  -2   3   1 683.724 8.80558   2
  -2   3   1 991.164 12.8767   1
  -1   3   1 39.6127 0.75510  -2
  -1   3   1 39.6127 0.75510   1
   0   3   1 1608.04 21.5028   1
   0   3   1 1132.98 16.8383   2
   1   3   1 50.1240 0.72785   1
   1   3   1 34.2729 0.54291   2
   2   3   1 51.4792 0.73761   2
   2   3   1 72.3565 0.97786   1
   0   3   4 359.905 4.19919  -2
   3   3   1 359.905 4.19919   1
   4   3   1 809.492 8.83534   2
   4   3   1 1172.65 12.7523   1
   5   3   1 366.146 4.07424   2
   5   3   1 534.233 6.03315   1
   6   3   1 452.037 5.14932   1
   6   3   1 315.116 3.80782   2
  -1   3   9 309.449 4.47979  -2
   7   3   1 309.449 4.47979   1
   8   3   1 78.0929 1.17211   2
   8   3   1 119.488 1.81635   1
  -1   3  10 158.071 7.70045  -2
   8   3   1 158.071 7.70045   1
   9   3   1 2.67815 0.29701   1
   9   3   1 1.74533 0.21814   2
  10   3   1 225.340 3.03753   1
  10   3   1 144.372 2.13985   2
  -2   3  14 398.524 8.69890  -2
  11   3   1 398.524 8.69890   1
  12   3   1 71.9817 1.56435   1
  12   3   1 46.6478 1.16585   2
  13   3   1 3.46946 0.49985   1
  13   3   1 2.15247 0.79073   2
 -12   4   1 12.3123 0.55822   1
 -12   4   1 8.66275 0.47332   2
 -11   4   1 72.9399 1.72113   1
 -11   4   1 45.8850 1.13742   2
 -10   4   1 1.17933 0.22383   2
 -10   4   1 2.85349 0.32587   1
  -3   4  11 127.752 2.20096  -2
  -9   4   1 127.752 2.20096   1
  -8   4   1 32.6847 0.68786   2
  -8   4   1 47.2884 0.87586   1
  -7   4   1 700.804 8.13542   1
  -7   4   1 463.748 5.47280   2
  -6   4   1 10.0451 0.41236   2
  -6   4   1 14.6227 0.51998   1
  -2   4   6 2580.41 31.1714  -2
  -5   4   1 2580.41 31.1714   1
  -4   4   1 109.476 2.04108   2
  -4   4   1 160.404 2.15235   1
  -3   4   1 178.184 2.55298   1
  -3   4   1 122.401 1.79131   2
  -2   4   1 117.814 1.85551   1
  -2   4   1 85.9219 1.55981   2
  -1   4   1 75.4303 1.80534  -2
  -1   4   1 75.4303 1.80534   1
   0   4   1 38.3484 1.04883   1
   0   4   1 26.4102 0.87106   2
   1   4   1 2189.52 39.7701   2
   1   4   1 3034.53 53.0847   1
   2   4   1 3.22343 0.18100   1
   2   4   1 2.07695 0.14723   2
   0   4   4 2596.37 33.4722  -2
   3   4   1 2596.37 33.4722   1
   4   4   1 109.760 1.78129   1
   4   4   1 71.8781 1.31926   2
   5   4   1 803.440 11.8773   2
   5   4   1 1260.04 15.6530   1
   6   4   1 377.874 5.57876   2
   6   4   1 581.269 7.63399   1
  -1   4   9 855.652 11.9408  -2
   7   4   1 855.652 11.9408   1
   8   4   1 8.64306 0.50789   1
   8   4   1 5.23458 0.34391   2
   9   4   1 185.254 2.36542   2
   9   4   1 281.958 3.82149   1
  10   4   1 110.490 2.13622   1
  10   4   1 68.9358 1.34010   2
  -2   4  14 377.038 6.99787  -2
  11   4   1 377.038 6.99787   1
  12   4   1 27.0794 0.93212   1
  12   4   1 16.8010 0.92603   2
  -2   4  15 67.0258 3.88548  -2
  12   4   1 67.0258 3.88548   1
 -12   5   1 10.1674 0.65550   1
 -12   5   1 5.78502 0.61485   2
 -11   5   1 81.7631 2.33033   2
 -11   5   1 127.275 2.90213   1
 -10   5   1 327.640 4.45885   2
 -10   5   1 522.721 8.90568   1
  -3   5  12 568.252 21.8951  -2
 -10   5   1 568.252 21.8951   1
  -3   5  11 238.957 3.80724  -2
  -9   5   1 238.957 3.80724   1
  -8   5   1 229.263 3.08086   2
  -8   5   1 338.617 4.13398   1
  -7   5   1 45.9439 0.85307   2
  -7   5   1 64.8999 1.23770   1
  -6   5   1 216.431 4.20502   1
  -6   5   1 161.010 3.57309   2
  -2   5   6 710.848 13.5385  -2
  -5   5   1 710.848 13.5385   1
  -4   5   1 505.039 9.14065   1
  -4   5   1 333.262 7.82228   2
  -3   5   1 4.04034 0.28212   1
  -3   5   1 3.13456 0.23617   2
  -2   5   1 626.286 13.2818   2
  -2   5   1 923.717 22.9042   1
  -1   5   1 20.9536 2.40538  -2
  -1   5   1 20.9536 2.40538   1
   0   5   1 240.654 9.55042   2
   0   5   1 318.695 11.8436   1
   1   5   1 16.1064 0.77480   2
   1   5   1 18.8690 1.41935   1
   2   5   1 735.585 16.2477   2
   2   5   1 1031.91 18.8634   1
   0   5   4 282.710 6.58611  -2
   3   5   1 282.710 6.58611   1
   4   5   1 332.084 6.20547   1
   4   5   1 220.473 5.03722   2
   5   5   1 10.5315 0.54900   1
   5   5   1 7.96034 0.56541   2
   6   5   1 848.409 12.4065   2
   6   5   1 1266.28 19.8019   1
  -1   5   9 59.3951 1.39282  -2
   7   5   1 59.3951 1.39282   1
   8   5   1 71.5847 1.35427   1
   8   5   1 44.6098 0.85895   2
   9   5   1 50.4187 0.92886   2
   9   5   1 76.2135 1.60142   1
  10   5   1 589.558 8.97869   1
  10   5   1 366.537 5.45325   2
  -2   5  13 852.867 36.0950  -2
  10   5   1 852.867 36.0950   1
  -2   5  14 116.063 2.64091  -2
  11   5   1 116.063 2.64091   1
  11   5   1 89.8978 3.93420   1
  12   5   1 15.3524 0.75090   2
  12   5   1 26.6153 1.51918   1
 -11   6   1 66.2366 1.61334   2
 -11   6   1 110.401 3.14200   1
 -10   6   1 36.0380 0.98795   2
 -10   6   1 58.5498 1.92043   1
  -3   6  12 75.2454 4.13282  -2
 -10   6   1 75.2454 4.13282   1
  -3   6  11 206.633 4.42232  -2
  -9   6   1 206.633 4.42232   1
  -8   6   1 27.5953 1.00362   1
  -8   6   1 17.8202 0.75328   2
  -7   6   1 215.153 3.54786   1
  -7   6   1 135.735 2.42840   2
  -6   6   1 161.897 3.12210   2
  -6   6   1 239.847 4.31017   1
  -2   6   6 1451.48 34.8806  -2
  -5   6   1 1451.48 34.8806   1
  -4   6   1 162.654 4.09275   1
  -4   6   1 104.465 3.64164   2
  -3   6   1 537.004 9.44108   2
  -3   6   1 756.034 13.5380   1
  -2   6   1 141.869 4.64015   2
  -2   6   1 215.872 7.28491   1
  -1   6   1 940.331 36.1177  -2
  -1   6   1 940.331 36.1177   1
   0   6   1 711.548 39.8301   1
   0   6   1 496.508 29.3561   2
   1   6   1 935.641 39.3371   1
   1   6   1 685.272 39.3101   2
   2   6   1 839.251 16.5019   1
   2   6   1 617.469 14.0294   2
   0   6   4 2178.17 48.3234  -2
   3   6   1 2178.17 48.3234   1
   4   6   1 506.274 12.5307   2
   4   6   1 691.389 12.5474   1
   5   6   1 853.451 17.3079   1
   5   6   1 613.772 16.9497   2
   6   6   1 52.8291 1.35270   2
   6   6   1 77.2497 1.82238   1
  -1   6   9 394.302 8.50443  -2
   7   6   1 394.302 8.50443   1
   8   6   1 81.7060 1.72055   2
   8   6   1 128.059 3.01980   1
   9   6   1 308.485 6.24258   1
   9   6   1 194.026 3.63027   2
  10   6   1 38.6226 1.02385   2
  10   6   1 66.1405 1.55188   1
  -2   6  14 742.697 13.9099  -2
  11   6   1 742.697 13.9099   1
 -10   7   1 327.149 5.55745   2
 -10   7   1 514.523 10.0176   1
  -3   7  11 275.356 5.64463  -2
  -9   7   1 275.356 5.64463   1
  -8   7   1 10.1802 0.66153   2
  -8   7   1 19.0672 1.05588   1
  -7   7   1 138.491 3.15303   1
  -7   7   1 90.4962 2.29387   2
  -6   7   1 452.936 10.2677   1
  -6   7   1 307.646 6.41359   2
  -2   7   6 61.6126 3.00229  -2
  -5   7   1 61.6126 3.00229   1
  -4   7   1 93.0585 2.36148   2
  -4   7   1 133.519 3.35856   1
  -3   7   1 38.4361 1.16834   2
  -3   7   1 52.1855 1.29357   1
  -2   7   1 1687.55 23.7481   1
  -2   7   1 1244.13 20.2865   2
  -1   7   1 85.2755 2.50915  -2
  -1   7   1 85.2755 2.50915   1
   0   7   1 189.277 4.30461   2
   0   7   1 238.811 5.64052   1
   1   7   1 495.597 9.35068   1
   1   7   1 359.566 6.96729   2
   2   7   1 484.728 8.52086   1
   2   7   1 331.575 6.59851   2
   0   7   4 207.842 4.18449  -2
   3   7   1 207.842 4.18449   1
   4   7   1 177.290 3.75945   1
   4   7   1 126.202 2.95665   2
   5   7   1 70.0229 2.17036   1
   5   7   1 48.8379 1.67873   2
   6   7   1 364.270 7.31499   2
   6   7   1 542.898 10.3706   1
  -1   7   9 58.9694 2.74574  -2
   7   7   1 58.9694 2.74574   1
   8   7   1 2.52123 0.62831   1
   8   7   1 2.83371 0.39686   2
  -1   7  10 58.4243 4.14122  -2
   8   7   1 58.4243 4.14122   1
   9   7   1 43.0479 1.50591   1
   9   7   1 26.7513 0.90703   2
  10   7   1 121.978 2.39242   2
  10   7   1 198.691 3.86299   1
  -3   8  11 21.9438 1.12645  -2
  -9   8   1 21.9438 1.12645   1
  -8   8   1 3.36524 0.41684   2
  -8   8   1 4.70151 0.50038   1
  -7   8   1 66.8708 2.02463   1
  -7   8   1 40.7584 1.46542   2
  -6   8   1 7.31651 0.62148   2
  -6   8   1 11.3936 0.87679   1
  -2   8   6 131.443 3.94152  -2
  -5   8   1 131.443 3.94152   1
  -4   8   1 3.22489 0.35413   2
  -4   8   1 3.39237 0.51430   1
  -3   8   1 22.7710 0.90699   1
  -3   8   1 15.5194 0.82256   2
  -2   8   1 28.8480 0.96845   1
  -2   8   1 19.6425 0.62641   2
  -1   8   1 43.0424 1.42461  -2
  -1   8   1 43.0424 1.42461   1
   0   8   1 46.5545 1.48972   1
   0   8   1 34.1391 1.13655   2
   1   8   1 11.7953 0.74511   1
   1   8   1 8.91999 0.47871   2
   2   8   1 42.9578 1.38582   2
   2   8   1 57.9262 1.56806   1
   0   8   4 454.595 7.14084  -2
   3   8   1 454.595 7.14084   1
   4   8   1 2.24388 0.40255   1
   4   8   1 1.90342 0.48604   2
   5   8   1 2.87923 0.51731   1
   5   8   1 1.38666 0.29899   2
   6   8   1 0.77720 0.27746   2
   6   8   1 1.83223 0.38687   1
  -1   8   9 341.633 7.51301  -2
   7   8   1 341.633 7.51301   1
   8   8   1 0.98433 0.24100   2
   8   8   1 1.33118 0.42610   1
  -1   8  10 58.0145 3.74934  -2
   8   8   1 58.0145 3.74934   1
   9   8   1 17.3055 0.65496   2
   9   8   1 28.3114 1.11391   1
  -8   9   1 2.55823 0.52608   2
  -8   9   1 4.78835 0.96015   1
  -7   9   1 106.744 2.80806   1
  -7   9   1 64.6961 2.38144   2
  -6   9   1 896.240 19.4809   1
  -6   9   1 579.623 15.3920   2
  -2   9   6 449.548 11.2411  -2
  -5   9   1 449.548 11.2411   1
  -4   9   1 38.5395 2.06034   1
  -4   9   1 24.8954 1.45037   2
  -3   9   1 186.809 4.57867   1
  -3   9   1 137.170 4.26973   2
  -2   9   1 623.202 11.5507   2
  -2   9   1 849.555 15.5743   1
  -1   9   1 126.083 3.43723  -2
  -1   9   1 126.083 3.43723   1
   0   9   1 71.8727 2.29300   2
   0   9   1 94.8127 3.27464   1
   1   9   1 85.4954 2.54700   2
   1   9   1 116.564 3.35616   1
   2   9   1 182.148 4.51626   1
   2   9   1 134.055 3.66111   2
   0   9   4 78.5240 2.74247  -2
   3   9   1 78.5240 2.74247   1
   4   9   1 225.590 5.63514   2
   4   9   1 326.899 8.12265   1
   5   9   1 36.6529 1.68185   2
   5   9   1 55.2267 2.57835   1
   6   9   1 449.225 9.60608   2
   6   9   1 675.139 16.2571   1
  -1   9   9 39.3129 1.58195  -2
   7   9   1 39.3129 1.58195   1
   8   9   1 123.960 4.50453   1
   8   9   1 76.4152 2.69942   2
  -7  10   1 155.523 8.09003   1
  -6  10   1 0.59486 0.31349   2
  -6  10   1 134.192 7.78384   1
  -2  10   6 120.993 5.12260  -2
  -5  10   1 120.993 5.12260   1
  -4  10   1 337.392 11.9764   1
  -4  10   1 243.852 8.98553   2
  -3  10   1 27.4147 1.56750   2
  -3  10   1 41.2109 3.07372   1
  -2  10   1 170.626 4.62513   1
  -2  10   1 121.934 3.32343   2
  -1  10   1 343.456 7.08372  -2
  -1  10   1 343.456 7.08372   1
   0  10   1 553.117 10.6679   1
   0  10   1 401.612 7.86509   2
   1  10   1 144.221 4.09773   1
   1  10   1 107.779 3.08941   2
   2  10   1 226.530 5.60463   1
   2  10   1 166.370 4.78546   2
   0  10   4 562.143 14.8179  -2
   3  10   1 562.143 14.8179   1
   4  10   1 111.048 4.15984   1
   4  10   1 94.3707 4.59557   2
   5  10   1 137.797 5.89403   1
   5  10   1 69.9134 4.37511   2
   6  10   1 89.0564 2.99210   2
   6  10   1 136.299 7.68663   1
  -4  11   1 189.503 9.72912   1
  -4  11   1 137.272 6.76296   2
  -3  11   1 1.00397 1.02283   1
  -3  11   1 0.85165 0.78044   2
  -2  11   1 40.6678 3.28184   2
  -2  11   1 56.3789 4.54794   1
  -1  11   1 17.4253 2.45947  -2
  -1  11   1 17.4253 2.45947   1
   0  11   1 313.751 8.82289   1
   0  11   1 227.584 5.77023   2
   1  11   1 42.5036 3.70348   1
   1  11   1 31.1319 1.92880   2
   2  11   1 47.6274 3.61093   2
   2  11   1 63.0295 4.56673   1
   0  11   4 117.985 6.50191  -2
   3  11   1 117.985 6.50191   1
   4  11   1 101.781 5.96030   1
 -13   0   2 0.48690 0.28957   2
 -13   0   2 1.79356 0.77707   1
 -12   0   2 643.878 13.4986   1
 -12   0   2 447.748 13.1070   2
 -11   0   2 2.30580 0.44530   1
 -11   0   2 0.67438 0.32245   2
  -4   0  12 180.367 4.82058  -2
 -10   0   2 180.367 4.82058   1
  -9   0   2 1.83884 0.33269   1
  -9   0   2 0.81451 0.25199   2
  -8   0   2 616.737 8.42320   2
  -8   0   2 985.668 11.5514   1
  -7   0   2 1.01988 0.18827   2
  -7   0   2 2.11020 0.28861   1
  -3   0   7 617.417 7.97280  -2
  -6   0   2 617.417 7.97280   1
  -5   0   2 2.38781 0.26039   1
  -5   0   2 1.62294 0.21167   2
  -4   0   2 70.7289 1.42262   2
  -4   0   2 111.746 1.98692   1
  -3   0   2 3.38327 0.23892   1
  -3   0   2 1.99534 0.19646   2
  -2   0   2 6446.11 78.7401  -2
  -2   0   2 6446.11 78.7401   1
  -1   0   2 2.31766 0.13766   1
  -1   0   2 1.63005 0.11699   2
   0   0   2 351.114 3.90051   1
   0   0   2 229.522 2.68688   2
   1   0   2 1.45926 0.07836   2
   1   0   2 2.24161 0.10301   1
   1   0   3 4252.79 52.7209  -2
   2   0   2 4252.79 52.7209   1
   3   0   2 1.10892 0.11078   2
   3   0   2 1.65175 0.14421   1
   4   0   2 415.813 5.92746   1
   4   0   2 298.308 4.22457   2
   5   0   2 1.76875 0.17767   1
   5   0   2 1.23306 0.16338   2
   0   0   8 2431.61 35.1569  -2
   6   0   2 2431.61 35.1569   1
   7   0   2 1.83702 0.30068   1
   7   0   2 0.53042 0.19342   2
   8   0   2 285.210 4.97681   1
   8   0   2 197.726 3.26485   2
   9   0   2 1.24566 0.38311   2
   9   0   2 2.29728 0.41405   1
  -1   0  13 2102.82 41.7744  -2
  10   0   2 2102.82 41.7744   1
  11   0   2 0.98051 0.62454   1
  11   0   2 1.38472 0.63266   2
  12   0   2 2.60885 0.43837   2
  12   0   2 2.41288 0.60103   1
  13   0   2 0.49499 0.43131   1
  13   0   2 0.71793 0.42952   2
 -13   1   2 11.8228 0.72648   1
 -13   1   2 7.20748 0.74785   2
 -12   1   2 166.780 2.92068   1
 -12   1   2 109.894 2.52741   2
 -11   1   2 2.02193 0.33215   1
 -11   1   2 1.37377 0.22921   2
  -4   1  12 245.994 3.79394  -2
 -10   1   2 245.994 3.79394   1
  -9   1   2 14.3532 0.56634   1
  -9   1   2 7.75684 0.35361   2
  -8   1   2 207.860 2.36707   2
  -8   1   2 333.234 3.36724   1
  -7   1   2 214.951 2.29720   2
  -7   1   2 342.745 3.33343   1
  -3   1   7 1568.24 15.3914  -2
  -6   1   2 1568.24 15.3914   1
  -5   1   2 69.5827 0.95760   2
  -5   1   2 103.339 1.28901   1
  -4   1   2 488.732 5.16333   1
  -4   1   2 316.451 3.30634   2
  -3   1   2 406.995 3.55881   1
  -3   1   2 271.422 2.53377   2
  -2   1   2 1785.02 14.9998  -2
  -2   1   2 1785.02 14.9998   1
  -1   1   2 13.0537 0.19719   1
  -1   1   2 8.04813 0.15844   2
   0   1   2 1500.15 11.2391   1
   0   1   2 1015.03 8.17229   2
   1   1   2 34.3779 0.34253   2
   1   1   2 48.9945 0.46956   1
   1   1   3 1380.47 11.6974  -2
   2   1   2 1380.47 11.6974   1
   3   1   2 41.2383 0.48421   2
   3   1   2 59.6537 0.67480   1
   4   1   2 32.1697 0.49186   1
   4   1   2 23.5258 0.38945   2
   5   1   2 30.6882 0.48998   2
   5   1   2 43.2911 0.63172   1
   0   1   8 372.832 4.16437  -2
   6   1   2 372.832 4.16437   1
   7   1   2 178.841 2.23877   1
   7   1   2 119.114 1.50217   2
   0   1   9 1383.21 56.3598  -2
   7   1   2 1383.21 56.3598   1
   8   1   2 420.776 4.51242   1
   8   1   2 281.425 2.97480   2
   9   1   2 121.932 1.62041   2
   9   1   2 178.997 2.41852   1
  -1   1  13 126.817 2.44685  -2
  10   1   2 126.817 2.44685   1
  11   1   2 121.285 2.04089   2
  -1   1  14 243.429 12.2462  -2
  11   1   2 243.429 12.2462   1
  11   1   2 197.272 3.43744   1
  12   1   2 85.4274 1.84075   1
  12   1   2 52.9328 1.63626   2
  13   1   2 27.4940 1.75499   2
 -13   2   2 39.7400 1.14661   1
 -13   2   2 25.3760 0.88329   2
 -12   2   2 275.923 5.25680   2
 -12   2   2 416.548 6.36316   1
 -11   2   2 2.64280 0.36019   1
 -11   2   2 2.08261 0.26065   2
  -4   2  12 313.114 4.58436  -2
 -10   2   2 313.114 4.58436   1
  -9   2   2 189.159 2.10492   1
  -9   2   2 119.212 1.55811   2
  -4   2  11 199.580 9.88967  -2
  -9   2   2 199.580 9.88967   1
  -8   2   2 26.6624 0.65345   1
  -8   2   2 16.0425 0.48849   2
  -7   2   2 209.387 2.43697   1
  -7   2   2 138.197 1.77665   2
  -3   2   7 727.282 8.92613  -2
  -6   2   2 727.282 8.92613   1
  -5   2   2 82.3463 1.26939   1
  -5   2   2 54.8409 0.92468   2
  -4   2   2 767.636 8.85573   1
  -4   2   2 499.737 5.38576   2
  -3   2   2 25.3374 0.43373   1
  -3   2   2 16.1330 0.32530   2
  -2   2   2 6.42738 0.19209  -2
  -2   2   2 6.42738 0.19209   1
  -1   2   2 224.347 2.07861   1
  -1   2   2 151.273 1.52970   2
   0   2   2 41.4218 0.50784   2
   0   2   2 58.6354 0.61559   1
   1   2   2 342.743 3.41759   2
   1   2   2 496.026 4.61069   1
   1   2   3 215.652 1.98938  -2
   2   2   2 215.652 1.98938   1
   2   2   2 199.355 11.0794   1
   3   2   2 88.2806 0.89554   1
   3   2   2 61.5882 0.65011   2
   4   2   2 434.153 4.74488   2
   4   2   2 613.340 6.46548   1
   5   2   2 507.768 5.74455   2
   5   2   2 743.969 7.48278   1
   0   2   8 1657.14 18.3233  -2
   6   2   2 1657.14 18.3233   1
   7   2   2 65.4555 1.08949   2
   7   2   2 98.0333 1.50792   1
   0   2   9 1741.07 66.2044  -2
   7   2   2 1741.07 66.2044   1
   8   2   2 37.9605 0.82955   2
   8   2   2 58.0824 1.11846   1
   9   2   2 113.742 1.72923   1
   9   2   2 76.0160 1.12770   2
  -1   2  13 656.524 9.38432  -2
  10   2   2 656.524 9.38432   1
  11   2   2 14.4461 0.88895   1
  11   2   2 9.64373 0.57056   2
  -1   2  14 341.035 11.3936  -2
  11   2   2 341.035 11.3936   1
  12   2   2 2.84788 0.41002   1
  12   2   2 1.93742 0.34924   2
  13   2   2 3.38726 0.32823   2
  13   2   2 5.47380 0.51461   1
 -13   3   2 90.2876 4.59688   1
 -13   3   2 50.4387 3.09349   2
 -12   3   2 534.694 8.26730   1
 -12   3   2 339.768 5.54083   2
 -11   3   2 17.0168 0.70574   2
 -11   3   2 27.7246 0.97378   1
  -4   3  12 690.183 9.56563  -2
 -10   3   2 690.183 9.56563   1
  -9   3   2 68.7176 1.03475   1
  -9   3   2 42.2976 0.78477   2
  -8   3   2 1090.44 10.5645   2
  -8   3   2 1662.49 15.7579   1
  -7   3   2 204.402 2.92632   2
  -7   3   2 303.580 3.58291   1
  -3   3   7 2253.98 29.1925  -2
  -6   3   2 2253.98 29.1925   1
  -5   3   2 32.7431 0.68995   1
  -5   3   2 21.8080 0.57034   2
  -4   3   2 1678.89 17.9390   1
  -4   3   2 1087.37 11.6454   2
  -3   3   2 340.991 3.97190   2
  -3   3   2 500.031 5.63095   1
  -2   3   2 2806.42 30.7557  -2
  -2   3   2 2806.42 30.7557   1
  -1   3   2 20.0423 0.45858   1
  -1   3   2 12.2636 0.33823   2
   0   3   2 684.243 8.41105   1
   0   3   2 469.641 5.95108   2
   1   3   2 1124.34 13.4927   1
   1   3   2 771.961 9.68003   2
   1   3   3 5399.67 65.4557  -2
   2   3   2 5399.67 65.4557   1
   3   3   2 5.53274 0.20358   1
   3   3   2 4.00020 0.16771   2
   4   3   2 1591.93 17.1484   1
   4   3   2 1131.72 13.4129   2
   5   3   2 54.9114 0.91136   1
   5   3   2 36.6900 0.71780   2
   0   3   8 2144.58 25.2823  -2
   6   3   2 2144.58 25.2823   1
   7   3   2 10.2084 0.52875   1
   7   3   2 6.36298 0.43145   2
   8   3   2 725.094 6.97992   1
   8   3   2 478.002 4.77615   2
   9   3   2 38.3276 0.85726   1
   9   3   2 24.3389 0.59524   2
  -1   3  13 190.679 3.66230  -2
  10   3   2 190.679 3.66230   1
  -1   3  14 54.3775 3.42061  -2
  11   3   2 54.3775 3.42061   1
  11   3   2 29.8177 0.96857   2
  11   3   2 51.2069 1.72841   1
  12   3   2 38.2561 1.05294   1
  12   3   2 23.6239 0.70938   2
  13   3   2 1.30569 0.85064   1
 -12   4   2 163.103 3.00731   1
 -12   4   2 103.814 2.34564   2
 -11   4   2 91.0183 2.03966   1
 -11   4   2 58.3981 1.30546   2
  -4   4  12 503.847 7.06218  -2
 -10   4   2 503.847 7.06218   1
  -9   4   2 3.91846 0.31409   1
  -9   4   2 2.88845 0.27534   2
  -8   4   2 39.0156 0.77307   1
  -8   4   2 24.3656 0.62859   2
  -7   4   2 29.4173 0.88127   1
  -7   4   2 20.1156 0.60861   2
  -3   4   7 340.902 4.98843  -2
  -6   4   2 340.902 4.98843   1
  -5   4   2 5.50762 0.28583   2
  -5   4   2 7.89832 0.39452   1
  -4   4   2 1292.54 15.8359   1
  -4   4   2 864.525 12.2383   2
  -3   4   2 6.85438 0.28443   2
  -3   4   2 9.61535 0.49818   1
  -2   4   2 1545.07 23.9840  -2
  -2   4   2 1545.07 23.9840   1
  -1   4   2 8.68219 0.31864   1
  -1   4   2 6.35550 0.21804   2
   0   4   2 868.898 14.7440   2
   0   4   2 1286.73 21.1566   1
   1   4   2 361.315 5.86218   1
   1   4   2 254.017 4.17740   2
   1   4   3 278.946 3.69815  -2
   2   4   2 278.946 3.69815   1
   3   4   2 37.1068 0.63874   2
   3   4   2 53.9670 0.80136   1
   4   4   2 2136.62 25.1925   2
   4   4   2 3198.06 40.5234   1
   5   4   2 2.09164 0.28269   2
   5   4   2 4.65390 0.29813   1
   0   4   8 1654.23 26.2479  -2
   6   4   2 1654.23 26.2479   1
   7   4   2 6.18296 0.43859   1
   7   4   2 4.36634 0.38138   2
   8   4   2 459.999 4.72915   2
   8   4   2 714.005 7.92495   1
   9   4   2 5.12620 0.40262   2
   9   4   2 9.88080 0.56639   1
  -1   4  12 226.936 10.6154  -2
   9   4   2 226.936 10.6154   1
  -1   4  13 4.33724 0.80987  -2
  10   4   2 4.33724 0.80987   1
  11   4   2 2.07258 0.32777   2
  -1   4  14 245.472 7.96009  -2
  11   4   2 245.472 7.96009   1
  11   4   2 3.84602 0.48559   1
  12   4   2 439.238 12.3468   2
  12   4   2 690.903 13.4977   1
 -12   5   2 3.91911 0.62162   1
 -12   5   2 2.62090 0.52475   2
 -11   5   2 56.2928 1.42058   2
 -11   5   2 88.8922 2.18517   1
  -4   5  12 302.072 4.93695  -2
 -10   5   2 302.072 4.93695   1
  -9   5   2 2.29902 0.23137   2
  -9   5   2 2.67953 0.36064   1
  -8   5   2 33.0340 0.73659   2
  -8   5   2 47.8972 0.97963   1
  -7   5   2 59.4612 1.05049   2
  -7   5   2 87.5385 1.46367   1
  -3   5   8 99.4513 5.61242  -2
  -7   5   2 99.4513 5.61242   1
  -3   5   7 45.7423 1.47902  -2
  -6   5   2 45.7423 1.47902   1
  -5   5   2 129.697 3.37299   1
  -5   5   2 97.4354 2.73188   2
  -4   5   2 19.6008 0.96161   1
  -4   5   2 13.1764 0.90714   2
  -3   5   2 24.9814 0.90558   2
  -3   5   2 35.5865 0.92084   1
  -2   5   2 83.4948 2.23405  -2
  -2   5   2 83.4948 2.23405   1
  -1   5   2 8.31214 0.61508   1
  -1   5   2 5.96105 0.35626   2
   0   5   2 23.1079 1.01392   1
   0   5   2 20.2865 1.05550   2
   1   5   2 1.60532 0.24305   2
   1   5   3 47.4149 2.06947  -2
   2   5   2 47.4149 2.06947   1
   3   5   2 13.1008 0.62688   2
   3   5   2 17.3921 0.63598   1
   4   5   2 567.094 9.64698   1
   4   5   2 384.596 5.86895   2
   5   5   2 287.883 4.62706   2
   5   5   2 428.894 7.30406   1
   0   5   8 95.7709 2.50997  -2
   6   5   2 95.7709 2.50997   1
   7   5   2 19.0100 0.60037   1
   7   5   2 13.3544 0.47024   2
   0   5   9 232.120 11.2627  -2
   7   5   2 232.120 11.2627   1
   8   5   2 9.40608 0.40851   2
   8   5   2 15.6519 0.62446   1
   9   5   2 2.99722 0.26472   2
   9   5   2 2.90652 0.46875   1
  -1   5  12 90.7980 5.67931  -2
   9   5   2 90.7980 5.67931   1
  -1   5  13 75.1641 1.61437  -2
  10   5   2 75.1641 1.61437   1
  -1   5  14 145.691 6.81610  -2
  11   5   2 145.691 6.81610   1
  11   5   2 25.8545 0.90747   2
  11   5   2 38.3023 1.11366   1
  12   5   2 51.2601 2.49377   2
  12   5   2 83.4908 3.07362   1
 -11   6   2 1.09925 0.36399   1
 -11   6   2 0.71392 0.20130   2
  -4   6  12 613.557 11.1436  -2
 -10   6   2 613.557 11.1436   1
  -9   6   2 112.503 2.26223   2
  -9   6   2 172.459 3.26230   1
  -8   6   2 84.7306 1.89386   1
  -8   6   2 54.2026 1.35404   2
  -7   6   2 1.95848 0.31903   2
  -7   6   2 1.94855 0.39257   1
  -3   6   8 153.649 7.50972  -2
  -7   6   2 153.649 7.50972   1
  -3   6   7 130.916 2.67799  -2
  -6   6   2 130.916 2.67799   1
  -5   6   2 94.4568 3.41822   1
  -5   6   2 64.7726 3.92585   2
  -4   6   2 207.475 7.10306   2
  -4   6   2 293.235 9.52708   1
  -3   6   2 202.528 4.39717   1
  -3   6   2 140.424 3.16391   2
  -2   6   2 80.2951 2.94166  -2
  -2   6   2 80.2951 2.94166   1
  -1   6   2 81.7706 7.54997   2
  -1   6   2 108.409 8.87585   1
   0   6   2 435.263 20.3464   2
   0   6   2 557.638 31.9737   1
   1   6   2 578.270 15.0685   1
   1   6   2 419.640 13.5483   2
   1   6   3 123.458 3.47776  -2
   2   6   2 123.458 3.47776   1
   3   6   2 78.6679 1.94586   2
   3   6   2 108.690 2.27762   1
   4   6   2 822.921 19.6012   2
   4   6   2 1147.85 20.2055   1
   5   6   2 140.968 3.96446   2
   5   6   2 216.133 5.45564   1
   0   6   8 73.4955 1.98464  -2
   6   6   2 73.4955 1.98464   1
   0   6   9 205.997 9.87459  -2
   7   6   2 205.997 9.87459   1
   7   6   2 60.5526 1.67830   1
   7   6   2 41.3967 1.07772   2
   8   6   2 540.206 7.29263   2
   8   6   2 762.183 12.8053   1
   9   6   2 14.3407 0.85914   1
   9   6   2 8.99307 0.59780   2
  -1   6  12 37.3053 3.37009  -2
   9   6   2 37.3053 3.37009   1
  -1   6  13 95.2276 2.02822  -2
  10   6   2 95.2276 2.02822   1
  11   6   2 101.472 2.63854   2
  11   6   2 167.357 4.39847   1
  -1   6  14 192.885 8.09716  -2
  11   6   2 192.885 8.09716   1
  -4   7  12 221.441 5.43000  -2
 -10   7   2 221.441 5.43000   1
  -9   7   2 375.590 6.58679   1
  -9   7   2 246.128 4.46000   2
  -8   7   2 184.965 3.62906   2
  -8   7   2 284.423 5.35951   1
  -7   7   2 100.438 2.84543   1
  -7   7   2 64.7098 1.71235   2
  -3   7   7 153.075 3.74138  -2
  -6   7   2 153.075 3.74138   1
  -5   7   2 243.332 5.01334   2
  -5   7   2 354.193 8.30995   1
  -4   7   2 169.870 3.55183   2
  -4   7   2 256.060 6.11565   1
  -3   7   2 375.511 7.08053   2
  -3   7   2 535.077 8.78517   1
  -2   7   2 1305.33 19.2790  -2
  -2   7   2 1305.33 19.2790   1
  -1   7   2 711.423 11.9540   1
  -1   7   2 569.086 9.91292   2
   0   7   2 540.211 9.62062   2
   0   7   2 684.955 12.0676   1
   1   7   2 21.8418 0.89616   2
   1   7   2 30.3236 1.17357   1
   1   7   3 1119.35 20.7678  -2
   2   7   2 1119.35 20.7678   1
   3   7   2 222.827 4.77530   2
   3   7   2 312.399 5.48648   1
   4   7   2 26.1968 1.17876   1
   4   7   2 18.0979 0.74891   2
   5   7   2 151.631 3.22689   1
   5   7   2 114.282 2.95597   2
   0   7   8 121.628 3.28821  -2
   6   7   2 121.628 3.28821   1
   7   7   2 253.137 5.71757   2
   7   7   2 384.656 7.38367   1
   0   7   9 381.067 15.8468  -2
   7   7   2 381.067 15.8468   1
   8   7   2 34.1105 1.10304   2
   8   7   2 48.6784 1.54717   1
   9   7   2 98.6980 2.08059   2
   9   7   2 156.008 2.91226   1
  -1   7  13 132.864 2.75319  -2
  10   7   2 132.864 2.75319   1
  -9   8   2 4.85707 0.44999   2
  -9   8   2 8.21756 0.56071   1
  -8   8   2 40.0422 1.18361   2
  -8   8   2 64.3395 1.71241   1
  -7   8   2 1.65127 0.37956   1
  -7   8   2 1.84661 0.42282   2
  -3   8   7 427.692 11.0005  -2
  -6   8   2 427.692 11.0005   1
  -5   8   2 9.19544 0.78340   2
  -5   8   2 12.1382 1.13781   1
  -4   8   2 8.74160 0.83231   1
  -4   8   2 5.51913 0.51726   2
  -3   8   2 166.025 3.11476   1
  -3   8   2 117.188 2.64091   2
  -2   8   2 273.574 4.63565  -2
  -2   8   2 273.574 4.63565   1
  -1   8   2 2.50475 0.38638   1
  -1   8   2 1.67853 0.23545   2
   0   8   2 124.424 2.46554   2
   0   8   2 168.788 3.69661   1
   1   8   2 85.3512 2.10315   1
   1   8   2 63.3503 1.56740   2
   1   8   3 301.818 5.62856  -2
   2   8   2 301.818 5.62856   1
   3   8   2 108.826 2.59288   1
   3   8   2 76.5843 1.82053   2
   4   8   2 68.1086 2.20409   1
   4   8   2 48.1315 2.04918   2
   5   8   2 4.09432 0.44377   2
   5   8   2 6.57611 0.82832   1
   0   8   8 640.530 12.3475  -2
   6   8   2 640.530 12.3475   1
   7   8   2 2.73131 0.56363   1
   7   8   2 1.49927 0.39924   2
   0   8   9 374.773 15.3965  -2
   7   8   2 374.773 15.3965   1
   8   8   2 7.67178 0.73145   1
   8   8   2 4.20653 0.40280   2
   9   8   2 53.7016 1.30116   2
   9   8   2 84.2839 2.26221   1
  -8   9   2 182.573 4.97579   1
  -8   9   2 114.052 3.55645   2
  -7   9   2 205.289 4.68522   1
  -7   9   2 126.307 3.82190   2
  -3   9   7 439.424 10.8670  -2
  -6   9   2 439.424 10.8670   1
  -5   9   2 255.560 6.32160   2
  -5   9   2 404.484 10.4354   1
  -4   9   2 318.869 7.45237   2
  -4   9   2 446.761 12.4407   1
  -3   9   2 147.148 3.99185   2
  -3   9   2 216.938 5.59549   1
  -2   9   2 516.141 9.98145  -2
  -2   9   2 516.141 9.98145   1
  -1   9   2 229.934 5.08905   2
  -1   9   2 319.394 6.86388   1
   0   9   2 116.374 3.33801   1
   0   9   2 81.9898 2.47565   2
   1   9   2 193.578 4.44355   2
   1   9   2 267.952 5.98143   1
   1   9   3 159.010 4.31253  -2
   2   9   2 159.010 4.31253   1
   3   9   2 5.86647 0.58832   1
   3   9   2 5.15897 0.69106   2
   4   9   2 322.971 7.53132   1
   4   9   2 226.465 5.66362   2
   5   9   2 228.618 6.42121   1
   5   9   2 150.945 4.17182   2
   0   9   8 141.703 3.82634  -2
   6   9   2 141.703 3.82634   1
   7   9   2 221.843 6.69506   1
   7   9   2 154.815 4.31194   2
   0   9   9 522.666 20.2149  -2
   7   9   2 522.666 20.2149   1
   8   9   2 19.6998 1.16112   2
   8   9   2 29.3863 1.74287   1
  -7  10   2 23.3809 2.68453   1
  -3  10   7 108.137 6.23316  -2
  -6  10   2 108.137 6.23316   1
  -5  10   2 44.0397 3.19727   2
  -5  10   2 59.1334 4.87935   1
  -4  10   2 162.329 6.58450   2
  -4  10   2 214.904 8.53289   1
  -3  10   2 112.713 5.60044   1
  -3  10   2 74.0547 2.71273   2
  -2  10   2 643.265 14.7605  -2
  -2  10   2 643.265 14.7605   1
  -1  10   2 1.42857 0.45080   2
  -1  10   2 0.76821 0.59965   1
   0  10   2 3.59545 0.64591   2
   0  10   2 4.87269 0.80380   1
   1  10   2 6.69830 0.93797   1
   1  10   2 5.25358 0.72641   2
   1  10   3 728.015 14.3916  -2
   2  10   2 728.015 14.3916   1
   3  10   2 16.6987 2.01951   1
   3  10   2 11.8107 1.17489   2
   1  10   4 159.551 8.42463  -2
   3  10   2 159.551 8.42463   1
   4  10   2 5.01626 0.94491   1
   4  10   2 6.38683 2.19397   2
   5  10   2 57.4999 3.29287   1
   0  10   8 260.706 12.0889  -2
   6  10   2 260.706 12.0889   1
  -4  11   2 5.74518 1.17967   2
  -4  11   2 8.81872 1.92750   1
  -3  11   2 26.6639 2.39728   2
  -3  11   2 39.2853 3.74010   1
  -2  11   2 66.0168 4.69011  -2
  -2  11   2 66.0168 4.69011   1
  -1  11   2 11.6318 2.39543   1
  -1  11   2 11.4102 1.71450   2
   0  11   2 0.78103 0.71301   1
   0  11   2 1.26637 0.83379   2
   1  11   2 54.8456 3.62641   2
   1  11   2 68.5640 4.63970   1
   1  11   3 31.3571 2.76088  -2
   2  11   2 31.3571 2.76088   1
   3  11   2 0.99086 0.98446   1
 -13   0   3 172.052 4.78448   2
 -12   0   3 1.38605 0.45044   1
 -12   0   3 0.59623 0.37363   2
  -5   0  13 382.923 9.83180  -2
 -11   0   3 382.923 9.83180   1
 -10   0   3 1.51208 0.27952   2
 -10   0   3 0.84989 0.30957   1
  -9   0   3 75.5656 1.49048   1
  -9   0   3 49.8033 1.25526   2
  -8   0   3 1.53865 0.22841   2
  -8   0   3 1.80219 0.25613   1
  -4   0   8 1794.73 22.5949  -2
  -7   0   3 1794.73 22.5949   1
  -6   0   3 1.15125 0.18765   2
  -6   0   3 1.45413 0.22598   1
  -5   0   3 510.613 6.45027   1
  -5   0   3 321.311 4.13425   2
  -4   0   3 1.53344 0.25072   1
  -4   0   3 1.10207 0.21615   2
  -3   0   3 422.782 5.83854  -2
  -3   0   3 422.782 5.83854   1
  -2   0   3 2.28504 0.20086   2
  -2   0   3 3.15666 0.24012   1
  -1   0   3 108.356 1.50435   2
  -1   0   3 161.226 1.93467   1
   0   0   3 1.79881 0.11119   2
   0   0   3 2.53375 0.13568   1
   2   0   2 3113.92 37.4522  -2
   1   0   3 3113.92 37.4522   1
   2   0   3 3.18041 0.16496   1
   2   0   3 2.03927 0.14013   2
   3   0   3 23.4330 0.51628   2
   3   0   3 32.5503 0.63725   1
   4   0   3 1.70464 0.21725   2
   4   0   3 1.87891 0.16712   1
   1   0   7 379.660 5.78750  -2
   5   0   3 379.660 5.78750   1
   6   0   3 2.61012 0.31564   2
   6   0   3 2.52900 0.28476   1
   7   0   3 2.24005 0.28252   2
   7   0   3 3.94224 0.37773   1
   8   0   3 1.22099 0.26878   2
   8   0   3 1.55320 0.33808   1
   0   0  12 684.637 12.2044  -2
   9   0   3 684.637 12.2044   1
  10   0   3 3.47546 0.64897   1
  10   0   3 1.36924 0.34704   2
  11   0   3 9.32603 0.97244   2
  11   0   3 16.1142 1.13626   1
  12   0   3 0.47467 0.46963   1
  12   0   3 2.01239 0.39448   2
 -13   1   3 45.0727 1.78432   2
 -12   1   3 338.926 6.39959   2
 -12   1   3 535.270 8.95046   1
  -5   1  13 172.679 3.60268  -2
 -11   1   3 172.679 3.60268   1
 -10   1   3 144.187 2.09404   2
 -10   1   3 228.761 2.68848   1
  -9   1   3 243.374 2.65212   1
  -9   1   3 153.004 1.98360   2
  -8   1   3 357.775 3.84106   2
  -8   1   3 564.646 5.14264   1
  -4   1   8 685.422 7.06144  -2
  -7   1   3 685.422 7.06144   1
  -6   1   3 465.994 4.26148   1
  -6   1   3 292.227 2.97008   2
  -5   1   3 1239.48 11.5557   1
  -5   1   3 772.189 7.46874   2
  -4   1   3 569.871 5.36245   1
  -4   1   3 359.309 3.58482   2
  -3   1   3 3295.21 31.4617  -2
  -3   1   3 3295.21 31.4617   1
  -2   1   3 4.75736 0.18597   1
  -2   1   3 3.05876 0.16129   2
  -1   1   3 399.530 3.32858   2
  -1   1   3 580.217 4.55949   1
   0   1   3 1064.64 8.57666   1
   0   1   3 716.061 5.71684   2
   2   1   2 1562.05 13.0481  -2
   1   1   3 1562.05 13.0481   1
   2   1   3 5.69905 0.13972   2
   2   1   3 8.39145 0.17712   1
   3   1   3 1613.72 14.4170   1
   3   1   3 1160.10 10.3582   2
   4   1   3 540.251 4.91518   1
   4   1   3 388.802 3.47302   2
   1   1   7 49.1314 0.85179  -2
   5   1   3 49.1314 0.85179   1
   5   1   3 35.3670 4.04906   2
   6   1   3 933.699 9.10073   1
   6   1   3 664.535 6.06599   2
   1   1   8 932.118 36.1104  -2
   6   1   3 932.118 36.1104   1
   7   1   3 382.433 3.88091   2
   7   1   3 553.296 5.74312   1
   8   1   3 35.1753 0.81412   1
   8   1   3 24.1915 0.55865   2
   0   1  12 419.371 5.40175  -2
   9   1   3 419.371 5.40175   1
   0   1  13 1040.18 18.9718  -2
  10   1   3 1040.18 18.9718   1
  10   1   3 492.230 6.05255   2
  10   1   3 741.317 10.2765   1
  11   1   3 86.9326 1.55995   2
  11   1   3 145.858 2.38478   1
  12   1   3 140.045 2.60615   1
  12   1   3 85.4302 2.14290   2
 -13   2   3 117.754 3.94730   1
 -13   2   3 72.9627 2.08917   2
 -12   2   3 35.3693 1.14757   2
 -12   2   3 56.5493 1.61511   1
  -5   2  13 7.70675 0.78172  -2
 -11   2   3 7.70675 0.78172   1
 -10   2   3 228.084 3.04764   2
 -10   2   3 359.391 3.98400   1
  -9   2   3 23.0731 0.58094   1
  -9   2   3 14.2538 0.43105   2
  -8   2   3 136.673 1.58468   1
  -8   2   3 86.2688 1.35052   2
  -4   2   8 307.984 3.66519  -2
  -7   2   3 307.984 3.66519   1
  -6   2   3 251.091 2.85223   1
  -6   2   3 163.349 2.08115   2
  -5   2   3 67.0417 1.17160   1
  -5   2   3 44.8430 0.86098   2
  -4   2   3 106.791 1.62040   1
  -4   2   3 72.4805 1.15630   2
  -3   2   3 4285.07 49.4212  -2
  -3   2   3 4285.07 49.4212   1
  -2   2   3 303.806 2.84244   2
  -2   2   3 443.846 3.81641   1
  -1   2   3 117.848 1.15333   1
  -1   2   3 80.1017 0.84515   2
   0   2   3 886.228 7.40597   1
   0   2   3 612.214 5.63606   2
   2   2   2 207.672 1.86713  -2
   1   2   3 207.672 1.86713   1
   2   2   3 2225.65 17.2768   1
   2   2   3 1552.49 12.1792   2
   3   2   3 72.3969 0.91315   1
   3   2   3 50.0868 0.63476   2
   4   2   3 601.800 6.12833   2
   4   2   3 846.643 9.22126   1
   1   2   7 104.542 1.53841  -2
   5   2   3 104.542 1.53841   1
   6   2   3 473.812 5.78360   1
   6   2   3 338.164 3.91655   2
   7   2   3 20.0010 0.59162   1
   7   2   3 13.9816 0.43792   2
   8   2   3 382.723 4.32408   2
   8   2   3 572.686 6.20411   1
   0   2  12 47.4232 1.18144  -2
   9   2   3 47.4232 1.18144   1
  10   2   3 132.690 2.04309   2
  10   2   3 201.241 3.81346   1
   0   2  13 461.224 11.9126  -2
  10   2   3 461.224 11.9126   1
  11   2   3 2.33393 0.34008   2
  11   2   3 4.41949 0.46151   1
   0   2  14 408.552 19.0952  -2
  11   2   3 408.552 19.0952   1
  12   2   3 202.860 4.01843   1
  12   2   3 122.918 2.67121   2
 -12   3   3 45.6324 1.41842   1
 -12   3   3 29.1362 0.87718   2
  -5   3  13 680.998 14.7267  -2
 -11   3   3 680.998 14.7267   1
 -10   3   3 437.880 4.95282   1
 -10   3   3 284.501 3.49162   2
  -9   3   3 789.969 6.91011   1
  -9   3   3 499.872 5.01514   2
  -8   3   3 36.9111 0.68486   2
  -8   3   3 57.2973 0.91664   1
  -4   3   8 1276.09 16.2472  -2
  -7   3   3 1276.09 16.2472   1
  -6   3   3 777.839 8.46514   1
  -6   3   3 519.013 6.34742   2
  -5   3   3 2222.71 24.6906   1
  -5   3   3 1508.56 19.3837   2
  -4   3   3 165.246 2.12172   2
  -4   3   3 243.316 3.11815   1
  -3   3   3 282.002 3.77388  -2
  -3   3   3 282.002 3.77388   1
  -2   3   3 622.383 6.63055   1
  -2   3   3 432.148 4.80361   2
  -1   3   3 851.264 9.12563   2
  -1   3   3 1282.89 13.9704   1
   0   3   3 2.85210 0.14665   1
   0   3   3 2.07967 0.12507   2
   2   3   2 5442.86 63.6969  -2
   1   3   3 5442.86 63.6969   1
   2   3   3 1452.51 15.1865   2
   2   3   3 2105.07 20.9357   1
   3   3   3 3073.68 31.4535   2
   3   3   3 4437.86 49.2719   1
   4   3   3 115.261 1.53417   2
   4   3   3 160.997 2.06537   1
   1   3   7 2069.46 26.2793  -2
   5   3   3 2069.46 26.2793   1
   6   3   3 615.717 7.26075   2
   6   3   3 886.441 9.74549   1
   7   3   3 741.004 8.37214   1
   7   3   3 504.095 6.14097   2
   8   3   3 72.5666 1.13603   1
   8   3   3 47.9883 0.78399   2
   0   3  11 270.834 12.0272  -2
   8   3   3 270.834 12.0272   1
   0   3  12 457.440 5.72677  -2
   9   3   3 457.440 5.72677   1
  10   3   3 678.143 9.12594   1
  10   3   3 433.924 5.58182   2
   0   3  13 791.810 34.5296  -2
  10   3   3 791.810 34.5296   1
  11   3   3 237.785 4.20419   1
  11   3   3 145.623 3.02731   2
  12   3   3 53.5686 1.57019   2
  12   3   3 88.1435 1.74786   1
 -12   4   3 102.885 2.17012   1
 -12   4   3 66.1972 1.78562   2
  -5   4  13 74.8292 1.81004  -2
 -11   4   3 74.8292 1.81004   1
 -10   4   3 114.967 1.71390   2
 -10   4   3 181.922 2.47581   1
  -9   4   3 21.1875 0.56408   2
  -9   4   3 32.3451 0.72965   1
  -8   4   3 63.1135 1.00592   2
  -8   4   3 97.4621 1.32695   1
  -4   4   8 494.581 6.18934  -2
  -7   4   3 494.581 6.18934   1
  -6   4   3 34.8920 0.87311   2
  -6   4   3 52.4520 1.12581   1
  -5   4   3 26.3995 0.74455   1
  -5   4   3 17.6160 0.51923   2
  -4   4   3 38.0686 0.73875   2
  -4   4   3 58.4797 1.06266   1
  -3   4   3 377.893 5.27121  -2
  -3   4   3 377.893 5.27121   1
  -2   4   3 316.211 4.75051   2
  -2   4   3 464.472 6.87007   1
  -1   4   3 52.5973 0.86409   2
  -1   4   3 79.9585 1.35130   1
   0   4   3 1048.39 15.0114   1
   0   4   3 697.130 8.94444   2
   2   4   2 380.304 5.07581  -2
   1   4   3 380.304 5.07581   1
   2   4   3 832.456 9.85002   1
   2   4   3 579.746 6.87920   2
   3   4   3 23.0658 0.53198   2
   3   4   3 32.5396 0.63558   1
   4   4   3 455.924 6.28150   1
   4   4   3 307.341 4.11588   2
   1   4   7 163.210 2.76971  -2
   5   4   3 163.210 2.76971   1
   6   4   3 88.2287 1.69487   2
   6   4   3 125.655 2.34289   1
   1   4   8 677.771 28.6691  -2
   6   4   3 677.771 28.6691   1
   7   4   3 1.22222 0.22310   1
   7   4   3 1.92813 0.22758   2
   8   4   3 4.29118 0.32151   2
   8   4   3 6.56256 0.45133   1
   0   4  11 25.1612 3.30935  -2
   8   4   3 25.1612 3.30935   1
   0   4  12 286.813 4.81802  -2
   9   4   3 286.813 4.81802   1
  10   4   3 69.7689 1.79634   1
  10   4   3 43.9823 1.09537   2
   0   4  13 379.723 12.0202  -2
  10   4   3 379.723 12.0202   1
  11   4   3 661.342 9.36731   1
  11   4   3 393.011 6.48840   2
  12   4   3 39.3886 1.36842   1
  12   4   3 23.3696 1.06581   2
 -12   5   3 23.5048 1.42286   2
  -5   5  13 13.7748 0.72832  -2
 -11   5   3 13.7748 0.72832   1
 -10   5   3 161.694 2.53476   2
 -10   5   3 262.344 3.87843   1
  -9   5   3 6.46285 0.38337   2
  -9   5   3 8.80092 0.53467   1
  -8   5   3 2.11611 0.25968   1
  -8   5   3 1.74932 0.22752   2
  -4   5   8 26.0277 0.68527  -2
  -7   5   3 26.0277 0.68527   1
  -6   5   3 1379.68 19.3212   2
  -6   5   3 2016.38 24.8522   1
  -5   5   3 23.4602 1.10113   2
  -5   5   3 33.0994 1.58075   1
  -4   5   3 36.3580 1.66420   1
  -4   5   3 25.7928 1.46332   2
  -3   5   3 81.7029 2.42440  -2
  -3   5   3 81.7029 2.42440   1
  -2   5   3 334.228 5.98409   2
  -2   5   3 468.074 9.12862   1
  -1   5   3 203.793 5.07989   1
  -1   5   3 139.292 2.99352   2
   0   5   3 274.226 6.76013   1
   0   5   3 178.498 3.47322   2
   2   5   2 32.9221 1.31036  -2
   1   5   3 32.9221 1.31036   1
   1   5   3 62.5052 4.81073   2
   2   5   3 1647.02 31.1968   1
   2   5   3 1193.03 24.4935   2
   3   5   3 31.9116 1.16898   2
   3   5   3 40.1843 1.45721   1
   4   5   3 947.355 13.7110   1
   4   5   3 639.343 9.92333   2
   1   5   7 350.709 6.51490  -2
   5   5   3 350.709 6.51490   1
   6   5   3 230.832 3.52151   2
   6   5   3 362.265 5.16642   1
   1   5   8 469.267 18.7696  -2
   6   5   3 469.267 18.7696   1
   7   5   3 112.664 1.64421   1
   7   5   3 70.2529 1.17933   2
   8   5   3 468.819 5.93111   1
   8   5   3 301.131 3.28634   2
   0   5  12 38.3998 1.13952  -2
   9   5   3 38.3998 1.13952   1
   0   5  13 655.724 19.0173  -2
  10   5   3 655.724 19.0173   1
  10   5   3 385.553 7.56549   1
  10   5   3 247.723 4.45442   2
  11   5   3 24.9322 0.95763   1
  11   5   3 13.9621 0.65119   2
  12   5   3 125.805 5.40210   2
  -5   6  13 248.204 7.35273  -2
 -11   6   3 248.204 7.35273   1
 -10   6   3 47.8705 1.12569   2
 -10   6   3 78.3697 2.00995   1
  -9   6   3 258.442 4.43672   1
  -9   6   3 160.528 2.93166   2
  -8   6   3 78.0608 1.81315   2
  -8   6   3 120.641 2.21931   1
  -4   6   8 45.8283 1.18304  -2
  -7   6   3 45.8283 1.18304   1
  -6   6   3 13.8192 0.62790   1
  -6   6   3 9.05842 0.65213   2
  -5   6   3 96.6541 3.69521   1
  -5   6   3 77.6613 5.94476   2
  -4   6   3 52.3272 2.01609   2
  -4   6   3 77.6302 3.41898   1
  -3   6   3 68.9829 2.18493  -2
  -3   6   3 68.9829 2.18493   1
  -2   6   3 91.7764 2.31451   1
  -2   6   3 66.6619 1.69891   2
  -1   6   3 498.492 12.1352   1
  -1   6   3 370.888 7.73397   2
   0   6   3 65.7090 2.02941   2
   0   6   3 87.9721 2.82740   1
   2   6   2 93.5147 3.45670  -2
   1   6   3 93.5147 3.45670   1
   2   6   3 62.3451 1.63941   1
   2   6   3 42.6990 1.43059   2
   3   6   3 27.5827 1.07547   2
   3   6   3 35.8078 1.13831   1
   4   6   3 14.2645 0.95580   2
   4   6   3 15.7739 0.83862   1
   1   6   7 22.7657 1.11494  -2
   5   6   3 22.7657 1.11494   1
   6   6   3 128.322 2.94331   1
   6   6   3 79.9003 1.70401   2
   1   6   8 137.884 6.94243  -2
   6   6   3 137.884 6.94243   1
   7   6   3 3.95160 0.46789   1
   7   6   3 2.82884 0.31910   2
   1   6   9 27.6919 2.22180  -2
   7   6   3 27.6919 2.22180   1
   8   6   3 2.63913 0.43229   1
   8   6   3 2.12228 0.33347   2
   0   6  12 606.216 9.68063  -2
   9   6   3 606.216 9.68063   1
  10   6   3 136.251 2.62741   2
  10   6   3 219.387 4.53567   1
   0   6  13 234.514 7.11081  -2
  10   6   3 234.514 7.11081   1
  11   6   3 40.1184 1.35548   1
  11   6   3 24.8265 1.02039   2
 -10   7   3 5.25806 0.39262   2
 -10   7   3 8.77545 0.64811   1
  -9   7   3 351.533 6.16864   1
  -9   7   3 221.882 4.04326   2
  -8   7   3 259.506 4.76199   2
  -8   7   3 400.936 7.09375   1
  -4   7   8 404.198 7.99011  -2
  -7   7   3 404.198 7.99011   1
  -6   7   3 4.48174 0.69437   1
  -6   7   3 2.61523 0.44830   2
  -5   7   3 428.672 9.76415   1
  -5   7   3 298.475 6.30486   2
  -4   7   3 411.171 9.48612   1
  -4   7   3 290.278 6.37237   2
  -3   7   3 578.532 10.4300  -2
  -3   7   3 578.532 10.4300   1
  -2   7   3 40.0991 1.08039   2
  -2   7   3 54.0741 1.39277   1
  -1   7   3 665.232 10.8479   1
  -1   7   3 514.498 7.77518   2
   0   7   3 698.490 11.3260   2
   0   7   3 895.917 15.5323   1
   2   7   2 1179.52 22.8701  -2
   1   7   3 1179.52 22.8701   1
   2   7   3 2.08265 0.25823   1
   2   7   3 3.45473 0.35879   2
   3   7   3 277.904 4.94534   2
   3   7   3 390.160 6.98676   1
   4   7   3 648.159 10.5291   1
   4   7   3 447.667 7.79751   2
   1   7   7 178.395 4.01250  -2
   5   7   3 178.395 4.01250   1
   6   7   3 11.5078 1.07840   1
   6   7   3 6.89396 0.67527   2
   1   7   8 52.8503 3.70440  -2
   6   7   3 52.8503 3.70440   1
   7   7   3 123.575 3.24703   2
   7   7   3 193.353 3.80831   1
   8   7   3 397.183 6.56300   2
   8   7   3 592.579 8.97563   1
   0   7  12 461.580 8.19612  -2
   9   7   3 461.580 8.19612   1
  10   7   3 7.70536 0.75223   1
  10   7   3 6.06068 0.48857   2
   0   7  13 100.462 4.97735  -2
  10   7   3 100.462 4.97735   1
  -9   8   3 104.943 2.30394   1
  -9   8   3 65.4618 1.88242   2
  -8   8   3 20.6857 0.94623   2
  -8   8   3 33.1655 1.12885   1
  -4   8   8 45.9520 1.56531  -2
  -7   8   3 45.9520 1.56531   1
  -6   8   3 51.1331 1.58205   2
  -6   8   3 80.0333 3.15502   1
  -5   8   3 82.7867 2.44260   2
  -5   8   3 114.163 3.54288   1
  -4   8   3 115.635 3.03277   2
  -4   8   3 157.486 4.48750   1
  -3   8   3 169.112 3.66126  -2
  -3   8   3 169.112 3.66126   1
  -2   8   3 314.594 5.14739   2
  -2   8   3 435.471 7.67424   1
  -1   8   3 140.431 2.50193   2
  -1   8   3 198.904 4.01557   1
   0   8   3 9.94453 0.50046   2
   0   8   3 12.6590 0.85797   1
   2   8   2 248.419 5.59036  -2
   1   8   3 248.419 5.59036   1
   2   8   3 205.977 4.14627   1
   2   8   3 152.485 3.33255   2
   3   8   3 93.1228 2.19085   2
   3   8   3 131.627 2.95384   1
   4   8   3 143.561 4.00507   1
   4   8   3 104.866 3.49926   2
   1   8   7 395.557 8.78979  -2
   5   8   3 395.557 8.78979   1
   6   8   3 13.3238 0.79090   2
   6   8   3 22.9588 1.25796   1
   1   8   8 425.127 17.0113  -2
   6   8   3 425.127 17.0113   1
   7   8   3 161.126 3.45672   1
   7   8   3 110.385 2.60990   2
   8   8   3 104.377 2.39947   2
   8   8   3 146.172 3.34396   1
   0   8  12 220.741 5.44536  -2
   9   8   3 220.741 5.44536   1
  -8   9   3 448.505 11.7379   2
  -8   9   3 709.038 28.9707   1
  -4   9   8 279.535 6.67713  -2
  -7   9   3 279.535 6.67713   1
  -6   9   3 17.8070 1.17392   1
  -6   9   3 12.5117 1.00214   2
  -5   9   3 160.622 5.60835   2
  -4   9   3 905.426 22.8097   1
  -4   9   3 335.218 22.4509   2
  -3   9   3 241.386 6.49783  -2
  -3   9   3 241.386 6.49783   1
  -2   9   3 15.8886 1.64696   1
  -2   9   3 11.0202 0.92307   2
  -1   9   3 86.3069 3.49630   1
  -1   9   3 65.2260 2.17478   2
   0   9   3 460.225 8.91339   2
   0   9   3 641.261 15.0006   1
   2   9   2 154.937 4.84246  -2
   1   9   3 154.937 4.84246   1
   2   9   3 107.304 2.82210   1
   2   9   3 79.4904 2.34938   2
   3   9   3 107.913 2.96256   2
   3   9   3 143.099 3.95741   1
   4   9   3 857.538 17.5795   1
   4   9   3 599.991 12.0311   2
   1   9   7 513.269 13.4981  -2
   5   9   3 513.269 13.4981   1
   6   9   3 3.08555 0.56115   2
   6   9   3 4.89175 0.86856   1
   1   9   8 12.0000 1.83571  -2
   6   9   3 12.0000 1.83571   1
   7   9   3 80.5235 2.76864   1
   7   9   3 17.9288 3.52559   2
   8   9   3 440.184 15.6275   2
  -6  10   3 149.665 8.13920   1
  -5  10   3 39.8248 3.85596   1
  -5  10   3 25.9286 2.29703   2
  -4  10   3 6.78796 1.48886   1
  -4  10   3 4.05313 1.22526   2
  -3  10   3 7.01591 1.38533  -2
  -3  10   3 7.01591 1.38533   1
  -2  10   3 7.60182 1.14764   1
  -2  10   3 6.08275 1.04161   2
  -1  10   3 52.5750 2.23272   2
  -1  10   3 76.6945 3.19774   1
   0  10   3 117.314 4.12150   1
   0  10   3 77.7018 2.47725   2
   2  10   2 715.596 16.1388  -2
   1  10   3 715.596 16.1388   1
   2  10   3 61.0469 3.69866   1
   2  10   3 45.7330 2.36208   2
   3  10   3 26.5674 2.26284   1
   3  10   3 19.2893 1.86706   2
   4  10   3 1.53851 1.24838   2
   4  10   3 1.31483 0.75240   1
   6  10   3 1.87241 0.66180   2
  -4  11   3 30.9388 2.55261   2
  -4  11   3 54.5486 4.19732   1
  -3  11   3 63.8796 4.41087  -2
  -3  11   3 63.8796 4.41087   1
  -2  11   3 78.8067 4.77468   2
  -2  11   3 115.850 7.32384   1
  -1  11   3 68.5012 4.37229   2
  -1  11   3 126.286 7.78279   1
   0  11   3 27.8893 3.31596   1
   0  11   3 24.6597 2.34015   2
 -13   0   4 0.36849 0.46538   2
  -6   0  14 347.719 14.3622  -2
 -12   0   4 347.719 14.3622   1
 -11   0   4 0.55515 0.35861   2
 -11   0   4 1.83771 0.43545   1
 -10   0   4 1628.11 21.9973   1
 -10   0   4 1024.68 18.4162   2
  -9   0   4 2.16442 0.33067   1
  -9   0   4 1.04577 0.23072   2
  -5   0   9 58.7574 1.62004  -2
  -8   0   4 58.7574 1.62004   1
  -7   0   4 1.12848 0.19247   2
  -7   0   4 1.49062 0.23390   1
  -6   0   4 4122.08 44.8095   1
  -6   0   4 2587.93 31.3667   2
  -5   0   4 0.64287 0.15699   2
  -5   0   4 3.15515 0.41880   1
  -4   0   4 223.697 2.90948  -2
  -4   0   4 223.697 2.90948   1
  -3   0   4 1.14684 0.21219   1
  -3   0   4 1.94745 0.24070   2
  -2   0   4 1989.79 24.8337   2
  -2   0   4 2899.35 34.6773   1
  -1   0   4 1.27089 0.13908   2
  -1   0   4 2.59528 0.16775   1
   3   0   1 1030.39 12.7947  -2
   0   0   4 1030.39 12.7947   1
   1   0   4 2.75691 0.24292   1
   1   0   4 1.21196 0.14021   2
   2   0   4 2350.41 30.3348   1
   2   0   4 1549.35 19.1907   2
   3   0   4 1.30165 0.15202   2
   3   0   4 1.38911 0.18004   1
   2   0   6 427.996 5.90157  -2
   4   0   4 427.996 5.90157   1
   5   0   4 2.08194 0.21008   1
   5   0   4 6.30847 0.46765   2
   6   0   4 601.558 8.13211   2
   6   0   4 840.725 11.2756   1
   7   0   4 0.58219 0.23267   2
   7   0   4 1.50186 0.32159   1
   1   0  11 216.852 4.44989  -2
   8   0   4 216.852 4.44989   1
   9   0   4 1.38530 0.33233   2
   9   0   4 1.26151 0.42280   1
  10   0   4 663.789 11.7469   1
  10   0   4 431.696 7.57677   2
  11   0   4 1.05352 0.52758   1
  11   0   4 0.26732 0.29058   2
   0   0  16 1166.52 31.4922  -2
  12   0   4 1166.52 31.4922   1
  13   0   4 0.33590 0.57861   1
 -13   1   4 8.48465 1.88785   1
 -13   1   4 81.9210 2.80573   2
  -6   1  14 55.5271 2.55661  -2
 -12   1   4 55.5271 2.55661   1
 -11   1   4 38.3130 1.03859   1
 -11   1   4 23.9487 0.82303   2
 -10   1   4 5.57008 0.40139   1
 -10   1   4 2.99995 0.28400   2
  -9   1   4 22.3682 0.52677   2
  -9   1   4 35.5168 0.77058   1
  -5   1   9 200.317 2.73473  -2
  -8   1   4 200.317 2.73473   1
  -7   1   4 87.3803 1.22972   2
  -7   1   4 138.656 1.68337   1
  -6   1   4 53.3236 0.87906   2
  -6   1   4 84.5480 1.10909   1
  -5   1   4 1485.65 12.5829   1
  -5   1   4 949.129 8.60992   2
  -4   1   4 3410.15 31.6267  -2
  -4   1   4 3410.15 31.6267   1
  -3   1   4 1207.48 11.8287   1
  -3   1   4 785.001 7.98398   2
  -2   1   4 403.635 3.43507   1
  -2   1   4 268.635 2.44592   2
  -1   1   4 229.494 1.98628   1
  -1   1   4 154.364 1.37517   2
   3   1   1 1164.01 10.1835  -2
   0   1   4 1164.01 10.1835   1
   1   1   4 6.71537 0.15591   2
   1   1   4 9.87599 0.19550   1
   2   1   4 768.685 6.45317   1
   2   1   4 529.358 4.61841   2
   3   1   4 254.718 2.43114   2
   3   1   4 368.819 3.43596   1
   2   1   6 636.721 6.27877  -2
   4   1   4 636.721 6.27877   1
   5   1   4 3.62048 0.21302   1
   5   1   4 2.24229 0.15564   2
   2   1   7 20.8034 1.35274  -2
   5   1   4 20.8034 1.35274   1
   6   1   4 208.995 2.27389   1
   6   1   4 145.717 1.69116   2
   7   1   4 34.7329 0.70934   2
   7   1   4 50.1105 0.91968   1
   1   1  11 168.896 2.61541  -2
   8   1   4 168.896 2.61541   1
   9   1   4 47.9901 0.91536   2
   9   1   4 70.7793 1.65615   1
   1   1  12 429.101 8.57215  -2
   9   1   4 429.101 8.57215   1
  10   1   4 143.531 2.25494   1
  10   1   4 93.2016 1.56486   2
  11   1   4 12.7447 0.71000   2
  11   1   4 20.9879 0.80112   1
   0   1  16 12.1945 1.07511  -2
  12   1   4 12.1945 1.07511   1
  12   1   4 0.24970 0.96310   1
 -13   2   4 3.90311 1.04633   1
  -6   2  14 170.830 4.27117  -2
 -12   2   4 170.830 4.27117   1
 -11   2   4 26.3832 0.69432   2
 -11   2   4 42.1906 1.08377   1
 -10   2   4 200.848 2.58685   2
 -10   2   4 315.410 3.63143   1
  -9   2   4 275.673 2.92908   1
  -9   2   4 174.340 2.06474   2
  -5   2   9 202.230 2.46614  -2
  -8   2   4 202.230 2.46614   1
  -7   2   4 47.0605 0.84362   1
  -7   2   4 30.4099 0.66352   2
  -6   2   4 1260.70 12.9941   2
  -6   2   4 1955.71 18.3471   1
  -5   2   4 149.115 1.86320   1
  -5   2   4 95.4720 1.41315   2
  -4   2   4 135.146 1.94619  -2
  -4   2   4 135.146 1.94619   1
  -3   2   4 50.1812 0.81133   1
  -3   2   4 33.1749 0.67849   2
  -2   2   4 1203.16 11.7328   1
  -2   2   4 810.511 8.59697   2
  -1   2   4 233.591 2.02839   1
  -1   2   4 156.639 1.46414   2
   3   2   1 296.551 2.78765  -2
   0   2   4 296.551 2.78765   1
   1   2   4 2446.17 20.1424   1
   1   2   4 1669.49 14.1403   2
   2   2   4 685.832 6.43458   1
   2   2   4 471.377 4.52761   2
   3   2   4 1006.25 10.2565   2
   3   2   4 1435.65 14.5581   1
   2   2   6 46.7466 0.80652  -2
   4   2   4 46.7466 0.80652   1
   5   2   4 357.843 4.28413   2
   5   2   4 508.525 5.74316   1
   6   2   4 885.002 9.33598   1
   6   2   4 631.195 7.16069   2
   7   2   4 99.8102 1.48416   2
   7   2   4 141.607 1.99648   1
   1   2  10 765.068 30.2680  -2
   7   2   4 765.068 30.2680   1
   1   2  11 611.389 7.13333  -2
   8   2   4 611.389 7.13333   1
   9   2   4 239.380 3.73704   1
   9   2   4 158.927 2.13179   2
   1   2  12 249.471 5.41151  -2
   9   2   4 249.471 5.41151   1
  10   2   4 367.930 4.59301   1
  10   2   4 231.061 3.20197   2
  11   2   4 391.896 6.53119   1
  11   2   4 240.128 3.91813   2
   0   2  16 181.379 4.97603  -2
  12   2   4 181.379 4.97603   1
  -6   3  14 257.039 5.53771  -2
 -12   3   4 257.039 5.53771   1
 -11   3   4 23.3928 0.87608   1
 -11   3   4 14.2904 0.67246   2
 -10   3   4 13.4626 0.46956   2
 -10   3   4 20.6250 0.62867   1
  -9   3   4 44.9841 0.78817   1
  -9   3   4 28.6879 0.61632   2
  -5   3   9 151.067 2.00679  -2
  -8   3   4 151.067 2.00679   1
  -7   3   4 183.129 2.25879   1
  -7   3   4 118.024 1.56976   2
  -6   3   4 471.218 5.49817   1
  -6   3   4 307.880 3.86280   2
  -5   3   4 18.3189 0.70046   1
  -5   3   4 11.4058 0.51485   2
  -4   3   4 600.762 7.55485  -2
  -4   3   4 600.762 7.55485   1
  -3   3   4 178.102 2.24249   1
  -3   3   4 121.392 1.63879   2
  -2   3   4 15.5929 0.42386   2
  -2   3   4 22.4453 0.52565   1
  -1   3   4 65.9039 0.95364   1
  -1   3   4 43.0251 0.62981   2
   3   3   1 385.668 4.71352  -2
   0   3   4 385.668 4.71352   1
   1   3   4 92.9320 1.16874   2
   1   3   4 137.956 1.63994   1
   2   3   4 1963.42 21.6381   1
   2   3   4 1326.69 14.2170   2
   3   3   4 1260.36 13.4032   1
   3   3   4 880.235 8.98527   2
   2   3   6 1894.35 24.8518  -2
   4   3   4 1894.35 24.8518   1
   5   3   4 9.56089 0.38410   2
   5   3   4 13.6584 0.45509   1
   6   3   4 550.529 6.69462   2
   6   3   4 786.293 8.71058   1
   7   3   4 188.787 2.35862   1
   7   3   4 127.133 1.75999   2
   1   3  11 99.2999 1.55143  -2
   8   3   4 99.2999 1.55143   1
   9   3   4 72.3623 1.26691   2
   9   3   4 108.046 2.17826   1
   1   3  12 371.133 8.32618  -2
   9   3   4 371.133 8.32618   1
  10   3   4 109.225 2.00396   2
  10   3   4 181.744 3.07352   1
  11   3   4 3.65217 0.46954   2
  11   3   4 5.12483 0.54314   1
  12   3   4 297.033 12.5199   1
   0   3  16 329.603 6.83187  -2
  12   3   4 329.603 6.83187   1
  -6   4  14 658.392 13.8906  -2
 -12   4   4 658.392 13.8906   1
 -12   4   4 385.869 14.3585   2
 -11   4   4 4.82716 0.46636   1
 -11   4   4 3.68058 0.45616   2
 -10   4   4 60.7808 1.11388   2
 -10   4   4 92.3687 1.55553   1
  -9   4   4 246.397 2.87637   1
  -9   4   4 156.532 2.02811   2
  -5   4   9 593.210 6.53511  -2
  -8   4   4 593.210 6.53511   1
  -7   4   4 31.6892 0.59631   2
  -7   4   4 48.7445 0.90713   1
  -6   4   4 61.3906 1.30846   1
  -6   4   4 41.3215 1.09669   2
  -5   4   4 130.348 1.93882   1
  -5   4   4 87.5972 1.47676   2
  -4   4   4 2539.96 33.8117  -2
  -4   4   4 2539.96 33.8117   1
  -3   4   4 447.564 6.18507   1
  -3   4   4 310.595 4.09575   2
  -2   4   4 451.179 6.09592   1
  -2   4   4 304.939 4.11575   2
  -1   4   4 1796.11 21.9058   1
  -1   4   4 1205.52 14.3630   2
   3   4   1 2835.15 39.3386  -2
   0   4   4 2835.15 39.3386   1
   1   4   4 1483.77 17.0321   1
   1   4   4 1043.01 12.4788   2
   2   4   4 452.538 5.69003   2
   2   4   4 635.399 8.10706   1
   3   4   4 697.681 9.04645   2
   3   4   4 1005.84 12.5009   1
   2   4   6 1861.42 31.6458  -2
   4   4   4 1861.42 31.6458   1
   5   4   4 513.984 6.65803   1
   5   4   4 360.176 5.33302   2
   6   4   4 311.359 4.39696   2
   6   4   4 460.996 6.35937   1
   7   4   4 27.4777 0.57743   2
   7   4   4 40.1685 0.89972   1
   1   4  10 122.574 6.85197  -2
   7   4   4 122.574 6.85197   1
   1   4  11 542.867 6.59340  -2
   8   4   4 542.867 6.59340   1
   9   4   4 87.1314 1.54123   2
   1   4  12 358.108 8.18137  -2
   9   4   4 358.108 8.18137   1
   9   4   4 143.061 2.98304   1
  10   4   4 735.439 9.27192   1
  10   4   4 451.927 6.07081   2
  11   4   4 61.4736 1.35890   2
  11   4   4 98.5148 2.00477   1
   0   4  16 21.8002 0.99268  -2
  12   4   4 21.8002 0.99268   1
 -11   5   4 89.0796 2.34731   1
 -11   5   4 55.7693 1.42225   2
 -10   5   4 76.9961 1.65325   1
 -10   5   4 47.3188 1.06210   2
  -9   5   4 40.1859 0.91202   2
  -9   5   4 66.0108 1.50189   1
  -5   5   9 119.852 2.00228  -2
  -8   5   4 119.852 2.00228   1
  -7   5   4 512.831 5.82724   2
  -7   5   4 782.394 8.48815   1
  -6   5   4 49.7030 0.99571   2
  -6   5   4 72.0298 1.40723   1
  -5   5   4 656.026 14.5084   2
  -5   5   4 950.280 24.1378   1
  -4   5   4 60.0134 2.94196  -2
  -4   5   4 60.0134 2.94196   1
  -3   5   4 155.185 5.15786   1
  -3   5   4 101.187 2.91527   2
  -2   5   4 4.89452 0.41839   1
  -2   5   4 6.09018 0.38917   2
  -1   5   4 43.4637 0.99509   2
  -1   5   4 65.2513 1.87679   1
   3   5   1 189.036 6.23309  -2
   0   5   4 189.036 6.23309   1
   1   5   4 132.395 2.73927   2
   1   5   4 187.416 4.12605   1
   2   5   4 58.2062 1.83062   2
   2   5   4 83.7122 2.38757   1
   3   5   4 388.642 6.57333   1
   3   5   4 274.900 5.01360   2
   2   5   6 116.494 2.97539  -2
   4   5   4 116.494 2.97539   1
   5   5   4 160.624 2.77306   1
   5   5   4 105.291 2.11767   2
   6   5   4 23.7606 0.55849   2
   6   5   4 37.7796 0.79345   1
   7   5   4 4.95163 0.36612   1
   7   5   4 2.86105 0.26646   2
   1   5  11 124.194 2.23012  -2
   8   5   4 124.194 2.23012   1
   9   5   4 12.1628 0.63005   2
   9   5   4 20.0116 0.98738   1
   1   5  12 505.042 10.4373  -2
   9   5   4 505.042 10.4373   1
  10   5   4 2.23244 0.38862   1
  10   5   4 0.77802 0.37682   2
  11   5   4 1.63630 0.28008   2
  11   5   4 2.49319 0.40440   1
 -11   6   4 80.3178 2.46070   2
 -11   6   4 135.269 4.67627   1
 -10   6   4 7.01445 0.57624   1
 -10   6   4 5.48378 0.46122   2
  -9   6   4 1.52964 0.27159   2
  -9   6   4 2.82289 0.35778   1
  -5   6   9 1002.30 16.6292  -2
  -8   6   4 1002.30 16.6292   1
  -7   6   4 74.0042 1.50704   2
  -7   6   4 114.197 2.02873   1
  -6   6   4 88.0582 1.74671   2
  -6   6   4 134.327 2.58356   1
  -5   6   4 19.5984 0.91532   1
  -5   6   4 13.9720 0.75253   2
  -4   6   4 2721.06 65.4447  -2
  -4   6   4 2721.06 65.4447   1
  -3   6   4 10.9140 1.25941   1
  -3   6   4 5.07439 0.75089   2
  -2   6   4 193.866 4.68388   2
  -2   6   4 281.337 5.78503   1
  -1   6   4 50.6644 1.47630   2
  -1   6   4 73.0688 1.94184   1
   3   6   1 2849.49 74.0657  -2
   0   6   4 2849.49 74.0657   1
   1   6   4 1.70029 0.36030   1
   1   6   4 2.11151 0.30893   2
   2   6   4 77.9628 1.86052   2
   2   6   4 114.999 2.50749   1
   3   6   4 6.05081 0.48339   1
   3   6   4 3.69811 0.40863   2
   2   6   6 884.929 24.3147  -2
   4   6   4 884.929 24.3147   1
   5   6   4 20.2761 0.84515   1
   5   6   4 13.4764 0.75657   2
   6   6   4 13.6749 0.56866   1
   6   6   4 9.03233 0.52791   2
   7   6   4 7.66581 0.54052   1
   7   6   4 4.98595 0.39289   2
   1   6  10 27.1859 2.15658  -2
   7   6   4 27.1859 2.15658   1
   1   6  11 760.404 12.0372  -2
   8   6   4 760.404 12.0372   1
   9   6   4 48.4777 1.68334   1
   9   6   4 32.3848 1.15033   2
   1   6  12 65.9677 3.15910  -2
   9   6   4 65.9677 3.15910   1
  10   6   4 97.1939 2.00403   1
  10   6   4 60.8338 1.44466   2
  11   6   4 29.5696 1.21887   1
  11   6   4 19.8357 1.28187   2
 -10   7   4 5.42258 0.52563   1
 -10   7   4 3.41120 0.35610   2
  -9   7   4 18.7887 0.78487   2
  -9   7   4 27.9315 1.06528   1
  -5   7   9 206.683 4.87055  -2
  -8   7   4 206.683 4.87055   1
  -7   7   4 1.73323 0.39704   2
  -7   7   4 1.68123 0.40120   1
  -6   7   4 208.943 4.10140   1
  -6   7   4 134.516 3.01274   2
  -5   7   4 1.73088 0.54851   2
  -5   7   4 2.49217 0.59558   1
  -4   7   4 556.503 11.3896  -2
  -4   7   4 556.503 11.3896   1
  -3   7   4 12.6365 0.98712   2
  -3   7   4 16.7898 1.09177   1
  -2   7   4 107.929 2.28804   2
  -2   7   4 146.086 3.25605   1
  -1   7   4 4.80986 0.42310   2
  -1   7   4 6.52036 0.46094   1
   0   7   4 237.962 14.7470   1
   3   7   1 212.727 4.92624  -2
   0   7   4 212.727 4.92624   1
   1   7   4 142.819 2.86863   2
   1   7   4 185.706 4.41861   1
   2   7   4 425.150 7.81009   1
   2   7   4 296.990 5.90504   2
   3   7   4 5.31150 0.41475   2
   3   7   4 7.81676 0.64956   1
   4   7   4 370.625 24.9992   1
   2   7   6 351.810 8.14060  -2
   4   7   4 351.810 8.14060   1
   5   7   4 80.6683 2.44963   1
   5   7   4 56.5008 1.82751   2
   6   7   4 305.775 6.26523   1
   6   7   4 191.846 4.73071   2
   7   7   4 47.8170 1.31864   1
   7   7   4 29.4096 1.10368   2
   1   7  11 298.830 5.32523  -2
   8   7   4 298.830 5.32523   1
   9   7   4 1.73402 0.33123   2
   9   7   4 1.60816 0.41750   1
   1   7  12 35.9464 2.09614  -2
   9   7   4 35.9464 2.09614   1
  10   7   4 62.8553 1.93711   1
  10   7   4 40.1219 1.13463   2
  -9   8   4 42.7229 1.19006   1
  -9   8   4 26.7887 1.00309   2
  -5   8   9 649.733 12.7232  -2
  -8   8   4 649.733 12.7232   1
  -7   8   4 215.646 4.43883   1
  -7   8   4 134.213 3.10995   2
  -6   8   4 79.2132 2.27129   2
  -6   8   4 125.352 3.29873   1
  -5   8   4 99.8909 3.66189   1
  -5   8   4 66.0781 2.26893   2
  -4   8   4 702.452 15.6906  -2
  -4   8   4 702.452 15.6906   1
  -3   8   4 61.3121 1.98966   1
  -3   8   4 42.3444 1.93760   2
  -2   8   4 4.36609 0.41012   1
  -2   8   4 1.69420 0.32226   2
  -1   8   4 48.3794 1.30416   2
  -1   8   4 65.5539 1.90012   1
   3   8   1 529.639 9.94663  -2
   0   8   4 529.639 9.94663   1
   1   8   4 64.4533 1.75464   1
   1   8   4 47.3791 1.38944   2
   2   8   4 4.38640 0.44538   1
   2   8   4 3.94042 0.45891   2
   3   8   4 108.605 3.09825   1
   3   8   4 78.3184 2.24360   2
   2   8   6 670.823 12.2292  -2
   4   8   4 670.823 12.2292   1
   5   8   4 285.228 7.54624   1
   2   8   7 313.447 12.8185  -2
   5   8   4 313.447 12.8185   1
   5   8   4 193.921 3.85601   2
   6   8   4 14.7136 0.85517   1
   6   8   4 11.6366 0.65635   2
   7   8   4 81.2819 2.05676   2
   7   8   4 119.539 2.95323   1
   1   8  11 353.461 8.11970  -2
   8   8   4 353.461 8.11970   1
   9   8   4 127.273 3.94493   1
   9   8   4 88.9154 4.27676   2
  -7   9   4 35.2261 1.10041   1
  -7   9   4 13.0981 2.75859   2
  -6   9   4 2.64500 0.42089   2
  -6   9   4 7.82118 0.96491   1
  -5   9   4 77.6668 7.55603   2
  -4   9   4 3.12141 0.74152  -2
  -4   9   4 3.12141 0.74152   1
  -3   9   4 227.510 7.36727   1
  -3   9   4 159.032 5.28746   2
  -2   9   4 15.5943 1.01148   1
  -2   9   4 12.9304 1.33207   2
  -1   9   4 34.6660 1.72899   2
  -1   9   4 45.6802 2.05496   1
   3   9   1 80.7530 2.57745  -2
   0   9   4 80.7530 2.57745   1
   1   9   4 30.0936 1.43671   1
   1   9   4 21.0291 0.95541   2
   2   9   4 27.6021 1.40340   1
   2   9   4 20.4497 1.06821   2
   3   9   4 512.345 10.4863   2
   3   9   4 726.185 17.4593   1
   2   9   6 159.234 4.89480  -2
   4   9   4 159.234 4.89480   1
   5   9   4 135.967 3.71997   2
   5   9   4 190.549 7.30842   1
   2   9   7 267.346 10.9489  -2
   5   9   4 267.346 10.9489   1
   6   9   4 61.7561 2.41960   1
   6   9   4 43.3465 1.77932   2
   7   9   4 120.869 3.83903   2
   7   9   4 173.968 6.55838   1
  -6  10   4 387.783 16.9549   1
  -5  10   4 124.439 6.24630   2
  -5  10   4 222.713 11.3329   1
  -4  10   4 40.3620 3.60400  -2
  -4  10   4 40.3620 3.60400   1
  -3  10   4 76.8270 3.60787   2
  -3  10   4 101.921 7.22591   1
  -2  10   4 170.061 7.32751   1
  -2  10   4 118.470 5.00016   2
  -1  10   4 74.0075 3.12052   2
  -1  10   4 105.145 3.82799   1
   3  10   1 579.111 13.3751  -2
   0  10   4 579.111 13.3751   1
   1  10   4 209.351 6.04249   1
   1  10   4 149.344 6.34835   2
   2  10   4 21.4305 1.92673   2
   2  10   4 31.5953 2.55559   1
   3  10   4 98.7918 4.54876   2
   3  10   4 141.426 6.07001   1
   5  10   4 21.9398 1.59520   2
   2  10   7 30.6458 2.21007  -2
   5  10   4 30.6458 2.21007   1
   6  10   4 118.486 5.71999   2
  -3  11   4 1.92798 1.25104   1
  -3  11   4 1.81561 0.76613   2
  -2  11   4 140.167 8.22333   1
  -2  11   4 94.5648 5.27679   2
  -1  11   4 9.49629 2.23536   1
  -1  11   4 3.52947 1.08422   2
   3  11   1 115.117 6.72813  -2
   0  11   4 115.117 6.72813   1
   1  11   4 4.47865 1.20976   2
 -12   0   5 1.47082 0.43254   1
 -12   0   5 1.47824 0.85253   2
 -11   0   5 732.378 17.4186   2
 -11   0   5 1169.57 27.0369   1
 -10   0   5 1.99015 0.35106   1
 -10   0   5 1.29860 0.28615   2
  -6   0  10 550.666 9.74276  -2
  -9   0   5 550.666 9.74276   1
  -8   0   5 1.67083 0.27496   1
  -8   0   5 1.81130 0.37344   2
  -7   0   5 567.421 7.08729   2
  -7   0   5 871.136 10.2022   1
  -6   0   5 0.64188 0.18267   2
  -6   0   5 1.45301 0.21030   1
  -5   0   5 683.731 7.39578  -2
  -5   0   5 683.731 7.39578   1
  -4   0   5 1.45352 0.20349   2
  -4   0   5 5.24929 0.66073   1
  -3   0   5 5207.05 55.9368   1
  -3   0   5 3307.60 38.5543   2
  -2   0   5 1.15128 0.19021   1
  -2   0   5 1.22160 0.18494   2
   4   0   0 4173.68 68.2412  -2
  -1   0   5 4173.68 68.2412   1
   0   0   5 0.74451 0.12540   2
   0   0   5 1.63553 0.17756   1
   1   0   5 1904.79 25.3765   1
   1   0   5 1266.80 17.7916   2
   2   0   5 1.39724 0.17613   1
   2   0   5 1.68033 0.17736   2
   3   0   5 2429.90 30.6918  -2
   3   0   5 2429.90 30.6918   1
   4   0   5 4.08318 0.57840   1
   4   0   5 1.11035 0.16404   2
   5   0   5 128.516 1.97151   1
   5   0   5 87.7701 1.44173   2
   6   0   5 1.59609 0.23613   1
   6   0   5 1.02973 0.18431   2
   2   0  10 333.576 5.85019  -2
   7   0   5 333.576 5.85019   1
   8   0   5 1.76193 0.27064   2
   8   0   5 2.13640 0.64613   1
   9   0   5 699.958 10.1254   2
   9   0   5 1030.94 16.3113   1
  10   0   5 2.68447 0.58323   1
  10   0   5 1.03868 0.34696   2
   1   0  15 331.967 15.0851  -2
  11   0   5 331.967 15.0851   1
  12   0   5 0.62818 0.44982   2
  12   0   5 1.28493 0.61631   1
 -12   1   5 5.89125 0.55531   2
 -12   1   5 9.47927 0.73588   1
 -11   1   5 28.2364 0.92051   1
 -11   1   5 17.8397 0.67994   2
 -10   1   5 590.793 6.85578   2
 -10   1   5 936.169 9.97993   1
  -6   1  10 23.7993 0.73196  -2
  -9   1   5 23.7993 0.73196   1
  -8   1   5 94.1328 1.27171   1
  -8   1   5 61.5014 0.92619   2
  -7   1   5 3.32587 0.26472   1
  -7   1   5 2.42527 0.22303   2
  -6   1   5 2359.68 21.0375   2
  -6   1   5 3708.56 32.8176   1
  -5   1   5 281.736 2.78922  -2
  -5   1   5 281.736 2.78922   1
  -4   1   5 709.065 6.58427   1
  -4   1   5 467.321 4.69650   2
  -3   1   5 413.722 4.29406   1
  -3   1   5 269.711 3.00986   2
  -2   1   5 4760.65 46.8045   1
  -2   1   5 3176.25 29.9902   2
   4   1   0 132.467 1.56878  -2
  -1   1   5 132.467 1.56878   1
   0   1   5 697.475 6.24002   1
   0   1   5 456.734 4.14230   2
   1   1   5 471.271 4.46192   1
   1   1   5 310.083 3.11052   2
   2   1   5 811.943 7.05928   2
   2   1   5 1194.18 10.5379   1
   3   1   5 342.247 3.38969  -2
   3   1   5 342.247 3.38969   1
   4   1   5 27.5202 0.45067   2
   4   1   5 39.6138 0.59216   1
   5   1   5 409.160 3.96537   1
   5   1   5 286.853 2.84156   2
   6   1   5 2326.24 21.9047   1
   6   1   5 1645.79 15.9545   2
   2   1  10 115.298 1.80865  -2
   7   1   5 115.298 1.80865   1
   2   1  11 859.833 15.8648  -2
   8   1   5 859.833 15.8648   1
   8   1   5 21.1306 0.55861   2
   8   1   5 29.2768 0.96776   1
   9   1   5 7.27869 0.40490   2
   9   1   5 10.4040 0.55788   1
  10   1   5 431.262 4.94044   2
  10   1   5 658.049 8.17818   1
   1   1  14 743.184 30.6050  -2
  10   1   5 743.184 30.6050   1
   1   1  15 40.7442 2.11038  -2
  11   1   5 40.7442 2.11038   1
  12   1   5 7.35870 0.85477   1
  12   1   5 5.08672 0.55633   2
   1   1  16 161.286 5.43762  -2
  12   1   5 161.286 5.43762   1
 -12   2   5 48.3082 1.38246   1
 -12   2   5 30.2614 1.14299   2
 -11   2   5 42.6654 1.13678   2
 -11   2   5 71.6332 1.65516   1
 -10   2   5 51.3557 1.03469   2
 -10   2   5 80.0410 1.31403   1
  -6   2  10 159.956 2.29098  -2
  -9   2   5 159.956 2.29098   1
  -8   2   5 2.58065 0.20812   2
  -8   2   5 4.46713 0.27591   1
  -7   2   5 374.885 3.77705   1
  -7   2   5 239.903 2.87441   2
  -6   2   5 25.3829 0.58401   2
  -6   2   5 38.9888 0.73868   1
  -5   2   5 418.629 4.67628  -2
  -5   2   5 418.629 4.67628   1
  -4   2   5 17.0152 0.51644   1
  -4   2   5 11.7059 0.42885   2
  -3   2   5 47.2744 0.85096   1
  -3   2   5 29.9742 0.67460   2
  -2   2   5 1.65180 0.17035   1
  -2   2   5 1.36167 0.15078   2
   4   2   0 1908.79 23.0696  -2
  -1   2   5 1908.79 23.0696   1
   0   2   5 3.77179 0.18930   1
   0   2   5 2.65329 0.17294   2
   1   2   5 454.375 4.73455   1
   1   2   5 307.864 3.29516   2
   2   2   5 337.050 3.60209   1
   2   2   5 230.274 2.57715   2
   3   2   5 1186.39 13.4686  -2
   3   2   5 1186.39 13.4686   1
   4   2   5 94.5607 1.24626   2
   4   2   5 135.564 1.66261   1
   5   2   5 143.811 1.85464   2
   5   2   5 209.112 2.50931   1
   6   2   5 231.067 2.81716   2
   6   2   5 326.833 3.75233   1
   2   2  10 218.854 3.06239  -2
   7   2   5 218.854 3.06239   1
   8   2   5 1.73033 0.24390   2
   8   2   5 3.76136 0.44978   1
   2   2  11 47.6372 1.41858  -2
   8   2   5 47.6372 1.41858   1
   9   2   5 0.89934 0.22646   2
   9   2   5 1.90597 0.26874   1
  10   2   5 125.031 2.26791   2
  10   2   5 200.235 3.50318   1
   1   2  15 89.1036 3.26794  -2
  11   2   5 89.1036 3.26794   1
  12   2   5 254.354 5.62848   1
  12   2   5 143.603 4.28817   2
   1   2  16 269.429 11.9854  -2
  12   2   5 269.429 11.9854   1
 -12   3   5 443.375 8.06719   1
 -12   3   5 251.724 4.52345   2
 -11   3   5 1.89646 0.31861   1
 -11   3   5 1.57485 0.25473   2
 -10   3   5 332.938 4.40818   1
 -10   3   5 215.919 3.06409   2
  -6   3  10 172.607 2.75382  -2
  -9   3   5 172.607 2.75382   1
  -8   3   5 220.399 2.32353   2
  -8   3   5 351.492 3.47488   1
  -7   3   5 81.7280 1.22699   1
  -7   3   5 51.5564 0.91305   2
  -6   3   5 532.395 6.56117   2
  -6   3   5 827.711 9.46170   1
  -5   3   5 146.010 2.17231  -2
  -5   3   5 146.010 2.17231   1
  -4   3   5 537.298 7.38370   2
  -4   3   5 829.413 10.1508   1
  -3   3   5 34.7863 0.70953   2
  -3   3   5 53.0428 0.92740   1
  -2   3   5 432.486 4.31316   2
  -2   3   5 650.591 7.46469   1
   4   3   0 63.3226 1.15126  -2
  -1   3   5 63.3226 1.15126   1
   0   3   5 1118.62 13.1376   2
   0   3   5 1639.71 16.5083   1
   1   3   5 39.8622 0.64855   2
   1   3   5 57.1376 0.84050   1
   2   3   5 15.7173 0.34617   2
   2   3   5 22.9922 0.45555   1
   3   3   5 918.302 11.7078  -2
   3   3   5 918.302 11.7078   1
   4   3   5 489.739 5.79482   2
   4   3   5 710.825 8.40463   1
   5   3   5 133.825 1.97199   1
   5   3   5 91.1983 1.50370   2
   6   3   5 93.5900 1.56262   1
   6   3   5 65.4287 1.22280   2
   2   3  10 359.393 4.46006  -2
   7   3   5 359.393 4.46006   1
   8   3   5 567.385 7.14462   1
   2   3  11 602.737 10.4356  -2
   8   3   5 602.737 10.4356   1
   8   3   5 377.155 4.08382   2
   9   3   5 6.42949 0.47364   1
   9   3   5 4.85457 0.34577   2
  10   3   5 45.7137 1.12395   2
  10   3   5 71.4223 1.61112   1
   1   3  15 239.014 4.73827  -2
  11   3   5 239.014 4.73827   1
  12   3   5 121.864 2.91042   1
  12   3   5 70.1038 2.24330   2
   1   3  16 135.157 7.32679  -2
  12   3   5 135.157 7.32679   1
 -12   4   5 25.2690 1.14522   2
 -12   4   5 44.0851 2.39448   1
 -11   4   5 358.832 6.04015   1
 -11   4   5 225.089 5.22819   2
 -10   4   5 30.1003 0.93560   1
 -10   4   5 17.3413 0.55967   2
  -6   4  10 590.720 7.31772  -2
  -9   4   5 590.720 7.31772   1
  -8   4   5 2.51839 0.23322   2
  -8   4   5 3.66993 0.27876   1
  -7   4   5 80.6425 1.18817   1
  -7   4   5 51.0416 0.80450   2
  -6   4   5 47.2127 1.03416   1
  -6   4   5 29.4703 0.80645   2
  -5   4   5 1164.10 15.1556  -2
  -5   4   5 1164.10 15.1556   1
  -4   4   5 92.2623 1.62521   1
  -4   4   5 59.4687 1.00215   2
  -3   4   5 301.961 3.92718   1
  -3   4   5 195.215 2.84591   2
  -2   4   5 413.176 5.06881   2
  -2   4   5 634.500 8.94766   1
   4   4   0 994.559 18.2791  -2
  -1   4   5 994.559 18.2791   1
   0   4   5 284.264 3.95444   2
   0   4   5 425.651 5.57832   1
   1   4   5 448.815 6.15668   2
   1   4   5 648.620 8.22489   1
   2   4   5 416.861 5.57857   1
   2   4   5 281.638 3.74831   2
   3   4   5 279.426 5.48116  -2
   3   4   5 279.426 5.48116   1
   4   4   5 170.562 2.86217   1
   4   4   5 114.606 2.05800   2
   5   4   5 39.9410 0.94596   1
   5   4   5 28.2633 0.83787   2
   6   4   5 27.8446 0.65638   2
   6   4   5 42.1084 0.93154   1
   2   4  10 363.487 4.49967  -2
   7   4   5 363.487 4.49967   1
   8   4   5 122.639 2.31320   1
   8   4   5 82.2619 1.33037   2
   2   4  11 173.884 4.61293  -2
   8   4   5 173.884 4.61293   1
   9   4   5 50.7748 1.24703   1
   9   4   5 31.6298 0.83247   2
  10   4   5 29.2535 0.88217   2
  10   4   5 48.5420 1.26508   1
   1   4  15 75.1469 2.10099  -2
  11   4   5 75.1469 2.10099   1
  12   4   5 98.8823 3.31546   2
  12   4   5 149.136 7.36489   1
 -11   5   5 59.3931 1.67810   2
 -11   5   5 93.1032 2.61368   1
 -10   5   5 45.0367 1.18371   1
 -10   5   5 27.3043 0.82743   2
  -6   5  10 445.438 7.40036  -2
  -9   5   5 445.438 7.40036   1
  -8   5   5 1065.40 12.3083   2
  -8   5   5 1723.72 19.7600   1
  -7   5   5 71.3919 1.19786   2
  -7   5   5 112.713 1.84535   1
  -6   5   5 20.8628 0.71829   1
  -6   5   5 13.6430 0.45552   2
  -5   5   5 21.5739 1.28065  -2
  -5   5   5 21.5739 1.28065   1
  -4   5   5 2645.17 64.4073   2
  -4   5   5 3837.80 115.637   1
  -3   5   5 339.228 11.7334   1
  -3   5   5 213.375 4.77312   2
  -2   5   5 5.00010 0.68861   2
  -2   5   5 3.56344 0.61106   1
   4   5   0 310.183 9.04606  -2
  -1   5   5 310.183 9.04606   1
   0   5   5 1861.87 31.9976   2
   0   5   5 2706.90 57.1084   1
   1   5   5 122.228 2.42721   1
   1   5   5 79.6611 1.86455   2
   2   5   5 8.83483 0.41831   1
   2   5   5 5.69974 0.36913   2
   3   5   5 264.938 5.37527  -2
   3   5   5 264.938 5.37527   1
   4   5   5 1374.02 18.3206   2
   4   5   5 1963.50 27.4493   1
   5   5   5 44.0357 1.03370   2
   5   5   5 66.3576 1.45525   1
   6   5   5 6.70356 0.37685   1
   6   5   5 4.88519 0.30086   2
   2   5   9 792.666 30.5074  -2
   6   5   5 792.666 30.5074   1
   2   5  10 40.4203 0.91381  -2
   7   5   5 40.4203 0.91381   1
   8   5   5 515.822 5.90052   2
   2   5  11 981.874 19.8769  -2
   8   5   5 981.874 19.8769   1
   8   5   5 826.685 12.7853   1
   9   5   5 17.2834 0.81320   1
   9   5   5 10.1046 0.58161   2
  10   5   5 1.56698 0.41457   1
  10   5   5 0.73917 0.28323   2
   1   5  15 49.6301 2.27495  -2
  11   5   5 49.6301 2.27495   1
 -11   6   5 78.3025 3.72058   1
 -11   6   5 52.5557 2.46325   2
 -10   6   5 61.2440 1.55306   2
 -10   6   5 98.8643 2.45139   1
  -6   6  10 230.219 5.87666  -2
  -9   6   5 230.219 5.87666   1
  -8   6   5 33.0389 0.98465   2
  -8   6   5 51.9283 1.36671   1
  -7   6   5 60.0143 1.35506   2
  -7   6   5 91.6079 1.67935   1
  -6   6   5 269.531 4.08438   1
  -6   6   5 185.336 2.87161   2
  -5   6   5 489.169 7.76222  -2
  -5   6   5 489.169 7.76222   1
  -4   6   5 154.889 4.08540   2
  -4   6   5 232.847 6.98369   1
  -3   6   5 792.400 19.6784   2
  -3   6   5 1019.36 31.5951   1
  -2   6   5 72.9170 2.09651   2
  -2   6   5 103.034 4.37007   1
   4   6   0 1442.75 33.0268  -2
  -1   6   5 1442.75 33.0268   1
   0   6   5 479.037 8.60304   2
   0   6   5 703.282 16.6916   1
   1   6   5 361.539 6.48346   2
   1   6   5 513.906 11.8306   1
   2   6   5 3.61004 0.38777   2
   2   6   5 4.00198 0.47791   1
   3   6   5 14.2929 1.30306  -2
   3   6   5 14.2929 1.30306   1
   4   6   5 6.96864 0.53893   1
   4   6   5 3.89721 0.40248   2
   3   6   6 22.3892 2.16329  -2
   4   6   5 22.3892 2.16329   1
   5   6   5 180.641 2.73260   1
   5   6   5 118.284 1.86944   2
   6   6   5 0.76906 0.23409   2
   6   6   5 1.23013 0.22633   1
   2   6  10 666.263 11.5503  -2
   7   6   5 666.263 11.5503   1
   8   6   5 15.0058 0.93732   1
   2   6  11 25.8960 2.11295  -2
   8   6   5 25.8960 2.11295   1
   8   6   5 8.69282 0.59112   2
   9   6   5 154.392 2.66021   2
   9   6   5 228.740 3.89331   1
  10   6   5 37.9851 1.26961   1
  10   6   5 24.2680 0.91008   2
 -10   7   5 17.1780 0.84178   2
 -10   7   5 28.7101 1.86657   1
  -6   7  10 81.0626 2.51207  -2
  -9   7   5 81.0626 2.51207   1
  -8   7   5 784.471 12.2756   1
  -8   7   5 499.954 9.36101   2
  -7   7   5 5.24731 0.60748   1
  -7   7   5 3.54890 0.44385   2
  -6   7   5 19.3868 0.89189   2
  -6   7   5 26.8621 1.13619   1
  -5   7   5 185.167 4.10426  -2
  -5   7   5 185.167 4.10426   1
  -4   7   5 610.556 12.4621   1
  -4   7   5 416.726 9.24208   2
  -3   7   5 223.787 6.16010   1
  -3   7   5 164.286 5.48955   2
  -2   7   5 148.597 3.60560   1
  -2   7   5 105.075 3.45758   2
   4   7   0 168.068 3.79335  -2
  -1   7   5 168.068 3.79335   1
   0   7   5 558.825 10.2730   1
   0   7   5 399.252 6.57455   2
   1   7   5 39.1808 1.35541   1
   1   7   5 29.6743 0.99003   2
   2   7   5 78.0484 1.79076   1
   2   7   5 52.4760 1.37088   2
   3   7   5 479.233 9.99228  -2
   3   7   5 479.233 9.99228   1
   4   7   5 223.916 4.40261   2
   4   7   5 326.460 6.04947   1
   5   7   5 219.477 4.53288   1
   5   7   5 148.957 3.36143   2
   6   7   5 16.1816 0.94186   1
   6   7   5 9.16850 0.66974   2
   2   7  10 253.585 4.80423  -2
   7   7   5 253.585 4.80423   1
   8   7   5 86.3339 2.41447   2
   8   7   5 136.224 3.39855   1
   2   7  11 201.228 6.52252  -2
   8   7   5 201.228 6.52252   1
   9   7   5 47.1194 1.22667   2
   9   7   5 72.0872 1.79591   1
  10   7   5 51.0442 2.07797   1
  10   7   5 33.7572 2.24804   2
  -8   8   5 17.4740 0.77420   1
  -8   8   5 10.2599 0.57774   2
  -7   8   5 7.62533 0.58723   2
  -7   8   5 8.45940 0.66835   1
  -6   8   5 61.0207 2.02573   1
  -6   8   5 38.6391 1.35317   2
  -5   8   5 1.77032 0.57720  -2
  -5   8   5 1.77032 0.57720   1
  -4   8   5 28.5817 1.62826   1
  -4   8   5 18.2454 1.21509   2
  -3   8   5 6.54922 0.93338   1
  -3   8   5 7.57879 0.86149   2
  -2   8   5 44.0884 1.95138   2
  -2   8   5 57.4682 1.93144   1
   4   8   0 133.157 3.67793  -2
  -1   8   5 133.157 3.67793   1
   0   8   5 1.43888 0.29874   2
   0   8   5 1.59361 0.63018   1
   1   8   5 19.9423 1.08244   2
   1   8   5 26.6558 1.20231   1
   2   8   5 20.1802 1.11092   2
   2   8   5 24.4224 1.40631   1
   3   8   5 7.42160 0.46707  -2
   3   8   5 7.42160 0.46707   1
   4   8   5 30.7742 1.02850   1
   4   8   5 23.0316 0.93420   2
   5   8   5 74.0055 1.85042   2
   5   8   5 102.020 2.48808   1
   6   8   5 314.753 6.04617   1
   6   8   5 209.181 4.11637   2
   2   8  10 91.1655 2.74626  -2
   7   8   5 91.1655 2.74626   1
   8   8   5 1.38135 0.39236   1
   2   8  11 3.70907 1.02750  -2
   8   8   5 3.70907 1.02750   1
   8   8   5 1.85030 0.29481   2
   9   8   5 13.4053 1.63416   1
   9   8   5 11.2908 1.35222   2
  -7   9   5 58.8531 1.59879   2
  -7   9   5 91.4704 2.36503   1
  -6   9   5 79.2070 3.52582   1
  -6   9   5 41.1331 5.00764   2
  -4   9   5 28.9147 1.75768   2
  -4   9   5 20.5712 2.39942   1
  -3   9   5 125.804 4.95591   1
  -3   9   5 88.7447 3.55110   2
  -2   9   5 478.117 12.6753   2
  -2   9   5 654.702 17.4684   1
   4   9   0 70.7772 3.14447  -2
  -1   9   5 70.7772 3.14447   1
   0   9   5 103.231 3.18232   2
   0   9   5 133.494 4.07092   1
   1   9   5 7.56701 0.77200   1
   1   9   5 5.33248 0.66730   2
   2   9   5 327.263 8.62786   2
   2   9   5 428.879 9.10124   1
   3   9   5 52.4271 1.91959  -2
   3   9   5 52.4271 1.91959   1
   4   9   5 34.3239 1.31551   2
   4   9   5 43.8745 1.44245   1
   5   9   5 17.1187 1.00570   2
   5   9   5 22.5305 1.17163   1
   6   9   5 582.582 14.1218   1
   6   9   5 430.519 10.0533   2
  -5  10   5 43.4934 3.22883  -2
  -5  10   5 43.4934 3.22883   1
  -4  10   5 70.5323 4.32638   2
  -4  10   5 124.236 7.56391   1
  -3  10   5 109.803 7.32036   1
  -3  10   5 63.6775 3.09258   2
  -2  10   5 96.2366 4.23801   2
  -2  10   5 149.287 6.57439   1
   4  10   0 710.266 22.5717  -2
  -1  10   5 710.266 22.5717   1
   0  10   5 79.1124 3.14763   2
   0  10   5 121.689 5.96298   1
   1  10   5 35.3840 1.91544   2
   1  10   5 55.3197 3.68655   1
   2  10   5 254.366 9.26495   2
   2  10   5 363.402 18.7989   1
   3  10   5 46.9486 4.45729  -2
   3  10   5 46.9486 4.45729   1
   4  10   5 -0.0943 0.45028   2
   3  10   6 36.6644 2.38945  -2
   4  10   5 36.6644 2.38945   1
   5  10   5 15.1210 1.49212   2
  -2  11   5 278.522 13.2649   1
  -2  11   5 168.250 7.98041   2
   4  11   0 188.768 9.33173  -2
  -1  11   5 188.768 9.33173   1
   0  11   5 1.80591 0.83322   2
 -12   0   6 322.397 13.2386   2
 -12   0   6 507.314 14.5768   1
 -11   0   6 2.05958 0.61893   2
 -11   0   6 3.08621 0.80770   1
  -7   0  11 9.63470 0.95333  -2
 -10   0   6 9.63470 0.95333   1
  -9   0   6 1.80310 0.32820   1
  -9   0   6 1.01512 0.23665   2
  -8   0   6 619.025 8.03561   2
  -8   0   6 982.952 12.9321   1
  -7   0   6 1.15009 0.22605   1
  -7   0   6 0.94757 0.20452   2
  -6   0   6 162.126 2.53213  -2
  -6   0   6 162.126 2.53213   1
  -5   0   6 0.94978 0.19290   1
  -5   0   6 0.59011 0.16444   2
  -4   0   6 4443.89 44.5691   1
  -4   0   6 2870.93 28.1649   2
  -3   0   6 3.42793 0.35593   1
  -3   0   6 0.72028 0.18204   2
  -5   0   1 948.887 14.9185  -2
  -2   0   6 948.887 14.9185   1
  -1   0   6 1.64224 0.17757   2
  -1   0   6 1.61159 0.19043   1
   0   0   6 3103.23 40.9209   1
   0   0   6 2003.31 22.2300   2
   1   0   6 1.64390 0.15980   1
   1   0   6 0.91741 0.11933   2
   4   0   4 361.710 4.62180  -2
   2   0   6 361.710 4.62180   1
   3   0   6 1.04846 0.17650   2
   3   0   6 2.18898 0.25164   1
   4   0   6 3004.97 37.5283   1
   4   0   6 2065.58 25.8979   2
   5   0   6 1.39539 0.20375   2
   5   0   6 1.80340 0.24573   1
   3   0   9 244.512 4.39000  -2
   6   0   6 244.512 4.39000   1
   7   0   6 0.66192 0.23374   2
   7   0   6 1.92989 0.45305   1
   8   0   6 569.974 8.27801   2
   8   0   6 798.449 12.7035   1
   9   0   6 0.80124 0.42888   1
   9   0   6 1.34195 0.35609   2
   2   0  14 309.710 8.42270  -2
  10   0   6 309.710 8.42270   1
  11   0   6 0.70485 0.70982   1
  11   0   6 -0.3793 0.43175   2
  12   0   6 261.822 7.85440   2
  12   0   6 423.045 12.2117   1
 -12   1   6 46.6966 1.37680   1
 -12   1   6 31.4888 1.16503   2
 -11   1   6 361.141 6.70236   2
 -11   1   6 576.738 8.95957   1
  -7   1  11 44.8830 1.61718  -2
 -10   1   6 44.8830 1.61718   1
  -9   1   6 140.720 1.84504   2
  -9   1   6 220.871 2.45243   1
  -8   1   6 21.6962 0.57930   1
  -8   1   6 13.7118 0.42522   2
  -7   1   6 581.662 5.59614   2
  -7   1   6 905.695 7.91704   1
  -6   1   6 70.8234 1.12981  -2
  -6   1   6 70.8234 1.12981   1
  -5   1   6 411.196 4.12995   2
  -5   1   6 637.013 6.01326   1
  -4   1   6 52.0761 0.78051   1
  -4   1   6 33.3556 0.57893   2
  -3   1   6 1916.52 16.9673   2
  -3   1   6 2926.70 25.4548   1
  -5   1   1 799.292 11.5376  -2
  -2   1   6 799.292 11.5376   1
  -1   1   6 513.440 4.67059   1
  -1   1   6 334.976 3.16276   2
   0   1   6 159.305 1.53460   1
   0   1   6 105.543 1.14302   2
   1   1   6 246.061 2.30540   2
   1   1   6 369.219 3.33151   1
   4   1   4 537.539 5.27547  -2
   2   1   6 537.539 5.27547   1
   3   1   6 1751.59 16.2333   1
   3   1   6 1194.60 10.6055   2
   4   1   6 83.6944 0.95981   2
   4   1   6 119.964 1.32988   1
   5   1   6 1152.24 10.9946   2
   5   1   6 1634.74 15.8241   1
   3   1   9 84.2474 1.38777  -2
   6   1   6 84.2474 1.38777   1
   3   1  10 2091.03 27.3970  -2
   7   1   6 2091.03 27.3970   1
   7   1   6 1274.88 11.9598   2
   7   1   6 1802.14 33.2619   1
   8   1   6 2.48941 0.27925   1
   8   1   6 1.41709 0.20215   2
   9   1   6 366.279 4.88328   1
   9   1   6 242.300 2.91774   2
   2   1  14 50.5641 1.60658  -2
  10   1   6 50.5641 1.60658   1
  11   1   6 267.829 6.48798   2
  11   1   6 456.724 13.8513   1
   2   1  15 487.189 14.5454  -2
  11   1   6 487.189 14.5454   1
  12   1   6 56.6560 2.42689   2
 -12   2   6 110.027 3.00530   2
 -12   2   6 171.755 3.22126   1
 -11   2   6 290.055 5.94500   2
 -11   2   6 467.750 7.48566   1
  -7   2  11 296.917 5.96466  -2
 -10   2   6 296.917 5.96466   1
  -9   2   6 138.246 1.72504   2
  -9   2   6 216.554 2.60891   1
  -8   2   6 336.862 3.14113   1
  -8   2   6 217.461 2.22642   2
  -7   2   6 253.703 2.67652   2
  -7   2   6 398.289 3.80840   1
  -6   2   6 582.985 6.35345  -2
  -6   2   6 582.985 6.35345   1
  -5   2   6 255.733 2.79115   2
  -5   2   6 393.505 4.06722   1
  -4   2   6 819.346 7.97966   1
  -4   2   6 528.837 5.41884   2
  -3   2   6 317.406 3.76159   1
  -3   2   6 205.048 2.62464   2
  -5   2   1 550.596 7.48692  -2
  -2   2   6 550.596 7.48692   1
  -1   2   6 50.7413 0.79077   1
  -1   2   6 34.2196 0.57891   2
   0   2   6 2101.09 20.8622   1
   0   2   6 1388.77 14.0316   2
   1   2   6 822.107 8.57097   1
   1   2   6 545.878 6.14405   2
   4   2   4 60.8092 0.95200  -2
   2   2   6 60.8092 0.95200   1
   3   2   6 116.481 1.43565   2
   3   2   6 169.833 2.04926   1
   4   2   6 571.012 6.63817   1
   4   2   6 397.604 4.47998   2
   5   2   6 19.6298 0.50868   2
   5   2   6 28.4792 0.62867   1
   3   2   9 206.317 3.05308  -2
   6   2   6 206.317 3.05308   1
   3   2  10 469.562 7.49464  -2
   7   2   6 469.562 7.49464   1
   7   2   6 13.6326 0.46247   2
   7   2   6 18.0570 0.78259   1
   8   2   6 60.2078 1.00318   2
   8   2   6 88.7891 1.40464   1
   9   2   6 4.24715 0.44317   1
   9   2   6 2.07704 0.29919   2
   2   2  14 55.3573 1.72883  -2
  10   2   6 55.3573 1.72883   1
  11   2   6 50.4731 5.33448   1
   2   2  15 100.059 6.34322  -2
  11   2   6 100.059 6.34322   1
  11   2   6 27.9954 4.05019   2
  12   2   6 138.812 4.28152   2
  12   2   6 206.021 5.04036   1
 -12   3   6 27.0222 0.98426   2
 -12   3   6 41.9061 1.36279   1
 -11   3   6 9.07564 0.50224   2
 -11   3   6 14.3451 0.56996   1
  -7   3  11 90.0671 2.00486  -2
 -10   3   6 90.0671 2.00486   1
  -9   3   6 8.23062 0.38581   2
  -9   3   6 12.4789 0.60619   1
  -8   3   6 82.8734 1.16340   2
  -8   3   6 131.803 1.58792   1
  -7   3   6 18.6501 0.49573   1
  -7   3   6 12.1962 0.40575   2
  -6   3   6 1612.12 18.4571  -2
  -6   3   6 1612.12 18.4571   1
  -5   3   6 2.01949 0.21676   2
  -5   3   6 1.17927 0.22058   1
  -4   3   6 81.4222 1.48681   2
  -4   3   6 122.656 1.91601   1
  -3   3   6 16.8370 0.51553   2
  -3   3   6 24.3802 0.70947   1
  -5   3   1 868.066 13.4117  -2
  -2   3   6 868.066 13.4117   1
  -1   3   6 167.354 2.02813   2
  -1   3   6 260.095 3.43264   1
   5   3   0 251.070 11.4471  -2
  -1   3   6 251.070 11.4471   1
   0   3   6 8.55140 0.31827   2
   0   3   6 13.8416 0.42384   1
   1   3   6 244.749 2.95576   2
   1   3   6 353.138 4.53037   1
   4   3   4 1376.84 20.8186  -2
   2   3   6 1376.84 20.8186   1
   3   3   6 4.31271 0.25663   2
   3   3   6 5.46706 0.31542   1
   4   3   6 7.86295 0.40052   1
   4   3   6 5.78281 0.31015   2
   5   3   6 30.1485 0.73646   2
   5   3   6 44.6974 0.94026   1
   3   3   9 80.6671 1.57367  -2
   6   3   6 80.6671 1.57367   1
   7   3   6 1.20269 0.18608   2
   7   3   6 3.18356 0.29749   1
   3   3  10 23.6731 1.17469  -2
   7   3   6 23.6731 1.17469   1
   8   3   6 17.8602 0.48427   2
   8   3   6 26.9138 0.69705   1
   9   3   6 108.209 1.75719   2
   9   3   6 167.320 2.79952   1
   2   3  13 397.576 16.6004  -2
   9   3   6 397.576 16.6004   1
   2   3  14 266.244 5.48441  -2
  10   3   6 266.244 5.48441   1
   2   3  15 75.2294 2.30029  -2
  11   3   6 75.2294 2.30029   1
  11   3   6 15.0111 1.31909   2
  11   3   6 20.6065 2.45448   1
  12   3   6 0.24254 0.78509   2
  12   3   6 0.93559 0.80567   1
 -11   4   6 91.4377 1.95525   2
 -11   4   6 146.560 2.73577   1
  -7   4  11 1443.68 26.9708  -2
 -10   4   6 1443.68 26.9708   1
  -9   4   6 236.591 3.02301   1
  -9   4   6 146.497 2.03274   2
  -8   4   6 39.9507 0.78516   1
  -8   4   6 25.7423 0.60331   2
  -7   4   6 17.1268 0.48721   1
  -7   4   6 10.4243 0.35338   2
  -6   4   6 2717.83 27.2949  -2
  -6   4   6 2717.83 27.2949   1
  -5   4   6 10.4971 0.58857   1
  -5   4   6 7.20026 0.44597   2
  -4   4   6 122.560 1.89663   2
  -4   4   6 185.000 2.89602   1
  -3   4   6 3.66722 0.30551   2
  -3   4   6 6.46471 0.42165   1
  -5   4   1 3169.06 57.5726  -2
  -2   4   6 3169.06 57.5726   1
  -1   4   6 1.13824 0.15382   2
  -1   4   6 1.95808 0.23536   1
   0   4   6 29.2102 0.64141   2
   0   4   6 43.3452 0.91852   1
   1   4   6 21.3189 0.61024   1
   1   4   6 14.3252 0.49159   2
   4   4   4 2005.07 33.8861  -2
   2   4   6 2005.07 33.8861   1
   3   4   6 8.69726 0.46576   2
   3   4   6 14.0719 0.57524   1
   4   4   6 2.04763 0.27381   2
   4   4   6 5.43706 0.76525   1
   5   4   6 12.4314 0.50475   2
   5   4   6 16.7950 0.57637   1
   3   4   9 324.346 4.17773  -2
   6   4   6 324.346 4.17773   1
   7   4   6 59.9620 0.99830   2
   7   4   6 88.9257 1.81454   1
   3   4  10 142.313 4.32164  -2
   7   4   6 142.313 4.32164   1
   8   4   6 52.8811 1.19966   1
   8   4   6 34.8267 0.80524   2
   9   4   6 22.6307 0.95119   1
   2   4  13 208.184 9.74369  -2
   9   4   6 208.184 9.74369   1
   9   4   6 12.4709 0.58671   2
   2   4  14 387.758 6.11429  -2
  10   4   6 387.758 6.11429   1
  11   4   6 17.3467 2.20409   2
  11   4   6 21.6266 2.27402   1
   2   4  15 33.9606 2.03975  -2
  11   4   6 33.9606 2.03975   1
 -11   5   6 36.9679 1.14905   2
 -11   5   6 59.1702 2.39781   1
  -7   5  11 209.770 4.46101  -2
 -10   5   6 209.770 4.46101   1
  -9   5   6 216.195 3.30137   2
  -9   5   6 355.901 5.59069   1
  -8   5   6 245.551 3.63172   2
  -8   5   6 393.587 5.25656   1
  -7   5   6 238.239 2.93403   2
  -7   5   6 375.051 4.71882   1
  -6   5   6 93.3456 1.57461  -2
  -6   5   6 93.3456 1.57461   1
  -5   5   6 574.113 6.52004   1
  -5   5   6 376.725 4.62962   2
  -4   5   6 127.118 3.10256   1
  -4   5   6 75.9774 2.14592   2
  -3   5   6 673.600 14.8808   2
  -3   5   6 1081.06 23.3508   1
  -5   5   1 926.935 19.9756  -2
  -2   5   6 926.935 19.9756   1
  -1   5   6 1369.71 21.7097   2
  -1   5   6 2148.92 33.0280   1
   0   5   6 649.437 10.0045   1
   0   5   6 437.571 7.10824   2
   1   5   6 534.437 7.26986   1
   1   5   6 357.575 5.49890   2
   4   5   4 141.413 3.33540  -2
   2   5   6 141.413 3.33540   1
   3   5   6 988.269 15.0506   1
   3   5   6 670.241 10.5044   2
   4   5   6 85.7524 1.82653   2
   4   5   6 127.955 2.47315   1
   5   5   6 333.579 3.97443   1
   5   5   6 229.008 2.66202   2
   3   5   9 120.329 1.91861  -2
   6   5   6 120.329 1.91861   1
   7   5   6 612.265 9.66290   1
   7   5   6 407.475 4.80978   2
   3   5  10 905.653 17.7402  -2
   7   5   6 905.653 17.7402   1
   8   5   6 234.893 3.26067   1
   8   5   6 136.210 1.91724   2
   9   5   6 339.064 5.41052   2
   9   5   6 582.492 10.2471   1
   2   5  13 1140.39 42.9305  -2
   9   5   6 1140.39 42.9305   1
   2   5  14 104.878 2.77348  -2
  10   5   6 104.878 2.77348   1
  11   5   6 248.654 7.13403   1
  -7   6  11 307.774 7.16839  -2
 -10   6   6 307.774 7.16839   1
  -9   6   6 119.332 2.69854   2
  -9   6   6 190.737 4.27947   1
  -8   6   6 105.671 2.18114   2
  -8   6   6 170.680 3.62365   1
  -7   6   6 141.233 2.61700   2
  -7   6   6 214.752 3.52445   1
  -6   6   6 1581.11 21.1091  -2
  -6   6   6 1581.11 21.1091   1
  -5   6   6 507.458 6.90490   1
  -5   6   6 326.312 4.68621   2
  -4   6   6 27.4029 0.96621   1
  -4   6   6 18.5986 0.73583   2
  -3   6   6 135.384 3.71478   1
  -3   6   6 95.0455 3.04822   2
  -5   6   1 2156.17 93.6622  -2
  -2   6   6 2156.17 93.6622   1
  -1   6   6 77.7547 2.38488   2
  -1   6   6 116.920 4.33847   1
   0   6   6 31.1873 1.69438   1
   0   6   6 20.7054 1.00810   2
   1   6   6 101.547 3.48022   1
   1   6   6 69.5609 2.20505   2
   4   6   4 1011.42 44.6902  -2
   2   6   6 1011.42 44.6902   1
   3   6   6 21.9626 0.89373   2
   3   6   6 27.2841 0.90478   1
   4   6   6 50.0344 1.08776   2
   4   6   6 74.1773 1.50558   1
   5   6   6 64.4339 1.34920   1
   5   6   6 41.4228 0.98367   2
   3   6   9 629.880 10.9015  -2
   6   6   6 629.880 10.9015   1
   7   6   6 1.31390 0.45307   1
   3   6  10 3.40448 1.03913  -2
   7   6   6 3.40448 1.03913   1
   7   6   6 1.39062 0.28048   2
   8   6   6 58.6281 1.30998   2
   8   6   6 96.4660 2.09170   1
   9   6   6 71.6014 1.66581   2
   9   6   6 112.526 2.32179   1
   2   6  14 274.005 6.36832  -2
  10   6   6 274.005 6.36832   1
  -9   7   6 94.4748 2.33771   1
  -9   7   6 59.4269 1.49064   2
  -8   7   6 1.04226 0.25186   2
  -8   7   6 1.85258 0.33493   1
  -7   7   6 230.208 4.45199   2
  -7   7   6 354.270 6.56407   1
  -6   7   6 3.08696 0.50269  -2
  -6   7   6 3.08696 0.50269   1
  -5   7   6 385.101 7.24416   1
  -5   7   6 248.450 4.50148   2
  -4   7   6 74.4158 2.53572   2
  -4   7   6 114.632 3.20345   1
  -3   7   6 30.5287 1.50695   2
  -3   7   6 39.1777 1.84085   1
  -5   7   1 68.2774 2.84112  -2
  -2   7   6 68.2774 2.84112   1
  -1   7   6 164.813 4.24502   1
  -1   7   6 119.436 3.33734   2
   0   7   6 107.474 2.66126   2
   0   7   6 143.437 3.18716   1
   1   7   6 397.202 7.13409   1
   1   7   6 280.305 5.00709   2
   4   7   4 280.276 7.15720  -2
   2   7   6 280.276 7.15720   1
   3   7   6 15.2684 0.73315   2
   3   7   6 22.6798 0.96942   1
   4   7   6 205.863 4.32044   1
   4   7   6 143.539 3.25258   2
   5   7   6 341.293 6.57695   2
   5   7   6 495.901 9.82752   1
   3   7   9 77.4654 2.38747  -2
   6   7   6 77.4654 2.38747   1
   7   7   6 75.8185 2.54627   2
   3   7  10 265.221 6.42839  -2
   7   7   6 265.221 6.42839   1
   7   7   6 113.838 4.66167   1
   8   7   6 137.575 2.90681   1
   8   7   6 82.8213 1.77758   2
   9   7   6 81.6674 1.89973   1
   9   7   6 54.3230 1.54037   2
  -8   8   6 291.772 5.87676   1
  -8   8   6 179.435 3.81713   2
  -7   8   6 59.8655 1.57770   1
  -7   8   6 22.6995 1.84501   2
  -6   8   6 5.33273 0.58171  -2
  -6   8   6 5.33273 0.58171   1
  -5   8   6 17.4735 0.95321   2
  -5   8   6 28.9747 1.36440   1
  -4   8   6 554.258 10.2100   1
  -4   8   6 368.654 9.36700   2
  -3   8   6 205.384 5.95724   2
  -3   8   6 279.611 6.86561   1
  -5   8   1 158.822 4.20707  -2
  -2   8   6 158.822 4.20707   1
  -1   8   6 70.4894 2.69899   2
  -1   8   6 98.3048 3.06719   1
   0   8   6 200.664 5.43696   2
   0   8   6 286.602 7.50074   1
   1   8   6 6.48171 1.00848   1
   1   8   6 3.83433 0.70116   2
   4   8   4 514.684 13.8539  -2
   2   8   6 514.684 13.8539   1
   3   8   6 5.99826 0.63221   1
   3   8   6 4.02628 0.43625   2
   4   8   6 463.674 8.18208   1
   4   8   6 325.568 6.20421   2
   5   8   6 3.44184 0.40634   2
   5   8   6 4.69355 0.54450   1
   3   8   9 394.703 9.37467  -2
   6   8   6 394.703 9.37467   1
   3   8  10 168.808 4.20699  -2
   7   8   6 168.808 4.20699   1
   7   8   6 1.78914 0.36731   2
   7   8   6 0.93825 0.58345   1
   8   8   6 3.72420 0.40053   1
   8   8   6 2.37386 0.34685   2
  -6   9   6 173.287 4.47779  -2
  -6   9   6 173.287 4.47779   1
  -5   9   6 24.0214 2.16781   1
  -4   9   6 11.0448 0.68597   2
  -4   9   6 15.7679 1.76763   1
  -3   9   6 21.6289 1.20169   2
  -3   9   6 31.6721 1.74310   1
  -5   9   1 454.498 10.1663  -2
  -2   9   6 454.498 10.1663   1
  -1   9   6 84.1934 2.95803   1
  -1   9   6 54.4171 2.03434   2
   0   9   6 23.8828 1.48628   1
   0   9   6 18.5319 1.19121   2
   1   9   6 66.4287 2.26911   2
   1   9   6 88.6150 2.82608   1
   4   9   4 194.716 5.33220  -2
   2   9   6 194.716 5.33220   1
   3   9   6 33.0656 1.17214   2
   3   9   6 45.3122 1.61996   1
   4   9   6 150.061 3.97872   1
   4   9   6 105.149 3.00268   2
   5   9   6 69.4049 6.43376   1
   3   9   9 48.9208 2.68534  -2
   6   9   6 48.9208 2.68534   1
  -5  10   6 14.8586 1.51713   2
  -4  10   6 251.285 11.1253   2
  -4  10   6 86.2815 5.50578   1
  -3  10   6 59.7670 4.81775   1
  -3  10   6 32.5452 2.77823   2
  -5  10   1 141.161 7.88800  -2
  -2  10   6 141.161 7.88800   1
  -1  10   6 26.5005 2.47582   1
  -1  10   6 18.0462 1.59719   2
   0  10   6 271.665 9.15687   2
   0  10   6 397.974 13.9021   1
   1  10   6 81.5611 3.61046   2
   1  10   6 125.413 8.52979   1
   4  10   4 50.8947 4.84706  -2
   2  10   6 50.8947 4.84706   1
   3  10   6 45.9499 2.62498   1
   4  10   6 159.057 6.67457   2
   4  10   6 245.040 9.85960   1
 -12   0   7 2.54230 0.94939   1
  -8   0  12 19.4330 1.86786  -2
 -11   0   7 19.4330 1.86786   1
 -10   0   7 1.26729 0.33068   1
 -10   0   7 1.72270 0.41312   2
  -9   0   7 30.4232 0.95120   1
  -9   0   7 18.0040 0.77579   2
  -8   0   7 0.84202 0.21469   2
  -8   0   7 1.24476 0.28151   1
  -7   0   7 31.5199 0.90551  -2
  -7   0   7 31.5199 0.90551   1
  -6   0   7 1.82854 0.26084   1
  -6   0   7 1.37362 0.21060   2
  -5   0   7 357.933 4.39981   2
  -5   0   7 551.808 6.72420   1
  -4   0   7 0.98004 0.17698   2
  -4   0   7 3.97816 0.38056   1
  -6   0   2 543.815 8.01585  -2
  -3   0   7 543.815 8.01585   1
  -2   0   7 1.07572 0.20048   2
  -2   0   7 7.09022 0.77336   1
  -1   0   7 292.646 3.46354   2
  -1   0   7 455.290 5.64451   1
   0   0   7 2.47631 0.26652   1
   0   0   7 1.23941 0.14669   2
   5   0   3 345.336 5.00880  -2
   1   0   7 345.336 5.00880   1
   2   0   7 1.36935 0.17524   1
   2   0   7 0.90109 0.14367   2
   3   0   7 39.9750 0.85493   1
   3   0   7 25.4978 0.62943   2
   4   0   7 0.91265 0.19366   2
   4   0   7 1.41319 0.21522   1
   4   0   8 1734.23 25.5220  -2
   5   0   7 1734.23 25.5220   1
   6   0   7 2.11213 0.38470   1
   6   0   7 1.07224 0.22773   2
   7   0   7 2.24517 0.41688   1
   7   0   7 3.05445 0.36824   2
   8   0   7 1.26345 0.26748   2
   8   0   7 2.55048 0.39764   1
   3   0  13 69.0060 2.52050  -2
   9   0   7 69.0060 2.52050   1
  10   0   7 2.01254 0.92501   2
  10   0   7 0.97036 0.72728   1
  11   0   7 91.8458 3.38791   1
  11   0   7 45.9698 2.02902   2
  12   0   7 0.01153 0.30744   2
  12   0   7 0.21058 0.73736   1
 -12   1   7 202.355 3.88704   1
 -12   1   7 130.040 3.26375   2
  -8   1  12 80.9617 3.32980  -2
 -11   1   7 80.9617 3.32980   1
 -10   1   7 4.37693 0.36721   2
 -10   1   7 6.88372 0.57703   1
  -9   1   7 86.4756 1.28222   2
  -9   1   7 139.152 2.03809   1
  -8   1   7 589.476 5.55624   1
  -8   1   7 375.825 3.68009   2
  -7   1   7 123.427 1.57114  -2
  -7   1   7 123.427 1.57114   1
  -6   1   7 34.6984 0.65866   2
  -6   1   7 56.6269 0.92081   1
  -5   1   7 119.112 1.43837   1
  -5   1   7 77.1425 1.06474   2
  -4   1   7 1168.22 10.4348   2
  -4   1   7 1813.26 15.9982   1
  -6   1   2 1292.71 16.0326  -2
  -3   1   7 1292.71 16.0326   1
  -2   1   7 54.9188 0.83769   1
  -2   1   7 37.0873 0.56607   2
  -1   1   7 5.24675 0.27539   1
  -1   1   7 3.78023 0.21833   2
   0   1   7 1548.38 13.5881   2
   0   1   7 2345.34 20.5097   1
   5   1   3 60.8580 0.97278  -2
   1   1   7 60.8580 0.97278   1
   2   1   7 20.4587 0.39773   2
   2   1   7 31.1914 0.52425   1
   3   1   7 17.4716 0.35980   2
   3   1   7 24.8242 0.44061   1
   4   1   7 4784.05 43.4101   1
   4   1   7 3273.74 30.5943   2
   4   1   8 92.8870 1.41556  -2
   5   1   7 92.8870 1.41556   1
   4   1   9 952.769 12.9618  -2
   6   1   7 952.769 12.9618   1
   6   1   7 154.083 2.07234   2
   6   1   7 216.095 5.27923   1
   7   1   7 4.75964 0.30371   2
   7   1   7 7.42255 0.39464   1
   8   1   7 1190.71 13.2639   1
   8   1   7 857.312 8.91931   2
   3   1  13 193.024 3.14338  -2
   9   1   7 193.024 3.14338   1
   3   1  14 20.8359 1.44852  -2
  10   1   7 20.8359 1.44852   1
  10   1   7 5.99400 0.84786   2
  10   1   7 8.13603 1.25760   1
  11   1   7 7.15638 0.57588   2
  11   1   7 10.3569 1.02634   1
  12   1   7 352.726 13.4694   2
  12   1   7 560.414 21.5274   1
 -12   2   7 348.530 6.63484   1
 -12   2   7 226.858 6.60405   2
  -8   2  12 51.9742 1.85507  -2
 -11   2   7 51.9742 1.85507   1
 -10   2   7 625.023 7.84179   1
 -10   2   7 390.226 5.24462   2
  -9   2   7 79.5205 1.30918   1
  -9   2   7 50.9274 0.86868   2
  -8   2   7 198.741 2.03883   1
  -8   2   7 127.405 1.47222   2
  -7   2   7 53.6400 0.80929  -2
  -7   2   7 53.6400 0.80929   1
  -6   2   7 571.396 5.56922   2
  -6   2   7 892.866 8.61672   1
  -5   2   7 47.2502 0.78047   2
  -5   2   7 70.8461 1.11455   1
  -4   2   7 767.336 7.51360   2
  -4   2   7 1212.79 11.6724   1
  -6   2   2 606.899 7.75968  -2
  -3   2   7 606.899 7.75968   1
  -2   2   7 737.481 7.27893   2
  -2   2   7 1147.61 10.9155   1
  -1   2   7 4.88508 0.29698   2
  -1   2   7 6.38434 0.31249   1
   0   2   7 709.364 7.33121   1
   0   2   7 469.006 5.01171   2
   5   2   3 141.052 1.97724  -2
   1   2   7 141.052 1.97724   1
   2   2   7 906.981 10.3164   1
   2   2   7 613.910 6.80496   2
   3   2   7 1.34647 0.14633   2
   3   2   7 2.02949 0.19509   1
   4   2   7 757.279 8.60636   1
   4   2   7 525.913 6.17882   2
   4   2   8 862.648 10.4627  -2
   5   2   7 862.648 10.4627   1
   6   2   7 198.976 3.02307   2
   4   2   9 890.698 14.5379  -2
   6   2   7 890.698 14.5379   1
   6   2   7 277.647 4.75525   1
   7   2   7 109.448 1.53906   2
   7   2   7 154.722 2.15541   1
   8   2   7 16.8532 0.53744   2
   8   2   7 25.3207 0.71895   1
   3   2  13 233.257 4.20406  -2
   9   2   7 233.257 4.20406   1
   3   2  14 136.123 3.68264  -2
  10   2   7 136.123 3.68264   1
  10   2   7 16.4967 4.22330   2
  10   2   7 19.2030 2.60846   1
  11   2   7 1.14183 0.33662   2
  11   2   7 1.29477 0.41162   1
  -8   3  12 139.266 3.35983  -2
 -11   3   7 139.266 3.35983   1
 -10   3   7 66.3637 1.21233   2
 -10   3   7 114.747 2.05697   1
  -9   3   7 263.837 3.28627   1
  -9   3   7 168.080 2.13718   2
  -8   3   7 120.254 1.62156   1
  -8   3   7 77.5367 1.12748   2
  -7   3   7 389.495 3.74606  -2
  -7   3   7 389.495 3.74606   1
  -6   3   7 324.590 3.59120   1
  -6   3   7 209.176 2.47650   2
  -5   3   7 466.283 5.56945   1
  -5   3   7 305.651 4.01266   2
  -4   3   7 467.336 5.17828   2
  -4   3   7 740.705 8.36725   1
  -6   3   2 1907.51 26.7668  -2
  -3   3   7 1907.51 26.7668   1
  -2   3   7 753.149 8.79301   1
  -2   3   7 492.551 5.54598   2
  -1   3   7 67.8096 1.12579   1
  -1   3   7 44.8607 0.80055   2
   0   3   7 322.310 4.00957   1
   0   3   7 217.855 2.82794   2
   5   3   3 1591.20 22.5608  -2
   1   3   7 1591.20 22.5608   1
   2   3   7 169.758 2.31221   2
   2   3   7 247.938 3.36464   1
   3   3   7 124.261 1.99342   1
   3   3   7 83.4655 1.31818   2
   4   3   7 119.972 1.77059   2
   4   3   7 176.627 2.40218   1
   4   3   8 73.4700 1.37389  -2
   5   3   7 73.4700 1.37389   1
   6   3   7 241.259 3.53076   1
   4   3   9 435.702 7.53635  -2
   6   3   7 435.702 7.53635   1
   6   3   7 167.543 2.26540   2
   7   3   7 9.31367 0.37715   2
   7   3   7 13.4839 0.45593   1
   8   3   7 12.7850 0.49479   2
   8   3   7 20.1799 0.73117   1
   3   3  13 177.222 3.49854  -2
   9   3   7 177.222 3.49854   1
  10   3   7 133.094 4.86687   2
   3   3  14 255.621 6.90505  -2
  10   3   7 255.621 6.90505   1
  10   3   7 248.019 11.4941   1
  11   3   7 45.9500 1.29704   2
  11   3   7 75.1509 1.76040   1
  -8   4  12 174.102 3.71873  -2
 -11   4   7 174.102 3.71873   1
 -10   4   7 302.937 5.26053   1
 -10   4   7 188.370 3.52204   2
  -9   4   7 221.877 2.94889   2
  -9   4   7 352.791 4.52755   1
  -8   4   7 171.197 2.21941   2
  -8   4   7 262.573 3.01782   1
  -7   4   7 5.06692 0.31799  -2
  -7   4   7 5.06692 0.31799   1
  -6   4   7 145.316 1.74235   1
  -6   4   7 89.5656 1.22266   2
  -5   4   7 3.43491 0.32522   2
  -5   4   7 5.39770 0.39467   1
  -4   4   7 159.379 2.68035   1
  -4   4   7 102.223 1.75416   2
  -6   4   2 405.096 7.44894  -2
  -3   4   7 405.096 7.44894   1
  -2   4   7 561.606 6.80241   2
  -2   4   7 879.029 12.2560   1
  -1   4   7 134.622 1.95968   2
  -1   4   7 207.299 3.39167   1
   0   4   7 320.739 4.80515   1
   0   4   7 215.596 3.13554   2
   5   4   3 198.349 3.95525  -2
   1   4   7 198.349 3.95525   1
   2   4   7 132.710 2.01073   2
   2   4   7 193.071 3.30656   1
   3   4   7 10.3740 0.52407   1
   3   4   7 6.97384 0.39194   2
   4   4   7 84.5405 1.69249   1
   4   4   7 58.9700 1.35477   2
   4   4   8 775.553 10.3052  -2
   5   4   7 775.553 10.3052   1
   6   4   7 8.36549 0.42770   2
   6   4   7 10.0891 0.59585   1
   4   4   9 109.191 2.69139  -2
   6   4   7 109.191 2.69139   1
   7   4   7 39.3879 0.82457   1
   7   4   7 26.0023 0.61487   2
   8   4   7 58.5286 1.26132   1
   8   4   7 38.4139 0.90753   2
   3   4  13 98.4376 2.17307  -2
   9   4   7 98.4376 2.17307   1
  10   4   7 2.44350 1.09935   2
  10   4   7 6.38162 0.86720   1
   3   4  14 80.5257 2.82336  -2
  10   4   7 80.5257 2.82336   1
  11   4   7 4.41730 0.58772   2
  11   4   7 6.93826 0.63976   1
 -10   5   7 135.592 2.85590   2
 -10   5   7 220.864 4.55716   1
  -9   5   7 40.5285 0.99555   2
  -9   5   7 65.5735 1.54353   1
  -8   5   7 1.89922 0.27602   2
  -8   5   7 3.21507 0.33054   1
  -7   5   7 380.718 5.07694  -2
  -7   5   7 380.718 5.07694   1
  -6   5   7 747.671 8.96966   2
  -6   5   7 1163.29 11.8096   1
  -5   5   7 57.5512 1.07016   1
  -5   5   7 36.4598 0.82720   2
  -4   5   7 40.0765 0.89197   2
  -4   5   7 61.1865 1.10748   1
  -6   5   2 49.0830 1.78316  -2
  -3   5   7 49.0830 1.78316   1
  -2   5   7 1304.72 23.6324   2
  -2   5   7 2118.17 32.2302   1
  -1   5   7 259.596 4.48260   1
  -1   5   7 166.067 3.34966   2
   0   5   7 2.13623 0.36021   2
   0   5   7 2.37659 0.33860   1
   5   5   3 353.256 6.17519  -2
   1   5   7 353.256 6.17519   1
   2   5   7 1537.79 21.5569   1
   2   5   7 1055.79 14.9420   2
   3   5   7 101.089 1.69727   1
   3   5   7 67.4172 1.44978   2
   4   5   7 4.26313 0.26534   1
   4   5   7 2.64258 0.22930   2
   4   5   8 225.832 3.18882  -2
   5   5   7 225.832 3.18882   1
   4   5   9 1050.44 20.1316  -2
   6   5   7 1050.44 20.1316   1
   6   5   7 657.246 7.19804   2
   6   5   7 957.664 12.4860   1
   7   5   7 165.901 2.23710   2
   7   5   7 259.242 3.29478   1
   8   5   7 116.711 1.80015   2
   8   5   7 194.104 3.34229   1
   3   5  13 273.553 5.97513  -2
   9   5   7 273.553 5.97513   1
  10   5   7 557.518 15.1760   1
   3   5  14 530.113 20.1313  -2
  10   5   7 530.113 20.1313   1
 -10   6   7 205.794 6.23560   1
 -10   6   7 123.039 3.54376   2
  -9   6   7 3.25408 0.43638   1
  -9   6   7 1.64967 0.28846   2
  -8   6   7 43.8121 1.39359   1
  -8   6   7 29.1891 1.03869   2
  -7   6   7 78.5868 1.81313  -2
  -7   6   7 78.5868 1.81313   1
  -6   6   7 204.724 3.64281   1
  -6   6   7 130.609 2.35360   2
  -5   6   7 9.58864 0.63718   1
  -5   6   7 8.03230 0.48084   2
  -4   6   7 104.989 1.80887   2
  -4   6   7 161.165 3.00167   1
  -6   6   2 110.404 2.79499  -2
  -3   6   7 110.404 2.79499   1
  -2   6   7 159.938 3.15064   1
  -2   6   7 109.778 2.27958   2
  -1   6   7 25.2549 0.93526   2
  -1   6   7 36.5044 1.26805   1
   0   6   7 19.4805 0.91188   2
   0   6   7 26.9980 1.10443   1
   5   6   3 23.2198 1.47913  -2
   1   6   7 23.2198 1.47913   1
   5   6   4 23.8971 2.36344  -2
   2   6   7 23.8971 2.36344   1
   2   6   7 14.2381 0.63976   1
   2   6   7 11.4193 0.61914   2
   3   6   7 15.5710 0.54271   2
   3   6   7 24.8028 0.78576   1
   4   6   7 176.247 2.60579   1
   4   6   7 117.862 1.87899   2
   4   6   8 209.444 3.79013  -2
   5   6   7 209.444 3.79013   1
   6   6   7 45.4079 2.63305   1
   6   6   7 28.5251 1.06604   2
   4   6   9 59.0667 1.77863  -2
   6   6   7 59.0667 1.77863   1
   7   6   7 60.5097 1.50635   1
   7   6   7 36.1140 0.96191   2
   4   6  10 224.070 10.1469  -2
   7   6   7 224.070 10.1469   1
   8   6   7 118.001 2.41670   1
   8   6   7 72.9866 1.56022   2
   3   6  13 108.709 3.06564  -2
   9   6   7 108.709 3.06564   1
   3   6  14 66.4345 3.70512  -2
  10   6   7 66.4345 3.70512   1
  10   6   7 17.2334 1.59251   1
  -9   7   7 0.96421 0.19800   2
  -9   7   7 0.79586 0.24931   1
  -8   7   7 1.73032 0.35047   2
  -8   7   7 3.37660 0.40477   1
  -7   7   7 35.4061 1.18277  -2
  -7   7   7 35.4061 1.18277   1
  -6   7   7 654.315 11.3693   1
  -6   7   7 411.833 6.94992   2
  -5   7   7 8.46317 0.67545   1
  -5   7   7 5.09888 0.50897   2
  -4   7   7 11.5519 0.77529   2
  -4   7   7 15.8086 0.97271   1
  -6   7   2 121.999 4.51726  -2
  -3   7   7 121.999 4.51726   1
  -2   7   7 326.302 6.85317   1
  -2   7   7 239.176 5.89983   2
  -1   7   7 5.63962 0.72565   2
  -1   7   7 7.50200 0.74244   1
   0   7   7 1.62794 0.45303   2
   0   7   7 2.38326 0.41302   1
   5   7   3 125.899 3.11100  -2
   1   7   7 125.899 3.11100   1
   2   7   7 466.063 9.76200   2
   2   7   7 685.699 13.3401   1
   3   7   7 18.3049 0.96519   1
   3   7   7 11.5290 0.70317   2
   4   7   7 3.30415 0.37099   1
   4   7   7 1.18653 0.32237   2
   4   7   8 67.0012 2.67389  -2
   5   7   7 67.0012 2.67389   1
   6   7   7 497.629 13.6686   2
   4   7   9 894.236 19.1840  -2
   6   7   7 894.236 19.1840   1
   6   7   7 662.464 20.1755   1
   7   7   7 29.6859 1.04322   2
   7   7   7 45.1954 1.34266   1
   8   7   7 18.7345 0.81310   2
   8   7   7 26.8227 0.97885   1
   3   7  13 65.6454 3.51431  -2
   9   7   7 65.6454 3.51431   1
  -8   8   7 125.459 5.65415   1
  -8   8   7 72.3639 3.26566   2
  -7   8   7 333.341 6.66519  -2
  -7   8   7 333.341 6.66519   1
  -6   8   7 225.257 4.57437   1
  -6   8   7 63.4732 3.15659   2
  -5   8   7 224.029 5.14401   2
  -5   8   7 334.069 6.30240   1
  -4   8   7 117.632 2.90837   1
  -4   8   7 72.2541 1.96915   2
  -6   8   2 435.292 11.2598  -2
  -3   8   7 435.292 11.2598   1
  -2   8   7 391.678 7.56334   1
  -2   8   7 261.078 7.27500   2
  -1   8   7 80.6971 2.21713   1
  -1   8   7 59.5657 2.86713   2
   0   8   7 253.586 4.97662   1
   0   8   7 184.748 4.43727   2
   5   8   3 326.746 6.64741  -2
   1   8   7 326.746 6.64741   1
   2   8   7 58.4529 1.63820   1
   2   8   7 41.5712 2.00482   2
   3   8   7 195.955 3.76170   2
   3   8   7 281.406 5.31235   1
   4   8   7 71.4068 1.97896   1
   4   8   7 49.6020 1.48479   2
   4   8   8 363.035 8.68505  -2
   5   8   7 363.035 8.68505   1
   6   8   7 118.154 3.56776   2
   6   8   7 98.7464 5.52372   1
   4   8   9 304.745 8.58692  -2
   6   8   7 304.745 8.58692   1
   7   8   7 4.05382 0.44049   1
   7   8   7 2.19164 0.33212   2
   8   8   7 14.9164 1.05617   1
   8   8   7 10.2270 0.80849   2
  -6   9   7 120.939 3.28835   1
  -5   9   7 22.2949 1.12902   1
  -5   9   7 17.4926 0.86580   2
  -4   9   7 62.1993 2.44242   1
  -4   9   7 40.9383 1.51178   2
  -6   9   2 231.552 8.49534  -2
  -3   9   7 231.552 8.49534   1
  -2   9   7 188.378 4.92217   2
  -2   9   7 257.954 7.32779   1
  -1   9   7 102.717 3.75874   1
  -1   9   7 70.5676 2.23837   2
   0   9   7 319.905 8.82868   2
   0   9   7 445.412 11.5814   1
   5   9   3 477.572 12.1552  -2
   1   9   7 477.572 12.1552   1
   2   9   7 111.558 3.29171   1
   2   9   7 79.6857 3.65273   2
   3   9   7 189.504 5.22295   2
   3   9   7 264.166 6.33036   1
   4   9   7 121.300 9.99084   2
   4   9   8 147.617 4.57534  -2
   5   9   7 147.617 4.57534   1
   6   9   7 34.4387 2.10902   2
   4   9   9 199.329 5.74436  -2
   6   9   7 199.329 5.74436   1
  -4  10   7 5.40139 1.05556   2
  -2  10   7 1.65637 0.77927   2
  -1  10   7 0.38487 0.52678   1
  -1  10   7 15.2254 1.92453   2
   0  10   7 2.02488 0.90654   2
   0  10   7 0.42877 0.67014   1
   5  10   3 21.7565 1.99925  -2
   1  10   7 21.7565 1.99925   1
   2  10   7 8.37661 1.19407   1
   5  10   4 31.0600 2.51427  -2
   2  10   7 31.0600 2.51427   1
   3  10   7 50.0691 2.37220   1
 -11   0   8 0.95037 0.76431   2
 -11   0   8 3.61039 1.18060   1
 -10   0   8 23.7051 1.19838   2
 -10   0   8 37.4094 1.73885   1
  -9   0   8 1.51572 0.32951   2
  -9   0   8 1.69163 0.31594   1
  -8   0   8 397.573 6.86104  -2
  -8   0   8 397.573 6.86104   1
  -7   0   8 2.86277 0.39914   1
  -7   0   8 5.60725 1.02291   2
  -6   0   8 603.798 7.25045   2
  -6   0   8 964.489 12.1624   1
  -5   0   8 1.16529 0.21941   2
  -5   0   8 2.16228 0.32441   1
  -7   0   3 1668.80 19.1505  -2
  -4   0   8 1668.80 19.1505   1
  -3   0   8 1.29185 0.26419   1
  -3   0   8 1.94473 0.38027   2
  -2   0   8 583.106 6.62725   2
  -2   0   8 896.177 10.7039   1
  -1   0   8 1.61071 0.20829   1
  -1   0   8 1.35517 0.18560   2
   6   0   2 2346.63 30.4175  -2
   0   0   8 2346.63 30.4175   1
   1   0   8 1.85010 0.30003   1
   1   0   8 0.90025 0.16539   2
   2   0   8 212.396 3.04566   1
   2   0   8 141.252 2.21958   2
   3   0   8 1.41148 0.21518   1
   3   0   8 1.35893 0.22733   2
   5   0   7 2222.83 30.3430  -2
   4   0   8 2222.83 30.3430   1
   5   0   8 1.22931 0.34960   1
   5   0   8 1.85895 0.45689   2
   6   0   8 1243.35 19.1415   1
   6   0   8 866.640 12.0660   2
   7   0   8 0.70509 0.25611   2
   7   0   8 0.75910 0.30291   1
   4   0  12 207.491 5.17979  -2
   8   0   8 207.491 5.17979   1
   9   0   8 2.08615 1.10322   1
   9   0   8 1.58869 0.87769   2
  10   0   8 589.387 14.9644   1
  10   0   8 369.444 8.28320   2
  11   0   8 0.34468 0.36379   2
  11   0   8 0.18657 0.48766   1
 -11   1   8 23.2700 1.14794   2
 -11   1   8 36.6259 1.21328   1
 -10   1   8 38.9369 0.98543   2
 -10   1   8 61.7079 1.32934   1
  -9   1   8 254.683 3.01465   2
  -9   1   8 398.525 4.57460   1
  -8   1   8 93.2734 1.53612  -2
  -8   1   8 93.2734 1.53612   1
  -7   1   8 9.82407 0.39257   2
  -7   1   8 14.5187 0.46082   1
  -6   1   8 25.6579 0.56995   1
  -6   1   8 16.3706 0.46776   2
  -5   1   8 103.570 1.42861   1
  -5   1   8 66.9826 1.01335   2
  -7   1   3 437.884 5.72149  -2
  -4   1   8 437.884 5.72149   1
  -3   1   8 32.7108 0.61182   2
  -3   1   8 49.2505 0.80864   1
  -2   1   8 8.54024 0.35650   1
  -2   1   8 5.69823 0.28504   2
  -1   1   8 4.19120 0.23643   2
  -1   1   8 5.99286 0.28881   1
   6   1   2 273.774 2.84131  -2
   0   1   8 273.774 2.84131   1
   1   1   8 26.6577 0.51085   2
   1   1   8 39.3615 0.59291   1
   2   1   8 3.12157 0.20660   1
   2   1   8 1.89426 0.18298   2
   3   1   8 220.482 2.41866   1
   3   1   8 147.381 1.68865   2
   5   1   7 119.114 1.60338  -2
   4   1   8 119.114 1.60338   1
   5   1   8 197.549 2.92974   2
   5   1   8 490.690 9.34418  -2
   5   1   8 490.690 9.34418   1
   5   1   8 285.709 4.05798   1
   6   1   8 144.804 1.84993   1
   6   1   8 99.8338 1.30594   2
   7   1   8 280.243 3.38547   1
   7   1   8 199.592 2.38559   2
   4   1  12 73.1505 1.55649  -2
   8   1   8 73.1505 1.55649   1
   9   1   8 23.5375 5.30374   2
   4   1  13 479.198 9.02418  -2
   9   1   8 479.198 9.02418   1
   9   1   8 39.0019 2.61163   1
  10   1   8 2.31420 0.43095   2
  10   1   8 1.68908 0.47605   1
  11   1   8 53.9856 1.88878   1
  11   1   8 32.2886 1.40319   2
 -11   2   8 221.517 4.22289   2
 -11   2   8 374.040 5.94514   1
 -10   2   8 4.49856 0.47364   2
 -10   2   8 7.79270 0.60918   1
  -9   2   8 928.168 11.3891   1
  -9   2   8 580.622 7.09575   2
  -8   2   8 413.300 4.40515  -2
  -8   2   8 413.300 4.40515   1
  -7   2   8 164.755 1.74464   2
  -7   2   8 251.683 2.44231   1
  -6   2   8 10.6818 0.36833   2
  -6   2   8 15.7853 0.45639   1
  -5   2   8 1137.37 11.1368   1
  -5   2   8 739.991 6.92528   2
  -7   2   3 368.039 5.34905  -2
  -4   2   8 368.039 5.34905   1
  -3   2   8 1222.91 11.4898   2
  -3   2   8 1867.64 17.7220   1
  -2   2   8 325.609 3.42629   1
  -2   2   8 212.068 2.36053   2
  -1   2   8 2073.27 20.7011   2
  -1   2   8 3193.23 32.5073   1
   6   2   2 1737.15 18.9702  -2
   0   2   8 1737.15 18.9702   1
   1   2   8 1707.43 17.6882   1
   1   2   8 1130.90 12.1379   2
   2   2   8 235.351 2.73199   2
   2   2   8 349.266 4.17109   1
   3   2   8 855.677 9.68280   1
   3   2   8 581.050 6.22359   2
   5   2   7 1148.50 14.3715  -2
   4   2   8 1148.50 14.3715   1
   5   2   8 1047.82 12.4568   2
   5   2   8 1499.35 17.6444   1
   5   2   8 2612.21 73.9170  -2
   5   2   8 2612.21 73.9170   1
   6   2   8 34.6566 0.75801   1
   6   2   8 25.0160 0.58878   2
   7   2   8 349.558 4.07266   1
   7   2   8 245.064 2.85718   2
   4   2  12 162.138 2.91955  -2
   8   2   8 162.138 2.91955   1
   4   2  13 554.371 9.33006  -2
   9   2   8 554.371 9.33006   1
   9   2   8 211.851 15.8496   1
   9   2   8 318.382 11.6826   2
  10   2   8 123.748 2.86457   2
  10   2   8 203.397 4.79239   1
  11   2   8 167.193 4.15329   1
  11   2   8 101.403 2.73278   2
 -11   3   8 139.817 2.68147   1
 -11   3   8 88.0610 1.87908   2
 -10   3   8 144.710 2.89961   1
 -10   3   8 91.6375 1.92416   2
  -9   3   8 19.2914 0.56808   2
  -9   3   8 32.2123 0.83812   1
  -8   3   8 855.620 8.97635  -2
  -8   3   8 855.620 8.97635   1
  -7   3   8 4.11543 0.27934   2
  -7   3   8 5.51521 0.34419   1
  -6   3   8 2.62183 0.22051   2
  -6   3   8 3.99453 0.29636   1
  -5   3   8 36.9534 0.73804   1
  -5   3   8 23.9963 0.59308   2
  -7   3   3 982.689 12.0851  -2
  -4   3   8 982.689 12.0851   1
  -3   3   8 161.845 2.37821   1
  -3   3   8 106.407 1.53505   2
  -2   3   8 6.87582 0.46043   1
  -2   3   8 3.98704 0.31374   2
  -1   3   8 2.66014 0.25883   1
  -1   3   8 1.44640 0.17780   2
   6   3   2 1670.08 22.2816  -2
   0   3   8 1670.08 22.2816   1
   1   3   8 34.7754 0.69949   2
   1   3   8 50.3721 0.94348   1
   2   3   8 333.966 4.28632   2
   2   3   8 486.156 6.20769   1
   3   3   8 26.8434 0.66473   2
   3   3   8 40.8232 0.96614   1
   5   3   7 77.6503 1.50164  -2
   4   3   8 77.6503 1.50164   1
   5   3   8 61.1598 1.28108   1
   5   3   8 41.3571 0.94722   2
   5   3   8 103.395 2.45967  -2
   5   3   8 103.395 2.45967   1
   6   3   8 8.70302 0.39018   2
   6   3   8 12.4651 0.44574   1
   7   3   8 41.2551 0.84678   1
   7   3   8 27.6310 0.61878   2
   4   3  12 12.5324 0.76831  -2
   8   3   8 12.5324 0.76831   1
   4   3  13 117.956 3.19582  -2
   9   3   8 117.956 3.19582   1
   9   3   8 23.3196 4.45372   2
   9   3   8 45.7697 2.88227   1
  10   3   8 61.2409 1.76409   2
  10   3   8 102.627 2.33268   1
  11   3   8 6.27613 0.60418   1
  11   3   8 5.15916 0.42708   2
 -11   4   8 120.473 3.55881   2
 -11   4   8 187.088 4.40168   1
 -10   4   8 1.75229 0.30628   1
 -10   4   8 0.82913 0.24300   2
  -9   4   8 317.612 5.21929   1
  -9   4   8 200.824 3.01797   2
  -8   4   8 278.375 3.38702  -2
  -8   4   8 278.375 3.38702   1
  -7   4   8 426.415 4.43040   1
  -7   4   8 278.090 2.97690   2
  -6   4   8 432.250 4.23994   1
  -6   4   8 281.249 2.87825   2
  -5   4   8 379.703 3.66978   1
  -5   4   8 246.433 2.68409   2
  -7   4   3 562.445 7.02100  -2
  -4   4   8 562.445 7.02100   1
  -3   4   8 1000.24 11.9947   1
  -3   4   8 635.008 8.11905   2
  -2   4   8 40.9210 0.91207   2
  -2   4   8 64.2632 1.36843   1
  -1   4   8 1041.58 15.0375   1
  -1   4   8 667.013 8.37102   2
   6   4   2 2359.07 37.6069  -2
   0   4   8 2359.07 37.6069   1
   1   4   8 559.553 8.03346   2
   1   4   8 816.991 11.4081   1
   2   4   8 284.897 4.29088   2
   2   4   8 421.473 6.22452   1
   3   4   8 177.892 2.69995   2
   3   4   8 256.716 3.67116   1
   5   4   7 846.175 12.7855  -2
   4   4   8 846.175 12.7855   1
   5   4   8 132.448 2.26092   1
   5   4   8 90.3654 1.65677   2
   5   4   8 220.494 5.09361  -2
   5   4   8 220.494 5.09361   1
   6   4   8 16.4739 0.49661   2
   6   4   8 23.4727 0.67878   1
   7   4   8 228.237 3.09404   2
   7   4   8 350.277 4.77684   1
   4   4  12 1081.11 17.5873  -2
   8   4   8 1081.11 17.5873   1
   9   4   8 337.338 8.87114   1
   4   4  13 452.100 10.1627  -2
   9   4   8 452.100 10.1627   1
   9   4   8 193.720 12.5497   2
  10   4   8 62.3689 2.23807   1
  10   4   8 35.5126 1.53540   2
   4   4  14 258.859 12.6174  -2
  10   4   8 258.859 12.6174   1
 -10   5   8 1.23350 0.27084   1
 -10   5   8 0.71266 0.28968   2
  -9   5   8 49.9400 1.17834   2
  -9   5   8 79.2581 1.68574   1
  -8   5   8 21.3977 0.71565  -2
  -8   5   8 21.3977 0.71565   1
  -7   5   8 14.5188 0.53377   2
  -7   5   8 22.1985 0.67231   1
  -6   5   8 31.1145 0.78091   2
  -6   5   8 48.6444 0.91680   1
  -5   5   8 6.10431 0.37480   1
  -5   5   8 4.96173 0.37686   2
  -7   5   3 29.9945 0.69331  -2
  -4   5   8 29.9945 0.69331   1
  -3   5   8 4.34457 0.37674   2
  -3   5   8 7.02159 0.38226   1
  -2   5   8 58.8753 1.18178   1
  -2   5   8 37.3671 0.92733   2
  -1   5   8 9.27728 0.50705   1
  -1   5   8 6.02915 0.47008   2
   6   5   2 72.2484 2.06402  -2
   0   5   8 72.2484 2.06402   1
   1   5   8 87.3929 1.66216   2
   1   5   8 131.356 1.97975   1
   2   5   8 29.4952 0.68427   2
   2   5   8 42.0119 1.00278   1
   3   5   8 66.4431 1.04229   2
   3   5   8 97.4638 1.35665   1
   5   5   7 221.416 3.06476  -2
   4   5   8 221.416 3.06476   1
   5   5   8 238.327 5.85104   1
   5   5   8 163.381 3.98799   2
   5   5   8 423.681 6.85109  -2
   5   5   8 423.681 6.85109   1
   6   5   8 49.7142 0.89721   2
   6   5   8 75.5683 1.32829   1
   7   5   8 90.5604 2.00002   1
   7   5   8 59.7440 1.15059   2
   4   5  11 1286.86 54.3802  -2
   7   5   8 1286.86 54.3802   1
   4   5  12 234.162 5.19439  -2
   8   5   8 234.162 5.19439   1
   4   5  13 198.311 4.53775  -2
   9   5   8 198.311 4.53775   1
   9   5   8 95.3474 7.46469   2
  10   5   8 5.59552 0.59118   2
  10   5   8 8.02084 0.64318   1
 -10   6   8 65.3029 3.71680   1
 -10   6   8 44.2132 2.71374   2
  -9   6   8 88.9718 1.90612   2
  -9   6   8 144.725 3.23649   1
  -8   6   8 17.3760 0.78960  -2
  -8   6   8 17.3760 0.78960   1
  -7   6   8 4.42417 0.49030   2
  -7   6   8 8.58236 0.57848   1
  -6   6   8 506.046 7.84039   1
  -6   6   8 326.220 5.12738   2
  -5   6   8 28.0104 0.88894   2
  -5   6   8 44.3116 1.20773   1
  -7   6   3 45.3273 1.38431  -2
  -4   6   8 45.3273 1.38431   1
  -3   6   8 133.591 2.71357   2
  -3   6   8 194.443 3.49352   1
  -2   6   8 266.606 4.65366   2
  -2   6   8 397.963 6.36558   1
  -1   6   8 92.9430 2.06989   2
  -1   6   8 136.231 2.58029   1
   6   6   2 76.3298 1.91562  -2
   0   6   8 76.3298 1.91562   1
   1   6   8 2.26612 0.37042   2
   1   6   8 3.01561 0.40225   1
   2   6   8 546.093 7.51700   1
   2   6   8 375.152 5.04774   2
   3   6   8 40.4333 0.97539   2
   3   6   8 61.5151 1.21156   1
   5   6   7 262.927 4.39697  -2
   4   6   8 262.927 4.39697   1
   5   6   8 81.5403 2.33213   2
   5   6   8 123.663 3.49877   1
   5   6   8 209.634 5.47077  -2
   5   6   8 209.634 5.47077   1
   6   6   8 189.372 3.12529   1
   6   6   8 118.812 1.95169   2
   7   6   8 142.083 2.67014   1
   7   6   8 89.5397 1.78642   2
   4   6  12 390.968 8.76960  -2
   8   6   8 390.968 8.76960   1
   4   6  13 97.9816 2.88147  -2
   9   6   8 97.9816 2.88147   1
  -9   7   8 71.1450 3.80788   1
  -8   7   8 42.9297 1.16427  -2
  -8   7   8 42.9297 1.16427   1
  -7   7   8 32.9108 1.04183   2
  -7   7   8 49.4186 1.43633   1
  -6   7   8 5.71899 0.48805   2
  -6   7   8 9.92449 0.75275   1
  -5   7   8 2.45354 0.38610   1
  -5   7   8 1.62208 0.25749   2
  -7   7   3 364.339 7.36409  -2
  -4   7   8 364.339 7.36409   1
  -3   7   8 4.20196 0.60742   1
  -3   7   8 2.91359 0.46960   2
  -2   7   8 80.0461 2.59087   1
  -2   7   8 53.3933 1.84161   2
  -1   7   8 0.59565 0.32388   2
  -1   7   8 7.29709 1.32893   1
   6   7   2 101.726 2.73254  -2
   0   7   8 101.726 2.73254   1
   1   7   8 41.5594 1.75414   2
   1   7   8 54.0411 1.75079   1
   2   7   8 36.0580 1.36909   1
   2   7   8 26.6700 1.14103   2
   3   7   8 67.4345 2.03650   2
   3   7   8 96.1417 2.49258   1
   5   7   7 56.8825 2.24500  -2
   4   7   8 56.8825 2.24500   1
   5   7   8 22.1492 1.14613   2
   5   7   8 71.5932 2.92173  -2
   5   7   8 71.5932 2.92173   1
   5   7   8 37.8817 2.46501   1
   6   7   8 20.7506 1.00396   1
   6   7   8 14.8799 0.74032   2
   7   7   8 63.9125 1.62721   2
   7   7   8 101.159 2.55638   1
   4   7  12 102.786 3.50261  -2
   8   7   8 102.786 3.50261   1
  -7   8   8 93.5509 2.28826   1
  -7   8   8 56.8651 1.32377   2
  -6   8   8 449.820 8.82487   2
  -6   8   8 694.447 12.6494   1
  -5   8   8 282.428 6.12730   1
  -5   8   8 186.850 3.79174   2
  -7   8   3 52.0876 2.28960  -2
  -4   8   8 52.0876 2.28960   1
  -3   8   8 168.173 4.32321   1
  -3   8   8 113.259 2.82363   2
  -2   8   8 972.081 17.8206   1
  -2   8   8 631.054 11.6211   2
  -1   8   8 911.594 16.7932   1
  -1   8   8 602.333 11.1625   2
   6   8   2 496.233 10.0865  -2
   0   8   8 496.233 10.0865   1
   1   8   8 548.271 9.59082   1
   1   8   8 391.638 9.11659   2
   2   8   8 1162.12 19.1268   1
   2   8   8 849.656 15.1768   2
   3   8   8 166.535 3.47613   1
   3   8   8 117.658 3.06877   2
   5   8   7 342.602 8.72772  -2
   4   8   8 342.602 8.72772   1
   5   8   8 204.269 9.97852   1
   5   8   8 181.979 8.88391   2
   5   8   8 499.595 13.3951  -2
   5   8   8 499.595 13.3951   1
   6   8   8 466.506 8.64892   2
   6   8   8 701.040 12.8526   1
   7   8   8 119.938 3.17278   2
   7   8   8 183.086 4.64129   1
  -5   9   8 14.9493 0.75243   2
  -5   9   8 23.7998 1.07680   1
  -7   9   3 203.075 5.59379  -2
  -4   9   8 203.075 5.59379   1
  -3   9   8 4.78876 0.76967   1
  -3   9   8 4.40711 0.53172   2
  -2   9   8 1.71135 0.31991   2
  -2   9   8 0.83475 0.41789   1
  -1   9   8 28.3048 1.39000   1
  -1   9   8 19.7073 0.95795   2
   6   9   2 128.980 3.74538  -2
   0   9   8 128.980 3.74538   1
   1   9   8 12.6059 1.06413   1
   1   9   8 8.70197 0.91455   2
   2   9   8 94.5323 3.13572   2
   3   9   8 10.7791 0.96302   1
   3   9   8 8.22278 0.81694   2
   5   9   7 133.547 4.21760  -2
   4   9   8 133.547 4.21760   1
   5   9   8 32.6452 1.31859  -2
   5   9   8 32.6452 1.31859   1
  -3  10   8 14.0511 1.52887   2
  -2  10   8 365.829 13.6128   1
  -2  10   8 301.727 13.1019   2
  -1  10   8 21.1517 2.04825   1
  -1  10   8 16.0549 1.83401   2
   6  10   2 282.660 10.8749  -2
   0  10   8 282.660 10.8749   1
   1  10   8 42.2872 2.96078   1
   2  10   8 433.054 15.9623   1
 -11   0   9 9.82888 1.01536   2
 -11   0   9 16.9527 1.79571   1
 -10   0   9 0.73223 0.40696   2
 -10   0   9 2.28854 0.51872   1
  -9   0   9 401.600 7.15474  -2
  -9   0   9 401.600 7.15474   1
  -8   0   9 1.72602 0.30722   2
  -8   0   9 2.22411 0.35522   1
  -7   0   9 54.5393 1.35725   1
  -7   0   9 35.0061 0.98602   2
  -6   0   9 1.21750 0.26426   1
  -6   0   9 1.46333 0.25873   2
  -8   0   4 62.1003 1.35281  -2
  -5   0   9 62.1003 1.35281   1
  -4   0   9 1.45777 0.31965   1
  -4   0   9 1.28071 0.23959   2
  -3   0   9 435.730 5.27084   1
  -3   0   9 279.139 3.67029   2
  -2   0   9 1.38263 0.23099   2
  -2   0   9 3.91862 0.71343   1
   7   0   1 872.174 11.7243  -2
  -1   0   9 872.174 11.7243   1
   0   0   9 2.33219 0.24761   1
   0   0   9 0.97239 0.22468   2
   1   0   9 245.482 3.68078   1
   1   0   9 161.502 2.57601   2
   2   0   9 1.14074 0.23595   1
   2   0   9 1.49883 0.23008   2
   6   0   6 213.634 3.60173  -2
   3   0   9 213.634 3.60173   1
   4   0   9 1.07932 0.23582   1
   4   0   9 1.08439 0.34682   2
   5   0   9 15.1405 0.65259   1
   5   0   9 10.9193 0.55837   2
   6   0   9 2.36979 0.44001   1
   6   0   9 1.21104 0.29738   2
   5   0  11 10.7001 0.82752  -2
   7   0   9 10.7001 0.82752   1
   8   0   9 0.63980 0.87197   1
   8   0   9 1.23061 1.01493   2
   9   0   9 220.244 4.89038   2
   9   0   9 319.786 6.67966   1
  10   0   9 0.58119 0.54831   1
  10   0   9 0.48324 0.45330   2
   4   0  16 61.7583 5.84769  -2
  11   0   9 61.7583 5.84769   1
 -11   1   9 6.83663 0.49249   1
 -11   1   9 3.74786 0.40584   2
 -10   1   9 31.8287 0.91487   2
 -10   1   9 53.0153 1.42333   1
  -9   1   9 2.04126 0.37900  -2
  -9   1   9 2.04126 0.37900   1
  -8   1   9 1729.98 16.7138   1
  -8   1   9 1122.50 11.8701   2
  -7   1   9 99.8937 1.31027   2
  -7   1   9 156.730 1.87867   1
  -6   1   9 1.77336 0.20419   2
  -6   1   9 2.11688 0.20491   1
  -8   1   4 142.251 1.75203  -2
  -5   1   9 142.251 1.75203   1
  -4   1   9 967.240 8.58433   2
  -4   1   9 1465.51 13.1259   1
  -3   1   9 111.243 1.41194   1
  -3   1   9 72.5011 1.08126   2
  -2   1   9 68.1898 1.00639   2
  -2   1   9 104.634 1.41611   1
   7   1   1 34.3242 0.71200  -2
  -1   1   9 34.3242 0.71200   1
   0   1   9 1827.80 16.3956   1
   0   1   9 1198.26 11.5623   2
   1   1   9 2.77601 0.20626   2
   1   1   9 3.57660 0.23858   1
   2   1   9 160.624 1.99086   1
   2   1   9 107.190 1.35878   2
   6   1   6 74.3192 1.16440  -2
   3   1   9 74.3192 1.16440   1
   6   1   7 1221.79 34.4036  -2
   4   1   9 1221.79 34.4036   1
   4   1   9 1068.75 11.5898   1
   4   1   9 705.916 12.1617   2
   5   1   9 85.7588 1.22200   2
   5   1   9 128.829 1.63047   1
   6   1   9 449.354 4.88215   1
   6   1   9 315.329 3.47726   2
   5   1  11 39.3134 0.97319  -2
   7   1   9 39.3134 0.97319   1
   5   1  12 366.842 5.39309  -2
   8   1   9 366.842 5.39309   1
   8   1   9 148.434 5.82436   1
   8   1   9 101.087 8.90264   2
   9   1   9 189.734 3.47825   1
   9   1   9 124.487 2.48293   2
  10   1   9 134.826 3.08506   2
  10   1   9 229.974 5.16311   1
   4   1  16 57.0817 3.45269  -2
  11   1   9 57.0817 3.45269   1
 -11   2   9 12.2482 0.58736   1
 -11   2   9 6.46515 0.49794   2
 -10   2   9 392.159 6.11420   1
 -10   2   9 245.296 4.07030   2
  -9   2   9 2.23224 0.42486  -2
  -9   2   9 2.23224 0.42486   1
  -8   2   9 770.298 7.69026   1
  -8   2   9 498.724 5.53643   2
  -7   2   9 41.5277 0.75045   1
  -7   2   9 27.4396 0.63512   2
  -6   2   9 330.359 3.13531   1
  -6   2   9 218.636 2.26343   2
  -8   2   4 147.343 1.86798  -2
  -5   2   9 147.343 1.86798   1
  -4   2   9 408.971 4.10399   1
  -4   2   9 268.740 2.80086   2
  -3   2   9 353.405 3.92770   1
  -3   2   9 231.403 2.67419   2
  -2   2   9 1932.13 17.8984   1
  -2   2   9 1235.48 11.9143   2
   7   2   1 150.751 2.02769  -2
  -1   2   9 150.751 2.02769   1
   0   2   9 1674.42 17.3421   2
   0   2   9 2585.05 25.5275   1
   1   2   9 35.5813 0.70566   2
   1   2   9 53.1059 0.92970   1
   2   2   9 1764.39 18.7659   1
   2   2   9 1176.77 12.5276   2
   6   2   6 182.062 2.60531  -2
   3   2   9 182.062 2.60531   1
   4   2   9 900.014 12.9081   1
   4   2   9 619.819 9.05743   2
   6   2   7 1133.07 20.0242  -2
   4   2   9 1133.07 20.0242   1
   5   2   9 1.38327 0.20459   1
   5   2   9 0.94008 0.17645   2
   6   2   9 621.033 6.54171   2
   6   2   9 890.675 9.82162   1
   5   2  10 1087.27 40.8271  -2
   6   2   9 1087.27 40.8271   1
   5   2  11 63.6810 1.41066  -2
   7   2   9 63.6810 1.41066   1
   8   2   9 232.187 11.7334   2
   5   2  12 502.823 8.46794  -2
   8   2   9 502.823 8.46794   1
   8   2   9 424.946 26.7654   1
   9   2   9 1.23693 0.30540   2
   9   2   9 1.33616 0.38844   1
  10   2   9 342.210 7.43749   2
  10   2   9 564.437 11.8579   1
 -11   3   9 2.79262 0.44040   2
 -11   3   9 3.21362 0.35405   1
 -10   3   9 202.738 3.43840   1
 -10   3   9 126.404 2.36221   2
  -9   3   9 132.670 2.68675  -2
  -9   3   9 132.670 2.68675   1
  -8   3   9 112.193 1.77490   1
  -8   3   9 73.6557 1.38327   2
  -7   3   9 1.45738 0.19140   2
  -7   3   9 1.23691 0.21585   1
  -6   3   9 277.885 2.74751   1
  -6   3   9 181.665 1.98986   2
  -8   3   4 142.224 1.77039  -2
  -5   3   9 142.224 1.77039   1
  -4   3   9 2.84083 0.32968   1
  -4   3   9 1.59424 0.21629   2
  -3   3   9 25.5813 0.69939   1
  -3   3   9 17.2093 0.51186   2
  -2   3   9 306.674 3.77443   2
  -2   3   9 469.970 5.63271   1
   7   3   1 220.546 3.55178  -2
  -1   3   9 220.546 3.55178   1
   0   3   9 293.768 3.99843   2
   0   3   9 437.304 5.42368   1
   1   3   9 12.6552 0.56230   1
   1   3   9 8.32296 0.38667   2
   2   3   9 426.060 5.09416   1
   2   3   9 291.282 3.83849   2
   6   3   6 116.763 2.07638  -2
   3   3   9 116.763 2.07638   1
   4   3   9 282.939 3.60052   1
   4   3   9 194.890 2.95548   2
   6   3   7 472.271 11.3414  -2
   4   3   9 472.271 11.3414   1
   5   3   9 23.8242 0.54245   2
   5   3   9 36.4331 0.78310   1
   6   3   9 138.313 1.72616   2
   6   3   9 200.996 2.50669   1
   5   3  10 227.580 10.2697  -2
   6   3   9 227.580 10.2697   1
   5   3  11 95.3724 1.91947  -2
   7   3   9 95.3724 1.91947   1
   5   3  12 642.158 11.3981  -2
   8   3   9 642.158 11.3981   1
   8   3   9 628.281 36.9076   1
   8   3   9 348.842 15.3560   2
   9   3   9 23.8744 0.95394   2
   9   3   9 37.3096 1.56307   1
  10   3   9 185.386 3.52534   1
  10   3   9 113.362 2.38010   2
 -10   4   9 83.1000 1.74193   1
 -10   4   9 50.4003 1.25446   2
  -9   4   9 24.5735 0.90224  -2
  -9   4   9 24.5735 0.90224   1
  -8   4   9 164.030 2.33006   2
  -8   4   9 254.116 3.32220   1
  -7   4   9 1.81310 0.22933   1
  -7   4   9 1.13307 0.17978   2
  -6   4   9 216.676 2.41140   2
  -6   4   9 330.889 3.46715   1
  -8   4   4 472.430 5.16821  -2
  -5   4   9 472.430 5.16821   1
  -4   4   9 330.805 3.30251   2
  -4   4   9 508.449 5.17399   1
  -3   4   9 82.2145 1.29400   1
  -3   4   9 53.8645 0.89946   2
  -2   4   9 473.500 5.57152   1
  -2   4   9 308.737 3.63779   2
   7   4   1 1098.29 14.5558  -2
  -1   4   9 1098.29 14.5558   1
   0   4   9 540.888 6.80785   2
   0   4   9 830.114 9.54049   1
   1   4   9 111.526 1.99382   2
   1   4   9 166.293 2.48212   1
   2   4   9 399.711 4.81911   2
   2   4   9 586.012 6.50329   1
   6   4   6 256.861 3.55505  -2
   3   4   9 256.861 3.55505   1
   6   4   7 151.582 5.08095  -2
   4   4   9 151.582 5.08095   1
   4   4   9 99.3801 1.96049   2
   4   4   9 142.499 2.16009   1
   5   4   9 1.88706 0.23869   1
   5   4   9 0.92511 0.18392   2
   6   4   9 265.997 3.35454   2
   6   4   9 385.578 4.98904   1
   5   4  11 328.122 5.92417  -2
   7   4   9 328.122 5.92417   1
   5   4  12 470.567 8.15180  -2
   8   4   9 470.567 8.15180   1
   8   4   9 398.706 25.2764   1
   8   4   9 207.943 10.2688   2
   9   4   9 29.1453 0.87900   1
   9   4   9 17.6310 0.62407   2
  10   4   9 266.758 6.55080   2
   4   4  15 468.642 20.4826  -2
  10   4   9 468.642 20.4826   1
  10   4   9 450.066 12.3842   1
 -10   5   9 370.415 13.5523   2
 -10   5   9 563.680 20.4637   1
  -9   5   9 169.886 4.29834  -2
  -9   5   9 169.886 4.29834   1
  -8   5   9 168.705 2.85079   1
  -8   5   9 108.642 1.97424   2
  -7   5   9 158.184 2.67853   1
  -7   5   9 103.143 1.81320   2
  -6   5   9 914.236 10.3197   1
  -6   5   9 595.066 7.52816   2
  -8   5   4 119.371 1.93264  -2
  -5   5   9 119.371 1.93264   1
  -4   5   9 24.9427 0.64334   2
  -4   5   9 38.9747 0.82395   1
  -3   5   9 165.067 2.26068   2
  -3   5   9 256.009 3.25497   1
  -2   5   9 841.917 8.56324   1
  -2   5   9 536.825 6.26470   2
   7   5   1 83.8785 1.32518  -2
  -1   5   9 83.8785 1.32518   1
   0   5   9 310.828 3.47913   1
   0   5   9 207.739 2.67460   2
   1   5   9 2.46633 0.21816   2
   1   5   9 3.84199 0.30671   1
   2   5   9 747.869 8.16101   2
   2   5   9 1108.35 10.7120   1
   6   5   6 98.5756 1.64748  -2
   3   5   9 98.5756 1.64748   1
   4   5   9 54.4123 1.22105   2
   4   5   9 80.5891 1.42730   1
   6   5   7 753.676 28.5978  -2
   4   5   9 753.676 28.5978   1
   5   5   9 3.11215 0.28145   1
   5   5   9 1.73947 0.24103   2
   6   5   9 445.743 5.46372   1
   6   5   9 299.662 3.75543   2
   5   5  11 139.939 3.39254  -2
   7   5   9 139.939 3.39254   1
   8   5   9 173.471 10.6643   2
   8   5   9 361.448 14.3527   1
   5   5  12 740.056 16.6861  -2
   8   5   9 740.056 16.6861   1
   9   5   9 2.18872 0.37294   1
   9   5   9 1.27971 0.28421   2
   5   5  13 15.7061 1.98248  -2
   9   5   9 15.7061 1.98248   1
  -9   6   9 22.9098 1.60324  -2
  -9   6   9 22.9098 1.60324   1
  -8   6   9 106.067 2.30567   1
  -8   6   9 65.6304 1.79915   2
  -7   6   9 13.8663 0.71710   2
  -7   6   9 21.6183 0.94760   1
  -6   6   9 30.2786 1.02627   1
  -6   6   9 18.9775 0.81460   2
  -8   6   4 869.935 14.3824  -2
  -5   6   9 869.935 14.3824   1
  -4   6   9 40.6991 1.24816   1
  -4   6   9 26.6158 0.85422   2
  -3   6   9 61.1861 1.59678   1
  -3   6   9 41.2446 1.10363   2
  -2   6   9 59.2189 1.39483   2
  -2   6   9 91.5534 1.94073   1
   7   6   1 301.235 5.20568  -2
  -1   6   9 301.235 5.20568   1
   0   6   9 131.595 2.63280   2
   0   6   9 194.469 3.37321   1
   1   6   9 22.7826 0.73982   2
   1   6   9 34.0639 0.99459   1
   2   6   9 39.5359 0.99467   1
   2   6   9 28.2269 0.73389   2
   6   6   6 446.798 7.20647  -2
   3   6   9 446.798 7.20647   1
   4   6   9 17.2988 0.88674   1
   6   6   7 44.4688 1.93672  -2
   4   6   9 44.4688 1.93672   1
   4   6   9 11.8080 1.24287   2
   5   6   9 30.4777 0.88613   2
   5   6   9 43.6035 1.11107   1
   6   6   9 124.512 2.20262   2
   6   6   9 191.104 3.16109   1
   5   6  11 13.2518 0.81135  -2
   7   6   9 13.2518 0.81135   1
   5   6  12 33.8423 1.91368  -2
   8   6   9 33.8423 1.91368   1
   8   6   9 32.2286 2.28358   1
   9   6   9 76.9363 3.25597   1
   9   6   9 51.1430 2.12742   2
  -8   7   9 9.56111 0.88292   2
  -8   7   9 13.6956 0.79094   1
  -7   7   9 67.4277 1.83128   2
  -7   7   9 99.7164 2.19738   1
  -6   7   9 540.827 9.26260   2
  -6   7   9 835.749 15.3155   1
  -8   7   4 201.012 4.34986  -2
  -5   7   9 201.012 4.34986   1
  -4   7   9 1.80007 0.34388   2
  -4   7   9 4.18469 0.48753   1
  -3   7   9 96.3835 2.33042   2
  -3   7   9 139.064 3.15859   1
  -2   7   9 249.092 4.76534   1
  -2   7   9 166.667 3.50868   2
   7   7   1 47.2763 2.22334  -2
  -1   7   9 47.2763 2.22334   1
   0   7   9 19.8483 0.99478   2
   0   7   9 27.0286 1.37590   1
   1   7   9 0.58524 0.43726   1
   1   7   9 1.77068 0.41151   2
   2   7   9 91.6895 2.30117   2
   2   7   9 127.460 2.86085   1
   6   7   6 65.1645 2.41219  -2
   3   7   9 65.1645 2.41219   1
   4   7   9 157.487 5.24521   1
   4   7   9 105.952 4.21317   2
   6   7   7 704.810 18.6057  -2
   4   7   9 704.810 18.6057   1
   5   7   9 2.00383 0.30045   2
   5   7   9 1.91308 0.33666   1
   6   7   9 210.458 4.47092   1
   6   7   9 140.433 3.08735   2
   5   7  11 34.0149 1.38416  -2
   7   7   9 34.0149 1.38416   1
   5   7  12 252.016 9.94597  -2
   8   7   9 252.016 9.94597   1
  -7   8   9 111.231 5.01755   1
  -6   8   9 78.7745 1.96458   2
  -6   8   9 122.559 3.21016   1
  -8   8   4 591.860 12.0278  -2
  -5   8   9 591.860 12.0278   1
  -4   8   9 117.376 2.44710   2
  -4   8   9 178.788 3.82816   1
  -3   8   9 67.8907 2.23868   1
  -3   8   9 46.8819 1.35931   2
  -2   8   9 517.222 9.99227   1
  -2   8   9 342.880 6.76159   2
   7   8   1 455.609 10.3543  -2
  -1   8   9 455.609 10.3543   1
   0   8   9 377.043 9.51057   2
   0   8   9 536.921 9.91781   1
   1   8   9 774.533 13.7847   1
   1   8   9 533.998 9.11402   2
   2   8   9 441.873 8.76494   2
   2   8   9 618.159 11.1588   1
   6   8   6 463.256 8.50118  -2
   3   8   9 463.256 8.50118   1
   6   8   7 294.622 8.15610  -2
   4   8   9 294.622 8.15610   1
   4   8   9 41.9976 3.02557   2
   4   8   9 151.926 4.46678   1
   5   8   9 186.721 3.83382   2
   5   8   9 260.281 4.99963   1
   6   8   9 116.889 2.67217   1
   6   8   9 80.7929 1.90741   2
  -4   9   9 184.208 5.48201   1
  -4   9   9 118.463 2.51716   2
  -3   9   9 32.8989 1.04478   2
  -3   9   9 49.3374 2.04392   1
  -2   9   9 84.4100 2.62177   2
  -2   9   9 118.638 3.97922   1
   7   9   1 43.2261 2.03753  -2
  -1   9   9 43.2261 2.03753   1
   0   9   9 291.735 7.97400   2
   1   9   9 4.93865 0.69192   2
   1   9   9 6.09808 0.82633   1
   2   9   9 123.695 4.97967   2
   2   9   9 189.795 5.81002   1
   6   9   6 106.891 3.54263  -2
   3   9   9 106.891 3.54263   1
   4   9   9 198.400 8.30270   1
   6   9   7 250.671 6.89474  -2
   4   9   9 250.671 6.89474   1
 -10   0  10 181.706 8.97550  -2
 -10   0  10 181.706 8.97550   1
  -9   0  10 0.76459 0.49166   2
  -9   0  10 1.75865 0.51412   1
  -8   0  10 1120.32 17.2077   1
  -8   0  10 743.524 11.0344   2
  -7   0  10 0.90884 0.29566   1
  -7   0  10 1.20300 0.26261   2
  -9   0   5 566.964 7.82877  -2
  -6   0  10 566.964 7.82877   1
  -5   0  10 0.94440 0.24379   2
  -5   0  10 1.35083 0.27982   1
  -4   0  10 266.969 3.82373   2
  -4   0  10 406.618 5.63141   1
  -3   0  10 1.29436 0.30444   1
  -3   0  10 1.63473 0.31606   2
   8   0   0 3933.22 54.7563  -2
  -2   0  10 3933.22 54.7563   1
  -1   0  10 0.98524 0.26871   2
  -1   0  10 2.40025 0.33919   1
   0   0  10 636.981 9.14350   1
   0   0  10 405.987 5.93518   2
   1   0  10 1.37539 0.25038   2
   1   0  10 2.90106 0.35989   1
   7   0   5 239.588 4.05409  -2
   2   0  10 239.588 4.05409   1
   3   0  10 1.67416 0.37892   2
   3   0  10 1.17711 0.24833   1
   4   0  10 405.940 6.79047   2
   4   0  10 602.147 9.19172   1
   5   0  10 0.92846 0.24477   2
   5   0  10 1.21804 0.30192   1
   6   0  10 850.505 13.2399  -2
   6   0  10 850.505 13.2399   1
   7   0  10 1.59402 0.91396   1
   8   0  10 302.832 6.28151   2
   8   0  10 430.462 8.53632   1
   9   0  10 1.47782 0.58885   1
   9   0  10 0.68001 0.49200   2
   5   0  15 160.341 5.46263  -2
  10   0  10 160.341 5.46263   1
 -11   1  10 138.731 5.61105   1
 -11   1  10 84.4504 3.31230   2
 -10   1  10 25.6989 1.36013  -2
 -10   1  10 25.6989 1.36013   1
  -9   1  10 374.407 6.12239   2
  -9   1  10 581.212 9.01034   1
  -8   1  10 34.0406 0.93910   2
  -8   1  10 51.8545 1.10683   1
  -7   1  10 518.521 5.79239   2
  -7   1  10 791.726 7.73044   1
  -9   1   5 18.4318 0.56482  -2
  -6   1  10 18.4318 0.56482   1
  -5   1  10 312.943 3.33044   2
  -5   1  10 466.593 4.42133   1
  -4   1  10 0.94740 0.19912   2
  -4   1  10 1.28490 0.19621   1
  -3   1  10 1288.49 11.1971   1
  -3   1  10 851.390 8.18293   2
   8   1   0 550.692 5.87433  -2
  -2   1  10 550.692 5.87433   1
  -1   1  10 1026.23 9.82800   1
  -1   1  10 660.697 6.78469   2
   0   1  10 2.45081 0.24523   2
   0   1  10 3.95829 0.29087   1
   1   1  10 357.840 3.92134   2
   1   1  10 540.436 5.65365   1
   7   1   5 87.0465 1.26764  -2
   2   1  10 87.0465 1.26764   1
   3   1  10 388.998 3.99611   1
   3   1  10 253.873 5.07873   2
   4   1  10 21.0813 0.55474   1
   4   1  10 14.2905 0.48910   2
   5   1  10 107.862 1.56946   2
   5   1  10 161.654 2.10542   1
   6   1  10 39.7602 0.89539  -2
   6   1  10 39.7602 0.89539   1
   6   1  11 1090.92 13.1304  -2
   7   1  10 1090.92 13.1304   1
   8   1  10 22.9095 0.81168   1
   8   1  10 16.9626 0.75149   2
   9   1  10 8.20464 0.79743   1
   9   1  10 5.11659 0.63059   2
 -11   2  10 16.9165 1.60219   2
 -11   2  10 20.8295 2.21166   1
 -10   2  10 414.040 7.00741  -2
 -10   2  10 414.040 7.00741   1
  -9   2  10 45.4569 1.22876   1
  -9   2  10 29.1424 0.97202   2
  -8   2  10 215.742 3.16630   1
  -8   2  10 137.009 2.19914   2
  -7   2  10 67.6200 1.23553   2
  -7   2  10 105.480 1.43168   1
  -9   2   5 226.721 2.66232  -2
  -6   2  10 226.721 2.66232   1
  -5   2  10 60.8654 0.93687   1
  -5   2  10 39.0923 0.69126   2
  -4   2  10 18.2449 0.47694   2
  -4   2  10 26.7699 0.63676   1
  -3   2  10 18.0412 0.53676   1
  -3   2  10 12.6136 0.44101   2
   8   2   0 1585.80 15.8351  -2
  -2   2  10 1585.80 15.8351   1
  -1   2  10 408.087 4.54116   2
  -1   2  10 630.146 6.34921   1
   0   2  10 440.689 4.96597   1
   0   2  10 293.379 3.46248   2
   1   2  10 612.865 6.84845   2
   1   2  10 936.808 9.59496   1
   7   2   5 230.203 3.15071  -2
   2   2  10 230.203 3.15071   1
   3   2  10 441.011 7.24328   2
   3   2  10 661.271 7.25485   1
   7   2   6 693.989 29.1309  -2
   3   2  10 693.989 29.1309   1
   4   2  10 195.229 2.43092   2
   4   2  10 291.052 3.28498   1
   5   2  10 247.441 2.95060   1
   5   2  10 167.935 2.26593   2
   6   2  10 252.404 3.47526  -2
   6   2  10 252.404 3.47526   1
   6   2  11 345.936 5.34302  -2
   7   2  10 345.936 5.34302   1
   7   2  10 304.284 13.8362   1
   7   2  10 189.008 17.6198   2
   8   2  10 19.4994 0.71013   2
   8   2  10 27.2656 0.89534   1
   9   2  10 168.146 4.29212   1
   9   2  10 106.780 2.46768   2
   5   2  15 269.091 11.2231  -2
  10   2  10 269.091 11.2231   1
 -10   3  10 72.4148 1.74259  -2
 -10   3  10 72.4148 1.74259   1
  -9   3  10 5.26763 0.45371   2
  -9   3  10 10.2390 0.58121   1
  -8   3  10 22.4807 0.68831   2
  -8   3  10 34.5805 0.79922   1
  -7   3  10 12.3288 0.48685   2
  -7   3  10 20.2431 0.56035   1
  -9   3   5 156.925 2.12258  -2
  -6   3  10 156.925 2.12258   1
  -5   3  10 28.8948 0.65732   1
  -5   3  10 18.8678 0.49059   2
  -4   3  10 18.8416 0.52894   1
  -4   3  10 11.5810 0.43288   2
  -3   3  10 80.1475 1.16857   2
  -3   3  10 122.424 1.53824   1
   8   3   0 149.429 2.24620  -2
  -2   3  10 149.429 2.24620   1
  -1   3  10 64.0565 1.08328   1
  -1   3  10 39.2418 0.88452   2
   0   3  10 3.70687 0.29510   2
   0   3  10 3.60578 0.31241   1
   1   3  10 31.1792 0.64662   2
   1   3  10 48.7379 0.91408   1
   7   3   5 308.198 3.96112  -2
   2   3  10 308.198 3.96112   1
   3   3  10 18.5276 0.60305   2
   3   3  10 29.2723 0.66289   1
   7   3   6 31.6858 2.07685  -2
   3   3  10 31.6858 2.07685   1
   4   3  10 38.1768 0.72715   2
   4   3  10 56.4933 0.90537   1
   5   3  10 11.0347 0.41563   2
   5   3  10 14.8651 0.46726   1
   6   3  10 201.594 3.16262  -2
   6   3  10 201.594 3.16262   1
   6   3  11 72.2686 1.97243  -2
   7   3  10 72.2686 1.97243   1
   7   3  10 3.86572 1.06543   1
   7   3  10 3.94337 3.38788   2
   8   3  10 49.1875 1.60702   1
   8   3  10 32.1870 1.12281   2
   9   3  10 10.4749 0.68098   1
   9   3  10 6.65206 0.52145   2
   5   3  15 270.619 8.28812  -2
  10   3  10 270.619 8.28812   1
  -9   4  10 2.56475 0.35086   1
  -9   4  10 2.48080 0.35246   2
  -8   4  10 219.976 3.93103   1
  -8   4  10 141.733 2.85200   2
  -7   4  10 8.12422 0.41749   2
  -7   4  10 12.7732 0.49765   1
  -9   4   5 664.176 7.15621  -2
  -6   4  10 664.176 7.15621   1
  -5   4  10 101.950 1.43076   2
  -5   4  10 154.469 2.01567   1
  -4   4  10 11.3616 0.48769   1
  -4   4  10 8.04724 0.39822   2
  -3   4  10 18.1734 0.59125   1
  -3   4  10 11.9790 0.43521   2
   8   4   0 502.362 5.95063  -2
  -2   4  10 502.362 5.95063   1
  -1   4  10 144.566 1.86229   1
  -1   4  10 89.1924 1.39348   2
   0   4  10 45.2125 0.92498   2
   0   4  10 70.3399 1.11774   1
   1   4  10 81.9873 1.30315   2
   1   4  10 125.052 1.57848   1
   7   4   5 520.067 6.08628  -2
   2   4  10 520.067 6.08628   1
   3   4  10 48.0354 1.15457   2
   3   4  10 72.2861 1.15307   1
   7   4   6 123.027 6.95094  -2
   3   4  10 123.027 6.95094   1
   4   4  10 171.329 2.07484   1
   4   4  10 116.654 1.57305   2
   5   4  10 110.868 1.75155   1
   5   4  10 75.4267 1.38103   2
   6   4  10 1344.66 19.9240  -2
   6   4  10 1344.66 19.9240   1
   6   4  11 103.860 2.26497  -2
   7   4  10 103.860 2.26497   1
   7   4  10 87.5624 9.19528   1
   7   4  10 56.1143 8.82978   2
   8   4  10 105.854 2.17336   1
   8   4  10 68.4503 1.55381   2
   9   4  10 142.205 3.68743   2
   9   4  10 254.739 5.84432   1
  -9   5  10 211.502 5.82112   1
  -9   5  10 134.074 4.46555   2
  -8   5  10 103.138 2.18232   2
  -8   5  10 155.851 2.97320   1
  -7   5  10 835.069 12.5456   1
  -7   5  10 546.025 8.64786   2
  -9   5   5 423.583 6.33353  -2
  -6   5  10 423.583 6.33353   1
  -5   5  10 482.187 5.75579   1
  -5   5  10 319.558 4.42118   2
  -4   5  10 140.977 2.12133   2
  -4   5  10 218.087 2.89849   1
  -3   5  10 346.535 4.15453   2
  -3   5  10 532.887 5.94770   1
   8   5   0 201.725 2.82100  -2
  -2   5  10 201.725 2.82100   1
  -1   5  10 70.2432 1.28165   2
  -1   5  10 110.103 1.56998   1
   0   5  10 65.8614 1.10747   1
   0   5  10 43.0694 0.85495   2
   1   5  10 193.060 2.42355   2
   1   5  10 282.840 3.17997   1
   7   5   5 43.9148 0.88690  -2
   2   5  10 43.9148 0.88690   1
   3   5  10 230.704 4.00962   2
   3   5  10 343.749 4.55065   1
   7   5   6 782.862 21.1148  -2
   3   5  10 782.862 21.1148   1
   4   5  10 23.5925 0.63883   1
   4   5  10 15.2122 0.51795   2
   5   5  10 365.798 4.94820   2
   5   5  10 536.368 6.39335   1
   6   5  10 333.026 6.25720  -2
   6   5  10 333.026 6.25720   1
   6   5  11 290.476 6.11201  -2
   7   5  10 290.476 6.11201   1
   8   5  10 110.107 2.17965   2
   8   5  10 174.987 3.44738   1
   6   5  12 260.163 12.0088  -2
   8   5  10 260.163 12.0088   1
   9   5  10 24.7937 1.29633   2
   9   5  10 40.0758 1.81222   1
  -8   6  10 17.3961 0.75192   2
  -8   6  10 28.4012 1.12898   1
  -7   6  10 54.5394 1.62013   1
  -7   6  10 35.7600 1.23218   2
  -9   6   5 190.318 3.61091  -2
  -6   6  10 190.318 3.61091   1
  -5   6  10 115.142 2.37348   2
  -5   6  10 172.987 3.22569   1
  -4   6  10 275.817 4.63253   2
  -4   6  10 422.838 6.92702   1
  -3   6  10 11.5075 0.65828   2
  -3   6  10 17.8016 0.86112   1
   8   6   0 237.820 4.36676  -2
  -2   6  10 237.820 4.36676   1
  -1   6  10 45.8492 1.27539   1
  -1   6  10 29.9867 1.18393   2
   0   6  10 62.1397 1.78468   2
   0   6  10 92.2401 1.73944   1
   1   6  10 30.7095 0.88185   1
   1   6  10 21.7112 0.72631   2
   7   6   5 566.672 8.27578  -2
   2   6  10 566.672 8.27578   1
   3   6  10 1.09029 0.38150   2
   3   6  10 3.80411 0.42036   1
   7   6   6 4.81800 1.83757  -2
   3   6  10 4.81800 1.83757   1
   4   6  10 159.450 2.85735   2
   4   6  10 236.972 3.40240   1
   5   6  10 105.738 1.87544   1
   5   6  10 70.7139 1.56050   2
   6   6  10 186.574 3.61069  -2
   6   6  10 186.574 3.61069   1
   6   6  11 148.754 3.28255  -2
   7   6  10 148.754 3.28255   1
   8   6  10 249.509 5.68019   1
   8   6  10 163.910 3.98790   2
  -7   7  10 211.918 4.25303   1
  -7   7  10 136.052 3.00225   2
  -9   7   5 90.9775 2.18650  -2
  -6   7  10 90.9775 2.18650   1
  -5   7  10 495.092 9.46983   1
  -5   7  10 330.884 6.17429   2
  -4   7  10 102.453 2.40782   1
  -4   7  10 71.9038 1.79153   2
  -3   7  10 46.1231 1.50663   1
  -3   7  10 31.7705 1.15443   2
   8   7   0 190.243 4.25907  -2
  -2   7  10 190.243 4.25907   1
  -1   7  10 54.2412 1.98171   2
  -1   7  10 81.2700 2.04170   1
   0   7  10 1.91742 0.37616   1
   0   7  10 3.18816 0.81401   2
   1   7  10 62.1426 1.67442   1
   1   7  10 42.1586 1.15984   2
   7   7   5 173.358 3.65342  -2
   2   7  10 173.358 3.65342   1
   3   7  10 191.305 4.97393   1
   7   7   6 301.698 8.53830  -2
   3   7  10 301.698 8.53830   1
   3   7  10 135.155 5.19530   2
   4   7  10 13.6205 0.63841   2
   4   7  10 20.5986 0.93195   1
   5   7  10 59.5144 1.74624   1
   5   7  10 39.7499 1.08976   2
   6   7  10 24.8787 1.16744  -2
   6   7  10 24.8787 1.16744   1
   6   7  11 26.9949 1.48331  -2
   7   7  10 26.9949 1.48331   1
  -9   8   5 34.8340 2.09659  -2
  -6   8  10 34.8340 2.09659   1
  -5   8  10 26.2082 1.11437   1
  -5   8  10 16.7292 0.66954   2
  -4   8  10 231.904 6.32630   1
  -4   8  10 159.479 3.25711   2
  -3   8  10 85.9393 1.95249   2
  -3   8  10 129.039 2.96134   1
   8   8   0 337.194 6.99469  -2
  -2   8  10 337.194 6.99469   1
  -1   8  10 80.2844 2.29285   1
  -1   8  10 51.8279 2.14504   2
   0   8  10 738.436 13.1801   1
   0   8  10 497.096 9.02917   2
   1   8  10 65.3898 1.87977   1
   1   8  10 45.7897 1.45534   2
   7   8   5 92.2627 2.42511  -2
   2   8  10 92.2627 2.42511   1
   7   8   6 251.077 7.21394  -2
   3   8  10 251.077 7.21394   1
   3   8  10 32.0014 3.90615   2
   3   8  10 221.324 6.09641   1
   4   8  10 360.772 6.97243   1
   4   8  10 243.298 4.83034   2
   5   8  10 4.04983 0.40751   2
   5   8  10 5.62454 0.51910   1
  -3   9  10 29.0610 1.76460   1
  -3   9  10 15.1976 1.62343   2
   8   9   0 144.210 4.56859  -2
  -2   9  10 144.210 4.56859   1
  -1   9  10 18.1991 1.07474   2
  -1   9  10 28.9201 1.67239   1
   0   9  10 90.8014 3.07066   2
   0   9  10 136.428 4.53836   1
   1   9  10 10.2553 1.26654   2
   1   9  10 16.6561 1.26820   1
   7   9   5 79.9829 2.94252  -2
   2   9  10 79.9829 2.94252   1
   3   9  10 2.33326 0.76427   2
   7   9   6 64.3224 3.44200  -2
   3   9  10 64.3224 3.44200   1
 -10   0  11 0.51733 0.69736   1
 -10   0  11 1.06606 1.09243   2
  -9   0  11 44.9633 1.81766   2
  -9   0  11 70.1906 2.30066   1
  -8   0  11 0.67491 0.39267   1
  -8   0  11 0.89463 0.43993   2
 -10   0   6 8.33465 0.76283  -2
  -7   0  11 8.33465 0.76283   1
  -6   0  11 1.06397 0.30120   2
  -6   0  11 1.14632 0.32574   1
  -5   0  11 58.0954 1.40712   1
  -5   0  11 38.4615 1.09618   2
  -4   0  11 1.53911 0.30273   2
  -4   0  11 1.18267 0.28555   1
  -9   0   1 107.132 2.10675  -2
  -3   0  11 107.132 2.10675   1
  -2   0  11 1.43823 0.32670   2
  -2   0  11 1.79245 0.37468   1
  -1   0  11 77.9087 1.79548   1
  -1   0  11 53.9889 1.42767   2
   0   0  11 0.93437 0.30118   2
   0   0  11 0.96811 0.32031   1
   8   0   4 309.101 5.34483  -2
   1   0  11 309.101 5.34483   1
   2   0  11 2.25119 0.29792   1
   2   0  11 0.47920 0.47634   2
   3   0  11 233.961 4.04603   1
   3   0  11 153.674 3.12710   2
   4   0  11 2.04149 0.33730   1
   4   0  11 0.60898 0.27582   2
   7   0   9 7.31224 0.77074  -2
   5   0  11 7.31224 0.77074   1
   6   0  11 1.16007 0.87504   1
   7   0  11 66.4908 2.04418   1
   7   0  11 50.0842 1.70359   2
   8   0  11 0.18758 0.39778   2
   8   0  11 0.51623 0.48467   1
   6   0  14 148.089 5.16022  -2
   9   0  11 148.089 5.16022   1
  10   0  11 0.34566 1.63328   1
 -10   1  11 841.631 13.0547   1
 -10   1  11 541.978 11.8336   2
  -9   1  11 52.8936 1.48350   2
  -9   1  11 80.0335 1.92253   1
  -8   1  11 113.630 2.24603   1
  -8   1  11 75.7152 1.64200   2
 -10   1   6 47.0834 1.28210  -2
  -7   1  11 47.0834 1.28210   1
  -6   1  11 1257.42 13.1607   2
  -6   1  11 1910.76 18.9232   1
  -5   1  11 2.40206 0.24655   2
  -5   1  11 3.60193 0.29660   1
  -4   1  11 78.8532 1.19806   1
  -4   1  11 52.4061 0.95356   2
  -9   1   1 225.894 2.68136  -2
  -3   1  11 225.894 2.68136   1
  -2   1  11 1609.49 15.5087   2
  -2   1  11 2523.32 19.8978   1
  -1   1  11 21.7828 0.56564   1
  -1   1  11 14.5612 0.54646   2
   0   1  11 377.349 3.80383   1
   0   1  11 242.758 2.87990   2
   8   1   4 163.842 2.19487  -2
   1   1  11 163.842 2.19487   1
   2   1  11 785.865 10.7376   2
   2   1  11 1226.42 11.3913   1
   3   1  11 117.555 1.56329   1
   3   1  11 78.4829 1.26487   2
   4   1  11 46.8659 0.89515   1
   4   1  11 31.3476 0.73258   2
   7   1   9 30.7281 0.85313  -2
   5   1  11 30.7281 0.85313   1
   7   1  10 1328.95 16.7380  -2
   6   1  11 1328.95 16.7380   1
   6   1  11 1157.79 43.3537   1
   7   1  11 0.91853 0.27988   2
   7   1  11 1.96034 0.30711   1
   8   1  11 117.138 3.07317   2
   8   1  11 171.871 4.06522   1
   6   1  14 198.463 5.27829  -2
   9   1  11 198.463 5.27829   1
 -10   2  11 175.302 3.71122   2
 -10   2  11 275.230 6.56680   1
  -9   2  11 4.98935 0.44848   1
  -9   2  11 2.96720 0.39694   2
  -8   2  11 63.7633 1.50776   2
  -8   2  11 103.569 2.32242   1
 -10   2   6 213.365 3.24225  -2
  -7   2  11 213.365 3.24225   1
  -6   2  11 96.5499 1.50200   2
  -6   2  11 148.330 1.84667   1
  -5   2  11 1.59373 0.23163   1
  -5   2  11 1.57482 0.19110   2
  -4   2  11 2.37766 0.24229   1
  -4   2  11 1.35322 0.19930   2
  -9   2   1 68.7215 1.16378  -2
  -3   2  11 68.7215 1.16378   1
  -2   2  11 163.945 2.03226   1
  -2   2  11 106.353 1.54518   2
  -1   2  11 4.91173 0.53080   1
  -1   2  11 2.12667 0.25229   2
   0   2  11 66.4761 1.14230   2
   0   2  11 104.786 1.45088   1
   8   2   4 713.561 7.57551  -2
   1   2  11 713.561 7.57551   1
   2   2  11 61.4347 1.09737   1
   8   2   5 59.9841 3.05542  -2
   2   2  11 59.9841 3.05542   1
   2   2  11 38.7226 1.06661   2
   3   2  11 22.8176 0.62600   1
   3   2  11 13.9583 0.46883   2
   4   2  11 3.22391 0.26520   1
   4   2  11 1.63980 0.22055   2
   7   2   9 63.3514 1.33259  -2
   5   2  11 63.3514 1.33259   1
   7   2  10 249.788 3.81674  -2
   6   2  11 249.788 3.81674   1
   7   2  11 28.6945 0.90258   1
   7   2  11 19.4303 0.73698   2
   8   2  11 25.6172 1.03479   2
   8   2  11 38.0562 1.28720   1
   6   2  13 4.91910 1.59524  -2
   8   2  11 4.91910 1.59524   1
   6   2  14 80.4386 2.57560  -2
   9   2  11 80.4386 2.57560   1
  -9   3  11 43.4663 1.22839   2
  -9   3  11 64.2531 1.47103   1
  -8   3  11 436.300 7.61630   1
  -8   3  11 287.771 4.68460   2
 -10   3   6 76.5004 1.45764  -2
  -7   3  11 76.5004 1.45764   1
  -6   3  11 178.727 2.20044   1
  -6   3  11 116.074 1.74550   2
  -5   3  11 1.77146 0.23077   2
  -5   3  11 1.97707 0.29403   1
  -4   3  11 397.359 4.40226   1
  -4   3  11 256.826 2.59480   2
  -9   3   1 558.079 5.93584  -2
  -3   3  11 558.079 5.93584   1
  -2   3  11 2.24364 0.26761   1
  -2   3  11 1.20333 0.23216   2
  -1   3  11 20.5410 0.55446   1
  -1   3  11 12.5935 0.46147   2
   0   3  11 241.493 2.66867   2
   0   3  11 378.025 3.66035   1
   8   3   4 71.0759 1.23116  -2
   1   3  11 71.0759 1.23116   1
   8   3   5 393.726 12.7464  -2
   2   3  11 393.726 12.7464   1
   2   3  11 25.2481 0.66498   1
   2   3  11 17.1925 0.61505   2
   3   3  11 84.3224 1.22770   2
   3   3  11 128.414 1.59121   1
   4   3  11 151.338 2.00406   1
   4   3  11 102.246 1.50177   2
   7   3   9 99.0371 1.86504  -2
   5   3  11 99.0371 1.86504   1
   7   3  10 101.949 2.33036  -2
   6   3  11 101.949 2.33036   1
   6   3  11 63.2972 3.58465   2
   6   3  11 85.1503 8.81652   1
   7   3  11 3.26843 0.37696   2
   7   3  11 4.00063 0.43243   1
   8   3  11 130.653 3.07765   1
   8   3  11 84.4169 2.06480   2
   6   3  14 188.336 4.48769  -2
   9   3  11 188.336 4.48769   1
  -9   4  11 13.8627 0.69769   1
  -9   4  11 8.01135 0.48131   2
  -8   4  11 20.7767 0.72594   2
  -8   4  11 31.7674 1.29212   1
 -10   4   6 1086.64 16.3091  -2
  -7   4  11 1086.64 16.3091   1
  -6   4  11 27.1973 0.72163   2
  -6   4  11 43.2016 0.89639   1
  -5   4  11 49.1417 0.88673   2
  -5   4  11 73.9819 1.15827   1
  -4   4  11 9.77262 0.48901   1
  -4   4  11 6.45347 0.39040   2
  -9   4   1 125.251 1.85591  -2
  -3   4  11 125.251 1.85591   1
  -2   4  11 19.1359 0.61772   2
  -2   4  11 31.1312 0.73863   1
  -1   4  11 1.82197 0.23994   2
  -1   4  11 2.72807 0.29096   1
   0   4  11 16.8871 0.57686   2
   0   4  11 24.6811 0.65682   1
   8   4   4 374.803 4.35584  -2
   1   4  11 374.803 4.35584   1
   2   4  11 42.1296 1.07949   2
   2   4  11 60.4581 1.10112   1
   8   4   5 150.494 8.53696  -2
   2   4  11 150.494 8.53696   1
   3   4  11 111.953 1.65139   1
   3   4  11 74.3141 1.24454   2
   4   4  11 1.82072 0.23355   2
   4   4  11 2.20578 0.28085   1
   7   4   9 290.525 4.46980  -2
   5   4  11 290.525 4.46980   1
   6   4  11 0.11929 2.15835   2
   7   4  10 71.6983 1.69317  -2
   6   4  11 71.6983 1.69317   1
   6   4  11 0.33929 1.55965   1
   7   4  11 117.689 2.34230   1
   7   4  11 81.1722 1.81197   2
   6   4  13 77.8751 5.37709  -2
   8   4  11 77.8751 5.37709   1
   8   4  11 22.8114 1.28082   1
   8   4  11 15.6548 0.99836   2
   6   4  14 71.6891 2.80286  -2
   9   4  11 71.6891 2.80286   1
  -8   5  11 1021.53 25.8342   1
  -8   5  11 659.726 18.1426   2
 -10   5   6 206.617 4.23127  -2
  -7   5  11 206.617 4.23127   1
  -6   5  11 80.1979 1.75506   2
  -6   5  11 122.334 2.37684   1
  -5   5  11 77.9705 1.55584   2
  -5   5  11 117.390 2.13369   1
  -4   5  11 819.143 10.7997   2
  -4   5  11 1234.60 14.1927   1
  -9   5   1 249.012 3.45734  -2
  -3   5  11 249.012 3.45734   1
  -2   5  11 5.59121 0.43260   2
  -2   5  11 8.04950 0.46335   1
  -1   5  11 75.8451 1.29390   1
  -1   5  11 47.8301 1.14222   2
   0   5  11 1077.44 12.5774   2
   0   5  11 1669.84 15.9296   1
   8   5   4 174.247 2.24518  -2
   1   5  11 174.247 2.24518   1
   1   5  11 44.2831 2.98579   2
   8   5   5 669.058 20.6256  -2
   2   5  11 669.058 20.6256   1
   2   5  11 170.926 2.30722   1
   2   5  11 114.863 2.27272   2
   3   5  11 128.052 1.70751   1
   3   5  11 83.2661 1.41021   2
   4   5  11 1621.95 17.1140   1
   4   5  11 1133.27 16.7606   2
   7   5   9 185.893 3.87956  -2
   5   5  11 185.893 3.87956   1
   7   5  10 283.409 5.98144  -2
   6   5  11 283.409 5.98144   1
   7   5  11 260.246 4.49134   1
   7   5  11 171.123 3.80837   2
   8   5  11 419.212 9.11590   2
   8   5  11 679.120 14.4205   1
  -8   6  11 1.53482 0.52070   1
  -8   6  11 1.42341 0.43252   2
 -10   6   6 226.555 5.11749  -2
  -7   6  11 226.555 5.11749   1
  -6   6  11 41.7472 1.37845   1
  -6   6  11 26.3419 1.03270   2
  -5   6  11 1.19996 0.27239   2
  -5   6  11 1.16065 0.26753   1
  -4   6  11 18.5501 0.81532   1
  -4   6  11 11.8469 0.59184   2
  -9   6   1 149.073 3.15038  -2
  -3   6  11 149.073 3.15038   1
  -2   6  11 7.83823 0.66490   2
  -2   6  11 12.0302 0.71425   1
  -1   6  11 196.372 3.27651   1
  -1   6  11 131.754 3.17420   2
   0   6  11 1.78762 0.31059   1
   0   6  11 1.01112 0.26713   2
   8   6   4 531.622 8.01663  -2
   1   6  11 531.622 8.01663   1
   2   6  11 7.57258 0.60272   1
   2   6  11 5.15950 0.54844   2
   8   6   5 13.1969 2.02932  -2
   2   6  11 13.1969 2.02932   1
   3   6  11 71.0434 1.60904   2
   3   6  11 101.003 1.90469   1
   4   6  11 19.0108 0.73031   2
   4   6  11 27.2056 0.89829   1
   7   6   9 7.27167 0.60067  -2
   5   6  11 7.27167 0.60067   1
   7   6  10 154.986 3.39684  -2
   6   6  11 154.986 3.39684   1
   7   6  11 22.8231 0.94407   1
   7   6  11 15.6346 0.66723   2
  -6   7  11 1.14987 0.19772   2
  -6   7  11 1.57996 0.32655   1
  -5   7  11 8.96547 0.62964   1
  -5   7  11 5.78660 0.47412   2
  -4   7  11 658.339 10.9276   1
  -4   7  11 427.459 7.16690   2
  -9   7   1 254.050 5.26270  -2
  -3   7  11 254.050 5.26270   1
  -2   7  11 17.0932 0.85935   1
  -2   7  11 11.0045 1.05317   2
  -1   7  11 77.6006 1.94735   1
  -1   7  11 52.4442 1.47157   2
   0   7  11 136.449 2.86179   1
   0   7  11 89.2999 2.08044   2
   8   7   4 311.210 5.34695  -2
   1   7  11 311.210 5.34695   1
   8   7   5 163.167 5.01043  -2
   2   7  11 163.167 5.01043   1
   2   7  11 57.3334 1.75218   2
   2   7  11 83.5768 2.49089   1
   3   7  11 34.5696 1.06399   2
   3   7  11 53.1812 1.58807   1
   4   7  11 397.102 6.73321   2
   4   7  11 579.579 10.0667   1
   7   7   9 36.2887 1.23082  -2
   5   7  11 36.2887 1.23082   1
   7   7  10 19.1298 1.20718  -2
   6   7  11 19.1298 1.20718   1
  -5   8  11 10.4597 1.18400   1
  -4   8  11 5.49070 0.47927   2
  -4   8  11 7.68756 0.68118   1
  -9   8   1 16.8765 0.81158  -2
  -3   8  11 16.8765 0.81158   1
  -2   8  11 1.01469 0.38641   2
  -2   8  11 2.14291 0.38436   1
  -1   8  11 5.18420 0.51941   2
  -1   8  11 6.55692 0.56348   1
   0   8  11 14.7720 0.72057   1
   0   8  11 10.8429 0.67814   2
   8   8   4 284.091 6.06291  -2
   1   8  11 284.091 6.06291   1
   2   8  11 0.15937 0.28062   2
   2   8  11 1.14421 0.32070   1
   8   8   5 1.40099 0.93361  -2
   2   8  11 1.40099 0.93361   1
   3   8  11 2.44191 0.39896   1
   3   8  11 1.00885 0.26018   2
   4   8  11 8.26530 0.75175   2
   4   8  11 13.2824 1.02218   1
  -1   9  11 135.170 6.04799   1
   0   9  11 1.23159 0.64962   1
  -9   0  12 0.37997 0.46786   2
  -9   0  12 1.20172 0.61450   1
 -11   0   7 20.7543 1.81999  -2
  -8   0  12 20.7543 1.81999   1
  -7   0  12 1.39090 0.41015   2
  -7   0  12 1.54336 0.46868   1
  -6   0  12 430.600 6.51127   2
  -6   0  12 662.078 13.7295   1
  -5   0  12 1.28030 0.32842   1
  -5   0  12 1.76236 0.30241   2
 -10   0   2 131.080 2.76137  -2
  -4   0  12 131.080 2.76137   1
  -3   0  12 1.95502 0.34678   1
  -3   0  12 0.74136 0.33132   2
  -2   0  12 616.048 9.07557   2
  -2   0  12 934.743 12.0138   1
  -1   0  12 0.65662 0.33109   2
  -1   0  12 1.62689 0.36197   1
   9   0   3 520.840 8.25582  -2
   0   0  12 520.840 8.25582   1
   1   0  12 1.83652 0.47573   2
   1   0  12 3.89758 0.54141   1
   2   0  12 651.504 9.40255   1
   2   0  12 439.997 8.05229   2
   3   0  12 1.89064 0.31101   1
   3   0  12 1.59135 0.37639   2
   8   0   8 154.844 3.67390  -2
   4   0  12 154.844 3.67390   1
   5   0  12 1.79246 0.68784   1
   6   0  12 575.671 10.9891   1
   6   0  12 400.932 7.96653   2
   7   0  12 1.41478 0.56132   1
   7   0  12 1.25736 0.54664   2
   7   0  13 127.687 4.58952  -2
   8   0  12 127.687 4.58952   1
   9   0  12 0.53540 1.24264   1
  -9   1  12 140.866 3.60781   1
  -9   1  12 92.2776 2.29204   2
 -11   1   7 87.5249 3.37620  -2
  -8   1  12 87.5249 3.37620   1
  -7   1  12 364.058 5.40984   2
  -7   1  12 567.844 8.28741   1
  -6   1  12 39.4179 1.10979   2
  -6   1  12 62.1785 1.27993   1
  -5   1  12 145.066 1.92033   2
  -5   1  12 218.486 2.76320   1
 -10   1   2 166.896 2.17668  -2
  -4   1  12 166.896 2.17668   1
  -3   1  12 229.657 2.50206   1
  -3   1  12 149.132 2.13967   2
  -2   1  12 29.8421 0.70221   1
  -2   1  12 18.9110 0.61106   2
  -1   1  12 300.893 3.28401   1
  -1   1  12 190.661 2.46097   2
   9   1   3 294.323 3.27023  -2
   0   1  12 294.323 3.27023   1
   1   1  12 514.228 5.20001   1
   1   1  12 322.702 4.34855   2
   9   1   4 582.353 25.4374  -2
   1   1  12 582.353 25.4374   1
   2   1  12 162.509 2.21502   2
   2   1  12 247.864 2.77934   1
   3   1  12 315.983 3.73193   2
   3   1  12 478.399 5.10685   1
   8   1   8 105.990 1.77660  -2
   4   1  12 105.990 1.77660   1
   5   1  12 207.743 7.21933   2
   8   1   9 413.284 5.41978  -2
   5   1  12 413.284 5.41978   1
   5   1  12 195.296 15.0648   1
   6   1  12 5.89162 0.47281   2
   6   1  12 9.37929 0.62293   1
   7   1  12 543.184 10.6849   1
   7   1  12 381.032 7.86665   2
   7   1  13 77.9613 2.64840  -2
   8   1  12 77.9613 2.64840   1
   7   1  14 271.830 11.4120  -2
   9   1  12 271.830 11.4120   1
  -9   2  12 293.872 5.79470   1
  -9   2  12 198.764 3.67858   2
 -11   2   7 48.4322 1.49255  -2
  -8   2  12 48.4322 1.49255   1
  -7   2  12 374.140 6.33191   1
  -7   2  12 246.225 4.10534   2
  -6   2  12 219.162 3.39620   2
  -6   2  12 334.947 4.21921   1
  -5   2  12 237.305 2.85232   1
  -5   2  12 156.132 2.06521   2
 -10   2   2 238.337 2.89078  -2
  -4   2  12 238.337 2.89078   1
  -3   2  12 211.318 2.38702   1
  -3   2  12 132.037 1.92288   2
  -2   2  12 361.117 3.64656   1
  -2   2  12 229.163 2.72943   2
  -1   2  12 220.797 2.50021   1
  -1   2  12 135.414 1.80553   2
   9   2   3 37.8128 0.85092  -2
   0   2  12 37.8128 0.85092   1
   1   2  12 4.66896 0.36266   1
   1   2  12 3.27216 0.38038   2
   9   2   4 177.114 8.90179  -2
   1   2  12 177.114 8.90179   1
   2   2  12 814.570 8.46546   1
   2   2  12 531.788 5.30185   2
   3   2  12 26.1104 0.77170   2
   3   2  12 40.8100 0.89123   1
   8   2   8 111.734 2.06678  -2
   4   2  12 111.734 2.06678   1
   8   2   9 400.616 6.38623  -2
   5   2  12 400.616 6.38623   1
   5   2  12 107.247 6.15841   1
   6   2  12 21.3117 0.76098   1
   6   2  12 14.9939 0.65747   2
   7   2  12 10.2337 0.69960   2
   7   2  12 15.2870 0.80869   1
   7   2  13 33.3644 1.53055  -2
   8   2  12 33.3644 1.53055   1
  -9   3  12 7.19688 0.65117   1
  -9   3  12 4.62617 0.39407   2
 -11   3   7 118.967 2.49389  -2
  -8   3  12 118.967 2.49389   1
  -7   3  12 81.2257 1.85238   1
  -7   3  12 53.3514 1.29471   2
  -6   3  12 383.806 5.21283   1
  -6   3  12 250.484 3.71682   2
  -5   3  12 57.4456 1.15131   1
  -5   3  12 37.4638 0.91477   2
 -10   3   2 568.321 6.65924  -2
  -4   3  12 568.321 6.65924   1
  -3   3  12 164.469 2.31500   1
  -3   3  12 103.139 1.77586   2
  -2   3  12 74.3721 1.29800   1
  -2   3  12 48.8643 1.00716   2
  -1   3  12 18.3468 0.63327   2
  -1   3  12 29.7996 0.77275   1
   9   3   3 330.174 3.81272  -2
   0   3  12 330.174 3.81272   1
   1   3  12 239.477 3.34689   2
   1   3  12 383.336 3.93922   1
   9   3   4 445.725 20.0071  -2
   1   3  12 445.725 20.0071   1
   2   3  12 33.6470 0.78495   1
   2   3  12 22.7225 0.62953   2
   3   3  12 1.04182 0.23610   2
   3   3  12 2.42855 0.31566   1
   8   3   8 14.5924 0.71523  -2
   4   3  12 14.5924 0.71523   1
   8   3   9 419.814 6.54631  -2
   5   3  12 419.814 6.54631   1
   5   3  12 3.27780 1.29025   1
   6   3  12 2.13015 0.33889   2
   6   3  12 3.60046 0.41008   1
   7   3  12 2.71167 0.38409   2
   7   3  12 3.08788 0.42631   1
   7   3  13 22.5306 1.12760  -2
   8   3  12 22.5306 1.12760   1
 -11   4   7 225.111 5.10821  -2
  -8   4  12 225.111 5.10821   1
  -7   4  12 31.6942 1.12300   1
  -7   4  12 20.5108 0.74664   2
  -6   4  12 446.343 6.63920   1
  -6   4  12 291.327 5.16698   2
  -5   4  12 146.615 2.38321   2
  -5   4  12 236.965 3.12607   1
 -10   4   2 558.822 8.09658  -2
  -4   4  12 558.822 8.09658   1
  -3   4  12 138.701 2.14424   1
  -3   4  12 89.8372 1.62629   2
  -2   4  12 118.192 1.97781   2
  -2   4  12 179.451 2.41103   1
  -1   4  12 312.668 3.94830   1
  -1   4  12 207.082 3.04883   2
   9   4   3 337.078 4.29320  -2
   0   4  12 337.078 4.29320   1
   1   4  12 332.207 4.28859   1
   1   4  12 220.966 3.87383   2
   2   4  12 11.0308 0.56312   1
   2   4  12 7.98275 0.52133   2
   3   4  12 139.553 2.01613   1
   3   4  12 91.9627 1.54336   2
   8   4   8 1030.45 13.9819  -2
   4   4  12 1030.45 13.9819   1
   8   4   9 369.791 5.77483  -2
   5   4  12 369.791 5.77483   1
   5   4  12 63.3372 6.15737   1
   6   4  12 4.44760 0.42295   1
   6   4  12 2.92175 0.35063   2
   7   4  12 6.97979 0.73271   2
   7   4  12 10.2527 0.88251   1
   7   4  13 212.514 6.59939  -2
   8   4  12 212.514 6.59939   1
  -7   5  12 272.217 6.04121   1
  -7   5  12 169.155 4.19803   2
  -6   5  12 8.82443 0.55557   2
  -6   5  12 14.1061 0.74435   1
  -5   5  12 271.713 5.00831   1
  -5   5  12 178.622 3.28746   2
 -10   5   2 235.248 3.76954  -2
  -4   5  12 235.248 3.76954   1
  -3   5  12 141.106 2.22605   1
  -3   5  12 90.9358 2.08612   2
  -2   5  12 25.2023 0.73178   1
  -2   5  12 18.1041 0.69803   2
  -1   5  12 87.4217 1.81088   2
  -1   5  12 132.847 2.00296   1
   9   5   3 51.6467 1.20756  -2
   0   5  12 51.6467 1.20756   1
   1   5  12 729.819 8.90476   1
   1   5  12 473.690 7.98485   2
   9   5   4 709.563 22.0333  -2
   1   5  12 709.563 22.0333   1
   2   5  12 182.694 2.50129   1
   2   5  12 125.557 2.13436   2
   3   5  12 634.762 8.21722   1
   3   5  12 426.803 6.28777   2
   8   5   8 227.735 4.29161  -2
   4   5  12 227.735 4.29161   1
   8   5   9 787.101 13.3999  -2
   5   5  12 787.101 13.3999   1
   5   5  12 391.852 14.8606   2
   6   5  12 57.6821 1.42659   2
   6   5  12 90.6471 1.92170   1
   7   5  12 106.738 2.46612   2
   7   5  12 164.084 3.53690   1
  -7   6  12 2.11437 0.46928   2
  -7   6  12 6.35049 0.82128   1
  -6   6  12 42.9239 2.05846   2
  -6   6  12 65.8765 1.97559   1
  -5   6  12 18.7055 0.78207   1
  -5   6  12 11.2147 0.69906   2
 -10   6   2 635.980 10.5232  -2
  -4   6  12 635.980 10.5232   1
  -3   6  12 32.1184 1.03655   1
  -3   6  12 21.7222 0.97574   2
  -2   6  12 1.98936 0.34232   1
  -2   6  12 1.23015 0.25770   2
  -1   6  12 20.3183 0.86457   2
  -1   6  12 30.1741 1.03213   1
   9   6   3 826.902 13.7531  -2
   0   6  12 826.902 13.7531   1
   1   6  12 18.9274 0.96115   1
   1   6  12 12.3436 0.75988   2
   9   6   4 52.0091 2.50700  -2
   1   6  12 52.0091 2.50700   1
   2   6  12 18.8796 0.74369   2
   2   6  12 28.1904 0.93104   1
   3   6  12 57.8376 1.39648   2
   3   6  12 83.2346 1.77791   1
   8   6   8 458.493 7.33629  -2
   4   6  12 458.493 7.33629   1
   5   6  12 1.76552 0.57216   2
   8   6   9 25.9132 0.93086  -2
   5   6  12 25.9132 0.93086   1
   6   6  12 1.29866 0.27652   2
   6   6  12 2.07939 0.38364   1
  -5   7  12 17.9613 0.88917   1
  -5   7  12 10.6314 0.77210   2
 -10   7   2 179.615 3.68362  -2
  -4   7  12 179.615 3.68362   1
  -3   7  12 52.3824 1.80422   2
  -3   7  12 78.7846 1.85802   1
  -2   7  12 125.857 2.70960   1
  -2   7  12 87.1989 1.90692   2
  -1   7  12 12.7391 0.71466   1
  -1   7  12 9.44426 0.55464   2
   9   7   3 436.088 7.81013  -2
   0   7  12 436.088 7.81013   1
   1   7  12 31.5967 1.38544   2
   1   7  12 51.9293 1.59189   1
   9   7   4 53.7449 3.60661  -2
   1   7  12 53.7449 3.60661   1
   2   7  12 249.033 4.85782   1
   2   7  12 170.700 3.28675   2
   3   7  12 39.8758 1.12319   2
   3   7  12 57.0461 1.69305   1
   8   7   8 92.3109 2.56209  -2
   4   7  12 92.3109 2.56209   1
   8   7   9 252.329 9.97009  -2
   5   7  12 252.329 9.97009   1
  -3   8  12 141.440 4.15980   1
  -3   8  12 96.8756 4.95095   2
  -2   8  12 5.48378 0.70290   1
  -2   8  12 3.87967 0.57705   2
  -1   8  12 11.2477 0.63757   2
  -1   8  12 16.2912 0.81692   1
   9   8   3 225.501 6.50584  -2
   0   8  12 225.501 6.50584   1
   1   8  12 17.8720 0.91460   2
   1   8  12 27.7097 1.60689   1
   9   8   4 114.854 5.13680  -2
   1   8  12 114.854 5.13680   1
   2   8  12 3.88106 0.68432   1
   2   8  12 2.16500 0.47196   2
  -8   0  13 0.32500 0.36353   2
  -8   0  13 1.20746 0.65262   1
  -7   0  13 154.858 4.39996   2
  -7   0  13 232.399 7.19889   1
  -6   0  13 1.71891 0.88944   1
  -6   0  13 0.01029 0.38125   2
 -11   0   3 274.877 6.30990  -2
  -5   0  13 274.877 6.30990   1
  -4   0  13 0.33982 0.29685   2
  -4   0  13 1.10987 0.35841   1
  -3   0  13 43.0025 1.30912   2
  -3   0  13 64.8432 1.74015   1
  -2   0  13 0.72712 0.34134   2
  -2   0  13 6.80511 1.17142   1
  10   0   2 1372.28 20.9353  -2
  -1   0  13 1372.28 20.9353   1
   0   0  13 1.51614 0.40064   1
   0   0  13 2.46516 0.62164   2
   1   0  13 183.296 4.04456   2
   1   0  13 275.304 4.85083   1
   2   0  13 1.29775 0.43743   1
   2   0  13 1.97700 0.47363   2
   9   0   7 53.8595 1.88955  -2
   3   0  13 53.8595 1.88955   1
   4   0  13 1.25528 0.61177   1
   5   0  13 231.602 5.01425   1
   5   0  13 162.958 3.83718   2
   6   0  13 1.09442 0.48691   1
   6   0  13 0.72801 0.48176   2
   8   0  12 170.870 5.69842  -2
   7   0  13 170.870 5.69842   1
   8   0  13 1.78246 1.45532   1
  -8   1  13 43.7932 1.60864   2
  -8   1  13 62.5632 1.96697   1
  -7   1  13 108.701 2.53458   1
  -7   1  13 71.1391 1.94211   2
  -6   1  13 57.9313 1.45791   2
  -6   1  13 90.0884 2.01703   1
 -11   1   3 138.600 2.32379  -2
  -5   1  13 138.600 2.32379   1
  -4   1  13 261.231 3.10581   1
  -4   1  13 167.858 2.27340   2
  -3   1  13 41.6738 0.90282   2
  -3   1  13 63.0953 1.14139   1
  -2   1  13 156.669 2.22496   2
  -2   1  13 245.376 2.94961   1
  10   1   2 119.567 1.77379  -2
  -1   1  13 119.567 1.77379   1
   0   1  13 349.811 4.12373   1
  10   1   3 907.604 26.5397  -2
   0   1  13 907.604 26.5397   1
   0   1  13 216.780 3.55148   2
   1   1  13 67.2418 1.37204   2
   1   1  13 99.5152 1.48127   1
   2   1  13 7.00454 0.50983   2
   2   1  13 10.4354 0.52059   1
   9   1   7 193.365 2.61041  -2
   3   1  13 193.365 2.61041   1
   9   1   8 659.985 11.1403  -2
   4   1  13 659.985 11.1403   1
   4   1  13 393.313 17.3472   2
   4   1  13 643.795 15.7343   1
   5   1  13 141.737 2.54913   1
   5   1  13 95.4634 1.85965   2
   6   1  13 1.97079 0.39539   1
   6   1  13 1.24245 0.43046   2
   8   1  12 79.4024 2.65112  -2
   7   1  13 79.4024 2.65112   1
   8   1  13 596.349 22.6805  -2
   8   1  13 596.349 22.6805   1
  -8   2  13 156.416 2.99888   2
  -8   2  13 235.684 4.77827   1
  -7   2  13 24.3529 1.00795   2
  -7   2  13 35.6220 1.13500   1
  -6   2  13 272.328 5.19386   2
  -6   2  13 418.611 7.58268   1
 -11   2   3 7.96886 0.49113  -2
  -5   2  13 7.96886 0.49113   1
  -4   2  13 357.574 4.72813   1
  -4   2  13 238.806 3.58983   2
  -3   2  13 17.6419 0.60926   2
  -3   2  13 27.6687 0.74496   1
  -2   2  13 322.718 4.02200   2
  -2   2  13 502.770 5.62860   1
  10   2   2 436.358 5.79409  -2
  -1   2  13 436.358 5.79409   1
   0   2  13 372.380 4.32713   1
   0   2  13 232.932 4.08486   2
   1   2  13 180.122 2.39932   1
   1   2  13 115.250 1.84307   2
   2   2  13 150.506 2.13889   1
   2   2  13 96.8005 1.81436   2
   9   2   7 281.323 3.97659  -2
   3   2  13 281.323 3.97659   1
   9   2   8 376.307 6.09749  -2
   4   2  13 376.307 6.09749   1
   4   2  13 48.2021 7.31443   2
   4   2  13 81.5171 4.04765   1
   5   2  13 2.05394 0.34040   2
   5   2  13 3.68945 0.43008   1
   6   2  13 161.602 3.37546   2
   6   2  13 230.822 4.45169   1
   8   2  12 25.9738 1.30659  -2
   7   2  13 25.9738 1.30659   1
   8   2  13 193.079 8.11668  -2
   8   2  13 193.079 8.11668   1
  -8   3  13 171.399 4.12138   1
  -8   3  13 115.451 2.62328   2
  -7   3  13 142.864 3.16940   2
  -7   3  13 211.377 3.87040   1
  -6   3  13 534.263 9.10445   2
  -6   3  13 818.173 11.8414   1
 -11   3   3 739.065 11.8383  -2
  -5   3  13 739.065 11.8383   1
  -4   3  13 1.49086 0.29205   2
  -4   3  13 2.58177 0.33865   1
  -3   3  13 327.838 4.89919   1
  -3   3  13 216.048 3.31613   2
  -2   3  13 274.631 3.45857   2
  -2   3  13 437.054 5.17544   1
  10   3   2 140.436 2.24688  -2
  -1   3  13 140.436 2.24688   1
   0   3  13 68.4496 1.41521   2
   0   3  13 106.300 1.74563   1
  10   3   3 595.085 24.6252  -2
   0   3  13 595.085 24.6252   1
   1   3  13 70.5757 1.21379   1
   1   3  13 46.7228 1.09919   2
   2   3  13 376.606 4.57415   1
   2   3  13 241.236 4.06110   2
   9   3   7 231.927 3.66572  -2
   3   3  13 231.927 3.66572   1
   4   3  13 116.011 8.16201   1
   9   3   8 144.052 2.84762  -2
   4   3  13 144.052 2.84762   1
   4   3  13 83.4757 4.00493   2
   5   3  13 160.768 3.74588   1
   5   3  13 115.501 2.79468   2
   6   3  13 63.9198 1.73996   1
   6   3  13 44.4946 1.32156   2
   8   3  12 31.9950 1.34826  -2
   7   3  13 31.9950 1.34826   1
  -7   4  13 4.77571 0.44843   1
  -7   4  13 3.13534 0.36210   2
  -6   4  13 47.3940 1.23799   2
  -6   4  13 72.8924 2.17909   1
 -11   4   3 84.1582 1.89609  -2
  -5   4  13 84.1582 1.89609   1
  -4   4  13 159.712 2.90418   2
  -4   4  13 245.397 3.59926   1
  -3   4  13 1.20070 0.23364   2
  -3   4  13 1.70206 0.29752   1
  -2   4  13 359.892 4.98662   2
  -2   4  13 553.492 6.68932   1
  10   4   2 6.65721 0.57679  -2
  -1   4  13 6.65721 0.57679   1
   0   4  13 275.677 4.60518   2
   0   4  13 413.829 5.47258   1
   1   4  13 21.3124 0.77479   1
   1   4  13 13.9620 0.68525   2
   2   4  13 175.438 3.16391   2
   2   4  13 273.544 3.83565   1
   9   4   7 116.763 2.19732  -2
   3   4  13 116.763 2.19732   1
   9   4   8 354.824 6.00565  -2
   4   4  13 354.824 6.00565   1
   4   4  13 97.1035 3.06221   2
   4   4  13 131.654 8.77704   1
   5   4  13 11.3598 0.51460   2
   5   4  13 16.0716 0.70825   1
   6   4  13 74.6125 2.09138   1
   6   4  13 50.3294 1.92184   2
   8   4  12 129.268 3.52358  -2
   7   4  13 129.268 3.52358   1
  -7   5  13 0.66537 0.38967   1
  -6   5  13 385.884 8.22314   1
  -6   5  13 254.046 5.97192   2
 -11   5   3 16.4050 0.77680  -2
  -5   5  13 16.4050 0.77680   1
  -4   5  13 65.6590 1.70022   2
  -4   5  13 102.880 2.29536   1
  -3   5  13 0.84421 0.21427   2
  -3   5  13 1.58801 0.31982   1
  -2   5  13 351.638 6.15642   1
  -2   5  13 241.734 4.00445   2
  10   5   2 51.5419 1.84029  -2
  -1   5  13 51.5419 1.84029   1
   0   5  13 314.042 5.10081   1
   0   5  13 200.614 3.55313   2
   1   5  13 3.12132 0.39699   2
   1   5  13 4.68044 0.53623   1
   2   5  13 588.380 9.48510   2
   2   5  13 909.463 13.8828   1
   9   5   7 204.493 3.94217  -2
   3   5  13 204.493 3.94217   1
   9   5   8 125.498 2.64603  -2
   4   5  13 125.498 2.64603   1
   4   5  13 8.79697 2.07228   1
   5   5  13 12.2329 0.58340   2
   5   5  13 18.5381 0.78911   1
   6   5  13 318.807 7.17473   1
   6   5  13 220.180 5.11952   2
 -11   6   3 189.271 5.16784  -2
  -5   6  13 189.271 5.16784   1
  -4   6  13 1.12574 0.30046   2
  -4   6  13 1.95775 0.35889   1
  -3   6  13 137.243 2.74157   1
  -3   6  13 92.0824 2.13609   2
  -2   6  13 2.12979 0.25736   2
  -2   6  13 2.81739 0.36025   1
  10   6   2 118.128 2.40806  -2
  -1   6  13 118.128 2.40806   1
   0   6  13 9.75911 0.63632   2
   0   6  13 13.3796 0.66698   1
   1   6  13 82.2868 1.62174   2
   1   6  13 122.482 2.53550   1
   2   6  13 20.6254 0.80074   1
   2   6  13 14.2861 0.66933   2
   9   6   7 144.723 3.25612  -2
   3   6  13 144.723 3.25612   1
   9   6   8 68.6702 1.78093  -2
   4   6  13 68.6702 1.78093   1
   5   6  13 61.4103 1.78366   2
   5   6  13 92.2903 3.16195   1
  -4   7  13 134.756 4.38741   2
  -3   7  13 178.474 3.66648   1
  -3   7  13 124.369 2.81820   2
  -2   7  13 35.7430 1.17318   1
  -2   7  13 25.7751 0.84621   2
  10   7   2 118.832 2.66249  -2
  -1   7  13 118.832 2.66249   1
  10   7   3 122.054 5.70542  -2
   0   7  13 122.054 5.70542   1
   0   7  13 127.342 2.96217   1
   0   7  13 86.0638 2.52026   2
   1   7  13 116.052 2.54565   1
   1   7  13 84.3668 1.84760   2
   2   7  13 11.7192 0.62692   2
   2   7  13 17.4297 1.01032   1
   9   7   7 76.6218 3.99465  -2
   3   7  13 76.6218 3.99465   1
  -7   0  14 1.12788 0.39048   2
  -7   0  14 0.75332 0.42446   1
 -12   0   4 397.862 16.3509  -2
  -6   0  14 397.862 16.3509   1
  -5   0  14 0.49949 0.27566   2
  -5   0  14 0.99334 0.51589   1
  -4   0  14 55.7350 1.71248   2
  -4   0  14 82.4722 2.49677   1
  -3   0  14 1.97742 0.41153   2
  -3   0  14 0.97456 0.41917   1
  11   0   1 1655.28 32.6894  -2
  -2   0  14 1655.28 32.6894   1
  -1   0  14 2.35462 0.65740   2
  -1   0  14 1.68952 0.55145   1
   0   0  14 64.4165 1.86226   1
   0   0  14 42.3230 1.56378   2
   1   0  14 1.53381 0.45651   1
   1   0  14 0.36058 0.46350   2
  10   0   6 421.638 8.63671  -2
   2   0  14 421.638 8.63671   1
   3   0  14 1.38865 0.72649   1
   3   0  14 1.47192 0.66457   2
   4   0  14 336.950 7.61330   1
   4   0  14 229.110 5.68380   2
   5   0  14 0.83975 0.47557   2
   5   0  14 0.23303 0.44284   1
   9   0  11 143.247 4.95771  -2
   6   0  14 143.247 4.95771   1
   7   0  14 0.69373 1.36580   1
  -8   1  14 6.74096 1.21460   1
  -7   1  14 175.011 3.64339   2
  -7   1  14 281.864 6.45483   1
 -12   1   4 66.5545 1.90244  -2
  -6   1  14 66.5545 1.90244   1
  -5   1  14 14.3381 0.58448   2
  -5   1  14 24.2013 1.03520   1
  -4   1  14 27.4138 0.80003   2
  -4   1  14 40.1670 1.22020   1
  -3   1  14 20.2091 0.74344   2
  -3   1  14 30.9329 0.82994   1
  11   1   1 163.700 2.45061  -2
  -2   1  14 163.700 2.45061   1
  -1   1  14 15.8452 0.78094   1
  -1   1  14 11.0773 0.68807   2
  11   1   2 152.176 6.82875  -2
  -1   1  14 152.176 6.82875   1
   0   1  14 75.6337 1.58046   2
   0   1  14 120.089 1.96507   1
   1   1  14 82.7631 1.59161   1
   1   1  14 53.6539 1.36475   2
  10   1   6 62.7423 1.51181  -2
   2   1  14 62.7423 1.51181   1
  10   1   7 21.8196 1.56760  -2
   3   1  14 21.8196 1.56760   1
   3   1  14 19.6008 1.19118   1
   3   1  14 9.27740 0.96383   2
   4   1  14 109.857 2.40329   1
   4   1  14 75.1670 2.13957   2
   5   1  14 2.79836 1.01430   1
   5   1  14 0.24398 0.35395   2
   9   1  11 291.724 7.17788  -2
   6   1  14 291.724 7.17788   1
   9   1  12 180.026 7.74142  -2
   7   1  14 180.026 7.74142   1
  -7   2  14 178.589 3.71678   1
  -7   2  14 118.155 2.17737   2
 -12   2   4 223.715 4.91376  -2
  -6   2  14 223.715 4.91376   1
  -5   2  14 541.739 9.03758   1
  -5   2  14 352.544 6.16386   2
  -4   2  14 76.4549 1.72808   1
  -4   2  14 48.9019 1.20331   2
  -3   2  14 110.650 1.93869   2
  -3   2  14 166.701 2.79710   1
  11   2   1 271.872 3.90995  -2
  -2   2  14 271.872 3.90995   1
  -1   2  14 505.708 6.77853   1
  -1   2  14 331.729 5.28911   2
  11   2   2 525.522 23.0502  -2
  -1   2  14 525.522 23.0502   1
   0   2  14 405.660 5.94225   2
   0   2  14 610.356 7.99153   1
   1   2  14 319.912 4.56708   1
   1   2  14 205.160 3.43219   2
  10   2   6 73.9253 1.69233  -2
   2   2  14 73.9253 1.69233   1
   3   2  14 185.825 7.08486   1
  10   2   7 188.164 4.19712  -2
   3   2  14 188.164 4.19712   1
   4   2  14 147.295 3.60155   2
   4   2  14 217.590 4.30525   1
   5   2  14 69.7845 2.04061   1
   5   2  14 47.0573 1.72525   2
   9   2  11 104.164 2.82553  -2
   6   2  14 104.164 2.82553   1
  -7   3  14 10.7118 0.75616   1
  -7   3  14 7.27246 0.49733   2
 -12   3   4 354.924 5.82120  -2
  -6   3  14 354.924 5.82120   1
  -5   3  14 108.935 2.42733   2
  -5   3  14 166.459 3.02994   1
  -4   3  14 249.524 4.43711   2
  -4   3  14 377.175 6.05569   1
  -3   3  14 72.8345 1.72353   2
  -3   3  14 110.221 2.24631   1
  11   3   1 582.401 9.24347  -2
  -2   3  14 582.401 9.24347   1
  -1   3  14 1.44766 0.29912   2
  -1   3  14 3.51666 0.39435   1
   0   3  14 87.9665 1.79575   1
   0   3  14 57.9800 1.42479   2
   1   3  14 3.01812 0.41245   1
   1   3  14 2.30061 0.38503   2
  10   3   6 383.728 6.81086  -2
   2   3  14 383.728 6.81086   1
   3   3  14 12.6300 2.89174   1
  10   3   7 150.767 4.49406  -2
   3   3  14 150.767 4.49406   1
   3   3  14 9.26696 1.56718   2
   4   3  14 242.477 4.88378   2
   4   3  14 367.668 6.15361   1
   5   3  14 14.7086 0.75065   2
   5   3  14 20.7287 0.83186   1
   9   3  11 201.069 4.87829  -2
   6   3  14 201.069 4.87829   1
 -12   4   4 448.475 11.7658  -2
  -6   4  14 448.475 11.7658   1
  -5   4  14 28.5121 0.81122   2
  -5   4  14 42.7112 1.44368   1
  -4   4  14 376.212 6.30767   2
  -4   4  14 567.013 9.75048   1
  -3   4  14 393.750 6.00687   1
  -3   4  14 262.637 4.70444   2
  11   4   1 299.573 5.79889  -2
  -2   4  14 299.573 5.79889   1
  -1   4  14 232.552 3.97222   2
  -1   4  14 350.946 5.28860   1
   0   4  14 626.186 8.89445   1
   0   4  14 422.074 5.90029   2
   1   4  14 121.320 2.47007   1
   1   4  14 81.3266 1.60356   2
  10   4   6 315.757 5.70277  -2
   2   4  14 315.757 5.70277   1
   3   4  14 77.6282 2.22738   2
  10   4   7 120.828 2.56163  -2
   3   4  14 120.828 2.56163   1
   3   4  14 110.236 6.43642   1
   4   4  14 264.145 4.78540   1
   4   4  14 176.464 3.69060   2
   5   4  14 26.1893 1.20390   1
   5   4  14 18.0664 0.95076   2
   9   4  11 90.1449 3.24979  -2
   6   4  14 90.1449 3.24979   1
  -5   5  14 16.9023 1.03257   2
  -5   5  14 26.7403 1.17581   1
  -4   5  14 64.4806 1.93189   2
  -4   5  14 93.8933 2.21582   1
  -3   5  14 2.58137 0.39049   1
  -3   5  14 2.01471 0.34860   2
  11   5   1 84.0141 2.48335  -2
  -2   5  14 84.0141 2.48335   1
  -1   5  14 149.909 2.96142   1
  -1   5  14 97.7792 2.09729   2
   0   5  14 25.4346 0.91341   1
   0   5  14 17.8799 0.69709   2
   1   5  14 2.54418 0.34910   1
   1   5  14 1.81724 0.30765   2
  10   5   6 67.6832 1.88919  -2
   2   5  14 67.6832 1.88919   1
   3   5  14 11.5028 1.42431   2
  10   5   7 361.977 6.68929  -2
   3   5  14 361.977 6.68929   1
   4   5  14 2.36241 0.40569   1
   4   5  14 1.75098 0.30846   2
   5   5  14 39.8849 2.26928   2
   5   5  14 53.8170 3.11909   1
  -4   6  14 56.2644 1.72151   2
  -4   6  14 85.9161 3.89734   1
  -3   6  14 1.21247 0.32123   2
  -3   6  14 2.89475 0.50910   1
  11   6   1 618.077 16.0249  -2
  -2   6  14 618.077 16.0249   1
  -1   6  14 37.6738 1.51035   2
  -1   6  14 54.3246 1.88117   1
   0   6  14 251.410 5.08779   1
   0   6  14 160.677 3.60703   2
   1   6  14 72.6093 1.88960   1
   1   6  14 49.7861 1.49555   2
  10   6   6 244.327 6.91931  -2
   2   6  14 244.327 6.91931   1
  10   6   7 82.3234 4.10112  -2
   3   6  14 82.3234 4.10112   1
   3   6  14 51.0490 2.64699   2
  -6   0  15 1.40292 0.42231   1
  -5   0  15 169.695 5.35492   2
  -5   0  15 266.741 7.96885   1
  -4   0  15 0.85516 0.38295   1
  -4   0  15 0.58899 0.27437   2
  12   0   0 1157.90 32.2508  -2
  -3   0  15 1157.90 32.2508   1
  -2   0  15 1.72714 0.46434   1
  -2   0  15 0.65498 0.49239   2
  -1   0  15 321.238 7.14448   1
  -1   0  15 226.812 6.28430   2
   0   0  15 1.10190 0.43958   1
   0   0  15 0.34949 0.42177   2
  11   0   5 384.547 8.72772  -2
   1   0  15 384.547 8.72772   1
   2   0  15 0.75790 0.62980   1
   2   0  15 0.62622 0.75808   2
   3   0  15 18.3564 1.60512   1
   3   0  15 12.2270 1.22893   2
   4   0  15 0.89794 0.44247   1
   4   0  15 0.88035 0.51746   2
  10   0  10 214.484 5.92440  -2
   5   0  15 214.484 5.92440   1
  -6   1  15 2.52799 0.59085   2
  -6   1  15 3.04484 0.52909   1
  -5   1  15 62.9305 2.00952   1
  -5   1  15 20.0582 1.80410   2
  -4   1  15 222.448 3.52343   2
  -4   1  15 351.098 6.95705   1
  12   1   0 38.4840 1.48982  -2
  -3   1  15 38.4840 1.48982   1
  -2   1  15 207.298 3.73999   2
  -2   1  15 305.356 6.12746   1
  -1   1  15 91.1888 1.85227   2
  -1   1  15 134.600 2.86430   1
   0   1  15 512.491 8.50481   1
   0   1  15 341.809 5.14468   2
  11   1   5 54.0710 1.91513  -2
   1   1  15 54.0710 1.91513   1
  11   1   6 309.414 10.8722  -2
   2   1  15 309.414 10.8722   1
   2   1  15 24.3909 1.78623   2
   2   1  15 39.4591 1.88790   1
   3   1  15 123.729 2.59859   1
   3   1  15 86.1600 2.95826   2
   4   1  15 381.827 7.13944   1
   4   1  15 267.050 6.26652   2
  10   1  10 199.288 5.00925  -2
   5   1  15 199.288 5.00925   1
  -6   2  15 78.1374 1.88498   2
  -6   2  15 123.537 3.58098   1
  -5   2  15 67.6638 1.88302   1
  -5   2  15 43.3827 1.19290   2
  -4   2  15 136.103 2.56412   2
  -4   2  15 210.129 4.70452   1
  12   2   0 191.078 4.33066  -2
  -3   2  15 191.078 4.33066   1
  -2   2  15 13.5833 0.65879   2
  -2   2  15 22.0406 0.97211   1
  -1   2  15 15.5074 0.79143   2
  -1   2  15 23.8411 0.87907   1
   0   2  15 102.181 2.19269   1
   0   2  15 65.0656 1.84110   2
  11   2   5 63.5171 1.82932  -2
   1   2  15 63.5171 1.82932   1
  11   2   6 114.224 4.17470  -2
   2   2  15 114.224 4.17470   1
   2   2  15 71.0087 2.97080   1
   3   2  15 41.3410 1.55519   1
   3   2  15 25.7709 1.39094   2
   4   2  15 101.498 2.86077   1
   4   2  15 69.1071 2.19554   2
  10   2  10 182.137 4.91636  -2
   5   2  15 182.137 4.91636   1
  -6   3  15 34.7305 1.91365   2
  -5   3  15 163.553 3.13496   1
  -5   3  15 115.283 2.67633   2
  -4   3  15 228.109 4.16489   1
  -4   3  15 147.794 2.59977   2
  12   3   0 234.023 4.29737  -2
  -3   3  15 234.023 4.29737   1
  -2   3  15 69.1962 1.57655   1
  -2   3  15 45.5960 1.19640   2
  -1   3  15 266.234 4.40908   2
  -1   3  15 388.095 6.04689   1
   0   3  15 113.479 2.32753   1
   0   3  15 77.9015 1.78185   2
  11   3   5 268.900 5.57763  -2
   1   3  15 268.900 5.57763   1
  11   3   6 95.8607 3.23143  -2
   2   3  15 95.8607 3.23143   1
   2   3  15 74.7124 2.43468   1
   2   3  15 49.6545 3.26287   2
   3   3  15 225.828 3.90866   2
   3   3  15 345.893 5.67805   1
   4   3  15 234.239 4.09197   2
   4   3  15 348.666 6.39996   1
  10   3  10 322.708 8.53514  -2
   5   3  15 322.708 8.53514   1
  -5   4  15 153.922 6.80030   1
  -4   4  15 22.8496 0.59669   2
  -4   4  15 34.9468 1.26373   1
  12   4   0 69.1934 2.62121  -2
  -3   4  15 69.1934 2.62121   1
  -3   4  15 37.0581 1.84905   1
  -2   4  15 36.6222 1.11413   2
  -2   4  15 54.3107 1.53797   1
  -1   4  15 214.520 4.59572   1
  -1   4  15 147.356 2.64916   2
   0   4  15 6.70439 0.50806   1
   0   4  15 6.53256 0.46867   2
  11   4   5 86.0233 3.00656  -2
   1   4  15 86.0233 3.00656   1
  11   4   6 24.4730 1.48609  -2
   2   4  15 24.4730 1.48609   1
   2   4  15 1.25230 0.36509   2
   2   4  15 3.21162 0.96264   1
   3   4  15 175.144 3.82520   2
   3   4  15 252.254 5.73316   1
   4   4  15 1.20995 0.38712   1
   4   4  15 0.73989 0.37205   2
  12   5   0 113.971 5.04278  -2
  -3   5  15 113.971 5.04278   1
  -2   5  15 355.451 7.79301   1
  -2   5  15 248.161 4.99456   2
  -1   5  15 4.22596 0.38902   2
  -1   5  15 5.47383 0.51808   1
   0   5  15 44.6536 1.24558   2
   0   5  15 64.6462 1.78526   1
  11   5   5 33.4923 1.62451  -2
   1   5  15 33.4923 1.62451   1
   2   5  15 89.6750 2.49411   2
  11   5   6 288.609 11.1031  -2
   2   5  15 288.609 11.1031   1
   2   5  15 122.203 5.88456   1
   3   5  15 5.20173 1.01590   1
   3   5  15 5.88229 0.95399   2
  -5   0  16 0.98493 0.82223   1
 -13   0   1 1152.00 31.8552  -2
  -4   0  16 1152.00 31.8552   1
  -3   0  16 0.59163 0.42710   1
  -3   0  16 0.84848 0.32968   2
  -2   0  16 65.0220 1.99648   2
  -2   0  16 94.0878 3.51701   1
  -1   0  16 0.68618 0.35126   2
  -1   0  16 0.66027 0.42659   1
  12   0   4 1502.65 40.0711  -2
   0   0  16 1502.65 40.0711   1
   1   0  16 0.48094 0.42080   1
   1   0  16 1.30622 0.57861   2
   2   0  16 1.57846 0.60076   2
   2   0  16 3.24389 0.67363   1
   3   0  16 0.78614 0.45048   1
   3   0  16 0.25736 0.41234   2
  11   0   9 960.242 36.1130  -2
   4   0  16 960.242 36.1130   1
  -5   1  16 0.20161 0.61390   2
  -5   1  16 7.82290 1.08575   1
 -13   1   1 77.4216 2.80507  -2
  -4   1  16 77.4216 2.80507   1
  -3   1  16 25.2721 1.13723   1
  -3   1  16 18.3520 0.89748   2
  -2   1  16 0.83557 0.24928   2
  -2   1  16 2.60408 0.43674   1
  -1   1  16 2.78955 0.46773   1
  -1   1  16 0.92882 0.28298   2
  12   1   4 13.2071 1.02089  -2
   0   1  16 13.2071 1.02089   1
   0   1  16 0.07633 0.68213   2
   1   1  16 230.780 4.66406   1
   1   1  16 156.986 4.42832   2
   2   1  16 35.9574 1.28402   1
   2   1  16 25.6429 1.19575   2
   3   1  16 92.5477 3.14867   1
  11   1   9 68.9562 4.08109  -2
   4   1  16 68.9562 4.08109   1
 -13   2   1 195.167 5.83886  -2
  -4   2  16 195.167 5.83886   1
  -3   2  16 30.5674 1.04489   1
  -3   2  16 20.9930 0.72430   2
  -2   2  16 11.5047 0.61507   2
  -2   2  16 17.6795 0.85759   1
  -1   2  16 3.09250 0.40462   2
  -1   2  16 4.51409 0.55514   1
  12   2   4 189.315 4.48194  -2
   0   2  16 189.315 4.48194   1
  12   2   5 177.314 7.36997  -2
   1   2  16 177.314 7.36997   1
   1   2  16 9.82661 0.99352   1
   1   2  16 5.70671 0.62250   2
   2   2  16 0.92910 0.41591   2
   2   2  16 1.50941 0.43927   1
   3   2  16 7.83246 0.99254   1
   3   2  16 4.91739 0.70819   2
  -3   3  16 2.21702 0.30390   2
  -3   3  16 2.88430 0.36333   1
  -2   3  16 21.1205 0.73220   1
  -2   3  16 15.0288 0.62496   2
  -1   3  16 1.01949 0.23965   2
  -1   3  16 1.19528 0.27448   1
  12   3   4 246.591 5.04890  -2
   0   3  16 246.591 5.04890   1
   0   3  16 59.6727 3.98965   2
   1   3  16 2.33456 0.27742   2
   1   3  16 2.03406 0.36799   1
  12   3   5 77.0134 3.33061  -2
   1   3  16 77.0134 3.33061   1
   2   3  16 14.3197 0.66973   2
   2   3  16 23.6559 0.90557   1
   3   3  16 27.3988 1.66977   1
   3   3  16 20.5183 1.54460   2
  -2   4  16 246.054 5.94716   2
  -2   4  16 377.241 10.5671   1
  -1   4  16 8.57493 0.43960   2
  -1   4  16 13.2294 0.71167   1
  12   4   4 29.2617 1.48764  -2
   0   4  16 29.2617 1.48764   1
   1   4  16 22.7709 1.01396   1
   1   4  16 15.9401 0.69317   2
  -2   0  17 0.18830 0.40035   2
   0   0  17 0.55513 0.50438   2
  -2   1  17 64.5451 2.54199   2
  -2   1  17 101.386 5.00407   1
   0   1  17 5.78771 0.63179   2
   0   1  17 12.5136 1.41177   1
   0   0   0    0.00    0.00   0
;
_shelx_hkl_checksum              78426
loop_
_space_group_symop_operation_xyz
'x, y, z'
'-x+1/2, y+1/2, -z+1/2'
'-x, -y, -z'
'x-1/2, -y-1/2, z-1/2'
loop_
_atom_site_label
_atom_site_type_symbol
_atom_site_fract_x
_atom_site_fract_y
_atom_site_fract_z
_atom_site_U_iso_or_equiv
_atom_site_adp_type
_atom_site_occupancy
_atom_site_site_symmetry_order
_atom_site_calc_flag
_atom_site_refinement_flags_posn
_atom_site_refinement_flags_adp
_atom_site_refinement_flags_occupancy
Zn1 Zn 0.24331(4) 0.07756(5) 0.36832(3) 0.00978(16) Uani 1 1 d . . .
Zn2 Zn 0.24050(4) 0.39126(5) 0.31300(3) 0.01070(16) Uani 1 1 d . . .
Zn3 Zn 0.5000 0.0000 0.5000 0.01207(19) Uani 1 2 d S . P
Zn4 Zn 0.0000 0.0000 0.5000 0.01229(19) Uani 1 2 d S . P
O1 O 0.3157(2) -0.0274(3) 0.47692(18) 0.0137(6) Uani 1 1 d . . .
C1 C 0.2572(4) -0.1057(4) 0.5306(3) 0.0139(8) Uani 1 1 d . . .
H1 H 0.300(4) -0.158(4) 0.569(3) 0.004(9) Uiso 1 1 d . . .
O2 O 0.1496(2) -0.1141(3) 0.5339(2) 0.0171(6) Uani 1 1 d . . .
O3 O 0.1025(2) 0.1551(3) 0.43955(18) 0.0124(5) Uani 1 1 d . . .
C2 C 0.0706(4) 0.2786(4) 0.4488(3) 0.0157(8) Uani 1 1 d . . .
H2 H 0.003(4) 0.292(5) 0.491(3) 0.006(10) Uiso 1 1 d . . .
O4 O 0.1118(2) 0.3792(3) 0.40880(19) 0.0163(6) Uani 1 1 d . . .
O5 O 0.1919(2) 0.1994(3) 0.25419(18) 0.0120(5) Uani 1 1 d . . .
C3 C 0.1699(3) 0.1720(4) 0.1697(3) 0.0133(8) Uani 1 1 d . . .
H3 H 0.138(4) 0.249(4) 0.136(3) 0.008(11) Uiso 1 1 d . . .
O6 O 0.1833(2) 0.0606(3) 0.13111(19) 0.0155(6) Uani 1 1 d . . .
O7 O 0.3472(2) 0.2554(3) 0.39048(19) 0.0123(6) Uani 1 1 d . . .
C4 C 0.4222(4) 0.2883(4) 0.4533(3) 0.0165(8) Uani 1 1 d . . .
H4 H 0.438(5) 0.392(7) 0.460(4) 0.045(17) Uiso 1 1 d . . .
O8 O 0.4814(2) 0.2092(3) 0.5024(2) 0.0189(6) Uani 1 1 d . . .
O9 O 0.1494(2) -0.0832(3) 0.30488(18) 0.0125(5) Uani 1 1 d . . .
C5 C 0.0458(4) -0.1294(4) 0.3133(3) 0.0157(8) Uani 1 1 d . . .
H5 H 0.017(4) -0.189(5) 0.269(3) 0.008(10) Uiso 1 1 d . . .
O10 O -0.0234(2) -0.1044(3) 0.3761(2) 0.0189(6) Uani 1 1 d . . .
O11 O 0.3700(2) -0.0069(3) 0.28039(18) 0.0122(6) Uani 1 1 d . . .
C6 C 0.4814(3) -0.0149(4) 0.2878(3) 0.0136(8) Uani 1 1 d . . .
H6 H 0.525(5) -0.040(6) 0.234(4) 0.031(14) Uiso 1 1 d . . .
O12 O 0.5411(2) 0.0035(3) 0.3596(2) 0.0192(6) Uani 1 1 d . . .
C1X C -0.255(3) -0.251(5) 0.300(2) 0.137(18) Uani 0.25 1 d D U P
O1X O -0.260(2) -0.298(4) 0.3736(19) 0.124(12) Uani 0.25 1 d D U P
O2X O -0.245(2) -0.173(3) 0.2402(17) 0.109(10) Uani 0.25 1 d D U P
loop_
_atom_site_aniso_label
_atom_site_aniso_U_11
_atom_site_aniso_U_22
_atom_site_aniso_U_33
_atom_site_aniso_U_23
_atom_site_aniso_U_13
_atom_site_aniso_U_12
Zn1 0.0100(3) 0.0097(3) 0.0098(3) 0.00060(18) 0.00347(19) 0.00014(18)
Zn2 0.0115(3) 0.0101(3) 0.0106(3) 0.00103(18) 0.00315(19) -0.00007(18)
Zn3 0.0090(4) 0.0147(4) 0.0126(4) 0.0013(3) 0.0019(3) -0.0006(3)
Zn4 0.0104(4) 0.0134(4) 0.0133(4) 0.0016(3) 0.0058(3) -0.0014(3)
O1 0.0118(13) 0.0168(14) 0.0127(13) 0.0029(11) 0.0038(10) -0.0019(11)
C1 0.017(2) 0.013(2) 0.0118(19) 0.0031(15) 0.0012(16) -0.0002(15)
O2 0.0105(14) 0.0189(15) 0.0223(15) 0.0063(11) 0.0064(11) -0.0013(11)
O3 0.0128(12) 0.0091(14) 0.0158(13) 0.0015(11) 0.0073(10) 0.0012(11)
C2 0.0116(19) 0.023(2) 0.0124(19) 0.0006(17) 0.0034(16) 0.0003(16)
O4 0.0178(14) 0.0133(15) 0.0182(14) 0.0023(11) 0.0076(11) 0.0002(11)
O5 0.0151(13) 0.0092(14) 0.0119(13) -0.0003(10) 0.0023(10) -0.0010(11)
C3 0.0149(18) 0.014(2) 0.0105(18) 0.0013(15) -0.0011(14) 0.0024(15)
O6 0.0194(14) 0.0126(14) 0.0144(13) -0.0031(11) -0.0010(11) 0.0014(11)
O7 0.0104(14) 0.0155(15) 0.0112(14) 0.0013(10) 0.0003(11) 0.0007(9)
C4 0.0155(19) 0.014(2) 0.020(2) -0.0013(17) 0.0012(16) -0.0030(16)
O8 0.0174(14) 0.0174(15) 0.0216(15) 0.0006(12) -0.0034(12) 0.0012(12)
O9 0.0116(13) 0.0124(14) 0.0137(13) -0.0014(10) 0.0042(10) -0.0017(10)
C5 0.016(2) 0.017(2) 0.015(2) -0.0033(16) 0.0040(16) -0.0056(16)
O10 0.0150(14) 0.0242(16) 0.0178(15) -0.0021(12) 0.0081(12) -0.0058(11)
O11 0.0112(13) 0.0114(14) 0.0144(13) -0.0025(10) 0.0047(10) 0.0002(10)
C6 0.0133(19) 0.018(2) 0.0100(19) 0.0005(15) 0.0031(15) -0.0007(15)
O12 0.0134(14) 0.0303(18) 0.0140(15) 0.0017(12) 0.0016(11) 0.0002(11)
C1X 0.036(18) 0.26(4) 0.12(2) 0.08(3) 0.020(17) 0.02(2)
O1X 0.071(17) 0.20(3) 0.100(18) 0.05(2) 0.024(14) 0.01(2)
O2X 0.056(13) 0.20(3) 0.074(14) 0.025(16) 0.000(11) -0.007(16)
loop_
_atom_type_symbol
_atom_type_description
_atom_type_scat_dispersion_real
_atom_type_scat_dispersion_imag
_atom_type_scat_source
C C 0.0181 0.0091 'International Tables Vol C Tables 4.2.6.8 and 6.1.1.4'
H H 0.0000 0.0000 'International Tables Vol C Tables 4.2.6.8 and 6.1.1.4'
O O 0.0492 0.0322 'International Tables Vol C Tables 4.2.6.8 and 6.1.1.4'
Zn Zn -1.5491 0.6778 'International Tables Vol C Tables 4.2.6.8 and 6.1.1.4'
loop_
_geom_angle_atom_site_label_1
_geom_angle_atom_site_label_2
_geom_angle_atom_site_label_3
_geom_angle
_geom_angle_site_symmetry_1
_geom_angle_site_symmetry_3
O1 Zn1 O3 96.05(10) . .
O1 Zn1 O9 98.42(11) . .
O3 Zn1 O9 96.05(10) . .
O1 Zn1 O11 89.84(11) . .
O3 Zn1 O11 172.00(11) . .
O9 Zn1 O11 77.68(10) . .
O1 Zn1 O5 171.92(10) . .
O3 Zn1 O5 88.68(10) . .
O9 Zn1 O5 87.55(10) . .
O11 Zn1 O5 86.11(10) . .
O1 Zn1 O7 95.07(11) . .
O3 Zn1 O7 93.04(11) . .
O9 Zn1 O7 162.82(11) . .
O11 Zn1 O7 91.82(10) . .
O5 Zn1 O7 78.10(10) . .
O6 Zn2 O4 94.71(11) 2 .
O6 Zn2 O11 96.19(10) 2 2
O4 Zn2 O11 92.24(11) . 2
O6 Zn2 O7 94.26(11) 2 .
O4 Zn2 O7 90.75(11) . .
O11 Zn2 O7 168.86(10) 2 .
O6 Zn2 O5 169.75(11) 2 .
O4 Zn2 O5 92.10(11) . .
O11 Zn2 O5 91.19(10) 2 .
O7 Zn2 O5 77.97(10) . .
O6 Zn2 O9 88.29(11) 2 2
O4 Zn2 O9 169.44(11) . 2
O11 Zn2 O9 77.36(10) 2 2
O7 Zn2 O9 99.14(11) . 2
O5 Zn2 O9 86.39(10) . 2
O8 Zn3 O8 180.0 . 3_656
O8 Zn3 O12 88.59(11) . 3_656
O8 Zn3 O12 91.42(11) 3_656 3_656
O8 Zn3 O12 91.41(11) . .
O8 Zn3 O12 88.58(11) 3_656 .
O12 Zn3 O12 180.0 3_656 .
O8 Zn3 O1 91.62(11) . .
O8 Zn3 O1 88.38(11) 3_656 .
O12 Zn3 O1 84.87(10) 3_656 .
O12 Zn3 O1 95.13(10) . .
O8 Zn3 O1 88.38(11) . 3_656
O8 Zn3 O1 91.62(11) 3_656 3_656
O12 Zn3 O1 95.13(10) 3_656 3_656
O12 Zn3 O1 84.87(10) . 3_656
O1 Zn3 O1 180.0 . 3_656
O10 Zn4 O10 180.0 3_556 .
O10 Zn4 O2 91.39(12) 3_556 3_556
O10 Zn4 O2 88.61(12) . 3_556
O10 Zn4 O2 88.61(12) 3_556 .
O10 Zn4 O2 91.39(12) . .
O2 Zn4 O2 180.0 3_556 .
O10 Zn4 O3 86.52(10) 3_556 .
O10 Zn4 O3 93.48(10) . .
O2 Zn4 O3 88.08(10) 3_556 .
O2 Zn4 O3 91.92(10) . .
O10 Zn4 O3 93.48(10) 3_556 3_556
O10 Zn4 O3 86.52(10) . 3_556
O2 Zn4 O3 91.92(10) 3_556 3_556
O2 Zn4 O3 88.08(10) . 3_556
O3 Zn4 O3 180.0 . 3_556
C1 O1 Zn1 124.3(3) . .
C1 O1 Zn3 119.9(2) . .
Zn1 O1 Zn3 115.74(12) . .
O2 C1 O1 126.2(4) . .
O2 C1 H1 118(3) . .
O1 C1 H1 116(3) . .
C1 O2 Zn4 139.6(3) . .
C2 O3 Zn1 128.9(2) . .
C2 O3 Zn4 118.9(2) . .
Zn1 O3 Zn4 112.16(12) . .
O4 C2 O3 126.8(4) . .
O4 C2 H2 119(3) . .
O3 C2 H2 114(3) . .
C2 O4 Zn2 130.2(3) . .
C3 O5 Zn1 132.5(3) . .
C3 O5 Zn2 127.8(2) . .
Zn1 O5 Zn2 97.22(11) . .
O6 C3 O5 126.6(4) . .
O6 C3 H3 121(3) . .
O5 C3 H3 113(3) . .
C3 O6 Zn2 126.8(3) . 2_545
C4 O7 Zn2 125.8(3) . .
C4 O7 Zn1 132.5(3) . .
Zn2 O7 Zn1 97.57(12) . .
O8 C4 O7 126.4(4) . .
O8 C4 H4 118(3) . .
O7 C4 H4 115(3) . .
C4 O8 Zn3 132.0(3) . .
C5 O9 Zn1 133.4(3) . .
C5 O9 Zn2 126.2(3) . 2_545
Zn1 O9 Zn2 97.82(10) . 2_545
O10 C5 O9 127.2(4) . .
O10 C5 H5 114(3) . .
O9 C5 H5 119(3) . .
C5 O10 Zn4 131.3(3) . .
C6 O11 Zn2 127.6(2) . 2_545
C6 O11 Zn1 131.6(3) . .
Zn2 O11 Zn1 99.92(11) 2_545 .
O12 C6 O11 125.9(4) . .
O12 C6 H6 116(3) . .
O11 C6 H6 118(3) . .
C6 O12 Zn3 132.9(3) . .
O1X C1X O2X 163(6) . .
loop_
_geom_bond_atom_site_label_1
_geom_bond_atom_site_label_2
_geom_bond_distance
_geom_bond_site_symmetry_2
Zn1 O1 2.034(3) .
Zn1 O3 2.063(3) .
Zn1 O9 2.102(3) .
Zn1 O11 2.108(3) .
Zn1 O5 2.108(3) .
Zn1 O7 2.126(3) .
Zn2 O6 2.033(3) 2
Zn2 O4 2.036(3) .
Zn2 O11 2.076(3) 2
Zn2 O7 2.105(3) .
Zn2 O5 2.134(3) .
Zn2 O9 2.147(3) 2
Zn3 O8 2.066(3) .
Zn3 O8 2.066(3) 3_656
Zn3 O12 2.090(3) 3_656
Zn3 O12 2.090(3) .
Zn3 O1 2.124(3) .
Zn3 O1 2.124(3) 3_656
Zn4 O10 2.074(3) 3_556
Zn4 O10 2.074(3) .
Zn4 O2 2.080(3) 3_556
Zn4 O2 2.080(3) .
Zn4 O3 2.116(3) .
Zn4 O3 2.116(3) 3_556
O1 C1 1.286(5) .
C1 O2 1.224(5) .
C1 H1 0.89(5) .
O3 C2 1.273(5) .
C2 O4 1.241(5) .
C2 H2 1.00(5) .
O5 C3 1.269(5) .
C3 O6 1.238(5) .
C3 H3 0.97(5) .
O6 Zn2 2.033(3) 2_545
O7 C4 1.271(5) .
C4 O8 1.238(5) .
C4 H4 1.03(6) .
O9 C5 1.267(5) .
O9 Zn2 2.147(3) 2_545
C5 O10 1.236(5) .
C5 H5 0.92(5) .
O11 C6 1.266(5) .
O11 Zn2 2.076(3) 2_545
C6 O12 1.239(5) .
C6 H6 0.96(6) .
C1X O1X 1.161(7) .
C1X O2X 1.161(7) .
loop_
_geom_hbond_atom_site_label_D
_geom_hbond_atom_site_label_H
_geom_hbond_atom_site_label_A
_geom_hbond_distance_DH
_geom_hbond_distance_HA
_geom_hbond_distance_DA
_geom_hbond_angle_DHA
_geom_hbond_site_symmetry_A
C3 H3 O8 0.97(5) 2.62(5) 3.395(5) 137(3) 4_565
C4 H4 O6 1.03(6) 2.51(6) 3.162(5) 121(4) 2
C6 H6 O4 0.96(6) 2.67(5) 3.181(5) 114(4) 2_545
loop_
_geom_torsion_atom_site_label_1
_geom_torsion_atom_site_label_2
_geom_torsion_atom_site_label_3
_geom_torsion_atom_site_label_4
_geom_torsion
_geom_torsion_site_symmetry_1
_geom_torsion_site_symmetry_4
Zn1 O1 C1 O2 -11.3(6) . .
Zn3 O1 C1 O2 168.1(3) . .
O1 C1 O2 Zn4 -21.9(7) . .
Zn1 O3 C2 O4 7.7(6) . .
Zn4 O3 C2 O4 -170.5(3) . .
O3 C2 O4 Zn2 1.2(6) . .
Zn1 O5 C3 O6 -6.2(6) . .
Zn2 O5 C3 O6 152.1(3) . .
O5 C3 O6 Zn2 -6.5(6) . 2_545
Zn2 O7 C4 O8 176.3(3) . .
Zn1 O7 C4 O8 24.6(6) . .
O7 C4 O8 Zn3 6.4(7) . .
Zn1 O9 C5 O10 -14.2(7) . .
Zn2 O9 C5 O10 -171.9(3) 2_545 .
O9 C5 O10 Zn4 -8.2(7) . .
Zn2 O11 C6 O12 -151.9(3) 2_545 .
Zn1 O11 C6 O12 15.1(6) . .
O11 C6 O12 Zn3 19.8(6) . .
