#------------------------------------------------------------------------------
#$Date: 2019-11-10 00:58:42 +0200 (Sun, 10 Nov 2019) $
#$Revision: 225480 $
#$URL: file:///home/coder/svn-repositories/cod/cif/4/51/53/4515317.cif $
#------------------------------------------------------------------------------
#
# This file is available in the Crystallography Open Database (COD),
# http://www.crystallography.net/
#
# All data on this site have been placed in the public domain by the
# contributors.
#
data_4515317
loop_
_publ_author_name
'Zhang, Yong-Zheng'
'He, Tao'
'Kong, Xiang-Jing'
'Lv, Xiu-Liang'
'Wu, Xue-Qian'
'Li, Jian-Rong'
_publ_section_title
;
 Tuning Water Sorption in Highly Stable Zr(IV)-Metal-Organic Frameworks
 through Local Functionalization of Metal Clusters.
;
_journal_issue                   33
_journal_name_full               'ACS applied materials &amp; interfaces'
_journal_page_first              27868
_journal_page_last               27874
_journal_paper_doi               10.1021/acsami.8b09333
_journal_volume                  10
_journal_year                    2018
_chemical_formula_moiety         '0.13(C768 H480 O280 Zr48)'
_chemical_formula_sum            'C96 H60 O35 Zr6'
_chemical_formula_weight         2320.76
_space_group_crystal_system      cubic
_space_group_IT_number           212
_space_group_name_Hall           'P 4acd 2ab 3'
_space_group_name_H-M_alt        'P 43 3 2'
_atom_sites_solution_hydrogens   mixed
_atom_sites_solution_primary     direct
_audit_creation_date             2017-12-07
_audit_creation_method
;
Olex2 1.2-alpha
(compiled 2017.08.10 svn.r3458 for OlexSys, GUI svn.r5381)
;
_cell_angle_alpha                90
_cell_angle_beta                 90
_cell_angle_gamma                90
_cell_formula_units_Z            8
_cell_length_a                   32.9225(9)
_cell_length_b                   32.9225(9)
_cell_length_c                   32.9225(9)
_cell_measurement_reflns_used    1291
_cell_measurement_temperature    173.00(10)
_cell_measurement_theta_max      71.9430
_cell_measurement_theta_min      3.7710
_cell_volume                     35684.4(17)
_computing_cell_refinement       'CrysAlisPro 1.171.38.43f (Rigaku OD, 2015)'
_computing_data_collection       'CrysAlisPro 1.171.38.43f (Rigaku OD, 2015)'
_computing_data_reduction        'CrysAlisPro 1.171.38.43f (Rigaku OD, 2015)'
_computing_molecular_graphics    'Olex2 (Dolomanov et al., 2009)'
_computing_publication_material  'Olex2 (Dolomanov et al., 2009)'
_computing_structure_refinement  'ShelXL (Sheldrick, 2015)'
_computing_structure_solution    'ShelXS (Sheldrick, 2008)'
_diffrn_ambient_environment      N~2~
_diffrn_ambient_temperature      173.00(10)
_diffrn_detector                 'CCD plate'
_diffrn_detector_area_resol_mean 10.3376
_diffrn_detector_type            AtlasS2
_diffrn_measured_fraction_theta_full 0.945
_diffrn_measured_fraction_theta_max 0.999
_diffrn_measurement_details
;
List of Runs (angles in degrees, time in seconds):

  # Type    Start    End  Width  t~exp~   \w     \q     \k     \f   Frames
--------------------------------------------------------------------------
  1  \w   -116.00 -61.00   1.00   30.00    --  -41.94 -38.00  90.00   55
  2  \w     94.00 124.00   1.00   75.00    --  105.88 125.00-180.00   30
  3  \w    125.00 169.00   1.00   75.00    --  105.88 125.00 -90.00   44
;
_diffrn_measurement_device       'four-circle diffractometer'
_diffrn_measurement_device_type  'SuperNova, Dual, Cu at zero, AtlasS2'
_diffrn_measurement_method       '\w scans'
_diffrn_orient_matrix_type
'CrysAlisPro convention (1999,Acta A55,543-557)'
_diffrn_orient_matrix_UB_11      -0.0084551000
_diffrn_orient_matrix_UB_12      -0.0415723000
_diffrn_orient_matrix_UB_13      -0.0197861000
_diffrn_orient_matrix_UB_21      -0.0104138000
_diffrn_orient_matrix_UB_22      0.0213090000
_diffrn_orient_matrix_UB_23      -0.0403453000
_diffrn_orient_matrix_UB_31      0.0448157000
_diffrn_orient_matrix_UB_32      -0.0029156000
_diffrn_orient_matrix_UB_33      -0.0131010000
_diffrn_radiation_monochromator  mirror
_diffrn_radiation_probe          x-ray
_diffrn_radiation_type           CuK\a
_diffrn_radiation_wavelength     1.54184
_diffrn_reflns_av_R_equivalents  0.1726
_diffrn_reflns_av_unetI/netI     0.2337
_diffrn_reflns_Laue_measured_fraction_full 0.945
_diffrn_reflns_Laue_measured_fraction_max 0.999
_diffrn_reflns_limit_h_max       34
_diffrn_reflns_limit_h_min       -20
_diffrn_reflns_limit_k_max       36
_diffrn_reflns_limit_k_min       -27
_diffrn_reflns_limit_l_max       28
_diffrn_reflns_limit_l_min       -38
_diffrn_reflns_number            25567
_diffrn_reflns_point_group_measured_fraction_full 0.943
_diffrn_reflns_point_group_measured_fraction_max 1.000
_diffrn_reflns_theta_full        67.684
_diffrn_reflns_theta_max         65.040
_diffrn_reflns_theta_min         3.798
_diffrn_source                   'micro-focus sealed X-ray tube'
_diffrn_source_type              'SuperNova (Cu) X-ray Source'
_exptl_absorpt_coefficient_mu    3.163
_exptl_absorpt_correction_T_max  1.00000
_exptl_absorpt_correction_T_min  0.69291
_exptl_absorpt_correction_type   multi-scan
_exptl_absorpt_process_details
;
CrysAlisPro 1.171.38.43f (Rigaku Oxford Diffraction, 2015)
Empirical absorption correction using spherical harmonics,
 implemented in SCALE3 ABSPACK scaling algorithm.
;
_exptl_crystal_colour            colourless
_exptl_crystal_colour_primary    colourless
_exptl_crystal_density_diffrn    0.864
_exptl_crystal_description       block
_exptl_crystal_F_000             9248
_exptl_crystal_size_max          0.06
_exptl_crystal_size_mid          0.06
_exptl_crystal_size_min          0.04
_refine_diff_density_max         2.021
_refine_diff_density_min         -1.654
_refine_diff_density_rms         0.119
_refine_ls_abs_structure_details
;
 Flack x determined using 1384 quotients [(I+)-(I-)]/[(I+)+(I-)]
 (Parsons, Flack and Wagner, Acta Cryst. B69 (2013) 249-259).
;
_refine_ls_abs_structure_Flack   0.05(2)
_refine_ls_extinction_method     none
_refine_ls_goodness_of_fit_ref   0.893
_refine_ls_hydrogen_treatment    constr
_refine_ls_matrix_type           full
_refine_ls_number_parameters     390
_refine_ls_number_reflns         10166
_refine_ls_number_restraints     260
_refine_ls_restrained_S_all      0.887
_refine_ls_R_factor_all          0.1419
_refine_ls_R_factor_gt           0.0855
_refine_ls_shift/su_max          0.005
_refine_ls_shift/su_mean         0.001
_refine_ls_structure_factor_coef Fsqd
_refine_ls_weighting_details
'w=1/[\s^2^(Fo^2^)+(0.0730P)^2^] where P=(Fo^2^+2Fc^2^)/3'
_refine_ls_weighting_scheme      calc
_refine_ls_wR_factor_gt          0.1891
_refine_ls_wR_factor_ref         0.2257
_reflns_Friedel_coverage         0.759
_reflns_Friedel_fraction_full    0.940
_reflns_Friedel_fraction_max     1.000
_reflns_number_gt                5248
_reflns_number_total             10166
_reflns_threshold_expression     'I > 2\s(I)'
_iucr_refine_instructions_details
;
TITL YZ17021504 in P4332 #212
REM reset to P4332 #212
CELL 1.54184 32.922523 32.922523 32.922523 90 90 90
ZERR 8 0.000866 0.000866 0.000866 0 0 0
LATT -1
SYMM 0.75-Y,0.25+X,0.75+Z
SYMM 0.5-X,-Y,0.5+Z
SYMM 0.75+Y,0.75-X,0.25+Z
SYMM 0.75+X,0.75-Z,0.25+Y
SYMM 0.5+X,0.5-Y,-Z
SYMM 0.25+X,0.75+Z,0.75-Y
SYMM 0.25+Z,0.75+Y,0.75-X
SYMM -X,0.5+Y,0.5-Z
SYMM 0.75-Z,0.25+Y,0.75+X
SYMM +Z,+X,+Y
SYMM +Y,+Z,+X
SYMM 0.5-Y,-Z,0.5+X
SYMM 0.5+Z,0.5-X,-Y
SYMM -Y,0.5+Z,0.5-X
SYMM 0.5-Z,-X,0.5+Y
SYMM -Z,0.5+X,0.5-Y
SYMM 0.5+Y,0.5-Z,-X
SYMM 0.25+Y,0.75+X,0.75-Z
SYMM 0.25-Y,0.25-X,0.25-Z
SYMM 0.75-X,0.25+Z,0.75+Y
SYMM 0.25-X,0.25-Z,0.25-Y
SYMM 0.75+Z,0.75-Y,0.25+X
SYMM 0.25-Z,0.25-Y,0.25-X
SFAC C H O Zr
UNIT 768 480 280 48
FLAT C69 C20 C18 C51 C45
SIMU 0.005 0.002 2
ISOR 0.005 0.01 O6
EADP O7 O12
EADP O1 O4
 
L.S. 5
PLAN  1
BOND
ABIN
fmap 2
acta
REM <olex2.extras>
REM <HklSrc "%.\\YZ17021504.hkl">
REM </olex2.extras>
 
WGHT    0.073000
FVAR       0.18281
ZR1   4    0.527507    0.471097    0.442955    11.00000    0.02959    0.02835 =
         0.02607   -0.00026    0.00191    0.00146
ZR2   4    0.733144    0.318683    0.209093    11.00000    0.03412    0.02949 =
         0.03175    0.00162   -0.00168    0.00085
O3    3    0.561257    0.506333    0.397821    11.00000    0.02392    0.02449 =
         0.01992    0.00374    0.01568   -0.00560
O4    3    0.570719    0.569338    0.418786    11.00000    0.03135    0.02967 =
         0.02276    0.00299    0.00950   -0.00116
O1    3    0.343262    0.760688    0.184448    11.00000    0.03135    0.02967 =
         0.02276    0.00299    0.00950   -0.00116
O8    3    0.362204    0.725194    0.239209    11.00000    0.02895    0.03627 =
         0.04160    0.00820    0.00855   -0.00700
C8    1    0.410361    0.732832    0.190886    11.00000    0.03806    0.03597 =
         0.03727   -0.00166    0.00803    0.00348
O11   3    0.583923    0.435468    0.429605    11.00000    0.03641    0.05630 =
         0.04316   -0.00608    0.00550    0.00644
AFIX   7
H11A  2    0.588243    0.414838    0.447540    11.00000   -1.50000
H11B  2    0.606343    0.451308    0.430997    11.00000   -1.50000
AFIX   0
O7    3    0.832512    0.355091    0.254416    11.00000    0.03804    0.03084 =
         0.04893    0.00843    0.00036   -0.01400
O6    3    0.740263    0.401402    0.282200    11.00000    0.06460    0.04828 =
         0.05137   -0.00296   -0.00996    0.01086
C13   1    0.486132    0.718205    0.160278    11.00000    0.04215    0.03611 =
         0.04124    0.00420    0.00835    0.00702
O5    3    0.704227    0.374052    0.229289    11.00000    0.06077    0.03937 =
         0.03970   -0.00719   -0.00593    0.01394
C16   1    0.694207    0.442843    0.240824    11.00000    0.05899    0.04425 =
         0.04659   -0.00024   -0.00990    0.00893
C18   1    0.583813    0.653158    0.143329    11.00000    0.04204    0.03993 =
         0.03965    0.00726    0.00803    0.01424
O12   3    0.781311    0.371476    0.207335    11.00000    0.03804    0.03084 =
         0.04893    0.00843    0.00036   -0.01400
C20   1    0.548065    0.671392    0.162949    11.00000    0.04146    0.03977 =
         0.04107    0.00741    0.00603    0.01043
AFIX  43
H20   2    0.538786    0.661096    0.187563    11.00000   -1.20000
AFIX   0
C21   1    0.480143    0.717800    0.203051    11.00000    0.04166    0.03622 =
         0.04118   -0.00113    0.00951    0.00568
AFIX  43
H21   2    0.501306    0.711992    0.220837    11.00000   -1.20000
AFIX   0
C22   1    0.659180    0.516465    0.217535    11.00000    0.05121    0.04245 =
         0.04294    0.00159   -0.00159    0.01221
C27   1    0.589774    0.592455    0.339762    11.00000    0.04223    0.04070 =
         0.03849    0.00694    0.01190   -0.00263
AFIX  43
H27   2    0.587450    0.613554    0.358400    11.00000   -1.20000
AFIX   0
C28   1    0.579828    0.520738    0.319798    11.00000    0.03508    0.03729 =
         0.03424    0.00505    0.00446   -0.00292
AFIX  43
H28   2    0.573047    0.494102    0.326318    11.00000   -1.20000
AFIX   0
C29   1    0.682754    0.514407    0.252340    11.00000    0.05267    0.03908 =
         0.04450   -0.00215   -0.00476    0.01095
AFIX  43
H29   2    0.686802    0.537412    0.268225    11.00000   -1.20000
AFIX   0
C31   1    0.369606    0.740156    0.204600    11.00000    0.03441    0.03338 =
         0.03587    0.00200    0.00774   -0.00190
C32   1    0.589270    0.531269    0.279991    11.00000    0.04145    0.04097 =
         0.03647    0.00567    0.00600   -0.00177
AFIX  43
H32   2    0.585797    0.511359    0.260255    11.00000   -1.20000
AFIX   0
C33   1    0.570794    0.544944    0.390927    11.00000    0.02410    0.02836 =
         0.02156    0.00391    0.01589   -0.00333
C34   1    0.711427    0.404493    0.252638    11.00000    0.06304    0.04713 =
         0.04878   -0.00322   -0.00926    0.01112
AFIX  66
C35   1    0.653934    0.568670    0.163403    11.00000    0.05020    0.04916 =
         0.03878    0.00804    0.01118    0.01326
AFIX  43
H35   2    0.674135    0.554680    0.149469    11.00000   -1.20000
AFIX  65
C45   1    0.634467    0.601380    0.145137    11.00000    0.04827    0.04602 =
         0.03957    0.00847    0.01029    0.01237
C51   1    0.604274    0.622289    0.165963    11.00000    0.04607    0.04244 =
         0.03905    0.00963    0.00870    0.01406
C47   1    0.593548    0.610489    0.205056    11.00000    0.04682    0.04036 =
         0.03894    0.01092    0.00930    0.01109
AFIX  43
H47   2    0.573347    0.624479    0.218990    11.00000   -1.20000
AFIX  65
C39   1    0.613014    0.577779    0.223323    11.00000    0.04747    0.04315 =
         0.04050    0.00895    0.00719    0.00905
C42   1    0.643207    0.556870    0.202497    11.00000    0.05113    0.04539 =
         0.03949    0.00556    0.00675    0.01115
AFIX   0
C36   1    0.602695    0.566929    0.267733    11.00000    0.04448    0.04284 =
         0.03862    0.00788    0.00725    0.00284
C37   1    0.417172    0.734678    0.147803    11.00000    0.03734    0.03810 =
         0.04300    0.00182    0.00953    0.00581
AFIX  43
H37   2    0.396383    0.742295    0.130260    11.00000   -1.20000
AFIX   0
C40   1    0.454757    0.725033    0.133111    11.00000    0.03854    0.03845 =
         0.04078    0.00411    0.01227    0.00568
AFIX  43
H40   2    0.459206    0.723081    0.105284    11.00000   -1.20000
AFIX   0
C44   1    0.442942    0.726091    0.216532    11.00000    0.04057    0.03523 =
         0.03975   -0.00389    0.00922    0.00509
AFIX  43
H44   2    0.438669    0.727409    0.244424    11.00000   -1.20000
AFIX   0
C49   1    0.602688    0.599341    0.298652    11.00000    0.04895    0.04224 =
         0.04175    0.00831    0.00779   -0.00079
AFIX  43
H49   2    0.611362    0.625190    0.291266    11.00000   -1.20000
AFIX   0
C52   1    0.813662    0.376517    0.230118    11.00000    0.04685    0.04038 =
         0.05636    0.00648   -0.00025   -0.01375
C55   1    0.700631    0.476855    0.263466    11.00000    0.05944    0.04280 =
         0.04785    0.00017   -0.00721    0.00896
AFIX  43
H55   2    0.716934    0.475430    0.286490    11.00000   -1.20000
AFIX   0
C62   1    0.580672    0.551235    0.350440    11.00000    0.03344    0.03581 =
         0.03134    0.00648    0.00976   -0.00314
C64   1    0.652464    0.482536    0.194108    11.00000    0.05565    0.04607 =
         0.04373    0.00088   -0.00569    0.01351
AFIX  43
H64   2    0.637435    0.485085    0.170326    11.00000   -1.20000
AFIX   0
C69   1    0.527627    0.704616    0.144550    11.00000    0.04306    0.03795 =
         0.04163    0.00574    0.00642    0.00757
O10   3    0.574681    0.507952    0.476120    11.00000    0.01848    0.01937 =
         0.01765   -0.00162    0.00429    0.00155
O2    3    0.702852    0.277386    0.245000    11.00000    0.02193    0.03129 =
         0.01225    0.00601    0.00359   -0.00095
O13   3    0.462886    0.462886    0.462886    10.33333    0.01792    0.01792 =
         0.01792   -0.00160   -0.00160   -0.00160
O9    3    0.788198    0.288198    0.211802    10.33333    0.06504    0.06504 =
         0.06504   -0.01249   -0.01249    0.01249
C1AA  1    0.828958    0.419624    0.224114    11.00000    0.04881    0.04183 =
         0.05766    0.00704   -0.00055   -0.01314
AFIX 137
H1AA  2    0.832243    0.432477    0.250081    11.00000   -1.50000
H1AB  2    0.809689    0.434647    0.208200    11.00000   -1.50000
H1AC  2    0.854612    0.418994    0.210266    11.00000   -1.50000
AFIX   0
C2    1    0.668723    0.441295    0.205788    11.00000    0.05833    0.04714 =
         0.04460   -0.00013   -0.01065    0.00887
AFIX  43
H2    2    0.662797    0.417525    0.191723    11.00000   -1.20000
AFIX   0
HKLF 4
 
REM  YZ17021504 in P4332 #212
REM R1 =  0.0855 for    5248 Fo > 4sig(Fo)  and  0.1419 for all   10166 data
REM    390 parameters refined using    260 restraints
 
END  
     
WGHT      0.0677      0.0000 

REM Highest difference peak  2.021,  deepest hole -1.654,  1-sigma level  0.119
Q1    1   0.6968  0.2944  0.2122  11.00000  0.05    0.76

  REM The information below was added by Olex2.
  REM
  REM R1 = 0.0855 for 5248 Fo > 4sig(Fo) and 0.1419 for all 25595 data
  REM n/a parameters refined using n/a restraints
  REM Highest difference peak 2.02, deepest hole -1.65
  REM Mean Shift 0.001, Max Shift -0.005.

  REM +++ Tabular Listing of Refinement Information +++
  REM R1_all = 0.1419
  REM R1_gt = 0.0855
  REM wR_ref = 0.2257
  REM GOOF = 0.893
  REM Shift_max = -0.005
  REM Shift_mean = 0.001
  REM Reflections_all = 25595
  REM Reflections_gt = 5248
  REM Parameters = n/a
  REM Hole = -1.65
  REM Peak = 2.02
  REM Flack = 0.05(2)

  
;
_cod_data_source_file            am8b09333_si_002.cif
_cod_data_source_block           BUT-46A
_cod_original_cell_volume        35684(3)
_cod_database_code               4515317
_shelxl_version_number           2014-1
_chemical_oxdiff_formula         'C H O Zr'
_shelx_space_group_comment
;
The symmetry employed for this shelxl refinement is uniquely defined
by the following loop, which should always be used as a source of
symmetry information in preference to the above space-group names.
They are only intended as comments.
;
_reflns_odcompleteness_completeness 99.90
_reflns_odcompleteness_iscentric 1
_reflns_odcompleteness_theta     64.99
_olex2_refinement_description
;
1. Fixed Uiso
 At 1.2 times of:
  All C(H) groups
 At 1.5 times of:
  All C(H,H,H) groups, All O(H,H) groups
2. Restrained planarity
 C69, C20, C18, C51, C45
 with sigma of 0.1
3. Uiso/Uaniso restraints and constraints
All non-hydrogen atoms have similar U: within 2A with sigma of 0.005 and sigma
for terminal atoms of 0.002
Uanis(O6) \\sim Ueq: with sigma of 0.005 and sigma for terminal atoms of 0.01
Uanis(O7) = Uanis(O12)
Uanis(O1) = Uanis(O4)
4.a Rotating group:
 O11(H11A,H11B)
4.b Aromatic/amide H refined with riding coordinates:
 C20(H20), C21(H21), C27(H27), C28(H28), C29(H29), C32(H32), C35(H35),
 C47(H47), C37(H37), C40(H40), C44(H44), C49(H49), C55(H55), C64(H64), C2(H2)
4.c Fitted hexagon refined as free rotating group:
 C35(C45,C51,C47,C39,C42)
4.d Idealised Me refined as rotating group:
 C1AA(H1AA,H1AB,H1AC)
;
_shelx_fab_file
;
-21 -23 -22 -5.5071 1.2202
-20 -25 -21 0.4766 19.1844
-20 -24 -22 0.1153 -19.7525
-20 -24 -21 -19.4759 -1.6685
-20 -23 -22 -6.6155 9.1949
-20 -23 -21 -8.9760 4.2534
-20 -22 -21 -2.7698 -2.7253
-19 -27 -20 -4.1696 29.3749
-19 -26 -21 -3.2951 -43.4062
-19 -26 -20 -6.4587 8.1558
-19 -25 -22 36.9514 -23.1076
-19 -25 -21 -5.3014 19.3146
-19 -25 -20 12.3046 11.0664
-19 -24 -23 -8.0369 -33.6796
-19 -24 -22 -7.9687 5.4052
-19 -24 -21 -51.4540 -5.0984
-19 -24 -20 16.0078 1.4331
-19 -23 -22 -23.6782 1.1521
-19 -23 -21 16.8877 30.3031
-19 -23 -20 7.4231 -9.5263
-19 -22 -21 4.7274 47.4399
-19 -22 -20 -12.1486 -0.7111
-19 -21 -20 -47.8575 -20.8846
-18 -28 -19 0.2956 -2.3569
-18 -27 -21 20.1709 19.0994
-18 -27 -20 -14.2058 -13.1963
-18 -27 -19 -5.4342 -20.7465
-18 -26 -22 -21.6494 23.2512
-18 -26 -21 1.5104 -9.9487
-18 -26 -20 47.3048 8.0843
-18 -26 -19 -13.8796 -14.2841
-18 -25 -23 10.0513 42.1444
-18 -25 -22 0.1717 1.8626
-18 -25 -21 13.2301 -12.7281
-18 -25 -20 -33.2664 -52.3820
-18 -25 -19 -14.0957 -14.4418
-18 -24 -23 -0.9457 5.7281
-18 -24 -22 10.9117 12.6490
-18 -24 -21 5.7770 -8.2925
-18 -24 -20 -19.1469 21.8188
-18 -24 -19 16.1660 10.0079
-18 -23 -22 -0.7081 -14.2970
-18 -23 -21 -8.7054 -27.2083
-18 -23 -20 -17.2527 8.8865
-18 -23 -19 -14.7543 2.1593
-18 -22 -21 24.8486 -5.7884
-18 -22 -20 0.9903 -42.0226
-18 -22 -19 -18.4940 -32.8652
-18 -21 -20 -24.0620 -17.2506
-18 -21 -19 11.5614 -56.1440
-18 -20 -19 38.0796 -7.9842
-17 -29 -19 -12.6659 -3.9079
-17 -29 -18 14.9045 -9.1263
-17 -28 -20 -5.4646 -32.7708
-17 -28 -19 -5.9654 27.1785
-17 -28 -18 -14.2446 6.6427
-17 -27 -21 8.2283 -4.3159
-17 -27 -20 2.3892 16.2938
-17 -27 -19 -13.4660 14.6173
-17 -27 -18 20.3063 -1.7997
-17 -26 -23 -6.3354 -27.3028
-17 -26 -22 -5.5692 14.5283
-17 -26 -21 -31.2006 6.4100
-17 -26 -20 -14.1325 -6.9956
-17 -26 -19 -11.3305 -36.1175
-17 -26 -18 5.2501 24.5723
-17 -25 -24 -7.8884 -42.8904
-17 -25 -23 -2.9191 7.6464
-17 -25 -22 -30.0940 -4.3828
-17 -25 -21 2.5340 32.7209
-17 -25 -20 0.8561 -8.8156
-17 -25 -19 32.6805 -12.5610
-17 -25 -18 -37.5548 -29.7310
-17 -24 -23 -19.2926 -10.9936
-17 -24 -22 -19.7215 -0.9230
-17 -24 -21 7.1448 -18.2061
-17 -24 -20 -11.9478 -9.2861
-17 -24 -19 -0.2001 -7.7073
-17 -24 -18 -12.7405 -14.7534
-17 -23 -22 6.5539 -15.6011
-17 -23 -21 -2.7524 5.4243
-17 -23 -20 -7.9737 6.3917
-17 -23 -19 -9.2034 2.6321
-17 -23 -18 18.0911 12.9535
-17 -22 -21 -7.1958 -20.7729
-17 -22 -20 -27.4843 -3.3572
-17 -22 -19 14.3884 -3.2381
-17 -22 -18 -12.2882 -18.4544
-17 -21 -20 1.9738 -8.7262
-17 -21 -19 23.7885 32.2571
-17 -21 -18 -6.2908 21.3263
-17 -20 -19 20.7548 -17.4416
-17 -20 -18 -5.3899 26.4757
-17 -19 -18 -11.3965 1.2176
-16 -30 -18 0.9392 -3.9659
-16 -30 -17 -26.2556 -9.6100
-16 -29 -20 15.9290 26.6879
-16 -29 -19 5.1254 -0.7663
-16 -29 -18 0.1436 25.4865
-16 -29 -17 14.2551 -7.6087
-16 -28 -21 -3.1660 11.3767
-16 -28 -20 28.3670 13.5280
-16 -28 -19 1.9927 -7.4289
-16 -28 -18 14.9497 -21.7803
-16 -28 -17 -13.0173 -18.9306
-16 -27 -22 -9.5671 4.6337
-16 -27 -21 1.8931 8.5298
-16 -27 -20 -21.8991 6.6054
-16 -27 -19 -16.5299 -19.2103
-16 -27 -18 15.4559 3.7479
-16 -27 -17 5.7019 -20.6388
-16 -26 -23 1.5139 3.6041
-16 -26 -22 -14.8374 0.0677
-16 -26 -21 -14.4877 -9.1139
-16 -26 -20 -25.4302 -5.3358
-16 -26 -19 -15.1045 40.5249
-16 -26 -18 -20.3562 26.5139
-16 -26 -17 20.0897 -6.4640
-16 -25 -24 34.9875 2.0342
-16 -25 -23 -34.1102 9.5371
-16 -25 -22 -32.1677 -30.3701
-16 -25 -21 -6.5799 10.6863
-16 -25 -20 11.4107 7.9454
-16 -25 -19 -17.7789 11.8761
-16 -25 -18 0.1130 -39.5003
-16 -25 -17 9.3680 20.8928
-16 -24 -23 -1.8544 -22.8600
-16 -24 -22 17.5265 -3.5752
-16 -24 -21 -5.3538 9.8559
-16 -24 -20 -18.3498 -4.2547
-16 -24 -19 16.1231 -27.8187
-16 -24 -18 16.0747 24.9968
-16 -24 -17 -10.8245 14.4873
-16 -23 -22 -6.5163 -14.4323
-16 -23 -21 -32.0310 14.6052
-16 -23 -20 43.5968 -27.5292
-16 -23 -19 24.7277 -27.3703
-16 -23 -18 21.3189 -8.1701
-16 -23 -17 -27.8274 1.3826
-16 -22 -21 -9.0787 23.2909
-16 -22 -20 15.4113 -0.5928
-16 -22 -19 30.2175 2.2493
-16 -22 -18 0.4650 2.1488
-16 -22 -17 4.9327 -3.9039
-16 -21 -20 -30.6665 4.4056
-16 -21 -19 9.2717 7.8411
-16 -21 -18 11.4826 27.0138
-16 -21 -17 -0.1215 6.1715
-16 -20 -19 3.9787 2.0025
-16 -20 -18 50.1295 -2.8956
-16 -20 -17 -21.5956 4.9984
-16 -19 -18 26.7367 -1.7560
-16 -19 -17 -7.8258 -26.7580
-16 -18 -17 -22.4280 -2.4295
-15 -31 -17 -7.2257 -21.0007
-15 -31 -16 -5.8519 -8.1006
-15 -30 -19 -16.6435 9.7457
-15 -30 -18 -4.6536 2.5815
-15 -30 -17 5.2520 -7.7577
-15 -30 -16 10.3040 -19.3598
-15 -29 -20 1.9712 14.1589
-15 -29 -19 -15.1997 -16.4012
-15 -29 -18 10.1783 -6.2704
-15 -29 -17 15.8074 -24.0481
-15 -29 -16 -18.5273 16.4323
-15 -28 -22 -21.1784 -29.0059
-15 -28 -21 4.5129 27.4929
-15 -28 -20 8.7185 -11.4745
-15 -28 -19 19.5352 6.3090
-15 -28 -18 -18.4064 -34.7474
-15 -28 -17 14.6178 -32.6507
-15 -28 -16 60.7955 -3.1126
-15 -27 -23 -1.7807 24.1926
-15 -27 -22 -8.9124 6.4825
-15 -27 -21 -10.1006 35.7191
-15 -27 -20 0.4719 -15.2600
-15 -27 -19 7.7595 -13.3812
-15 -27 -18 -25.8779 -13.2656
-15 -27 -17 23.1423 -2.2855
-15 -27 -16 3.1772 29.7793
-15 -26 -24 -16.2300 1.0150
-15 -26 -23 3.5200 7.8583
-15 -26 -22 25.3621 13.6498
-15 -26 -21 -0.6633 -16.2718
-15 -26 -20 12.8320 5.1463
-15 -26 -19 -4.7936 -3.2591
-15 -26 -18 19.9976 35.8031
-15 -26 -17 -35.5067 2.4189
-15 -26 -16 -52.6056 5.0656
-15 -25 -24 -17.6772 -23.0224
-15 -25 -23 7.5244 -6.1593
-15 -25 -22 -2.4210 -3.6701
-15 -25 -21 -7.4030 3.8445
-15 -25 -20 29.3419 -6.4027
-15 -25 -19 22.2480 -14.0328
-15 -25 -18 24.3706 23.7998
-15 -25 -17 -12.8913 35.7827
-15 -25 -16 24.4933 -35.3597
-15 -24 -23 50.5799 -3.4441
-15 -24 -22 -1.4509 27.5467
-15 -24 -21 0.3843 12.0823
-15 -24 -20 -27.5724 -25.4507
-15 -24 -19 2.4431 -4.7841
-15 -24 -18 45.1412 42.0971
-15 -24 -17 2.6263 -35.8908
-15 -24 -16 8.9527 -3.9149
-15 -23 -22 35.1877 -0.7773
-15 -23 -21 26.4334 -23.3704
-15 -23 -20 26.4700 8.8966
-15 -23 -19 -26.3439 12.3744
-15 -23 -18 -38.1159 18.0064
-15 -23 -17 -5.5687 -5.1181
-15 -23 -16 3.1496 13.0384
-15 -22 -21 -9.7367 -13.1417
-15 -22 -20 39.4371 54.5747
-15 -22 -19 -19.9525 -5.3247
-15 -22 -18 3.1777 -40.2587
-15 -22 -17 -3.6445 24.5352
-15 -22 -16 -10.0707 4.7871
-15 -21 -20 14.3153 28.1641
-15 -21 -19 -22.0790 19.9145
-15 -21 -18 45.3627 38.7141
-15 -21 -17 7.3352 -0.3949
-15 -21 -16 -12.4720 3.2738
-15 -20 -19 20.1098 19.5178
-15 -20 -18 -10.4475 5.6259
-15 -20 -17 -2.4966 16.0444
-15 -20 -16 -25.7731 -3.9715
-15 -19 -18 -5.7092 -13.4600
-15 -19 -17 -21.4620 4.6483
-15 -19 -16 -10.8589 -10.9034
-15 -18 -17 9.2973 -8.3257
-15 -18 -16 28.1457 19.5869
-15 -17 -16 -4.8008 -32.8987
-14 -32 -16 11.5972 5.3222
-14 -32 -15 -26.7067 4.4952
-14 -31 -18 4.1346 -6.4166
-14 -31 -17 15.8068 27.5968
-14 -31 -16 24.5922 -12.5604
-14 -31 -15 11.0693 -20.9124
-14 -30 -20 1.9091 10.0048
-14 -30 -19 4.3670 -14.5950
-14 -30 -18 4.1801 -0.8898
-14 -30 -17 -8.0223 18.7506
-14 -30 -16 -29.2524 -12.6471
-14 -30 -15 -3.3254 -0.7597
-14 -29 -21 16.3003 1.7115
-14 -29 -20 -27.0438 -1.5374
-14 -29 -19 -5.8632 5.8358
-14 -29 -18 5.3774 8.0830
-14 -29 -17 12.1729 -4.7269
-14 -29 -16 -2.7496 -15.3603
-14 -29 -15 41.4162 -27.8209
-14 -28 -22 8.0133 -3.2929
-14 -28 -21 6.3291 -2.0946
-14 -28 -20 0.2629 34.1992
-14 -28 -19 -2.7957 3.5194
-14 -28 -18 12.3639 -23.3313
-14 -28 -17 -18.2245 -6.0665
-14 -28 -16 -17.8941 -12.5634
-14 -28 -15 26.6214 -41.3976
-14 -27 -23 -21.2721 -7.5627
-14 -27 -22 -17.6586 20.1578
-14 -27 -21 -17.0418 5.8545
-14 -27 -20 -26.2571 -31.9118
-14 -27 -19 16.9167 -16.4011
-14 -27 -18 28.7734 7.0938
-14 -27 -17 44.1750 -9.9570
-14 -27 -16 15.7710 -6.0476
-14 -27 -15 20.1975 -34.0066
-14 -26 -25 -23.4447 -10.6516
-14 -26 -24 25.5866 -4.9397
-14 -26 -23 1.6527 -2.7102
-14 -26 -22 4.8551 -7.0953
-14 -26 -21 9.5401 7.0288
-14 -26 -20 10.2629 6.7167
-14 -26 -19 17.4899 2.0925
-14 -26 -18 -3.3665 -7.1285
-14 -26 -17 -25.8376 -4.0306
-14 -26 -16 23.2232 5.8241
-14 -26 -15 17.0226 25.1864
-14 -25 -24 -2.9310 -4.6775
-14 -25 -23 16.1343 -23.8552
-14 -25 -22 17.6342 1.4400
-14 -25 -21 -0.7020 19.7127
-14 -25 -20 1.6816 -3.7494
-14 -25 -19 31.2459 3.2122
-14 -25 -18 -8.7495 -26.0418
-14 -25 -17 4.4647 21.6954
-14 -25 -16 -13.0072 12.4201
-14 -25 -15 36.9984 14.6647
-14 -24 -23 5.6990 -24.7905
-14 -24 -22 34.0112 43.8785
-14 -24 -21 6.3309 -10.2816
-14 -24 -20 -9.9044 -4.9755
-14 -24 -19 14.0995 -4.1993
-14 -24 -18 -3.6709 21.9538
-14 -24 -17 11.2236 3.9456
-14 -24 -16 -10.0356 2.0880
-14 -24 -15 -35.7407 -6.7685
-14 -23 -22 -38.3353 -19.2167
-14 -23 -21 -7.1190 23.8140
-14 -23 -20 19.6158 26.1778
-14 -23 -19 -23.1025 34.8684
-14 -23 -18 9.9950 20.6305
-14 -23 -17 -2.6528 34.7277
-14 -23 -16 -36.2479 -10.5024
-14 -23 -15 -38.1741 -24.4612
-14 -22 -21 -15.8597 6.3007
-14 -22 -20 0.7451 8.7324
-14 -22 -19 -7.3640 -5.6202
-14 -22 -18 30.1015 2.4825
-14 -22 -17 -17.5732 37.6468
-14 -22 -16 12.3033 10.0108
-14 -22 -15 -13.0586 -54.7491
-14 -21 -20 10.0114 33.8894
-14 -21 -19 -20.7520 15.4932
-14 -21 -18 -10.9902 14.0238
-14 -21 -17 -1.0797 34.6143
-14 -21 -16 8.6754 -23.6122
-14 -21 -15 -8.0686 -34.2359
-14 -20 -19 2.6812 9.6891
-14 -20 -18 -18.8943 -41.3941
-14 -20 -17 8.6663 -11.0260
-14 -20 -16 17.0857 20.8190
-14 -20 -15 -1.6365 40.5312
-14 -19 -18 14.2469 -22.4666
-14 -19 -17 -16.3475 -20.7294
-14 -19 -16 10.9606 -5.2315
-14 -19 -15 5.4918 8.2702
-14 -18 -17 -47.0147 37.9319
-14 -18 -16 -1.7970 -31.6022
-14 -18 -15 9.0833 -17.2205
-14 -17 -16 -14.8706 19.6362
-14 -17 -15 25.7927 1.7546
-14 -16 -15 4.2649 -15.4380
-13 -33 -15 -12.5902 -11.3224
-13 -33 -14 6.8626 8.4608
-13 -32 -17 14.7995 -3.0750
-13 -32 -16 -1.7928 -1.7630
-13 -32 -15 -2.0351 16.5853
-13 -32 -14 11.8311 -19.0408
-13 -31 -19 17.4485 -7.0853
-13 -31 -18 5.7043 3.6377
-13 -31 -17 -23.1806 -14.1189
-13 -31 -16 -13.8949 4.9906
-13 -31 -15 1.0945 -13.1339
-13 -31 -14 -27.7897 -1.7424
-13 -30 -20 -4.0076 14.1952
-13 -30 -19 22.5270 -11.9531
-13 -30 -18 16.6535 -5.7963
-13 -30 -17 6.7402 15.3034
-13 -30 -16 10.0809 -32.6187
-13 -30 -15 -52.6894 4.7486
-13 -30 -14 8.0396 -1.7239
-13 -29 -22 -13.4394 0.9811
-13 -29 -21 14.7799 21.9733
-13 -29 -20 -1.2355 26.9722
-13 -29 -19 -14.9064 1.5594
-13 -29 -18 -3.6364 -19.7086
-13 -29 -17 -0.1830 6.3380
-13 -29 -16 -21.9928 -30.3788
-13 -29 -15 9.1012 40.4482
-13 -29 -14 10.9181 16.9782
-13 -28 -23 2.2137 -7.4004
-13 -28 -22 18.0106 -6.2491
-13 -28 -21 -24.0727 7.0860
-13 -28 -20 20.9361 -10.5659
-13 -28 -19 33.5830 9.2343
-13 -28 -18 1.7642 -26.2206
-13 -28 -17 -33.4281 25.4004
-13 -28 -16 35.4599 7.7428
-13 -28 -15 39.4635 -15.6791
-13 -28 -14 51.8700 -17.2480
-13 -27 -24 7.7411 -12.9286
-13 -27 -23 30.2604 16.7799
-13 -27 -22 16.9887 28.2969
-13 -27 -21 17.0776 5.1895
-13 -27 -20 -15.0755 -8.6823
-13 -27 -19 11.0269 7.6166
-13 -27 -18 11.3335 -4.9954
-13 -27 -17 46.2803 -25.8174
-13 -27 -16 2.6389 -3.0372
-13 -27 -15 -9.0126 49.2486
-13 -27 -14 -13.4059 27.4308
-13 -26 -25 -6.9008 20.1467
-13 -26 -24 -12.0919 -19.5124
-13 -26 -23 0.6689 -8.2228
-13 -26 -22 22.3248 11.5024
-13 -26 -21 2.4082 -35.3670
-13 -26 -20 0.8936 -11.6058
-13 -26 -19 -24.8500 8.2100
-13 -26 -18 -11.6441 24.9050
-13 -26 -17 7.0154 43.6837
-13 -26 -16 -10.6884 -8.6809
-13 -26 -15 10.3878 8.0253
-13 -26 -14 18.2117 -18.9871
-13 -25 -24 13.9408 2.0236
-13 -25 -23 28.9890 -15.2435
-13 -25 -22 5.9021 7.0636
-13 -25 -21 -1.0218 15.9803
-13 -25 -20 5.7003 -2.1035
-13 -25 -19 -12.7617 2.2213
-13 -25 -18 -15.1599 -44.7219
-13 -25 -17 -4.3686 11.5324
-13 -25 -16 3.9416 54.7921
-13 -25 -15 -8.8038 -19.9105
-13 -25 -14 9.8615 22.9747
-13 -24 -23 -11.9907 24.0792
-13 -24 -22 -22.5520 -5.6140
-13 -24 -21 -23.6179 6.4060
-13 -24 -20 6.4502 -7.8110
-13 -24 -19 -27.6069 33.1443
-13 -24 -18 5.6029 4.7827
-13 -24 -17 46.2323 23.6509
-13 -24 -16 18.4941 18.2260
-13 -24 -15 16.8649 -53.2979
-13 -24 -14 26.2370 3.6871
-13 -23 -22 -16.5332 -13.7023
-13 -23 -21 62.4093 -30.5585
-13 -23 -20 8.7941 -23.8239
-13 -23 -19 29.8640 12.4257
-13 -23 -18 -1.9747 -43.6343
-13 -23 -17 -8.1014 -33.1532
-13 -23 -16 -21.7329 -9.7099
-13 -23 -15 -5.3043 66.2123
-13 -23 -14 -31.8404 -9.5108
-13 -22 -21 -18.6493 5.5007
-13 -22 -20 -14.7056 71.0421
-13 -22 -19 -11.3091 1.9128
-13 -22 -18 -24.8648 1.9839
-13 -22 -17 -17.3595 4.7079
-13 -22 -16 -12.5110 7.4545
-13 -22 -15 27.1730 -19.2520
-13 -22 -14 47.3450 8.5298
-13 -21 -20 -17.6051 7.3453
-13 -21 -19 16.8572 15.5215
-13 -21 -18 -25.5709 -6.8336
-13 -21 -17 44.5114 -5.5861
-13 -21 -16 31.6978 -8.6900
-13 -21 -15 20.3791 -3.6429
-13 -21 -14 0.5542 11.3684
-13 -20 -19 -15.7379 34.9853
-13 -20 -18 20.1013 13.5562
-13 -20 -17 -15.8134 40.1471
-13 -20 -16 -2.0584 -14.2498
-13 -20 -15 26.8142 7.4993
-13 -20 -14 -10.4928 10.5213
-13 -19 -18 -11.4274 9.8908
-13 -19 -17 -29.9496 22.5332
-13 -19 -16 -30.6577 -7.5364
-13 -19 -15 -12.9188 43.1832
-13 -19 -14 14.7662 -22.4789
-13 -18 -17 -0.4001 2.8809
-13 -18 -16 10.2071 -30.9749
-13 -18 -15 6.6913 8.7680
-13 -18 -14 -8.7306 -15.0063
-13 -17 -16 -13.1899 13.1722
-13 -17 -15 -12.7274 6.9968
-13 -17 -14 35.2086 -2.6945
-13 -16 -15 -29.7150 5.6850
-13 -16 -14 -9.2138 -22.7589
-13 -15 -14 -0.1008 3.8664
-12 -34 -14 -3.7583 12.5197
-12 -34 -13 -2.2441 22.4573
-12 -33 -16 -22.1805 -13.0816
-12 -33 -15 -28.8074 -2.0773
-12 -33 -14 19.7694 13.1079
-12 -33 -13 4.8166 10.7780
-12 -32 -18 -13.1086 -26.6326
-12 -32 -17 -5.6030 -11.6668
-12 -32 -16 20.2494 2.2503
-12 -32 -15 -14.4470 11.5632
-12 -32 -14 -3.3285 -9.4113
-12 -32 -13 23.6794 11.5434
-12 -31 -19 -10.0766 4.6669
-12 -31 -18 -21.4991 -1.1923
-12 -31 -17 4.7310 4.8990
-12 -31 -16 -4.4830 22.7672
-12 -31 -15 20.9562 -5.5495
-12 -31 -14 -8.2615 21.7368
-12 -31 -13 7.0901 -27.8075
-12 -30 -21 -12.1732 11.5127
-12 -30 -20 6.9451 5.2627
-12 -30 -19 11.8919 15.9129
-12 -30 -18 10.1994 7.7486
-12 -30 -17 -13.3367 -11.5556
-12 -30 -16 -2.9153 -20.0446
-12 -30 -15 -4.4647 2.4449
-12 -30 -14 21.8536 -6.5205
-12 -30 -13 6.5339 41.1224
-12 -29 -22 1.6267 -20.3876
-12 -29 -21 -6.2445 -3.8021
-12 -29 -20 -18.8740 -9.5924
-12 -29 -19 -12.0815 -19.9038
-12 -29 -18 -18.4244 4.1589
-12 -29 -17 15.9255 -15.0884
-12 -29 -16 25.7816 -25.1561
-12 -29 -15 25.9233 -2.9250
-12 -29 -14 11.4956 5.1541
-12 -29 -13 -6.4177 14.7046
-12 -28 -23 2.3059 9.1466
-12 -28 -22 -25.2994 13.3180
-12 -28 -21 -0.3284 -10.9923
-12 -28 -20 42.5196 -8.7982
-12 -28 -19 0.5245 -20.9316
-12 -28 -18 -21.4903 13.5448
-12 -28 -17 -11.4503 -42.5063
-12 -28 -16 18.8096 0.1415
-12 -28 -15 -12.7696 7.9037
-12 -28 -14 30.7303 20.1854
-12 -28 -13 -23.8052 15.1381
-12 -27 -25 -5.3064 21.7945
-12 -27 -24 3.1835 19.2414
-12 -27 -23 9.7273 2.5382
-12 -27 -22 -27.7221 -23.6223
-12 -27 -21 2.6204 -14.6366
-12 -27 -20 -6.9815 53.3666
-12 -27 -19 1.1823 -16.5255
-12 -27 -18 11.8815 2.1181
-12 -27 -17 0.5943 -39.4962
-12 -27 -16 35.2119 35.5312
-12 -27 -15 44.4523 -0.1422
-12 -27 -14 5.6445 0.4173
-12 -27 -13 36.6993 54.9360
-12 -26 -25 -14.5039 27.2162
-12 -26 -24 7.6074 12.6270
-12 -26 -23 -19.4838 8.4046
-12 -26 -22 30.4108 4.4251
-12 -26 -21 9.3108 2.8355
-12 -26 -20 31.8535 -18.3518
-12 -26 -19 -4.7226 16.5303
-12 -26 -18 0.7642 -16.0821
-12 -26 -17 7.9492 -26.9874
-12 -26 -16 -3.7959 -4.7156
-12 -26 -15 -30.2316 35.4181
-12 -26 -14 8.1821 50.6941
-12 -26 -13 19.6203 3.5844
-12 -25 -24 5.4780 -16.9562
-12 -25 -23 -9.4467 -47.2595
-12 -25 -22 -26.3684 32.5398
-12 -25 -21 -0.1374 -4.2710
-12 -25 -20 17.1580 29.3327
-12 -25 -19 -2.8381 15.8643
-12 -25 -18 17.6013 4.1026
-12 -25 -17 -27.1881 7.3896
-12 -25 -16 8.3960 23.7778
-12 -25 -15 -2.3855 30.6327
-12 -25 -14 -16.2231 20.5729
-12 -25 -13 0.4703 -15.9963
-12 -24 -23 33.5163 -24.2271
-12 -24 -22 5.0751 -17.8405
-12 -24 -21 -14.9675 -4.3134
-12 -24 -20 -15.7504 -39.6971
-12 -24 -19 7.2715 -14.0892
-12 -24 -18 35.2785 9.2422
-12 -24 -17 8.9356 -10.2165
-12 -24 -16 -19.2492 15.9792
-12 -24 -15 -4.7341 9.9848
-12 -24 -14 -16.8976 -1.6120
-12 -24 -13 -2.0771 -31.7810
-12 -23 -22 13.1989 -0.2416
-12 -23 -21 -1.3088 13.3720
-12 -23 -20 2.5605 -7.3312
-12 -23 -19 16.4887 -28.7658
-12 -23 -18 -38.2141 23.9503
-12 -23 -17 40.4917 -19.1083
-12 -23 -16 -20.3463 -0.4735
-12 -23 -15 10.9504 -28.9590
-12 -23 -14 58.3770 5.2578
-12 -23 -13 12.7915 9.5911
-12 -22 -21 0.5341 29.6063
-12 -22 -20 -33.9233 -22.4209
-12 -22 -19 -57.9970 10.5953
-12 -22 -18 65.4591 -7.0754
-12 -22 -17 -10.5501 -0.1391
-12 -22 -16 -41.8779 9.8424
-12 -22 -15 12.2354 12.4230
-12 -22 -14 8.8024 4.0711
-12 -22 -13 -53.8119 23.4816
-12 -21 -20 0.8407 -15.4741
-12 -21 -19 4.8348 12.2027
-12 -21 -18 -27.3882 14.6862
-12 -21 -17 1.2899 -6.7448
-12 -21 -16 -9.3718 -7.6788
-12 -21 -15 -4.4385 22.3860
-12 -21 -14 -41.2239 38.5802
-12 -21 -13 2.2319 16.0117
-12 -20 -19 36.8587 -15.5842
-12 -20 -18 35.1515 -18.9551
-12 -20 -17 -16.2508 -28.4324
-12 -20 -16 22.4321 14.5329
-12 -20 -15 -18.2558 -12.0355
-12 -20 -14 8.0549 -2.3679
-12 -20 -13 9.9432 4.4318
-12 -19 -18 -15.4186 43.4678
-12 -19 -17 21.4779 7.3060
-12 -19 -16 24.0785 28.8380
-12 -19 -15 31.0803 12.2096
-12 -19 -14 3.1508 16.2269
-12 -19 -13 -18.2936 -47.8491
-12 -18 -17 -35.2082 9.6419
-12 -18 -16 0.8991 29.1629
-12 -18 -15 -0.0453 -20.3905
-12 -18 -14 -19.7651 15.2941
-12 -18 -13 -11.7253 16.4701
-12 -17 -16 21.1637 -11.6770
-12 -17 -15 26.5776 9.3851
-12 -17 -14 32.0090 -2.2265
-12 -17 -13 -14.2156 -32.8049
-12 -16 -15 12.2449 2.2819
-12 -16 -14 -24.3682 7.6427
-12 -16 -13 -10.5819 16.4362
-12 -15 -14 -15.1820 -1.0042
-12 -15 -13 12.4032 1.1759
-12 -14 -13 6.1053 -14.1118
-11 -35 -12 3.9248 -6.2221
-11 -34 -14 -15.1424 -11.3401
-11 -34 -13 -3.1505 0.5353
-11 -34 -12 7.5140 4.1948
-11 -33 -17 4.0393 -18.6992
-11 -33 -16 0.9985 -24.3681
-11 -33 -15 21.1646 -13.6494
-11 -33 -14 -5.6815 -3.6519
-11 -33 -13 20.0966 -7.1251
-11 -33 -12 -8.6540 -2.9368
-11 -32 -18 17.4461 -5.0593
-11 -32 -17 7.0114 1.2159
-11 -32 -16 5.9474 -0.5014
-11 -32 -15 -0.9916 -0.3062
-11 -32 -14 -27.9465 -10.8740
-11 -32 -13 18.7395 -9.1862
-11 -32 -12 -2.0816 25.2620
-11 -31 -20 5.7069 -19.5208
-11 -31 -19 1.8387 5.7353
-11 -31 -18 -4.2938 -8.7263
-11 -31 -17 -0.5525 14.8164
-11 -31 -16 -12.1140 6.0266
-11 -31 -15 22.1699 12.1325
-11 -31 -14 -4.7444 -22.8318
-11 -31 -13 -23.8241 -5.9627
-11 -31 -12 -16.1984 18.2414
-11 -30 -21 -17.8311 17.6528
-11 -30 -20 20.5846 -17.8313
-11 -30 -19 14.2641 -0.2874
-11 -30 -18 9.9908 23.9550
-11 -30 -17 10.8484 -43.8552
-11 -30 -16 -3.9337 9.3547
-11 -30 -15 -2.8228 -13.1533
-11 -30 -14 -22.4880 -6.8124
-11 -30 -13 7.5898 44.8485
-11 -30 -12 -1.5188 23.7519
-11 -29 -23 10.1716 5.9837
-11 -29 -22 0.1016 5.1889
-11 -29 -21 -4.9668 -2.5736
-11 -29 -20 15.8894 -8.1217
-11 -29 -19 -3.8881 -6.0878
-11 -29 -18 2.7101 -4.4727
-11 -29 -17 13.7918 0.5372
-11 -29 -16 -11.1078 -15.6068
-11 -29 -15 15.3115 -32.3206
-11 -29 -14 15.3009 20.7642
-11 -29 -13 -9.0732 -22.3211
-11 -29 -12 -15.9372 29.3869
-11 -28 -24 11.1764 -2.2980
-11 -28 -23 -42.7996 -16.4159
-11 -28 -22 13.6967 14.9380
-11 -28 -21 13.1908 -2.6731
-11 -28 -20 -18.3743 -7.2990
-11 -28 -19 17.2204 33.8323
-11 -28 -18 -21.5462 9.2043
-11 -28 -17 2.6342 -11.3931
-11 -28 -16 17.0928 12.2868
-11 -28 -15 -13.4438 34.9786
-11 -28 -14 39.3209 42.8877
-11 -28 -13 -37.1978 9.3618
-11 -28 -12 -21.2184 10.3252
-11 -27 -25 1.0345 2.7671
-11 -27 -24 -23.7021 0.9334
-11 -27 -23 8.7425 -17.9439
-11 -27 -22 12.6334 4.1914
-11 -27 -21 0.2081 -20.0729
-11 -27 -20 0.5783 8.1365
-11 -27 -19 -15.7667 6.8790
-11 -27 -18 -12.6276 18.8819
-11 -27 -17 13.6615 -5.9708
-11 -27 -16 -21.5282 -45.6052
-11 -27 -15 -46.2781 0.7905
-11 -27 -14 13.0317 0.1743
-11 -27 -13 -27.0107 46.9721
-11 -27 -12 3.7662 46.9217
-11 -26 -25 7.5305 14.7440
-11 -26 -24 13.0114 -10.9629
-11 -26 -23 16.3485 4.0676
-11 -26 -22 -4.1810 -6.6921
-11 -26 -21 -41.9670 31.9976
-11 -26 -20 -17.4713 -18.0420
-11 -26 -19 4.5207 -18.1440
-11 -26 -18 32.6236 -33.1933
-11 -26 -17 28.1792 -20.3496
-11 -26 -16 45.7938 -13.2106
-11 -26 -15 2.0637 47.1518
-11 -26 -14 21.5938 -8.5184
-11 -26 -13 -29.2799 25.5937
-11 -26 -12 46.6125 -63.3442
-11 -25 -24 1.8868 7.1455
-11 -25 -23 2.4581 -0.5629
-11 -25 -22 10.3663 13.8107
-11 -25 -21 -0.4465 -32.2625
-11 -25 -20 -20.6396 -9.0635
-11 -25 -19 -18.5971 36.4347
-11 -25 -18 -24.8552 22.7250
-11 -25 -17 0.9632 -15.4802
-11 -25 -16 21.5917 11.6836
-11 -25 -15 -8.4255 -6.2645
-11 -25 -14 -10.9688 1.4794
-11 -25 -13 14.0967 44.9043
-11 -25 -12 60.6227 22.2232
-11 -24 -23 -25.2738 -13.3213
-11 -24 -22 -23.1273 -18.4896
-11 -24 -21 -18.2684 3.7206
-11 -24 -20 -25.6523 0.9532
-11 -24 -19 51.7191 -7.9139
-11 -24 -18 -8.1341 -16.0121
-11 -24 -17 22.4986 14.5583
-11 -24 -16 -17.0463 22.7057
-11 -24 -15 1.3455 -12.1158
-11 -24 -14 4.7601 -6.3662
-11 -24 -13 -5.3705 58.2228
-11 -24 -12 21.6373 4.7516
-11 -23 -22 10.3811 -19.5796
-11 -23 -21 14.6892 -13.5440
-11 -23 -20 8.7316 13.5881
-11 -23 -19 9.4639 -2.6472
-11 -23 -18 -1.5108 6.3909
-11 -23 -17 6.1881 -34.5925
-11 -23 -16 12.9999 -22.6369
-11 -23 -15 34.5822 -1.3074
-11 -23 -14 -9.2837 -17.5436
-11 -23 -13 -19.0176 34.0238
-11 -23 -12 -0.1643 -49.4917
-11 -22 -21 -10.2062 31.8854
-11 -22 -20 27.1182 -10.4427
-11 -22 -19 63.8771 6.2017
-11 -22 -18 22.5803 6.1804
-11 -22 -17 -53.0377 49.0498
-11 -22 -16 -6.9746 -9.3774
-11 -22 -15 20.7254 20.5726
-11 -22 -14 -6.9179 -1.6993
-11 -22 -13 -28.7331 -9.5067
-11 -22 -12 -19.4997 20.5308
-11 -21 -20 12.7585 22.0034
-11 -21 -19 13.6325 -50.8273
-11 -21 -18 -24.0068 54.0716
-11 -21 -17 2.3260 -4.8089
-11 -21 -16 -22.2949 -9.6665
-11 -21 -15 8.0458 40.8650
-11 -21 -14 -5.9843 2.1251
-11 -21 -13 17.3821 19.4965
-11 -21 -12 -19.6339 -6.1358
-11 -20 -19 15.0540 -13.4031
-11 -20 -18 6.3779 -7.0723
-11 -20 -17 4.8897 3.2071
-11 -20 -16 10.8156 2.9615
-11 -20 -15 -54.6548 8.4408
-11 -20 -14 13.6201 -8.0832
-11 -20 -13 -6.2127 24.2061
-11 -20 -12 8.7356 -0.0480
-11 -19 -18 1.7412 -6.2508
-11 -19 -17 49.4060 -23.3379
-11 -19 -16 -1.1241 7.5714
-11 -19 -15 8.4296 -13.5841
-11 -19 -14 -16.7788 14.3110
-11 -19 -13 21.4253 -7.3905
-11 -19 -12 -7.4306 32.0493
-11 -18 -17 11.8889 5.0388
-11 -18 -16 22.4463 5.4655
-11 -18 -15 23.0373 -20.7001
-11 -18 -14 14.8457 18.5230
-11 -18 -13 0.7973 -18.6082
-11 -18 -12 -4.6057 4.6322
-11 -17 -16 -4.4331 -1.7416
-11 -17 -15 -14.6535 -13.8280
-11 -17 -14 -1.9374 -3.4266
-11 -17 -13 20.2011 11.3241
-11 -17 -12 23.1261 17.2437
-11 -16 -15 11.6777 -4.1959
-11 -16 -14 1.6326 36.1092
-11 -16 -13 10.0878 -10.3816
-11 -16 -12 33.0307 35.8322
-11 -15 -14 29.1666 15.1609
-11 -15 -13 18.0725 -6.1369
-11 -15 -12 3.8536 -18.6665
-11 -14 -13 -18.9721 7.4672
-11 -14 -12 -7.1035 -1.8444
-11 -13 -12 -20.4183 0.5333
-10 -35 -13 -16.4951 -17.6324
-10 -35 -12 -23.5731 -0.6126
-10 -35 -11 6.6163 -1.3036
-10 -34 -15 -24.5766 3.1569
-10 -34 -14 -0.8683 -5.3657
-10 -34 -13 -6.6452 -21.1955
-10 -34 -12 7.6637 3.8974
-10 -34 -11 24.1296 2.6082
-10 -33 -17 7.1325 -18.2380
-10 -33 -16 9.6640 -11.1352
-10 -33 -15 1.0964 19.2942
-10 -33 -14 -21.4672 6.7985
-10 -33 -13 -18.1039 8.9647
-10 -33 -12 -8.7257 15.6653
-10 -33 -11 -6.5067 -0.3446
-10 -32 -19 -2.9104 -0.5198
-10 -32 -18 5.3905 -11.5677
-10 -32 -17 -0.0543 -1.7751
-10 -32 -16 7.6215 -17.1568
-10 -32 -15 -16.2481 -8.0636
-10 -32 -14 10.6380 -16.4401
-10 -32 -13 3.5480 -0.1277
-10 -32 -12 11.1552 7.8684
-10 -32 -11 -5.1151 15.5307
-10 -31 -20 -4.1403 2.2182
-10 -31 -19 19.3444 -15.0753
-10 -31 -18 -11.3432 -14.4713
-10 -31 -17 -3.7170 -4.7432
-10 -31 -16 3.3980 -5.6707
-10 -31 -15 -10.0924 10.4391
-10 -31 -14 -19.5416 -23.6887
-10 -31 -13 -30.6222 8.2579
-10 -31 -12 15.6543 43.9982
-10 -31 -11 -34.1619 -7.6950
-10 -30 -22 15.0530 -19.9135
-10 -30 -21 0.5771 10.6896
-10 -30 -20 -17.6444 4.9273
-10 -30 -19 4.5452 18.4655
-10 -30 -18 23.3980 12.2811
-10 -30 -17 -11.2600 6.5806
-10 -30 -16 -10.5961 -11.2293
-10 -30 -15 6.1499 -4.4853
-10 -30 -14 25.2331 22.0571
-10 -30 -13 -35.3871 7.2420
-10 -30 -12 -9.5254 -10.0915
-10 -30 -11 38.0389 -0.9075
-10 -29 -23 -2.7695 13.0839
-10 -29 -22 -31.4678 -25.7254
-10 -29 -21 -8.5795 23.7166
-10 -29 -20 29.1749 -0.9386
-10 -29 -19 -2.8839 -19.0106
-10 -29 -18 5.6164 4.3709
-10 -29 -17 -29.4497 20.7184
-10 -29 -16 45.3948 9.2420
-10 -29 -15 28.4841 -9.9923
-10 -29 -14 -7.9618 -18.1714
-10 -29 -13 31.1014 78.9003
-10 -29 -12 22.4626 -0.0526
-10 -29 -11 5.6858 44.2284
-10 -28 -24 5.7792 -9.5892
-10 -28 -23 -30.3346 4.7613
-10 -28 -22 -16.8463 5.5163
-10 -28 -21 -6.1167 8.6947
-10 -28 -20 -10.6364 15.5979
-10 -28 -19 16.5659 13.0040
-10 -28 -18 -24.7591 18.3361
-10 -28 -17 -1.5826 3.7352
-10 -28 -16 25.8819 -18.8845
-10 -28 -15 24.3829 -9.1289
-10 -28 -14 -38.0042 7.0605
-10 -28 -13 27.1316 18.3333
-10 -28 -12 -20.5572 11.0885
-10 -28 -11 -32.6546 -4.9899
-10 -27 -25 -16.2677 2.1592
-10 -27 -24 8.7860 -1.5189
-10 -27 -23 -3.8476 -33.0862
-10 -27 -22 6.6349 44.0886
-10 -27 -21 4.2539 -28.3121
-10 -27 -20 -36.1078 10.0243
-10 -27 -19 -2.1336 16.2437
-10 -27 -18 15.3860 44.9061
-10 -27 -17 -1.9648 30.4656
-10 -27 -16 -2.3139 10.0297
-10 -27 -15 -12.5637 45.3237
-10 -27 -14 -46.4648 45.0788
-10 -27 -13 -13.9460 -21.5781
-10 -27 -12 6.8481 23.6289
-10 -27 -11 27.0441 13.3389
-10 -26 -25 -16.6882 -13.1990
-10 -26 -24 0.9880 -17.8137
-10 -26 -23 59.2464 -8.7060
-10 -26 -22 23.9429 26.8103
-10 -26 -21 6.8432 -8.4245
-10 -26 -20 19.7532 -21.5516
-10 -26 -19 -12.9805 -1.5372
-10 -26 -18 -34.7736 10.6474
-10 -26 -17 -20.9516 41.7490
-10 -26 -16 19.1014 -8.7944
-10 -26 -15 -31.8098 20.4497
-10 -26 -14 -18.8570 12.5805
-10 -26 -13 26.5350 -9.9474
-10 -26 -12 69.0751 -10.1847
-10 -26 -11 61.4225 24.8471
-10 -25 -24 -14.8183 -29.0357
-10 -25 -23 12.0577 -25.4503
-10 -25 -22 -26.7124 0.2446
-10 -25 -21 -15.0223 2.9240
-10 -25 -20 15.5838 -8.9885
-10 -25 -19 0.8172 -0.4947
-10 -25 -18 39.8074 8.6049
-10 -25 -17 31.3657 -24.6907
-10 -25 -16 2.0220 -11.1841
-10 -25 -15 -7.7796 -30.3641
-10 -25 -14 21.4068 -16.7980
-10 -25 -13 27.9072 -14.6848
-10 -25 -12 -45.5980 -0.6343
-10 -25 -11 1.6694 23.7741
-10 -24 -23 -12.2903 23.3704
-10 -24 -22 27.4982 -19.2480
-10 -24 -21 -8.8823 -10.0725
-10 -24 -20 -29.7254 -27.1746
-10 -24 -19 18.5728 -4.3853
-10 -24 -18 2.4334 -12.9639
-10 -24 -17 35.3350 12.4558
-10 -24 -16 -44.8881 -3.1897
-10 -24 -15 16.8014 -11.1520
-10 -24 -14 -19.3193 -8.4761
-10 -24 -13 -1.5398 -2.7321
-10 -24 -12 28.0395 -8.4759
-10 -24 -11 8.3968 -17.6138
-10 -23 -22 0.7799 26.2675
-10 -23 -21 -25.5721 -0.2268
-10 -23 -20 -9.4152 28.8252
-10 -23 -19 4.6808 -5.8265
-10 -23 -18 24.9556 -7.3561
-10 -23 -17 -30.7305 35.6517
-10 -23 -16 11.3882 -6.5091
-10 -23 -15 30.9198 22.8172
-10 -23 -14 12.1715 1.1560
-10 -23 -13 59.9925 18.2343
-10 -23 -12 17.6296 23.0848
-10 -23 -11 3.5961 -22.5045
-10 -22 -21 34.7643 2.8793
-10 -22 -20 -26.6203 4.8980
-10 -22 -19 11.1992 13.4510
-10 -22 -18 3.1340 13.8716
-10 -22 -17 6.5077 27.0763
-10 -22 -16 -10.8352 6.5816
-10 -22 -15 -9.0257 -5.3934
-10 -22 -14 25.7481 -7.5159
-10 -22 -13 -37.8960 26.2964
-10 -22 -12 10.6089 25.2432
-10 -22 -11 5.9756 29.9830
-10 -21 -20 13.4549 -8.1539
-10 -21 -19 3.8706 -12.0992
-10 -21 -18 8.6977 -16.5432
-10 -21 -17 -3.3522 -20.9726
-10 -21 -16 28.1346 17.5881
-10 -21 -15 6.2169 23.5026
-10 -21 -14 -11.7872 5.1052
-10 -21 -13 -7.8083 -23.4163
-10 -21 -12 -16.1748 2.6602
-10 -21 -11 9.7989 24.7402
-10 -20 -19 -35.3141 6.6590
-10 -20 -18 -3.7951 -44.0764
-10 -20 -17 -6.1527 15.5810
-10 -20 -16 26.5334 -6.2479
-10 -20 -15 -7.8689 11.2137
-10 -20 -14 -15.6445 -12.9198
-10 -20 -13 27.0492 -16.6184
-10 -20 -12 -15.0033 3.2305
-10 -20 -11 -2.7991 14.5471
-10 -19 -18 -0.8469 41.9593
-10 -19 -17 -2.6880 16.9159
-10 -19 -16 -6.8518 1.8873
-10 -19 -15 10.8328 12.8870
-10 -19 -14 -9.2437 9.4828
-10 -19 -13 -19.4298 -0.4514
-10 -19 -12 -25.3148 10.4685
-10 -19 -11 -22.8562 -2.0595
-10 -18 -17 1.3247 -28.0581
-10 -18 -16 6.6799 -15.4445
-10 -18 -15 -17.6759 20.1488
-10 -18 -14 0.2021 16.3857
-10 -18 -13 24.5904 18.5367
-10 -18 -12 26.8901 -26.5972
-10 -18 -11 -12.4517 -45.2032
-10 -17 -16 16.6704 -9.5825
-10 -17 -15 -28.2932 -19.8310
-10 -17 -14 -7.9933 -32.3046
-10 -17 -13 -6.5002 -3.8510
-10 -17 -12 -35.0742 28.8920
-10 -17 -11 9.6171 7.3342
-10 -16 -15 -10.6563 25.2655
-10 -16 -14 -10.3778 22.1055
-10 -16 -13 3.3470 17.8010
-10 -16 -12 0.2008 -3.8115
-10 -16 -11 1.8706 8.9890
-10 -15 -14 -9.2950 8.4593
-10 -15 -13 -21.0243 36.7432
-10 -15 -12 7.0405 14.5318
-10 -15 -11 -8.9854 28.9949
-10 -14 -13 36.0849 5.8507
-10 -14 -12 4.0529 -13.2065
-10 -14 -11 13.6482 20.2700
-10 -13 -12 10.5600 -27.4687
-10 -13 -11 -22.4905 -14.2682
-10 -12 -11 -20.6519 -8.9607
-9 -36 -11 2.4531 6.7835
-9 -36 -10 11.7147 -7.7418
-9 -35 -13 9.3218 -6.3912
-9 -35 -12 -9.1183 -3.6914
-9 -35 -11 3.8377 8.3208
-9 -35 -10 -12.8195 2.6515
-9 -34 -16 -10.3144 -7.4983
-9 -34 -15 5.7626 -7.5596
-9 -34 -14 -10.7731 -0.2338
-9 -34 -13 -1.2803 13.0394
-9 -34 -12 3.0757 11.3823
-9 -34 -11 -18.9589 8.6621
-9 -34 -10 8.3158 -4.2396
-9 -33 -18 17.5272 -8.0829
-9 -33 -17 9.1792 -15.1993
-9 -33 -16 -8.7363 -3.5214
-9 -33 -15 16.0941 15.6202
-9 -33 -14 -29.8384 0.3674
-9 -33 -13 14.3787 17.4441
-9 -33 -12 1.4345 -3.4489
-9 -33 -11 -13.1757 -0.0727
-9 -33 -10 7.0219 -11.0744
-9 -32 -19 -6.1600 0.3900
-9 -32 -18 -5.4053 -16.5689
-9 -32 -17 -17.5285 -6.4864
-9 -32 -16 7.7717 12.3458
-9 -32 -15 -9.3256 23.4587
-9 -32 -14 4.1842 21.5797
-9 -32 -13 -10.9764 -1.5486
-9 -32 -12 14.8154 0.1504
-9 -32 -11 31.1829 -21.1038
-9 -32 -10 -19.5800 -8.2889
-9 -31 -21 1.1397 -16.1286
-9 -31 -20 -1.2715 7.2337
-9 -31 -19 -4.9691 -7.4580
-9 -31 -18 7.2516 9.7918
-9 -31 -17 23.9591 0.6206
-9 -31 -16 -14.2227 6.4222
-9 -31 -15 36.7828 12.1235
-9 -31 -14 -1.1743 2.9382
-9 -31 -13 15.9249 -30.5203
-9 -31 -12 14.3766 -31.4809
-9 -31 -11 -30.2627 -20.1680
-9 -31 -10 4.0130 -4.8739
-9 -30 -22 4.0493 -4.4858
-9 -30 -21 -3.8283 -1.4297
-9 -30 -20 -11.9331 20.5937
-9 -30 -19 0.6969 14.6594
-9 -30 -18 -4.8070 6.8162
-9 -30 -17 9.1370 -9.6857
-9 -30 -16 21.0211 -1.6737
-9 -30 -15 21.7965 10.7403
-9 -30 -14 10.8696 -1.5021
-9 -30 -13 9.5363 2.1532
-9 -30 -12 -27.2918 -14.7532
-9 -30 -11 -20.2484 9.2057
-9 -30 -10 7.5148 -5.9456
-9 -29 -24 -5.2965 8.0933
-9 -29 -23 -4.6695 16.2844
-9 -29 -22 15.5795 -25.7155
-9 -29 -21 -0.5497 3.8998
-9 -29 -20 20.0203 1.2096
-9 -29 -19 -3.4032 12.2816
-9 -29 -18 12.6973 30.1501
-9 -29 -17 3.8149 -19.3615
-9 -29 -16 -5.0536 6.2543
-9 -29 -15 12.6530 17.9434
-9 -29 -14 11.5205 13.7441
-9 -29 -13 -11.3528 -8.4918
-9 -29 -12 7.2432 10.8890
-9 -29 -11 -55.5018 22.8901
-9 -29 -10 2.3317 -35.7143
-9 -28 -25 -8.1548 -3.6090
-9 -28 -24 13.2704 -11.9060
-9 -28 -23 24.5191 5.5113
-9 -28 -22 -5.2899 -0.3750
-9 -28 -21 -12.7679 10.9317
-9 -28 -20 -9.4472 28.0500
-9 -28 -19 -26.3233 7.1759
-9 -28 -18 -32.5298 -21.3610
-9 -28 -17 -21.6832 -0.9483
-9 -28 -16 -4.8251 8.2639
-9 -28 -15 38.8281 24.0835
-9 -28 -14 -17.8707 22.4589
-9 -28 -13 14.5009 -5.0261
-9 -28 -12 -54.1917 36.6822
-9 -28 -11 10.9892 33.1685
-9 -28 -10 -51.7632 18.7964
-9 -27 -26 -4.5592 23.6590
-9 -27 -25 0.6329 11.4833
-9 -27 -24 13.0483 0.5773
-9 -27 -23 11.9972 -15.7952
-9 -27 -22 -7.5320 1.1879
-9 -27 -21 -11.0406 -17.9714
-9 -27 -20 -7.9204 8.2313
-9 -27 -19 1.8315 -7.3576
-9 -27 -18 19.2518 -23.8330
-9 -27 -17 -27.0960 -17.0621
-9 -27 -16 -13.5348 26.8332
-9 -27 -15 35.2774 15.0093
-9 -27 -14 -19.5511 45.5163
-9 -27 -13 -5.7086 -5.7749
-9 -27 -12 1.9103 -0.6291
-9 -27 -11 -5.5596 14.1477
-9 -27 -10 9.7570 -17.5408
-9 -26 -25 1.9290 -27.4896
-9 -26 -24 -7.8050 -3.8064
-9 -26 -23 -1.0068 28.8433
-9 -26 -22 7.9042 -45.0326
-9 -26 -21 -21.0434 1.9173
-9 -26 -20 -19.4258 -12.3856
-9 -26 -19 21.3632 73.7934
-9 -26 -18 -0.5292 8.4081
-9 -26 -17 36.4315 20.1362
-9 -26 -16 -12.5279 13.8452
-9 -26 -15 30.4951 -22.0721
-9 -26 -14 50.7999 15.8236
-9 -26 -13 3.6316 7.2604
-9 -26 -12 29.8701 8.4049
-9 -26 -11 -10.7992 -11.0674
-9 -26 -10 6.9030 -16.8680
-9 -25 -24 -2.0883 17.8425
-9 -25 -23 -2.8131 3.5439
-9 -25 -22 -13.8884 -20.4298
-9 -25 -21 29.4396 -13.0844
-9 -25 -20 44.6407 7.7801
-9 -25 -19 37.1696 -25.8359
-9 -25 -18 8.1785 9.6540
-9 -25 -17 -27.6041 5.8302
-9 -25 -16 28.4178 22.9598
-9 -25 -15 -2.9752 -14.0254
-9 -25 -14 -37.7694 9.6929
-9 -25 -13 4.9210 -11.3737
-9 -25 -12 6.0613 4.7872
-9 -25 -11 -21.7987 -29.6909
-9 -25 -10 12.1403 -5.9529
-9 -24 -23 -22.7174 27.0936
-9 -24 -22 1.5127 -15.3877
-9 -24 -21 21.2391 13.5397
-9 -24 -20 -6.0300 28.7951
-9 -24 -19 0.2574 -1.1376
-9 -24 -18 16.7149 35.4063
-9 -24 -17 -2.0159 18.5464
-9 -24 -16 -10.7364 -23.3386
-9 -24 -15 -23.5917 -3.0591
-9 -24 -14 -10.2260 17.2436
-9 -24 -13 -3.7647 4.9615
-9 -24 -12 -13.2173 8.3625
-9 -24 -11 -8.9194 21.9615
-9 -24 -10 1.4949 -25.7914
-9 -23 -22 43.3740 -19.3582
-9 -23 -21 -1.9728 -36.5972
-9 -23 -20 -5.7209 0.5361
-9 -23 -19 2.3738 -18.0805
-9 -23 -18 7.2228 21.8041
-9 -23 -17 -30.7904 16.4748
-9 -23 -16 32.7850 -3.0024
-9 -23 -15 -40.1108 4.5678
-9 -23 -14 -14.8119 19.7328
-9 -23 -13 -19.3673 7.9506
-9 -23 -12 -8.8792 -16.4360
-9 -23 -11 -30.1513 16.2988
-9 -23 -10 24.5633 -3.5791
-9 -22 -21 -16.0967 12.1559
-9 -22 -20 15.9864 2.5219
-9 -22 -19 32.2392 12.5874
-9 -22 -18 -6.2865 -4.9492
-9 -22 -17 -4.2347 -39.3322
-9 -22 -16 -0.7077 14.9654
-9 -22 -15 21.1300 -19.8603
-9 -22 -14 10.1190 -18.2318
-9 -22 -13 -9.6069 -7.1041
-9 -22 -12 -3.0845 -3.2136
-9 -22 -11 4.2981 -4.9712
-9 -22 -10 -14.9042 -10.3994
-9 -21 -20 -12.6495 14.3442
-9 -21 -19 -5.5410 -7.9252
-9 -21 -18 13.6545 11.4271
-9 -21 -17 13.4630 -12.9275
-9 -21 -16 18.1116 19.7475
-9 -21 -15 -38.5872 18.4668
-9 -21 -14 -0.4466 10.2600
-9 -21 -13 35.7365 -16.2100
-9 -21 -12 13.9975 16.7579
-9 -21 -11 9.2774 -6.5717
-9 -21 -10 -1.9238 -0.6136
-9 -20 -19 -25.8711 35.0695
-9 -20 -18 4.6189 -12.8158
-9 -20 -17 -16.4939 -7.2159
-9 -20 -16 -7.9251 -1.8543
-9 -20 -15 -15.4193 3.8582
-9 -20 -14 4.4294 1.5275
-9 -20 -13 6.8480 14.2135
-9 -20 -12 -3.4676 9.1731
-9 -20 -11 -28.0559 -0.9864
-9 -20 -10 -20.7750 -11.1248
-9 -19 -18 -12.2818 1.9145
-9 -19 -17 16.6402 20.4628
-9 -19 -16 -24.2699 -10.6431
-9 -19 -15 -0.6385 1.7753
-9 -19 -14 -0.0524 -16.2225
-9 -19 -13 -7.4770 -20.9676
-9 -19 -12 6.9803 6.4970
-9 -19 -11 3.7989 -14.2428
-9 -19 -10 5.2995 -38.1531
-9 -18 -17 -2.7870 -12.6084
-9 -18 -16 16.5806 -6.6079
-9 -18 -15 21.8422 20.6209
-9 -18 -14 -5.4804 -2.8260
-9 -18 -13 -14.4862 -3.6925
-9 -18 -12 5.0621 -4.8686
-9 -18 -11 22.1507 13.1984
-9 -18 -10 -2.9181 -0.3340
-9 -17 -16 -14.6482 -9.7810
-9 -17 -15 -40.8704 -5.7109
-9 -17 -14 -5.9952 12.2674
-9 -17 -13 5.4127 10.7442
-9 -17 -12 -2.1398 9.8032
-9 -17 -11 -39.6957 -12.2491
-9 -17 -10 8.2048 21.7509
-9 -16 -15 45.0329 -15.3442
-9 -16 -14 -14.2634 16.8466
-9 -16 -13 -23.9656 -17.6817
-9 -16 -12 -8.6715 -24.9018
-9 -16 -11 -1.8475 -21.8899
-9 -16 -10 -19.1240 -34.6113
-9 -15 -14 33.1291 2.8770
-9 -15 -13 -31.3818 -25.3389
-9 -15 -12 -18.5633 4.9085
-9 -15 -11 19.7106 -2.7567
-9 -15 -10 -14.4447 21.2291
-9 -14 -13 -7.2590 35.4365
-9 -14 -12 7.2484 1.2332
-9 -14 -11 -16.8061 0.9441
-9 -14 -10 27.5875 -33.2510
-9 -13 -12 -13.7280 0.6098
-9 -13 -11 44.0930 -39.4801
-9 -13 -10 7.2232 10.7653
-9 -12 -11 0.1394 -31.9366
-9 -12 -10 -4.4086 11.1155
-9 -11 -10 -5.4053 -18.3960
-8 -36 -11 -9.2763 29.3463
-8 -36 -10 -1.7587 -17.2031
-8 -36 -9 20.0222 15.8372
-8 -35 -14 -24.8440 -3.0012
-8 -35 -13 7.3731 -0.2241
-8 -35 -12 8.3660 1.7457
-8 -35 -11 -1.1940 -5.6126
-8 -35 -10 13.3113 5.7500
-8 -35 -9 -6.1479 3.5051
-8 -34 -16 9.2242 1.9973
-8 -34 -15 -4.4665 -4.4950
-8 -34 -14 -1.9221 13.9573
-8 -34 -13 -2.5281 -14.5872
-8 -34 -12 -6.4348 -21.5617
-8 -34 -11 -5.5833 7.4700
-8 -34 -10 -13.1034 -6.8191
-8 -34 -9 16.9063 9.1394
-8 -33 -18 -12.6946 -1.8517
-8 -33 -17 -6.0339 3.1927
-8 -33 -16 4.0691 -0.3002
-8 -33 -15 -2.2941 -3.9238
-8 -33 -14 -5.4385 7.0395
-8 -33 -13 16.9226 -12.5618
-8 -33 -12 -12.4817 -25.6091
-8 -33 -11 -0.9849 20.4523
-8 -33 -10 -23.1115 40.2354
-8 -33 -9 -4.4263 33.5699
-8 -32 -20 23.3482 -18.5346
-8 -32 -19 -4.9758 6.6378
-8 -32 -18 -7.9336 1.4910
-8 -32 -17 1.3414 -2.5485
-8 -32 -16 9.8205 12.2098
-8 -32 -15 13.8127 -18.4425
-8 -32 -14 8.6796 -21.2895
-8 -32 -13 -2.5796 5.5790
-8 -32 -12 -26.0237 -23.5481
-8 -32 -11 -17.5366 -21.0615
-8 -32 -10 -20.1975 23.1202
-8 -32 -9 -3.0010 26.4564
-8 -31 -21 -18.1748 16.0531
-8 -31 -20 -2.4693 13.3249
-8 -31 -19 -2.2803 -14.3310
-8 -31 -18 -14.0429 4.6321
-8 -31 -17 9.0478 -4.7241
-8 -31 -16 -6.2059 30.7913
-8 -31 -15 -14.3254 -22.5340
-8 -31 -14 5.6253 -11.0565
-8 -31 -13 -13.2191 -19.9686
-8 -31 -12 8.9893 24.9139
-8 -31 -11 -30.6981 -7.2246
-8 -31 -10 -7.4189 -20.7708
-8 -31 -9 12.7189 -13.3131
-8 -30 -23 3.2538 4.0332
-8 -30 -22 -13.1889 -2.7779
-8 -30 -21 17.5906 -11.4896
-8 -30 -20 -1.6776 -6.2265
-8 -30 -19 -8.8387 2.1493
-8 -30 -18 -21.4713 5.1171
-8 -30 -17 1.6622 -6.8173
-8 -30 -16 39.4391 14.9746
-8 -30 -15 1.1516 -0.8551
-8 -30 -14 23.9755 -3.3078
-8 -30 -13 -17.1182 -12.3517
-8 -30 -12 -30.1988 -0.6383
-8 -30 -11 -10.9888 17.0899
-8 -30 -10 -13.6394 15.0135
-8 -30 -9 27.0429 13.4060
-8 -29 -24 10.8653 9.2839
-8 -29 -23 14.6659 1.7972
-8 -29 -22 -27.8573 46.2269
-8 -29 -21 24.2862 -41.7359
-8 -29 -20 24.4474 31.3857
-8 -29 -19 -33.2429 19.1255
-8 -29 -18 -2.5400 -0.6606
-8 -29 -17 0.4512 28.1941
-8 -29 -16 17.6691 -19.5273
-8 -29 -15 -10.1964 3.5770
-8 -29 -14 16.4036 22.9029
-8 -29 -13 12.5345 30.1276
-8 -29 -12 28.3762 3.6207
-8 -29 -11 -0.8059 15.6048
-8 -29 -10 15.6337 0.3433
-8 -29 -9 8.6216 -29.4560
-8 -28 -25 1.3161 17.6150
-8 -28 -24 8.8140 12.2365
-8 -28 -23 23.0834 28.6422
-8 -28 -22 -31.4500 -4.5730
-8 -28 -21 -8.2806 -1.8832
-8 -28 -20 -11.0819 -13.5871
-8 -28 -19 -14.0307 -13.7960
-8 -28 -18 -20.5593 -16.9691
-8 -28 -17 38.4869 14.2728
-8 -28 -16 13.9389 -33.0861
-8 -28 -15 -26.4929 14.2588
-8 -28 -14 -10.7184 27.0473
-8 -28 -13 -15.9248 -4.0600
-8 -28 -12 -7.9564 -0.1142
-8 -28 -11 26.7902 12.8038
-8 -28 -10 -4.7925 -12.7892
-8 -28 -9 3.7035 15.6588
-8 -27 -26 15.3253 4.1540
-8 -27 -25 2.1790 8.1447
-8 -27 -24 -23.1587 -39.8096
-8 -27 -23 6.8228 -14.4973
-8 -27 -22 16.7520 5.5006
-8 -27 -21 -22.2972 -4.5067
-8 -27 -20 44.5956 25.3542
-8 -27 -19 -22.4727 -12.4555
-8 -27 -18 -12.3088 31.6072
-8 -27 -17 16.8044 -9.8659
-8 -27 -16 -13.1386 -30.9986
-8 -27 -15 -15.6403 13.6315
-8 -27 -14 -11.9717 23.4443
-8 -27 -13 -46.8283 -27.9436
-8 -27 -12 -17.2401 -1.7396
-8 -27 -11 -16.8100 8.0812
-8 -27 -10 31.5642 -5.7998
-8 -27 -9 18.8060 16.8954
-8 -26 -25 -8.3877 17.3093
-8 -26 -24 -0.7015 2.2494
-8 -26 -23 -9.7001 6.7067
-8 -26 -22 -4.9780 -14.3855
-8 -26 -21 11.2991 2.8573
-8 -26 -20 -2.3857 -1.1142
-8 -26 -19 -15.5094 5.7217
-8 -26 -18 17.1891 17.6133
-8 -26 -17 5.2497 3.1232
-8 -26 -16 -27.6646 -21.7025
-8 -26 -15 -10.0388 25.1537
-8 -26 -14 27.9280 -16.5219
-8 -26 -13 -2.5421 -7.2170
-8 -26 -12 -28.1802 6.9291
-8 -26 -11 -36.1076 2.7564
-8 -26 -10 5.5888 -13.2030
-8 -26 -9 1.9000 13.9139
-8 -25 -24 -17.4833 17.7326
-8 -25 -23 1.4651 7.9541
-8 -25 -22 0.6140 -55.3864
-8 -25 -21 14.6400 18.8406
-8 -25 -20 -17.9620 52.8220
-8 -25 -19 -17.3123 -16.5832
-8 -25 -18 25.4982 -33.7209
-8 -25 -17 -8.3692 -27.6585
-8 -25 -16 -5.6260 10.8375
-8 -25 -15 2.2455 20.8604
-8 -25 -14 10.1576 2.4098
-8 -25 -13 -25.2132 -23.2548
-8 -25 -12 9.9353 -5.9152
-8 -25 -11 9.2502 6.6526
-8 -25 -10 -8.6157 8.4611
-8 -25 -9 8.8045 11.7586
-8 -24 -23 -0.2815 25.9799
-8 -24 -22 -27.5474 -5.3324
-8 -24 -21 22.9248 21.9455
-8 -24 -20 38.5859 -15.2212
-8 -24 -19 21.6651 -8.9062
-8 -24 -18 19.2957 -2.2167
-8 -24 -17 -13.1460 -24.1088
-8 -24 -16 -3.9679 -1.2024
-8 -24 -15 26.8681 14.0008
-8 -24 -14 -9.3651 23.5166
-8 -24 -13 13.7449 5.9496
-8 -24 -12 -14.4499 -2.7523
-8 -24 -11 -2.3976 -5.5198
-8 -24 -10 40.3903 -14.5864
-8 -24 -9 0.4689 8.9502
-8 -23 -22 -19.7090 14.4247
-8 -23 -21 3.5705 -3.3101
-8 -23 -20 -16.5109 12.5842
-8 -23 -19 14.4484 59.8362
-8 -23 -18 43.3991 13.3949
-8 -23 -17 10.2426 17.9746
-8 -23 -16 18.2949 7.4531
-8 -23 -15 -31.3716 -11.0367
-8 -23 -14 -17.0721 41.7816
-8 -23 -13 7.5118 5.9355
-8 -23 -12 -3.9629 -10.3550
-8 -23 -11 4.7619 23.1124
-8 -23 -10 -32.9929 -19.6627
-8 -23 -9 -14.8909 -3.1785
-8 -22 -21 7.9357 5.5620
-8 -22 -20 13.5034 -7.5235
-8 -22 -19 30.3924 22.6791
-8 -22 -18 -3.6501 -36.0241
-8 -22 -17 5.3530 6.8675
-8 -22 -16 22.9855 -4.5710
-8 -22 -15 -14.6936 -5.1996
-8 -22 -14 -13.6673 11.0438
-8 -22 -13 5.2563 -9.9699
-8 -22 -12 -38.2040 3.8295
-8 -22 -11 8.0623 0.5559
-8 -22 -10 23.8678 -12.2650
-8 -22 -9 -6.2963 18.6535
-8 -21 -20 -1.3434 15.9389
-8 -21 -19 -4.7535 -14.8879
-8 -21 -18 -29.0204 21.4049
-8 -21 -17 -25.0900 -12.1484
-8 -21 -16 -29.1084 -17.6214
-8 -21 -15 23.2439 2.7480
-8 -21 -14 4.2211 -6.5373
-8 -21 -13 -15.5696 -7.0958
-8 -21 -12 10.5384 18.6478
-8 -21 -11 -10.6552 14.9954
-8 -21 -10 -16.4703 11.6148
-8 -21 -9 21.9370 -0.0100
-8 -20 -19 -47.3911 25.3345
-8 -20 -18 -23.3775 23.0589
-8 -20 -17 -7.4576 -14.6601
-8 -20 -16 2.4371 1.1545
-8 -20 -15 -14.9642 -3.6411
-8 -20 -14 -6.5595 -14.8276
-8 -20 -13 -13.3470 4.1900
-8 -20 -12 8.9507 6.8518
-8 -20 -11 -20.0235 9.4579
-8 -20 -10 -9.6852 -2.8742
-8 -20 -9 7.1733 1.6797
-8 -19 -18 -10.7714 21.7740
-8 -19 -17 -32.6536 -18.6806
-8 -19 -16 2.8394 -1.6664
-8 -19 -15 -7.4515 -9.8854
-8 -19 -14 -3.8106 -3.4918
-8 -19 -13 -9.3064 1.5370
-8 -19 -12 -4.2823 -8.7731
-8 -19 -11 -7.8051 -9.9497
-8 -19 -10 -7.8674 -2.3343
-8 -19 -9 12.7320 -15.4125
-8 -18 -17 -10.2424 -24.5826
-8 -18 -16 10.6569 -6.1079
-8 -18 -15 11.2721 -26.0666
-8 -18 -14 12.2460 -4.9539
-8 -18 -13 -7.4356 11.6901
-8 -18 -12 -18.5622 -7.9653
-8 -18 -11 -0.0546 -17.2926
-8 -18 -10 12.7479 -18.3027
-8 -18 -9 -10.8024 11.3113
-8 -17 -16 -16.6065 8.7403
-8 -17 -15 -4.9857 3.9787
-8 -17 -14 9.9850 1.3652
-8 -17 -13 5.0281 12.4841
-8 -17 -12 6.7459 0.9330
-8 -17 -11 -20.7081 10.4474
-8 -17 -10 -6.8064 -8.9064
-8 -17 -9 39.8377 -6.6432
-8 -16 -15 4.3720 -26.3736
-8 -16 -14 -31.0044 60.2778
-8 -16 -13 -8.7162 -24.0472
-8 -16 -12 -11.9033 -28.5748
-8 -16 -11 -1.5255 11.4005
-8 -16 -10 -15.1045 11.5213
-8 -16 -9 11.3949 7.2074
-8 -15 -14 -10.1197 -0.1655
-8 -15 -13 12.0503 -12.8330
-8 -15 -12 10.6532 3.5997
-8 -15 -11 -3.0194 8.7317
-8 -15 -10 7.8243 -18.8656
-8 -15 -9 -14.1680 -5.2164
-8 -14 -13 6.8534 0.3311
-8 -14 -12 -4.1165 25.2179
-8 -14 -11 -12.9846 12.6317
-8 -14 -10 -4.3713 -13.9770
-8 -14 -9 -4.6439 -5.0907
-8 -13 -12 -25.6247 -1.3178
-8 -13 -11 12.7247 -2.7087
-8 -13 -10 8.3805 -27.1713
-8 -13 -9 -38.5759 -10.9777
-8 -12 -11 -33.5486 19.7887
-8 -12 -10 39.3411 -23.4250
-8 -12 -9 5.2620 3.8497
-8 -11 -10 -23.0433 13.4686
-8 -11 -9 -7.2376 2.7698
-8 -10 -9 -10.2059 32.0965
-7 -37 -9 2.2878 18.2353
-7 -37 -8 -9.3368 -12.7086
-7 -36 -12 -5.6804 -3.1993
-7 -36 -11 -4.3619 6.7068
-7 -36 -10 6.3492 10.0603
-7 -36 -9 4.7762 5.5297
-7 -36 -8 -1.7138 3.8864
-7 -35 -15 6.7244 -8.2103
-7 -35 -14 -5.3695 9.6307
-7 -35 -13 -0.8153 2.6545
-7 -35 -12 22.9934 2.8080
-7 -35 -11 -14.6502 -0.9026
-7 -35 -10 -9.4201 9.5260
-7 -35 -9 -20.7186 2.6737
-7 -35 -8 -2.1012 0.9322
-7 -34 -17 4.1528 -19.4216
-7 -34 -16 -10.8157 17.4660
-7 -34 -15 -19.2374 12.1417
-7 -34 -14 -10.3285 -5.3800
-7 -34 -13 -20.5855 -0.1038
-7 -34 -12 -16.2025 12.4095
-7 -34 -11 19.2527 -5.3275
-7 -34 -10 -16.9940 15.7873
-7 -34 -9 -6.7195 8.9231
-7 -34 -8 -5.4513 30.4161
-7 -33 -19 -20.1729 25.2004
-7 -33 -18 -5.4528 -3.5887
-7 -33 -17 -5.7340 7.3770
-7 -33 -16 -2.7252 16.0317
-7 -33 -15 9.6399 -1.2605
-7 -33 -14 14.2857 -22.0395
-7 -33 -13 0.1224 -18.4911
-7 -33 -12 -7.1307 -6.3007
-7 -33 -11 -8.2664 -10.0714
-7 -33 -10 8.0283 17.5340
-7 -33 -9 -11.5777 -17.1144
-7 -33 -8 22.6591 -2.6236
-7 -32 -20 -13.7010 -3.2843
-7 -32 -19 11.9419 -24.7571
-7 -32 -18 4.0430 -13.7480
-7 -32 -17 8.3702 5.7397
-7 -32 -16 8.4025 4.8754
-7 -32 -15 -0.3350 -4.2896
-7 -32 -14 -16.3176 -19.7063
-7 -32 -13 -2.8535 20.2876
-7 -32 -12 -9.4885 9.6173
-7 -32 -11 -32.9349 1.1358
-7 -32 -10 15.6521 1.1800
-7 -32 -9 -2.6575 -4.2901
-7 -32 -8 27.8702 -38.6671
-7 -31 -22 -3.1287 8.4167
-7 -31 -21 2.0217 -3.8071
-7 -31 -20 22.6785 4.3774
-7 -31 -19 -7.6523 -17.9428
-7 -31 -18 -6.1807 -11.2007
-7 -31 -17 15.7793 -10.7252
-7 -31 -16 27.3089 13.9264
-7 -31 -15 -25.2905 -7.0271
-7 -31 -14 -3.5061 1.7432
-7 -31 -13 -6.5799 6.0753
-7 -31 -12 2.3839 17.7069
-7 -31 -11 11.3950 -30.3456
-7 -31 -10 -26.6559 8.7209
-7 -31 -9 2.1660 4.2317
-7 -31 -8 -10.0159 8.7201
-7 -30 -23 16.8883 -3.1771
-7 -30 -22 -8.9808 -23.4707
-7 -30 -21 -11.5798 -23.1806
-7 -30 -20 15.3622 23.0640
-7 -30 -19 -11.7637 16.1563
-7 -30 -18 -0.3056 -13.8290
-7 -30 -17 -22.6492 10.5426
-7 -30 -16 2.3086 29.3174
-7 -30 -15 7.2014 -11.2930
-7 -30 -14 8.7660 29.4671
-7 -30 -13 -25.0747 10.8392
-7 -30 -12 -21.0183 2.1280
-7 -30 -11 35.1013 -19.6690
-7 -30 -10 -6.7331 -3.9820
-7 -30 -9 5.1936 -1.6211
-7 -30 -8 14.9594 -4.9296
-7 -29 -24 11.6230 -2.6528
-7 -29 -23 -24.7088 17.5608
-7 -29 -22 -11.1785 1.7217
-7 -29 -21 -5.4031 9.6820
-7 -29 -20 -17.2683 5.4801
-7 -29 -19 -14.4834 -6.6372
-7 -29 -18 -24.0573 -5.6208
-7 -29 -17 21.5758 24.1113
-7 -29 -16 -8.3254 16.7586
-7 -29 -15 -1.7935 -7.0261
-7 -29 -14 -10.7329 -28.7062
-7 -29 -13 -27.8820 22.5878
-7 -29 -12 -16.5336 -35.8705
-7 -29 -11 -16.4731 -39.5556
-7 -29 -10 5.6282 37.7774
-7 -29 -9 8.0789 -1.2633
-7 -29 -8 -20.2722 -4.1261
-7 -28 -25 12.0937 14.5564
-7 -28 -24 -27.5301 1.9976
-7 -28 -23 -17.0155 16.8632
-7 -28 -22 6.4103 5.4188
-7 -28 -21 -0.6960 23.3574
-7 -28 -20 -3.2882 -2.1621
-7 -28 -19 -3.6396 9.9072
-7 -28 -18 -3.3883 -35.3272
-7 -28 -17 29.7004 6.5715
-7 -28 -16 -4.2396 6.1343
-7 -28 -15 -0.6368 10.4950
-7 -28 -14 -5.3032 -9.1042
-7 -28 -13 5.2413 25.4923
-7 -28 -12 7.8147 -4.2671
-7 -28 -11 4.1033 0.5954
-7 -28 -10 11.8491 -10.3779
-7 -28 -9 14.1690 -21.9959
-7 -28 -8 -13.3750 24.5963
-7 -27 -26 -20.5954 -16.9554
-7 -27 -25 -8.7294 -2.3761
-7 -27 -24 -0.5300 140.5144
-7 -27 -23 -8.0492 0.3253
-7 -27 -22 -4.4247 -4.4554
-7 -27 -21 2.2107 22.3522
-7 -27 -20 24.5373 0.5596
-7 -27 -19 -18.0081 -10.2880
-7 -27 -18 21.6412 -21.8865
-7 -27 -17 -27.8469 52.0941
-7 -27 -16 -11.0197 -10.8981
-7 -27 -15 -20.9133 -23.5998
-7 -27 -14 -29.6026 5.3406
-7 -27 -13 11.5642 4.4151
-7 -27 -12 13.9454 -3.3244
-7 -27 -11 18.3255 -18.2728
-7 -27 -10 -4.1274 -2.3656
-7 -27 -9 -3.6731 -29.6010
-7 -27 -8 19.4783 -2.3217
-7 -26 -25 74.6465 -125.7453
-7 -26 -24 6.8906 5.3241
-7 -26 -23 -36.1423 -30.1790
-7 -26 -22 19.8842 -44.0064
-7 -26 -21 31.6674 -5.3838
-7 -26 -20 -13.0183 -24.0348
-7 -26 -19 16.0494 28.9860
-7 -26 -18 -3.5195 15.2329
-7 -26 -17 1.7449 -2.4778
-7 -26 -16 -12.7319 1.3622
-7 -26 -15 -37.7127 -20.2690
-7 -26 -14 -43.4527 25.8408
-7 -26 -13 33.4580 -24.0267
-7 -26 -12 -44.6764 18.9843
-7 -26 -11 9.9666 -21.6636
-7 -26 -10 7.2481 -17.6157
-7 -26 -9 -23.1926 0.2992
-7 -26 -8 29.5614 -12.0071
-7 -25 -24 -9.1273 14.1478
-7 -25 -23 4.4451 15.1916
-7 -25 -22 -9.5680 30.6505
-7 -25 -21 -24.3802 -14.3154
-7 -25 -20 -12.8654 13.3607
-7 -25 -19 19.4991 7.2436
-7 -25 -18 -44.3038 22.4434
-7 -25 -17 20.0606 -29.7120
-7 -25 -16 18.0096 -26.1923
-7 -25 -15 7.7314 -19.5398
-7 -25 -14 -6.8769 -34.9189
-7 -25 -13 0.9838 -18.5590
-7 -25 -12 13.4392 -17.4025
-7 -25 -11 32.8431 17.0827
-7 -25 -10 3.8889 -5.9318
-7 -25 -9 3.6748 -3.4382
-7 -25 -8 -2.1226 -9.1576
-7 -24 -23 32.2333 -23.4487
-7 -24 -22 8.5030 -2.8487
-7 -24 -21 -37.6088 1.7949
-7 -24 -20 18.3481 -17.3657
-7 -24 -19 13.6652 -2.7085
-7 -24 -18 22.2138 1.4875
-7 -24 -17 -14.4515 14.7462
-7 -24 -16 16.9850 12.0609
-7 -24 -15 20.6504 25.5641
-7 -24 -14 -7.7201 -23.7843
-7 -24 -13 13.0514 -7.5428
-7 -24 -12 -7.8285 -0.3010
-7 -24 -11 -8.8031 3.3318
-7 -24 -10 15.4122 15.5496
-7 -24 -9 -1.8354 22.5050
-7 -24 -8 9.6387 -11.9700
-7 -23 -22 17.1113 55.9427
-7 -23 -21 27.1317 -20.8416
-7 -23 -20 8.9674 -2.8152
-7 -23 -19 -15.0078 -4.2169
-7 -23 -18 2.0481 28.2310
-7 -23 -17 -23.5375 16.6746
-7 -23 -16 -9.7133 -18.2709
-7 -23 -15 -25.9746 -8.6865
-7 -23 -14 2.9363 -3.5001
-7 -23 -13 -6.6003 18.0335
-7 -23 -12 -19.3828 1.7194
-7 -23 -11 7.8859 13.6052
-7 -23 -10 -8.2226 27.8260
-7 -23 -9 -5.2545 2.8819
-7 -23 -8 7.7083 -9.9432
-7 -22 -21 -2.9562 -0.4948
-7 -22 -20 11.1659 37.7519
-7 -22 -19 -19.1944 -19.4637
-7 -22 -18 23.3499 5.7244
-7 -22 -17 -23.9989 16.5137
-7 -22 -16 -22.9181 12.4011
-7 -22 -15 3.4400 -17.9962
-7 -22 -14 -18.4926 30.6686
-7 -22 -13 24.9845 27.7851
-7 -22 -12 7.4768 -3.0509
-7 -22 -11 2.0608 -4.0960
-7 -22 -10 -4.9676 16.8465
-7 -22 -9 -33.3891 -17.0738
-7 -22 -8 1.4206 -6.4112
-7 -21 -20 2.2991 28.2465
-7 -21 -19 10.1309 34.3015
-7 -21 -18 -30.7706 -0.6934
-7 -21 -17 14.1631 13.5280
-7 -21 -16 -2.5414 -1.0311
-7 -21 -15 -2.5092 6.5272
-7 -21 -14 -16.8538 -5.1851
-7 -21 -13 5.5397 16.9631
-7 -21 -12 -4.1174 -16.4986
-7 -21 -11 26.4501 -14.1625
-7 -21 -10 4.5384 19.0649
-7 -21 -9 -13.7160 -3.7812
-7 -21 -8 6.0662 28.5354
-7 -20 -19 20.9893 -2.8138
-7 -20 -18 10.1038 -9.1194
-7 -20 -17 -11.7450 17.8821
-7 -20 -16 -13.2367 4.3054
-7 -20 -15 3.4613 23.3788
-7 -20 -14 -10.2613 15.3227
-7 -20 -13 18.9092 12.5509
-7 -20 -12 13.0103 -2.5494
-7 -20 -11 -38.4436 -10.6582
-7 -20 -10 3.4936 12.7659
-7 -20 -9 -5.4189 -10.5045
-7 -20 -8 2.8297 -13.7320
-7 -19 -18 -10.6222 -9.1932
-7 -19 -17 8.7650 -44.1772
-7 -19 -16 -40.9245 -45.3117
-7 -19 -15 -21.9552 -1.7359
-7 -19 -14 5.4878 -0.2867
-7 -19 -13 -9.1887 8.3940
-7 -19 -12 7.4412 24.6749
-7 -19 -11 12.4530 -16.1672
-7 -19 -10 1.4864 1.2421
-7 -19 -9 -4.7669 -10.0052
-7 -19 -8 -25.1761 -0.2784
-7 -18 -17 -24.3583 -19.5150
-7 -18 -16 -2.4731 13.8716
-7 -18 -15 -8.5334 7.3899
-7 -18 -14 -2.6069 8.7833
-7 -18 -13 -14.7861 -16.4670
-7 -18 -12 7.1351 10.0297
-7 -18 -11 -12.4427 -13.1825
-7 -18 -10 -3.1452 -37.7634
-7 -18 -9 -6.1169 -3.2991
-7 -18 -8 -9.5968 -4.0345
-7 -17 -16 -21.5453 5.6771
-7 -17 -15 5.4683 14.0557
-7 -17 -14 17.4929 1.9634
-7 -17 -13 11.0003 -3.2026
-7 -17 -12 -11.4857 -15.0184
-7 -17 -11 10.7670 11.0635
-7 -17 -10 -9.6689 -34.3829
-7 -17 -9 -11.8964 5.7683
-7 -17 -8 0.0275 50.8742
-7 -16 -15 -3.0934 27.6995
-7 -16 -14 5.1188 -9.3893
-7 -16 -13 -9.5747 7.5592
-7 -16 -12 1.4859 -16.0151
-7 -16 -11 32.2796 28.4051
-7 -16 -10 -28.2240 9.7476
-7 -16 -9 6.8076 21.7848
-7 -16 -8 10.8276 -4.4277
-7 -15 -14 -5.9020 18.4553
-7 -15 -13 14.0399 13.6507
-7 -15 -12 13.2023 -9.6981
-7 -15 -11 -14.3458 -8.9887
-7 -15 -10 3.9730 18.2336
-7 -15 -9 -12.0938 -8.1367
-7 -15 -8 -12.4876 -10.8412
-7 -14 -13 2.8925 -2.9533
-7 -14 -12 0.3652 1.7176
-7 -14 -11 5.3004 -9.1094
-7 -14 -10 -11.8957 13.6141
-7 -14 -9 41.5077 3.4020
-7 -14 -8 21.5322 19.9318
-7 -13 -12 13.7850 20.5291
-7 -13 -11 -6.0666 -11.4628
-7 -13 -10 -22.9329 -0.7532
-7 -13 -9 13.5829 15.1282
-7 -13 -8 -2.4436 -21.0563
-7 -12 -11 0.7361 10.0083
-7 -12 -10 -2.5331 4.3275
-7 -12 -9 -22.2681 5.8499
-7 -12 -8 -34.9604 -12.8615
-7 -11 -10 -6.5701 9.4478
-7 -11 -9 22.5621 -27.7696
-7 -11 -8 12.5642 -11.2732
-7 -10 -9 -15.5938 -5.2891
-7 -10 -8 -25.5307 -48.1073
-7 -9 -8 21.9107 21.0720
-6 -37 -9 8.5243 3.2765
-6 -37 -8 -5.1384 -8.8010
-6 -37 -7 -15.1592 -13.1589
-6 -36 -12 -9.7621 4.5682
-6 -36 -11 6.7804 -10.1807
-6 -36 -10 0.4936 13.7610
-6 -36 -9 11.3949 -5.2992
-6 -36 -8 -10.9713 14.8786
-6 -36 -7 -2.1350 4.5371
-6 -35 -15 5.6254 3.6298
-6 -35 -14 10.9598 -25.7372
-6 -35 -13 7.2367 13.4897
-6 -35 -12 -24.6443 -17.6415
-6 -35 -11 -5.9725 32.1830
-6 -35 -10 8.8273 -6.9929
-6 -35 -9 -7.6882 7.7728
-6 -35 -8 0.1329 9.2028
-6 -35 -7 3.3321 -0.3176
-6 -34 -17 -3.5754 -7.0790
-6 -34 -16 -6.7206 10.6756
-6 -34 -15 -0.3276 -21.9447
-6 -34 -14 8.3675 17.8389
-6 -34 -13 -3.6707 3.0978
-6 -34 -12 3.6541 -8.0546
-6 -34 -11 9.0594 -4.3925
-6 -34 -10 -13.4205 17.8483
-6 -34 -9 -15.2830 13.4338
-6 -34 -8 2.0387 -18.6556
-6 -34 -7 15.9099 -18.5646
-6 -33 -19 -3.2113 -1.9685
-6 -33 -18 5.4882 -0.3118
-6 -33 -17 4.7051 14.1541
-6 -33 -16 2.6282 1.0456
-6 -33 -15 -14.3199 7.5151
-6 -33 -14 13.5253 2.0539
-6 -33 -13 26.0370 10.1794
-6 -33 -12 -5.9411 10.7260
-6 -33 -11 -3.0826 -14.3982
-6 -33 -10 -6.0005 -21.0246
-6 -33 -9 -27.0840 -4.7138
-6 -33 -8 15.7275 -10.9356
-6 -33 -7 -2.1265 6.8585
-6 -32 -20 -15.3469 -0.1837
-6 -32 -19 9.7503 -6.7762
-6 -32 -18 -5.4598 5.3923
-6 -32 -17 12.7033 -1.1256
-6 -32 -16 -4.0648 2.7087
-6 -32 -15 3.8769 6.5436
-6 -32 -14 28.6184 -2.7612
-6 -32 -13 -7.9078 -8.9182
-6 -32 -12 9.6167 -8.1757
-6 -32 -11 -11.8265 -4.0718
-6 -32 -10 -14.3516 -11.4270
-6 -32 -9 -4.1570 7.7080
-6 -32 -8 -14.6820 -9.4148
-6 -32 -7 15.5561 9.6001
-6 -31 -22 -19.2569 -5.8304
-6 -31 -21 -2.7478 -2.9214
-6 -31 -20 -12.5779 -0.9036
-6 -31 -19 -3.5346 -12.0371
-6 -31 -18 3.5658 -1.3394
-6 -31 -17 -1.1952 -0.1624
-6 -31 -16 12.8170 4.5742
-6 -31 -15 26.9732 22.7376
-6 -31 -14 -26.6136 3.2706
-6 -31 -13 -11.8852 -1.3447
-6 -31 -12 -1.6806 -2.0757
-6 -31 -11 16.4591 16.4846
-6 -31 -10 7.0153 9.0800
-6 -31 -9 -15.5722 -21.5473
-6 -31 -8 16.0549 0.7189
-6 -31 -7 -11.7096 -6.1011
-6 -30 -23 -8.3399 18.9777
-6 -30 -22 -6.5536 -6.2228
-6 -30 -21 18.9099 -0.8558
-6 -30 -20 3.9366 20.7647
-6 -30 -19 14.3495 -10.7454
-6 -30 -18 12.2874 -10.8110
-6 -30 -17 22.2498 -5.5384
-6 -30 -16 -20.2558 -12.3128
-6 -30 -15 6.2561 13.4353
-6 -30 -14 -19.8517 -7.4694
-6 -30 -13 15.1173 4.5675
-6 -30 -12 1.8874 -8.1529
-6 -30 -11 -31.6221 -28.9469
-6 -30 -10 0.4486 -6.0211
-6 -30 -9 -12.7691 -19.2799
-6 -30 -8 7.9377 38.2893
-6 -30 -7 -6.5793 11.0685
-6 -29 -24 -2.0347 16.1020
-6 -29 -23 2.4392 -14.7135
-6 -29 -22 -13.8191 -2.9471
-6 -29 -21 9.8342 -7.5863
-6 -29 -20 -15.8445 -16.3279
-6 -29 -19 -5.0137 3.2619
-6 -29 -18 10.4335 -3.5453
-6 -29 -17 12.9202 22.9700
-6 -29 -16 -23.4257 13.2934
-6 -29 -15 8.6364 29.3339
-6 -29 -14 -10.6361 -3.6487
-6 -29 -13 -42.3425 -9.1093
-6 -29 -12 -4.6065 -23.3567
-6 -29 -11 -17.1519 1.9740
-6 -29 -10 -10.6944 -4.5573
-6 -29 -9 0.6287 28.4833
-6 -29 -8 -9.8908 -28.8745
-6 -29 -7 7.6336 -32.2116
-6 -28 -26 13.4761 5.3934
-6 -28 -25 -0.3439 23.5566
-6 -28 -24 -2.3199 -24.7832
-6 -28 -23 -23.7651 12.7703
-6 -28 -22 -0.7594 16.5926
-6 -28 -21 38.3140 -26.0145
-6 -28 -20 -19.5113 4.1364
-6 -28 -19 2.0329 1.1737
-6 -28 -18 9.3710 13.9715
-6 -28 -17 -43.1244 13.2944
-6 -28 -16 -16.2962 6.9997
-6 -28 -15 -7.9063 10.0700
-6 -28 -14 -45.0644 -3.9395
-6 -28 -13 -42.7530 -4.3640
-6 -28 -12 37.3083 -16.9854
-6 -28 -11 -1.5225 7.5946
-6 -28 -10 -16.3002 -18.1876
-6 -28 -9 5.0951 -15.0999
-6 -28 -8 6.4915 -11.3821
-6 -28 -7 1.3069 -34.4516
-6 -27 -26 -15.4473 -11.4460
-6 -27 -25 1.3084 -14.1783
-6 -27 -24 12.3448 -5.3670
-6 -27 -23 -4.0283 19.5101
-6 -27 -22 -1.6550 -5.6811
-6 -27 -21 24.8481 22.5916
-6 -27 -20 13.2289 -17.6464
-6 -27 -19 -1.2717 2.3133
-6 -27 -18 -20.5766 18.9588
-6 -27 -17 6.5972 -23.7212
-6 -27 -16 -4.0615 -4.4699
-6 -27 -15 42.2911 -30.7853
-6 -27 -14 10.1915 -21.8592
-6 -27 -13 15.3336 11.5508
-6 -27 -12 5.1377 -17.2868
-6 -27 -11 -21.3949 14.5006
-6 -27 -10 12.2195 18.2190
-6 -27 -9 -1.0930 -16.0495
-6 -27 -8 12.6877 11.3462
-6 -27 -7 30.7652 -39.5852
-6 -26 -25 -12.6051 2.6321
-6 -26 -24 -13.0983 -3.2106
-6 -26 -23 -11.2295 8.7451
-6 -26 -22 13.5499 11.5004
-6 -26 -21 -33.5272 24.8508
-6 -26 -20 2.4236 -6.8950
-6 -26 -19 3.6374 14.3543
-6 -26 -18 -13.7333 9.0734
-6 -26 -17 0.4067 -25.4661
-6 -26 -16 -15.6083 15.8566
-6 -26 -15 8.1487 -10.1818
-6 -26 -14 3.2648 11.0239
-6 -26 -13 -4.2370 -46.7916
-6 -26 -12 14.3664 -0.7721
-6 -26 -11 26.5374 -14.1993
-6 -26 -10 -7.0545 3.6395
-6 -26 -9 -2.5073 12.8222
-6 -26 -8 7.0139 -18.3795
-6 -26 -7 -1.1815 -13.7770
-6 -25 -24 7.3896 -31.8478
-6 -25 -23 -31.6801 -17.8434
-6 -25 -22 12.4095 13.0724
-6 -25 -21 2.3252 -6.0919
-6 -25 -20 -25.8842 -12.3551
-6 -25 -19 17.5729 35.7131
-6 -25 -18 0.9936 -9.0194
-6 -25 -17 -25.0108 -17.8565
-6 -25 -16 -5.5858 22.4838
-6 -25 -15 -30.5066 33.4394
-6 -25 -14 8.9583 6.1855
-6 -25 -13 -10.1325 24.9065
-6 -25 -12 -2.5953 -12.5466
-6 -25 -11 -7.8618 -25.1331
-6 -25 -10 35.4276 -19.5047
-6 -25 -9 -8.5123 4.5069
-6 -25 -8 -10.3545 28.3475
-6 -25 -7 35.1827 26.6007
-6 -24 -23 -8.2924 -6.2491
-6 -24 -22 30.1693 -12.6378
-6 -24 -21 -8.5097 -12.5133
-6 -24 -20 -4.9569 -21.6351
-6 -24 -19 2.8556 -0.2665
-6 -24 -18 6.1021 2.6765
-6 -24 -17 -25.4022 37.6659
-6 -24 -16 -31.3401 -2.7225
-6 -24 -15 -9.9534 -34.5196
-6 -24 -14 -14.2261 18.4393
-6 -24 -13 -23.6737 -14.8997
-6 -24 -12 10.4952 11.5252
-6 -24 -11 -4.6128 38.8500
-6 -24 -10 1.1665 -5.5331
-6 -24 -9 -12.5016 -15.5825
-6 -24 -8 1.7525 0.7195
-6 -24 -7 -4.0852 -4.0325
-6 -23 -22 -3.9614 -24.6997
-6 -23 -21 17.1852 -12.9528
-6 -23 -20 5.2797 16.4444
-6 -23 -19 26.6908 21.4093
-6 -23 -18 -16.3909 -2.0310
-6 -23 -17 39.6926 0.4292
-6 -23 -16 -43.6003 17.7587
-6 -23 -15 5.3744 3.6376
-6 -23 -14 47.6285 1.7470
-6 -23 -13 -16.5780 28.8184
-6 -23 -12 7.0674 -21.3547
-6 -23 -11 -7.2803 -9.2017
-6 -23 -10 -0.7843 10.1667
-6 -23 -9 22.3549 -27.9240
-6 -23 -8 -8.4188 -3.4514
-6 -23 -7 8.1211 8.8336
-6 -22 -21 -34.9557 -4.2564
-6 -22 -20 30.1123 -0.6434
-6 -22 -19 -50.3111 -0.0643
-6 -22 -18 -11.4485 -5.9328
-6 -22 -17 3.1305 -7.2433
-6 -22 -16 -20.7678 6.9438
-6 -22 -15 19.8938 -9.9242
-6 -22 -14 11.5232 -15.9107
-6 -22 -13 4.0859 2.3632
-6 -22 -12 -20.2809 22.5308
-6 -22 -11 34.4594 -14.4325
-6 -22 -10 -0.3763 7.0601
-6 -22 -9 -0.2567 -11.0855
-6 -22 -8 23.9629 -17.2052
-6 -22 -7 0.1964 5.7694
-6 -21 -20 5.4288 -10.8191
-6 -21 -19 2.0373 -24.7579
-6 -21 -18 -33.2658 -31.2245
-6 -21 -17 19.7779 13.6453
-6 -21 -16 -5.1383 -27.1175
-6 -21 -15 3.2239 16.0446
-6 -21 -14 -1.8612 2.6018
-6 -21 -13 -8.3649 16.4402
-6 -21 -12 -10.9303 4.9954
-6 -21 -11 -19.7856 0.0663
-6 -21 -10 -6.0163 -9.7310
-6 -21 -9 -15.8676 -37.2500
-6 -21 -8 5.6578 8.4228
-6 -21 -7 -3.3398 5.1944
-6 -20 -19 -12.9295 -14.1178
-6 -20 -18 -3.2795 21.8309
-6 -20 -17 -1.2146 -16.4251
-6 -20 -16 -17.6462 28.8921
-6 -20 -15 -2.0760 -2.1087
-6 -20 -14 8.7790 -14.9660
-6 -20 -13 -23.8979 18.6582
-6 -20 -12 15.7714 1.7323
-6 -20 -11 -12.5663 -19.7909
-6 -20 -10 -13.0354 0.2195
-6 -20 -9 -10.5132 20.2575
-6 -20 -8 41.0553 -18.8633
-6 -20 -7 2.9084 24.7301
-6 -19 -18 -3.9315 -20.7630
-6 -19 -17 14.6716 49.0102
-6 -19 -16 10.3662 -3.7703
-6 -19 -15 28.4775 14.8104
-6 -19 -14 1.3883 -10.7530
-6 -19 -13 8.6430 -5.0809
-6 -19 -12 2.4836 8.5032
-6 -19 -11 -22.9750 -7.6814
-6 -19 -10 15.6711 4.1607
-6 -19 -9 24.4899 -13.7028
-6 -19 -8 -8.2876 0.5776
-6 -19 -7 10.6593 -3.9391
-6 -18 -17 -12.1220 13.9158
-6 -18 -16 -7.5029 16.8039
-6 -18 -15 -17.6471 -3.9026
-6 -18 -14 -17.1685 6.0662
-6 -18 -13 26.4502 17.2212
-6 -18 -12 33.8919 -15.7381
-6 -18 -11 5.5668 -14.8344
-6 -18 -10 1.9725 22.5518
-6 -18 -9 -0.5990 12.7114
-6 -18 -8 -45.0440 4.3803
-6 -18 -7 -35.9836 24.4529
-6 -17 -16 22.1758 -11.4003
-6 -17 -15 22.5021 8.2882
-6 -17 -14 -8.7878 -29.8197
-6 -17 -13 8.5070 -13.6478
-6 -17 -12 0.9764 6.2641
-6 -17 -11 4.3975 -2.5415
-6 -17 -10 18.1556 22.1919
-6 -17 -9 0.7388 18.5117
-6 -17 -8 17.7582 -13.6687
-6 -17 -7 -19.2425 -6.3594
-6 -16 -15 21.6711 -5.5866
-6 -16 -14 2.3359 -1.9775
-6 -16 -13 4.2758 -15.8548
-6 -16 -12 21.5084 2.9766
-6 -16 -11 19.3017 18.2353
-6 -16 -10 5.6171 17.9086
-6 -16 -9 -7.8692 7.3565
-6 -16 -8 -18.2498 -17.6139
-6 -16 -7 18.1814 5.7666
-6 -15 -14 17.5941 -14.7779
-6 -15 -13 15.5906 0.7743
-6 -15 -12 -20.6680 21.8216
-6 -15 -11 0.1685 -1.4652
-6 -15 -10 -21.0817 -10.6086
-6 -15 -9 -39.2364 -48.5417
-6 -15 -8 9.8382 -8.9290
-6 -15 -7 -11.4005 -17.9623
-6 -14 -13 -0.8449 29.6626
-6 -14 -12 8.5598 35.6270
-6 -14 -11 -4.4766 -15.3772
-6 -14 -10 -14.2219 3.8659
-6 -14 -9 -3.2702 -3.1846
-6 -14 -8 -11.3821 -31.2245
-6 -14 -7 -10.2771 9.4027
-6 -13 -12 -25.9879 36.4983
-6 -13 -11 11.8103 3.1315
-6 -13 -10 5.1862 -7.5723
-6 -13 -9 29.9526 -12.6075
-6 -13 -8 -22.4707 25.3802
-6 -13 -7 15.4802 34.3972
-6 -12 -11 16.3724 -5.4957
-6 -12 -10 -45.7229 -5.3148
-6 -12 -9 11.9427 -23.8334
-6 -12 -8 -22.7031 10.4097
-6 -12 -7 -4.2701 3.2500
-6 -11 -10 60.5903 -14.5141
-6 -11 -9 1.5887 7.5891
-6 -11 -8 32.9617 -6.4857
-6 -11 -7 -18.5261 -32.2396
-6 -10 -9 -22.7859 9.0330
-6 -10 -8 -32.9508 19.2419
-6 -10 -7 0.0853 1.2516
-6 -9 -8 -3.0031 24.5704
-6 -9 -7 17.8228 -35.1319
-6 -8 -7 -86.7320 -16.7639
-5 -37 -10 4.9838 -9.9235
-5 -37 -9 10.0637 5.3186
-5 -37 -8 2.1495 -9.1745
-5 -37 -7 4.8165 -6.8602
-5 -37 -6 -2.7604 -3.4988
-5 -36 -13 11.9508 10.5329
-5 -36 -12 2.9141 -4.7936
-5 -36 -11 -3.1169 1.1589
-5 -36 -10 -0.9776 0.5071
-5 -36 -9 -13.1332 7.3931
-5 -36 -8 4.0955 3.3671
-5 -36 -7 -4.7488 -5.3286
-5 -36 -6 -13.0075 -4.1684
-5 -35 -15 16.5129 -8.2030
-5 -35 -14 10.4054 3.1415
-5 -35 -13 -21.5080 1.4078
-5 -35 -12 -4.1297 -3.5038
-5 -35 -11 -1.4759 -19.8699
-5 -35 -10 -5.1352 13.2660
-5 -35 -9 6.9569 -9.1400
-5 -35 -8 -13.1647 -14.2156
-5 -35 -7 -11.4267 -12.0414
-5 -35 -6 10.7395 0.5185
-5 -34 -17 13.5044 -0.5367
-5 -34 -16 -2.1432 14.7773
-5 -34 -15 -8.8341 5.2420
-5 -34 -14 -3.1368 5.1427
-5 -34 -13 7.4069 -26.6204
-5 -34 -12 -8.9189 -19.9481
-5 -34 -11 4.8946 7.9447
-5 -34 -10 15.7638 4.3698
-5 -34 -9 20.5483 -1.1669
-5 -34 -8 -15.5415 -9.7896
-5 -34 -7 -10.6908 -8.8452
-5 -34 -6 -4.7373 3.6484
-5 -33 -19 3.9697 -10.9526
-5 -33 -18 6.6692 -17.6114
-5 -33 -17 4.1935 -2.9280
-5 -33 -16 5.3460 14.2370
-5 -33 -15 -0.3044 9.4566
-5 -33 -14 -0.8850 -17.4748
-5 -33 -13 -18.5885 5.7416
-5 -33 -12 -1.3194 -11.7956
-5 -33 -11 -4.6604 -5.9137
-5 -33 -10 15.7748 13.2275
-5 -33 -9 -10.3828 -5.9322
-5 -33 -8 -5.0434 10.0198
-5 -33 -7 -13.0408 -6.5816
-5 -33 -6 -10.4768 -0.4346
-5 -32 -21 -11.2807 -12.8494
-5 -32 -20 5.3511 -3.8710
-5 -32 -19 -7.2074 -22.2904
-5 -32 -18 -4.3968 32.0316
-5 -32 -17 5.8954 8.9978
-5 -32 -16 17.3966 -5.6176
-5 -32 -15 19.7270 4.6892
-5 -32 -14 -22.1702 1.8708
-5 -32 -13 -25.3882 -5.8165
-5 -32 -12 0.5868 -18.2593
-5 -32 -11 7.2838 -3.5807
-5 -32 -10 -25.8695 29.2218
-5 -32 -9 -2.2672 7.4661
-5 -32 -8 -11.2642 -8.4878
-5 -32 -7 18.7865 19.2389
-5 -32 -6 20.5824 0.5317
-5 -31 -22 13.5314 -5.3498
-5 -31 -21 -5.1809 4.8459
-5 -31 -20 10.8186 -7.1623
-5 -31 -19 25.9931 -6.6156
-5 -31 -18 10.7899 9.6806
-5 -31 -17 14.1571 11.3500
-5 -31 -16 10.8049 28.4767
-5 -31 -15 -10.3206 -14.3084
-5 -31 -14 -18.7435 -5.5326
-5 -31 -13 7.5802 8.1445
-5 -31 -12 -17.3569 -10.1347
-5 -31 -11 12.8519 27.4124
-5 -31 -10 6.6835 -38.0760
-5 -31 -9 24.2017 13.1187
-5 -31 -8 4.3130 -12.6419
-5 -31 -7 12.0936 4.3013
-5 -31 -6 -23.9870 1.2168
-5 -30 -23 -25.4208 9.0591
-5 -30 -22 16.5583 24.2581
-5 -30 -21 12.2944 3.1824
-5 -30 -20 3.8099 23.6534
-5 -30 -19 7.0918 -37.2631
-5 -30 -18 8.0355 -1.3249
-5 -30 -17 -1.2684 11.6135
-5 -30 -16 4.9449 11.8458
-5 -30 -15 -4.9011 3.7896
-5 -30 -14 27.9597 -4.9097
-5 -30 -13 -28.7927 7.7296
-5 -30 -12 8.9509 -5.0791
-5 -30 -11 14.6849 -10.1044
-5 -30 -10 4.2139 29.6035
-5 -30 -9 5.5149 3.3774
-5 -30 -8 -34.3686 3.1993
-5 -30 -7 -13.7035 8.7200
-5 -30 -6 -16.0902 10.9567
-5 -29 -25 -6.5457 7.7232
-5 -29 -24 11.2385 -6.4499
-5 -29 -23 -0.1478 -9.0394
-5 -29 -22 1.1330 -4.3944
-5 -29 -21 -10.0356 11.2502
-5 -29 -20 10.1022 12.6746
-5 -29 -19 6.6859 0.1386
-5 -29 -18 -0.1194 4.0856
-5 -29 -17 -24.1033 -21.2738
-5 -29 -16 -0.0391 -26.7304
-5 -29 -15 -20.5236 -9.3950
-5 -29 -14 -0.7853 38.5719
-5 -29 -13 22.6678 -20.7807
-5 -29 -12 -39.1093 -12.8425
-5 -29 -11 -3.6313 10.1124
-5 -29 -10 -12.6310 24.8460
-5 -29 -9 3.0616 -14.4472
-5 -29 -8 18.6700 5.7924
-5 -29 -7 7.7281 0.9085
-5 -29 -6 5.8275 -16.9572
-5 -28 -26 -3.4323 -14.5396
-5 -28 -25 5.1683 14.6630
-5 -28 -24 -12.8486 32.9736
-5 -28 -23 -13.0476 -15.0581
-5 -28 -22 20.5890 1.2369
-5 -28 -21 -2.9316 7.6936
-5 -28 -20 24.6597 2.3141
-5 -28 -19 -14.8459 8.6119
-5 -28 -18 30.3051 -7.9482
-5 -28 -17 0.6352 10.1960
-5 -28 -16 -26.8790 3.0150
-5 -28 -15 -21.9143 -3.2326
-5 -28 -14 2.5417 -16.6562
-5 -28 -13 -3.1037 -24.7509
-5 -28 -12 22.0389 -4.3167
-5 -28 -11 5.6215 6.4495
-5 -28 -10 25.2840 21.0068
-5 -28 -9 15.2016 -0.6870
-5 -28 -8 9.1759 -1.3436
-5 -28 -7 11.5887 1.4561
-5 -28 -6 -10.6301 0.1360
-5 -27 -26 32.4788 -11.6761
-5 -27 -25 -4.9978 8.7203
-5 -27 -24 -24.0287 -2.1690
-5 -27 -23 -19.9039 -4.5724
-5 -27 -22 6.7637 -33.2324
-5 -27 -21 11.6138 5.4282
-5 -27 -20 -3.0962 -5.8572
-5 -27 -19 -20.7018 17.0135
-5 -27 -18 -4.0037 3.9419
-5 -27 -17 -8.3953 -30.1340
-5 -27 -16 19.9296 16.5295
-5 -27 -15 -7.5487 -8.9486
-5 -27 -14 5.0776 -2.2919
-5 -27 -13 -3.2720 33.3257
-5 -27 -12 -12.3362 -16.5360
-5 -27 -11 -15.8135 0.5585
-5 -27 -10 -11.3771 -18.7404
-5 -27 -9 10.4440 -0.8665
-5 -27 -8 -4.6299 -12.2757
-5 -27 -7 16.4434 -33.9958
-5 -27 -6 16.1003 10.2588
-5 -26 -25 -14.2127 17.8424
-5 -26 -24 -18.6767 34.2444
-5 -26 -23 17.9652 -10.4872
-5 -26 -22 -5.6013 18.4215
-5 -26 -21 -32.0443 -21.0700
-5 -26 -20 8.6850 4.1471
-5 -26 -19 -6.3695 -12.7614
-5 -26 -18 -17.2831 24.0933
-5 -26 -17 -14.5510 -14.2945
-5 -26 -16 4.9172 -37.3826
-5 -26 -15 -43.1041 1.6229
-5 -26 -14 25.8014 -10.9225
-5 -26 -13 20.1868 4.4775
-5 -26 -12 -5.1742 32.4743
-5 -26 -11 17.2165 2.6114
-5 -26 -10 -8.4948 2.9044
-5 -26 -9 4.4007 -14.4969
-5 -26 -8 -22.2713 -6.6618
-5 -26 -7 -29.3404 -5.3291
-5 -26 -6 -6.7477 1.0573
-5 -25 -24 -13.1753 17.1821
-5 -25 -23 -15.5971 -1.4576
-5 -25 -22 0.9303 -13.0539
-5 -25 -21 -2.1387 4.1850
-5 -25 -20 -9.7282 0.5212
-5 -25 -19 -8.4166 6.6026
-5 -25 -18 -18.6627 -9.2465
-5 -25 -17 -3.2394 12.0627
-5 -25 -16 5.0657 9.0252
-5 -25 -15 -12.8353 22.3037
-5 -25 -14 -27.5730 13.9168
-5 -25 -13 2.7339 -6.8364
-5 -25 -12 6.9039 -4.1330
-5 -25 -11 -6.5892 27.0421
-5 -25 -10 6.9532 -26.0718
-5 -25 -9 12.6807 -2.4366
-5 -25 -8 6.6336 7.0868
-5 -25 -7 2.8345 -12.6883
-5 -25 -6 4.5086 -7.6200
-5 -24 -23 -18.8482 22.7298
-5 -24 -22 10.6463 2.3374
-5 -24 -21 0.4638 -1.0313
-5 -24 -20 6.2084 34.3529
-5 -24 -19 12.3508 14.0032
-5 -24 -18 -26.5192 31.8621
-5 -24 -17 -16.2190 -19.8169
-5 -24 -16 -44.9162 31.0679
-5 -24 -15 -1.9334 16.4969
-5 -24 -14 26.7583 2.1926
-5 -24 -13 1.4529 -19.6316
-5 -24 -12 19.0338 -1.5310
-5 -24 -11 0.6587 6.5454
-5 -24 -10 -18.0872 8.1966
-5 -24 -9 -12.1981 24.3841
-5 -24 -8 22.2772 -15.0364
-5 -24 -7 15.3893 18.9114
-5 -24 -6 18.7475 10.5412
-5 -23 -22 -11.9470 -8.8956
-5 -23 -21 -7.9880 -29.8141
-5 -23 -20 0.9056 -28.8735
-5 -23 -19 -15.1582 -9.4105
-5 -23 -18 1.3299 -2.4059
-5 -23 -17 -1.1428 4.0045
-5 -23 -16 -17.8192 14.7348
-5 -23 -15 -10.0645 3.0898
-5 -23 -14 13.0760 5.0347
-5 -23 -13 10.7266 -1.4398
-5 -23 -12 10.7123 -8.9489
-5 -23 -11 -8.9737 -1.7864
-5 -23 -10 -1.5088 12.3922
-5 -23 -9 -16.1429 2.3980
-5 -23 -8 12.1084 29.7948
-5 -23 -7 0.6170 -11.5180
-5 -23 -6 -9.3698 -34.8031
-5 -22 -21 -28.2825 36.8455
-5 -22 -20 15.9760 -14.0715
-5 -22 -19 -19.8398 5.5967
-5 -22 -18 11.6056 4.1865
-5 -22 -17 -7.0089 6.1926
-5 -22 -16 7.1753 -2.2217
-5 -22 -15 1.1717 6.7076
-5 -22 -14 6.6390 0.0018
-5 -22 -13 -28.1066 4.0454
-5 -22 -12 -12.9381 -14.0333
-5 -22 -11 17.4633 -19.7173
-5 -22 -10 -4.3843 1.7193
-5 -22 -9 -9.1193 41.5300
-5 -22 -8 27.7941 -12.7201
-5 -22 -7 1.2621 -3.7848
-5 -22 -6 -6.9443 -17.4196
-5 -21 -20 12.1553 -19.6983
-5 -21 -19 -21.2197 6.4840
-5 -21 -18 -4.5165 -0.0928
-5 -21 -17 -0.8330 -16.0087
-5 -21 -16 -24.6660 -20.0154
-5 -21 -15 10.7003 5.2339
-5 -21 -14 -6.7753 -15.8971
-5 -21 -13 -20.9695 12.5892
-5 -21 -12 11.6253 11.8146
-5 -21 -11 -6.1941 4.0131
-5 -21 -10 -0.7450 -11.0838
-5 -21 -9 15.6396 15.5911
-5 -21 -8 0.0148 -8.3786
-5 -21 -7 -22.3959 -15.1689
-5 -21 -6 7.8227 -1.4503
-5 -20 -19 -23.4742 -8.7646
-5 -20 -18 5.0119 11.3228
-5 -20 -17 -11.3150 -31.4835
-5 -20 -16 12.6115 10.5863
-5 -20 -15 0.6091 -42.7194
-5 -20 -14 18.5764 26.6366
-5 -20 -13 20.9976 -0.4781
-5 -20 -12 -4.3424 -11.0046
-5 -20 -11 -5.2793 5.4852
-5 -20 -10 4.4559 -17.1870
-5 -20 -9 8.6993 16.5097
-5 -20 -8 11.8958 -14.3811
-5 -20 -7 20.2751 -10.9800
-5 -20 -6 -17.6805 3.8373
-5 -19 -18 -3.4944 12.6522
-5 -19 -17 4.5424 -34.0598
-5 -19 -16 12.8341 34.8459
-5 -19 -15 8.5826 -1.1054
-5 -19 -14 27.5879 -21.4258
-5 -19 -13 14.2916 -7.1966
-5 -19 -12 -12.7799 -5.8845
-5 -19 -11 2.1906 4.4945
-5 -19 -10 7.8432 18.2006
-5 -19 -9 2.1827 22.4752
-5 -19 -8 -19.4359 16.2986
-5 -19 -7 -4.8219 -9.5542
-5 -19 -6 7.4053 11.2689
-5 -18 -17 11.5972 13.9812
-5 -18 -16 6.2401 13.0878
-5 -18 -15 15.0314 12.7165
-5 -18 -14 10.5121 7.3669
-5 -18 -13 7.2015 1.8682
-5 -18 -12 -8.0926 -16.8393
-5 -18 -11 10.6870 -13.2180
-5 -18 -10 8.8046 -15.1458
-5 -18 -9 -5.7305 -25.2967
-5 -18 -8 11.1534 5.7923
-5 -18 -7 0.6359 -6.3671
-5 -18 -6 -11.3537 -3.7103
-5 -17 -16 -0.0044 3.7071
-5 -17 -15 1.1004 -0.8299
-5 -17 -14 -6.6383 3.5225
-5 -17 -13 -12.6081 14.2334
-5 -17 -12 15.6208 20.4663
-5 -17 -11 4.1198 7.2903
-5 -17 -10 0.9095 -9.6383
-5 -17 -9 40.4355 15.0000
-5 -17 -8 -0.2545 6.9522
-5 -17 -7 -6.3943 0.7449
-5 -17 -6 -2.8094 6.6703
-5 -16 -15 0.7025 -19.8485
-5 -16 -14 -18.3664 28.4449
-5 -16 -13 -35.1746 5.1191
-5 -16 -12 4.8662 38.6211
-5 -16 -11 15.1803 -23.2357
-5 -16 -10 4.7913 -0.2357
-5 -16 -9 15.2827 -1.3723
-5 -16 -8 2.6994 -0.4926
-5 -16 -7 -8.0331 -14.5551
-5 -16 -6 7.6395 1.3539
-5 -15 -14 4.0800 27.3279
-5 -15 -13 13.2106 19.5239
-5 -15 -12 -7.1264 15.7613
-5 -15 -11 -8.2914 3.0286
-5 -15 -10 20.8377 -10.1447
-5 -15 -9 -17.6393 2.4184
-5 -15 -8 9.3934 -20.3487
-5 -15 -7 -10.8489 31.4925
-5 -15 -6 4.2143 33.0498
-5 -14 -13 6.8336 -17.4810
-5 -14 -12 -17.2409 75.6302
-5 -14 -11 -5.9394 -10.2733
-5 -14 -10 4.2072 11.7430
-5 -14 -9 24.8524 3.9697
-5 -14 -8 19.5452 15.1170
-5 -14 -7 29.4389 35.5338
-5 -14 -6 10.2533 -46.4825
-5 -13 -12 -0.9552 -6.4125
-5 -13 -11 -14.2018 -7.0007
-5 -13 -10 1.2180 9.2333
-5 -13 -9 -14.8563 13.7826
-5 -13 -8 -8.4662 -34.5375
-5 -13 -7 -15.9649 6.3461
-5 -13 -6 -9.9495 -32.4471
-5 -12 -11 -18.9681 9.3123
-5 -12 -10 -9.4655 47.8824
-5 -12 -9 0.6151 -15.6201
-5 -12 -8 20.2582 -30.7687
-5 -12 -7 13.7246 64.5718
-5 -12 -6 -14.4495 6.4581
-5 -11 -10 -4.2926 -5.0191
-5 -11 -9 -27.6904 9.8247
-5 -11 -8 11.7141 -24.1995
-5 -11 -7 -29.6423 57.8287
-5 -11 -6 2.4410 3.4325
-5 -10 -9 51.4326 14.4674
-5 -10 -8 -52.5552 -22.3461
-5 -10 -7 25.6326 14.0704
-5 -10 -6 -12.5223 8.4706
-5 -9 -8 16.0883 43.4409
-5 -9 -7 -59.8862 -17.3075
-5 -9 -6 -49.7259 56.6437
-5 -8 -7 11.4116 45.8463
-5 -8 -6 63.0424 32.0930
-5 -7 -6 11.3417 -16.6317
-4 -38 -6 -7.0117 13.1250
-4 -38 -5 1.8166 7.1970
-4 -37 -10 -7.3529 -7.5931
-4 -37 -9 3.4688 3.3638
-4 -37 -8 2.2928 -7.8237
-4 -37 -7 1.1867 -16.6694
-4 -37 -6 -6.8688 -8.3646
-4 -37 -5 4.5655 5.5968
-4 -36 -13 -2.9048 -16.9373
-4 -36 -12 -15.7393 -1.8451
-4 -36 -11 -12.2518 -3.9335
-4 -36 -10 18.5786 15.5309
-4 -36 -9 2.5330 -4.3143
-4 -36 -8 12.9017 -23.7407
-4 -36 -7 14.1070 -4.5585
-4 -36 -6 0.2819 6.5387
-4 -36 -5 15.8189 -2.0613
-4 -35 -16 19.8322 0.5629
-4 -35 -15 1.2396 -7.1909
-4 -35 -14 2.5724 6.6948
-4 -35 -13 -9.3790 -1.7312
-4 -35 -12 4.6866 9.3713
-4 -35 -11 9.2495 -12.8659
-4 -35 -10 -0.5886 -4.7761
-4 -35 -9 -5.6599 16.7021
-4 -35 -8 -19.3934 3.2640
-4 -35 -7 -4.1233 -14.1969
-4 -35 -6 3.8406 8.9786
-4 -35 -5 -10.8812 -10.4501
-4 -34 -18 12.1431 9.0463
-4 -34 -17 8.9062 3.2146
-4 -34 -16 0.8078 -8.0212
-4 -34 -15 -8.6599 -17.9897
-4 -34 -14 -0.7383 10.2411
-4 -34 -13 1.5158 12.7058
-4 -34 -12 6.6264 -4.9031
-4 -34 -11 15.2835 2.5062
-4 -34 -10 -3.7373 2.3472
-4 -34 -9 -12.3977 -9.4656
-4 -34 -8 10.8553 -13.6196
-4 -34 -7 -9.3853 -2.2603
-4 -34 -6 -16.5799 15.2325
-4 -34 -5 -13.2539 -0.2002
-4 -33 -19 8.0308 -16.3744
-4 -33 -18 7.5078 14.4015
-4 -33 -17 -8.7510 -11.3917
-4 -33 -16 2.6343 15.0779
-4 -33 -15 -5.5104 -9.1222
-4 -33 -14 -2.5221 -1.9836
-4 -33 -13 24.8261 -3.3536
-4 -33 -12 9.1428 1.3838
-4 -33 -11 4.6302 10.7670
-4 -33 -10 11.0528 6.6467
-4 -33 -9 -4.3456 11.5419
-4 -33 -8 -2.2345 -9.2928
-4 -33 -7 -13.4138 1.1594
-4 -33 -6 -10.4280 1.5580
-4 -33 -5 -14.7378 1.7314
-4 -32 -21 -5.5703 5.4615
-4 -32 -20 1.6130 13.3765
-4 -32 -19 -1.3281 -4.1423
-4 -32 -18 6.0326 -17.1096
-4 -32 -17 -24.5119 -3.8479
-4 -32 -16 -11.9220 -18.3179
-4 -32 -15 18.0281 10.2580
-4 -32 -14 -1.9595 13.8489
-4 -32 -13 -13.8264 -23.3266
-4 -32 -12 36.1672 -1.6812
-4 -32 -11 1.2547 39.5885
-4 -32 -10 1.2490 -26.7798
-4 -32 -9 -0.5158 2.1649
-4 -32 -8 12.4978 3.6961
-4 -32 -7 6.1981 13.7606
-4 -32 -6 2.6046 -0.7035
-4 -32 -5 -14.8895 4.5474
-4 -31 -22 12.4789 -19.7842
-4 -31 -21 19.8318 10.0695
-4 -31 -20 -1.9289 -12.0355
-4 -31 -19 4.9042 -1.8191
-4 -31 -18 -5.4951 -2.9827
-4 -31 -17 -3.3271 -5.7006
-4 -31 -16 12.0208 -5.2571
-4 -31 -15 -15.5299 3.6225
-4 -31 -14 -21.6067 15.1171
-4 -31 -13 6.9887 -2.6580
-4 -31 -12 10.7263 22.5816
-4 -31 -11 -6.8304 -0.6011
-4 -31 -10 -11.6423 18.0651
-4 -31 -9 -8.4805 1.0935
-4 -31 -8 -4.9657 21.7192
-4 -31 -7 9.4471 9.4609
-4 -31 -6 5.1715 -15.4214
-4 -31 -5 -6.2907 -11.3084
-4 -30 -24 -20.1657 -11.2924
-4 -30 -23 11.4914 -15.8445
-4 -30 -22 8.5541 -8.1286
-4 -30 -21 -6.3569 -26.9254
-4 -30 -20 31.1711 11.4170
-4 -30 -19 -22.4101 -12.0335
-4 -30 -18 -14.7704 7.3411
-4 -30 -17 15.6009 27.9163
-4 -30 -16 32.9237 -0.8832
-4 -30 -15 31.9614 16.2796
-4 -30 -14 -4.1472 -15.2841
-4 -30 -13 -20.2680 -11.5961
-4 -30 -12 1.1537 -8.6337
-4 -30 -11 5.5049 -7.2669
-4 -30 -10 -0.2771 26.5205
-4 -30 -9 6.6584 -14.6127
-4 -30 -8 -29.1866 -4.0088
-4 -30 -7 -16.3176 -12.3776
-4 -30 -6 -3.4473 -9.0439
-4 -30 -5 9.5842 -15.1433
-4 -29 -25 -9.6921 16.9820
-4 -29 -24 -16.8553 7.2219
-4 -29 -23 -15.6282 11.8757
-4 -29 -22 4.2897 11.9377
-4 -29 -21 47.6278 61.0039
-4 -29 -20 -10.1733 -12.5490
-4 -29 -19 26.9216 1.3292
-4 -29 -18 -19.0729 -13.7664
-4 -29 -17 2.8934 -7.7475
-4 -29 -16 -8.9796 -19.8584
-4 -29 -15 27.5168 1.9925
-4 -29 -14 -7.3832 36.8914
-4 -29 -13 25.4190 -8.0978
-4 -29 -12 5.4363 -13.1965
-4 -29 -11 2.7060 10.2400
-4 -29 -10 -2.1207 14.3012
-4 -29 -9 -13.2842 13.8360
-4 -29 -8 -4.2234 0.0314
-4 -29 -7 -0.7123 22.9824
-4 -29 -6 -11.0809 -3.7092
-4 -29 -5 17.7055 -0.3936
-4 -28 -26 29.5991 5.9994
-4 -28 -25 2.6276 33.9368
-4 -28 -24 -16.2713 19.2169
-4 -28 -23 44.2013 -27.5079
-4 -28 -22 -26.0719 15.2051
-4 -28 -21 13.4259 16.1904
-4 -28 -20 0.0081 -12.4642
-4 -28 -19 -15.5526 4.8852
-4 -28 -18 -12.4897 3.4453
-4 -28 -17 7.4262 18.4684
-4 -28 -16 6.3605 2.1922
-4 -28 -15 -15.6061 -16.6678
-4 -28 -14 1.2372 -3.3114
-4 -28 -13 -21.4625 0.0130
-4 -28 -12 -4.0627 5.6019
-4 -28 -11 0.4647 3.9622
-4 -28 -10 48.2616 26.6595
-4 -28 -9 -27.8063 -19.0491
-4 -28 -8 1.4521 -10.1345
-4 -28 -7 -2.1903 -9.0386
-4 -28 -6 -8.8633 -5.8949
-4 -28 -5 5.2369 1.3353
-4 -27 -26 14.8256 6.0612
-4 -27 -25 -1.9552 13.3242
-4 -27 -24 -1.9436 -33.6575
-4 -27 -23 5.7200 -10.5398
-4 -27 -22 -30.7510 22.0345
-4 -27 -21 -1.2332 8.1497
-4 -27 -20 2.7932 -2.1595
-4 -27 -19 -3.1310 10.6391
-4 -27 -18 -1.9268 -15.6054
-4 -27 -17 -25.2751 -1.6517
-4 -27 -16 9.7710 21.1922
-4 -27 -15 1.3001 8.7997
-4 -27 -14 35.9857 2.0343
-4 -27 -13 11.3120 -19.3002
-4 -27 -12 -12.0598 -9.5190
-4 -27 -11 4.7083 -14.2383
-4 -27 -10 -21.4012 12.2106
-4 -27 -9 10.7018 18.3192
-4 -27 -8 4.0853 -2.3463
-4 -27 -7 -12.3130 -3.2476
-4 -27 -6 5.7421 -32.1672
-4 -27 -5 16.8075 -2.3241
-4 -26 -25 20.0352 -8.7686
-4 -26 -24 -9.6111 -16.3505
-4 -26 -23 14.3666 21.6451
-4 -26 -22 -11.7929 -12.9687
-4 -26 -21 -12.8862 -10.6882
-4 -26 -20 -11.5429 -1.0993
-4 -26 -19 3.4669 -6.5726
-4 -26 -18 11.8940 18.4928
-4 -26 -17 18.3234 6.9563
-4 -26 -16 -21.2148 23.7845
-4 -26 -15 -12.0015 46.9142
-4 -26 -14 8.4189 -18.2281
-4 -26 -13 20.0875 7.8832
-4 -26 -12 -11.5297 21.9446
-4 -26 -11 29.8435 14.0126
-4 -26 -10 -16.8165 -5.3201
-4 -26 -9 11.4628 9.6460
-4 -26 -8 4.8224 11.4037
-4 -26 -7 38.8607 13.3902
-4 -26 -6 -21.9478 -7.5897
-4 -26 -5 -13.5981 18.6133
-4 -25 -24 13.6276 14.9633
-4 -25 -23 13.3356 -2.4717
-4 -25 -22 -21.5914 -16.5860
-4 -25 -21 -23.8522 14.2391
-4 -25 -20 7.8424 1.4905
-4 -25 -19 -4.6537 -5.3388
-4 -25 -18 -32.5167 34.8897
-4 -25 -17 21.7858 27.9437
-4 -25 -16 24.7909 15.4542
-4 -25 -15 -16.0922 24.7471
-4 -25 -14 -22.1058 -7.6366
-4 -25 -13 16.5276 -17.8975
-4 -25 -12 34.5116 2.4031
-4 -25 -11 38.0988 13.0500
-4 -25 -10 16.3710 0.7205
-4 -25 -9 -7.0833 8.8481
-4 -25 -8 -0.7113 14.3408
-4 -25 -7 11.9878 11.5700
-4 -25 -6 -4.1007 6.0575
-4 -25 -5 -6.3148 2.4305
-4 -24 -23 -19.0298 -9.2673
-4 -24 -22 4.1551 -2.5957
-4 -24 -21 -5.2463 -24.7377
-4 -24 -20 -20.2201 -2.8577
-4 -24 -19 -4.8928 -9.9814
-4 -24 -18 5.7894 -16.3030
-4 -24 -17 -15.0224 25.4083
-4 -24 -16 -4.9712 -7.9244
-4 -24 -15 -30.6209 -9.0806
-4 -24 -14 -3.8843 5.9120
-4 -24 -13 7.3889 0.0154
-4 -24 -12 -7.4720 6.6729
-4 -24 -11 4.8176 10.6528
-4 -24 -10 -5.2416 -7.0763
-4 -24 -9 4.2287 -17.2785
-4 -24 -8 15.3242 5.7410
-4 -24 -7 -11.5549 -7.0730
-4 -24 -6 3.0059 6.9489
-4 -24 -5 0.1824 -21.1115
-4 -23 -22 4.2700 8.9324
-4 -23 -21 -12.1711 -1.0027
-4 -23 -20 -15.1231 4.9561
-4 -23 -19 27.0699 23.1665
-4 -23 -18 -21.1051 -9.1307
-4 -23 -17 -26.7899 10.3918
-4 -23 -16 -12.6317 -5.1828
-4 -23 -15 -35.0561 -0.0666
-4 -23 -14 -9.2118 -10.1268
-4 -23 -13 33.8637 -2.9619
-4 -23 -12 6.7209 2.5562
-4 -23 -11 4.2816 -8.3652
-4 -23 -10 -22.9933 21.4664
-4 -23 -9 16.0519 -31.1488
-4 -23 -8 -0.7446 -13.3978
-4 -23 -7 -15.1828 -3.4568
-4 -23 -6 3.8706 -8.9503
-4 -23 -5 2.5592 1.3800
-4 -22 -21 16.3421 -30.9728
-4 -22 -20 2.5926 24.8721
-4 -22 -19 -3.1534 5.2206
-4 -22 -18 3.3390 13.4961
-4 -22 -17 -12.2446 4.2316
-4 -22 -16 11.2380 12.1157
-4 -22 -15 32.0697 7.1182
-4 -22 -14 -25.1935 2.2000
-4 -22 -13 -12.9505 -28.3471
-4 -22 -12 -23.0000 5.4678
-4 -22 -11 18.1830 8.4659
-4 -22 -10 7.3794 -0.5812
-4 -22 -9 -8.2628 -2.0710
-4 -22 -8 -13.7502 7.2201
-4 -22 -7 2.0114 5.5343
-4 -22 -6 12.0697 -1.0550
-4 -22 -5 7.3730 19.0474
-4 -21 -20 8.5789 3.6178
-4 -21 -19 -17.3709 26.3649
-4 -21 -18 5.7850 12.7276
-4 -21 -17 -6.1104 -3.5391
-4 -21 -16 -23.2610 -11.5800
-4 -21 -15 -6.0542 -10.0282
-4 -21 -14 -5.0275 27.0276
-4 -21 -13 -1.0543 9.3523
-4 -21 -12 4.3470 1.1620
-4 -21 -11 0.9638 -13.3149
-4 -21 -10 -23.5628 -25.8633
-4 -21 -9 -4.4868 -7.4477
-4 -21 -8 11.2151 7.4889
-4 -21 -7 0.7026 -21.4427
-4 -21 -6 16.4235 -5.2946
-4 -21 -5 -6.9467 -18.4732
-4 -20 -19 31.3519 -5.7971
-4 -20 -18 -16.2667 -21.6835
-4 -20 -17 -3.8460 -4.9056
-4 -20 -16 20.8035 -39.5221
-4 -20 -15 -5.4393 13.8910
-4 -20 -14 -10.8691 -12.2417
-4 -20 -13 6.9171 22.9754
-4 -20 -12 -13.6558 -5.3696
-4 -20 -11 -1.0924 -11.6026
-4 -20 -10 30.5926 12.0424
-4 -20 -9 -14.4799 30.4830
-4 -20 -8 6.4478 1.2424
-4 -20 -7 26.3443 -6.5958
-4 -20 -6 10.6092 -0.6406
-4 -20 -5 -6.2951 10.5983
-4 -19 -18 17.3088 -24.3283
-4 -19 -17 -14.5581 -5.0866
-4 -19 -16 -2.8679 28.9421
-4 -19 -15 -1.1039 -0.2836
-4 -19 -14 6.0550 7.3806
-4 -19 -13 -0.4533 21.0293
-4 -19 -12 9.7765 -10.9880
-4 -19 -11 -9.8529 6.9988
-4 -19 -10 -0.9196 7.1511
-4 -19 -9 41.8310 10.2823
-4 -19 -8 -4.2578 14.7979
-4 -19 -7 -19.7181 4.1312
-4 -19 -6 -1.8430 -10.9914
-4 -19 -5 14.3750 -0.7575
-4 -18 -17 -13.9209 -24.5348
-4 -18 -16 2.4003 -21.1040
-4 -18 -15 -35.4365 6.6156
-4 -18 -14 10.8255 27.8018
-4 -18 -13 46.2989 5.5904
-4 -18 -12 5.3250 16.2237
-4 -18 -11 -18.1109 14.1656
-4 -18 -10 22.1075 -5.0097
-4 -18 -9 6.1248 7.7781
-4 -18 -8 -16.3053 4.2576
-4 -18 -7 1.2827 -23.6253
-4 -18 -6 -14.9615 9.3582
-4 -18 -5 -20.8096 -7.0118
-4 -17 -16 -0.4271 7.6623
-4 -17 -15 3.8785 19.7654
-4 -17 -14 18.7189 -8.9628
-4 -17 -13 10.5747 -14.3428
-4 -17 -12 15.6134 -8.8232
-4 -17 -11 6.1009 12.1017
-4 -17 -10 16.0033 7.8294
-4 -17 -9 1.1512 -15.5722
-4 -17 -8 -28.4668 27.2552
-4 -17 -7 7.8665 -10.6078
-4 -17 -6 14.7091 -18.9549
-4 -17 -5 -20.7502 -12.3093
-4 -16 -15 -21.3501 18.6814
-4 -16 -14 28.1387 -1.9246
-4 -16 -13 -19.5051 18.9704
-4 -16 -12 1.7207 -11.8239
-4 -16 -11 -0.6792 -0.3920
-4 -16 -10 -32.5865 4.1821
-4 -16 -9 11.6700 -7.5955
-4 -16 -8 11.9544 -2.1222
-4 -16 -7 11.2382 -9.1800
-4 -16 -6 -35.2056 -2.3855
-4 -16 -5 4.7608 3.7627
-4 -15 -14 -10.2962 -1.3065
-4 -15 -13 -16.6596 -30.5485
-4 -15 -12 18.7672 -0.6397
-4 -15 -11 21.9631 5.6437
-4 -15 -10 -0.4477 -4.0412
-4 -15 -9 17.9195 33.3597
-4 -15 -8 0.9345 24.6884
-4 -15 -7 -10.0270 21.8349
-4 -15 -6 -5.8197 13.4530
-4 -15 -5 12.6935 1.3745
-4 -14 -13 1.9003 23.4619
-4 -14 -12 -5.6683 24.1598
-4 -14 -11 -11.1545 -8.0648
-4 -14 -10 8.5071 25.7783
-4 -14 -9 18.6267 11.7562
-4 -14 -8 12.4452 55.3642
-4 -14 -7 -8.1126 28.2973
-4 -14 -6 -6.8018 3.1564
-4 -14 -5 -4.5873 10.0826
-4 -13 -12 27.2658 -7.0122
-4 -13 -11 0.3712 -27.0986
-4 -13 -10 5.0587 12.6296
-4 -13 -9 15.9177 43.7050
-4 -13 -8 6.1265 3.6260
-4 -13 -7 -14.1825 25.2880
-4 -13 -6 -3.4705 8.6698
-4 -13 -5 -6.1682 4.8320
-4 -12 -11 -37.3307 -4.4140
-4 -12 -10 5.3759 8.3714
-4 -12 -9 1.9079 -36.0144
-4 -12 -8 7.6888 -31.9849
-4 -12 -7 3.9811 31.0240
-4 -12 -6 -5.6332 -15.2815
-4 -12 -5 -24.7279 16.0229
-4 -11 -10 8.5034 -10.9043
-4 -11 -9 -15.0921 -15.3960
-4 -11 -8 -1.0761 13.4746
-4 -11 -7 -13.8605 -9.4344
-4 -11 -6 -21.1629 -29.4576
-4 -11 -5 26.6673 -15.6034
-4 -10 -9 -15.0023 -4.6179
-4 -10 -8 3.3839 -18.8727
-4 -10 -7 -14.9589 17.3794
-4 -10 -6 9.6648 -0.4954
-4 -10 -5 -12.2877 7.8886
-4 -9 -8 -8.4796 33.9413
-4 -9 -7 2.6342 -16.1461
-4 -9 -6 60.4279 78.2926
-4 -9 -5 42.6853 -5.1027
-4 -8 -7 25.1559 -31.5354
-4 -8 -6 -58.6781 -80.2302
-4 -8 -5 34.2943 -9.8173
-4 -7 -6 -7.4951 55.4361
-4 -7 -5 -25.8141 35.9436
-4 -6 -5 -82.3348 -96.5076
-3 -38 -6 7.0505 2.1914
-3 -38 -5 -4.8254 -6.5801
-3 -38 -4 2.4544 30.6342
-3 -37 -11 8.4469 13.1713
-3 -37 -10 -6.1043 -4.0858
-3 -37 -9 -6.5838 17.3536
-3 -37 -8 -6.5035 -7.5114
-3 -37 -7 1.2016 16.1390
-3 -37 -6 -4.6131 -12.4570
-3 -37 -5 -2.6050 7.0008
-3 -37 -4 -13.9756 -9.8214
-3 -36 -13 17.7939 1.8307
-3 -36 -12 -3.6977 -5.4349
-3 -36 -11 -1.9025 9.7284
-3 -36 -10 3.7933 -1.8691
-3 -36 -9 -15.9040 -0.4826
-3 -36 -8 13.7172 -9.4161
-3 -36 -7 7.5433 -11.7576
-3 -36 -6 -4.2792 0.0700
-3 -36 -5 -4.0863 7.3628
-3 -36 -4 7.8297 -2.5667
-3 -35 -16 -3.1131 1.3874
-3 -35 -15 -17.5430 -1.7620
-3 -35 -14 3.6378 -3.3782
-3 -35 -13 -4.1686 -7.2498
-3 -35 -12 -22.1253 12.8855
-3 -35 -11 15.7690 -5.5720
-3 -35 -10 8.9721 25.6236
-3 -35 -9 7.7387 -8.6854
-3 -35 -8 8.4954 -15.9004
-3 -35 -7 2.5866 7.1422
-3 -35 -6 -25.1795 21.9215
-3 -35 -5 -0.3863 3.4744
-3 -35 -4 -5.4811 -15.7461
-3 -34 -18 -9.4004 -3.1214
-3 -34 -17 -7.6676 -2.7218
-3 -34 -16 3.7809 -1.2374
-3 -34 -15 -7.9202 -12.3872
-3 -34 -14 5.9807 -3.8049
-3 -34 -13 28.8744 -11.2287
-3 -34 -12 12.1266 12.9325
-3 -34 -11 7.1575 5.6352
-3 -34 -10 -3.5967 -4.8658
-3 -34 -9 2.5855 -10.6442
-3 -34 -8 3.3120 -0.6300
-3 -34 -7 -13.6971 11.1872
-3 -34 -6 -11.3736 -15.9918
-3 -34 -5 -5.5732 -10.8213
-3 -34 -4 3.6127 -10.7439
-3 -33 -20 4.2492 7.4028
-3 -33 -19 11.1013 12.5946
-3 -33 -18 -24.6042 1.6881
-3 -33 -17 2.4842 -7.5478
-3 -33 -16 5.6465 -4.8684
-3 -33 -15 -1.1759 -6.4867
-3 -33 -14 6.1851 20.1143
-3 -33 -13 -1.6974 -3.1920
-3 -33 -12 5.7334 12.0834
-3 -33 -11 24.7391 9.8774
-3 -33 -10 -27.8065 -8.6183
-3 -33 -9 18.2823 -9.2841
-3 -33 -8 10.6340 -2.6233
-3 -33 -7 -4.6391 -3.5897
-3 -33 -6 -1.8620 -9.3363
-3 -33 -5 -9.4400 -3.0707
-3 -33 -4 0.8461 7.9241
-3 -32 -21 -10.1512 -5.3541
-3 -32 -20 35.0341 10.6778
-3 -32 -19 -2.1280 -13.7721
-3 -32 -18 -1.4877 -7.4608
-3 -32 -17 13.0674 1.4195
-3 -32 -16 -10.4088 -10.5220
-3 -32 -15 8.8035 13.1292
-3 -32 -14 6.8851 -26.3121
-3 -32 -13 -18.4524 8.5770
-3 -32 -12 10.9903 7.0813
-3 -32 -11 -9.4131 16.6032
-3 -32 -10 -18.9226 -8.8398
-3 -32 -9 3.2569 2.5039
-3 -32 -8 -0.6247 23.4265
-3 -32 -7 11.9683 5.4538
-3 -32 -6 -9.8093 10.0697
-3 -32 -5 12.3288 3.8939
-3 -32 -4 5.1931 -2.0875
-3 -31 -23 -38.8396 2.4154
-3 -31 -22 -16.3052 7.9822
-3 -31 -21 8.1286 10.9594
-3 -31 -20 -16.0721 -0.4062
-3 -31 -19 7.1111 9.0362
-3 -31 -18 -10.9871 2.9290
-3 -31 -17 -0.8322 -9.2034
-3 -31 -16 20.0702 -15.6094
-3 -31 -15 26.1471 -15.6833
-3 -31 -14 -7.6765 -27.9811
-3 -31 -13 18.8377 10.6090
-3 -31 -12 13.0766 18.2446
-3 -31 -11 -9.0492 6.6070
-3 -31 -10 -2.9092 9.9374
-3 -31 -9 -31.8861 7.9711
-3 -31 -8 -8.3114 -9.7149
-3 -31 -7 21.8310 26.3822
-3 -31 -6 -2.8516 -14.3777
-3 -31 -5 -28.9044 -4.3856
-3 -31 -4 -19.4785 7.7883
-3 -30 -24 -3.7881 -9.2580
-3 -30 -23 3.2442 3.3292
-3 -30 -22 21.4167 -9.3719
-3 -30 -21 17.9416 -5.8336
-3 -30 -20 0.4709 16.5345
-3 -30 -19 3.5056 -19.3768
-3 -30 -18 3.8698 -7.0013
-3 -30 -17 -11.7143 30.8246
-3 -30 -16 -15.1388 -1.7566
-3 -30 -15 24.0475 23.0564
-3 -30 -14 16.7663 4.9185
-3 -30 -13 -2.9198 33.7653
-3 -30 -12 24.8983 16.3229
-3 -30 -11 -9.1810 43.9912
-3 -30 -10 -13.9388 13.2647
-3 -30 -9 10.6096 -22.8923
-3 -30 -8 -15.5311 2.4344
-3 -30 -7 6.3019 -10.2300
-3 -30 -6 14.3861 7.8731
-3 -30 -5 -2.7155 -6.1415
-3 -30 -4 -17.0350 9.2305
-3 -29 -25 4.8883 6.1601
-3 -29 -24 -13.5976 7.4145
-3 -29 -23 -1.5096 -4.5216
-3 -29 -22 1.9671 -9.7701
-3 -29 -21 -21.3381 16.1573
-3 -29 -20 -7.7418 -7.6839
-3 -29 -19 5.6267 -16.9160
-3 -29 -18 28.3757 10.2265
-3 -29 -17 23.5269 17.3438
-3 -29 -16 27.5494 -24.0209
-3 -29 -15 15.3474 -4.1369
-3 -29 -14 -25.9257 4.7202
-3 -29 -13 -7.5572 -17.4535
-3 -29 -12 8.8600 1.4856
-3 -29 -11 21.7014 -4.8520
-3 -29 -10 4.3262 18.8166
-3 -29 -9 -3.8030 -15.8105
-3 -29 -8 3.2336 -27.1162
-3 -29 -7 6.9112 -6.1511
-3 -29 -6 -9.0451 20.4260
-3 -29 -5 -22.6884 -25.4152
-3 -29 -4 -17.0195 -13.0692
-3 -28 -26 6.3809 -12.2098
-3 -28 -25 -20.0043 -1.3703
-3 -28 -24 -18.0107 -2.6600
-3 -28 -23 -19.0984 7.2631
-3 -28 -22 20.6078 17.8085
-3 -28 -21 -10.8235 -16.8333
-3 -28 -20 3.3745 11.6488
-3 -28 -19 -14.7179 -0.4405
-3 -28 -18 5.3046 -5.5500
-3 -28 -17 13.2197 -7.9942
-3 -28 -16 23.8407 24.2523
-3 -28 -15 1.8207 -26.2239
-3 -28 -14 3.1479 9.2471
-3 -28 -13 0.9111 14.9175
-3 -28 -12 12.0524 -17.9519
-3 -28 -11 0.2886 -11.1586
-3 -28 -10 17.4897 -4.3755
-3 -28 -9 -0.7767 -3.7247
-3 -28 -8 4.6630 -3.3677
-3 -28 -7 -8.6203 1.6163
-3 -28 -6 10.2434 -17.8191
-3 -28 -5 5.3888 -30.5584
-3 -28 -4 15.7602 7.0265
-3 -27 -26 -6.6531 -4.8498
-3 -27 -25 -1.6838 7.9325
-3 -27 -24 18.0394 2.8121
-3 -27 -23 10.9029 -4.4148
-3 -27 -22 -11.3635 -11.1575
-3 -27 -21 11.1496 0.8549
-3 -27 -20 2.1753 9.3137
-3 -27 -19 -3.3296 -4.4502
-3 -27 -18 -14.9267 20.5368
-3 -27 -17 8.7368 21.3355
-3 -27 -16 2.0880 28.0519
-3 -27 -15 -46.1254 19.5824
-3 -27 -14 0.2089 7.3940
-3 -27 -13 13.0385 -22.5892
-3 -27 -12 28.5735 25.5813
-3 -27 -11 10.2620 3.6284
-3 -27 -10 8.8317 -8.2620
-3 -27 -9 -14.6585 13.9923
-3 -27 -8 -32.0322 -8.6085
-3 -27 -7 -7.7812 -11.6285
-3 -27 -6 9.2170 -16.1027
-3 -27 -5 22.5380 -15.5178
-3 -27 -4 1.6592 -9.5088
-3 -26 -25 0.9396 8.1464
-3 -26 -24 -14.6049 0.7398
-3 -26 -23 -0.0857 33.7418
-3 -26 -22 24.0910 12.8212
-3 -26 -21 13.7078 -7.6644
-3 -26 -20 -8.1115 22.2870
-3 -26 -19 32.3265 10.5982
-3 -26 -18 -3.6267 -0.7982
-3 -26 -17 16.4009 -19.9605
-3 -26 -16 -5.2456 20.1205
-3 -26 -15 -2.3171 26.7872
-3 -26 -14 1.9154 -13.2238
-3 -26 -13 -13.3607 8.1887
-3 -26 -12 -14.6213 -34.7245
-3 -26 -11 21.9002 2.2804
-3 -26 -10 -33.5915 -8.1173
-3 -26 -9 2.2548 4.5425
-3 -26 -8 33.2334 -16.1205
-3 -26 -7 1.2833 -11.2600
-3 -26 -6 16.4242 -5.1949
-3 -26 -5 -17.4421 -10.4702
-3 -26 -4 -7.2034 3.1085
-3 -25 -24 -18.5253 21.2910
-3 -25 -23 -2.0398 -1.6490
-3 -25 -22 2.3909 12.1906
-3 -25 -21 22.1999 -24.6565
-3 -25 -20 0.7157 5.8514
-3 -25 -19 2.5549 0.1265
-3 -25 -18 -28.0444 17.4752
-3 -25 -17 -13.1083 25.7110
-3 -25 -16 11.9527 0.8864
-3 -25 -15 8.1915 29.8029
-3 -25 -14 13.1968 -19.0557
-3 -25 -13 16.7700 -15.3568
-3 -25 -12 14.4450 33.1816
-3 -25 -11 0.2068 32.1695
-3 -25 -10 9.3622 12.9470
-3 -25 -9 -20.8959 2.2193
-3 -25 -8 -0.3134 5.0675
-3 -25 -7 -26.4281 26.8350
-3 -25 -6 -13.4396 -11.2282
-3 -25 -5 3.0697 11.7098
-3 -25 -4 15.2530 42.0158
-3 -24 -23 -0.3545 10.4148
-3 -24 -22 -30.6323 -16.1100
-3 -24 -21 -14.1355 11.2099
-3 -24 -20 -18.5774 2.6274
-3 -24 -19 -17.9279 -5.1531
-3 -24 -18 -11.9479 21.2722
-3 -24 -17 29.6383 9.6681
-3 -24 -16 -7.4247 20.9169
-3 -24 -15 -17.8791 2.9131
-3 -24 -14 -0.7885 -4.1948
-3 -24 -13 15.8665 -0.9105
-3 -24 -12 13.0215 25.5074
-3 -24 -11 26.7756 -16.9724
-3 -24 -10 -4.4380 -23.0094
-3 -24 -9 3.6561 15.9252
-3 -24 -8 9.9061 6.6454
-3 -24 -7 -11.6846 19.2816
-3 -24 -6 11.0552 -4.0729
-3 -24 -5 12.5542 10.5990
-3 -24 -4 -16.3138 -19.5520
-3 -23 -22 -20.4659 7.1271
-3 -23 -21 20.1500 3.6177
-3 -23 -20 -23.9433 -44.8122
-3 -23 -19 16.0524 28.7749
-3 -23 -18 -2.2485 13.2244
-3 -23 -17 6.8508 -8.7364
-3 -23 -16 -8.3743 -7.0586
-3 -23 -15 4.3967 -17.9206
-3 -23 -14 -23.2417 8.0630
-3 -23 -13 1.1261 -4.0725
-3 -23 -12 10.7376 0.5135
-3 -23 -11 -32.8737 12.6160
-3 -23 -10 -3.1563 26.7458
-3 -23 -9 19.7920 -6.4817
-3 -23 -8 13.9752 0.1439
-3 -23 -7 -16.6188 5.0205
-3 -23 -6 -26.2530 -9.4011
-3 -23 -5 -6.2373 5.9166
-3 -23 -4 -11.2393 -1.5030
-3 -22 -21 16.4959 -12.0021
-3 -22 -20 -6.5875 31.7782
-3 -22 -19 16.2633 15.0210
-3 -22 -18 14.2772 13.9737
-3 -22 -17 -49.4800 16.9531
-3 -22 -16 -17.6261 -29.0508
-3 -22 -15 29.9065 -27.4502
-3 -22 -14 -16.1818 9.9966
-3 -22 -13 8.6049 20.7759
-3 -22 -12 15.7551 -23.5820
-3 -22 -11 12.8944 0.6522
-3 -22 -10 9.3714 -14.0449
-3 -22 -9 6.6439 39.6828
-3 -22 -8 -15.9479 -23.6675
-3 -22 -7 -5.4361 0.0333
-3 -22 -6 -5.4298 12.5068
-3 -22 -5 33.6545 -10.1126
-3 -22 -4 -13.9190 -25.9366
-3 -21 -20 0.4526 -39.6142
-3 -21 -19 18.8717 13.5779
-3 -21 -18 4.7117 -11.2714
-3 -21 -17 -22.4229 -42.9368
-3 -21 -16 -13.3431 -18.3365
-3 -21 -15 -4.0885 -10.5247
-3 -21 -14 2.7616 12.8075
-3 -21 -13 -9.4312 5.2222
-3 -21 -12 8.6949 14.3679
-3 -21 -11 5.1288 14.5988
-3 -21 -10 4.4100 4.6386
-3 -21 -9 14.4691 5.6191
-3 -21 -8 5.1143 -11.8788
-3 -21 -7 7.8969 14.2133
-3 -21 -6 4.6034 -3.2860
-3 -21 -5 -6.1016 -1.3639
-3 -21 -4 -12.2254 29.9539
-3 -20 -19 -15.5902 -13.3087
-3 -20 -18 -33.6067 -0.4659
-3 -20 -17 6.5346 -2.1195
-3 -20 -16 3.9703 -2.1358
-3 -20 -15 -4.0783 -17.6862
-3 -20 -14 2.9505 6.2167
-3 -20 -13 7.4233 -8.5052
-3 -20 -12 8.2748 15.7958
-3 -20 -11 -23.6771 11.6129
-3 -20 -10 -12.1247 -13.3221
-3 -20 -9 -6.4374 -11.3314
-3 -20 -8 1.2125 -8.6976
-3 -20 -7 -26.0577 6.4283
-3 -20 -6 5.2997 -0.3664
-3 -20 -5 3.0743 -29.8717
-3 -20 -4 13.0938 -14.6114
-3 -19 -18 9.0706 0.5333
-3 -19 -17 -16.2977 -3.7050
-3 -19 -16 -14.6718 27.7391
-3 -19 -15 -12.6547 10.9363
-3 -19 -14 -14.6193 28.4017
-3 -19 -13 -13.6636 -24.8870
-3 -19 -12 -3.1242 -18.0795
-3 -19 -11 -2.5368 11.5152
-3 -19 -10 -13.0313 -11.8953
-3 -19 -9 20.1230 1.0157
-3 -19 -8 -9.6176 -17.4115
-3 -19 -7 8.7955 -0.5447
-3 -19 -6 0.5935 9.3958
-3 -19 -5 -28.2901 19.2120
-3 -19 -4 1.5475 4.9579
-3 -18 -17 -25.0048 36.2363
-3 -18 -16 -0.7586 50.9499
-3 -18 -15 2.9376 23.6363
-3 -18 -14 -19.0695 -22.7522
-3 -18 -13 6.5129 -1.3923
-3 -18 -12 -13.9141 -1.4693
-3 -18 -11 5.1823 -10.0511
-3 -18 -10 0.8560 3.7939
-3 -18 -9 -10.3575 1.4535
-3 -18 -8 -3.6507 -45.2293
-3 -18 -7 -5.3606 -23.2763
-3 -18 -6 -7.1885 5.0850
-3 -18 -5 -9.2228 15.0261
-3 -18 -4 -18.2682 6.7772
-3 -17 -16 -24.5438 -11.6956
-3 -17 -15 20.7021 0.2769
-3 -17 -14 -13.8271 -17.0881
-3 -17 -13 -9.6574 -8.6458
-3 -17 -12 3.0921 7.3282
-3 -17 -11 16.2815 8.0187
-3 -17 -10 -4.8524 2.8046
-3 -17 -9 -10.3678 7.0244
-3 -17 -8 -23.0012 10.4131
-3 -17 -7 -5.8940 -14.9335
-3 -17 -6 20.3263 19.8946
-3 -17 -5 10.7015 17.0543
-3 -17 -4 16.5120 10.7882
-3 -16 -15 15.6431 -11.3823
-3 -16 -14 0.6977 -15.4815
-3 -16 -13 -11.0461 -5.9505
-3 -16 -12 18.5806 -31.2503
-3 -16 -11 -6.6458 -11.3523
-3 -16 -10 20.6622 5.7091
-3 -16 -9 -17.6629 23.7491
-3 -16 -8 13.5714 10.4296
-3 -16 -7 8.8596 10.0505
-3 -16 -6 13.8836 -6.7201
-3 -16 -5 25.3218 8.6762
-3 -16 -4 -29.2097 23.9541
-3 -15 -14 -3.9684 -9.1741
-3 -15 -13 8.0613 19.6292
-3 -15 -12 -36.3612 -6.8898
-3 -15 -11 -11.3252 6.5430
-3 -15 -10 2.9430 28.8500
-3 -15 -9 -15.1047 -23.7059
-3 -15 -8 -9.9960 16.6408
-3 -15 -7 18.1466 12.9596
-3 -15 -6 8.7212 24.1823
-3 -15 -5 7.3323 -8.9506
-3 -15 -4 -4.4445 -6.2891
-3 -14 -13 26.3910 14.2693
-3 -14 -12 -19.9023 21.2975
-3 -14 -11 -9.5893 10.0333
-3 -14 -10 -6.8344 -19.8119
-3 -14 -9 -22.6593 23.9631
-3 -14 -8 0.4090 -1.1796
-3 -14 -7 5.5783 -23.1990
-3 -14 -6 -18.3548 -2.0334
-3 -14 -5 22.9962 -31.9733
-3 -14 -4 24.9541 -6.3082
-3 -13 -12 -24.7816 3.1615
-3 -13 -11 -9.9399 18.7243
-3 -13 -10 -30.2233 -1.6902
-3 -13 -9 7.5042 -61.8055
-3 -13 -8 -24.6873 7.8485
-3 -13 -7 -3.7339 -44.5177
-3 -13 -6 -6.6519 -7.0433
-3 -13 -5 5.3762 38.4580
-3 -13 -4 -7.2651 -24.8040
-3 -12 -11 -6.0001 -1.7309
-3 -12 -10 3.7326 20.4911
-3 -12 -9 28.6427 -3.9923
-3 -12 -8 28.3326 1.3891
-3 -12 -7 -28.5989 -2.9664
-3 -12 -6 -9.5534 6.5418
-3 -12 -5 -22.4572 -0.3524
-3 -12 -4 19.6059 7.6139
-3 -11 -10 23.5192 -1.2250
-3 -11 -9 17.7854 -38.8828
-3 -11 -8 -5.8137 50.6131
-3 -11 -7 28.0232 -22.5687
-3 -11 -6 -24.4325 -21.3435
-3 -11 -5 15.0603 9.2472
-3 -11 -4 -3.3422 -34.4754
-3 -10 -9 18.5732 19.5869
-3 -10 -8 -2.8263 2.6094
-3 -10 -7 -43.9852 -10.9582
-3 -10 -6 -9.3250 -4.1619
-3 -10 -5 12.4209 19.5995
-3 -10 -4 44.0608 24.2491
-3 -9 -8 28.9587 -5.4411
-3 -9 -7 42.8717 -7.0275
-3 -9 -6 -19.8409 -24.4018
-3 -9 -5 6.8872 -27.2843
-3 -9 -4 -23.1874 -38.4908
-3 -8 -7 -41.9768 14.5260
-3 -8 -6 4.4729 -16.7994
-3 -8 -5 -90.5534 -1.2338
-3 -8 -4 23.2817 39.1781
-3 -7 -6 -5.5235 40.1301
-3 -7 -5 -46.4637 54.0924
-3 -7 -4 -18.2231 -13.1104
-3 -6 -5 -119.8295 -90.7349
-3 -6 -4 -38.1242 15.4687
-3 -5 -4 -9.7361 40.3315
-2 -38 -7 -18.4423 -11.5310
-2 -38 -6 -14.8613 -2.0974
-2 -38 -5 1.6940 11.0185
-2 -38 -4 8.8363 -4.8486
-2 -38 -3 -1.8521 3.7520
-2 -37 -11 11.2968 7.7968
-2 -37 -10 -2.0804 -0.7432
-2 -37 -9 0.6343 -3.3866
-2 -37 -8 -14.3015 -2.6020
-2 -37 -7 2.2539 6.8921
-2 -37 -6 -1.3542 15.5093
-2 -37 -5 9.7386 1.5781
-2 -37 -4 11.1708 -2.5535
-2 -37 -3 14.6037 14.2256
-2 -36 -14 -5.8555 8.8369
-2 -36 -13 -6.8079 -5.5581
-2 -36 -12 -13.3504 -8.0746
-2 -36 -11 -1.4126 -17.1854
-2 -36 -10 17.8440 8.7514
-2 -36 -9 -12.8442 1.3564
-2 -36 -8 -5.9466 -8.0064
-2 -36 -7 -15.7561 1.4911
-2 -36 -6 -3.6013 13.4589
-2 -36 -5 -10.8393 -3.3041
-2 -36 -4 2.8251 -6.1220
-2 -36 -3 9.2074 9.3736
-2 -35 -16 -3.6243 -0.8028
-2 -35 -15 1.0690 -2.8172
-2 -35 -14 0.1219 -5.2865
-2 -35 -13 -2.4859 7.1519
-2 -35 -12 10.1467 23.2680
-2 -35 -11 6.2409 10.7316
-2 -35 -10 3.5567 2.2439
-2 -35 -9 16.2706 -31.4531
-2 -35 -8 -13.2241 2.1359
-2 -35 -7 0.1426 1.9763
-2 -35 -6 -1.6778 -10.3759
-2 -35 -5 0.0920 9.3975
-2 -35 -4 -7.3275 -8.8702
-2 -35 -3 8.6991 -13.3917
-2 -34 -17 4.0215 -11.1709
-2 -34 -16 -10.8046 7.0200
-2 -34 -15 -0.3465 -11.2366
-2 -34 -14 -6.2738 -8.0460
-2 -34 -13 -22.9358 5.5591
-2 -34 -12 3.1282 -13.7676
-2 -34 -11 -8.3456 19.6261
-2 -34 -10 -4.3642 -19.3113
-2 -34 -9 -1.4646 6.5346
-2 -34 -8 -0.9390 10.8340
-2 -34 -7 -19.4302 12.3099
-2 -34 -6 12.2029 -0.3761
-2 -34 -5 20.3405 17.1234
-2 -34 -4 -9.9863 -4.1916
-2 -34 -3 8.5924 -9.0454
-2 -33 -20 -4.1699 -15.0321
-2 -33 -19 4.9025 6.3422
-2 -33 -18 13.8011 0.9273
-2 -33 -17 -5.3955 -10.1846
-2 -33 -16 11.9286 -1.6152
-2 -33 -15 -11.3564 5.9063
-2 -33 -14 -2.9792 -27.0066
-2 -33 -13 2.3929 -8.5982
-2 -33 -12 1.5596 18.5900
-2 -33 -11 10.4285 -14.3402
-2 -33 -10 6.0744 -1.7798
-2 -33 -9 6.3465 -19.4905
-2 -33 -8 20.5428 -29.0637
-2 -33 -7 -3.1435 1.9582
-2 -33 -6 11.5205 3.1147
-2 -33 -5 33.4709 -4.4225
-2 -33 -4 4.8503 0.5037
-2 -33 -3 -3.3001 -10.2316
-2 -32 -21 -12.7648 -4.2761
-2 -32 -20 -6.7841 3.1927
-2 -32 -19 7.6417 -2.4581
-2 -32 -18 2.8178 1.6919
-2 -32 -17 -5.8555 -17.6411
-2 -32 -16 5.2510 17.3116
-2 -32 -15 -9.7196 8.0436
-2 -32 -14 10.7348 5.0284
-2 -32 -13 4.2060 -9.5697
-2 -32 -12 10.6993 3.6637
-2 -32 -11 -3.9277 3.5309
-2 -32 -10 -18.1682 7.2982
-2 -32 -9 9.0497 -15.4689
-2 -32 -8 6.1463 -4.5301
-2 -32 -7 -17.1854 1.7285
-2 -32 -6 -1.3689 18.4056
-2 -32 -5 -8.6831 -5.6140
-2 -32 -4 -9.4939 9.0355
-2 -32 -3 5.4660 -2.4583
-2 -31 -23 -21.0257 3.2743
-2 -31 -22 12.1947 -0.5706
-2 -31 -21 -7.9024 17.3249
-2 -31 -20 5.5288 -8.7419
-2 -31 -19 4.6296 3.4613
-2 -31 -18 9.0797 -2.5013
-2 -31 -17 8.5238 21.2570
-2 -31 -16 11.6819 -17.0769
-2 -31 -15 6.5287 23.8576
-2 -31 -14 -16.4369 -14.8867
-2 -31 -13 -21.7453 -23.3054
-2 -31 -12 5.3903 22.7190
-2 -31 -11 11.4282 8.4568
-2 -31 -10 -6.1458 -7.5558
-2 -31 -9 -2.6848 26.7248
-2 -31 -8 36.0184 4.7817
-2 -31 -7 17.1176 -10.2459
-2 -31 -6 -13.2569 9.8250
-2 -31 -5 -7.5809 -2.0766
-2 -31 -4 -27.1650 -22.2142
-2 -31 -3 11.2357 10.0851
-2 -30 -24 -1.4658 -17.7911
-2 -30 -23 -0.9118 3.4931
-2 -30 -22 -5.1156 4.3508
-2 -30 -21 -16.0730 30.3605
-2 -30 -20 -12.4964 11.1413
-2 -30 -19 16.7702 -6.9542
-2 -30 -18 8.2753 15.6948
-2 -30 -17 -14.5190 18.6785
-2 -30 -16 -3.6462 -15.4487
-2 -30 -15 20.3405 10.8870
-2 -30 -14 7.9298 8.0510
-2 -30 -13 5.5449 48.4549
-2 -30 -12 15.7720 -28.9483
-2 -30 -11 -20.4698 -6.8369
-2 -30 -10 -32.5241 -4.2232
-2 -30 -9 21.5894 -36.9793
-2 -30 -8 -16.8409 -1.1964
-2 -30 -7 20.9651 -12.5791
-2 -30 -6 -14.9218 1.4583
-2 -30 -5 -22.3212 -32.0822
-2 -30 -4 15.4440 -4.0302
-2 -30 -3 9.6606 -18.5851
-2 -29 -25 -7.4742 -19.0519
-2 -29 -24 18.1074 19.8565
-2 -29 -23 22.2387 4.2319
-2 -29 -22 -7.4676 16.1802
-2 -29 -21 -6.0366 14.0707
-2 -29 -20 -1.5521 -19.7762
-2 -29 -19 -12.0131 0.0030
-2 -29 -18 14.5558 10.2003
-2 -29 -17 5.0359 -17.4644
-2 -29 -16 9.6319 7.1920
-2 -29 -15 -6.8050 -19.2415
-2 -29 -14 -11.6275 14.3874
-2 -29 -13 8.3009 -33.2448
-2 -29 -12 4.8496 1.0137
-2 -29 -11 6.7144 29.2487
-2 -29 -10 29.2672 -1.1581
-2 -29 -9 -27.2824 22.5439
-2 -29 -8 10.0455 -3.2170
-2 -29 -7 -12.2314 -3.4303
-2 -29 -6 -8.8275 -0.9565
-2 -29 -5 -1.7061 -8.7468
-2 -29 -4 10.2915 3.0911
-2 -29 -3 -4.6341 17.9167
-2 -28 -26 -2.8180 7.5494
-2 -28 -25 -12.5363 0.4115
-2 -28 -24 11.2531 28.8914
-2 -28 -23 -2.9612 -1.9534
-2 -28 -22 15.7736 1.6040
-2 -28 -21 -15.2363 9.9103
-2 -28 -20 -2.9718 -8.0002
-2 -28 -19 -2.9473 -6.2210
-2 -28 -18 -9.7950 -16.7165
-2 -28 -17 1.9094 -3.3282
-2 -28 -16 -3.2438 -14.7673
-2 -28 -15 26.1812 -20.7161
-2 -28 -14 1.0914 -0.9939
-2 -28 -13 28.8182 -10.6405
-2 -28 -12 14.3743 42.2097
-2 -28 -11 -15.8577 -8.1513
-2 -28 -10 15.9455 3.1044
-2 -28 -9 16.4039 32.4913
-2 -28 -8 -12.4071 7.6234
-2 -28 -7 -18.0083 2.6954
-2 -28 -6 8.6902 -8.6296
-2 -28 -5 -15.9938 -4.6427
-2 -28 -4 -10.8014 2.4173
-2 -28 -3 9.6100 -0.6364
-2 -27 -26 -3.7254 3.7927
-2 -27 -25 -20.3585 -0.3673
-2 -27 -24 -4.6980 1.2848
-2 -27 -23 -0.8903 -4.8738
-2 -27 -22 -11.6040 -0.6526
-2 -27 -21 2.9199 -15.7270
-2 -27 -20 -1.4339 8.4725
-2 -27 -19 23.8751 31.9441
-2 -27 -18 10.2205 0.5649
-2 -27 -17 -15.6777 6.8024
-2 -27 -16 -16.4315 13.2520
-2 -27 -15 9.9509 4.1114
-2 -27 -14 11.5201 17.6847
-2 -27 -13 8.6896 -19.9422
-2 -27 -12 22.4968 -7.3064
-2 -27 -11 -8.2857 -5.3454
-2 -27 -10 -6.6774 -20.0033
-2 -27 -9 -5.4855 -4.0861
-2 -27 -8 -7.0477 -9.0300
-2 -27 -7 22.4226 16.3168
-2 -27 -6 6.7162 -2.9212
-2 -27 -5 -4.3977 -6.9443
-2 -27 -4 2.9391 -0.6621
-2 -27 -3 -30.4688 -22.2460
-2 -26 -25 -32.7614 22.0433
-2 -26 -24 15.9557 -9.4497
-2 -26 -23 -13.2629 -4.8101
-2 -26 -22 12.9554 -6.7036
-2 -26 -21 11.3445 -20.7103
-2 -26 -20 -14.0042 13.4798
-2 -26 -19 -13.0322 29.5016
-2 -26 -18 5.1249 3.5320
-2 -26 -17 31.6943 7.1599
-2 -26 -16 17.2003 -11.2108
-2 -26 -15 -25.4089 45.1730
-2 -26 -14 -1.0237 -20.8528
-2 -26 -13 -12.0143 23.6339
-2 -26 -12 -25.9108 15.9988
-2 -26 -11 4.6677 22.2621
-2 -26 -10 6.6381 11.7469
-2 -26 -9 -17.0775 -2.6612
-2 -26 -8 3.5755 8.3205
-2 -26 -7 3.8794 12.5542
-2 -26 -6 -9.4519 5.1494
-2 -26 -5 -2.8546 11.7785
-2 -26 -4 -8.0659 15.2491
-2 -26 -3 -12.8543 7.3774
-2 -25 -24 -13.9341 3.5660
-2 -25 -23 -6.5852 -17.2465
-2 -25 -22 22.1228 -0.2746
-2 -25 -21 19.5944 -4.5556
-2 -25 -20 8.9847 6.4711
-2 -25 -19 7.2096 8.9704
-2 -25 -18 3.9044 -35.5614
-2 -25 -17 -48.2060 5.4293
-2 -25 -16 10.9289 -11.1259
-2 -25 -15 -21.2903 3.7060
-2 -25 -14 25.5690 -4.5173
-2 -25 -13 19.7872 -6.0316
-2 -25 -12 15.3182 15.7258
-2 -25 -11 -5.8633 -5.2293
-2 -25 -10 12.3628 -9.6146
-2 -25 -9 5.4699 -26.7622
-2 -25 -8 -10.2689 34.4859
-2 -25 -7 -18.9546 -24.8186
-2 -25 -6 -5.6680 -15.3542
-2 -25 -5 -19.1919 11.1841
-2 -25 -4 15.8096 -7.5227
-2 -25 -3 14.4139 -7.7240
-2 -24 -23 -15.2995 -5.1667
-2 -24 -22 -3.4534 -5.5942
-2 -24 -21 -4.1959 17.0377
-2 -24 -20 -12.5611 16.5278
-2 -24 -19 -45.7596 3.9737
-2 -24 -18 34.8153 1.5645
-2 -24 -17 -1.8747 -0.7253
-2 -24 -16 -0.2668 22.2039
-2 -24 -15 -25.7513 -9.1655
-2 -24 -14 9.5280 -31.9401
-2 -24 -13 4.8967 2.1326
-2 -24 -12 32.2751 4.8150
-2 -24 -11 41.7605 1.7251
-2 -24 -10 9.5176 1.2525
-2 -24 -9 -1.1266 2.9709
-2 -24 -8 -2.6161 -5.2367
-2 -24 -7 4.2447 13.0294
-2 -24 -6 -23.0444 13.9474
-2 -24 -5 -1.2517 -2.3771
-2 -24 -4 7.1042 -9.4852
-2 -24 -3 -23.7694 -1.7271
-2 -23 -22 -27.0976 -33.2747
-2 -23 -21 9.9712 19.0334
-2 -23 -20 -22.9843 -7.5717
-2 -23 -19 9.7013 -0.8443
-2 -23 -18 7.2092 29.6939
-2 -23 -17 -64.9572 14.4492
-2 -23 -16 10.7808 -30.1030
-2 -23 -15 5.0656 -13.8055
-2 -23 -14 -20.8074 16.6033
-2 -23 -13 -27.1421 8.5560
-2 -23 -12 7.6124 -13.6625
-2 -23 -11 19.9370 3.8285
-2 -23 -10 17.1280 12.1241
-2 -23 -9 -11.3503 -13.5396
-2 -23 -8 35.5553 -4.4200
-2 -23 -7 5.4396 10.3715
-2 -23 -6 -10.1813 7.1644
-2 -23 -5 -5.6624 13.3527
-2 -23 -4 -13.4495 -30.1574
-2 -23 -3 -15.6668 -6.1964
-2 -22 -21 6.2698 -16.8130
-2 -22 -20 9.8032 -1.8811
-2 -22 -19 8.4593 -2.2044
-2 -22 -18 12.3073 4.5336
-2 -22 -17 -4.1490 -9.8151
-2 -22 -16 -10.6009 -24.2160
-2 -22 -15 15.1721 -3.0211
-2 -22 -14 -2.5516 24.5931
-2 -22 -13 -31.2421 -0.2938
-2 -22 -12 25.2595 27.7755
-2 -22 -11 -23.1639 -9.3578
-2 -22 -10 -13.3324 24.7123
-2 -22 -9 -6.8205 -16.9325
-2 -22 -8 2.7132 8.0125
-2 -22 -7 7.9295 4.5928
-2 -22 -6 3.6591 -2.4982
-2 -22 -5 -5.8321 -8.2222
-2 -22 -4 -15.2279 18.9020
-2 -22 -3 -28.8539 -13.9630
-2 -21 -20 -7.4686 -11.0991
-2 -21 -19 -44.9263 18.5504
-2 -21 -18 13.9810 6.6781
-2 -21 -17 2.8843 2.2075
-2 -21 -16 -27.8287 9.6121
-2 -21 -15 27.2110 9.1908
-2 -21 -14 0.5130 18.9259
-2 -21 -13 13.5792 -16.2684
-2 -21 -12 -10.7435 0.4807
-2 -21 -11 -11.2109 -11.3689
-2 -21 -10 1.0695 -12.0303
-2 -21 -9 7.0342 -4.8673
-2 -21 -8 -21.3071 22.7091
-2 -21 -7 11.9978 -27.8793
-2 -21 -6 23.5779 -8.9015
-2 -21 -5 -32.4565 -18.4177
-2 -21 -4 18.6451 -9.9443
-2 -21 -3 -3.4323 15.8365
-2 -20 -19 8.0244 -46.6160
-2 -20 -18 -11.6909 0.2065
-2 -20 -17 -8.0483 0.6006
-2 -20 -16 4.1846 -40.3228
-2 -20 -15 -17.8682 14.1043
-2 -20 -14 -14.6082 9.5177
-2 -20 -13 -6.0062 -5.7834
-2 -20 -12 2.1896 -7.2756
-2 -20 -11 -2.2276 -10.9706
-2 -20 -10 -1.9611 -22.4288
-2 -20 -9 1.7359 8.5307
-2 -20 -8 -26.0555 2.6423
-2 -20 -7 -11.2409 -6.0364
-2 -20 -6 10.4954 4.8255
-2 -20 -5 -10.1106 -18.5559
-2 -20 -4 -16.6301 30.1498
-2 -20 -3 -0.5147 -5.6750
-2 -19 -18 -19.4220 30.1211
-2 -19 -17 21.9206 19.3971
-2 -19 -16 -2.8446 8.5287
-2 -19 -15 42.3671 4.0732
-2 -19 -14 20.2714 -9.2162
-2 -19 -13 24.4359 -7.7121
-2 -19 -12 -2.9775 -5.1696
-2 -19 -11 27.7819 -17.3066
-2 -19 -10 16.6708 -14.3541
-2 -19 -9 -11.9707 -15.9917
-2 -19 -8 -40.4868 -12.9803
-2 -19 -7 1.2146 -14.0508
-2 -19 -6 -18.8732 -1.4377
-2 -19 -5 21.4463 -2.0918
-2 -19 -4 -6.5084 2.9132
-2 -19 -3 -28.3016 -36.3952
-2 -18 -17 -5.9000 10.3869
-2 -18 -16 1.8635 2.0194
-2 -18 -15 -25.1586 -13.8991
-2 -18 -14 -0.0527 -13.9559
-2 -18 -13 5.4796 -10.0705
-2 -18 -12 -33.2097 6.1105
-2 -18 -11 -6.8031 9.1455
-2 -18 -10 4.9075 29.8648
-2 -18 -9 -6.1391 -0.3967
-2 -18 -8 12.0899 12.3859
-2 -18 -7 -4.5239 -8.0804
-2 -18 -6 19.4998 11.1825
-2 -18 -5 24.1476 -7.2534
-2 -18 -4 13.2940 -15.7399
-2 -18 -3 6.9811 -16.5881
-2 -17 -16 -36.4420 24.5775
-2 -17 -15 -3.9045 -10.4774
-2 -17 -14 -12.7425 -2.8168
-2 -17 -13 -6.7650 -13.7800
-2 -17 -12 -15.5302 0.6074
-2 -17 -11 -33.3068 10.6304
-2 -17 -10 -26.6644 0.7213
-2 -17 -9 -32.8371 -31.0448
-2 -17 -8 8.0864 -16.7726
-2 -17 -7 -1.2373 30.9237
-2 -17 -6 8.9838 18.3360
-2 -17 -5 20.5299 15.6295
-2 -17 -4 19.5015 -28.3889
-2 -17 -3 42.9664 -16.9425
-2 -16 -15 -26.1212 9.7993
-2 -16 -14 4.1856 -10.3528
-2 -16 -13 -22.5050 -10.8940
-2 -16 -12 9.6943 -4.1934
-2 -16 -11 2.2491 -23.9876
-2 -16 -10 3.0134 -3.0231
-2 -16 -9 -27.2635 3.3391
-2 -16 -8 -2.9440 24.6722
-2 -16 -7 -10.8215 -6.9291
-2 -16 -6 -29.1888 1.4405
-2 -16 -5 -1.8648 -11.9711
-2 -16 -4 -13.6807 -52.0959
-2 -16 -3 4.4849 9.2507
-2 -15 -14 -0.7783 -28.0173
-2 -15 -13 14.7804 -0.5075
-2 -15 -12 1.4312 -7.6348
-2 -15 -11 -13.6078 5.5860
-2 -15 -10 -6.0944 -19.2593
-2 -15 -9 12.6287 9.4182
-2 -15 -8 -6.3116 4.7068
-2 -15 -7 16.1862 -8.0350
-2 -15 -6 21.6021 2.3630
-2 -15 -5 -16.0651 -44.1319
-2 -15 -4 -30.6712 -14.3638
-2 -15 -3 2.7147 27.5367
-2 -14 -13 -7.3027 1.6170
-2 -14 -12 30.3205 1.8449
-2 -14 -11 -27.2306 -8.8709
-2 -14 -10 2.3869 15.8377
-2 -14 -9 -4.1147 -4.0811
-2 -14 -8 -16.0594 -23.8120
-2 -14 -7 -14.8274 3.9704
-2 -14 -6 -1.5719 -10.6199
-2 -14 -5 10.3099 13.5903
-2 -14 -4 8.7975 -21.8674
-2 -14 -3 -10.3171 -10.7613
-2 -13 -12 -5.1850 -6.3722
-2 -13 -11 -13.9044 -11.2065
-2 -13 -10 35.9253 -26.3446
-2 -13 -9 48.1205 20.9755
-2 -13 -8 10.1973 -8.6970
-2 -13 -7 -3.0206 -14.5922
-2 -13 -6 -30.5839 -23.7204
-2 -13 -5 26.2063 9.1205
-2 -13 -4 -4.3922 28.1361
-2 -13 -3 -7.8847 20.2913
-2 -12 -11 16.8475 7.4416
-2 -12 -10 -5.3774 -17.0275
-2 -12 -9 13.3458 -18.1063
-2 -12 -8 1.4604 4.8228
-2 -12 -7 4.1571 62.3844
-2 -12 -6 -11.1540 25.3726
-2 -12 -5 -1.9104 5.4407
-2 -12 -4 13.2710 -32.1884
-2 -12 -3 -21.5287 -28.1094
-2 -11 -10 5.4503 11.3614
-2 -11 -9 8.9455 -25.6931
-2 -11 -8 11.8395 29.4873
-2 -11 -7 25.6909 39.9555
-2 -11 -6 3.9378 9.3332
-2 -11 -5 3.5325 15.0848
-2 -11 -4 -8.1694 1.2770
-2 -11 -3 -17.8937 -27.3456
-2 -10 -9 -11.2163 23.1942
-2 -10 -8 -2.4119 -0.9819
-2 -10 -7 1.9153 -11.5078
-2 -10 -6 -0.9754 6.2818
-2 -10 -5 14.4654 35.6296
-2 -10 -4 16.5733 -19.5689
-2 -10 -3 20.2836 2.7753
-2 -9 -8 20.9318 44.0295
-2 -9 -7 -10.6310 22.7063
-2 -9 -6 -35.4758 34.6937
-2 -9 -5 56.0021 -1.9049
-2 -9 -4 -10.5379 -87.3283
-2 -9 -3 -30.4000 23.5744
-2 -8 -7 -15.0222 -32.2678
-2 -8 -6 55.2994 -39.6969
-2 -8 -5 -39.1778 -57.7072
-2 -8 -4 22.5912 52.1252
-2 -8 -3 -29.3942 -16.4386
-2 -7 -6 17.8840 -10.5995
-2 -7 -5 -28.5718 34.8816
-2 -7 -4 -14.7904 22.7678
-2 -7 -3 -60.9575 96.9473
-2 -6 -5 12.7889 -30.4828
-2 -6 -4 41.9255 -42.7014
-2 -6 -3 88.2229 -22.2701
-2 -5 -4 -42.3520 -43.3156
-2 -5 -3 177.1313 -56.8493
-2 -4 -3 16.6926 -2.7421
-1 -38 -7 -0.8921 -1.2176
-1 -38 -6 -10.9915 13.9625
-1 -38 -5 -10.9941 -11.6861
-1 -38 -4 11.8352 17.9725
-1 -38 -3 2.7508 3.3813
-1 -38 -2 1.4374 -5.9236
-1 -37 -11 -12.8308 -12.4579
-1 -37 -10 3.5542 -3.8495
-1 -37 -9 -11.6725 -3.3795
-1 -37 -8 -0.3652 11.0483
-1 -37 -7 3.2309 -3.8643
-1 -37 -6 5.8182 8.6856
-1 -37 -5 2.3547 17.3430
-1 -37 -4 -3.5278 8.3294
-1 -37 -3 -7.1825 4.5639
-1 -37 -2 -1.2732 -6.8893
-1 -36 -14 1.1421 3.8398
-1 -36 -13 -2.1625 1.5060
-1 -36 -12 15.2300 -2.6763
-1 -36 -11 12.6723 6.9410
-1 -36 -10 1.1728 2.0894
-1 -36 -9 -1.3149 -10.7661
-1 -36 -8 -8.8354 -6.3312
-1 -36 -7 4.2718 -2.9607
-1 -36 -6 6.8452 18.4398
-1 -36 -5 -1.5615 -0.7318
-1 -36 -4 10.8296 -4.7957
-1 -36 -3 1.1193 5.5394
-1 -36 -2 -13.9005 -9.6187
-1 -35 -16 -5.3512 -9.4254
-1 -35 -15 -6.8066 9.2001
-1 -35 -14 -11.4201 -5.7131
-1 -35 -13 -3.8415 -1.5729
-1 -35 -12 -4.5820 -4.2442
-1 -35 -11 -14.0182 -15.0887
-1 -35 -10 -5.1420 -6.5203
-1 -35 -9 2.5081 1.9409
-1 -35 -8 -8.6345 -0.4946
-1 -35 -7 -5.7951 -19.6919
-1 -35 -6 8.8146 14.9909
-1 -35 -5 2.7520 4.5427
-1 -35 -4 -6.1016 -0.7703
-1 -35 -3 1.0655 -2.6789
-1 -35 -2 14.1812 -1.2382
-1 -34 -18 -24.2598 -22.5103
-1 -34 -17 7.0276 -22.1433
-1 -34 -16 -8.6289 9.1202
-1 -34 -15 12.0097 -7.3772
-1 -34 -14 -3.4765 16.5840
-1 -34 -13 -3.7701 -14.7951
-1 -34 -12 -9.3327 0.5678
-1 -34 -11 -15.1942 -1.2736
-1 -34 -10 19.3508 -5.5130
-1 -34 -9 -15.9982 -9.5426
-1 -34 -8 23.4179 6.0619
-1 -34 -7 -6.6671 7.9408
-1 -34 -6 26.1607 -25.0608
-1 -34 -5 1.0117 -4.8639
-1 -34 -4 9.4620 -5.4375
-1 -34 -3 -8.8387 13.9610
-1 -34 -2 11.4935 -18.5105
-1 -33 -20 3.9902 2.8003
-1 -33 -19 12.8938 -12.1008
-1 -33 -18 2.9454 12.4522
-1 -33 -17 2.4061 -0.6508
-1 -33 -16 -4.5214 19.9257
-1 -33 -15 -13.6500 7.1630
-1 -33 -14 -8.9681 19.0806
-1 -33 -13 -17.9172 -7.0661
-1 -33 -12 -15.4763 -12.3667
-1 -33 -11 16.9711 -11.3970
-1 -33 -10 -9.1770 -20.8208
-1 -33 -9 1.8707 0.6848
-1 -33 -8 16.7244 15.8573
-1 -33 -7 -7.3182 9.6661
-1 -33 -6 -3.6903 -3.7081
-1 -33 -5 7.1544 3.5339
-1 -33 -4 13.0659 11.3541
-1 -33 -3 6.2916 8.8447
-1 -33 -2 6.8850 0.3587
-1 -32 -21 6.5797 -2.2457
-1 -32 -20 -4.7049 7.5321
-1 -32 -19 -3.4146 -1.6895
-1 -32 -18 -4.4449 15.2451
-1 -32 -17 19.1634 14.6229
-1 -32 -16 13.8224 -10.9281
-1 -32 -15 -14.9862 -5.8625
-1 -32 -14 4.2979 -1.5691
-1 -32 -13 46.9692 -15.1089
-1 -32 -12 -6.4020 23.3251
-1 -32 -11 10.0084 1.4904
-1 -32 -10 5.7970 -22.5266
-1 -32 -9 -4.9164 6.9623
-1 -32 -8 14.8424 -6.9234
-1 -32 -7 18.5754 17.6004
-1 -32 -6 3.0538 -14.7895
-1 -32 -5 4.0137 -8.5513
-1 -32 -4 0.6613 -18.6185
-1 -32 -3 17.1986 -6.6897
-1 -32 -2 20.0533 20.0461
-1 -31 -23 12.0001 3.0706
-1 -31 -22 -15.1269 5.8165
-1 -31 -21 -13.6196 5.0140
-1 -31 -20 -19.9520 -7.6680
-1 -31 -19 -17.3014 5.3510
-1 -31 -18 8.1658 -11.2499
-1 -31 -17 1.8255 28.2283
-1 -31 -16 -9.2188 7.0434
-1 -31 -15 2.0292 9.5625
-1 -31 -14 13.8856 14.5462
-1 -31 -13 -12.6540 -10.1299
-1 -31 -12 -0.1621 -18.9463
-1 -31 -11 -5.2475 25.7852
-1 -31 -10 4.6572 -0.6124
-1 -31 -9 -1.4922 -5.3636
-1 -31 -8 15.0097 -8.9227
-1 -31 -7 -30.5393 12.8689
-1 -31 -6 -9.5674 37.1455
-1 -31 -5 -13.8822 -3.7087
-1 -31 -4 -6.8868 3.2605
-1 -31 -3 5.6094 37.0741
-1 -31 -2 13.4892 -5.7629
-1 -30 -24 9.6547 -4.3575
-1 -30 -23 -3.0878 2.6586
-1 -30 -22 4.6201 8.2351
-1 -30 -21 -3.2082 -5.3339
-1 -30 -20 3.6133 15.9064
-1 -30 -19 13.0443 -9.5214
-1 -30 -18 -12.2690 -19.6663
-1 -30 -17 -12.3642 0.1175
-1 -30 -16 -30.9853 12.0057
-1 -30 -15 -9.4534 -18.5775
-1 -30 -14 -9.7225 -15.3420
-1 -30 -13 6.1667 -33.3402
-1 -30 -12 0.9596 -13.0293
-1 -30 -11 6.6589 3.4939
-1 -30 -10 8.7973 -1.6112
-1 -30 -9 -4.0274 -22.7003
-1 -30 -8 3.2963 13.3658
-1 -30 -7 3.6641 9.5770
-1 -30 -6 8.8691 -6.6318
-1 -30 -5 1.6410 -7.1528
-1 -30 -4 -4.9342 -6.8839
-1 -30 -3 -12.7824 -1.5773
-1 -30 -2 2.3905 -12.0062
-1 -29 -25 -0.6087 8.3867
-1 -29 -24 11.4455 -14.9885
-1 -29 -23 -2.4376 -25.9190
-1 -29 -22 4.2242 -11.3587
-1 -29 -21 -2.1637 -14.7706
-1 -29 -20 -7.8034 -2.9985
-1 -29 -19 -3.4633 -10.3195
-1 -29 -18 14.0492 1.5193
-1 -29 -17 -13.3904 -8.0946
-1 -29 -16 40.2229 33.7702
-1 -29 -15 -19.8572 -9.9092
-1 -29 -14 -18.6591 11.2074
-1 -29 -13 10.0388 -7.0566
-1 -29 -12 27.4585 -36.4897
-1 -29 -11 -10.5971 35.0409
-1 -29 -10 1.2101 -26.5907
-1 -29 -9 -3.6593 6.1428
-1 -29 -8 -1.5772 -0.4652
-1 -29 -7 6.0530 -17.4773
-1 -29 -6 14.7278 13.8333
-1 -29 -5 -1.4973 1.3532
-1 -29 -4 18.7573 -15.7997
-1 -29 -3 37.7991 2.3219
-1 -29 -2 16.8396 -14.6162
-1 -28 -26 14.7958 23.3546
-1 -28 -25 1.9717 3.7323
-1 -28 -24 -13.5386 4.4215
-1 -28 -23 -19.6555 2.5829
-1 -28 -22 -11.2802 13.0519
-1 -28 -21 -25.7128 5.2283
-1 -28 -20 2.4954 10.5690
-1 -28 -19 -16.0721 13.5131
-1 -28 -18 -12.0998 7.1740
-1 -28 -17 22.1928 3.2394
-1 -28 -16 7.0768 -0.5269
-1 -28 -15 16.2310 -5.6041
-1 -28 -14 3.4842 -12.8095
-1 -28 -13 18.4845 -1.5262
-1 -28 -12 1.0071 -3.1124
-1 -28 -11 26.2502 -0.8827
-1 -28 -10 -0.5452 17.3885
-1 -28 -9 26.8486 6.2224
-1 -28 -8 -24.9699 31.4487
-1 -28 -7 5.5395 12.3756
-1 -28 -6 -24.7935 -5.6857
-1 -28 -5 5.2080 -9.2314
-1 -28 -4 19.3499 -0.0154
-1 -28 -3 8.4922 4.4940
-1 -28 -2 8.6136 -7.4039
-1 -27 -26 -4.4857 21.2284
-1 -27 -25 5.1084 -8.4939
-1 -27 -24 -1.1318 -5.0913
-1 -27 -23 -5.0021 0.8196
-1 -27 -22 -5.6456 -5.3924
-1 -27 -21 -0.9283 -2.8455
-1 -27 -20 9.1381 8.2377
-1 -27 -19 -2.1100 -4.1548
-1 -27 -18 1.8581 8.5606
-1 -27 -17 -14.2263 16.2040
-1 -27 -16 -10.2131 46.2074
-1 -27 -15 21.9695 -2.8885
-1 -27 -14 -3.7832 30.7240
-1 -27 -13 -11.2002 29.9099
-1 -27 -12 8.3392 21.5557
-1 -27 -11 19.0842 -16.4407
-1 -27 -10 -6.9041 14.7285
-1 -27 -9 7.4697 -9.6718
-1 -27 -8 5.1396 -9.3475
-1 -27 -7 -20.5097 -2.2135
-1 -27 -6 -38.2906 5.6545
-1 -27 -5 16.6651 13.6395
-1 -27 -4 -12.1709 -2.1928
-1 -27 -3 0.7542 15.2494
-1 -27 -2 -4.8764 -7.0158
-1 -26 -25 10.2767 -0.4662
-1 -26 -24 -0.5363 -13.3299
-1 -26 -23 3.8223 -13.9884
-1 -26 -22 -1.9686 -16.3261
-1 -26 -21 -15.9816 0.7456
-1 -26 -20 0.0147 5.6108
-1 -26 -19 -9.6990 26.8030
-1 -26 -18 7.1443 -40.2442
-1 -26 -17 -19.1526 2.9100
-1 -26 -16 -20.7671 22.5782
-1 -26 -15 19.4806 2.1545
-1 -26 -14 -20.8617 -7.4209
-1 -26 -13 13.8493 3.0671
-1 -26 -12 7.6136 -6.0901
-1 -26 -11 -5.4795 -7.5288
-1 -26 -10 -31.8440 -2.7087
-1 -26 -9 11.3979 12.1342
-1 -26 -8 -27.1078 4.4136
-1 -26 -7 19.1602 -22.0861
-1 -26 -6 -11.1327 1.0147
-1 -26 -5 7.2073 -10.9574
-1 -26 -4 3.7587 10.7259
-1 -26 -3 14.1808 7.4901
-1 -26 -2 2.7477 -4.8234
-1 -25 -24 -7.2425 -13.9252
-1 -25 -23 11.5632 8.1212
-1 -25 -22 -5.8731 -0.5202
-1 -25 -21 -14.9735 -26.4647
-1 -25 -20 0.3137 12.3935
-1 -25 -19 -9.3666 -11.2451
-1 -25 -18 10.5426 6.2744
-1 -25 -17 21.0467 -6.1158
-1 -25 -16 -7.5924 4.0302
-1 -25 -15 -3.8868 -5.1292
-1 -25 -14 1.7070 11.6784
-1 -25 -13 11.1507 27.9466
-1 -25 -12 -13.5317 11.8467
-1 -25 -11 13.1060 6.6227
-1 -25 -10 30.9372 11.9206
-1 -25 -9 15.8625 13.3331
-1 -25 -8 -20.0324 8.3316
-1 -25 -7 -4.0032 4.8767
-1 -25 -6 1.0367 -8.5819
-1 -25 -5 -7.6727 -18.7768
-1 -25 -4 -11.7367 -19.9103
-1 -25 -3 -12.7296 4.3368
-1 -25 -2 -4.1317 -1.9710
-1 -24 -23 -15.5932 10.1819
-1 -24 -22 -4.6581 -9.2121
-1 -24 -21 -22.4213 -30.1798
-1 -24 -20 -8.6075 -14.3952
-1 -24 -19 16.4662 -20.2182
-1 -24 -18 16.3285 15.3255
-1 -24 -17 -35.0741 -13.0533
-1 -24 -16 23.8601 -18.1015
-1 -24 -15 5.6046 13.9699
-1 -24 -14 39.6253 3.9543
-1 -24 -13 14.3670 -28.8910
-1 -24 -12 -7.5446 -11.4630
-1 -24 -11 -9.7425 -10.0331
-1 -24 -10 9.0885 4.8627
-1 -24 -9 10.7981 -16.6511
-1 -24 -8 -9.0854 3.3274
-1 -24 -7 24.0093 14.9904
-1 -24 -6 -16.3011 -2.2585
-1 -24 -5 -10.7339 1.7563
-1 -24 -4 -45.2042 1.0311
-1 -24 -3 -4.1161 2.8715
-1 -24 -2 -6.4018 -13.7197
-1 -23 -22 -21.7937 -1.5066
-1 -23 -21 -22.0516 0.2762
-1 -23 -20 -7.4129 -25.7629
-1 -23 -19 -5.3464 15.6371
-1 -23 -18 -2.8664 -7.5853
-1 -23 -17 44.3960 16.8163
-1 -23 -16 -1.1351 -7.3192
-1 -23 -15 -2.3903 0.4903
-1 -23 -14 1.4705 49.4902
-1 -23 -13 8.7773 4.7190
-1 -23 -12 17.8922 -22.8954
-1 -23 -11 -12.5101 -3.2986
-1 -23 -10 7.8376 -21.2873
-1 -23 -9 45.0200 0.6382
-1 -23 -8 -8.7046 -13.4808
-1 -23 -7 -6.5700 12.2573
-1 -23 -6 -11.4843 2.8889
-1 -23 -5 6.7444 18.6032
-1 -23 -4 11.7163 -1.5162
-1 -23 -3 13.0603 -5.9403
-1 -23 -2 -8.4052 -2.3536
-1 -22 -21 12.2811 14.3287
-1 -22 -20 30.0069 -19.9320
-1 -22 -19 -1.0570 9.0683
-1 -22 -18 -0.0197 1.4666
-1 -22 -17 -52.1955 -18.4303
-1 -22 -16 -36.1780 10.4982
-1 -22 -15 10.9461 20.0760
-1 -22 -14 11.0865 -12.0506
-1 -22 -13 16.7170 13.2691
-1 -22 -12 12.0686 11.4104
-1 -22 -11 -22.6060 -21.8353
-1 -22 -10 1.7477 -12.6517
-1 -22 -9 -5.2645 14.7734
-1 -22 -8 9.9893 -15.4435
-1 -22 -7 -19.7056 -1.9781
-1 -22 -6 -16.4529 -12.1233
-1 -22 -5 13.6682 2.4187
-1 -22 -4 8.1511 -24.3129
-1 -22 -3 17.3370 5.2463
-1 -22 -2 -28.2406 16.1699
-1 -21 -20 -8.0734 13.1686
-1 -21 -19 -8.7868 10.5729
-1 -21 -18 -17.9812 -9.4394
-1 -21 -17 12.6695 1.0476
-1 -21 -16 30.8427 23.1817
-1 -21 -15 9.8042 -12.9235
-1 -21 -14 -9.8061 -2.4655
-1 -21 -13 3.9525 -33.3924
-1 -21 -12 -9.4524 -33.9099
-1 -21 -11 3.2360 -20.7536
-1 -21 -10 -4.9703 2.2017
-1 -21 -9 -7.9550 38.9893
-1 -21 -8 15.0257 26.0438
-1 -21 -7 -6.3283 2.9737
-1 -21 -6 3.8914 -18.9722
-1 -21 -5 0.5597 -19.0846
-1 -21 -4 10.9541 -26.4464
-1 -21 -3 -30.7527 -68.6305
-1 -21 -2 -23.7552 -6.0262
-1 -20 -19 1.5279 28.9821
-1 -20 -18 3.3992 -12.3203
-1 -20 -17 -22.4066 13.4005
-1 -20 -16 -23.9834 2.2320
-1 -20 -15 -15.5135 36.4781
-1 -20 -14 31.1764 8.9877
-1 -20 -13 -4.8763 -12.5367
-1 -20 -12 19.3414 -32.7086
-1 -20 -11 6.1462 11.5342
-1 -20 -10 1.3736 -3.6835
-1 -20 -9 4.0330 -39.0653
-1 -20 -8 29.1274 -44.2951
-1 -20 -7 12.6551 -14.9390
-1 -20 -6 -8.4182 1.5760
-1 -20 -5 -38.9593 -6.4530
-1 -20 -4 -3.9689 -21.4745
-1 -20 -3 10.6083 31.7268
-1 -20 -2 51.5292 -24.4187
-1 -19 -18 -4.3830 -14.1485
-1 -19 -17 -20.5427 -7.9318
-1 -19 -16 -3.3617 -18.8730
-1 -19 -15 6.6513 6.9567
-1 -19 -14 -1.7404 -18.5694
-1 -19 -13 -10.9113 25.3003
-1 -19 -12 -18.0647 -22.2646
-1 -19 -11 4.7167 17.6325
-1 -19 -10 -22.0223 -21.6168
-1 -19 -9 -24.5927 -0.6585
-1 -19 -8 -4.3229 -39.6938
-1 -19 -7 -11.1642 44.0439
-1 -19 -6 -9.6033 -11.4395
-1 -19 -5 -26.8045 1.2450
-1 -19 -4 -6.4061 1.1855
-1 -19 -3 -0.4684 -15.1649
-1 -19 -2 4.5637 17.5592
-1 -18 -17 3.9936 24.1894
-1 -18 -16 -0.5614 9.4360
-1 -18 -15 0.0858 -22.4439
-1 -18 -14 18.9229 -25.1897
-1 -18 -13 -22.2296 29.3612
-1 -18 -12 23.6274 25.5915
-1 -18 -11 -6.0866 -22.0357
-1 -18 -10 36.1011 -41.6894
-1 -18 -9 -12.5005 49.4556
-1 -18 -8 0.2560 23.8879
-1 -18 -7 -5.6030 21.8382
-1 -18 -6 -41.6442 6.6375
-1 -18 -5 -16.1825 -23.3501
-1 -18 -4 51.6331 3.4013
-1 -18 -3 -7.8483 -0.0203
-1 -18 -2 -33.0710 10.1365
-1 -17 -16 -9.1268 4.3987
-1 -17 -15 4.9880 -14.4631
-1 -17 -14 -7.2506 -23.5655
-1 -17 -13 19.3761 6.3291
-1 -17 -12 19.3166 -15.3623
-1 -17 -11 -9.9379 -4.8467
-1 -17 -10 14.9050 -2.6076
-1 -17 -9 4.2678 5.0344
-1 -17 -8 -28.5181 13.5554
-1 -17 -7 -12.7426 3.4479
-1 -17 -6 8.7177 -5.2251
-1 -17 -5 12.2273 5.5526
-1 -17 -4 -2.0893 -54.1511
-1 -17 -3 -4.3049 -22.2555
-1 -17 -2 -9.3669 -28.4090
-1 -16 -15 -8.2619 -18.9577
-1 -16 -14 7.9735 22.9616
-1 -16 -13 -9.2940 1.5381
-1 -16 -12 1.1855 -30.2681
-1 -16 -11 -2.0160 -7.4119
-1 -16 -10 23.4084 16.7271
-1 -16 -9 14.2356 14.0687
-1 -16 -8 -16.6337 5.3337
-1 -16 -7 -8.1392 -18.3169
-1 -16 -6 0.1269 -13.8304
-1 -16 -5 -2.8465 3.7570
-1 -16 -4 39.3571 21.5434
-1 -16 -3 -11.6694 -35.7014
-1 -16 -2 14.7905 -6.0162
-1 -15 -14 6.4607 -6.9889
-1 -15 -13 12.8145 -0.4965
-1 -15 -12 -22.5653 -30.5906
-1 -15 -11 -9.3171 1.1574
-1 -15 -10 9.6366 3.2547
-1 -15 -9 -6.7981 23.3882
-1 -15 -8 -14.9022 2.7962
-1 -15 -7 1.3341 13.6663
-1 -15 -6 0.0105 -8.8398
-1 -15 -5 -37.0425 -5.9574
-1 -15 -4 -8.5776 -31.1969
-1 -15 -3 -23.3445 -2.8434
-1 -15 -2 13.5967 0.7787
-1 -14 -13 14.2315 -20.2192
-1 -14 -12 -9.6394 5.7770
-1 -14 -11 1.5078 -22.0928
-1 -14 -10 6.8747 -6.9743
-1 -14 -9 -7.6457 -18.2652
-1 -14 -8 -1.3308 11.0222
-1 -14 -7 19.6590 -1.2094
-1 -14 -6 1.1423 33.7069
-1 -14 -5 44.2852 17.6677
-1 -14 -4 4.0584 7.0564
-1 -14 -3 1.7808 31.7182
-1 -14 -2 37.9221 -14.8875
-1 -13 -12 8.0846 16.3474
-1 -13 -11 3.9740 25.8579
-1 -13 -10 6.0303 -10.7899
-1 -13 -9 42.4961 58.8649
-1 -13 -8 31.6491 -22.3802
-1 -13 -7 -40.3370 -9.4088
-1 -13 -6 5.5116 34.2342
-1 -13 -5 21.5072 -22.9598
-1 -13 -4 5.8099 26.8897
-1 -13 -3 -22.2385 -9.4229
-1 -13 -2 -22.6753 -4.2276
-1 -12 -11 2.6829 -9.2620
-1 -12 -10 -0.3673 -8.9156
-1 -12 -9 -18.0539 -9.9937
-1 -12 -8 -18.9729 26.1315
-1 -12 -7 25.5490 -21.2945
-1 -12 -6 -14.9181 19.6400
-1 -12 -5 12.8379 28.8273
-1 -12 -4 31.1584 -8.8971
-1 -12 -3 6.2427 -10.9156
-1 -12 -2 -11.8130 -1.8017
-1 -11 -10 -4.2961 -21.5238
-1 -11 -9 -14.8239 47.7352
-1 -11 -8 17.8024 -4.2436
-1 -11 -7 -1.7340 14.5739
-1 -11 -6 36.3124 -4.9540
-1 -11 -5 12.6591 -67.4331
-1 -11 -4 -43.2533 -8.6928
-1 -11 -3 6.1701 15.1206
-1 -11 -2 22.0996 9.0346
-1 -10 -9 -22.8737 20.7760
-1 -10 -8 -4.0288 7.7415
-1 -10 -7 23.2042 28.2340
-1 -10 -6 -13.9079 -57.8989
-1 -10 -5 11.7650 -3.1470
-1 -10 -4 -17.0091 -45.4868
-1 -10 -3 13.4693 -27.6032
-1 -10 -2 0.4608 4.6822
-1 -9 -8 -14.6052 66.5620
-1 -9 -7 -39.6786 18.7107
-1 -9 -6 -22.1987 -7.4268
-1 -9 -5 -47.6992 -24.9946
-1 -9 -4 38.6560 -92.0171
-1 -9 -3 16.5421 -58.1734
-1 -9 -2 -17.4417 -17.9825
-1 -8 -7 -32.9879 8.6602
-1 -8 -6 5.0810 -10.1715
-1 -8 -5 52.8569 -29.8948
-1 -8 -4 -29.0850 29.7825
-1 -8 -3 96.2841 -5.7088
-1 -8 -2 23.0228 104.1683
-1 -7 -6 -23.7321 42.1997
-1 -7 -5 13.7190 4.8302
-1 -7 -4 102.2022 -56.3855
-1 -7 -3 87.0427 -112.2074
-1 -7 -2 1.9722 77.8496
-1 -6 -5 -32.8277 -20.5709
-1 -6 -4 -14.0159 36.9944
-1 -6 -3 3.4303 -66.6420
-1 -6 -2 -62.5578 -22.0281
-1 -5 -4 -93.6451 -75.8185
-1 -5 -3 -175.7870 -43.8917
-1 -5 -2 148.0095 -48.6289
-1 -4 -3 -48.9518 -56.6545
-1 -4 -2 13.1532 -19.6347
-1 -3 -2 50.4715 155.6205
0 2 2 140.7943 -8.7557
0 3 1 -1.7292 -52.7588
0 3 2 -2.7486 -187.5776
0 3 3 -1.1009 195.3994
0 4 0 -46.5695 6.8351
0 4 1 6.7643 5.0853
0 4 2 414.8191 9.5495
0 4 3 90.5361 -1.1310
0 4 4 66.5070 -16.6182
0 5 1 1.2168 -101.8419
0 5 2 -0.1284 -266.7425
0 5 3 0.6881 41.4818
0 5 4 1.4804 -66.9976
0 5 5 1.1013 109.9803
0 6 1 -6.6253 -3.1222
0 6 2 -22.0388 -4.4870
0 6 3 -44.6134 -2.8177
0 6 4 29.3975 1.0455
0 6 5 -115.9435 -2.8869
0 6 6 -3.0243 10.3175
0 7 1 -1.8282 145.8471
0 7 2 -7.1340 109.6719
0 7 3 -1.7540 -79.1773
0 7 4 8.0354 39.9825
0 7 5 -3.8454 21.5937
0 7 6 -8.2231 49.3583
0 7 7 0.3062 -98.6638
0 8 0 87.4481 6.5164
0 8 1 -20.2182 -2.5610
0 8 2 -90.8339 1.2945
0 8 3 -23.2853 -1.7672
0 8 4 19.4111 5.5622
0 8 5 3.9341 -1.8991
0 8 6 -28.4512 -3.6906
0 8 7 -2.6083 3.9751
0 8 8 -20.4623 9.0765
0 9 1 0.1208 -11.7943
0 9 2 10.7468 -20.0641
0 9 3 -7.7484 -50.6330
0 9 4 -11.2332 -95.3508
0 9 5 0.7571 -4.3980
0 9 6 20.8385 10.8816
0 9 7 -3.5759 19.7262
0 9 8 -14.4015 16.9953
0 9 9 4.3855 14.8980
0 10 1 -68.2839 2.6418
0 10 2 6.9697 3.4432
0 10 3 -30.9409 -8.2606
0 10 4 -50.5394 -3.4557
0 10 5 -38.7227 -1.4478
0 10 6 12.7752 12.9926
0 10 7 44.4313 5.2030
0 10 8 11.9999 -6.5569
0 10 9 29.8503 0.4184
0 10 10 -17.0594 -1.5176
0 11 1 -4.8675 37.1227
0 11 2 -12.6113 18.3967
0 11 3 3.1164 -8.5313
0 11 4 16.3011 -17.2061
0 11 5 -7.1515 14.3363
0 11 6 -17.1818 -20.9860
0 11 7 6.1414 47.8358
0 11 8 10.8444 -32.9464
0 11 9 -2.1855 2.4426
0 11 10 -9.8216 -10.1430
0 11 11 4.0437 1.5207
0 12 0 8.5526 1.6776
0 12 1 -29.4900 -3.0094
0 12 2 -8.1718 -3.5135
0 12 3 25.2766 4.9814
0 12 4 -46.9130 6.9998
0 12 5 64.6992 1.7037
0 12 6 1.4436 -11.1165
0 12 7 23.8879 -0.2739
0 12 8 18.3095 -2.7906
0 12 9 -25.5456 3.8067
0 12 10 -35.0453 -6.2884
0 12 11 14.9712 0.6877
0 12 12 10.1245 -0.3813
0 13 1 0.9413 -17.9559
0 13 2 9.5997 4.3795
0 13 3 -8.6473 -33.9863
0 13 4 -13.5220 -18.2877
0 13 5 8.1204 34.8161
0 13 6 16.9255 29.1520
0 13 7 -0.4397 15.8812
0 13 8 -14.0644 -39.5378
0 13 9 7.2140 -15.0072
0 13 10 -1.4421 12.5819
0 13 11 3.2782 -35.1376
0 13 12 1.0034 -2.8070
0 13 13 -2.7414 -35.9002
0 14 1 -2.7056 4.1003
0 14 2 -48.3082 3.3964
0 14 3 -44.5417 0.7065
0 14 4 -32.4520 -7.9011
0 14 5 18.8386 5.7557
0 14 6 -81.5081 -1.1136
0 14 7 -46.2546 3.9961
0 14 8 -7.4996 -13.6792
0 14 9 11.3152 1.2254
0 14 10 17.1259 -1.9758
0 14 11 -21.3782 -2.8217
0 14 12 -3.7832 -5.6766
0 14 13 0.6393 1.2499
0 14 14 -29.2889 3.8818
0 15 1 -3.3467 -5.2582
0 15 2 -5.0562 -27.1947
0 15 3 5.8707 2.1338
0 15 4 4.0267 -21.5652
0 15 5 2.0590 -0.1491
0 15 6 -10.1052 32.7313
0 15 7 10.2380 -20.2571
0 15 8 -4.6585 6.5901
0 15 9 6.2067 3.4828
0 15 10 -0.3787 -13.9407
0 15 11 1.0367 -22.4884
0 15 12 -6.4142 -6.7492
0 15 13 4.3617 12.1336
0 15 14 5.1762 -12.1928
0 15 15 -9.2643 22.8624
0 16 0 7.3213 -3.5599
0 16 1 -11.1594 0.1700
0 16 2 26.6203 -3.3132
0 16 3 50.5748 9.7454
0 16 4 46.4659 2.8021
0 16 5 -35.8016 7.7113
0 16 6 4.4792 -6.8392
0 16 7 12.3264 6.8007
0 16 8 27.7449 -7.6965
0 16 9 6.3225 -0.4388
0 16 10 -9.9508 -8.1610
0 16 11 -4.7273 5.4694
0 16 12 -52.2500 0.5771
0 16 13 50.9056 -7.8832
0 16 14 33.8714 -1.7948
0 16 15 25.5789 6.3412
0 16 16 45.3665 7.4146
0 17 1 -2.3314 -20.4872
0 17 2 -0.0875 -65.3945
0 17 3 -3.7303 -19.1219
0 17 4 -7.6554 -3.8154
0 17 5 4.4844 -42.0494
0 17 6 -10.7251 -8.8589
0 17 7 12.5006 20.0615
0 17 8 -0.8462 -24.6205
0 17 9 4.0172 11.2957
0 17 10 -15.7840 0.5362
0 17 11 12.5989 -14.5959
0 17 12 5.3887 25.4308
0 17 13 -6.7506 14.6842
0 17 14 -4.0564 8.6535
0 17 15 4.0164 -7.2915
0 17 16 0.2002 -28.7953
0 17 17 -5.3039 -11.5173
0 18 1 -17.2474 3.8267
0 18 2 7.5589 3.7017
0 18 3 20.9099 7.2916
0 18 4 -49.0958 -1.3690
0 18 5 -15.7848 13.0354
0 18 6 18.8544 -2.8523
0 18 7 -7.3476 8.3184
0 18 8 6.9940 -1.2113
0 18 9 -25.2263 7.1226
0 18 10 -5.8631 -9.5187
0 18 11 -27.9185 -4.8857
0 18 12 -19.7479 -2.7317
0 18 13 -11.7900 8.1561
0 18 14 -14.7832 1.2096
0 18 15 18.2775 -5.4327
0 18 16 4.7312 -2.4466
0 18 17 4.9307 4.3998
0 18 18 -0.9520 4.8755
0 19 1 -2.3028 52.2092
0 19 2 2.3387 -3.7884
0 19 3 -4.3781 11.1188
0 19 4 -12.2560 8.3603
0 19 5 9.4052 10.3727
0 19 6 -1.4056 45.3851
0 19 7 0.5942 15.3271
0 19 8 -21.7246 -8.7999
0 19 9 15.5626 26.4432
0 19 10 7.5141 21.2535
0 19 11 -1.8323 22.3121
0 19 12 -13.7749 -9.1269
0 19 13 10.2237 2.4811
0 19 14 1.4929 -8.1382
0 19 15 -5.0162 1.8608
0 19 16 -2.4353 -34.6179
0 19 17 3.0123 32.2952
0 19 18 -5.5065 -19.1936
0 19 19 3.3403 -61.2993
0 20 0 40.7548 1.0870
0 20 1 7.0905 1.3530
0 20 2 9.2197 -0.5631
0 20 3 -20.2490 13.7442
0 20 4 -2.6734 6.6376
0 20 5 25.7554 8.8767
0 20 6 -61.9167 9.4101
0 20 7 -7.3628 6.1101
0 20 8 14.5828 -8.9223
0 20 9 3.8468 3.1409
0 20 10 11.0922 4.0708
0 20 11 33.4489 3.9918
0 20 12 -4.0842 -8.5585
0 20 13 -5.1339 -7.3670
0 20 14 -28.7581 -3.6603
0 20 15 -2.0389 5.4039
0 20 16 47.1410 -1.1624
0 20 17 -19.3821 0.5212
0 20 18 7.1748 -1.5420
0 20 19 18.3714 0.0569
0 20 20 -27.0600 1.5241
0 21 1 -5.5404 -12.3836
0 21 2 -3.1973 -25.8521
0 21 3 -3.8837 71.4992
0 21 4 -4.4357 -23.6657
0 21 5 -10.3203 -56.4575
0 21 6 -17.1495 -15.8449
0 21 7 10.0717 4.4465
0 21 8 7.1402 15.0091
0 21 9 -5.1657 18.6187
0 21 10 -14.4301 -28.8013
0 21 11 12.8041 25.6730
0 21 12 6.6944 -0.5619
0 21 13 -1.7618 34.0755
0 21 14 -8.2174 16.0553
0 21 15 9.0487 -9.8265
0 21 16 -4.3762 -5.0732
0 21 17 3.6195 7.6839
0 21 18 -6.3298 13.9181
0 21 19 4.4743 -30.6273
0 21 20 -7.1511 -26.5954
0 21 21 8.3161 44.5004
0 22 1 -6.6238 5.9191
0 22 2 3.0789 5.9552
0 22 3 -22.9175 2.7397
0 22 4 -18.1135 9.6690
0 22 5 -9.2631 9.2423
0 22 6 -28.4182 3.3287
0 22 7 -19.2668 9.2094
0 22 8 -20.1411 10.5031
0 22 9 36.6572 -0.6129
0 22 10 24.7878 -11.0865
0 22 11 18.7720 -1.6815
0 22 12 -2.5977 0.7064
0 22 13 14.9345 -1.9584
0 22 14 22.0722 -9.9187
0 22 15 -11.3553 -5.8302
0 22 16 20.8551 -5.6963
0 22 17 -7.6104 0.9476
0 22 18 -30.2700 -1.8042
0 22 19 -13.1546 0.7276
0 22 20 0.1433 -1.0747
0 22 21 7.4860 -1.4670
0 22 22 -17.2116 1.2606
0 23 1 -4.1749 30.6326
0 23 2 1.7845 12.5176
0 23 3 -13.5770 5.1144
0 23 4 -8.9881 10.5277
0 23 5 -0.5111 23.9260
0 23 6 0.1355 -3.7556
0 23 7 -8.1745 -12.0253
0 23 8 -8.4705 -12.4609
0 23 9 4.9830 -2.9478
0 23 10 7.1120 -9.7196
0 23 11 0.3733 -8.4536
0 23 12 -5.5190 28.6719
0 23 13 8.1511 0.3756
0 23 14 0.6981 -30.2844
0 23 15 2.7078 0.0159
0 23 16 -9.0340 -1.7983
0 23 17 11.5894 19.3918
0 23 18 -7.5609 12.3774
0 23 19 6.2612 35.9142
0 23 20 -8.1912 -24.2857
0 23 21 5.3142 1.7305
0 23 22 -3.0726 -27.2530
0 23 23 3.6534 -21.9507
0 24 0 -27.4018 -0.4004
0 24 1 -3.2825 -0.4952
0 24 2 -30.2999 2.5727
0 24 3 0.1008 7.7043
0 24 4 -0.3857 3.5538
0 24 5 30.0911 3.6281
0 24 6 0.1654 11.7304
0 24 7 -13.0681 -4.5394
0 24 8 -6.0484 -3.5658
0 24 9 -24.0523 4.1272
0 24 10 -19.6444 5.9755
0 24 11 6.1309 -10.6698
0 24 12 20.9841 -10.8293
0 24 13 21.8001 -5.8646
0 24 14 8.7516 -7.1001
0 24 15 19.4551 -4.9135
0 24 16 19.6691 -7.2593
0 24 17 23.1746 -8.1408
0 24 18 34.3439 -3.1726
0 24 19 -6.5147 1.9375
0 24 20 -18.7587 -1.5430
0 24 21 -5.3264 -1.5902
0 24 22 -19.6863 2.1994
0 24 23 19.8587 2.5530
0 24 24 -7.3613 2.5429
0 25 1 -2.0985 -23.4857
0 25 2 0.9476 -15.0910
0 25 3 -4.0110 20.6139
0 25 4 0.8841 -17.0349
0 25 5 -11.5991 -3.0289
0 25 6 0.3931 29.9663
0 25 7 -4.7137 30.3378
0 25 8 7.3174 -25.2275
0 25 9 -4.4384 13.8733
0 25 10 4.3386 12.1223
0 25 11 -0.2750 48.4279
0 25 12 7.3454 15.6715
0 25 13 3.0056 -50.5558
0 25 14 -1.2353 29.7653
0 25 15 11.9744 -11.9726
0 25 16 -2.4352 2.4205
0 25 17 2.2164 17.9537
0 25 18 -8.0730 -7.4535
0 25 19 11.7391 30.7469
0 25 20 -3.4825 22.9369
0 25 21 1.4469 -5.4081
0 25 22 -3.3996 -17.1062
0 25 23 3.1374 20.2164
0 25 24 0.0602 8.8314
0 25 25 -0.7986 19.2651
0 26 1 -12.6266 -0.5610
0 26 2 21.9649 1.9740
0 26 3 22.2879 1.6628
0 26 4 29.7446 8.6143
0 26 5 -6.8285 -4.6238
0 26 6 14.9945 1.3620
0 26 7 -37.4268 6.3606
0 26 8 -13.8474 6.5068
0 26 9 -22.6688 -10.1039
0 26 10 9.4271 -5.8669
0 26 11 22.8097 -1.7391
0 26 12 23.4800 -6.8928
0 26 13 -1.4081 -7.3362
0 26 14 0.2953 -7.9095
0 26 15 -4.0195 -10.9332
0 26 16 3.8643 -8.6756
0 26 17 28.6617 -0.9876
0 26 18 -32.3255 -3.7315
0 26 19 -36.0750 -7.9553
0 26 20 -10.7105 2.6495
0 26 21 -0.0954 6.2846
0 26 22 6.2510 0.4508
0 26 23 0.8460 -1.0069
0 26 24 -4.6528 4.4895
0 26 25 -17.1093 6.5463
0 26 26 8.4255 4.2183
0 27 1 -1.5976 16.7337
0 27 2 1.0182 30.5353
0 27 3 -5.2730 -8.7982
0 27 4 2.0108 -10.7299
0 27 5 -8.5691 -4.5292
0 27 6 4.3063 -3.6727
0 27 7 -2.2826 13.9069
0 27 8 8.5556 11.9742
0 27 9 -9.4090 -19.8963
0 27 10 6.9919 10.6331
0 27 11 4.4014 -25.6726
0 27 12 7.0093 -15.6354
0 27 13 3.5152 10.4150
0 27 14 -0.6917 31.1449
0 27 15 3.4077 -8.9501
0 27 16 -1.0565 17.3620
0 27 17 13.6936 25.2022
0 27 18 -4.1999 -26.3986
0 27 19 -2.8023 11.3321
0 27 20 -5.2701 20.0441
0 27 21 8.4154 -21.4476
0 27 22 -0.7004 -17.5872
0 27 23 -4.3255 -15.5387
0 27 24 1.0890 -11.0130
0 27 25 0.3104 -11.2204
0 27 26 -0.2911 12.2041
0 27 27 -1.9873 -7.7463
0 28 0 -9.0698 -4.0643
0 28 1 12.2970 0.6576
0 28 2 1.4422 2.1432
0 28 3 -5.2076 -6.5804
0 28 4 9.9260 -2.8290
0 28 5 -23.9597 2.5729
0 28 6 27.2191 3.7050
0 28 7 12.5193 -12.2810
0 28 8 17.6945 -2.1669
0 28 9 -5.7415 1.8386
0 28 10 16.0770 -3.3811
0 28 11 22.1054 -9.7235
0 28 12 -14.4236 -3.1351
0 28 13 -6.6150 -7.3810
0 28 14 -0.2587 -11.1893
0 28 15 29.2645 -2.0330
0 28 16 -28.3753 -1.8952
0 28 17 37.8133 -11.6870
0 28 18 8.6099 -1.7054
0 28 19 29.1908 6.6913
0 28 20 -3.9875 -1.0533
0 28 21 6.5782 -3.0441
0 28 22 -4.3895 8.4636
0 28 23 -8.6787 11.0821
0 28 24 9.6457 3.5516
0 28 25 3.7423 3.7958
0 28 26 0.4267 3.8748
0 29 1 1.4261 2.5732
0 29 2 -0.1663 -17.8861
0 29 3 2.8751 -17.4233
0 29 4 6.3144 -9.3878
0 29 5 -1.2383 17.5273
0 29 6 7.8138 10.7442
0 29 7 -9.9275 -2.3282
0 29 8 7.9307 -7.7842
0 29 9 1.5786 -5.2611
0 29 10 12.3379 13.8612
0 29 11 -6.9910 5.6852
0 29 12 0.5667 7.4404
0 29 13 6.5616 2.2705
0 29 14 6.9667 30.1915
0 29 15 7.3611 -10.6082
0 29 16 -4.0984 -3.6467
0 29 17 -0.8835 16.2727
0 29 18 -0.3193 -23.1869
0 29 19 8.7433 -4.9814
0 29 20 -2.1268 -5.7024
0 29 21 -7.0587 -19.1030
0 29 22 -0.0195 8.9435
0 29 23 0.6567 19.8067
0 29 24 0.3804 25.8037
0 29 25 -3.8596 -13.6366
0 30 1 13.8271 -6.4690
0 30 2 22.0223 -2.0140
0 30 3 -16.6928 6.1361
0 30 4 -11.2521 2.1005
0 30 5 10.7362 -12.5769
0 30 6 -29.4992 -5.5529
0 30 7 -24.5752 2.0569
0 30 8 -8.5572 0.2298
0 30 9 7.9765 -4.5611
0 30 10 38.8138 -0.0274
0 30 11 8.5235 -3.3591
0 30 12 -14.5110 -8.4810
0 30 13 -9.8657 1.5305
0 30 14 -36.3747 3.0876
0 30 15 29.1988 -8.9235
0 30 16 7.8796 -6.7415
0 30 17 6.3456 4.4745
0 30 18 -14.5708 1.1567
0 30 19 -21.0171 -5.7398
0 30 20 15.0578 4.4168
0 30 21 -19.9487 10.7680
0 30 22 -26.8011 2.5370
0 30 23 12.7147 4.0521
0 30 24 -30.0514 7.7372
0 31 1 3.7430 3.2391
0 31 2 3.6538 -18.4696
0 31 3 2.3543 20.5944
0 31 4 5.3296 -2.7068
0 31 5 -1.5204 21.0691
0 31 6 11.3176 26.3581
0 31 7 1.0382 -8.2323
0 31 8 7.7115 -8.1216
0 31 9 -9.2544 10.3064
0 31 10 0.7191 6.5851
0 31 11 7.0098 18.2626
0 31 12 6.1062 3.6104
0 31 13 -2.5109 -24.4220
0 31 14 -6.6738 -56.0085
0 31 15 5.3090 21.9541
0 31 16 4.3478 -5.2949
0 31 17 4.3797 -19.9725
0 31 18 -5.0691 -25.7789
0 31 19 -5.4253 0.2365
0 31 20 2.0596 9.2717
0 31 21 0.4805 -25.9954
0 31 22 -1.4055 8.9415
0 31 23 -7.1412 5.9035
0 32 0 -0.8468 2.3737
0 32 1 6.6762 2.6365
0 32 2 -0.5730 0.3247
0 32 3 5.6622 -11.5642
0 32 4 -2.8111 -2.5850
0 32 5 7.4499 1.1582
0 32 6 -42.6134 -0.1280
0 32 7 12.7926 -6.0780
0 32 8 -4.2696 -1.2495
0 32 9 23.0371 -0.1271
0 32 10 16.2037 -3.0864
0 32 11 17.8777 0.9368
0 32 12 -8.1606 5.0830
0 32 13 -32.2091 -3.0152
0 32 14 -42.1742 -5.6200
0 32 15 -12.5182 3.5623
0 32 16 15.4336 4.5845
0 32 17 -12.0162 -5.2913
0 32 18 -17.3545 -0.6697
0 32 19 4.6433 7.2931
0 32 20 31.0873 2.0491
0 32 21 9.5870 1.6451
0 33 1 1.2008 4.9328
0 33 2 -0.8922 -25.8647
0 33 3 9.1852 5.8692
0 33 4 10.1155 18.1295
0 33 5 -1.7178 37.1335
0 33 6 4.3319 -9.7526
0 33 7 -1.4375 -18.9432
0 33 8 3.6988 -8.8378
0 33 9 2.6661 17.9006
0 33 10 3.0487 -27.1424
0 33 11 -7.3170 -4.3467
0 33 12 -7.8091 32.4587
0 33 13 8.1723 -24.3730
0 33 14 1.6916 123.7723
0 33 15 -2.8527 14.1771
0 33 16 -6.8425 -2.1075
0 33 17 1.7327 -4.6628
0 33 18 2.0650 -9.7629
0 33 19 -1.8028 6.6353
0 33 20 -2.5155 -13.4176
0 34 1 15.6531 -4.8075
0 34 2 7.8379 -2.5832
0 34 3 7.4785 1.1785
0 34 4 -6.0706 -1.3195
0 34 5 8.7412 -5.1892
0 34 6 15.5925 -5.8798
0 34 7 4.1846 -2.0585
0 34 8 14.1879 -1.3080
0 34 9 19.6071 1.7040
0 34 10 -10.0889 3.5684
0 34 11 -6.8262 -0.5639
0 34 12 -1.4528 -1.4713
0 34 13 13.9428 4.0483
0 34 14 -18.6692 7.4626
0 34 15 6.5860 0.3348
0 34 16 -8.3362 -1.1354
0 34 17 -16.1164 2.1611
0 34 18 6.1239 3.6968
0 35 1 5.5084 -10.4513
0 35 2 3.0391 3.7916
0 35 3 -1.9209 12.4062
0 35 4 4.7051 -7.8288
0 35 5 4.7198 17.8754
0 35 6 7.7190 9.9585
0 35 7 -2.3180 7.6237
0 35 8 0.2466 -14.8542
0 35 9 -3.1969 -6.0739
0 35 10 -4.6598 -1.9868
0 35 11 4.5298 1.0257
0 35 12 -3.5891 -10.4145
0 35 13 -6.6926 -3.0879
0 35 14 -7.8634 15.2153
0 35 15 6.4875 13.6550
0 35 16 -3.5589 11.1887
0 36 0 33.6281 4.9103
0 36 1 -26.3813 -0.3684
0 36 2 4.3393 0.3419
0 36 3 -0.3463 -1.8505
0 36 4 1.0784 -0.1605
0 36 5 -31.6539 -4.6247
0 36 6 13.2470 -0.8104
0 36 7 21.3971 2.1344
0 36 8 -30.7417 0.7679
0 36 9 -13.3147 -1.2332
0 36 10 -11.1042 -0.3847
0 36 11 15.2260 1.4539
0 36 12 16.8203 5.6816
0 36 13 11.8030 4.6678
0 36 14 0.9422 1.6720
0 37 1 -1.7682 6.6526
0 37 2 0.6074 9.4805
0 37 3 3.7078 -7.7500
0 37 4 6.9858 10.0319
0 37 5 -4.8612 -23.5615
0 37 6 3.8192 -9.9516
0 37 7 0.6639 -10.0602
0 37 8 -0.1924 14.9937
0 37 9 1.8906 -24.3414
0 37 10 -1.5854 -4.4784
0 37 11 -6.4555 6.5821
0 38 1 -9.9382 3.9462
0 38 2 -4.5633 -1.4862
0 38 3 -18.2330 -5.8536
0 38 4 2.6315 -1.0172
0 38 5 10.6557 5.0802
0 38 6 -18.9734 -1.9810
0 38 7 -6.8027 -6.0465
1 2 2 -11.2491 -7.7740
1 3 1 224.5224 206.4614
1 3 2 50.4715 -155.6205
1 3 3 160.3071 -155.9051
1 4 1 -0.6933 46.8858
1 4 2 13.1532 19.6347
1 4 3 -48.9518 56.6545
1 4 4 -7.8899 -6.9864
1 5 1 42.1184 -54.0672
1 5 2 148.0095 48.6289
1 5 3 -175.7870 43.8917
1 5 4 -93.6451 75.8185
1 5 5 53.5416 -56.8835
1 6 1 -24.6801 -2.4465
1 6 2 -62.5578 22.0281
1 6 3 3.4303 66.6420
1 6 4 -14.0159 -36.9944
1 6 5 -32.8277 20.5709
1 6 6 -44.4431 -47.9070
1 7 1 0.6257 -2.4139
1 7 2 1.9722 -77.8496
1 7 3 87.0427 112.2074
1 7 4 102.2022 56.3855
1 7 5 13.7190 -4.8302
1 7 6 -23.7321 -42.1997
1 7 7 54.7169 -56.8426
1 8 1 -1.9684 -17.5785
1 8 2 23.0228 -104.1683
1 8 3 96.2841 5.7088
1 8 4 -29.0850 -29.7825
1 8 5 52.8569 29.8948
1 8 6 5.0810 10.1715
1 8 7 -32.9879 -8.6602
1 8 8 33.7039 33.0274
1 9 1 -77.6392 83.2360
1 9 2 -17.4417 17.9825
1 9 3 16.5421 58.1734
1 9 4 38.6560 92.0171
1 9 5 -47.6992 24.9946
1 9 6 -22.1987 7.4268
1 9 7 -39.6786 -18.7107
1 9 8 -14.6052 -66.5620
1 9 9 27.6066 -26.0545
1 10 1 11.1478 -6.3155
1 10 2 0.4608 -4.6822
1 10 3 13.4693 27.6032
1 10 4 -17.0091 45.4868
1 10 5 11.7650 3.1470
1 10 6 -13.9079 57.8989
1 10 7 23.2042 -28.2340
1 10 8 -4.0288 -7.7415
1 10 9 -22.8737 -20.7760
1 10 10 -8.9475 -10.9494
1 11 1 -9.2084 -17.1524
1 11 2 22.0996 -9.0346
1 11 3 6.1701 -15.1206
1 11 4 -43.2533 8.6928
1 11 5 12.6591 67.4331
1 11 6 36.3124 4.9540
1 11 7 -1.7340 -14.5739
1 11 8 17.8024 4.2436
1 11 9 -14.8239 -47.7352
1 11 10 -4.2961 21.5238
1 11 11 -4.7154 4.6910
1 12 1 0.9119 21.9378
1 12 2 -11.8130 1.8017
1 12 3 6.2427 10.9156
1 12 4 31.1584 8.8971
1 12 5 12.8379 -28.8273
1 12 6 -14.9181 -19.6400
1 12 7 25.5490 21.2945
1 12 8 -18.9729 -26.1315
1 12 9 -18.0539 9.9937
1 12 10 -0.3673 8.9156
1 12 11 2.6829 9.2620
1 12 12 19.0068 19.2925
1 13 1 -15.8008 22.9157
1 13 2 -22.6753 4.2276
1 13 3 -22.2385 9.4229
1 13 4 5.8099 -26.8897
1 13 5 21.5072 22.9598
1 13 6 5.5116 -34.2342
1 13 7 -40.3370 9.4088
1 13 8 31.6491 22.3802
1 13 9 42.4961 -58.8649
1 13 10 6.0303 10.7899
1 13 11 3.9740 -25.8579
1 13 12 8.0846 -16.3474
1 13 13 -16.7644 14.4282
1 14 1 -34.7531 -4.3669
1 14 2 37.9221 14.8875
1 14 3 1.7808 -31.7182
1 14 4 4.0584 -7.0564
1 14 5 44.2852 -17.6677
1 14 6 1.1423 -33.7069
1 14 7 19.6590 1.2094
1 14 8 -1.3308 -11.0222
1 14 9 -7.6457 18.2652
1 14 10 6.8747 6.9743
1 14 11 1.5078 22.0928
1 14 12 -9.6394 -5.7770
1 14 13 14.2315 20.2192
1 14 14 -6.7241 -6.9248
1 15 1 16.4844 11.7437
1 15 2 13.5967 -0.7787
1 15 3 -23.3445 2.8434
1 15 4 -8.5776 31.1969
1 15 5 -37.0425 5.9574
1 15 6 0.0105 8.8398
1 15 7 1.3341 -13.6663
1 15 8 -14.9022 -2.7962
1 15 9 -6.7981 -23.3882
1 15 10 9.6366 -3.2547
1 15 11 -9.3171 -1.1574
1 15 12 -22.5653 30.5906
1 15 13 12.8145 0.4965
1 15 14 6.4607 6.9889
1 15 15 -24.4929 19.1608
1 16 1 1.0158 26.5950
1 16 2 14.7905 6.0162
1 16 3 -11.6694 35.7014
1 16 4 39.3571 -21.5434
1 16 5 -2.8465 -3.7570
1 16 6 0.1269 13.8304
1 16 7 -8.1392 18.3169
1 16 8 -16.6337 -5.3337
1 16 9 14.2356 -14.0687
1 16 10 23.4084 -16.7271
1 16 11 -2.0160 7.4119
1 16 12 1.1855 30.2681
1 16 13 -9.2940 -1.5381
1 16 14 7.9735 -22.9616
1 16 15 -8.2619 18.9577
1 16 16 22.7556 21.3427
1 17 1 19.6925 -17.8197
1 17 2 -9.3669 28.4090
1 17 3 -4.3049 22.2555
1 17 4 -2.0893 54.1511
1 17 5 12.2273 -5.5526
1 17 6 8.7177 5.2251
1 17 7 -12.7426 -3.4479
1 17 8 -28.5181 -13.5554
1 17 9 4.2678 -5.0344
1 17 10 14.9050 2.6076
1 17 11 -9.9379 4.8467
1 17 12 19.3166 15.3623
1 17 13 19.3761 -6.3291
1 17 14 -7.2506 23.5655
1 17 15 4.9880 14.4631
1 17 16 -9.1268 -4.3987
1 17 17 8.2158 -11.8054
1 18 1 0.0257 0.4617
1 18 2 -33.0710 -10.1365
1 18 3 -7.8483 0.0203
1 18 4 51.6331 -3.4013
1 18 5 -16.1825 23.3501
1 18 6 -41.6442 -6.6375
1 18 7 -5.6030 -21.8382
1 18 8 0.2560 -23.8879
1 18 9 -12.5005 -49.4556
1 18 10 36.1011 41.6894
1 18 11 -6.0866 22.0357
1 18 12 23.6274 -25.5915
1 18 13 -22.2296 -29.3612
1 18 14 18.9229 25.1897
1 18 15 0.0858 22.4439
1 18 16 -0.5614 -9.4360
1 18 17 3.9936 -24.1894
1 18 18 -19.9721 -22.1429
1 19 1 6.0245 10.1361
1 19 2 4.5637 -17.5592
1 19 3 -0.4684 15.1649
1 19 4 -6.4061 -1.1855
1 19 5 -26.8045 -1.2450
1 19 6 -9.6033 11.4395
1 19 7 -11.1642 -44.0439
1 19 8 -4.3229 39.6938
1 19 9 -24.5927 0.6585
1 19 10 -22.0223 21.6168
1 19 11 4.7167 -17.6325
1 19 12 -18.0647 22.2646
1 19 13 -10.9113 -25.3003
1 19 14 -1.7404 18.5694
1 19 15 6.6513 -6.9567
1 19 16 -3.3617 18.8730
1 19 17 -20.5427 7.9318
1 19 18 -4.3830 14.1485
1 19 19 -37.2135 34.0575
1 20 1 0.2299 -9.9026
1 20 2 51.5292 24.4187
1 20 3 10.6083 -31.7268
1 20 4 -3.9689 21.4745
1 20 5 -38.9593 6.4530
1 20 6 -8.4182 -1.5760
1 20 7 12.6551 14.9390
1 20 8 29.1274 44.2951
1 20 9 4.0330 39.0653
1 20 10 1.3736 3.6835
1 20 11 6.1462 -11.5342
1 20 12 19.3414 32.7086
1 20 13 -4.8763 12.5367
1 20 14 31.1764 -8.9877
1 20 15 -15.5135 -36.4781
1 20 16 -23.9834 -2.2320
1 20 17 -22.4066 -13.4005
1 20 18 3.3992 12.3203
1 20 19 1.5279 -28.9821
1 20 20 -3.5132 -2.7700
1 21 1 -15.3254 11.4078
1 21 2 -23.7552 6.0262
1 21 3 -30.7527 68.6305
1 21 4 10.9541 26.4464
1 21 5 0.5597 19.0846
1 21 6 3.8914 18.9722
1 21 7 -6.3283 -2.9737
1 21 8 15.0257 -26.0438
1 21 9 -7.9550 -38.9893
1 21 10 -4.9703 -2.2017
1 21 11 3.2360 20.7536
1 21 12 -9.4524 33.9099
1 21 13 3.9525 33.3924
1 21 14 -9.8061 2.4655
1 21 15 9.8042 12.9235
1 21 16 30.8427 -23.1817
1 21 17 12.6695 -1.0476
1 21 18 -17.9812 9.4394
1 21 19 -8.7868 -10.5729
1 21 20 -8.0734 -13.1686
1 21 21 0.6156 -3.3574
1 22 1 2.6989 3.6202
1 22 2 -28.2406 -16.1699
1 22 3 17.3370 -5.2463
1 22 4 8.1511 24.3129
1 22 5 13.6682 -2.4187
1 22 6 -16.4529 12.1233
1 22 7 -19.7056 1.9781
1 22 8 9.9893 15.4435
1 22 9 -5.2645 -14.7734
1 22 10 1.7477 12.6517
1 22 11 -22.6060 21.8353
1 22 12 12.0686 -11.4104
1 22 13 16.7170 -13.2691
1 22 14 11.0865 12.0506
1 22 15 10.9461 -20.0760
1 22 16 -36.1780 -10.4982
1 22 17 -52.1955 18.4303
1 22 18 -0.0197 -1.4666
1 22 19 -1.0570 -9.0683
1 22 20 30.0069 19.9320
1 22 21 12.2811 -14.3287
1 22 22 10.2858 10.7406
1 23 1 5.7006 9.7455
1 23 2 -8.4052 2.3536
1 23 3 13.0603 5.9403
1 23 4 11.7163 1.5162
1 23 5 6.7444 -18.6032
1 23 6 -11.4843 -2.8889
1 23 7 -6.5700 -12.2573
1 23 8 -8.7046 13.4808
1 23 9 45.0200 -0.6382
1 23 10 7.8376 21.2873
1 23 11 -12.5101 3.2986
1 23 12 17.8922 22.8954
1 23 13 8.7773 -4.7190
1 23 14 1.4705 -49.4902
1 23 15 -2.3903 -0.4903
1 23 16 -1.1351 7.3192
1 23 17 44.3960 -16.8163
1 23 18 -2.8664 7.5853
1 23 19 -5.3464 -15.6371
1 23 20 -7.4129 25.7629
1 23 21 -22.0516 -0.2762
1 23 22 -21.7937 1.5066
1 23 23 -6.0162 3.2401
1 24 1 -2.1655 -44.8172
1 24 2 -6.4018 13.7197
1 24 3 -4.1161 -2.8715
1 24 4 -45.2042 -1.0311
1 24 5 -10.7339 -1.7563
1 24 6 -16.3011 2.2585
1 24 7 24.0093 -14.9904
1 24 8 -9.0854 -3.3274
1 24 9 10.7981 16.6511
1 24 10 9.0885 -4.8627
1 24 11 -9.7425 10.0331
1 24 12 -7.5446 11.4630
1 24 13 14.3670 28.8910
1 24 14 39.6253 -3.9543
1 24 15 5.6046 -13.9699
1 24 16 23.8601 18.1015
1 24 17 -35.0741 13.0533
1 24 18 16.3285 -15.3255
1 24 19 16.4662 20.2182
1 24 20 -8.6075 14.3952
1 24 21 -22.4213 30.1798
1 24 22 -4.6581 9.2121
1 24 23 -15.5932 -10.1819
1 24 24 -8.4032 -7.8178
1 25 1 -12.7598 10.1180
1 25 2 -4.1317 1.9710
1 25 3 -12.7296 -4.3368
1 25 4 -11.7367 19.9103
1 25 5 -7.6727 18.7768
1 25 6 1.0367 8.5819
1 25 7 -4.0032 -4.8767
1 25 8 -20.0324 -8.3316
1 25 9 15.8625 -13.3331
1 25 10 30.9372 -11.9206
1 25 11 13.1060 -6.6227
1 25 12 -13.5317 -11.8467
1 25 13 11.1507 -27.9466
1 25 14 1.7070 -11.6784
1 25 15 -3.8868 5.1292
1 25 16 -7.5924 -4.0302
1 25 17 21.0467 6.1158
1 25 18 10.5426 -6.2744
1 25 19 -9.3666 11.2451
1 25 20 0.3137 -12.3935
1 25 21 -14.9735 26.4647
1 25 22 -5.8731 0.5202
1 25 23 11.5632 -8.1212
1 25 24 -7.2425 13.9252
1 25 25 -3.3800 1.1911
1 26 1 -23.3128 0.9745
1 26 2 2.7477 4.8234
1 26 3 14.1808 -7.4901
1 26 4 3.7587 -10.7259
1 26 5 7.2073 10.9574
1 26 6 -11.1327 -1.0147
1 26 7 19.1602 22.0861
1 26 8 -27.1078 -4.4136
1 26 9 11.3979 -12.1342
1 26 10 -31.8440 2.7087
1 26 11 -5.4795 7.5288
1 26 12 7.6136 6.0901
1 26 13 13.8493 -3.0671
1 26 14 -20.8617 7.4209
1 26 15 19.4806 -2.1545
1 26 16 -20.7671 -22.5782
1 26 17 -19.1526 -2.9100
1 26 18 7.1443 40.2442
1 26 19 -9.6990 -26.8030
1 26 20 0.0147 -5.6108
1 26 21 -15.9816 -0.7456
1 26 22 -1.9686 16.3261
1 26 23 3.8223 13.9884
1 26 24 -0.5363 13.3299
1 26 25 10.2767 0.4662
1 26 26 38.2054 37.3318
1 27 1 -1.1091 2.1689
1 27 2 -4.8764 7.0158
1 27 3 0.7542 -15.2494
1 27 4 -12.1709 2.1928
1 27 5 16.6651 -13.6395
1 27 6 -38.2906 -5.6545
1 27 7 -20.5097 2.2135
1 27 8 5.1396 9.3475
1 27 9 7.4697 9.6718
1 27 10 -6.9041 -14.7285
1 27 11 19.0842 16.4407
1 27 12 8.3392 -21.5557
1 27 13 -11.2002 -29.9099
1 27 14 -3.7832 -30.7240
1 27 15 21.9695 2.8885
1 27 16 -10.2131 -46.2074
1 27 17 -14.2263 -16.2040
1 27 18 1.8581 -8.5606
1 27 19 -2.1100 4.1548
1 27 20 9.1381 -8.2377
1 27 21 -0.9283 2.8455
1 27 22 -5.6456 5.3924
1 27 23 -5.0021 -0.8196
1 27 24 -1.1318 5.0913
1 27 25 5.1084 8.4939
1 27 26 -4.4857 -21.2284
1 27 27 9.9314 -11.3550
1 28 1 -1.2920 -14.9357
1 28 2 8.6136 7.4039
1 28 3 8.4922 -4.4940
1 28 4 19.3499 0.0154
1 28 5 5.2080 9.2314
1 28 6 -24.7935 5.6857
1 28 7 5.5395 -12.3756
1 28 8 -24.9699 -31.4487
1 28 9 26.8486 -6.2224
1 28 10 -0.5452 -17.3885
1 28 11 26.2502 0.8827
1 28 12 1.0071 3.1124
1 28 13 18.4845 1.5262
1 28 14 3.4842 12.8095
1 28 15 16.2310 5.6041
1 28 16 7.0768 0.5269
1 28 17 22.1928 -3.2394
1 28 18 -12.0998 -7.1740
1 28 19 -16.0721 -13.5131
1 28 20 2.4954 -10.5690
1 28 21 -25.7128 -5.2283
1 28 22 -11.2802 -13.0519
1 28 23 -19.6555 -2.5829
1 28 24 -13.5386 -4.4215
1 28 25 1.9717 -3.7323
1 28 26 14.7958 -23.3546
1 29 1 1.2782 -4.0604
1 29 2 16.8396 14.6162
1 29 3 37.7991 -2.3219
1 29 4 18.7573 15.7997
1 29 5 -1.4973 -1.3532
1 29 6 14.7278 -13.8333
1 29 7 6.0530 17.4773
1 29 8 -1.5772 0.4652
1 29 9 -3.6593 -6.1428
1 29 10 1.2101 26.5907
1 29 11 -10.5971 -35.0409
1 29 12 27.4585 36.4897
1 29 13 10.0388 7.0566
1 29 14 -18.6591 -11.2074
1 29 15 -19.8572 9.9092
1 29 16 40.2229 -33.7702
1 29 17 -13.3904 8.0946
1 29 18 14.0492 -1.5193
1 29 19 -3.4633 10.3195
1 29 20 -7.8034 2.9985
1 29 21 -2.1637 14.7706
1 29 22 4.2242 11.3587
1 29 23 -2.4376 25.9190
1 29 24 11.4455 14.9885
1 29 25 -0.6087 -8.3867
1 30 1 0.3430 0.3234
1 30 2 2.3905 12.0062
1 30 3 -12.7824 1.5773
1 30 4 -4.9342 6.8839
1 30 5 1.6410 7.1528
1 30 6 8.8691 6.6318
1 30 7 3.6641 -9.5770
1 30 8 3.2963 -13.3658
1 30 9 -4.0274 22.7003
1 30 10 8.7973 1.6112
1 30 11 6.6589 -3.4939
1 30 12 0.9596 13.0293
1 30 13 6.1667 33.3402
1 30 14 -9.7225 15.3420
1 30 15 -9.4534 18.5775
1 30 16 -30.9853 -12.0057
1 30 17 -12.3642 -0.1175
1 30 18 -12.2690 19.6663
1 30 19 13.0443 9.5214
1 30 20 3.6133 -15.9064
1 30 21 -3.2082 5.3339
1 30 22 4.6201 -8.2351
1 30 23 -3.0878 -2.6586
1 30 24 9.6547 4.3575
1 31 1 -4.7277 -0.5436
1 31 2 13.4892 5.7629
1 31 3 5.6094 -37.0741
1 31 4 -6.8868 -3.2605
1 31 5 -13.8822 3.7087
1 31 6 -9.5674 -37.1455
1 31 7 -30.5393 -12.8689
1 31 8 15.0097 8.9227
1 31 9 -1.4922 5.3636
1 31 10 4.6572 0.6124
1 31 11 -5.2475 -25.7852
1 31 12 -0.1621 18.9463
1 31 13 -12.6540 10.1299
1 31 14 13.8856 -14.5462
1 31 15 2.0292 -9.5625
1 31 16 -9.2188 -7.0434
1 31 17 1.8255 -28.2283
1 31 18 8.1658 11.2499
1 31 19 -17.3014 -5.3510
1 31 20 -19.9520 7.6680
1 31 21 -13.6196 -5.0140
1 31 22 -15.1269 -5.8165
1 31 23 12.0001 -3.0706
1 32 1 0.8395 0.3879
1 32 2 20.0533 -20.0461
1 32 3 17.1986 6.6897
1 32 4 0.6613 18.6185
1 32 5 4.0137 8.5513
1 32 6 3.0538 14.7895
1 32 7 18.5754 -17.6004
1 32 8 14.8424 6.9234
1 32 9 -4.9164 -6.9623
1 32 10 5.7970 22.5266
1 32 11 10.0084 -1.4904
1 32 12 -6.4020 -23.3251
1 32 13 46.9692 15.1089
1 32 14 4.2979 1.5691
1 32 15 -14.9862 5.8625
1 32 16 13.8224 10.9281
1 32 17 19.1634 -14.6229
1 32 18 -4.4449 -15.2451
1 32 19 -3.4146 1.6895
1 32 20 -4.7049 -7.5321
1 32 21 6.5797 2.2457
1 33 1 -0.0641 -4.3286
1 33 2 6.8850 -0.3587
1 33 3 6.2916 -8.8447
1 33 4 13.0659 -11.3541
1 33 5 7.1544 -3.5339
1 33 6 -3.6903 3.7081
1 33 7 -7.3182 -9.6661
1 33 8 16.7244 -15.8573
1 33 9 1.8707 -0.6848
1 33 10 -9.1770 20.8208
1 33 11 16.9711 11.3970
1 33 12 -15.4763 12.3667
1 33 13 -17.9172 7.0661
1 33 14 -8.9681 -19.0806
1 33 15 -13.6500 -7.1630
1 33 16 -4.5214 -19.9257
1 33 17 2.4061 0.6508
1 33 18 2.9454 -12.4522
1 33 19 12.8938 12.1008
1 33 20 3.9902 -2.8003
1 34 1 35.1140 -0.0607
1 34 2 11.4935 18.5105
1 34 3 -8.8387 -13.9610
1 34 4 9.4620 5.4375
1 34 5 1.0117 4.8639
1 34 6 26.1607 25.0608
1 34 7 -6.6671 -7.9408
1 34 8 23.4179 -6.0619
1 34 9 -15.9982 9.5426
1 34 10 19.3508 5.5130
1 34 11 -15.1942 1.2736
1 34 12 -9.3327 -0.5678
1 34 13 -3.7701 14.7951
1 34 14 -3.4765 -16.5840
1 34 15 12.0097 7.3772
1 34 16 -8.6289 -9.1202
1 34 17 7.0276 22.1433
1 34 18 -24.2598 22.5103
1 35 1 8.5133 10.1580
1 35 2 14.1812 1.2382
1 35 3 1.0655 2.6789
1 35 4 -6.1016 0.7703
1 35 5 2.7520 -4.5427
1 35 6 8.8146 -14.9909
1 35 7 -5.7951 19.6919
1 35 8 -8.6345 0.4946
1 35 9 2.5081 -1.9409
1 35 10 -5.1420 6.5203
1 35 11 -14.0182 15.0887
1 35 12 -4.5820 4.2442
1 35 13 -3.8415 1.5729
1 35 14 -11.4201 5.7131
1 35 15 -6.8066 -9.2001
1 35 16 -5.3512 9.4254
1 36 1 1.2671 2.0001
1 36 2 -13.9005 9.6187
1 36 3 1.1193 -5.5394
1 36 4 10.8296 4.7957
1 36 5 -1.5615 0.7318
1 36 6 6.8452 -18.4398
1 36 7 4.2718 2.9607
1 36 8 -8.8354 6.3312
1 36 9 -1.3149 10.7661
1 36 10 1.1728 -2.0894
1 36 11 12.6723 -6.9410
1 36 12 15.2300 2.6763
1 36 13 -2.1625 -1.5060
1 36 14 1.1421 -3.8398
1 37 1 7.5311 -8.3891
1 37 2 -1.2732 6.8893
1 37 3 -7.1825 -4.5639
1 37 4 -3.5278 -8.3294
1 37 5 2.3547 -17.3430
1 37 6 5.8182 -8.6856
1 37 7 3.2309 3.8643
1 37 8 -0.3652 -11.0483
1 37 9 -11.6725 3.3795
1 37 10 3.5542 3.8495
1 37 11 -12.8308 12.4579
1 38 1 11.0330 -0.4031
1 38 2 1.4374 5.9236
1 38 3 2.7508 -3.3813
1 38 4 11.8352 -17.9725
1 38 5 -10.9941 11.6861
1 38 6 -10.9915 -13.9625
1 38 7 -0.8921 1.2176
2 2 2 4.5544 15.8573
2 3 2 80.4744 -78.0863
2 3 3 36.2518 2.4254
2 4 2 155.8235 12.7574
2 4 3 16.6926 2.7421
2 4 4 6.3535 -121.0609
2 5 2 106.3796 104.8184
2 5 3 177.1313 56.8493
2 5 4 -42.3520 43.3156
2 5 5 -80.3098 10.9937
2 6 2 -0.3981 -76.4444
2 6 3 88.2229 22.2701
2 6 4 41.9255 42.7014
2 6 5 12.7889 30.4828
2 6 6 -0.1865 -11.7228
2 7 2 -46.8613 48.3247
2 7 3 -60.9575 -96.9473
2 7 4 -14.7904 -22.7678
2 7 5 -28.5718 -34.8816
2 7 6 17.8840 10.5995
2 7 7 18.8250 7.7125
2 8 2 -173.4954 6.7440
2 8 3 -29.3942 16.4386
2 8 4 22.5912 -52.1252
2 8 5 -39.1778 57.7072
2 8 6 55.2994 39.6969
2 8 7 -15.0222 32.2678
2 8 8 -9.4996 36.3810
2 9 2 52.6202 51.7535
2 9 3 -30.4000 -23.5744
2 9 4 -10.5379 87.3283
2 9 5 56.0021 1.9049
2 9 6 -35.4758 -34.6937
2 9 7 -10.6310 -22.7063
2 9 8 20.9318 -44.0295
2 9 9 -49.7613 6.1201
2 10 2 -1.9394 -21.8626
2 10 3 20.2836 -2.7753
2 10 4 16.5733 19.5689
2 10 5 14.4654 -35.6296
2 10 6 -0.9754 -6.2818
2 10 7 1.9153 11.5078
2 10 8 -2.4119 0.9819
2 10 9 -11.2163 -23.1942
2 10 10 -3.7768 -10.5258
2 11 2 -29.9134 39.7458
2 11 3 -17.8937 27.3456
2 11 4 -8.1694 -1.2770
2 11 5 3.5325 -15.0848
2 11 6 3.9378 -9.3332
2 11 7 25.6909 -39.9555
2 11 8 11.8395 -29.4873
2 11 9 8.9455 25.6931
2 11 10 5.4503 -11.3614
2 11 11 -9.4074 -0.2685
2 12 2 39.3120 6.7028
2 12 3 -21.5287 28.1094
2 12 4 13.2710 32.1884
2 12 5 -1.9104 -5.4407
2 12 6 -11.1540 -25.3726
2 12 7 4.1571 -62.3844
2 12 8 1.4604 -4.8228
2 12 9 13.3458 18.1063
2 12 10 -5.3774 17.0275
2 12 11 16.8475 -7.4416
2 12 12 -2.4118 -25.4196
2 13 2 64.2791 70.3471
2 13 3 -7.8847 -20.2913
2 13 4 -4.3922 -28.1361
2 13 5 26.2063 -9.1205
2 13 6 -30.5839 23.7204
2 13 7 -3.0206 14.5922
2 13 8 10.1973 8.6970
2 13 9 48.1205 -20.9755
2 13 10 35.9253 26.3446
2 13 11 -13.9044 11.2065
2 13 12 -5.1850 6.3722
2 13 13 -1.6236 -7.1124
2 14 2 0.6012 -21.8098
2 14 3 -10.3171 10.7613
2 14 4 8.7975 21.8674
2 14 5 10.3099 -13.5903
2 14 6 -1.5719 10.6199
2 14 7 -14.8274 -3.9704
2 14 8 -16.0594 23.8120
2 14 9 -4.1147 4.0811
2 14 10 2.3869 -15.8377
2 14 11 -27.2306 8.8709
2 14 12 30.3205 -1.8449
2 14 13 -7.3027 -1.6170
2 14 14 -2.1423 -9.6066
2 15 2 6.4512 -4.9327
2 15 3 2.7147 -27.5367
2 15 4 -30.6712 14.3638
2 15 5 -16.0651 44.1319
2 15 6 21.6021 -2.3630
2 15 7 16.1862 8.0350
2 15 8 -6.3116 -4.7068
2 15 9 12.6287 -9.4182
2 15 10 -6.0944 19.2593
2 15 11 -13.6078 -5.5860
2 15 12 1.4312 7.6348
2 15 13 14.7804 0.5075
2 15 14 -0.7783 28.0173
2 15 15 17.0308 -7.7105
2 16 2 -11.3840 -1.7342
2 16 3 4.4849 -9.2507
2 16 4 -13.6807 52.0959
2 16 5 -1.8648 11.9711
2 16 6 -29.1888 -1.4405
2 16 7 -10.8215 6.9291
2 16 8 -2.9440 -24.6722
2 16 9 -27.2635 -3.3391
2 16 10 3.0134 3.0231
2 16 11 2.2491 23.9876
2 16 12 9.6943 4.1934
2 16 13 -22.5050 10.8940
2 16 14 4.1856 10.3528
2 16 15 -26.1212 -9.7993
2 16 16 -2.4178 5.9658
2 17 2 -20.4071 -13.6578
2 17 3 42.9664 16.9425
2 17 4 19.5015 28.3889
2 17 5 20.5299 -15.6295
2 17 6 8.9838 -18.3360
2 17 7 -1.2373 -30.9237
2 17 8 8.0864 16.7726
2 17 9 -32.8371 31.0448
2 17 10 -26.6644 -0.7213
2 17 11 -33.3068 -10.6304
2 17 12 -15.5302 -0.6074
2 17 13 -6.7650 13.7800
2 17 14 -12.7425 2.8168
2 17 15 -3.9045 10.4774
2 17 16 -36.4420 -24.5775
2 17 17 -47.0993 -1.4364
2 18 2 -0.4074 6.5289
2 18 3 6.9811 16.5881
2 18 4 13.2940 15.7399
2 18 5 24.1476 7.2534
2 18 6 19.4998 -11.1825
2 18 7 -4.5239 8.0804
2 18 8 12.0899 -12.3859
2 18 9 -6.1391 0.3967
2 18 10 4.9075 -29.8648
2 18 11 -6.8031 -9.1455
2 18 12 -33.2097 -6.1105
2 18 13 5.4796 10.0705
2 18 14 -0.0527 13.9559
2 18 15 -25.1586 13.8991
2 18 16 1.8635 -2.0194
2 18 17 -5.9000 -10.3869
2 18 18 -1.1760 -47.4430
2 19 2 -5.0934 -4.1642
2 19 3 -28.3016 36.3952
2 19 4 -6.5084 -2.9132
2 19 5 21.4463 2.0918
2 19 6 -18.8732 1.4377
2 19 7 1.2146 14.0508
2 19 8 -40.4868 12.9803
2 19 9 -11.9707 15.9917
2 19 10 16.6708 14.3541
2 19 11 27.7819 17.3066
2 19 12 -2.9775 5.1696
2 19 13 24.4359 7.7121
2 19 14 20.2714 9.2162
2 19 15 42.3671 -4.0732
2 19 16 -2.8446 -8.5287
2 19 17 21.9206 -19.3971
2 19 18 -19.4220 -30.1211
2 19 19 -48.6614 6.0318
2 20 2 -4.7320 1.7984
2 20 3 -0.5147 5.6750
2 20 4 -16.6301 -30.1498
2 20 5 -10.1106 18.5559
2 20 6 10.4954 -4.8255
2 20 7 -11.2409 6.0364
2 20 8 -26.0555 -2.6423
2 20 9 1.7359 -8.5307
2 20 10 -1.9611 22.4288
2 20 11 -2.2276 10.9706
2 20 12 2.1896 7.2756
2 20 13 -6.0062 5.7834
2 20 14 -14.6082 -9.5177
2 20 15 -17.8682 -14.1043
2 20 16 4.1846 40.3228
2 20 17 -8.0483 -0.6006
2 20 18 -11.6909 -0.2065
2 20 19 8.0244 46.6160
2 20 20 -0.6302 12.8104
2 21 2 -15.3286 -9.1733
2 21 3 -3.4323 -15.8365
2 21 4 18.6451 9.9443
2 21 5 -32.4565 18.4177
2 21 6 23.5779 8.9015
2 21 7 11.9978 27.8793
2 21 8 -21.3071 -22.7091
2 21 9 7.0342 4.8673
2 21 10 1.0695 12.0303
2 21 11 -11.2109 11.3689
2 21 12 -10.7435 -0.4807
2 21 13 13.5792 16.2684
2 21 14 0.5130 -18.9259
2 21 15 27.2110 -9.1908
2 21 16 -27.8287 -9.6121
2 21 17 2.8843 -2.2075
2 21 18 13.9810 -6.6781
2 21 19 -44.9263 -18.5504
2 21 20 -7.4686 11.0991
2 21 21 -12.6009 7.7663
2 22 2 3.1349 -17.6774
2 22 3 -28.8539 13.9630
2 22 4 -15.2279 -18.9020
2 22 5 -5.8321 8.2222
2 22 6 3.6591 2.4982
2 22 7 7.9295 -4.5928
2 22 8 2.7132 -8.0125
2 22 9 -6.8205 16.9325
2 22 10 -13.3324 -24.7123
2 22 11 -23.1639 9.3578
2 22 12 25.2595 -27.7755
2 22 13 -31.2421 0.2938
2 22 14 -2.5516 -24.5931
2 22 15 15.1721 3.0211
2 22 16 -10.6009 24.2160
2 22 17 -4.1490 9.8151
2 22 18 12.3073 -4.5336
2 22 19 8.4593 2.2044
2 22 20 9.8032 1.8811
2 22 21 6.2698 16.8130
2 22 22 -0.1619 -3.8280
2 23 2 -1.7626 -5.3117
2 23 3 -15.6668 6.1964
2 23 4 -13.4495 30.1574
2 23 5 -5.6624 -13.3527
2 23 6 -10.1813 -7.1644
2 23 7 5.4396 -10.3715
2 23 8 35.5553 4.4200
2 23 9 -11.3503 13.5396
2 23 10 17.1280 -12.1241
2 23 11 19.9370 -3.8285
2 23 12 7.6124 13.6625
2 23 13 -27.1421 -8.5560
2 23 14 -20.8074 -16.6033
2 23 15 5.0656 13.8055
2 23 16 10.7808 30.1030
2 23 17 -64.9572 -14.4492
2 23 18 7.2092 -29.6939
2 23 19 9.7013 0.8443
2 23 20 -22.9843 7.5717
2 23 21 9.9712 -19.0334
2 23 22 -27.0976 33.2747
2 23 23 -4.8136 5.2876
2 24 2 -17.6361 6.1468
2 24 3 -23.7694 1.7271
2 24 4 7.1042 9.4852
2 24 5 -1.2517 2.3771
2 24 6 -23.0444 -13.9474
2 24 7 4.2447 -13.0294
2 24 8 -2.6161 5.2367
2 24 9 -1.1266 -2.9709
2 24 10 9.5176 -1.2525
2 24 11 41.7605 -1.7251
2 24 12 32.2751 -4.8150
2 24 13 4.8967 -2.1326
2 24 14 9.5280 31.9401
2 24 15 -25.7513 9.1655
2 24 16 -0.2668 -22.2039
2 24 17 -1.8747 0.7253
2 24 18 34.8153 -1.5645
2 24 19 -45.7596 -3.9737
2 24 20 -12.5611 -16.5278
2 24 21 -4.1959 -17.0377
2 24 22 -3.4534 5.5942
2 24 23 -15.2995 5.1667
2 24 24 -1.1690 33.0769
2 25 2 5.3723 5.7573
2 25 3 14.4139 7.7240
2 25 4 15.8096 7.5227
2 25 5 -19.1919 -11.1841
2 25 6 -5.6680 15.3542
2 25 7 -18.9546 24.8186
2 25 8 -10.2689 -34.4859
2 25 9 5.4699 26.7622
2 25 10 12.3628 9.6146
2 25 11 -5.8633 5.2293
2 25 12 15.3182 -15.7258
2 25 13 19.7872 6.0316
2 25 14 25.5690 4.5173
2 25 15 -21.2903 -3.7060
2 25 16 10.9289 11.1259
2 25 17 -48.2060 -5.4293
2 25 18 3.9044 35.5614
2 25 19 7.2096 -8.9704
2 25 20 8.9847 -6.4711
2 25 21 19.5944 4.5556
2 25 22 22.1228 0.2746
2 25 23 -6.5852 17.2465
2 25 24 -13.9341 -3.5660
2 25 25 21.7779 1.2853
2 26 2 5.7574 -1.9358
2 26 3 -12.8543 -7.3774
2 26 4 -8.0659 -15.2491
2 26 5 -2.8546 -11.7785
2 26 6 -9.4519 -5.1494
2 26 7 3.8794 -12.5542
2 26 8 3.5755 -8.3205
2 26 9 -17.0775 2.6612
2 26 10 6.6381 -11.7469
2 26 11 4.6677 -22.2621
2 26 12 -25.9108 -15.9988
2 26 13 -12.0143 -23.6339
2 26 14 -1.0237 20.8528
2 26 15 -25.4089 -45.1730
2 26 16 17.2003 11.2108
2 26 17 31.6943 -7.1599
2 26 18 5.1249 -3.5320
2 26 19 -13.0322 -29.5016
2 26 20 -14.0042 -13.4798
2 26 21 11.3445 20.7103
2 26 22 12.9554 6.7036
2 26 23 -13.2629 4.8101
2 26 24 15.9557 9.4497
2 26 25 -32.7614 -22.0433
2 26 26 -3.1216 -7.5076
2 27 2 -10.9624 12.4881
2 27 3 -30.4688 22.2460
2 27 4 2.9391 0.6621
2 27 5 -4.3977 6.9443
2 27 6 6.7162 2.9212
2 27 7 22.4226 -16.3168
2 27 8 -7.0477 9.0300
2 27 9 -5.4855 4.0861
2 27 10 -6.6774 20.0033
2 27 11 -8.2857 5.3454
2 27 12 22.4968 7.3064
2 27 13 8.6896 19.9422
2 27 14 11.5201 -17.6847
2 27 15 9.9509 -4.1114
2 27 16 -16.4315 -13.2520
2 27 17 -15.6777 -6.8024
2 27 18 10.2205 -0.5649
2 27 19 23.8751 -31.9441
2 27 20 -1.4339 -8.4725
2 27 21 2.9199 15.7270
2 27 22 -11.6040 0.6526
2 27 23 -0.8903 4.8738
2 27 24 -4.6980 -1.2848
2 27 25 -20.3585 0.3673
2 27 26 -3.7254 -3.7927
2 27 27 12.6421 -2.5661
2 28 2 -18.8594 0.7080
2 28 3 9.6100 0.6364
2 28 4 -10.8014 -2.4173
2 28 5 -15.9938 4.6427
2 28 6 8.6902 8.6296
2 28 7 -18.0083 -2.6954
2 28 8 -12.4071 -7.6234
2 28 9 16.4039 -32.4913
2 28 10 15.9455 -3.1044
2 28 11 -15.8577 8.1513
2 28 12 14.3743 -42.2097
2 28 13 28.8182 10.6405
2 28 14 1.0914 0.9939
2 28 15 26.1812 20.7161
2 28 16 -3.2438 14.7673
2 28 17 1.9094 3.3282
2 28 18 -9.7950 16.7165
2 28 19 -2.9473 6.2210
2 28 20 -2.9718 8.0002
2 28 21 -15.2363 -9.9103
2 28 22 15.7736 -1.6040
2 28 23 -2.9612 1.9534
2 28 24 11.2531 -28.8914
2 28 25 -12.5363 -0.4115
2 28 26 -2.8180 -7.5494
2 29 2 1.0073 -3.4691
2 29 3 -4.6341 -17.9167
2 29 4 10.2915 -3.0911
2 29 5 -1.7061 8.7468
2 29 6 -8.8275 0.9565
2 29 7 -12.2314 3.4303
2 29 8 10.0455 3.2170
2 29 9 -27.2824 -22.5439
2 29 10 29.2672 1.1581
2 29 11 6.7144 -29.2487
2 29 12 4.8496 -1.0137
2 29 13 8.3009 33.2448
2 29 14 -11.6275 -14.3874
2 29 15 -6.8050 19.2415
2 29 16 9.6319 -7.1920
2 29 17 5.0359 17.4644
2 29 18 14.5558 -10.2003
2 29 19 -12.0131 -0.0030
2 29 20 -1.5521 19.7762
2 29 21 -6.0366 -14.0707
2 29 22 -7.4676 -16.1802
2 29 23 22.2387 -4.2319
2 29 24 18.1074 -19.8565
2 29 25 -7.4742 19.0519
2 30 2 3.8839 0.4375
2 30 3 9.6606 18.5851
2 30 4 15.4440 4.0302
2 30 5 -22.3212 32.0822
2 30 6 -14.9218 -1.4583
2 30 7 20.9651 12.5791
2 30 8 -16.8409 1.1964
2 30 9 21.5894 36.9793
2 30 10 -32.5241 4.2232
2 30 11 -20.4698 6.8369
2 30 12 15.7720 28.9483
2 30 13 5.5449 -48.4549
2 30 14 7.9298 -8.0510
2 30 15 20.3405 -10.8870
2 30 16 -3.6462 15.4487
2 30 17 -14.5190 -18.6785
2 30 18 8.2753 -15.6948
2 30 19 16.7702 6.9542
2 30 20 -12.4964 -11.1413
2 30 21 -16.0730 -30.3605
2 30 22 -5.1156 -4.3508
2 30 23 -0.9118 -3.4931
2 30 24 -1.4658 17.7911
2 31 2 12.3402 -7.9762
2 31 3 11.2357 -10.0851
2 31 4 -27.1650 22.2142
2 31 5 -7.5809 2.0766
2 31 6 -13.2569 -9.8250
2 31 7 17.1176 10.2459
2 31 8 36.0184 -4.7817
2 31 9 -2.6848 -26.7248
2 31 10 -6.1458 7.5558
2 31 11 11.4282 -8.4568
2 31 12 5.3903 -22.7190
2 31 13 -21.7453 23.3054
2 31 14 -16.4369 14.8867
2 31 15 6.5287 -23.8576
2 31 16 11.6819 17.0769
2 31 17 8.5238 -21.2570
2 31 18 9.0797 2.5013
2 31 19 4.6296 -3.4613
2 31 20 5.5288 8.7419
2 31 21 -7.9024 -17.3249
2 31 22 12.1947 0.5706
2 31 23 -21.0257 -3.2743
2 32 2 -2.8935 -3.2182
2 32 3 5.4660 2.4583
2 32 4 -9.4939 -9.0355
2 32 5 -8.6831 5.6140
2 32 6 -1.3689 -18.4056
2 32 7 -17.1854 -1.7285
2 32 8 6.1463 4.5301
2 32 9 9.0497 15.4689
2 32 10 -18.1682 -7.2982
2 32 11 -3.9277 -3.5309
2 32 12 10.6993 -3.6637
2 32 13 4.2060 9.5697
2 32 14 10.7348 -5.0284
2 32 15 -9.7196 -8.0436
2 32 16 5.2510 -17.3116
2 32 17 -5.8555 17.6411
2 32 18 2.8178 -1.6919
2 32 19 7.6417 2.4581
2 32 20 -6.7841 -3.1927
2 32 21 -12.7648 4.2761
2 33 2 11.5844 6.0772
2 33 3 -3.3001 10.2316
2 33 4 4.8503 -0.5037
2 33 5 33.4709 4.4225
2 33 6 11.5205 -3.1147
2 33 7 -3.1435 -1.9582
2 33 8 20.5428 29.0637
2 33 9 6.3465 19.4905
2 33 10 6.0744 1.7798
2 33 11 10.4285 14.3402
2 33 12 1.5596 -18.5900
2 33 13 2.3929 8.5982
2 33 14 -2.9792 27.0066
2 33 15 -11.3564 -5.9063
2 33 16 11.9286 1.6152
2 33 17 -5.3955 10.1846
2 33 18 13.8011 -0.9273
2 33 19 4.9025 -6.3422
2 33 20 -4.1699 15.0321
2 34 2 0.7548 -32.6206
2 34 3 8.5924 9.0454
2 34 4 -9.9863 4.1916
2 34 5 20.3405 -17.1234
2 34 6 12.2029 0.3761
2 34 7 -19.4302 -12.3099
2 34 8 -0.9390 -10.8340
2 34 9 -1.4646 -6.5346
2 34 10 -4.3642 19.3113
2 34 11 -8.3456 -19.6261
2 34 12 3.1282 13.7676
2 34 13 -22.9358 -5.5591
2 34 14 -6.2738 8.0460
2 34 15 -0.3465 11.2366
2 34 16 -10.8046 -7.0200
2 34 17 4.0215 11.1709
2 34 18 -5.9097 2.8642
2 35 2 1.4552 1.7203
2 35 3 8.6991 13.3917
2 35 4 -7.3275 8.8702
2 35 5 0.0920 -9.3975
2 35 6 -1.6778 10.3759
2 35 7 0.1426 -1.9763
2 35 8 -13.2241 -2.1359
2 35 9 16.2706 31.4531
2 35 10 3.5567 -2.2439
2 35 11 6.2409 -10.7316
2 35 12 10.1467 -23.2680
2 35 13 -2.4859 -7.1519
2 35 14 0.1219 5.2865
2 35 15 1.0690 2.8172
2 35 16 -3.6243 0.8028
2 36 2 12.3035 -2.0538
2 36 3 9.2074 -9.3736
2 36 4 2.8251 6.1220
2 36 5 -10.8393 3.3041
2 36 6 -3.6013 -13.4589
2 36 7 -15.7561 -1.4911
2 36 8 -5.9466 8.0064
2 36 9 -12.8442 -1.3564
2 36 10 17.8440 -8.7514
2 36 11 -1.4126 17.1854
2 36 12 -13.3504 8.0746
2 36 13 -6.8079 5.5581
2 36 14 -5.8555 -8.8369
2 37 2 4.2266 -0.9107
2 37 3 14.6037 -14.2256
2 37 4 11.1708 2.5535
2 37 5 9.7386 -1.5781
2 37 6 -1.3542 -15.5093
2 37 7 2.2539 -6.8921
2 37 8 -14.3015 2.6020
2 37 9 0.6343 3.3866
2 37 10 -2.0804 0.7432
2 37 11 11.2968 -7.7968
2 38 2 -3.5283 -3.1459
2 38 3 -1.8521 -3.7520
2 38 4 8.8363 4.8486
2 38 5 1.6940 -11.0185
2 38 6 -14.8613 2.0974
2 38 7 -18.4423 11.5310
3 3 3 -324.5376 -332.6609
3 4 3 -2.9065 -103.1144
3 4 4 -98.7475 92.9838
3 5 3 -18.8514 16.8177
3 5 4 -9.7361 -40.3315
3 5 5 -37.6192 -36.6123
3 6 3 41.3311 -2.0513
3 6 4 -38.1242 -15.4687
3 6 5 -119.8295 90.7349
3 6 6 34.2904 -48.1651
3 7 3 -41.9321 -48.9171
3 7 4 -18.2231 13.1104
3 7 5 -46.4637 -54.0924
3 7 6 -5.5235 -40.1301
3 7 7 60.6999 49.0283
3 8 3 -2.4844 -19.5193
3 8 4 23.2817 -39.1781
3 8 5 -90.5534 1.2338
3 8 6 4.4729 16.7994
3 8 7 -41.9768 -14.5260
3 8 8 8.9940 -18.2414
3 9 3 -8.6325 0.3145
3 9 4 -23.1874 38.4908
3 9 5 6.8872 27.2843
3 9 6 -19.8409 24.4018
3 9 7 42.8717 7.0275
3 9 8 28.9587 5.4411
3 9 9 -3.6762 -11.3459
3 10 3 30.7887 -17.4928
3 10 4 44.0608 -24.2491
3 10 5 12.4209 -19.5995
3 10 6 -9.3250 4.1619
3 10 7 -43.9852 10.9582
3 10 8 -2.8263 -2.6094
3 10 9 18.5732 -19.5869
3 10 10 2.4213 -5.7027
3 11 3 -13.4956 -24.2104
3 11 4 -3.3422 34.4754
3 11 5 15.0603 -9.2472
3 11 6 -24.4325 21.3435
3 11 7 28.0232 22.5687
3 11 8 -5.8137 -50.6131
3 11 9 17.7854 38.8828
3 11 10 23.5192 1.2250
3 11 11 -11.2036 -15.6621
3 12 3 -3.4027 3.7710
3 12 4 19.6059 -7.6139
3 12 5 -22.4572 0.3524
3 12 6 -9.5534 -6.5418
3 12 7 -28.5989 2.9664
3 12 8 28.3326 -1.3891
3 12 9 28.6427 3.9923
3 12 10 3.7326 -20.4911
3 12 11 -6.0001 1.7309
3 12 12 -3.4651 13.3941
3 13 3 -17.5142 19.4036
3 13 4 -7.2651 24.8040
3 13 5 5.3762 -38.4580
3 13 6 -6.6519 7.0433
3 13 7 -3.7339 44.5177
3 13 8 -24.6873 -7.8485
3 13 9 7.5042 61.8055
3 13 10 -30.2233 1.6902
3 13 11 -9.9399 -18.7243
3 13 12 -24.7816 -3.1615
3 13 13 -14.5257 -21.6125
3 14 3 -53.8530 -12.0057
3 14 4 24.9541 6.3082
3 14 5 22.9962 31.9733
3 14 6 -18.3548 2.0334
3 14 7 5.5783 23.1990
3 14 8 0.4090 1.1796
3 14 9 -22.6593 -23.9631
3 14 10 -6.8344 19.8119
3 14 11 -9.5893 -10.0333
3 14 12 -19.9023 -21.2975
3 14 13 26.3910 -14.2693
3 14 14 1.7944 16.0717
3 15 3 -2.6216 6.4530
3 15 4 -4.4445 6.2891
3 15 5 7.3323 8.9506
3 15 6 8.7212 -24.1823
3 15 7 18.1466 -12.9596
3 15 8 -9.9960 -16.6408
3 15 9 -15.1047 23.7059
3 15 10 2.9430 -28.8500
3 15 11 -11.3252 -6.5430
3 15 12 -36.3612 6.8898
3 15 13 8.0613 -19.6292
3 15 14 -3.9684 9.1741
3 15 15 8.6737 -4.3537
3 16 3 3.9671 -6.3220
3 16 4 -29.2097 -23.9541
3 16 5 25.3218 -8.6762
3 16 6 13.8836 6.7201
3 16 7 8.8596 -10.0505
3 16 8 13.5714 -10.4296
3 16 9 -17.6629 -23.7491
3 16 10 20.6622 -5.7091
3 16 11 -6.6458 11.3523
3 16 12 18.5806 31.2503
3 16 13 -11.0461 5.9505
3 16 14 0.6977 15.4815
3 16 15 15.6431 11.3823
3 16 16 2.3761 11.3988
3 17 3 7.4272 -4.7404
3 17 4 16.5120 -10.7882
3 17 5 10.7015 -17.0543
3 17 6 20.3263 -19.8946
3 17 7 -5.8940 14.9335
3 17 8 -23.0012 -10.4131
3 17 9 -10.3678 -7.0244
3 17 10 -4.8524 -2.8046
3 17 11 16.2815 -8.0187
3 17 12 3.0921 -7.3282
3 17 13 -9.6574 8.6458
3 17 14 -13.8271 17.0881
3 17 15 20.7021 -0.2769
3 17 16 -24.5438 11.6956
3 17 17 12.9908 2.8081
3 18 3 9.6980 1.7184
3 18 4 -18.2682 -6.7772
3 18 5 -9.2228 -15.0261
3 18 6 -7.1885 -5.0850
3 18 7 -5.3606 23.2763
3 18 8 -3.6507 45.2293
3 18 9 -10.3575 -1.4535
3 18 10 0.8560 -3.7939
3 18 11 5.1823 10.0511
3 18 12 -13.9141 1.4693
3 18 13 6.5129 1.3923
3 18 14 -19.0695 22.7522
3 18 15 2.9376 -23.6363
3 18 16 -0.7586 -50.9499
3 18 17 -25.0048 -36.2363
3 18 18 -24.0419 24.1705
3 19 3 5.0562 6.0643
3 19 4 1.5475 -4.9579
3 19 5 -28.2901 -19.2120
3 19 6 0.5935 -9.3958
3 19 7 8.7955 0.5447
3 19 8 -9.6176 17.4115
3 19 9 20.1230 -1.0157
3 19 10 -13.0313 11.8953
3 19 11 -2.5368 -11.5152
3 19 12 -3.1242 18.0795
3 19 13 -13.6636 24.8870
3 19 14 -14.6193 -28.4017
3 19 15 -12.6547 -10.9363
3 19 16 -14.6718 -27.7391
3 19 17 -16.2977 3.7050
3 19 18 9.0706 -0.5333
3 19 19 17.2566 11.0113
3 20 3 9.7249 5.6554
3 20 4 13.0938 14.6114
3 20 5 3.0743 29.8717
3 20 6 5.2997 0.3664
3 20 7 -26.0577 -6.4283
3 20 8 1.2125 8.6976
3 20 9 -6.4374 11.3314
3 20 10 -12.1247 13.3221
3 20 11 -23.6771 -11.6129
3 20 12 8.2748 -15.7958
3 20 13 7.4233 8.5052
3 20 14 2.9505 -6.2167
3 20 15 -4.0783 17.6862
3 20 16 3.9703 2.1358
3 20 17 6.5346 2.1195
3 20 18 -33.6067 0.4659
3 20 19 -15.5902 13.3087
3 20 20 -2.5815 -11.2984
3 21 3 -19.9234 10.8132
3 21 4 -12.2254 -29.9539
3 21 5 -6.1016 1.3639
3 21 6 4.6034 3.2860
3 21 7 7.8969 -14.2133
3 21 8 5.1143 11.8788
3 21 9 14.4691 -5.6191
3 21 10 4.4100 -4.6386
3 21 11 5.1288 -14.5988
3 21 12 8.6949 -14.3679
3 21 13 -9.4312 -5.2222
3 21 14 2.7616 -12.8075
3 21 15 -4.0885 10.5247
3 21 16 -13.3431 18.3365
3 21 17 -22.4229 42.9368
3 21 18 4.7117 11.2714
3 21 19 18.8717 -13.5779
3 21 20 0.4526 39.6142
3 21 21 -19.1144 -23.0750
3 22 3 -3.4107 1.2357
3 22 4 -13.9190 25.9366
3 22 5 33.6545 10.1126
3 22 6 -5.4298 -12.5068
3 22 7 -5.4361 -0.0333
3 22 8 -15.9479 23.6675
3 22 9 6.6439 -39.6828
3 22 10 9.3714 14.0449
3 22 11 12.8944 -0.6522
3 22 12 15.7551 23.5820
3 22 13 8.6049 -20.7759
3 22 14 -16.1818 -9.9966
3 22 15 29.9065 27.4502
3 22 16 -17.6261 29.0508
3 22 17 -49.4800 -16.9531
3 22 18 14.2772 -13.9737
3 22 19 16.2633 -15.0210
3 22 20 -6.5875 -31.7782
3 22 21 16.4959 12.0021
3 22 22 -10.0590 -4.5147
3 23 3 -19.4132 -23.3490
3 23 4 -11.2393 1.5030
3 23 5 -6.2373 -5.9166
3 23 6 -26.2530 9.4011
3 23 7 -16.6188 -5.0205
3 23 8 13.9752 -0.1439
3 23 9 19.7920 6.4817
3 23 10 -3.1563 -26.7458
3 23 11 -32.8737 -12.6160
3 23 12 10.7376 -0.5135
3 23 13 1.1261 4.0725
3 23 14 -23.2417 -8.0630
3 23 15 4.3967 17.9206
3 23 16 -8.3743 7.0586
3 23 17 6.8508 8.7364
3 23 18 -2.2485 -13.2244
3 23 19 16.0524 -28.7749
3 23 20 -23.9433 44.8122
3 23 21 20.1500 -3.6177
3 23 22 -20.4659 -7.1271
3 23 23 1.2516 -1.1394
3 24 3 5.7214 15.6286
3 24 4 -16.3138 19.5520
3 24 5 12.5542 -10.5990
3 24 6 11.0552 4.0729
3 24 7 -11.6846 -19.2816
3 24 8 9.9061 -6.6454
3 24 9 3.6561 -15.9252
3 24 10 -4.4380 23.0094
3 24 11 26.7756 16.9724
3 24 12 13.0215 -25.5074
3 24 13 15.8665 0.9105
3 24 14 -0.7885 4.1948
3 24 15 -17.8791 -2.9131
3 24 16 -7.4247 -20.9169
3 24 17 29.6383 -9.6681
3 24 18 -11.9479 -21.2722
3 24 19 -17.9279 5.1531
3 24 20 -18.5774 -2.6274
3 24 21 -14.1355 -11.2099
3 24 22 -30.6323 16.1100
3 24 23 -0.3545 -10.4148
3 24 24 4.0970 -11.6839
3 25 3 0.0678 -10.0815
3 25 4 15.2530 -42.0158
3 25 5 3.0697 -11.7098
3 25 6 -13.4396 11.2282
3 25 7 -26.4281 -26.8350
3 25 8 -0.3134 -5.0675
3 25 9 -20.8959 -2.2193
3 25 10 9.3622 -12.9470
3 25 11 0.2068 -32.1695
3 25 12 14.4450 -33.1816
3 25 13 16.7700 15.3568
3 25 14 13.1968 19.0557
3 25 15 8.1915 -29.8029
3 25 16 11.9527 -0.8864
3 25 17 -13.1083 -25.7110
3 25 18 -28.0444 -17.4752
3 25 19 2.5549 -0.1265
3 25 20 0.7157 -5.8514
3 25 21 22.1999 24.6565
3 25 22 2.3909 -12.1906
3 25 23 -2.0398 1.6490
3 25 24 -18.5253 -21.2910
3 25 25 -3.1090 -5.9263
3 26 3 13.2331 -1.3384
3 26 4 -7.2034 -3.1085
3 26 5 -17.4421 10.4702
3 26 6 16.4242 5.1949
3 26 7 1.2833 11.2600
3 26 8 33.2334 16.1205
3 26 9 2.2548 -4.5425
3 26 10 -33.5915 8.1173
3 26 11 21.9002 -2.2804
3 26 12 -14.6213 34.7245
3 26 13 -13.3607 -8.1887
3 26 14 1.9154 13.2238
3 26 15 -2.3171 -26.7872
3 26 16 -5.2456 -20.1205
3 26 17 16.4009 19.9605
3 26 18 -3.6267 0.7982
3 26 19 32.3265 -10.5982
3 26 20 -8.1115 -22.2870
3 26 21 13.7078 7.6644
3 26 22 24.0910 -12.8212
3 26 23 -0.0857 -33.7418
3 26 24 -14.6049 -0.7398
3 26 25 0.9396 -8.1464
3 26 26 0.1795 0.7724
3 27 3 -18.4181 -14.3606
3 27 4 1.6592 9.5088
3 27 5 22.5380 15.5178
3 27 6 9.2170 16.1027
3 27 7 -7.7812 11.6285
3 27 8 -32.0322 8.6085
3 27 9 -14.6585 -13.9923
3 27 10 8.8317 8.2620
3 27 11 10.2620 -3.6284
3 27 12 28.5735 -25.5813
3 27 13 13.0385 22.5892
3 27 14 0.2089 -7.3940
3 27 15 -46.1254 -19.5824
3 27 16 2.0880 -28.0519
3 27 17 8.7368 -21.3355
3 27 18 -14.9267 -20.5368
3 27 19 -3.3296 4.4502
3 27 20 2.1753 -9.3137
3 27 21 11.1496 -0.8549
3 27 22 -11.3635 11.1575
3 27 23 10.9029 4.4148
3 27 24 18.0394 -2.8121
3 27 25 -1.6838 -7.9325
3 27 26 -6.6531 4.8498
3 27 27 4.1154 -3.8037
3 28 3 -0.7172 -21.9830
3 28 4 15.7602 -7.0265
3 28 5 5.3888 30.5584
3 28 6 10.2434 17.8191
3 28 7 -8.6203 -1.6163
3 28 8 4.6630 3.3677
3 28 9 -0.7767 3.7247
3 28 10 17.4897 4.3755
3 28 11 0.2886 11.1586
3 28 12 12.0524 17.9519
3 28 13 0.9111 -14.9175
3 28 14 3.1479 -9.2471
3 28 15 1.8207 26.2239
3 28 16 23.8407 -24.2523
3 28 17 13.2197 7.9942
3 28 18 5.3046 5.5500
3 28 19 -14.7179 0.4405
3 28 20 3.3745 -11.6488
3 28 21 -10.8235 16.8333
3 28 22 20.6078 -17.8085
3 28 23 -19.0984 -7.2631
3 28 24 -18.0107 2.6600
3 28 25 -20.0043 1.3703
3 28 26 6.3809 12.2098
3 29 3 -17.1951 16.1580
3 29 4 -17.0195 13.0692
3 29 5 -22.6884 25.4152
3 29 6 -9.0451 -20.4260
3 29 7 6.9112 6.1511
3 29 8 3.2336 27.1162
3 29 9 -3.8030 15.8105
3 29 10 4.3262 -18.8166
3 29 11 21.7014 4.8520
3 29 12 8.8600 -1.4856
3 29 13 -7.5572 17.4535
3 29 14 -25.9257 -4.7202
3 29 15 15.3474 4.1369
3 29 16 27.5494 24.0209
3 29 17 23.5269 -17.3438
3 29 18 28.3757 -10.2265
3 29 19 5.6267 16.9160
3 29 20 -7.7418 7.6839
3 29 21 -21.3381 -16.1573
3 29 22 1.9671 9.7701
3 29 23 -1.5096 4.5216
3 29 24 -13.5976 -7.4145
3 29 25 4.8883 -6.1601
3 30 3 2.9142 2.3068
3 30 4 -17.0350 -9.2305
3 30 5 -2.7155 6.1415
3 30 6 14.3861 -7.8731
3 30 7 6.3019 10.2300
3 30 8 -15.5311 -2.4344
3 30 9 10.6096 22.8923
3 30 10 -13.9388 -13.2647
3 30 11 -9.1810 -43.9912
3 30 12 24.8983 -16.3229
3 30 13 -2.9198 -33.7653
3 30 14 16.7663 -4.9185
3 30 15 24.0475 -23.0564
3 30 16 -15.1388 1.7566
3 30 17 -11.7143 -30.8246
3 30 18 3.8698 7.0013
3 30 19 3.5056 19.3768
3 30 20 0.4709 -16.5345
3 30 21 17.9416 5.8336
3 30 22 21.4167 9.3719
3 30 23 3.2442 -3.3292
3 30 24 -3.7881 9.2580
3 31 3 -18.6882 -9.6892
3 31 4 -19.4785 -7.7883
3 31 5 -28.9044 4.3856
3 31 6 -2.8516 14.3777
3 31 7 21.8310 -26.3822
3 31 8 -8.3114 9.7149
3 31 9 -31.8861 -7.9711
3 31 10 -2.9092 -9.9374
3 31 11 -9.0492 -6.6070
3 31 12 13.0766 -18.2446
3 31 13 18.8377 -10.6090
3 31 14 -7.6765 27.9811
3 31 15 26.1471 15.6833
3 31 16 20.0702 15.6094
3 31 17 -0.8322 9.2034
3 31 18 -10.9871 -2.9290
3 31 19 7.1111 -9.0362
3 31 20 -16.0721 0.4062
3 31 21 8.1286 -10.9594
3 31 22 -16.3052 -7.9822
3 31 23 -38.8396 -2.4154
3 32 3 -5.1795 -3.6625
3 32 4 5.1931 2.0875
3 32 5 12.3288 -3.8939
3 32 6 -9.8093 -10.0697
3 32 7 11.9683 -5.4538
3 32 8 -0.6247 -23.4265
3 32 9 3.2569 -2.5039
3 32 10 -18.9226 8.8398
3 32 11 -9.4131 -16.6032
3 32 12 10.9903 -7.0813
3 32 13 -18.4524 -8.5770
3 32 14 6.8851 26.3121
3 32 15 8.8035 -13.1292
3 32 16 -10.4088 10.5220
3 32 17 13.0674 -1.4195
3 32 18 -1.4877 7.4608
3 32 19 -2.1280 13.7721
3 32 20 35.0341 -10.6778
3 32 21 -10.1512 5.3541
3 33 3 -17.5892 20.2451
3 33 4 0.8461 -7.9241
3 33 5 -9.4400 3.0707
3 33 6 -1.8620 9.3363
3 33 7 -4.6391 3.5897
3 33 8 10.6340 2.6233
3 33 9 18.2823 9.2841
3 33 10 -27.8065 8.6183
3 33 11 24.7391 -9.8774
3 33 12 5.7334 -12.0834
3 33 13 -1.6974 3.1920
3 33 14 6.1851 -20.1143
3 33 15 -1.1759 6.4867
3 33 16 5.6465 4.8684
3 33 17 2.4842 7.5478
3 33 18 -24.6042 -1.6881
3 33 19 11.1013 -12.5946
3 33 20 4.2492 -7.4028
3 34 3 11.4478 4.5198
3 34 4 3.6127 10.7439
3 34 5 -5.5732 10.8213
3 34 6 -11.3736 15.9918
3 34 7 -13.6971 -11.1872
3 34 8 3.3120 0.6300
3 34 9 2.5855 10.6442
3 34 10 -3.5967 4.8658
3 34 11 7.1575 -5.6352
3 34 12 12.1266 -12.9325
3 34 13 28.8744 11.2287
3 34 14 5.9807 3.8049
3 34 15 -7.9202 12.3872
3 34 16 3.7809 1.2374
3 34 17 -7.6676 2.7218
3 34 18 -9.4004 3.1214
3 35 3 3.2252 6.8958
3 35 4 -5.4811 15.7461
3 35 5 -0.3863 -3.4744
3 35 6 -25.1795 -21.9215
3 35 7 2.5866 -7.1422
3 35 8 8.4954 15.9004
3 35 9 7.7387 8.6854
3 35 10 8.9721 -25.6236
3 35 11 15.7690 5.5720
3 35 12 -22.1253 -12.8855
3 35 13 -4.1686 7.2498
3 35 14 3.6378 3.3782
3 35 15 -17.5430 1.7620
3 35 16 -3.1131 -1.3874
3 36 3 -4.3074 2.4698
3 36 4 7.8297 2.5667
3 36 5 -4.0863 -7.3628
3 36 6 -4.2792 -0.0700
3 36 7 7.5433 11.7576
3 36 8 13.7172 9.4161
3 36 9 -15.9040 0.4826
3 36 10 3.7933 1.8691
3 36 11 -1.9025 -9.7284
3 36 12 -3.6977 5.4349
3 36 13 17.7939 -1.8307
3 37 3 4.6367 0.0062
3 37 4 -13.9756 9.8214
3 37 5 -2.6050 -7.0008
3 37 6 -4.6131 12.4570
3 37 7 1.2016 -16.1390
3 37 8 -6.5035 7.5114
3 37 9 -6.5838 -17.3536
3 37 10 -6.1043 4.0858
3 37 11 8.4469 -13.1713
3 38 3 1.5096 1.1249
3 38 4 2.4544 -30.6342
3 38 5 -4.8254 6.5801
3 38 6 7.0505 -2.1914
4 4 4 -436.9226 -5.5046
4 5 4 88.8019 78.2305
4 5 5 -2.8590 -71.6629
4 6 4 0.4237 -78.4469
4 6 5 -82.3348 96.5076
4 6 6 15.1853 0.4510
4 7 4 7.8086 -2.6754
4 7 5 -25.8141 -35.9436
4 7 6 -7.4951 -55.4361
4 7 7 -3.8385 -40.1349
4 8 4 -63.4262 8.5359
4 8 5 34.2943 9.8173
4 8 6 -58.6781 80.2302
4 8 7 25.1559 31.5354
4 8 8 54.9345 0.8701
4 9 4 5.4172 9.2470
4 9 5 42.6853 5.1027
4 9 6 60.4279 -78.2926
4 9 7 2.6342 16.1461
4 9 8 -8.4796 -33.9413
4 9 9 -1.4017 14.5134
4 10 4 -5.0770 -58.6636
4 10 5 -12.2877 -7.8886
4 10 6 9.6648 0.4954
4 10 7 -14.9589 -17.3794
4 10 8 3.3839 18.8727
4 10 9 -15.0023 4.6179
4 10 10 -36.1955 -2.9749
4 11 4 37.4189 -11.5986
4 11 5 26.6673 15.6034
4 11 6 -21.1629 29.4576
4 11 7 -13.8605 9.4344
4 11 8 -1.0761 -13.4746
4 11 9 -15.0921 15.3960
4 11 10 8.5034 10.9043
4 11 11 -1.9824 -54.7631
4 12 4 -0.9809 1.0540
4 12 5 -24.7279 -16.0229
4 12 6 -5.6332 15.2815
4 12 7 3.9811 -31.0240
4 12 8 7.6888 31.9849
4 12 9 1.9079 36.0144
4 12 10 5.3759 -8.3714
4 12 11 -37.3307 4.4140
4 12 12 -18.3314 1.5827
4 13 4 -57.5379 -46.7349
4 13 5 -6.1682 -4.8320
4 13 6 -3.4705 -8.6698
4 13 7 -14.1825 -25.2880
4 13 8 6.1265 -3.6260
4 13 9 15.9177 -43.7050
4 13 10 5.0587 -12.6296
4 13 11 0.3712 27.0986
4 13 12 27.2658 7.0122
4 13 13 -4.9848 21.1160
4 14 4 1.4611 28.2655
4 14 5 -4.5873 -10.0826
4 14 6 -6.8018 -3.1564
4 14 7 -8.1126 -28.2973
4 14 8 12.4452 -55.3642
4 14 9 18.6267 -11.7562
4 14 10 8.5071 -25.7783
4 14 11 -11.1545 8.0648
4 14 12 -5.6683 -24.1598
4 14 13 1.9003 -23.4619
4 14 14 19.2772 6.8471
4 15 4 -1.7698 11.7203
4 15 5 12.6935 -1.3745
4 15 6 -5.8197 -13.4530
4 15 7 -10.0270 -21.8349
4 15 8 0.9345 -24.6884
4 15 9 17.9195 -33.3597
4 15 10 -0.4477 4.0412
4 15 11 21.9631 -5.6437
4 15 12 18.7672 0.6397
4 15 13 -16.6596 30.5485
4 15 14 -10.2962 1.3065
4 15 15 -7.3679 -31.8249
4 16 4 -13.5866 -5.1974
4 16 5 4.7608 -3.7627
4 16 6 -35.2056 2.3855
4 16 7 11.2382 9.1800
4 16 8 11.9544 2.1222
4 16 9 11.6700 7.5955
4 16 10 -32.5865 -4.1821
4 16 11 -0.6792 0.3920
4 16 12 1.7207 11.8239
4 16 13 -19.5051 -18.9704
4 16 14 28.1387 1.9246
4 16 15 -21.3501 -18.6814
4 16 16 -8.5094 5.8718
4 17 4 29.1965 35.8618
4 17 5 -20.7502 12.3093
4 17 6 14.7091 18.9549
4 17 7 7.8665 10.6078
4 17 8 -28.4668 -27.2552
4 17 9 1.1512 15.5722
4 17 10 16.0033 -7.8294
4 17 11 6.1009 -12.1017
4 17 12 15.6134 8.8232
4 17 13 10.5747 14.3428
4 17 14 18.7189 8.9628
4 17 15 3.8785 -19.7654
4 17 16 -0.4271 -7.6623
4 17 17 -4.7451 -1.1340
4 18 4 5.7426 14.9186
4 18 5 -20.8096 7.0118
4 18 6 -14.9615 -9.3582
4 18 7 1.2827 23.6253
4 18 8 -16.3053 -4.2576
4 18 9 6.1248 -7.7781
4 18 10 22.1075 5.0097
4 18 11 -18.1109 -14.1656
4 18 12 5.3250 -16.2237
4 18 13 46.2989 -5.5904
4 18 14 10.8255 -27.8018
4 18 15 -35.4365 -6.6156
4 18 16 2.4003 21.1040
4 18 17 -13.9209 24.5348
4 18 18 -2.6244 3.5505
4 19 4 8.2143 -21.4799
4 19 5 14.3750 0.7575
4 19 6 -1.8430 10.9914
4 19 7 -19.7181 -4.1312
4 19 8 -4.2578 -14.7979
4 19 9 41.8310 -10.2823
4 19 10 -0.9196 -7.1511
4 19 11 -9.8529 -6.9988
4 19 12 9.7765 10.9880
4 19 13 -0.4533 -21.0293
4 19 14 6.0550 -7.3806
4 19 15 -1.1039 0.2836
4 19 16 -2.8679 -28.9421
4 19 17 -14.5581 5.0866
4 19 18 17.3088 24.3283
4 19 19 1.7238 11.2763
4 20 4 -12.3651 4.4407
4 20 5 -6.2951 -10.5983
4 20 6 10.6092 0.6406
4 20 7 26.3443 6.5958
4 20 8 6.4478 -1.2424
4 20 9 -14.4799 -30.4830
4 20 10 30.5926 -12.0424
4 20 11 -1.0924 11.6026
4 20 12 -13.6558 5.3696
4 20 13 6.9171 -22.9754
4 20 14 -10.8691 12.2417
4 20 15 -5.4393 -13.8910
4 20 16 20.8035 39.5221
4 20 17 -3.8460 4.9056
4 20 18 -16.2667 21.6835
4 20 19 31.3519 5.7971
4 20 20 -17.1480 1.6840
4 21 4 -3.6023 3.7346
4 21 5 -6.9467 18.4732
4 21 6 16.4235 5.2946
4 21 7 0.7026 21.4427
4 21 8 11.2151 -7.4889
4 21 9 -4.4868 7.4477
4 21 10 -23.5628 25.8633
4 21 11 0.9638 13.3149
4 21 12 4.3470 -1.1620
4 21 13 -1.0543 -9.3523
4 21 14 -5.0275 -27.0276
4 21 15 -6.0542 10.0282
4 21 16 -23.2610 11.5800
4 21 17 -6.1104 3.5391
4 21 18 5.7850 -12.7276
4 21 19 -17.3709 -26.3649
4 21 20 8.5789 -3.6178
4 21 21 5.3013 -32.4899
4 22 4 4.1966 -26.3756
4 22 5 7.3730 -19.0474
4 22 6 12.0697 1.0550
4 22 7 2.0114 -5.5343
4 22 8 -13.7502 -7.2201
4 22 9 -8.2628 2.0710
4 22 10 7.3794 0.5812
4 22 11 18.1830 -8.4659
4 22 12 -23.0000 -5.4678
4 22 13 -12.9505 28.3471
4 22 14 -25.1935 -2.2000
4 22 15 32.0697 -7.1182
4 22 16 11.2380 -12.1157
4 22 17 -12.2446 -4.2316
4 22 18 3.3390 -13.4961
4 22 19 -3.1534 -5.2206
4 22 20 2.5926 -24.8721
4 22 21 16.3421 30.9728
4 22 22 -9.0970 1.1226
4 23 4 9.6101 -18.7900
4 23 5 2.5592 -1.3800
4 23 6 3.8706 8.9503
4 23 7 -15.1828 3.4568
4 23 8 -0.7446 13.3978
4 23 9 16.0519 31.1488
4 23 10 -22.9933 -21.4664
4 23 11 4.2816 8.3652
4 23 12 6.7209 -2.5562
4 23 13 33.8637 2.9619
4 23 14 -9.2118 10.1268
4 23 15 -35.0561 0.0666
4 23 16 -12.6317 5.1828
4 23 17 -26.7899 -10.3918
4 23 18 -21.1051 9.1307
4 23 19 27.0699 -23.1665
4 23 20 -15.1231 -4.9561
4 23 21 -12.1711 1.0027
4 23 22 4.2700 -8.9324
4 23 23 3.7781 -11.2520
4 24 4 -17.8525 5.5960
4 24 5 0.1824 21.1115
4 24 6 3.0059 -6.9489
4 24 7 -11.5549 7.0730
4 24 8 15.3242 -5.7410
4 24 9 4.2287 17.2785
4 24 10 -5.2416 7.0763
4 24 11 4.8176 -10.6528
4 24 12 -7.4720 -6.6729
4 24 13 7.3889 -0.0154
4 24 14 -3.8843 -5.9120
4 24 15 -30.6209 9.0806
4 24 16 -4.9712 7.9244
4 24 17 -15.0224 -25.4083
4 24 18 5.7894 16.3030
4 24 19 -4.8928 9.9814
4 24 20 -20.2201 2.8577
4 24 21 -5.2463 24.7377
4 24 22 4.1551 2.5957
4 24 23 -19.0298 9.2673
4 24 24 -6.1640 -0.0461
4 25 4 -27.9999 -23.0313
4 25 5 -6.3148 -2.4305
4 25 6 -4.1007 -6.0575
4 25 7 11.9878 -11.5700
4 25 8 -0.7113 -14.3408
4 25 9 -7.0833 -8.8481
4 25 10 16.3710 -0.7205
4 25 11 38.0988 -13.0500
4 25 12 34.5116 -2.4031
4 25 13 16.5276 17.8975
4 25 14 -22.1058 7.6366
4 25 15 -16.0922 -24.7471
4 25 16 24.7909 -15.4542
4 25 17 21.7858 -27.9437
4 25 18 -32.5167 -34.8897
4 25 19 -4.6537 5.3388
4 25 20 7.8424 -1.4905
4 25 21 -23.8522 -14.2391
4 25 22 -21.5914 16.5860
4 25 23 13.3356 2.4717
4 25 24 13.6276 -14.9633
4 25 25 1.2943 0.7475
4 26 4 5.3716 29.1051
4 26 5 -13.5981 -18.6133
4 26 6 -21.9478 7.5897
4 26 7 38.8607 -13.3902
4 26 8 4.8224 -11.4037
4 26 9 11.4628 -9.6460
4 26 10 -16.8165 5.3201
4 26 11 29.8435 -14.0126
4 26 12 -11.5297 -21.9446
4 26 13 20.0875 -7.8832
4 26 14 8.4189 18.2281
4 26 15 -12.0015 -46.9142
4 26 16 -21.2148 -23.7845
4 26 17 18.3234 -6.9563
4 26 18 11.8940 -18.4928
4 26 19 3.4669 6.5726
4 26 20 -11.5429 1.0993
4 26 21 -12.8862 10.6882
4 26 22 -11.7929 12.9687
4 26 23 14.3666 -21.6451
4 26 24 -9.6111 16.3505
4 26 25 20.0352 8.7686
4 26 26 13.5741 -1.2187
4 27 4 23.3964 -23.6106
4 27 5 16.8075 2.3241
4 27 6 5.7421 32.1672
4 27 7 -12.3130 3.2476
4 27 8 4.0853 2.3463
4 27 9 10.7018 -18.3192
4 27 10 -21.4012 -12.2106
4 27 11 4.7083 14.2383
4 27 12 -12.0598 9.5190
4 27 13 11.3120 19.3002
4 27 14 35.9857 -2.0343
4 27 15 1.3001 -8.7997
4 27 16 9.7710 -21.1922
4 27 17 -25.2751 1.6517
4 27 18 -1.9268 15.6054
4 27 19 -3.1310 -10.6391
4 27 20 2.7932 2.1595
4 27 21 -1.2332 -8.1497
4 27 22 -30.7510 -22.0345
4 27 23 5.7200 10.5398
4 27 24 -1.9436 33.6575
4 27 25 -1.9552 -13.3242
4 27 26 14.8256 -6.0612
4 27 27 0.2853 -6.3187
4 28 4 -32.3244 -2.4085
4 28 5 5.2369 -1.3353
4 28 6 -8.8633 5.8949
4 28 7 -2.1903 9.0386
4 28 8 1.4521 10.1345
4 28 9 -27.8063 19.0491
4 28 10 48.2616 -26.6595
4 28 11 0.4647 -3.9622
4 28 12 -4.0627 -5.6019
4 28 13 -21.4625 -0.0130
4 28 14 1.2372 3.3114
4 28 15 -15.6061 16.6678
4 28 16 6.3605 -2.1922
4 28 17 7.4262 -18.4684
4 28 18 -12.4897 -3.4453
4 28 19 -15.5526 -4.8852
4 28 20 0.0081 12.4642
4 28 21 13.4259 -16.1904
4 28 22 -26.0719 -15.2051
4 28 23 44.2013 27.5079
4 28 24 -16.2713 -19.2169
4 28 25 2.6276 -33.9368
4 28 26 29.5991 -5.9994
4 29 4 -8.6314 -10.8265
4 29 5 17.7055 0.3936
4 29 6 -11.0809 3.7092
4 29 7 -0.7123 -22.9824
4 29 8 -4.2234 -0.0314
4 29 9 -13.2842 -13.8360
4 29 10 -2.1207 -14.3012
4 29 11 2.7060 -10.2400
4 29 12 5.4363 13.1965
4 29 13 25.4190 8.0978
4 29 14 -7.3832 -36.8914
4 29 15 27.5168 -1.9925
4 29 16 -8.9796 19.8584
4 29 17 2.8934 7.7475
4 29 18 -19.0729 13.7664
4 29 19 26.9216 -1.3292
4 29 20 -10.1733 12.5490
4 29 21 47.6278 -61.0039
4 29 22 4.2897 -11.9377
4 29 23 -15.6282 -11.8757
4 29 24 -16.8553 -7.2219
4 29 25 -9.6921 -16.9820
4 30 4 10.0516 10.9032
4 30 5 9.5842 15.1433
4 30 6 -3.4473 9.0439
4 30 7 -16.3176 12.3776
4 30 8 -29.1866 4.0088
4 30 9 6.6584 14.6127
4 30 10 -0.2771 -26.5205
4 30 11 5.5049 7.2669
4 30 12 1.1537 8.6337
4 30 13 -20.2680 11.5961
4 30 14 -4.1472 15.2841
4 30 15 31.9614 -16.2796
4 30 16 32.9237 0.8832
4 30 17 15.6009 -27.9163
4 30 18 -14.7704 -7.3411
4 30 19 -22.4101 12.0335
4 30 20 31.1711 -11.4170
4 30 21 -6.3569 26.9254
4 30 22 8.5541 8.1286
4 30 23 11.4914 15.8445
4 30 24 -20.1657 11.2924
4 31 4 3.9798 -5.2883
4 31 5 -6.2907 11.3084
4 31 6 5.1715 15.4214
4 31 7 9.4471 -9.4609
4 31 8 -4.9657 -21.7192
4 31 9 -8.4805 -1.0935
4 31 10 -11.6423 -18.0651
4 31 11 -6.8304 0.6011
4 31 12 10.7263 -22.5816
4 31 13 6.9887 2.6580
4 31 14 -21.6067 -15.1171
4 31 15 -15.5299 -3.6225
4 31 16 12.0208 5.2571
4 31 17 -3.3271 5.7006
4 31 18 -5.4951 2.9827
4 31 19 4.9042 1.8191
4 31 20 -1.9289 12.0355
4 31 21 19.8318 -10.0695
4 31 22 12.4789 19.7842
4 32 4 -19.1289 -4.2848
4 32 5 -14.8895 -4.5474
4 32 6 2.6046 0.7035
4 32 7 6.1981 -13.7606
4 32 8 12.4978 -3.6961
4 32 9 -0.5158 -2.1649
4 32 10 1.2490 26.7798
4 32 11 1.2547 -39.5885
4 32 12 36.1672 1.6812
4 32 13 -13.8264 23.3266
4 32 14 -1.9595 -13.8489
4 32 15 18.0281 -10.2580
4 32 16 -11.9220 18.3179
4 32 17 -24.5119 3.8479
4 32 18 6.0326 17.1096
4 32 19 -1.3281 4.1423
4 32 20 1.6130 -13.3765
4 32 21 -5.5703 -5.4615
4 33 4 18.7832 9.6504
4 33 5 -14.7378 -1.7314
4 33 6 -10.4280 -1.5580
4 33 7 -13.4138 -1.1594
4 33 8 -2.2345 9.2928
4 33 9 -4.3456 -11.5419
4 33 10 11.0528 -6.6467
4 33 11 4.6302 -10.7670
4 33 12 9.1428 -1.3838
4 33 13 24.8261 3.3536
4 33 14 -2.5221 1.9836
4 33 15 -5.5104 9.1222
4 33 16 2.6343 -15.0779
4 33 17 -8.7510 11.3917
4 33 18 7.5078 -14.4015
4 33 19 8.0308 16.3744
4 34 4 3.8113 2.8419
4 34 5 -13.2539 0.2002
4 34 6 -16.5799 -15.2325
4 34 7 -9.3853 2.2603
4 34 8 10.8553 13.6196
4 34 9 -12.3977 9.4656
4 34 10 -3.7373 -2.3472
4 34 11 15.2835 -2.5062
4 34 12 6.6264 4.9031
4 34 13 1.5158 -12.7058
4 34 14 -0.7383 -10.2411
4 34 15 -8.6599 17.9897
4 34 16 0.8078 8.0212
4 34 17 8.9062 -3.2146
4 34 18 12.1431 -9.0463
4 35 4 11.8899 -12.6808
4 35 5 -10.8812 10.4501
4 35 6 3.8406 -8.9786
4 35 7 -4.1233 14.1969
4 35 8 -19.3934 -3.2640
4 35 9 -5.6599 -16.7021
4 35 10 -0.5886 4.7761
4 35 11 9.2495 12.8659
4 35 12 4.6866 -9.3713
4 35 13 -9.3790 1.7312
4 35 14 2.5724 -6.6948
4 35 15 1.2396 7.1909
4 35 16 19.8322 -0.5629
4 36 4 -20.8262 -1.5923
4 36 5 15.8189 2.0613
4 36 6 0.2819 -6.5387
4 36 7 14.1070 4.5585
4 36 8 12.9017 23.7407
4 36 9 2.5330 4.3143
4 36 10 18.5786 -15.5309
4 36 11 -12.2518 3.9335
4 36 12 -15.7393 1.8451
4 36 13 -2.9048 16.9373
4 37 4 7.9971 1.8248
4 37 5 4.5655 -5.5968
4 37 6 -6.8688 8.3646
4 37 7 1.1867 16.6694
4 37 8 2.2928 7.8237
4 37 9 3.4688 -3.3638
4 37 10 -7.3529 7.5931
4 38 4 -8.2984 -2.7661
4 38 5 1.8166 -7.1970
4 38 6 -7.0117 -13.1250
5 5 5 29.3058 -28.0384
5 6 5 -25.3642 4.5800
5 6 6 -17.0945 -35.8901
5 7 5 20.1466 16.8860
5 7 6 11.3417 16.6317
5 7 7 -22.5039 30.6606
5 8 5 -10.2454 -81.2672
5 8 6 63.0424 -32.0930
5 8 7 11.4116 -45.8463
5 8 8 -5.6760 -25.8412
5 9 5 -6.1666 4.3361
5 9 6 -49.7259 -56.6437
5 9 7 -59.8862 17.3075
5 9 8 16.0883 -43.4409
5 9 9 -10.9205 20.0005
5 10 5 -6.2712 -12.9091
5 10 6 -12.5223 -8.4706
5 10 7 25.6326 -14.0704
5 10 8 -52.5552 22.3461
5 10 9 51.4326 -14.4674
5 10 10 -24.5668 -29.0047
5 11 5 -13.6855 -20.2804
5 11 6 2.4410 -3.4325
5 11 7 -29.6423 -57.8287
5 11 8 11.7141 24.1995
5 11 9 -27.6904 -9.8247
5 11 10 -4.2926 5.0191
5 11 11 26.2831 -18.8410
5 12 5 -9.9952 -23.0234
5 12 6 -14.4495 -6.4581
5 12 7 13.7246 -64.5718
5 12 8 20.2582 30.7687
5 12 9 0.6151 15.6201
5 12 10 -9.4655 -47.8824
5 12 11 -18.9681 -9.3123
5 12 12 -1.5604 2.7451
5 13 5 -10.1010 14.5536
5 13 6 -9.9495 32.4471
5 13 7 -15.9649 -6.3461
5 13 8 -8.4662 34.5375
5 13 9 -14.8563 -13.7826
5 13 10 1.2180 -9.2333
5 13 11 -14.2018 7.0007
5 13 12 -0.9552 6.4125
5 13 13 24.9803 -28.3572
5 14 5 36.2915 -13.1104
5 14 6 10.2533 46.4825
5 14 7 29.4389 -35.5338
5 14 8 19.5452 -15.1170
5 14 9 24.8524 -3.9697
5 14 10 4.2072 -11.7430
5 14 11 -5.9394 10.2733
5 14 12 -17.2409 -75.6302
5 14 13 6.8336 17.4810
5 14 14 13.0263 18.2845
5 15 5 -1.9454 10.2188
5 15 6 4.2143 -33.0498
5 15 7 -10.8489 -31.4925
5 15 8 9.3934 20.3487
5 15 9 -17.6393 -2.4184
5 15 10 20.8377 10.1447
5 15 11 -8.2914 -3.0286
5 15 12 -7.1264 -15.7613
5 15 13 13.2106 -19.5239
5 15 14 4.0800 -27.3279
5 15 15 -6.4848 -3.0842
5 16 5 2.4772 -65.7029
5 16 6 7.6395 -1.3539
5 16 7 -8.0331 14.5551
5 16 8 2.6994 0.4926
5 16 9 15.2827 1.3723
5 16 10 4.7913 0.2357
5 16 11 15.1803 23.2357
5 16 12 4.8662 -38.6211
5 16 13 -35.1746 -5.1191
5 16 14 -18.3664 -28.4449
5 16 15 0.7025 19.8485
5 16 16 8.5723 11.3252
5 17 5 -11.0807 7.6663
5 17 6 -2.8094 -6.6703
5 17 7 -6.3943 -0.7449
5 17 8 -0.2545 -6.9522
5 17 9 40.4355 -15.0000
5 17 10 0.9095 9.6383
5 17 11 4.1198 -7.2903
5 17 12 15.6208 -20.4663
5 17 13 -12.6081 -14.2334
5 17 14 -6.6383 -3.5225
5 17 15 1.1004 0.8299
5 17 16 -0.0044 -3.7071
5 17 17 -5.0369 -1.4585
5 18 5 -9.8135 4.4488
5 18 6 -11.3537 3.7103
5 18 7 0.6359 6.3671
5 18 8 11.1534 -5.7923
5 18 9 -5.7305 25.2967
5 18 10 8.8046 15.1458
5 18 11 10.6870 13.2180
5 18 12 -8.0926 16.8393
5 18 13 7.2015 -1.8682
5 18 14 10.5121 -7.3669
5 18 15 15.0314 -12.7165
5 18 16 6.2401 -13.0878
5 18 17 11.5972 -13.9812
5 18 18 15.2224 12.6112
5 19 5 5.9450 12.7673
5 19 6 7.4053 -11.2689
5 19 7 -4.8219 9.5542
5 19 8 -19.4359 -16.2986
5 19 9 2.1827 -22.4752
5 19 10 7.8432 -18.2006
5 19 11 2.1906 -4.4945
5 19 12 -12.7799 5.8845
5 19 13 14.2916 7.1966
5 19 14 27.5879 21.4258
5 19 15 8.5826 1.1054
5 19 16 12.8341 -34.8459
5 19 17 4.5424 34.0598
5 19 18 -3.4944 -12.6522
5 19 19 7.3934 -12.2292
5 20 5 6.7526 20.4249
5 20 6 -17.6805 -3.8373
5 20 7 20.2751 10.9800
5 20 8 11.8958 14.3811
5 20 9 8.6993 -16.5097
5 20 10 4.4559 17.1870
5 20 11 -5.2793 -5.4852
5 20 12 -4.3424 11.0046
5 20 13 20.9976 0.4781
5 20 14 18.5764 -26.6366
5 20 15 0.6091 42.7194
5 20 16 12.6115 -10.5863
5 20 17 -11.3150 31.4835
5 20 18 5.0119 -11.3228
5 20 19 -23.4742 8.7646
5 20 20 -15.2064 -19.8047
5 21 5 23.3731 -30.2701
5 21 6 7.8227 1.4503
5 21 7 -22.3959 15.1689
5 21 8 0.0148 8.3786
5 21 9 15.6396 -15.5911
5 21 10 -0.7450 11.0838
5 21 11 -6.1941 -4.0131
5 21 12 11.6253 -11.8146
5 21 13 -20.9695 -12.5892
5 21 14 -6.7753 15.8971
5 21 15 10.7003 -5.2339
5 21 16 -24.6660 20.0154
5 21 17 -0.8330 16.0087
5 21 18 -4.5165 0.0928
5 21 19 -21.2197 -6.4840
5 21 20 12.1553 19.6983
5 21 21 -24.4300 21.2149
5 22 5 9.1992 2.1944
5 22 6 -6.9443 17.4196
5 22 7 1.2621 3.7848
5 22 8 27.7941 12.7201
5 22 9 -9.1193 -41.5300
5 22 10 -4.3843 -1.7193
5 22 11 17.4633 19.7173
5 22 12 -12.9381 14.0333
5 22 13 -28.1066 -4.0454
5 22 14 6.6390 -0.0018
5 22 15 1.1717 -6.7076
5 22 16 7.1753 2.2217
5 22 17 -7.0089 -6.1926
5 22 18 11.6056 -4.1865
5 22 19 -19.8398 -5.5967
5 22 20 15.9760 14.0715
5 22 21 -28.2825 -36.8455
5 22 22 6.7807 1.9530
5 23 5 4.0490 -0.3433
5 23 6 -9.3698 34.8031
5 23 7 0.6170 11.5180
5 23 8 12.1084 -29.7948
5 23 9 -16.1429 -2.3980
5 23 10 -1.5088 -12.3922
5 23 11 -8.9737 1.7864
5 23 12 10.7123 8.9489
5 23 13 10.7266 1.4398
5 23 14 13.0760 -5.0347
5 23 15 -10.0645 -3.0898
5 23 16 -17.8192 -14.7348
5 23 17 -1.1428 -4.0045
5 23 18 1.3299 2.4059
5 23 19 -15.1582 9.4105
5 23 20 0.9056 28.8735
5 23 21 -7.9880 29.8141
5 23 22 -11.9470 8.8956
5 23 23 20.0893 -19.5948
5 24 5 3.7222 11.5279
5 24 6 18.7475 -10.5412
5 24 7 15.3893 -18.9114
5 24 8 22.2772 15.0364
5 24 9 -12.1981 -24.3841
5 24 10 -18.0872 -8.1966
5 24 11 0.6587 -6.5454
5 24 12 19.0338 1.5310
5 24 13 1.4529 19.6316
5 24 14 26.7583 -2.1926
5 24 15 -1.9334 -16.4969
5 24 16 -44.9162 -31.0679
5 24 17 -16.2190 19.8169
5 24 18 -26.5192 -31.8621
5 24 19 12.3508 -14.0032
5 24 20 6.2084 -34.3529
5 24 21 0.4638 1.0313
5 24 22 10.6463 -2.3374
5 24 23 -18.8482 -22.7298
5 24 24 33.2427 30.3187
5 25 5 -21.6872 15.7801
5 25 6 4.5086 7.6200
5 25 7 2.8345 12.6883
5 25 8 6.6336 -7.0868
5 25 9 12.6807 2.4366
5 25 10 6.9532 26.0718
5 25 11 -6.5892 -27.0421
5 25 12 6.9039 4.1330
5 25 13 2.7339 6.8364
5 25 14 -27.5730 -13.9168
5 25 15 -12.8353 -22.3037
5 25 16 5.0657 -9.0252
5 25 17 -3.2394 -12.0627
5 25 18 -18.6627 9.2465
5 25 19 -8.4166 -6.6026
5 25 20 -9.7282 -0.5212
5 25 21 -2.1387 -4.1850
5 25 22 0.9303 13.0539
5 25 23 -15.5971 1.4576
5 25 24 -13.1753 -17.1821
5 25 25 -14.7125 19.7098
5 26 5 8.0322 -2.6939
5 26 6 -6.7477 -1.0573
5 26 7 -29.3404 5.3291
5 26 8 -22.2713 6.6618
5 26 9 4.4007 14.4969
5 26 10 -8.4948 -2.9044
5 26 11 17.2165 -2.6114
5 26 12 -5.1742 -32.4743
5 26 13 20.1868 -4.4775
5 26 14 25.8014 10.9225
5 26 15 -43.1041 -1.6229
5 26 16 4.9172 37.3826
5 26 17 -14.5510 14.2945
5 26 18 -17.2831 -24.0933
5 26 19 -6.3695 12.7614
5 26 20 8.6850 -4.1471
5 26 21 -32.0443 21.0700
5 26 22 -5.6013 -18.4215
5 26 23 17.9652 10.4872
5 26 24 -18.6767 -34.2444
5 26 25 -14.2127 -17.8424
5 26 26 19.5774 20.3896
5 27 5 9.6494 14.5187
5 27 6 16.1003 -10.2588
5 27 7 16.4434 33.9958
5 27 8 -4.6299 12.2757
5 27 9 10.4440 0.8665
5 27 10 -11.3771 18.7404
5 27 11 -15.8135 -0.5585
5 27 12 -12.3362 16.5360
5 27 13 -3.2720 -33.3257
5 27 14 5.0776 2.2919
5 27 15 -7.5487 8.9486
5 27 16 19.9296 -16.5295
5 27 17 -8.3953 30.1340
5 27 18 -4.0037 -3.9419
5 27 19 -20.7018 -17.0135
5 27 20 -3.0962 5.8572
5 27 21 11.6138 -5.4282
5 27 22 6.7637 33.2324
5 27 23 -19.9039 4.5724
5 27 24 -24.0287 2.1690
5 27 25 -4.9978 -8.7203
5 27 26 32.4788 11.6761
5 27 27 18.3780 -8.1701
5 28 5 0.9691 -11.5245
5 28 6 -10.6301 -0.1360
5 28 7 11.5887 -1.4561
5 28 8 9.1759 1.3436
5 28 9 15.2016 0.6870
5 28 10 25.2840 -21.0068
5 28 11 5.6215 -6.4495
5 28 12 22.0389 4.3167
5 28 13 -3.1037 24.7509
5 28 14 2.5417 16.6562
5 28 15 -21.9143 3.2326
5 28 16 -26.8790 -3.0150
5 28 17 0.6352 -10.1960
5 28 18 30.3051 7.9482
5 28 19 -14.8459 -8.6119
5 28 20 24.6597 -2.3141
5 28 21 -2.9316 -7.6936
5 28 22 20.5890 -1.2369
5 28 23 -13.0476 15.0581
5 28 24 -12.8486 -32.9736
5 28 25 5.1683 -14.6630
5 28 26 -3.4323 14.5396
5 29 5 -1.9672 -8.1020
5 29 6 5.8275 16.9572
5 29 7 7.7281 -0.9085
5 29 8 18.6700 -5.7924
5 29 9 3.0616 14.4472
5 29 10 -12.6310 -24.8460
5 29 11 -3.6313 -10.1124
5 29 12 -39.1093 12.8425
5 29 13 22.6678 20.7807
5 29 14 -0.7853 -38.5719
5 29 15 -20.5236 9.3950
5 29 16 -0.0391 26.7304
5 29 17 -24.1033 21.2738
5 29 18 -0.1194 -4.0856
5 29 19 6.6859 -0.1386
5 29 20 10.1022 -12.6746
5 29 21 -10.0356 -11.2502
5 29 22 1.1330 4.3944
5 29 23 -0.1478 9.0394
5 29 24 11.2385 6.4499
5 29 25 -6.5457 -7.7232
5 30 5 -22.7918 1.9936
5 30 6 -16.0902 -10.9567
5 30 7 -13.7035 -8.7200
5 30 8 -34.3686 -3.1993
5 30 9 5.5149 -3.3774
5 30 10 4.2139 -29.6035
5 30 11 14.6849 10.1044
5 30 12 8.9509 5.0791
5 30 13 -28.7927 -7.7296
5 30 14 27.9597 4.9097
5 30 15 -4.9011 -3.7896
5 30 16 4.9449 -11.8458
5 30 17 -1.2684 -11.6135
5 30 18 8.0355 1.3249
5 30 19 7.0918 37.2631
5 30 20 3.8099 -23.6534
5 30 21 12.2944 -3.1824
5 30 22 16.5583 -24.2581
5 30 23 -25.4208 -9.0591
5 31 5 -16.4844 -2.6122
5 31 6 -23.9870 -1.2168
5 31 7 12.0936 -4.3013
5 31 8 4.3130 12.6419
5 31 9 24.2017 -13.1187
5 31 10 6.6835 38.0760
5 31 11 12.8519 -27.4124
5 31 12 -17.3569 10.1347
5 31 13 7.5802 -8.1445
5 31 14 -18.7435 5.5326
5 31 15 -10.3206 14.3084
5 31 16 10.8049 -28.4767
5 31 17 14.1571 -11.3500
5 31 18 10.7899 -9.6806
5 31 19 25.9931 6.6156
5 31 20 10.8186 7.1623
5 31 21 -5.1809 -4.8459
5 31 22 13.5314 5.3498
5 32 5 1.5792 8.9994
5 32 6 20.5824 -0.5317
5 32 7 18.7865 -19.2389
5 32 8 -11.2642 8.4878
5 32 9 -2.2672 -7.4661
5 32 10 -25.8695 -29.2218
5 32 11 7.2838 3.5807
5 32 12 0.5868 18.2593
5 32 13 -25.3882 5.8165
5 32 14 -22.1702 -1.8708
5 32 15 19.7270 -4.6892
5 32 16 17.3966 5.6176
5 32 17 5.8954 -8.9978
5 32 18 -4.3968 -32.0316
5 32 19 -7.2074 22.2904
5 32 20 5.3511 3.8710
5 32 21 -11.2807 12.8494
5 33 5 -14.1506 8.3124
5 33 6 -10.4768 0.4346
5 33 7 -13.0408 6.5816
5 33 8 -5.0434 -10.0198
5 33 9 -10.3828 5.9322
5 33 10 15.7748 -13.2275
5 33 11 -4.6604 5.9137
5 33 12 -1.3194 11.7956
5 33 13 -18.5885 -5.7416
5 33 14 -0.8850 17.4748
5 33 15 -0.3044 -9.4566
5 33 16 5.3460 -14.2370
5 33 17 4.1935 2.9280
5 33 18 6.6692 17.6114
5 33 19 3.9697 10.9526
5 34 5 2.4702 5.0930
5 34 6 -4.7373 -3.6484
5 34 7 -10.6908 8.8452
5 34 8 -15.5415 9.7896
5 34 9 20.5483 1.1669
5 34 10 15.7638 -4.3698
5 34 11 4.8946 -7.9447
5 34 12 -8.9189 19.9481
5 34 13 7.4069 26.6204
5 34 14 -3.1368 -5.1427
5 34 15 -8.8341 -5.2420
5 34 16 -2.1432 -14.7773
5 34 17 13.5044 0.5367
5 35 5 -9.5333 -5.3600
5 35 6 10.7395 -0.5185
5 35 7 -11.4267 12.0414
5 35 8 -13.1647 14.2156
5 35 9 6.9569 9.1400
5 35 10 -5.1352 -13.2660
5 35 11 -1.4759 19.8699
5 35 12 -4.1297 3.5038
5 35 13 -21.5080 -1.4078
5 35 14 10.4054 -3.1415
5 35 15 16.5129 8.2030
5 36 5 -0.4378 -3.4637
5 36 6 -13.0075 4.1684
5 36 7 -4.7488 5.3286
5 36 8 4.0955 -3.3671
5 36 9 -13.1332 -7.3931
5 36 10 -0.9776 -0.5071
5 36 11 -3.1169 -1.1589
5 36 12 2.9141 4.7936
5 36 13 11.9508 -10.5329
5 37 5 4.5437 3.1160
5 37 6 -2.7604 3.4988
5 37 7 4.8165 6.8602
5 37 8 2.1495 9.1745
5 37 9 10.0637 -5.3186
5 37 10 4.9838 9.9235
5 38 5 12.7018 -1.3928
6 6 6 4.6228 -11.9428
6 7 6 -14.5302 22.1292
6 7 7 7.8550 13.4259
6 8 6 4.1799 2.4513
6 8 7 -86.7320 16.7639
6 8 8 -5.4879 38.4627
6 9 6 -16.9560 -26.8946
6 9 7 17.8228 35.1319
6 9 8 -3.0031 -24.5704
6 9 9 18.8697 9.2580
6 10 6 -3.9367 1.9516
6 10 7 0.0853 -1.2516
6 10 8 -32.9508 -19.2419
6 10 9 -22.7859 -9.0330
6 10 10 -6.2599 -46.9732
6 11 6 -29.7801 47.9602
6 11 7 -18.5261 32.2396
6 11 8 32.9617 6.4857
6 11 9 1.5887 -7.5891
6 11 10 60.5903 14.5141
6 11 11 -8.9922 -5.7007
6 12 6 50.3453 -5.2764
6 12 7 -4.2701 -3.2500
6 12 8 -22.7031 -10.4097
6 12 9 11.9427 23.8334
6 12 10 -45.7229 5.3148
6 12 11 16.3724 5.4957
6 12 12 -2.7902 6.8794
6 13 6 -8.2882 -4.7413
6 13 7 15.4802 -34.3972
6 13 8 -22.4707 -25.3802
6 13 9 29.9526 12.6075
6 13 10 5.1862 7.5723
6 13 11 11.8103 -3.1315
6 13 12 -25.9879 -36.4983
6 13 13 7.2172 -12.1171
6 14 6 1.9267 -49.1796
6 14 7 -10.2771 -9.4027
6 14 8 -11.3821 31.2245
6 14 9 -3.2702 3.1846
6 14 10 -14.2219 -3.8659
6 14 11 -4.4766 15.3772
6 14 12 8.5598 -35.6270
6 14 13 -0.8449 -29.6626
6 14 14 2.0681 29.4448
6 15 6 24.2826 -19.5554
6 15 7 -11.4005 17.9623
6 15 8 9.8382 8.9290
6 15 9 -39.2364 48.5417
6 15 10 -21.0817 10.6086
6 15 11 0.1685 1.4652
6 15 12 -20.6680 -21.8216
6 15 13 15.5906 -0.7743
6 15 14 17.5941 14.7779
6 15 15 -5.9046 -10.4531
6 16 6 -2.6935 -5.2275
6 16 7 18.1814 -5.7666
6 16 8 -18.2498 17.6139
6 16 9 -7.8692 -7.3565
6 16 10 5.6171 -17.9086
6 16 11 19.3017 -18.2353
6 16 12 21.5084 -2.9766
6 16 13 4.2758 15.8548
6 16 14 2.3359 1.9775
6 16 15 21.6711 5.5866
6 16 16 2.6923 -29.5319
6 17 6 17.2265 19.3763
6 17 7 -19.2425 6.3594
6 17 8 17.7582 13.6687
6 17 9 0.7388 -18.5117
6 17 10 18.1556 -22.1919
6 17 11 4.3975 2.5415
6 17 12 0.9764 -6.2641
6 17 13 8.5070 13.6478
6 17 14 -8.7878 29.8197
6 17 15 22.5021 -8.2882
6 17 16 22.1758 11.4003
6 17 17 15.4736 -3.5516
6 18 6 4.0634 -6.6016
6 18 7 -35.9836 -24.4529
6 18 8 -45.0440 -4.3803
6 18 9 -0.5990 -12.7114
6 18 10 1.9725 -22.5518
6 18 11 5.5668 14.8344
6 18 12 33.8919 15.7381
6 18 13 26.4502 -17.2212
6 18 14 -17.1685 -6.0662
6 18 15 -17.6471 3.9026
6 18 16 -7.5029 -16.8039
6 18 17 -12.1220 -13.9158
6 18 18 3.1898 -19.1316
6 19 6 3.8164 -12.9318
6 19 7 10.6593 3.9391
6 19 8 -8.2876 -0.5776
6 19 9 24.4899 13.7028
6 19 10 15.6711 -4.1607
6 19 11 -22.9750 7.6814
6 19 12 2.4836 -8.5032
6 19 13 8.6430 5.0809
6 19 14 1.3883 10.7530
6 19 15 28.4775 -14.8104
6 19 16 10.3662 3.7703
6 19 17 14.6716 -49.0102
6 19 18 -3.9315 20.7630
6 19 19 1.8479 4.9261
6 20 6 -5.1563 -0.5144
6 20 7 2.9084 -24.7301
6 20 8 41.0553 18.8633
6 20 9 -10.5132 -20.2575
6 20 10 -13.0354 -0.2195
6 20 11 -12.5663 19.7909
6 20 12 15.7714 -1.7323
6 20 13 -23.8979 -18.6582
6 20 14 8.7790 14.9660
6 20 15 -2.0760 2.1087
6 20 16 -17.6462 -28.8921
6 20 17 -1.2146 16.4251
6 20 18 -3.2795 -21.8309
6 20 19 -12.9295 14.1178
6 20 20 2.7282 33.7448
6 21 6 -4.0563 -2.3973
6 21 7 -3.3398 -5.1944
6 21 8 5.6578 -8.4228
6 21 9 -15.8676 37.2500
6 21 10 -6.0163 9.7310
6 21 11 -19.7856 -0.0663
6 21 12 -10.9303 -4.9954
6 21 13 -8.3649 -16.4402
6 21 14 -1.8612 -2.6018
6 21 15 3.2239 -16.0446
6 21 16 -5.1383 27.1175
6 21 17 19.7779 -13.6453
6 21 18 -33.2658 31.2245
6 21 19 2.0373 24.7579
6 21 20 5.4288 10.8191
6 21 21 -19.7146 8.3767
6 22 6 -0.6248 -8.6996
6 22 7 0.1964 -5.7694
6 22 8 23.9629 17.2052
6 22 9 -0.2567 11.0855
6 22 10 -0.3763 -7.0601
6 22 11 34.4594 14.4325
6 22 12 -20.2809 -22.5308
6 22 13 4.0859 -2.3632
6 22 14 11.5232 15.9107
6 22 15 19.8938 9.9242
6 22 16 -20.7678 -6.9438
6 22 17 3.1305 7.2433
6 22 18 -11.4485 5.9328
6 22 19 -50.3111 0.0643
6 22 20 30.1123 0.6434
6 22 21 -34.9557 4.2564
6 22 22 1.1306 -27.1190
6 23 6 17.8885 -20.7258
6 23 7 8.1211 -8.8336
6 23 8 -8.4188 3.4514
6 23 9 22.3549 27.9240
6 23 10 -0.7843 -10.1667
6 23 11 -7.2803 9.2017
6 23 12 7.0674 21.3547
6 23 13 -16.5780 -28.8184
6 23 14 47.6285 -1.7470
6 23 15 5.3744 -3.6376
6 23 16 -43.6003 -17.7587
6 23 17 39.6926 -0.4292
6 23 18 -16.3909 2.0310
6 23 19 26.6908 -21.4093
6 23 20 5.2797 -16.4444
6 23 21 17.1852 12.9528
6 23 22 -3.9614 24.6997
6 23 23 -9.6383 6.4800
6 24 6 27.0160 3.9160
6 24 7 -4.0852 4.0325
6 24 8 1.7525 -0.7195
6 24 9 -12.5016 15.5825
6 24 10 1.1665 5.5331
6 24 11 -4.6128 -38.8500
6 24 12 10.4952 -11.5252
6 24 13 -23.6737 14.8997
6 24 14 -14.2261 -18.4393
6 24 15 -9.9534 34.5196
6 24 16 -31.3401 2.7225
6 24 17 -25.4022 -37.6659
6 24 18 6.1021 -2.6765
6 24 19 2.8556 0.2665
6 24 20 -4.9569 21.6351
6 24 21 -8.5097 12.5133
6 24 22 30.1693 12.6378
6 24 23 -8.2924 6.2491
6 24 24 -1.3305 -43.9114
6 25 6 -1.0269 4.5183
6 25 7 35.1827 -26.6007
6 25 8 -10.3545 -28.3475
6 25 9 -8.5123 -4.5069
6 25 10 35.4276 19.5047
6 25 11 -7.8618 25.1331
6 25 12 -2.5953 12.5466
6 25 13 -10.1325 -24.9065
6 25 14 8.9583 -6.1855
6 25 15 -30.5066 -33.4394
6 25 16 -5.5858 -22.4838
6 25 17 -25.0108 17.8565
6 25 18 0.9936 9.0194
6 25 19 17.5729 -35.7131
6 25 20 -25.8842 12.3551
6 25 21 2.3252 6.0919
6 25 22 12.4095 -13.0724
6 25 23 -31.6801 17.8434
6 25 24 7.3896 31.8478
6 25 25 -29.7341 2.4189
6 26 6 2.5254 10.4026
6 26 7 -1.1815 13.7770
6 26 8 7.0139 18.3795
6 26 9 -2.5073 -12.8222
6 26 10 -7.0545 -3.6395
6 26 11 26.5374 14.1993
6 26 12 14.3664 0.7721
6 26 13 -4.2370 46.7916
6 26 14 3.2648 -11.0239
6 26 15 8.1487 10.1818
6 26 16 -15.6083 -15.8566
6 26 17 0.4067 25.4661
6 26 18 -13.7333 -9.0734
6 26 19 3.6374 -14.3543
6 26 20 2.4236 6.8950
6 26 21 -33.5272 -24.8508
6 26 22 13.5499 -11.5004
6 26 23 -11.2295 -8.7451
6 26 24 -13.0983 3.2106
6 26 25 -12.6051 -2.6321
6 26 26 -5.2861 30.0426
6 27 6 13.3814 -12.1318
6 27 7 30.7652 39.5852
6 27 8 12.6877 -11.3462
6 27 9 -1.0930 16.0495
6 27 10 12.2195 -18.2190
6 27 11 -21.3949 -14.5006
6 27 12 5.1377 17.2868
6 27 13 15.3336 -11.5508
6 27 14 10.1915 21.8592
6 27 15 42.2911 30.7853
6 27 16 -4.0615 4.4699
6 27 17 6.5972 23.7212
6 27 18 -20.5766 -18.9588
6 27 19 -1.2717 -2.3133
6 27 20 13.2289 17.6464
6 27 21 24.8481 -22.5916
6 27 22 -1.6550 5.6811
6 27 23 -4.0283 -19.5101
6 27 24 12.3448 5.3670
6 27 25 1.3084 14.1783
6 27 26 -15.4473 11.4460
6 27 27 30.2252 -3.6198
6 28 6 29.4493 2.4341
6 28 7 1.3069 34.4516
6 28 8 6.4915 11.3821
6 28 9 5.0951 15.0999
6 28 10 -16.3002 18.1876
6 28 11 -1.5225 -7.5946
6 28 12 37.3083 16.9854
6 28 13 -42.7530 4.3640
6 28 14 -45.0644 3.9395
6 28 15 -7.9063 -10.0700
6 28 16 -16.2962 -6.9997
6 28 17 -43.1244 -13.2944
6 28 18 9.3710 -13.9715
6 28 19 2.0329 -1.1737
6 28 20 -19.5113 -4.1364
6 28 21 38.3140 26.0145
6 28 22 -0.7594 -16.5926
6 28 23 -23.7651 -12.7703
6 28 24 -2.3199 24.7832
6 28 25 -0.3439 -23.5566
6 28 26 13.4761 -5.3934
6 29 6 14.7651 17.4759
6 29 7 7.6336 32.2116
6 29 8 -9.8908 28.8745
6 29 9 0.6287 -28.4833
6 29 10 -10.6944 4.5573
6 29 11 -17.1519 -1.9740
6 29 12 -4.6065 23.3567
6 29 13 -42.3425 9.1093
6 29 14 -10.6361 3.6487
6 29 15 8.6364 -29.3339
6 29 16 -23.4257 -13.2934
6 29 17 12.9202 -22.9700
6 29 18 10.4335 3.5453
6 29 19 -5.0137 -3.2619
6 29 20 -15.8445 16.3279
6 29 21 9.8342 7.5863
6 29 22 -13.8191 2.9471
6 29 23 2.4392 14.7135
6 29 24 -2.0347 -16.1020
6 30 6 9.5383 9.6019
6 30 7 -6.5793 -11.0685
6 30 8 7.9377 -38.2893
6 30 9 -12.7691 19.2799
6 30 10 0.4486 6.0211
6 30 11 -31.6221 28.9469
6 30 12 1.8874 8.1529
6 30 13 15.1173 -4.5675
6 30 14 -19.8517 7.4694
6 30 15 6.2561 -13.4353
6 30 16 -20.2558 12.3128
6 30 17 22.2498 5.5384
6 30 18 12.2874 10.8110
6 30 19 14.3495 10.7454
6 30 20 3.9366 -20.7647
6 30 21 18.9099 0.8558
6 30 22 -6.5536 6.2228
6 30 23 -8.3399 -18.9777
6 31 6 10.8351 -16.8960
6 31 7 -11.7096 6.1011
6 31 8 16.0549 -0.7189
6 31 9 -15.5722 21.5473
6 31 10 7.0153 -9.0800
6 31 11 16.4591 -16.4846
6 31 12 -1.6806 2.0757
6 31 13 -11.8852 1.3447
6 31 14 -26.6136 -3.2706
6 31 15 26.9732 -22.7376
6 31 16 12.8170 -4.5742
6 31 17 -1.1952 0.1624
6 31 18 3.5658 1.3394
6 31 19 -3.5346 12.0371
6 31 20 -12.5779 0.9036
6 31 21 -2.7478 2.9214
6 31 22 -19.2569 5.8304
6 32 6 8.9187 0.3691
6 32 7 15.5561 -9.6001
6 32 8 -14.6820 9.4148
6 32 9 -4.1570 -7.7080
6 32 10 -14.3516 11.4270
6 32 11 -11.8265 4.0718
6 32 12 9.6167 8.1757
6 32 13 -7.9078 8.9182
6 32 14 28.6184 2.7612
6 32 15 3.8769 -6.5436
6 32 16 -4.0648 -2.7087
6 32 17 12.7033 1.1256
6 32 18 -5.4598 -5.3923
6 32 19 9.7503 6.7762
6 32 20 -15.3469 0.1837
6 33 6 0.3367 -1.8512
6 33 7 -2.1265 -6.8585
6 33 8 15.7275 10.9356
6 33 9 -27.0840 4.7138
6 33 10 -6.0005 21.0246
6 33 11 -3.0826 14.3982
6 33 12 -5.9411 -10.7260
6 33 13 26.0370 -10.1794
6 33 14 13.5253 -2.0539
6 33 15 -14.3199 -7.5151
6 33 16 2.6282 -1.0456
6 33 17 4.7051 -14.1541
6 33 18 5.4882 0.3118
6 33 19 -3.2113 1.9685
6 34 6 4.3498 11.9199
6 34 7 15.9099 18.5646
6 34 8 2.0387 18.6556
6 34 9 -15.2830 -13.4338
6 34 10 -13.4205 -17.8483
6 34 11 9.0594 4.3925
6 34 12 3.6541 8.0546
6 34 13 -3.6707 -3.0978
6 34 14 8.3675 -17.8389
6 34 15 -0.3276 21.9447
6 34 16 -6.7206 -10.6756
6 34 17 -3.5754 7.0790
6 35 6 3.3165 -8.5530
6 35 7 3.3321 0.3176
6 35 8 0.1329 -9.2028
6 35 9 -7.6882 -7.7728
6 35 10 8.8273 6.9929
6 35 11 -5.9725 -32.1830
6 35 12 -24.6443 17.6415
6 35 13 7.2367 -13.4897
6 35 14 10.9598 25.7372
6 35 15 5.6254 -3.6298
6 36 6 1.1488 -0.6171
6 36 7 -2.1350 -4.5371
6 36 8 -10.9713 -14.8786
6 36 9 11.3949 5.2992
6 36 10 0.4936 -13.7610
6 36 11 6.7804 10.1807
6 36 12 -9.7621 -4.5682
6 37 6 16.8658 18.4026
6 37 7 -15.1592 13.1589
6 37 8 -5.1384 8.8010
6 37 9 8.5243 -3.2765
7 7 7 107.3500 111.1209
7 8 7 -9.0738 -20.9322
7 8 8 8.7261 -13.8208
7 9 7 -19.3376 23.3137
7 9 8 21.9107 -21.0720
7 9 9 1.9329 2.0018
7 10 7 13.7576 -0.2610
7 10 8 -25.5307 48.1073
7 10 9 -15.5938 5.2891
7 10 10 22.3149 -18.4655
7 11 7 -3.9704 -1.9306
7 11 8 12.5642 11.2732
7 11 9 22.5621 27.7696
7 11 10 -6.5701 -9.4478
7 11 11 -26.3757 -26.6336
7 12 7 -4.5685 -2.5634
7 12 8 -34.9604 12.8615
7 12 9 -22.2681 -5.8499
7 12 10 -2.5331 -4.3275
7 12 11 0.7361 -10.0083
7 12 12 -6.3552 19.3970
7 13 7 7.2545 2.0234
7 13 8 -2.4436 21.0563
7 13 9 13.5829 -15.1282
7 13 10 -22.9329 0.7532
7 13 11 -6.0666 11.4628
7 13 12 13.7850 -20.5291
7 13 13 6.3957 4.1278
7 14 7 -29.9830 -4.6054
7 14 8 21.5322 -19.9318
7 14 9 41.5077 -3.4020
7 14 10 -11.8957 -13.6141
7 14 11 5.3004 9.1094
7 14 12 0.3652 -1.7176
7 14 13 2.8925 2.9533
7 14 14 12.7308 5.0195
7 15 7 -17.1524 -10.2900
7 15 8 -12.4876 10.8412
7 15 9 -12.0938 8.1367
7 15 10 3.9730 -18.2336
7 15 11 -14.3458 8.9887
7 15 12 13.2023 9.6981
7 15 13 14.0399 -13.6507
7 15 14 -5.9020 -18.4553
7 15 15 -22.9183 -26.4791
7 16 7 1.4077 32.2057
7 16 8 10.8276 4.4277
7 16 9 6.8076 -21.7848
7 16 10 -28.2240 -9.7476
7 16 11 32.2796 -28.4051
7 16 12 1.4859 16.0151
7 16 13 -9.5747 -7.5592
7 16 14 5.1188 9.3893
7 16 15 -3.0934 -27.6995
7 16 16 2.3519 8.6301
7 17 7 -24.4010 23.8003
7 17 8 0.0275 -50.8742
7 17 9 -11.8964 -5.7683
7 17 10 -9.6689 34.3829
7 17 11 10.7670 -11.0635
7 17 12 -11.4857 15.0184
7 17 13 11.0003 3.2026
7 17 14 17.4929 -1.9634
7 17 15 5.4683 -14.0557
7 17 16 -21.5453 -5.6771
7 17 17 -34.4095 -37.9335
7 18 7 4.8636 0.1104
7 18 8 -9.5968 4.0345
7 18 9 -6.1169 3.2991
7 18 10 -3.1452 37.7634
7 18 11 -12.4427 13.1825
7 18 12 7.1351 -10.0297
7 18 13 -14.7861 16.4670
7 18 14 -2.6069 -8.7833
7 18 15 -8.5334 -7.3899
7 18 16 -2.4731 -13.8716
7 18 17 -24.3583 19.5150
7 18 18 -11.2430 11.7921
7 19 7 2.9511 5.7847
7 19 8 -25.1761 0.2784
7 19 9 -4.7669 10.0052
7 19 10 1.4864 -1.2421
7 19 11 12.4530 16.1672
7 19 12 7.4412 -24.6749
7 19 13 -9.1887 -8.3940
7 19 14 5.4878 0.2867
7 19 15 -21.9552 1.7359
7 19 16 -40.9245 45.3117
7 19 17 8.7650 44.1772
7 19 18 -10.6222 9.1932
7 19 19 15.1502 12.8168
7 20 7 1.2579 -22.9426
7 20 8 2.8297 13.7320
7 20 9 -5.4189 10.5045
7 20 10 3.4936 -12.7659
7 20 11 -38.4436 10.6582
7 20 12 13.0103 2.5494
7 20 13 18.9092 -12.5509
7 20 14 -10.2613 -15.3227
7 20 15 3.4613 -23.3788
7 20 16 -13.2367 -4.3054
7 20 17 -11.7450 -17.8821
7 20 18 10.1038 9.1194
7 20 19 20.9893 2.8138
7 20 20 -3.0859 -5.5086
7 21 7 -4.5143 3.5415
7 21 8 6.0662 -28.5354
7 21 9 -13.7160 3.7812
7 21 10 4.5384 -19.0649
7 21 11 26.4501 14.1625
7 21 12 -4.1174 16.4986
7 21 13 5.5397 -16.9631
7 21 14 -16.8538 5.1851
7 21 15 -2.5092 -6.5272
7 21 16 -2.5414 1.0311
7 21 17 14.1631 -13.5280
7 21 18 -30.7706 0.6934
7 21 19 10.1309 -34.3015
7 21 20 2.2991 -28.2465
7 21 21 21.8653 21.0356
7 22 7 15.1184 -1.1989
7 22 8 1.4206 6.4112
7 22 9 -33.3891 17.0738
7 22 10 -4.9676 -16.8465
7 22 11 2.0608 4.0960
7 22 12 7.4768 3.0509
7 22 13 24.9845 -27.7851
7 22 14 -18.4926 -30.6686
7 22 15 3.4400 17.9962
7 22 16 -22.9181 -12.4011
7 22 17 -23.9989 -16.5137
7 22 18 23.3499 -5.7244
7 22 19 -19.1944 19.4637
7 22 20 11.1659 -37.7519
7 22 21 -2.9562 0.4948
7 22 22 -8.3693 0.3067
7 23 7 14.7917 8.8954
7 23 8 7.7083 9.9432
7 23 9 -5.2545 -2.8819
7 23 10 -8.2226 -27.8260
7 23 11 7.8859 -13.6052
7 23 12 -19.3828 -1.7194
7 23 13 -6.6003 -18.0335
7 23 14 2.9363 3.5001
7 23 15 -25.9746 8.6865
7 23 16 -9.7133 18.2709
7 23 17 -23.5375 -16.6746
7 23 18 2.0481 -28.2310
7 23 19 -15.0078 4.2169
7 23 20 8.9674 2.8152
7 23 21 27.1317 20.8416
7 23 22 17.1113 -55.9427
7 23 23 -3.5684 -1.9718
7 24 7 2.1364 -19.0646
7 24 8 9.6387 11.9700
7 24 9 -1.8354 -22.5050
7 24 10 15.4122 -15.5496
7 24 11 -8.8031 -3.3318
7 24 12 -7.8285 0.3010
7 24 13 13.0514 7.5428
7 24 14 -7.7201 23.7843
7 24 15 20.6504 -25.5641
7 24 16 16.9850 -12.0609
7 24 17 -14.4515 -14.7462
7 24 18 22.2138 -1.4875
7 24 19 13.6652 2.7085
7 24 20 18.3481 17.3657
7 24 21 -37.6088 -1.7949
7 24 22 8.5030 2.8487
7 24 23 32.2333 23.4487
7 24 24 -20.1968 15.7122
7 25 7 14.2015 -17.2659
7 25 8 -2.1226 9.1576
7 25 9 3.6748 3.4382
7 25 10 3.8889 5.9318
7 25 11 32.8431 -17.0827
7 25 12 13.4392 17.4025
7 25 13 0.9838 18.5590
7 25 14 -6.8769 34.9189
7 25 15 7.7314 19.5398
7 25 16 18.0096 26.1923
7 25 17 20.0606 29.7120
7 25 18 -44.3038 -22.4434
7 25 19 19.4991 -7.2436
7 25 20 -12.8654 -13.3607
7 25 21 -24.3802 14.3154
7 25 22 -9.5680 -30.6505
7 25 23 4.4451 -15.1916
7 25 24 -9.1273 -14.1478
7 25 25 7.4303 8.8750
7 26 7 19.1434 -3.4780
7 26 8 29.5614 12.0071
7 26 9 -23.1926 -0.2992
7 26 10 7.2481 17.6157
7 26 11 9.9666 21.6636
7 26 12 -44.6764 -18.9843
7 26 13 33.4580 24.0267
7 26 14 -43.4527 -25.8408
7 26 15 -37.7127 20.2690
7 26 16 -12.7319 -1.3622
7 26 17 1.7449 2.4778
7 26 18 -3.5195 -15.2329
7 26 19 16.0494 -28.9860
7 26 20 -13.0183 24.0348
7 26 21 31.6674 5.3838
7 26 22 19.8842 44.0064
7 26 23 -36.1423 30.1790
7 26 24 6.8906 -5.3241
7 26 25 74.6465 125.7453
7 26 26 -2.4210 2.4244
7 27 7 -13.2450 -13.8412
7 27 8 19.4783 2.3217
7 27 9 -3.6731 29.6010
7 27 10 -4.1274 2.3656
7 27 11 18.3255 18.2728
7 27 12 13.9454 3.3244
7 27 13 11.5642 -4.4151
7 27 14 -29.6026 -5.3406
7 27 15 -20.9133 23.5998
7 27 16 -11.0197 10.8981
7 27 17 -27.8469 -52.0941
7 27 18 21.6412 21.8865
7 27 19 -18.0081 10.2880
7 27 20 24.5373 -0.5596
7 27 21 2.2107 -22.3522
7 27 22 -4.4247 4.4554
7 27 23 -8.0492 -0.3253
7 27 24 -0.5300 -140.5144
7 27 25 -8.7294 2.3761
7 27 26 -20.5954 16.9554
7 28 7 3.5143 -1.1997
7 28 8 -13.3750 -24.5963
7 28 9 14.1690 21.9959
7 28 10 11.8491 10.3779
7 28 11 4.1033 -0.5954
7 28 12 7.8147 4.2671
7 28 13 5.2413 -25.4923
7 28 14 -5.3032 9.1042
7 28 15 -0.6368 -10.4950
7 28 16 -4.2396 -6.1343
7 28 17 29.7004 -6.5715
7 28 18 -3.3883 35.3272
7 28 19 -3.6396 -9.9072
7 28 20 -3.2882 2.1621
7 28 21 -0.6960 -23.3574
7 28 22 6.4103 -5.4188
7 28 23 -17.0155 -16.8632
7 28 24 -27.5301 -1.9976
7 28 25 12.0937 -14.5564
7 29 7 13.2212 -22.7541
7 29 8 -20.2722 4.1261
7 29 9 8.0789 1.2633
7 29 10 5.6282 -37.7774
7 29 11 -16.4731 39.5556
7 29 12 -16.5336 35.8705
7 29 13 -27.8820 -22.5878
7 29 14 -10.7329 28.7062
7 29 15 -1.7935 7.0261
7 29 16 -8.3254 -16.7586
7 29 17 21.5758 -24.1113
7 29 18 -24.0573 5.6208
7 29 19 -14.4834 6.6372
7 29 20 -17.2683 -5.4801
7 29 21 -5.4031 -9.6820
7 29 22 -11.1785 -1.7217
7 29 23 -24.7088 -17.5608
7 29 24 11.6230 2.6528
7 30 7 -11.9789 1.2720
7 30 8 14.9594 4.9296
7 30 9 5.1936 1.6211
7 30 10 -6.7331 3.9820
7 30 11 35.1013 19.6690
7 30 12 -21.0183 -2.1280
7 30 13 -25.0747 -10.8392
7 30 14 8.7660 -29.4671
7 30 15 7.2014 11.2930
7 30 16 2.3086 -29.3174
7 30 17 -22.6492 -10.5426
7 30 18 -0.3056 13.8290
7 30 19 -11.7637 -16.1563
7 30 20 15.3622 -23.0640
7 30 21 -11.5798 23.1806
7 30 22 -8.9808 23.4707
7 30 23 16.8883 3.1771
7 31 7 2.5464 10.7470
7 31 8 -10.0159 -8.7201
7 31 9 2.1660 -4.2317
7 31 10 -26.6559 -8.7209
7 31 11 11.3950 30.3456
7 31 12 2.3839 -17.7069
7 31 13 -6.5799 -6.0753
7 31 14 -3.5061 -1.7432
7 31 15 -25.2905 7.0271
7 31 16 27.3089 -13.9264
7 31 17 15.7793 10.7252
7 31 18 -6.1807 11.2007
7 31 19 -7.6523 17.9428
7 31 20 22.6785 -4.3774
7 31 21 2.0217 3.8071
7 31 22 -3.1287 -8.4167
7 32 7 4.7209 22.0891
7 32 8 27.8702 38.6671
7 32 9 -2.6575 4.2901
7 32 10 15.6521 -1.1800
7 32 11 -32.9349 -1.1358
7 32 12 -9.4885 -9.6173
7 32 13 -2.8535 -20.2876
7 32 14 -16.3176 19.7063
7 32 15 -0.3350 4.2896
7 32 16 8.4025 -4.8754
7 32 17 8.3702 -5.7397
7 32 18 4.0430 13.7480
7 32 19 11.9419 24.7571
7 32 20 -13.7010 3.2843
7 33 7 15.6551 -22.3876
7 33 8 22.6591 2.6236
7 33 9 -11.5777 17.1144
7 33 10 8.0283 -17.5340
7 33 11 -8.2664 10.0714
7 33 12 -7.1307 6.3007
7 33 13 0.1224 18.4911
7 33 14 14.2857 22.0395
7 33 15 9.6399 1.2605
7 33 16 -2.7252 -16.0317
7 33 17 -5.7340 -7.3770
7 33 18 -5.4528 3.5887
7 33 19 -20.1729 -25.2004
7 34 7 1.9012 4.0623
7 34 8 -5.4513 -30.4161
7 34 9 -6.7195 -8.9231
7 34 10 -16.9940 -15.7873
7 34 11 19.2527 5.3275
7 34 12 -16.2025 -12.4095
7 34 13 -20.5855 0.1038
7 34 14 -10.3285 5.3800
7 34 15 -19.2374 -12.1417
7 34 16 -10.8157 -17.4660
7 34 17 4.1528 19.4216
7 35 7 -5.1526 -4.7847
7 35 8 -2.1012 -0.9322
7 35 9 -20.7186 -2.6737
7 35 10 -9.4201 -9.5260
7 35 11 -14.6502 0.9026
7 35 12 22.9934 -2.8080
7 35 13 -0.8153 -2.6545
7 35 14 -5.3695 -9.6307
7 35 15 6.7244 8.2103
7 36 7 3.9745 -4.5298
7 36 8 -1.7138 -3.8864
7 36 9 4.7762 -5.5297
7 36 10 6.3492 -10.0603
7 36 11 -4.3619 -6.7068
7 36 12 -5.6804 3.1993
7 37 7 11.7073 -3.7425
7 37 8 -9.3368 12.7086
7 37 9 2.2878 -18.2353
8 8 8 -39.8866 -4.0987
8 9 8 73.0185 62.1223
8 9 9 -1.8819 -24.1824
8 10 8 -2.1489 -59.4027
8 10 9 -10.2059 -32.0965
8 10 10 0.8205 -1.5473
8 11 8 -20.9762 25.6162
8 11 9 -7.2376 -2.7698
8 11 10 -23.0433 -13.4686
8 11 11 -2.7327 -11.3120
8 12 8 16.0928 -5.7451
8 12 9 5.2620 -3.8497
8 12 10 39.3411 23.4250
8 12 11 -33.5486 -19.7887
8 12 12 24.0785 -0.9880
8 13 8 -16.7024 -13.2514
8 13 9 -38.5759 10.9777
8 13 10 8.3805 27.1713
8 13 11 12.7247 2.7087
8 13 12 -25.6247 1.3178
8 13 13 -2.4977 29.0661
8 14 8 2.7158 53.5718
8 14 9 -4.6439 5.0907
8 14 10 -4.3713 13.9770
8 14 11 -12.9846 -12.6317
8 14 12 -4.1165 -25.2179
8 14 13 6.8534 -0.3311
8 14 14 3.2335 7.6556
8 15 8 28.4191 -26.7724
8 15 9 -14.1680 5.2164
8 15 10 7.8243 18.8656
8 15 11 -3.0194 -8.7317
8 15 12 10.6532 -3.5997
8 15 13 12.0503 12.8330
8 15 14 -10.1197 0.1655
8 15 15 -3.5882 8.3046
8 16 8 7.1614 -1.4196
8 16 9 11.3949 -7.2074
8 16 10 -15.1045 -11.5213
8 16 11 -1.5255 -11.4005
8 16 12 -11.9033 28.5748
8 16 13 -8.7162 24.0472
8 16 14 -31.0044 -60.2778
8 16 15 4.3720 26.3736
8 16 16 -26.1136 7.7728
8 17 8 -14.9819 -11.7186
8 17 9 39.8377 6.6432
8 17 10 -6.8064 8.9064
8 17 11 -20.7081 -10.4474
8 17 12 6.7459 -0.9330
8 17 13 5.0281 -12.4841
8 17 14 9.9850 -1.3652
8 17 15 -4.9857 -3.9787
8 17 16 -16.6065 -8.7403
8 17 17 -1.2715 15.4438
8 18 8 4.3683 -1.7904
8 18 9 -10.8024 -11.3113
8 18 10 12.7479 18.3027
8 18 11 -0.0546 17.2926
8 18 12 -18.5622 7.9653
8 18 13 -7.4356 -11.6901
8 18 14 12.2460 4.9539
8 18 15 11.2721 26.0666
8 18 16 10.6569 6.1079
8 18 17 -10.2424 24.5826
8 18 18 8.4157 6.8416
8 19 8 -15.7313 20.0246
8 19 9 12.7320 15.4125
8 19 10 -7.8674 2.3343
8 19 11 -7.8051 9.9497
8 19 12 -4.2823 8.7731
8 19 13 -9.3064 -1.5370
8 19 14 -3.8106 3.4918
8 19 15 -7.4515 9.8854
8 19 16 2.8394 1.6664
8 19 17 -32.6536 18.6806
8 19 18 -10.7714 -21.7740
8 19 19 1.2744 -18.6525
8 20 8 -9.3017 1.5487
8 20 9 7.1733 -1.6797
8 20 10 -9.6852 2.8742
8 20 11 -20.0235 -9.4579
8 20 12 8.9507 -6.8518
8 20 13 -13.3470 -4.1900
8 20 14 -6.5595 14.8276
8 20 15 -14.9642 3.6411
8 20 16 2.4371 -1.1545
8 20 17 -7.4576 14.6601
8 20 18 -23.3775 -23.0589
8 20 19 -47.3911 -25.3345
8 20 20 -27.8088 6.6515
8 21 8 -6.2497 -6.3692
8 21 9 21.9370 0.0100
8 21 10 -16.4703 -11.6148
8 21 11 -10.6552 -14.9954
8 21 12 10.5384 -18.6478
8 21 13 -15.5696 7.0958
8 21 14 4.2211 6.5373
8 21 15 23.2439 -2.7480
8 21 16 -29.1084 17.6214
8 21 17 -25.0900 12.1484
8 21 18 -29.0204 -21.4049
8 21 19 -4.7535 14.8879
8 21 20 -1.3434 -15.9389
8 21 21 2.2363 -0.6891
8 22 8 -5.0333 -20.0866
8 22 9 -6.2963 -18.6535
8 22 10 23.8678 12.2650
8 22 11 8.0623 -0.5559
8 22 12 -38.2040 -3.8295
8 22 13 5.2563 9.9699
8 22 14 -13.6673 -11.0438
8 22 15 -14.6936 5.1996
8 22 16 22.9855 4.5710
8 22 17 5.3530 -6.8675
8 22 18 -3.6501 36.0241
8 22 19 30.3924 -22.6791
8 22 20 13.5034 7.5235
8 22 21 7.9357 -5.5620
8 22 22 0.8262 3.5657
8 23 8 25.9444 -18.3888
8 23 9 -14.8909 3.1785
8 23 10 -32.9929 19.6627
8 23 11 4.7619 -23.1124
8 23 12 -3.9629 10.3550
8 23 13 7.5118 -5.9355
8 23 14 -17.0721 -41.7816
8 23 15 -31.3716 11.0367
8 23 16 18.2949 -7.4531
8 23 17 10.2426 -17.9746
8 23 18 43.3991 -13.3949
8 23 19 14.4484 -59.8362
8 23 20 -16.5109 -12.5842
8 23 21 3.5705 3.3101
8 23 22 -19.7090 -14.4247
8 23 23 0.4484 -16.3131
8 24 8 -2.7593 3.2907
8 24 9 0.4689 -8.9502
8 24 10 40.3903 14.5864
8 24 11 -2.3976 5.5198
8 24 12 -14.4499 2.7523
8 24 13 13.7449 -5.9496
8 24 14 -9.3651 -23.5166
8 24 15 26.8681 -14.0008
8 24 16 -3.9679 1.2024
8 24 17 -13.1460 24.1088
8 24 18 19.2957 2.2167
8 24 19 21.6651 8.9062
8 24 20 38.5859 15.2212
8 24 21 22.9248 -21.9455
8 24 22 -27.5474 5.3324
8 24 23 -0.2815 -25.9799
8 24 24 -33.9660 -0.9262
8 25 8 3.6360 9.5145
8 25 9 8.8045 -11.7586
8 25 10 -8.6157 -8.4611
8 25 11 9.2502 -6.6526
8 25 12 9.9353 5.9152
8 25 13 -25.2132 23.2548
8 25 14 10.1576 -2.4098
8 25 15 2.2455 -20.8604
8 25 16 -5.6260 -10.8375
8 25 17 -8.3692 27.6585
8 25 18 25.4982 33.7209
8 25 19 -17.3123 16.5832
8 25 20 -17.9620 -52.8220
8 25 21 14.6400 -18.8406
8 25 22 0.6140 55.3864
8 25 23 1.4651 -7.9541
8 25 24 -17.4833 -17.7326
8 25 25 -0.3090 42.0310
8 26 8 -3.1632 28.1339
8 26 9 1.9000 -13.9139
8 26 10 5.5888 13.2030
8 26 11 -36.1076 -2.7564
8 26 12 -28.1802 -6.9291
8 26 13 -2.5421 7.2170
8 26 14 27.9280 16.5219
8 26 15 -10.0388 -25.1537
8 26 16 -27.6646 21.7025
8 26 17 5.2497 -3.1232
8 26 18 17.1891 -17.6133
8 26 19 -15.5094 -5.7217
8 26 20 -2.3857 1.1142
8 26 21 11.2991 -2.8573
8 26 22 -4.9780 14.3855
8 26 23 -9.7001 -6.7067
8 26 24 -0.7015 -2.2494
8 26 25 -8.3877 -17.3093
8 26 26 0.5735 -4.3102
8 27 8 23.0041 -21.4368
8 27 9 18.8060 -16.8954
8 27 10 31.5642 5.7998
8 27 11 -16.8100 -8.0812
8 27 12 -17.2401 1.7396
8 27 13 -46.8283 27.9436
8 27 14 -11.9717 -23.4443
8 27 15 -15.6403 -13.6315
8 27 16 -13.1386 30.9986
8 27 17 16.8044 9.8659
8 27 18 -12.3088 -31.6072
8 27 19 -22.4727 12.4555
8 27 20 44.5956 -25.3542
8 27 21 -22.2972 4.5067
8 27 22 16.7520 -5.5006
8 27 23 6.8228 14.4973
8 27 24 -23.1587 39.8096
8 27 25 2.1790 -8.1447
8 27 26 15.3253 -4.1540
8 28 8 -9.4176 4.0416
8 28 9 3.7035 -15.6588
8 28 10 -4.7925 12.7892
8 28 11 26.7902 -12.8038
8 28 12 -7.9564 0.1142
8 28 13 -15.9248 4.0600
8 28 14 -10.7184 -27.0473
8 28 15 -26.4929 -14.2588
8 28 16 13.9389 33.0861
8 28 17 38.4869 -14.2728
8 28 18 -20.5593 16.9691
8 28 19 -14.0307 13.7960
8 28 20 -11.0819 13.5871
8 28 21 -8.2806 1.8832
8 28 22 -31.4500 4.5730
8 28 23 23.0834 -28.6422
8 28 24 8.8140 -12.2365
8 28 25 1.3161 -17.6150
8 29 8 -7.9049 -2.8361
8 29 9 8.6216 29.4560
8 29 10 15.6337 -0.3433
8 29 11 -0.8059 -15.6048
8 29 12 28.3762 -3.6207
8 29 13 12.5345 -30.1276
8 29 14 16.4036 -22.9029
8 29 15 -10.1964 -3.5770
8 29 16 17.6691 19.5273
8 29 17 0.4512 -28.1941
8 29 18 -2.5400 0.6606
8 29 19 -33.2429 -19.1255
8 29 20 24.4474 -31.3857
8 29 21 24.2862 41.7359
8 29 22 -27.8573 -46.2269
8 29 23 14.6659 -1.7972
8 29 24 10.8653 -9.2839
8 30 8 5.7602 -32.4260
8 30 9 27.0429 -13.4060
8 30 10 -13.6394 -15.0135
8 30 11 -10.9888 -17.0899
8 30 12 -30.1988 0.6383
8 30 13 -17.1182 12.3517
8 30 14 23.9755 3.3078
8 30 15 1.1516 0.8551
8 30 16 39.4391 -14.9746
8 30 17 1.6622 6.8173
8 30 18 -21.4713 -5.1171
8 30 19 -8.8387 -2.1493
8 30 20 -1.6776 6.2265
8 30 21 17.5906 11.4896
8 30 22 -13.1889 2.7779
8 30 23 3.2538 -4.0332
8 31 8 2.0828 -11.9933
8 31 9 12.7189 13.3131
8 31 10 -7.4189 20.7708
8 31 11 -30.6981 7.2246
8 31 12 8.9893 -24.9139
8 31 13 -13.2191 19.9686
8 31 14 5.6253 11.0565
8 31 15 -14.3254 22.5340
8 31 16 -6.2059 -30.7913
8 31 17 9.0478 4.7241
8 31 18 -14.0429 -4.6321
8 31 19 -2.2803 14.3310
8 31 20 -2.4693 -13.3249
8 31 21 -18.1748 -16.0531
8 32 8 6.7852 0.7350
8 32 9 -3.0010 -26.4564
8 32 10 -20.1975 -23.1202
8 32 11 -17.5366 21.0615
8 32 12 -26.0237 23.5481
8 32 13 -2.5796 -5.5790
8 32 14 8.6796 21.2895
8 32 15 13.8127 18.4425
8 32 16 9.8205 -12.2098
8 32 17 1.3414 2.5485
8 32 18 -7.9336 -1.4910
8 32 19 -4.9758 -6.6378
8 32 20 23.3482 18.5346
8 33 8 -7.2446 -6.2989
8 33 9 -4.4263 -33.5699
8 33 10 -23.1115 -40.2354
8 33 11 -0.9849 -20.4523
8 33 12 -12.4817 25.6091
8 33 13 16.9226 12.5618
8 33 14 -5.4385 -7.0395
8 33 15 -2.2941 3.9238
8 33 16 4.0691 0.3002
8 33 17 -6.0339 -3.1927
8 33 18 -12.6946 1.8517
8 34 8 4.7640 8.7137
8 34 9 16.9063 -9.1394
8 34 10 -13.1034 6.8191
8 34 11 -5.5833 -7.4700
8 34 12 -6.4348 21.5617
8 34 13 -2.5281 14.5872
8 34 14 -1.9221 -13.9573
8 34 15 -4.4665 4.4950
8 34 16 9.2242 -1.9973
8 35 8 -8.0189 -0.6517
8 35 9 -6.1479 -3.5051
8 35 10 13.3113 -5.7500
8 35 11 -1.1940 5.6126
8 35 12 8.3660 -1.7457
8 35 13 7.3731 0.2241
8 35 14 -24.8440 3.0012
8 36 8 -7.1693 -1.5765
8 36 9 20.0222 -15.8372
8 36 10 -1.7587 17.2031
8 36 11 -9.2763 -29.3463
8 37 8 -22.1381 -19.8773
9 9 9 -19.4039 30.1262
9 10 9 24.0710 1.5422
9 10 10 28.8064 28.6848
9 11 9 -16.4492 -13.2256
9 11 10 -5.4053 18.3960
9 11 11 14.6801 -15.8315
9 12 9 1.0550 -9.7616
9 12 10 -4.4086 -11.1155
9 12 11 0.1394 31.9366
9 12 12 -11.7083 -3.7096
9 13 9 19.7362 -16.7284
9 13 10 7.2232 -10.7653
9 13 11 44.0930 39.4801
9 13 12 -13.7280 -0.6098
9 13 13 -6.6761 2.8350
9 14 9 7.1959 -2.9845
9 14 10 27.5875 33.2510
9 14 11 -16.8061 -0.9441
9 14 12 7.2484 -1.2332
9 14 13 -7.2590 -35.4365
9 14 14 4.9833 11.7069
9 15 9 -1.7930 6.5488
9 15 10 -14.4447 -21.2291
9 15 11 19.7106 2.7567
9 15 12 -18.5633 -4.9085
9 15 13 -31.3818 25.3389
9 15 14 33.1291 -2.8770
9 15 15 -6.8425 -10.6348
9 16 9 0.2401 21.6686
9 16 10 -19.1240 34.6113
9 16 11 -1.8475 21.8899
9 16 12 -8.6715 24.9018
9 16 13 -23.9656 17.6817
9 16 14 -14.2634 -16.8466
9 16 15 45.0329 15.3442
9 16 16 -2.1131 3.4937
9 17 9 -6.6334 -2.3733
9 17 10 8.2048 -21.7509
9 17 11 -39.6957 12.2491
9 17 12 -2.1398 -9.8032
9 17 13 5.4127 -10.7442
9 17 14 -5.9952 -12.2674
9 17 15 -40.8704 5.7109
9 17 16 -14.6482 9.7810
9 17 17 8.1132 -21.7829
9 18 9 2.2569 -3.4621
9 18 10 -2.9181 0.3340
9 18 11 22.1507 -13.1984
9 18 12 5.0621 4.8686
9 18 13 -14.4862 3.6925
9 18 14 -5.4804 2.8260
9 18 15 21.8422 -20.6209
9 18 16 16.5806 6.6079
9 18 17 -2.7870 12.6084
9 18 18 -11.7679 -8.4723
9 19 9 20.3401 21.1062
9 19 10 5.2995 38.1531
9 19 11 3.7989 14.2428
9 19 12 6.9803 -6.4970
9 19 13 -7.4770 20.9676
9 19 14 -0.0524 16.2225
9 19 15 -0.6385 -1.7753
9 19 16 -24.2699 10.6431
9 19 17 16.6402 -20.4628
9 19 18 -12.2818 -1.9145
9 19 19 7.4197 -19.6465
9 20 9 -5.3443 -15.9165
9 20 10 -20.7750 11.1248
9 20 11 -28.0559 0.9864
9 20 12 -3.4676 -9.1731
9 20 13 6.8480 -14.2135
9 20 14 4.4294 -1.5275
9 20 15 -15.4193 -3.8582
9 20 16 -7.9251 1.8543
9 20 17 -16.4939 7.2159
9 20 18 4.6189 12.8158
9 20 19 -25.8711 -35.0695
9 20 20 2.0385 0.7703
9 21 9 -1.7075 4.1007
9 21 10 -1.9238 0.6136
9 21 11 9.2774 6.5717
9 21 12 13.9975 -16.7579
9 21 13 35.7365 16.2100
9 21 14 -0.4466 -10.2600
9 21 15 -38.5872 -18.4668
9 21 16 18.1116 -19.7475
9 21 17 13.4630 12.9275
9 21 18 13.6545 -11.4271
9 21 19 -5.5410 7.9252
9 21 20 -12.6495 -14.3442
9 21 21 2.8733 -16.8842
9 22 9 21.4228 -4.8127
9 22 10 -14.9042 10.3994
9 22 11 4.2981 4.9712
9 22 12 -3.0845 3.2136
9 22 13 -9.6069 7.1041
9 22 14 10.1190 18.2318
9 22 15 21.1300 19.8603
9 22 16 -0.7077 -14.9654
9 22 17 -4.2347 39.3322
9 22 18 -6.2865 4.9492
9 22 19 32.2392 -12.5874
9 22 20 15.9864 -2.5219
9 22 21 -16.0967 -12.1559
9 22 22 -37.7030 -40.3589
9 23 9 7.1100 -3.9849
9 23 10 24.5633 3.5791
9 23 11 -30.1513 -16.2988
9 23 12 -8.8792 16.4360
9 23 13 -19.3673 -7.9506
9 23 14 -14.8119 -19.7328
9 23 15 -40.1108 -4.5678
9 23 16 32.7850 3.0024
9 23 17 -30.7904 -16.4748
9 23 18 7.2228 -21.8041
9 23 19 2.3738 18.0805
9 23 20 -5.7209 -0.5361
9 23 21 -1.9728 36.5972
9 23 22 43.3740 19.3582
9 23 23 -12.5700 5.2980
9 24 9 -3.8072 8.5649
9 24 10 1.4949 25.7914
9 24 11 -8.9194 -21.9615
9 24 12 -13.2173 -8.3625
9 24 13 -3.7647 -4.9615
9 24 14 -10.2260 -17.2436
9 24 15 -23.5917 3.0591
9 24 16 -10.7364 23.3386
9 24 17 -2.0159 -18.5464
9 24 18 16.7149 -35.4063
9 24 19 0.2574 1.1376
9 24 20 -6.0300 -28.7951
9 24 21 21.2391 -13.5397
9 24 22 1.5127 15.3877
9 24 23 -22.7174 -27.0936
9 24 24 10.1945 6.8394
9 25 9 2.0945 1.4171
9 25 10 12.1403 5.9529
9 25 11 -21.7987 29.6909
9 25 12 6.0613 -4.7872
9 25 13 4.9210 11.3737
9 25 14 -37.7694 -9.6929
9 25 15 -2.9752 14.0254
9 25 16 28.4178 -22.9598
9 25 17 -27.6041 -5.8302
9 25 18 8.1785 -9.6540
9 25 19 37.1696 25.8359
9 25 20 44.6407 -7.7801
9 25 21 29.4396 13.0844
9 25 22 -13.8884 20.4298
9 25 23 -2.8131 -3.5439
9 25 24 -2.0883 -17.8425
9 25 25 -4.9610 4.7365
9 26 9 22.3081 -5.0346
9 26 10 6.9030 16.8680
9 26 11 -10.7992 11.0674
9 26 12 29.8701 -8.4049
9 26 13 3.6316 -7.2604
9 26 14 50.7999 -15.8236
9 26 15 30.4951 22.0721
9 26 16 -12.5279 -13.8452
9 26 17 36.4315 -20.1362
9 26 18 -0.5292 -8.4081
9 26 19 21.3632 -73.7934
9 26 20 -19.4258 12.3856
9 26 21 -21.0434 -1.9173
9 26 22 7.9042 45.0326
9 26 23 -1.0068 -28.8433
9 26 24 -7.8050 3.8064
9 26 25 1.9290 27.4896
9 26 26 9.1553 6.9124
9 27 9 17.1551 8.2934
9 27 10 9.7570 17.5408
9 27 11 -5.5596 -14.1477
9 27 12 1.9103 0.6291
9 27 13 -5.7086 5.7749
9 27 14 -19.5511 -45.5163
9 27 15 35.2774 -15.0093
9 27 16 -13.5348 -26.8332
9 27 17 -27.0960 17.0621
9 27 18 19.2518 23.8330
9 27 19 1.8315 7.3576
9 27 20 -7.9204 -8.2313
9 27 21 -11.0406 17.9714
9 27 22 -7.5320 -1.1879
9 27 23 11.9972 15.7952
9 27 24 13.0483 -0.5773
9 27 25 0.6329 -11.4833
9 27 26 -4.5592 -23.6590
9 28 9 4.2272 -0.4491
9 28 10 -51.7632 -18.7964
9 28 11 10.9892 -33.1685
9 28 12 -54.1917 -36.6822
9 28 13 14.5009 5.0261
9 28 14 -17.8707 -22.4589
9 28 15 38.8281 -24.0835
9 28 16 -4.8251 -8.2639
9 28 17 -21.6832 0.9483
9 28 18 -32.5298 21.3610
9 28 19 -26.3233 -7.1759
9 28 20 -9.4472 -28.0500
9 28 21 -12.7679 -10.9317
9 28 22 -5.2899 0.3750
9 28 23 24.5191 -5.5113
9 28 24 13.2704 11.9060
9 28 25 -8.1548 3.6090
9 29 9 3.4139 -8.5729
9 29 10 2.3317 35.7143
9 29 11 -55.5018 -22.8901
9 29 12 7.2432 -10.8890
9 29 13 -11.3528 8.4918
9 29 14 11.5205 -13.7441
9 29 15 12.6530 -17.9434
9 29 16 -5.0536 -6.2543
9 29 17 3.8149 19.3615
9 29 18 12.6973 -30.1501
9 29 19 -3.4032 -12.2816
9 29 20 20.0203 -1.2096
9 29 21 -0.5497 -3.8998
9 29 22 15.5795 25.7155
9 29 23 -4.6695 -16.2844
9 29 24 -5.2965 -8.0933
9 30 9 -13.3436 1.8374
9 30 10 7.5148 5.9456
9 30 11 -20.2484 -9.2057
9 30 12 -27.2918 14.7532
9 30 13 9.5363 -2.1532
9 30 14 10.8696 1.5021
9 30 15 21.7965 -10.7403
9 30 16 21.0211 1.6737
9 30 17 9.1370 9.6857
9 30 18 -4.8070 -6.8162
9 30 19 0.6969 -14.6594
9 30 20 -11.9331 -20.5937
9 30 21 -3.8283 1.4297
9 30 22 4.0493 4.4858
9 31 9 -36.8319 -35.4138
9 31 10 4.0130 4.8739
9 31 11 -30.2627 20.1680
9 31 12 14.3766 31.4809
9 31 13 15.9249 30.5203
9 31 14 -1.1743 -2.9382
9 31 15 36.7828 -12.1235
9 31 16 -14.2227 -6.4222
9 31 17 23.9591 -0.6206
9 31 18 7.2516 -9.7918
9 31 19 -4.9691 7.4580
9 31 20 -1.2715 -7.2337
9 31 21 1.1397 16.1286
9 32 9 4.9198 -4.4752
9 32 10 -19.5800 8.2889
9 32 11 31.1829 21.1038
9 32 12 14.8154 -0.1504
9 32 13 -10.9764 1.5486
9 32 14 4.1842 -21.5797
9 32 15 -9.3256 -23.4587
9 32 16 7.7717 -12.3458
9 32 17 -17.5285 6.4864
9 32 18 -5.4053 16.5689
9 32 19 -6.1600 -0.3900
9 33 9 1.3337 -6.2346
9 33 10 7.0219 11.0744
9 33 11 -13.1757 0.0727
9 33 12 1.4345 3.4489
9 33 13 14.3787 -17.4441
9 33 14 -29.8384 -0.3674
9 33 15 16.0941 -15.6202
9 33 16 -8.7363 3.5214
9 33 17 9.1792 15.1993
9 33 18 17.5272 8.0829
9 34 9 -29.7289 3.8729
9 34 10 8.3158 4.2396
9 34 11 -18.9589 -8.6621
9 34 12 3.0757 -11.3823
9 34 13 -1.2803 -13.0394
9 34 14 -10.7731 0.2338
9 34 15 5.7626 7.5596
9 34 16 -10.3144 7.4983
9 35 9 9.8615 12.4305
9 35 10 -12.8195 -2.6515
9 35 11 3.8377 -8.3208
9 35 12 -9.1183 3.6914
9 35 13 9.3218 6.3912
9 36 9 3.6791 -25.7975
9 36 10 11.7147 7.7418
9 36 11 2.4531 -6.7835
10 10 10 -8.8257 14.1182
10 11 10 20.2336 -21.2020
10 11 11 -13.3181 -2.5924
10 12 10 40.3799 -2.4725
10 12 11 -20.6519 8.9607
10 12 12 2.5994 -9.9655
10 13 10 -22.9472 -15.1442
10 13 11 -22.4905 14.2682
10 13 12 10.5600 27.4687
10 13 13 50.2084 -7.3805
10 14 10 4.1312 16.2917
10 14 11 13.6482 -20.2700
10 14 12 4.0529 13.2065
10 14 13 36.0849 -5.8507
10 14 14 4.9080 23.5481
10 15 10 2.7781 -2.2746
10 15 11 -8.9854 -28.9949
10 15 12 7.0405 -14.5318
10 15 13 -21.0243 -36.7432
10 15 14 -9.2950 -8.4593
10 15 15 6.2462 -4.0328
10 16 10 -11.9373 3.6417
10 16 11 1.8706 -8.9890
10 16 12 0.2008 3.8115
10 16 13 3.3470 -17.8010
10 16 14 -10.3778 -22.1055
10 16 15 -10.6563 -25.2655
10 16 16 10.0417 2.5528
10 17 10 12.0520 13.7517
10 17 11 9.6171 -7.3342
10 17 12 -35.0742 -28.8920
10 17 13 -6.5002 3.8510
10 17 14 -7.9933 32.3046
10 17 15 -28.2932 19.8310
10 17 16 16.6704 9.5825
10 17 17 -36.0805 -3.9896
10 18 10 5.8891 17.8842
10 18 11 -12.4517 45.2032
10 18 12 26.8901 26.5972
10 18 13 24.5904 -18.5367
10 18 14 0.2021 -16.3857
10 18 15 -17.6759 -20.1488
10 18 16 6.6799 15.4445
10 18 17 1.3247 28.0581
10 18 18 6.4638 -9.3378
10 19 10 0.4338 8.1171
10 19 11 -22.8562 2.0595
10 19 12 -25.3148 -10.4685
10 19 13 -19.4298 0.4514
10 19 14 -9.2437 -9.4828
10 19 15 10.8328 -12.8870
10 19 16 -6.8518 -1.8873
10 19 17 -2.6880 -16.9159
10 19 18 -0.8469 -41.9593
10 19 19 39.8697 -1.3470
10 20 10 5.5559 1.3722
10 20 11 -2.7991 -14.5471
10 20 12 -15.0033 -3.2305
10 20 13 27.0492 16.6184
10 20 14 -15.6445 12.9198
10 20 15 -7.8689 -11.2137
10 20 16 26.5334 6.2479
10 20 17 -6.1527 -15.5810
10 20 18 -3.7951 44.0764
10 20 19 -35.3141 -6.6590
10 20 20 6.8504 -25.3087
10 21 10 -9.0165 -13.1419
10 21 11 9.7989 -24.7402
10 21 12 -16.1748 -2.6602
10 21 13 -7.8083 23.4163
10 21 14 -11.7872 -5.1052
10 21 15 6.2169 -23.5026
10 21 16 28.1346 -17.5881
10 21 17 -3.3522 20.9726
10 21 18 8.6977 16.5432
10 21 19 3.8706 12.0992
10 21 20 13.4549 8.1539
10 21 21 -8.8325 0.8732
10 22 10 -7.8153 -26.8494
10 22 11 5.9756 -29.9830
10 22 12 10.6089 -25.2432
10 22 13 -37.8960 -26.2964
10 22 14 25.7481 7.5159
10 22 15 -9.0257 5.3934
10 22 16 -10.8352 -6.5816
10 22 17 6.5077 -27.0763
10 22 18 3.1340 -13.8716
10 22 19 11.1992 -13.4510
10 22 20 -26.6203 -4.8980
10 22 21 34.7643 -2.8793
10 22 22 7.5235 12.9668
10 23 10 -10.1206 23.2684
10 23 11 3.5961 22.5045
10 23 12 17.6296 -23.0848
10 23 13 59.9925 -18.2343
10 23 14 12.1715 -1.1560
10 23 15 30.9198 -22.8172
10 23 16 11.3882 6.5091
10 23 17 -30.7305 -35.6517
10 23 18 24.9556 7.3561
10 23 19 4.6808 5.8265
10 23 20 -9.4152 -28.8252
10 23 21 -25.5721 0.2268
10 23 22 0.7799 -26.2675
10 23 23 7.9383 0.8359
10 24 10 -33.9431 1.0024
10 24 11 8.3968 17.6138
10 24 12 28.0395 8.4759
10 24 13 -1.5398 2.7321
10 24 14 -19.3193 8.4761
10 24 15 16.8014 11.1520
10 24 16 -44.8881 3.1897
10 24 17 35.3350 -12.4558
10 24 18 2.4334 12.9639
10 24 19 18.5728 4.3853
10 24 20 -29.7254 27.1746
10 24 21 -8.8823 10.0725
10 24 22 27.4982 19.2480
10 24 23 -12.2903 -23.3704
10 24 24 4.9891 34.1420
10 25 10 -6.8106 -2.8770
10 25 11 1.6694 -23.7741
10 25 12 -45.5980 0.6343
10 25 13 27.9072 14.6848
10 25 14 21.4068 16.7980
10 25 15 -7.7796 30.3641
10 25 16 2.0220 11.1841
10 25 17 31.3657 24.6907
10 25 18 39.8074 -8.6049
10 25 19 0.8172 0.4947
10 25 20 15.5838 8.9885
10 25 21 -15.0223 -2.9240
10 25 22 -26.7124 -0.2446
10 25 23 12.0577 25.4503
10 25 24 -14.8183 29.0357
10 25 25 27.8029 1.4326
10 26 10 -7.7771 -13.8843
10 26 11 61.4225 -24.8471
10 26 12 69.0751 10.1847
10 26 13 26.5350 9.9474
10 26 14 -18.8570 -12.5805
10 26 15 -31.8098 -20.4497
10 26 16 19.1014 8.7944
10 26 17 -20.9516 -41.7490
10 26 18 -34.7736 -10.6474
10 26 19 -12.9805 1.5372
10 26 20 19.7532 21.5516
10 26 21 6.8432 8.4245
10 26 22 23.9429 -26.8103
10 26 23 59.2464 8.7060
10 26 24 0.9880 17.8137
10 26 25 -16.6882 13.1990
10 26 26 -0.3189 2.5313
10 27 10 1.6597 -1.5191
10 27 11 27.0441 -13.3389
10 27 12 6.8481 -23.6289
10 27 13 -13.9460 21.5781
10 27 14 -46.4648 -45.0788
10 27 15 -12.5637 -45.3237
10 27 16 -2.3139 -10.0297
10 27 17 -1.9648 -30.4656
10 27 18 15.3860 -44.9061
10 27 19 -2.1336 -16.2437
10 27 20 -36.1078 -10.0243
10 27 21 4.2539 28.3121
10 27 22 6.6349 -44.0886
10 27 23 -3.8476 33.0862
10 27 24 8.7860 1.5189
10 27 25 -16.2677 -2.1592
10 28 10 -29.2897 3.6623
10 28 11 -32.6546 4.9899
10 28 12 -20.5572 -11.0885
10 28 13 27.1316 -18.3333
10 28 14 -38.0042 -7.0605
10 28 15 24.3829 9.1289
10 28 16 25.8819 18.8845
10 28 17 -1.5826 -3.7352
10 28 18 -24.7591 -18.3361
10 28 19 16.5659 -13.0040
10 28 20 -10.6364 -15.5979
10 28 21 -6.1167 -8.6947
10 28 22 -16.8463 -5.5163
10 28 23 -30.3346 -4.7613
10 28 24 5.7792 9.5892
10 29 10 -8.6619 -3.5445
10 29 11 5.6858 -44.2284
10 29 12 22.4626 0.0526
10 29 13 31.1014 -78.9003
10 29 14 -7.9618 18.1714
10 29 15 28.4841 9.9923
10 29 16 45.3948 -9.2420
10 29 17 -29.4497 -20.7184
10 29 18 5.6164 -4.3709
10 29 19 -2.8839 19.0106
10 29 20 29.1749 0.9386
10 29 21 -8.5795 -23.7166
10 29 22 -31.4678 25.7254
10 29 23 -2.7695 -13.0839
10 30 10 -0.4686 23.1013
10 30 11 38.0389 0.9075
10 30 12 -9.5254 10.0915
10 30 13 -35.3871 -7.2420
10 30 14 25.2331 -22.0571
10 30 15 6.1499 4.4853
10 30 16 -10.5961 11.2293
10 30 17 -11.2600 -6.5806
10 30 18 23.3980 -12.2811
10 30 19 4.5452 -18.4655
10 30 20 -17.6444 -4.9273
10 30 21 0.5771 -10.6896
10 30 22 15.0530 19.9135
10 31 10 3.3656 -9.9842
10 31 11 -34.1619 7.6950
10 31 12 15.6543 -43.9982
10 31 13 -30.6222 -8.2579
10 31 14 -19.5416 23.6887
10 31 15 -10.0924 -10.4391
10 31 16 3.3980 5.6707
10 31 17 -3.7170 4.7432
10 31 18 -11.3432 14.4713
10 31 19 19.3444 15.0753
10 31 20 -4.1403 -2.2182
10 32 10 19.6049 1.1654
10 32 11 -5.1151 -15.5307
10 32 12 11.1552 -7.8684
10 32 13 3.5480 0.1277
10 32 14 10.6380 16.4401
10 32 15 -16.2481 8.0636
10 32 16 7.6215 17.1568
10 32 17 -0.0543 1.7751
10 32 18 5.3905 11.5677
10 32 19 -2.9104 0.5198
10 33 10 -1.4894 -2.0642
10 33 11 -6.5067 0.3446
10 33 12 -8.7257 -15.6653
10 33 13 -18.1039 -8.9647
10 33 14 -21.4672 -6.7985
10 33 15 1.0964 -19.2942
10 33 16 9.6640 11.1352
10 33 17 7.1325 18.2380
10 34 10 0.0864 -25.3246
10 34 11 24.1296 -2.6082
10 34 12 7.6637 -3.8974
10 34 13 -6.6452 21.1955
10 34 14 -0.8683 5.3657
10 34 15 -24.5766 -3.1569
10 35 10 3.3447 -7.6990
10 35 11 6.6163 1.3036
10 35 12 -23.5731 0.6126
10 35 13 -16.4951 17.6324
10 36 10 2.1058 -3.1704
11 11 11 2.1720 -1.9546
11 12 11 5.1949 -1.5638
11 12 12 -12.2297 8.9401
11 13 11 -11.3797 9.2433
11 13 12 -20.4183 -0.5333
11 13 13 1.8171 1.4598
11 14 11 -37.5559 -2.0465
11 14 12 -7.1035 1.8444
11 14 13 -18.9721 -7.4672
11 14 14 -14.0773 14.7466
11 15 11 -1.9471 2.2719
11 15 12 3.8536 18.6665
11 15 13 18.0725 6.1369
11 15 14 29.1666 -15.1609
11 15 15 13.6826 15.8840
11 16 11 1.8156 -10.2894
11 16 12 33.0307 -35.8322
11 16 13 10.0878 10.3816
11 16 14 1.6326 -36.1092
11 16 15 11.6777 4.1959
11 16 16 1.5499 -2.9242
11 17 11 1.0392 -15.5399
11 17 12 23.1261 -17.2437
11 17 13 20.2011 -11.3241
11 17 14 -1.9374 3.4266
11 17 15 -14.6535 13.8280
11 17 16 -4.4331 1.7416
11 17 17 8.3046 16.0059
11 18 11 9.8163 -4.4064
11 18 12 -4.6057 -4.6322
11 18 13 0.7973 18.6082
11 18 14 14.8457 -18.5230
11 18 15 23.0373 20.7001
11 18 16 22.4463 -5.4655
11 18 17 11.8889 -5.0388
11 18 18 -4.0364 5.5422
11 19 11 14.4385 16.2364
11 19 12 -7.4306 -32.0493
11 19 13 21.4253 7.3905
11 19 14 -16.7788 -14.3110
11 19 15 8.4296 13.5841
11 19 16 -1.1241 -7.5714
11 19 17 49.4060 23.3379
11 19 18 1.7412 6.2508
11 19 19 -25.1730 -22.4621
11 20 11 -7.8475 -40.6617
11 20 12 8.7356 0.0480
11 20 13 -6.2127 -24.2061
11 20 14 13.6201 8.0832
11 20 15 -54.6548 -8.4408
11 20 16 10.8156 -2.9615
11 20 17 4.8897 -3.2071
11 20 18 6.3779 7.0723
11 20 19 15.0540 13.4031
11 20 20 -4.4783 5.8713
11 21 11 8.4269 -2.0314
11 21 12 -19.6339 6.1358
11 21 13 17.3821 -19.4965
11 21 14 -5.9843 -2.1251
11 21 15 8.0458 -40.8650
11 21 16 -22.2949 9.6665
11 21 17 2.3260 4.8089
11 21 18 -24.0068 -54.0716
11 21 19 13.6325 50.8273
11 21 20 12.7585 -22.0034
11 21 21 -1.5701 1.9439
11 22 11 -10.8518 -5.9995
11 22 12 -19.4997 -20.5308
11 22 13 -28.7331 9.5067
11 22 14 -6.9179 1.6993
11 22 15 20.7254 -20.5726
11 22 16 -6.9746 9.3774
11 22 17 -53.0377 -49.0498
11 22 18 22.5803 -6.1804
11 22 19 63.8771 -6.2017
11 22 20 27.1182 10.4427
11 22 21 -10.2062 -31.8854
11 22 22 3.9612 0.1937
11 23 11 -4.6651 -13.5677
11 23 12 -0.1643 49.4917
11 23 13 -19.0176 -34.0238
11 23 14 -9.2837 17.5436
11 23 15 34.5822 1.3074
11 23 16 12.9999 22.6369
11 23 17 6.1881 34.5925
11 23 18 -1.5108 -6.3909
11 23 19 9.4639 2.6472
11 23 20 8.7316 -13.5881
11 23 21 14.6892 13.5440
11 23 22 10.3811 19.5796
11 23 23 -14.1591 -12.6354
11 24 11 -5.0658 5.2300
11 24 12 21.6373 -4.7516
11 24 13 -5.3705 -58.2228
11 24 14 4.7601 6.3662
11 24 15 1.3455 12.1158
11 24 16 -17.0463 -22.7057
11 24 17 22.4986 -14.5583
11 24 18 -8.1341 16.0121
11 24 19 51.7191 7.9139
11 24 20 -25.6523 -0.9532
11 24 21 -18.2684 -3.7206
11 24 22 -23.1273 18.4896
11 24 23 -25.2738 13.3213
11 24 24 9.5872 -5.7325
11 25 11 5.4517 4.4138
11 25 12 60.6227 -22.2232
11 25 13 14.0967 -44.9043
11 25 14 -10.9688 -1.4794
11 25 15 -8.4255 6.2645
11 25 16 21.5917 -11.6836
11 25 17 0.9632 15.4802
11 25 18 -24.8552 -22.7250
11 25 19 -18.5971 -36.4347
11 25 20 -20.6396 9.0635
11 25 21 -0.4465 32.2625
11 25 22 10.3663 -13.8107
11 25 23 2.4581 0.5629
11 25 24 1.8868 -7.1455
11 25 25 7.0820 10.1843
11 26 11 -27.2464 -3.7617
11 26 12 46.6125 63.3442
11 26 13 -29.2799 -25.5937
11 26 14 21.5938 8.5184
11 26 15 2.0637 -47.1518
11 26 16 45.7938 13.2106
11 26 17 28.1792 20.3496
11 26 18 32.6236 33.1933
11 26 19 4.5207 18.1440
11 26 20 -17.4713 18.0420
11 26 21 -41.9670 -31.9976
11 26 22 -4.1810 6.6921
11 26 23 16.3485 -4.0676
11 26 24 13.0114 10.9629
11 26 25 7.5305 -14.7440
11 26 26 -6.4267 7.0276
11 27 11 27.5027 19.3383
11 27 12 3.7662 -46.9217
11 27 13 -27.0107 -46.9721
11 27 14 13.0317 -0.1743
11 27 15 -46.2781 -0.7905
11 27 16 -21.5282 45.6052
11 27 17 13.6615 5.9708
11 27 18 -12.6276 -18.8819
11 27 19 -15.7667 -6.8790
11 27 20 0.5783 -8.1365
11 27 21 0.2081 20.0729
11 27 22 12.6334 -4.1914
11 27 23 8.7425 17.9439
11 27 24 -23.7021 -0.9334
11 27 25 1.0345 -2.7671
11 28 11 5.1811 54.5361
11 28 12 -21.2184 -10.3252
11 28 13 -37.1978 -9.3618
11 28 14 39.3209 -42.8877
11 28 15 -13.4438 -34.9786
11 28 16 17.0928 -12.2868
11 28 17 2.6342 11.3931
11 28 18 -21.5462 -9.2043
11 28 19 17.2204 -33.8323
11 28 20 -18.3743 7.2990
11 28 21 13.1908 2.6731
11 28 22 13.6967 -14.9380
11 28 23 -42.7996 16.4159
11 28 24 11.1764 2.2980
11 29 11 33.4017 -31.7502
11 29 12 -15.9372 -29.3869
11 29 13 -9.0732 22.3211
11 29 14 15.3009 -20.7642
11 29 15 15.3115 32.3206
11 29 16 -11.1078 15.6068
11 29 17 13.7918 -0.5372
11 29 18 2.7101 4.4727
11 29 19 -3.8881 6.0878
11 29 20 15.8894 8.1217
11 29 21 -4.9668 2.5736
11 29 22 0.1016 -5.1889
11 29 23 10.1716 -5.9837
11 30 11 -29.3016 2.1162
11 30 12 -1.5188 -23.7519
11 30 13 7.5898 -44.8485
11 30 14 -22.4880 6.8124
11 30 15 -2.8228 13.1533
11 30 16 -3.9337 -9.3547
11 30 17 10.8484 43.8552
11 30 18 9.9908 -23.9550
11 30 19 14.2641 0.2874
11 30 20 20.5846 17.8313
11 30 21 -17.8311 -17.6528
11 31 11 -17.1034 -19.4894
11 31 12 -16.1984 -18.2414
11 31 13 -23.8241 5.9627
11 31 14 -4.7444 22.8318
11 31 15 22.1699 -12.1325
11 31 16 -12.1140 -6.0266
11 31 17 -0.5525 -14.8164
11 31 18 -4.2938 8.7263
11 31 19 1.8387 -5.7353
11 31 20 5.7069 19.5208
11 32 11 1.3518 -42.4761
11 32 12 -2.0816 -25.2620
11 32 13 18.7395 9.1862
11 32 14 -27.9465 10.8740
11 32 15 -0.9916 0.3062
11 32 16 5.9474 0.5014
11 32 17 7.0114 -1.2159
11 32 18 17.4461 5.0593
11 33 11 -0.5029 3.2530
11 33 12 -8.6540 2.9368
11 33 13 20.0966 7.1251
11 33 14 -5.6815 3.6519
11 33 15 21.1646 13.6494
11 33 16 0.9985 24.3681
11 33 17 4.0393 18.6992
11 34 11 0.3050 2.7340
11 34 12 7.5140 -4.1948
11 34 13 -3.1505 -0.5353
11 34 14 -15.1424 11.3401
11 35 11 -18.5734 -16.0688
11 35 12 3.9248 6.2221
12 12 12 48.2392 -0.2769
12 13 12 20.5446 27.0689
12 13 13 8.8682 -13.2642
12 14 12 3.2081 24.6646
12 14 13 6.1053 14.1118
12 14 14 9.7377 2.9218
12 15 12 -10.4004 4.2555
12 15 13 12.4032 -1.1759
12 15 14 -15.1820 1.0042
12 15 15 4.9543 -15.4093
12 16 12 6.8959 3.8791
12 16 13 -10.5819 -16.4362
12 16 14 -24.3682 -7.6427
12 16 15 12.2449 -2.2819
12 16 16 9.0211 1.4236
12 17 12 -11.8158 -9.2353
12 17 13 -14.2156 32.8049
12 17 14 32.0090 2.2265
12 17 15 26.5776 -9.3851
12 17 16 21.1637 11.6770
12 17 17 2.4501 -5.6175
12 18 12 7.0262 -4.3182
12 18 13 -11.7253 -16.4701
12 18 14 -19.7651 -15.2941
12 18 15 -0.0453 20.3905
12 18 16 0.8991 -29.1629
12 18 17 -35.2082 -9.6419
12 18 18 -65.0408 -5.2314
12 19 12 7.3585 1.3850
12 19 13 -18.2936 47.8491
12 19 14 3.1508 -16.2269
12 19 15 31.0803 -12.2096
12 19 16 24.0785 -28.8380
12 19 17 21.4779 -7.3060
12 19 18 -15.4186 -43.4678
12 19 19 0.6321 -23.8197
12 20 12 19.4932 -3.5291
12 20 13 9.9432 -4.4318
12 20 14 8.0549 2.3679
12 20 15 -18.2558 12.0355
12 20 16 22.4321 -14.5329
12 20 17 -16.2508 28.4324
12 20 18 35.1515 18.9551
12 20 19 36.8587 15.5842
12 20 20 48.4116 1.5211
12 21 12 40.4456 36.2497
12 21 13 2.2319 -16.0117
12 21 14 -41.2239 -38.5802
12 21 15 -4.4385 -22.3860
12 21 16 -9.3718 7.6788
12 21 17 1.2899 6.7448
12 21 18 -27.3882 -14.6862
12 21 19 4.8348 -12.2027
12 21 20 0.8407 15.4741
12 21 21 -1.4690 -5.2312
12 22 12 -6.6587 -19.7461
12 22 13 -53.8119 -23.4816
12 22 14 8.8024 -4.0711
12 22 15 12.2354 -12.4230
12 22 16 -41.8779 -9.8424
12 22 17 -10.5501 0.1391
12 22 18 65.4591 7.0754
12 22 19 -57.9970 -10.5953
12 22 20 -33.9233 22.4209
12 22 21 0.5341 -29.6063
12 22 22 7.5511 5.4813
12 23 12 18.4068 -8.5472
12 23 13 12.7915 -9.5911
12 23 14 58.3770 -5.2578
12 23 15 10.9504 28.9590
12 23 16 -20.3463 0.4735
12 23 17 40.4917 19.1083
12 23 18 -38.2141 -23.9503
12 23 19 16.4887 28.7658
12 23 20 2.5605 7.3312
12 23 21 -1.3088 -13.3720
12 23 22 13.1989 0.2416
12 23 23 -4.4956 -2.0570
12 24 12 -11.3504 -1.6466
12 24 13 -2.0771 31.7810
12 24 14 -16.8976 1.6120
12 24 15 -4.7341 -9.9848
12 24 16 -19.2492 -15.9792
12 24 17 8.9356 10.2165
12 24 18 35.2785 -9.2422
12 24 19 7.2715 14.0892
12 24 20 -15.7504 39.6971
12 24 21 -14.9675 4.3134
12 24 22 5.0751 17.8405
12 24 23 33.5163 24.2271
12 24 24 38.5890 5.8011
12 25 12 -39.0040 -35.1204
12 25 13 0.4703 15.9963
12 25 14 -16.2231 -20.5729
12 25 15 -2.3855 -30.6327
12 25 16 8.3960 -23.7778
12 25 17 -27.1881 -7.3896
12 25 18 17.6013 -4.1026
12 25 19 -2.8381 -15.8643
12 25 20 17.1580 -29.3327
12 25 21 -0.1374 4.2710
12 25 22 -26.3684 -32.5398
12 25 23 -9.4467 47.2595
12 25 24 5.4780 16.9562
12 25 25 -3.9914 39.7129
12 26 12 -8.3372 6.9129
12 26 13 19.6203 -3.5844
12 26 14 8.1821 -50.6941
12 26 15 -30.2316 -35.4181
12 26 16 -3.7959 4.7156
12 26 17 7.9492 26.9874
12 26 18 0.7642 16.0821
12 26 19 -4.7226 -16.5303
12 26 20 31.8535 18.3518
12 26 21 9.3108 -2.8355
12 26 22 30.4108 -4.4251
12 26 23 -19.4838 -8.4046
12 26 24 7.6074 -12.6270
12 26 25 -14.5039 -27.2162
12 26 26 12.5425 0.7119
12 27 12 -49.2589 46.0668
12 27 13 36.6993 -54.9360
12 27 14 5.6445 -0.4173
12 27 15 44.4523 0.1422
12 27 16 35.2119 -35.5312
12 27 17 0.5943 39.4962
12 27 18 11.8815 -2.1181
12 27 19 1.1823 16.5255
12 27 20 -6.9815 -53.3666
12 27 21 2.6204 14.6366
12 27 22 -27.7221 23.6223
12 27 23 9.7273 -2.5382
12 27 24 3.1835 -19.2414
12 27 25 -5.3064 -21.7945
12 28 12 -32.8480 0.4370
12 28 13 -23.8052 -15.1381
12 28 14 30.7303 -20.1854
12 28 15 -12.7696 -7.9037
12 28 16 18.8096 -0.1415
12 28 17 -11.4503 42.5063
12 28 18 -21.4903 -13.5448
12 28 19 0.5245 20.9316
12 28 20 42.5196 8.7982
12 28 21 -0.3284 10.9923
12 28 22 -25.2994 -13.3180
12 28 23 2.3059 -9.1466
12 29 12 -0.8500 3.0275
12 29 13 -6.4177 -14.7046
12 29 14 11.4956 -5.1541
12 29 15 25.9233 2.9250
12 29 16 25.7816 25.1561
12 29 17 15.9255 15.0884
12 29 18 -18.4244 -4.1589
12 29 19 -12.0815 19.9038
12 29 20 -18.8740 9.5924
12 29 21 -6.2445 3.8021
12 29 22 1.6267 20.3876
12 30 12 -3.8267 4.8605
12 30 13 6.5339 -41.1224
12 30 14 21.8536 6.5205
12 30 15 -4.4647 -2.4449
12 30 16 -2.9153 20.0446
12 30 17 -13.3367 11.5556
12 30 18 10.1994 -7.7486
12 30 19 11.8919 -15.9129
12 30 20 6.9451 -5.2627
12 30 21 -12.1732 -11.5127
12 31 12 14.1190 -18.2237
12 31 13 7.0901 27.8075
12 31 14 -8.2615 -21.7368
12 31 15 20.9562 5.5495
12 31 16 -4.4830 -22.7672
12 31 17 4.7310 -4.8990
12 31 18 -21.4991 1.1923
12 31 19 -10.0766 -4.6669
12 32 12 -1.0524 -1.9310
12 32 13 23.6794 -11.5434
12 32 14 -3.3285 9.4113
12 32 15 -14.4470 -11.5632
12 32 16 20.2494 -2.2503
12 32 17 -5.6030 11.6668
12 32 18 -13.1086 26.6326
12 33 12 17.3368 12.6928
12 33 13 4.8166 -10.7780
12 33 14 19.7694 -13.1079
12 33 15 -28.8074 2.0773
12 33 16 -22.1805 13.0816
12 34 12 -2.7129 23.7749
12 34 13 -2.2441 -22.4573
12 34 14 -3.7583 -12.5197
13 13 13 -27.3074 23.6160
13 14 13 5.6551 1.9248
13 14 14 9.3031 19.7845
13 15 13 -10.3390 -9.5271
13 15 14 -0.1008 -3.8664
13 15 15 16.2233 -17.9116
13 16 13 6.0735 4.5579
13 16 14 -9.2138 22.7589
13 16 15 -29.7150 -5.6850
13 16 16 18.3265 21.6434
13 17 13 -6.6344 3.6649
13 17 14 35.2086 2.6945
13 17 15 -12.7274 -6.9968
13 17 16 -13.1899 -13.1722
13 17 17 8.5077 -6.9215
13 18 13 28.8676 1.1062
13 18 14 -8.7306 15.0063
13 18 15 6.6913 -8.7680
13 18 16 10.2071 30.9749
13 18 17 -0.4001 -2.8809
13 18 18 -13.9405 -12.0866
13 19 13 -39.2571 -31.3518
13 19 14 14.7662 22.4789
13 19 15 -12.9188 -43.1832
13 19 16 -30.6577 7.5364
13 19 17 -29.9496 -22.5332
13 19 18 -11.4274 -9.8908
13 19 19 -2.4246 10.2442
13 20 13 -5.3103 13.9366
13 20 14 -10.4928 -10.5213
13 20 15 26.8142 -7.4993
13 20 16 -2.0584 14.2498
13 20 17 -15.8134 -40.1471
13 20 18 20.1013 -13.5562
13 20 19 -15.7379 -34.9853
13 20 20 14.8916 17.0722
13 21 13 -1.9283 10.7643
13 21 14 0.5542 -11.3684
13 21 15 20.3791 3.6429
13 21 16 31.6978 8.6900
13 21 17 44.5114 5.5861
13 21 18 -25.5709 6.8336
13 21 19 16.8572 -15.5215
13 21 20 -17.6051 -7.3453
13 21 21 -9.4598 1.8738
13 22 13 -33.9760 -1.0615
13 22 14 47.3450 -8.5298
13 22 15 27.1730 19.2520
13 22 16 -12.5110 -7.4545
13 22 17 -17.3595 -4.7079
13 22 18 -24.8648 -1.9839
13 22 19 -11.3091 -1.9128
13 22 20 -14.7056 -71.0421
13 22 21 -18.6493 -5.5007
13 22 22 -9.8526 -9.2804
13 23 13 23.0112 22.1125
13 23 14 -31.8404 9.5108
13 23 15 -5.3043 -66.2123
13 23 16 -21.7329 9.7099
13 23 17 -8.1014 33.1532
13 23 18 -1.9747 43.6343
13 23 19 29.8640 -12.4257
13 23 20 8.7941 23.8239
13 23 21 62.4093 30.5585
13 23 22 -16.5332 13.7023
13 23 23 13.0098 -26.1138
13 24 13 -1.1336 62.2790
13 24 14 26.2370 -3.6871
13 24 15 16.8649 53.2979
13 24 16 18.4941 -18.2260
13 24 17 46.2323 -23.6509
13 24 18 5.6029 -4.7827
13 24 19 -27.6069 -33.1443
13 24 20 6.4502 7.8110
13 24 21 -23.6179 -6.4060
13 24 22 -22.5520 5.6140
13 24 23 -11.9907 -24.0792
13 24 24 -1.0480 -5.0255
13 25 13 7.7569 -1.6258
13 25 14 9.8615 -22.9747
13 25 15 -8.8038 19.9105
13 25 16 3.9416 -54.7921
13 25 17 -4.3686 -11.5324
13 25 18 -15.1599 44.7219
13 25 19 -12.7617 -2.2213
13 25 20 5.7003 2.1035
13 25 21 -1.0218 -15.9803
13 25 22 5.9021 -7.0636
13 25 23 28.9890 15.2435
13 25 24 13.9408 -2.0236
13 25 25 1.8628 -13.8449
13 26 13 -4.7859 -0.9916
13 26 14 18.2117 18.9871
13 26 15 10.3878 -8.0253
13 26 16 -10.6884 8.6809
13 26 17 7.0154 -43.6837
13 26 18 -11.6441 -24.9050
13 26 19 -24.8500 -8.2100
13 26 20 0.8936 11.6058
13 26 21 2.4082 35.3670
13 26 22 22.3248 -11.5024
13 26 23 0.6689 8.2228
13 26 24 -12.0919 19.5124
13 26 25 -6.9008 -20.1467
13 27 13 1.3804 -3.3637
13 27 14 -13.4059 -27.4308
13 27 15 -9.0126 -49.2486
13 27 16 2.6389 3.0372
13 27 17 46.2803 25.8174
13 27 18 11.3335 4.9954
13 27 19 11.0269 -7.6166
13 27 20 -15.0755 8.6823
13 27 21 17.0776 -5.1895
13 27 22 16.9887 -28.2969
13 27 23 30.2604 -16.7799
13 27 24 7.7411 12.9286
13 28 13 5.6495 32.7133
13 28 14 51.8700 17.2480
13 28 15 39.4635 15.6791
13 28 16 35.4599 -7.7428
13 28 17 -33.4281 -25.4004
13 28 18 1.7642 26.2206
13 28 19 33.5830 -9.2343
13 28 20 20.9361 10.5659
13 28 21 -24.0727 -7.0860
13 28 22 18.0106 6.2491
13 28 23 2.2137 7.4004
13 29 13 15.5669 -11.0663
13 29 14 10.9181 -16.9782
13 29 15 9.1012 -40.4482
13 29 16 -21.9928 30.3788
13 29 17 -0.1830 -6.3380
13 29 18 -3.6364 19.7086
13 29 19 -14.9064 -1.5594
13 29 20 -1.2355 -26.9722
13 29 21 14.7799 -21.9733
13 29 22 -13.4394 -0.9811
13 30 13 7.1998 1.5141
13 30 14 8.0396 1.7239
13 30 15 -52.6894 -4.7486
13 30 16 10.0809 32.6187
13 30 17 6.7402 -15.3034
13 30 18 16.6535 5.7963
13 30 19 22.5270 11.9531
13 30 20 -4.0076 -14.1952
13 31 13 5.4483 3.0726
13 31 14 -27.7897 1.7424
13 31 15 1.0945 13.1339
13 31 16 -13.8949 -4.9906
13 31 17 -23.1806 14.1189
13 31 18 5.7043 -3.6377
13 31 19 17.4485 7.0853
13 32 13 -0.5703 17.0686
13 32 14 11.8311 19.0408
13 32 15 -2.0351 -16.5853
13 32 16 -1.7928 1.7630
13 32 17 14.7995 3.0750
13 33 13 9.3876 -1.0313
13 33 14 6.8626 -8.4608
13 33 15 -12.5902 11.3224
13 34 13 -26.0559 0.6234
14 14 14 7.6921 1.4933
14 15 14 -0.6825 -10.1282
14 15 15 -44.2899 -1.0397
14 16 14 -13.3546 -1.4137
14 16 15 4.2649 15.4380
14 16 16 -0.1266 -7.3052
14 17 14 12.5713 12.2437
14 17 15 25.7927 -1.7546
14 17 16 -14.8706 -19.6362
14 17 17 -37.5331 2.3756
14 18 14 -0.7909 -26.9408
14 18 15 9.0833 17.2205
14 18 16 -1.7970 31.6022
14 18 17 -47.0147 -37.9319
14 18 18 -4.0317 -17.1595
14 19 14 0.3870 -1.3722
14 19 15 5.4918 -8.2702
14 19 16 10.9606 5.2315
14 19 17 -16.3475 20.7294
14 19 18 14.2469 22.4666
14 19 19 14.2934 -1.3004
14 20 14 37.5724 -10.0080
14 20 15 -1.6365 -40.5312
14 20 16 17.0857 -20.8190
14 20 17 8.6663 11.0260
14 20 18 -18.8943 41.3941
14 20 19 2.6812 -9.6891
14 20 20 -1.5436 -36.9695
14 21 14 13.2570 8.6926
14 21 15 -8.0686 34.2359
14 21 16 8.6754 23.6122
14 21 17 -1.0797 -34.6143
14 21 18 -10.9902 -14.0238
14 21 19 -20.7520 -15.4932
14 21 20 10.0114 -33.8894
14 21 21 3.7916 -4.1132
14 22 14 -3.2877 -8.0709
14 22 15 -13.0586 54.7491
14 22 16 12.3033 -10.0108
14 22 17 -17.5732 -37.6468
14 22 18 30.1015 -2.4825
14 22 19 -7.3640 5.6202
14 22 20 0.7451 -8.7324
14 22 21 -15.8597 -6.3007
14 22 22 4.3512 6.4807
14 23 14 -45.6470 46.6240
14 23 15 -38.1741 24.4612
14 23 16 -36.2479 10.5024
14 23 17 -2.6528 -34.7277
14 23 18 9.9950 -20.6305
14 23 19 -23.1025 -34.8684
14 23 20 19.6158 -26.1778
14 23 21 -7.1190 -23.8140
14 23 22 -38.3353 19.2167
14 23 23 -5.6622 -1.8777
14 24 14 18.4214 -2.5245
14 24 15 -35.7407 6.7685
14 24 16 -10.0356 -2.0880
14 24 17 11.2236 -3.9456
14 24 18 -3.6709 -21.9538
14 24 19 14.0995 4.1993
14 24 20 -9.9044 4.9755
14 24 21 6.3309 10.2816
14 24 22 34.0112 -43.8785
14 24 23 5.6990 24.7905
14 24 24 6.9859 5.8068
14 25 14 26.7431 29.5176
14 25 15 36.9984 -14.6647
14 25 16 -13.0072 -12.4201
14 25 17 4.4647 -21.6954
14 25 18 -8.7495 26.0418
14 25 19 31.2459 -3.2122
14 25 20 1.6816 3.7494
14 25 21 -0.7020 -19.7127
14 25 22 17.6342 -1.4400
14 25 23 16.1343 23.8552
14 25 24 -2.9310 4.6775
14 25 25 10.0079 0.5321
14 26 14 -2.9749 -37.3805
14 26 15 17.0226 -25.1864
14 26 16 23.2232 -5.8241
14 26 17 -25.8376 4.0306
14 26 18 -3.3665 7.1285
14 26 19 17.4899 -2.0925
14 26 20 10.2629 -6.7167
14 26 21 9.5401 -7.0288
14 26 22 4.8551 7.0953
14 26 23 1.6527 2.7102
14 26 24 25.5866 4.9397
14 26 25 -23.4447 10.6516
14 27 14 10.6264 -16.7202
14 27 15 20.1975 34.0066
14 27 16 15.7710 6.0476
14 27 17 44.1750 9.9570
14 27 18 28.7734 -7.0938
14 27 19 16.9167 16.4011
14 27 20 -26.2571 31.9118
14 27 21 -17.0418 -5.8545
14 27 22 -17.6586 -20.1578
14 27 23 -21.2721 7.5627
14 28 14 29.8145 0.6305
14 28 15 26.6214 41.3976
14 28 16 -17.8941 12.5634
14 28 17 -18.2245 6.0665
14 28 18 12.3639 23.3313
14 28 19 -2.7957 -3.5194
14 28 20 0.2629 -34.1992
14 28 21 6.3291 2.0946
14 28 22 8.0133 3.2929
14 29 14 -22.2869 -17.4217
14 29 15 41.4162 27.8209
14 29 16 -2.7496 15.3603
14 29 17 12.1729 4.7269
14 29 18 5.3774 -8.0830
14 29 19 -5.8632 -5.8358
14 29 20 -27.0438 1.5374
14 29 21 16.3003 -1.7115
14 30 14 -3.8299 -15.6738
14 30 15 -3.3254 0.7597
14 30 16 -29.2524 12.6471
14 30 17 -8.0223 -18.7506
14 30 18 4.1801 0.8898
14 30 19 4.3670 14.5950
14 30 20 1.9091 -10.0048
14 31 14 -14.0922 11.6905
14 31 15 11.0693 20.9124
14 31 16 24.5922 12.5604
14 31 17 15.8068 -27.5968
14 31 18 4.1346 6.4166
14 32 14 -23.3987 -2.0806
14 32 15 -26.7067 -4.4952
14 32 16 11.5972 -5.3222
14 33 14 -7.0702 -10.8182
15 15 15 -8.8723 4.0390
15 16 15 6.3050 -35.0628
15 16 16 12.9945 -17.4799
15 17 15 -5.9177 11.3493
15 17 16 -4.8008 32.8987
15 17 17 -26.0145 -23.7740
15 18 15 13.7464 6.5671
15 18 16 28.1457 -19.5869
15 18 17 9.2973 8.3257
15 18 18 10.1506 -11.6458
15 19 15 5.5180 7.0935
15 19 16 -10.8589 10.9034
15 19 17 -21.4620 -4.6483
15 19 18 -5.7092 13.4600
15 19 19 2.8063 -0.4569
15 20 15 -1.7334 9.0477
15 20 16 -25.7731 3.9715
15 20 17 -2.4966 -16.0444
15 20 18 -10.4475 -5.6259
15 20 19 20.1098 -19.5178
15 20 20 -9.9965 14.5380
15 21 15 -0.1362 15.2486
15 21 16 -12.4720 -3.2738
15 21 17 7.3352 0.3949
15 21 18 45.3627 -38.7141
15 21 19 -22.0790 -19.9145
15 21 20 14.3153 -28.1641
15 21 21 17.7740 19.6710
15 22 15 -14.9547 2.8966
15 22 16 -10.0707 -4.7871
15 22 17 -3.6445 -24.5352
15 22 18 3.1777 40.2587
15 22 19 -19.9525 5.3247
15 22 20 39.4371 -54.5747
15 22 21 -9.7367 13.1417
15 22 22 -1.8053 8.6789
15 23 15 -12.7233 -11.7458
15 23 16 3.1496 -13.0384
15 23 17 -5.5687 5.1181
15 23 18 -38.1159 -18.0064
15 23 19 -26.3439 -12.3744
15 23 20 26.4700 -8.8966
15 23 21 26.4334 23.3704
15 23 22 35.1877 0.7773
15 23 23 -5.2216 -5.9902
15 24 15 2.3777 31.0917
15 24 16 8.9527 3.9149
15 24 17 2.6263 35.8908
15 24 18 45.1412 -42.0971
15 24 19 2.4431 4.7841
15 24 20 -27.5724 25.4507
15 24 21 0.3843 -12.0823
15 24 22 -1.4509 -27.5467
15 24 23 50.5799 3.4441
15 24 24 -24.3679 26.5730
15 25 15 -22.0459 24.0106
15 25 16 24.4933 35.3597
15 25 17 -12.8913 -35.7827
15 25 18 24.3706 -23.7998
15 25 19 22.2480 14.0328
15 25 20 29.3419 6.4027
15 25 21 -7.4030 -3.8445
15 25 22 -2.4210 3.6701
15 25 23 7.5244 6.1593
15 25 24 -17.6772 23.0224
15 25 25 9.7770 10.1535
15 26 15 -18.8720 1.2557
15 26 16 -52.6056 -5.0656
15 26 17 -35.5067 -2.4189
15 26 18 19.9976 -35.8031
15 26 19 -4.7936 3.2591
15 26 20 12.8320 -5.1463
15 26 21 -0.6633 16.2718
15 26 22 25.3621 -13.6498
15 26 23 3.5200 -7.8583
15 26 24 -16.2300 -1.0150
15 27 15 24.6052 21.4468
15 27 16 3.1772 -29.7793
15 27 17 23.1423 2.2855
15 27 18 -25.8779 13.2656
15 27 19 7.7595 13.3812
15 27 20 0.4719 15.2600
15 27 21 -10.1006 -35.7191
15 27 22 -8.9124 -6.4825
15 27 23 -1.7807 -24.1926
15 28 15 5.7026 11.3631
15 28 16 60.7955 3.1126
15 28 17 14.6178 32.6507
15 28 18 -18.4064 34.7474
15 28 19 19.5352 -6.3090
15 28 20 8.7185 11.4745
15 28 21 4.5129 -27.4929
15 28 22 -21.1784 29.0059
15 29 15 -2.6236 3.0989
15 29 16 -18.5273 -16.4323
15 29 17 15.8074 24.0481
15 29 18 10.1783 6.2704
15 29 19 -15.1997 16.4012
15 29 20 1.9712 -14.1589
15 30 15 -20.7609 0.4105
15 30 16 10.3040 19.3598
15 30 17 5.2520 7.7577
15 30 18 -4.6536 -2.5815
15 30 19 -16.6435 -9.7457
15 31 15 1.6610 -1.9375
15 31 16 -5.8519 8.1006
15 31 17 -7.2257 21.0007
15 32 15 -0.1753 -10.1407
16 16 16 14.8849 -6.0129
16 17 16 -14.4139 -15.3584
16 17 17 0.8618 11.8882
16 18 16 -4.9884 21.6687
16 18 17 -22.4280 2.4295
16 18 18 -4.3417 -4.6125
16 19 16 3.3427 -11.5223
16 19 17 -7.8258 26.7580
16 19 18 26.7367 1.7560
16 19 19 -1.4827 -31.0046
16 20 16 -1.6711 -4.9573
16 20 17 -21.5956 -4.9984
16 20 18 50.1295 2.8956
16 20 19 3.9787 -2.0025
16 20 20 -5.2833 -0.0530
16 21 16 -23.5985 -29.5751
16 21 17 -0.1215 -6.1715
16 21 18 11.4826 -27.0138
16 21 19 9.2717 -7.8411
16 21 20 -30.6665 -4.4056
16 21 21 -3.5025 -10.5517
16 22 16 -6.2258 -16.4772
16 22 17 4.9327 3.9039
16 22 18 0.4650 -2.1488
16 22 19 30.2175 -2.2493
16 22 20 15.4113 0.5928
16 22 21 -9.0787 -23.2909
16 22 22 11.5856 -0.5878
16 23 16 8.1778 -11.0399
16 23 17 -27.8274 -1.3826
16 23 18 21.3189 8.1701
16 23 19 24.7277 27.3703
16 23 20 43.5968 27.5292
16 23 21 -32.0310 -14.6052
16 23 22 -6.5163 14.4323
16 23 23 -2.2919 8.2755
16 24 16 7.9939 -1.6461
16 24 17 -10.8245 -14.4873
16 24 18 16.0747 -24.9968
16 24 19 16.1231 27.8187
16 24 20 -18.3498 4.2547
16 24 21 -5.3538 -9.8559
16 24 22 17.5265 3.5752
16 24 23 -1.8544 22.8600
16 24 24 -39.0507 5.8426
16 25 16 -29.8854 -27.0717
16 25 17 9.3680 -20.8928
16 25 18 0.1130 39.5003
16 25 19 -17.7789 -11.8761
16 25 20 11.4107 -7.9454
16 25 21 -6.5799 -10.6863
16 25 22 -32.1677 30.3701
16 25 23 -34.1102 -9.5371
16 25 24 34.9875 -2.0342
16 26 16 0.5052 55.3714
16 26 17 20.0897 6.4640
16 26 18 -20.3562 -26.5139
16 26 19 -15.1045 -40.5249
16 26 20 -25.4302 5.3358
16 26 21 -14.4877 9.1139
16 26 22 -14.8374 -0.0677
16 26 23 1.5139 -3.6041
16 27 16 -11.3090 5.2757
16 27 17 5.7019 20.6388
16 27 18 15.4559 -3.7479
16 27 19 -16.5299 19.2103
16 27 20 -21.8991 -6.6054
16 27 21 1.8931 -8.5298
16 27 22 -9.5671 -4.6337
16 28 16 4.4387 3.0743
16 28 17 -13.0173 18.9306
16 28 18 14.9497 21.7803
16 28 19 1.9927 7.4289
16 28 20 28.3670 -13.5280
16 28 21 -3.1660 -11.3767
16 29 16 -11.9092 -7.3418
16 29 17 14.2551 7.6087
16 29 18 0.1436 -25.4865
16 29 19 5.1254 0.7663
16 29 20 15.9290 -26.6879
16 30 16 -0.9806 4.5537
16 30 17 -26.2556 9.6100
16 30 18 0.9392 3.9659
16 31 16 -7.0958 4.2355
17 17 17 27.3489 -18.7339
17 18 17 -0.4572 2.9546
17 18 18 6.2070 3.8196
17 19 17 24.1221 21.8355
17 19 18 -11.3965 -1.2176
17 19 19 13.0869 -7.8257
17 20 17 0.5227 -5.5340
17 20 18 -5.3899 -26.4757
17 20 19 20.7548 17.4416
17 20 20 4.4336 2.1731
17 21 17 14.5355 -5.1739
17 21 18 -6.2908 -21.3263
17 21 19 23.7885 -32.2571
17 21 20 1.9738 8.7262
17 21 21 -1.0812 2.8182
17 22 17 -20.1131 2.7517
17 22 18 -12.2882 18.4544
17 22 19 14.3884 3.2381
17 22 20 -27.4843 3.3572
17 22 21 -7.1958 20.7729
17 22 22 -13.0398 -13.9132
17 23 17 -20.8108 -20.0288
17 23 18 18.0911 -12.9535
17 23 19 -9.2034 -2.6321
17 23 20 -7.9737 -6.3917
17 23 21 -2.7524 -5.4243
17 23 22 6.5539 15.6011
17 23 23 -37.4213 37.0265
17 24 17 -0.0222 -13.6949
17 24 18 -12.7405 14.7534
17 24 19 -0.2001 7.7073
17 24 20 -11.9478 9.2861
17 24 21 7.1448 18.2061
17 24 22 -19.7215 0.9230
17 24 23 -19.2926 10.9936
17 24 24 -11.6150 -13.4686
17 25 17 0.2123 -2.2229
17 25 18 -37.5548 29.7310
17 25 19 32.6805 12.5610
17 25 20 0.8561 8.8156
17 25 21 2.5340 -32.7209
17 25 22 -30.0940 4.3828
17 25 23 -2.9191 -7.6464
17 25 24 -7.8884 42.8904
17 26 17 1.7946 0.4723
17 26 18 5.2501 -24.5723
17 26 19 -11.3305 36.1175
17 26 20 -14.1325 6.9956
17 26 21 -31.2006 -6.4100
17 26 22 -5.5692 -14.5283
17 26 23 -6.3354 27.3028
17 27 17 17.9904 17.3209
17 27 18 20.3063 1.7997
17 27 19 -13.4660 -14.6173
17 27 20 2.3892 -16.2938
17 27 21 8.2283 4.3159
17 28 17 3.5388 -5.6949
17 28 18 -14.2446 -6.6427
17 28 19 -5.9654 -27.1785
17 28 20 -5.4646 32.7708
17 29 17 -17.8602 11.3126
17 29 18 14.9045 9.1263
17 29 19 -12.6659 3.9079
17 30 17 0.8889 0.0136
18 18 18 -8.3405 2.1720
18 19 18 -11.7626 12.0399
18 19 19 18.2111 0.5824
18 20 18 7.6354 -3.4854
18 20 19 38.0796 7.9842
18 20 20 0.4417 -9.3421
18 21 18 -13.3175 -14.3157
18 21 19 11.5614 56.1440
18 21 20 -24.0620 17.2506
18 21 21 4.2090 -1.0681
18 22 18 -1.2186 38.0427
18 22 19 -18.4940 32.8652
18 22 20 0.9903 42.0226
18 22 21 24.8486 5.7884
18 22 22 -0.2528 -13.6366
18 23 18 8.1937 -7.0503
18 23 19 -14.7543 -2.1593
18 23 20 -17.2527 -8.8865
18 23 21 -8.7054 27.2083
18 23 22 -0.7081 14.2970
18 23 23 -9.8946 1.5533
18 24 18 -22.8865 -2.0429
18 24 19 16.1660 -10.0079
18 24 20 -19.1469 -21.8188
18 24 21 5.7770 8.2925
18 24 22 10.9117 -12.6490
18 24 23 -0.9457 -5.7281
18 24 24 0.0661 6.0383
18 25 18 6.0450 5.7750
18 25 19 -14.0957 14.4418
18 25 20 -33.2664 52.3820
18 25 21 13.2301 12.7281
18 25 22 0.1717 -1.8626
18 25 23 10.0513 -42.1444
18 26 18 3.2236 -36.9606
18 26 19 -13.8796 14.2841
18 26 20 47.3048 -8.0843
18 26 21 1.5104 9.9487
18 26 22 -21.6494 -23.2512
18 27 18 -9.2742 10.1058
18 27 19 -5.4342 20.7465
18 27 20 -14.2058 13.1963
18 27 21 20.1709 -19.0994
18 28 18 26.6508 5.8803
18 28 19 0.2956 2.3569
18 29 18 9.8921 11.7748
19 19 19 20.1442 13.2669
19 20 19 -2.2496 26.7641
19 20 20 -8.1005 11.0225
19 21 19 -14.9874 20.2709
19 21 20 -47.8575 20.8846
19 21 21 -27.4788 -24.8088
19 22 19 33.0386 -1.0417
19 22 20 -12.1486 0.7111
19 22 21 4.7274 -47.4399
19 22 22 6.6280 -6.2012
19 23 19 -7.5787 -3.4879
19 23 20 7.4231 9.5263
19 23 21 16.8877 -30.3031
19 23 22 -23.6782 -1.1521
19 23 23 -16.6334 -13.8160
19 24 19 -2.9680 -0.5485
19 24 20 16.0078 -1.4331
19 24 21 -51.4540 5.0984
19 24 22 -7.9687 -5.4052
19 24 23 -8.0369 33.6796
19 25 19 -8.3276 7.7911
19 25 20 12.3046 -11.0664
19 25 21 -5.3014 -19.3146
19 25 22 36.9514 23.1076
19 26 19 -32.8822 -3.6567
19 26 20 -6.4587 -8.1558
19 26 21 -3.2951 43.4062
19 27 19 10.2443 8.8854
19 27 20 -4.1696 -29.3749
20 20 20 0.8604 -1.0816
20 21 20 -38.0397 -38.5346
20 21 21 -2.5760 -16.6182
20 22 20 -2.2372 -22.5425
20 22 21 -2.7698 2.7253
20 22 22 -38.6665 -2.7008
20 23 20 -10.1632 14.9444
20 23 21 -8.9760 -4.2534
20 23 22 -6.6155 -9.1949
20 23 23 2.5548 -14.8151
20 24 20 -23.3384 -2.8892
20 24 21 -19.4759 1.6685
20 24 22 0.1153 19.7525
20 25 20 -13.8844 -14.1177
20 25 21 0.4766 -19.1844
20 26 20 -0.5628 12.0899
21 21 21 8.4553 -2.5464
21 22 21 -32.2179 -2.4660
21 22 22 -8.9585 -10.5919
21 23 21 16.4543 16.4255
21 23 22 -5.5071 -1.2202
21 23 23 -41.4022 49.2718
21 24 21 -3.5733 27.1069
22 22 22 -2.4405 -6.9435
22 23 22 -7.8039 11.2186
0 0 0 0.0 0.0
;
_olex2_submission_special_instructions 'No special instructions were received'
_oxdiff_exptl_absorpt_empirical_details
;
Empirical correction (ABSPACK) includes:
- Absorption correction using spherical harmonics
- Frame scaling
;
_oxdiff_exptl_absorpt_empirical_full_max 1.156
_oxdiff_exptl_absorpt_empirical_full_min 0.857
loop_
_space_group_symop_operation_xyz
'x, y, z'
'-y+3/4, x+1/4, z+3/4'
'-x+1/2, -y, z+1/2'
'y+3/4, -x+3/4, z+1/4'
'x+3/4, -z+3/4, y+1/4'
'x+1/2, -y+1/2, -z'
'x+1/4, z+3/4, -y+3/4'
'z+1/4, y+3/4, -x+3/4'
'-x, y+1/2, -z+1/2'
'-z+3/4, y+1/4, x+3/4'
'z, x, y'
'y, z, x'
'-y+1/2, -z, x+1/2'
'z+1/2, -x+1/2, -y'
'-y, z+1/2, -x+1/2'
'-z+1/2, -x, y+1/2'
'-z, x+1/2, -y+1/2'
'y+1/2, -z+1/2, -x'
'y+1/4, x+3/4, -z+3/4'
'-y+1/4, -x+1/4, -z+1/4'
'-x+3/4, z+1/4, y+3/4'
'-x+1/4, -z+1/4, -y+1/4'
'z+3/4, -y+3/4, x+1/4'
'-z+1/4, -y+1/4, -x+1/4'
loop_
_atom_site_label
_atom_site_type_symbol
_atom_site_fract_x
_atom_site_fract_y
_atom_site_fract_z
_atom_site_U_iso_or_equiv
_atom_site_adp_type
_atom_site_occupancy
_atom_site_site_symmetry_order
_atom_site_calc_flag
_atom_site_refinement_flags_posn
_atom_site_refinement_flags_adp
_atom_site_refinement_flags_occupancy
Zr1 Zr 0.52751(4) 0.47110(4) 0.44296(4) 0.0280(3) Uani 1 1 d . U .
Zr2 Zr 0.73314(4) 0.31868(4) 0.20909(4) 0.0318(4) Uani 1 1 d . U .
O3 O 0.5613(3) 0.5063(3) 0.3978(3) 0.023(2) Uani 1 1 d . U .
O4 O 0.5707(3) 0.5693(3) 0.4188(3) 0.0279(15) Uani 1 1 d . U .
O1 O 0.3433(3) 0.7607(3) 0.1844(3) 0.0279(15) Uani 1 1 d . U .
O8 O 0.3622(3) 0.7252(3) 0.2392(3) 0.036(2) Uani 1 1 d . U .
C8 C 0.4104(5) 0.7328(5) 0.1909(5) 0.037(2) Uani 1 1 d . U .
O11 O 0.5839(3) 0.4355(4) 0.4296(3) 0.045(3) Uani 1 1 d . U .
H11A H 0.5882 0.4148 0.4475 0.068 Uiso 1 1 d GR . .
H11B H 0.6063 0.4513 0.4310 0.068 Uiso 1 1 d GR . .
O7 O 0.8325(3) 0.3551(3) 0.2544(3) 0.0393(19) Uani 1 1 d . U .
O6 O 0.7403(4) 0.4014(4) 0.2822(4) 0.055(2) Uani 1 1 d . U .
C13 C 0.4861(5) 0.7182(5) 0.1603(5) 0.040(2) Uani 1 1 d . U .
O5 O 0.7042(4) 0.3741(3) 0.2293(3) 0.047(3) Uani 1 1 d . U .
C16 C 0.6942(6) 0.4428(6) 0.2408(6) 0.050(3) Uani 1 1 d . U .
C18 C 0.5838(5) 0.6532(5) 0.1433(5) 0.041(3) Uani 1 1 d . U .
O12 O 0.7813(3) 0.3715(3) 0.2073(3) 0.0393(19) Uani 1 1 d . U .
C20 C 0.5481(5) 0.6714(5) 0.1629(5) 0.041(3) Uani 1 1 d . U .
H20 H 0.5388 0.6611 0.1876 0.049 Uiso 1 1 calc R . .
C21 C 0.4801(5) 0.7178(5) 0.2031(5) 0.040(3) Uani 1 1 d . U .
H21 H 0.5013 0.7120 0.2208 0.048 Uiso 1 1 calc R . .
C22 C 0.6592(6) 0.5165(6) 0.2175(5) 0.046(3) Uani 1 1 d . U .
C27 C 0.5898(5) 0.5925(5) 0.3398(5) 0.040(3) Uani 1 1 d . U .
H27 H 0.5874 0.6136 0.3584 0.049 Uiso 1 1 calc R . .
C28 C 0.5798(5) 0.5207(5) 0.3198(5) 0.036(3) Uani 1 1 d . U .
H28 H 0.5730 0.4941 0.3263 0.043 Uiso 1 1 calc R . .
C29 C 0.6828(5) 0.5144(5) 0.2523(5) 0.045(3) Uani 1 1 d . U .
H29 H 0.6868 0.5374 0.2682 0.055 Uiso 1 1 calc R . .
C31 C 0.3696(5) 0.7402(5) 0.2046(5) 0.035(2) Uani 1 1 d . U .
C32 C 0.5893(5) 0.5313(5) 0.2800(5) 0.040(3) Uani 1 1 d . U .
H32 H 0.5858 0.5114 0.2603 0.048 Uiso 1 1 calc R . .
C33 C 0.5708(4) 0.5449(5) 0.3909(4) 0.025(2) Uani 1 1 d . U .
C34 C 0.7114(6) 0.4045(6) 0.2526(6) 0.053(2) Uani 1 1 d . U .
C35 C 0.6539(3) 0.5687(3) 0.1634(3) 0.046(3) Uani 1 1 d . U .
H35 H 0.6741 0.5547 0.1495 0.055 Uiso 1 1 calc R . .
C45 C 0.6345(4) 0.6014(3) 0.1451(2) 0.045(3) Uani 1 1 d G U .
C51 C 0.6043(3) 0.6223(3) 0.1660(3) 0.043(3) Uani 1 1 d G U .
C47 C 0.5935(3) 0.6105(3) 0.2051(3) 0.042(3) Uani 1 1 d G U .
H47 H 0.5733 0.6245 0.2190 0.050 Uiso 1 1 calc R . .
C39 C 0.6130(3) 0.5778(3) 0.2233(2) 0.044(2) Uani 1 1 d G U .
C42 C 0.6432(3) 0.5569(3) 0.2025(3) 0.045(2) Uani 1 1 d G U .
C36 C 0.6027(5) 0.5669(5) 0.2677(5) 0.042(2) Uani 1 1 d . U .
C37 C 0.4172(5) 0.7347(5) 0.1478(5) 0.039(3) Uani 1 1 d . U .
H37 H 0.3964 0.7423 0.1303 0.047 Uiso 1 1 calc R . .
C40 C 0.4548(5) 0.7250(5) 0.1331(5) 0.039(3) Uani 1 1 d . U .
H40 H 0.4592 0.7231 0.1053 0.047 Uiso 1 1 calc R . .
C44 C 0.4429(5) 0.7261(5) 0.2165(5) 0.039(3) Uani 1 1 d . U .
H44 H 0.4387 0.7274 0.2444 0.046 Uiso 1 1 calc R . .
C49 C 0.6027(5) 0.5993(5) 0.2987(5) 0.044(3) Uani 1 1 d . U .
H49 H 0.6114 0.6252 0.2913 0.053 Uiso 1 1 calc R . .
C52 C 0.8137(6) 0.3765(5) 0.2301(6) 0.048(3) Uani 1 1 d . U .
C55 C 0.7006(6) 0.4769(5) 0.2635(6) 0.050(3) Uani 1 1 d . U .
H55 H 0.7169 0.4754 0.2865 0.060 Uiso 1 1 calc R . .
C62 C 0.5807(5) 0.5512(5) 0.3504(5) 0.034(2) Uani 1 1 d . U .
C64 C 0.6525(6) 0.4825(5) 0.1941(6) 0.048(3) Uani 1 1 d . U .
H64 H 0.6374 0.4851 0.1703 0.058 Uiso 1 1 calc R . .
C69 C 0.5276(5) 0.7046(5) 0.1446(5) 0.041(3) Uani 1 1 d . U .
O10 O 0.5747(3) 0.5080(3) 0.4761(3) 0.019(2) Uani 1 1 d . U .
O2 O 0.7029(3) 0.2774(3) 0.2450(3) 0.022(2) Uani 1 1 d . U .
O13 O 0.4629(2) 0.4629(2) 0.4629(2) 0.018(4) Uani 1 3 d S TU P
O9 O 0.7882(4) 0.2882(4) 0.2118(4) 0.065(7) Uani 1 3 d S TU P
C1AA C 0.8290(5) 0.4196(5) 0.2241(6) 0.049(3) Uani 1 1 d . U .
H1AA H 0.8322 0.4325 0.2501 0.074 Uiso 1 1 calc GR . .
H1AB H 0.8097 0.4346 0.2082 0.074 Uiso 1 1 calc GR . .
H1AC H 0.8546 0.4190 0.2103 0.074 Uiso 1 1 calc GR . .
C2 C 0.6687(6) 0.4413(6) 0.2058(5) 0.050(3) Uani 1 1 d . U .
H2 H 0.6628 0.4175 0.1917 0.060 Uiso 1 1 calc R . .
loop_
_atom_site_aniso_label
_atom_site_aniso_U_11
_atom_site_aniso_U_22
_atom_site_aniso_U_33
_atom_site_aniso_U_23
_atom_site_aniso_U_13
_atom_site_aniso_U_12
Zr1 0.0296(7) 0.0283(7) 0.0261(7) -0.0003(6) 0.0019(6) 0.0015(6)
Zr2 0.0341(8) 0.0295(7) 0.0317(8) 0.0016(7) -0.0017(7) 0.0008(7)
O3 0.024(4) 0.024(4) 0.020(4) 0.004(4) 0.016(4) -0.006(4)
O4 0.031(3) 0.030(3) 0.023(3) 0.003(3) 0.009(3) -0.001(3)
O1 0.031(3) 0.030(3) 0.023(3) 0.003(3) 0.009(3) -0.001(3)
O8 0.029(5) 0.036(5) 0.042(5) 0.008(5) 0.009(4) -0.007(4)
C8 0.038(5) 0.036(5) 0.037(5) -0.002(4) 0.008(4) 0.003(4)
O11 0.036(6) 0.056(8) 0.043(7) -0.006(6) 0.006(6) 0.006(6)
O7 0.038(4) 0.031(4) 0.049(5) 0.008(4) 0.000(4) -0.014(4)
O6 0.065(5) 0.048(4) 0.051(5) -0.003(4) -0.010(4) 0.011(4)
C13 0.042(5) 0.036(5) 0.041(5) 0.004(5) 0.008(5) 0.007(5)
O5 0.061(6) 0.039(5) 0.040(5) -0.007(5) -0.006(5) 0.014(5)
C16 0.059(5) 0.044(5) 0.047(5) 0.000(5) -0.010(5) 0.009(5)
C18 0.042(5) 0.040(6) 0.040(5) 0.007(5) 0.008(5) 0.014(5)
O12 0.038(4) 0.031(4) 0.049(5) 0.008(4) 0.000(4) -0.014(4)
C20 0.041(6) 0.040(6) 0.041(6) 0.007(5) 0.006(5) 0.010(5)
C21 0.042(5) 0.036(5) 0.041(5) -0.001(5) 0.010(5) 0.006(5)
C22 0.051(5) 0.042(5) 0.043(5) 0.002(5) -0.002(5) 0.012(5)
C27 0.042(5) 0.041(5) 0.038(5) 0.007(5) 0.012(5) -0.003(5)
C28 0.035(5) 0.037(5) 0.034(5) 0.005(5) 0.004(5) -0.003(5)
C29 0.053(6) 0.039(5) 0.044(6) -0.002(5) -0.005(5) 0.011(5)
C31 0.034(4) 0.033(4) 0.036(4) 0.002(4) 0.008(4) -0.002(4)
C32 0.041(5) 0.041(5) 0.036(5) 0.006(5) 0.006(5) -0.002(5)
C33 0.024(4) 0.028(4) 0.022(4) 0.004(4) 0.016(4) -0.003(4)
C34 0.063(5) 0.047(4) 0.049(5) -0.003(4) -0.009(4) 0.011(4)
C35 0.050(6) 0.049(6) 0.039(5) 0.008(5) 0.011(5) 0.013(5)
C45 0.048(6) 0.046(6) 0.040(6) 0.008(5) 0.010(5) 0.012(5)
C51 0.046(5) 0.042(5) 0.039(5) 0.010(5) 0.009(5) 0.014(5)
C47 0.047(5) 0.040(5) 0.039(5) 0.011(5) 0.009(5) 0.011(5)
C39 0.047(5) 0.043(5) 0.040(5) 0.009(4) 0.007(5) 0.009(4)
C42 0.051(5) 0.045(5) 0.039(5) 0.006(5) 0.007(5) 0.011(5)
C36 0.044(5) 0.043(5) 0.039(5) 0.008(5) 0.007(5) 0.003(5)
C37 0.037(5) 0.038(5) 0.043(5) 0.002(5) 0.010(5) 0.006(5)
C40 0.039(5) 0.038(5) 0.041(5) 0.004(5) 0.012(5) 0.006(5)
C44 0.041(5) 0.035(5) 0.040(5) -0.004(5) 0.009(5) 0.005(5)
C49 0.049(6) 0.042(5) 0.042(5) 0.008(5) 0.008(5) -0.001(5)
C52 0.047(5) 0.040(5) 0.056(6) 0.006(5) 0.000(5) -0.014(5)
C55 0.059(6) 0.043(5) 0.048(6) 0.000(5) -0.007(5) 0.009(6)
C62 0.033(5) 0.036(5) 0.031(4) 0.006(4) 0.010(4) -0.003(4)
C64 0.056(6) 0.046(6) 0.044(6) 0.001(5) -0.006(5) 0.014(5)
C69 0.043(6) 0.038(5) 0.042(6) 0.006(5) 0.006(5) 0.008(5)
O10 0.018(5) 0.019(5) 0.018(5) -0.002(4) 0.004(4) 0.002(4)
O2 0.022(5) 0.031(5) 0.012(4) 0.006(4) 0.004(4) -0.001(5)
O13 0.018(4) 0.018(4) 0.018(4) -0.002(4) -0.002(4) -0.002(4)
O9 0.065(7) 0.065(7) 0.065(7) -0.012(8) -0.012(8) 0.012(8)
C1AA 0.049(6) 0.042(5) 0.058(6) 0.007(5) -0.001(5) -0.013(5)
C2 0.058(6) 0.047(6) 0.045(6) 0.000(5) -0.011(5) 0.009(6)
loop_
_atom_type_symbol
_atom_type_description
_atom_type_scat_dispersion_real
_atom_type_scat_dispersion_imag
_atom_type_scat_source
C C 0.0181 0.0091 'International Tables Vol C Tables 4.2.6.8 and 6.1.1.4'
H H 0.0000 0.0000 'International Tables Vol C Tables 4.2.6.8 and 6.1.1.4'
O O 0.0492 0.0322 'International Tables Vol C Tables 4.2.6.8 and 6.1.1.4'
Zr Zr -0.1862 2.2449 'International Tables Vol C Tables 4.2.6.8 and 6.1.1.4'
loop_
_geom_angle_atom_site_label_1
_geom_angle_atom_site_label_2
_geom_angle_atom_site_label_3
_geom_angle
_geom_angle_site_symmetry_1
_geom_angle_site_symmetry_3
Zr1 Zr1 Zr1 59.997(1) 12 11
Zr1 Zr1 Zr2 60.11(4) 12 19_545
Zr1 Zr1 Zr2 60.63(4) 11 10_554
Zr1 Zr1 Zr2 90.53(3) 12 10_554
Zr1 Zr1 Zr2 90.23(3) 11 19_545
Zr2 Zr1 Zr2 60.14(5) 10_554 19_545
O3 Zr1 Zr1 163.2(2) . 12
O3 Zr1 Zr1 107.7(3) . 11
O3 Zr1 Zr2 72.9(2) . 10_554
O3 Zr1 Zr2 111.5(3) . 19_545
O3 Zr1 O1 123.4(3) . 4_455
O3 Zr1 O8 72.5(4) . 8_545
O3 Zr1 O11 73.9(4) . .
O3 Zr1 O10 72.2(3) . .
O3 Zr1 O13 138.1(3) . .
O1 Zr1 Zr1 110.2(3) 4_455 11
O1 Zr1 Zr1 73.2(2) 4_455 12
O1 Zr1 Zr2 163.7(3) 4_455 10_554
O1 Zr1 Zr2 108.7(3) 4_455 19_545
O1 Zr1 O8 79.1(4) 4_455 8_545
O1 Zr1 O11 71.4(4) 4_455 .
O1 Zr1 O10 138.7(3) 4_455 .
O1 Zr1 O13 71.5(4) 4_455 .
O8 Zr1 Zr1 74.3(3) 8_545 11
O8 Zr1 Zr1 111.7(3) 8_545 12
O8 Zr1 Zr2 164.4(3) 8_545 19_545
O8 Zr1 Zr2 109.0(3) 8_545 10_554
O8 Zr1 O11 110.1(4) 8_545 .
O8 Zr1 O10 139.2(4) 8_545 .
O8 Zr1 O13 73.0(4) 8_545 .
O11 Zr1 Zr1 117.5(3) . 12
O11 Zr1 Zr1 175.6(3) . 11
O11 Zr1 Zr2 116.7(3) . 10_554
O11 Zr1 Zr2 85.4(3) . 19_545
O11 Zr1 O10 78.8(4) . .
O11 Zr1 O13 141.3(4) . .
O10 Zr1 Zr1 97.1(2) . 12
O10 Zr1 Zr1 97.8(2) . 11
O10 Zr1 Zr2 39.6(2) . 19_545
O10 Zr1 Zr2 40.2(2) . 10_554
O2 Zr1 Zr1 85.4(3) 10_554 12
O2 Zr1 Zr1 83.9(3) 19_545 11
O2 Zr1 Zr1 34.2(2) 10_554 11
O2 Zr1 Zr1 32.3(3) 19_545 12
O2 Zr1 Zr2 31.2(2) 10_554 10_554
O2 Zr1 Zr2 84.1(2) 19_545 10_554
O2 Zr1 Zr2 83.7(2) 10_554 19_545
O2 Zr1 Zr2 32.2(2) 19_545 19_545
O2 Zr1 O3 143.3(4) 19_545 .
O2 Zr1 O3 79.0(4) 10_554 .
O2 Zr1 O1 81.4(3) 19_545 4_455
O2 Zr1 O1 143.9(4) 10_554 4_455
O2 Zr1 O8 143.4(4) 19_545 8_545
O2 Zr1 O8 82.4(4) 10_554 8_545
O2 Zr1 O11 144.6(4) 10_554 .
O2 Zr1 O11 92.4(4) 19_545 .
O2 Zr1 O10 71.8(3) 19_545 .
O2 Zr1 O10 71.4(3) 10_554 .
O2 Zr1 O2 95.9(5) 10_554 19_545
O2 Zr1 O13 71.6(3) 19_545 .
O2 Zr1 O13 73.5(3) 10_554 .
O13 Zr1 Zr1 39.3(2) . 11
O13 Zr1 Zr1 39.3(2) . 12
O13 Zr1 Zr2 96.4(3) . 19_545
O13 Zr1 Zr2 96.9(3) . 10_554
O13 Zr1 O10 125.2(4) . .
Zr1 Zr2 Zr1 59.26(5) 8_545 19_545
Zr1 Zr2 Zr2 60.19(4) 8_545 17_645
Zr1 Zr2 Zr2 89.76(3) 8_545 18_556
Zr2 Zr2 Zr1 89.47(3) 17_645 19_545
Zr2 Zr2 Zr1 59.67(4) 18_556 19_545
Zr2 Zr2 Zr2 60.0 18_556 17_645
O4 Zr2 Zr1 106.6(2) 8_545 19_545
O4 Zr2 Zr1 73.7(2) 8_545 8_545
O4 Zr2 Zr2 112.9(3) 8_545 17_645
O4 Zr2 Zr2 162.9(2) 8_545 18_556
O4 Zr2 O12 126.5(4) 8_545 .
O7 Zr2 Zr1 112.4(3) 17_645 8_545
O7 Zr2 Zr1 168.6(3) 17_645 19_545
O7 Zr2 Zr2 115.1(3) 17_645 18_556
O7 Zr2 Zr2 79.4(3) 17_645 17_645
O7 Zr2 O4 76.3(4) 17_645 8_545
O7 Zr2 O12 72.4(4) 17_645 .
O7 Zr2 O10 74.6(4) 17_645 8_545
O7 Zr2 O10 144.0(4) 17_645 19_545
O5 Zr2 Zr1 89.6(3) . 19_545
O5 Zr2 Zr1 124.6(3) . 8_545
O5 Zr2 Zr2 173.2(3) . 17_645
O5 Zr2 Zr2 113.9(3) . 18_556
O5 Zr2 O4 73.9(4) . 8_545
O5 Zr2 O7 101.7(4) . 17_645
O5 Zr2 O12 71.4(4) . .
O5 Zr2 O10 146.9(4) . 8_545
O5 Zr2 O10 78.4(4) . 19_545
O12 Zr2 Zr1 159.2(3) . 8_545
O12 Zr2 Zr1 112.5(3) . 19_545
O12 Zr2 Zr2 70.5(3) . 18_556
O12 Zr2 Zr2 102.7(3) . 17_645
O10 Zr2 Zr1 38.8(2) 19_545 19_545
O10 Zr2 Zr1 95.5(2) 8_545 19_545
O10 Zr2 Zr1 95.5(2) 19_545 8_545
O10 Zr2 Zr1 39.2(2) 8_545 8_545
O10 Zr2 Zr2 96.8(2) 19_545 17_645
O10 Zr2 Zr2 96.7(2) 8_545 18_556
O10 Zr2 Zr2 40.0(2) 19_545 18_556
O10 Zr2 Zr2 39.9(2) 8_545 17_645
O10 Zr2 O4 135.5(3) 19_545 8_545
O10 Zr2 O4 73.4(3) 8_545 8_545
O10 Zr2 O12 134.3(4) 8_545 .
O10 Zr2 O12 73.7(3) 19_545 .
O10 Zr2 O10 124.1(4) 19_545 8_545
O2 Zr2 Zr1 33.4(3) . 19_545
O2 Zr2 Zr1 30.6(3) . 8_545
O2 Zr2 Zr2 84.6(3) . 18_556
O2 Zr2 Zr2 83.3(3) . 17_645
O2 Zr2 O4 78.9(3) . 8_545
O2 Zr2 O7 141.1(4) . 17_645
O2 Zr2 O5 99.6(4) . .
O2 Zr2 O12 145.9(4) . .
O2 Zr2 O10 69.8(3) . 8_545
O2 Zr2 O10 72.3(3) . 19_545
O2 Zr2 O9 94.5(7) . .
O9 Zr2 Zr1 82.7(6) . 19_545
O9 Zr2 Zr1 83.2(6) . 8_545
O9 Zr2 Zr2 32.0(2) . 18_556
O9 Zr2 Zr2 32.0(2) . 17_645
O9 Zr2 O4 144.6(3) . 8_545
O9 Zr2 O7 88.8(6) . 17_645
O9 Zr2 O5 141.3(4) . .
O9 Zr2 O12 76.7(6) . .
O9 Zr2 O10 71.8(3) . 8_545
O9 Zr2 O10 72.0(3) . 19_545
C33 O3 Zr1 138.0(9) . .
C33 O4 Zr2 132.6(9) . 10_554
C31 O1 Zr1 135.6(9) . 2_554
C31 O8 Zr1 134.0(11) . 10_554
C37 C8 C31 116.7(16) . .
C44 C8 C31 124.0(16) . .
C44 C8 C37 119.2(16) . .
C52 O7 Zr2 124.4(11) . 18_556
C21 C13 C69 117.2(16) . .
C40 C13 C21 122.5(16) . .
C40 C13 C69 119.7(16) . .
C34 O5 Zr2 139.5(13) . .
C55 C16 C34 120.9(17) . .
C55 C16 C2 124.3(18) . .
C2 C16 C34 114.8(17) . .
C18 C18 C20 121.1(9) 20_665 .
C18 C18 C51 122.8(8) 20_665 .
C51 C18 C20 116.0(13) . .
C52 O12 Zr2 128.7(11) . .
C69 C20 C18 120.4(15) . .
C44 C21 C13 117.1(17) . .
C29 C22 C42 120.5(16) . .
C64 C22 C29 120.9(18) . .
C64 C22 C42 118.3(15) . .
C62 C27 C49 116.3(16) . .
C32 C28 C62 119.2(15) . .
C22 C29 C55 119.3(18) . .
O1 C31 C8 123.8(15) . .
O8 C31 O1 122.7(14) . .
O8 C31 C8 113.4(15) . .
C36 C32 C28 125.8(17) . .
O3 C33 C62 111.2(13) . .
O4 C33 O3 120.1(12) . .
O4 C33 C62 128.7(15) . .
O6 C34 C16 122.2(17) . .
O5 C34 O6 119.8(17) . .
O5 C34 C16 116.8(17) . .
C45 C35 C42 120.0 . .
C35 C45 C45 119.1 . 20_665
C35 C45 C51 120.0 . .
C51 C45 C45 120.73(16) . 20_665
C45 C51 C18 115.6(10) . .
C47 C51 C18 124.2(10) . .
C47 C51 C45 120.0 . .
C51 C47 C39 120.0 . .
C47 C39 C36 119.2(10) . .
C42 C39 C47 120.0 . .
C42 C39 C36 120.7(10) . .
C35 C42 C22 117.4(10) . .
C39 C42 C22 121.5(10) . .
C39 C42 C35 120.0 . .
C32 C36 C39 124.8(16) . .
C32 C36 C49 115.7(16) . .
C49 C36 C39 119.1(14) . .
C40 C37 C8 118.7(17) . .
C37 C40 C13 119.0(16) . .
C21 C44 C8 122.9(17) . .
C27 C49 C36 122.4(16) . .
O7 C52 O12 134.9(16) . .
O7 C52 C1AA 116.9(16) . .
O12 C52 C1AA 108.2(16) . .
C16 C55 C29 120.8(18) . .
C28 C62 C27 119.9(15) . .
C33 C62 C27 115.2(15) . .
C33 C62 C28 124.8(15) . .
C22 C64 C2 122.1(17) . .
C13 C69 C69 121.0(10) . 20_665
C20 C69 C13 120.3(15) . .
C20 C69 C69 118.2(10) . 20_665
Zr1 O10 Zr2 100.6(3) . 10_554
Zr1 O10 Zr2 101.5(3) . 19_545
Zr2 O10 Zr2 100.1(3) 19_545 10_554
Zr1 O2 Zr1 113.5(4) 8_545 19_545
Zr1 O2 Zr2 118.2(4) 8_545 .
Zr2 O2 Zr1 114.4(4) . 19_545
Zr1 O13 Zr1 101.4(4) 12 .
Zr1 O13 Zr1 101.4(4) 11 12
Zr1 O13 Zr1 101.4(4) 11 .
Zr2 O9 Zr2 116.1(4) 18_556 .
Zr2 O9 Zr2 116.1(4) 17_645 .
Zr2 O9 Zr2 116.1(4) 18_556 17_645
C16 C2 C64 112.5(17) . .
loop_
_geom_bond_atom_site_label_1
_geom_bond_atom_site_label_2
_geom_bond_distance
_geom_bond_site_symmetry_2
Zr1 Zr1 3.472(2) 12
Zr1 Zr1 3.472(2) 11
Zr1 Zr2 3.5207(19) 19_545
Zr1 Zr2 3.5025(19) 10_554
Zr1 O3 2.188(9) .
Zr1 O1 2.208(10) 4_455
Zr1 O8 2.215(10) 8_545
Zr1 O11 2.240(11) .
Zr1 O10 2.253(9) .
Zr1 O2 2.022(10) 10_554
Zr1 O2 2.129(9) 19_545
Zr1 O13 2.243(6) .
Zr2 Zr1 3.5205(19) 19_545
Zr2 Zr1 3.5024(19) 8_545
Zr2 Zr2 3.519(2) 18_556
Zr2 Zr2 3.519(2) 17_645
Zr2 O4 2.335(9) 8_545
Zr2 O7 2.200(10) 17_645
Zr2 O5 2.161(11) .
Zr2 O12 2.353(10) .
Zr2 O10 2.299(8) 8_545
Zr2 O10 2.292(9) 19_545
Zr2 O2 2.059(9) .
Zr2 O9 2.074(5) .
O3 C33 1.329(17) .
O4 Zr2 2.335(9) 10_554
O4 C33 1.219(17) .
O1 Zr1 2.208(10) 2_554
O1 C31 1.284(18) .
O8 Zr1 2.215(10) 10_554
O8 C31 1.265(18) .
C8 C31 1.44(2) .
C8 C37 1.44(2) .
C8 C44 1.38(2) .
O7 Zr2 2.200(10) 18_556
O7 C52 1.23(2) .
O6 C34 1.36(2) .
C13 C21 1.42(2) .
C13 C40 1.38(2) .
C13 C69 1.53(2) .
O5 C34 1.29(2) .
C16 C34 1.44(2) .
C16 C55 1.36(2) .
C16 C2 1.43(2) .
C18 C18 1.35(3) 20_665
C18 C20 1.47(2) .
C18 C51 1.429(17) .
O12 C52 1.31(2) .
C20 C69 1.42(2) .
C21 C44 1.33(2) .
C22 C29 1.39(2) .
C22 C42 1.514(19) .
C22 C64 1.38(2) .
C27 C49 1.44(2) .
C27 C62 1.43(2) .
C28 C32 1.39(2) .
C28 C62 1.42(2) .
C29 C55 1.42(2) .
C32 C36 1.32(2) .
C33 C62 1.39(2) .
C35 C45 1.3900 .
C35 C42 1.3900 .
C45 C45 1.481(14) 20_665
C45 C51 1.3900 .
C51 C47 1.3900 .
C47 C39 1.3900 .
C39 C42 1.3900 .
C39 C36 1.543(18) .
C36 C49 1.47(2) .
C37 C40 1.37(2) .
C52 C1AA 1.52(2) .
C64 C2 1.51(2) .
C69 C69 1.53(3) 20_665
O10 Zr2 2.299(8) 10_554
O10 Zr2 2.293(9) 19_545
O2 Zr1 2.129(9) 19_545
O2 Zr1 2.022(10) 8_545
O13 Zr1 2.243(6) 11
O13 Zr1 2.243(6) 12
O9 Zr2 2.074(5) 18_556
O9 Zr2 2.074(5) 17_645
loop_
_refln_index_h
_refln_index_k
_refln_index_l
_refln_F_squared_meas
_refln_F_squared_sigma
_refln_scale_group_code
2 0 2 92248.1 948.283 1
2 -2 1 121.982 30.7205 1
-2 1 2 157.95 25.0865 1
1 -2 2 170.449 48.2205 1
2 -1 2 178.19 39.2116 1
2 -2 2 544.775 84.2248 1
0 0 3 -19.5248 34.3374 1
0 1 3 51.4346 22.1332 1
1 0 3 57.4911 18.6644 1
0 -1 3 129.348 43.2682 1
-1 0 3 59.054 31.1617 1
1 1 3 50185.1 763.003 1
1 -1 3 50062 785.885 1
-1 1 3 50079.4 650.865 1
3 -1 1 49770.8 623.084 1
3 -2 1 1064.68 91.088 1
-2 1 3 1177.78 93.8699 1
2 -1 3 1049.93 119.888 1
2 0 3 20.5318 27.8131 1
3 -2 0 130.2 35.0704 1
3 -1 2 926.615 98.9669 1
1 -2 3 1014.47 117.266 1
2 -3 2 9.86277 22.9687 1
2 -2 3 8.22479 36.0868 1
-2 2 3 -20.3956 17.2962 1
3 0 3 182.518 39.3427 1
3 -3 0 271.499 46.6921 1
3 -1 3 3704.78 229.138 1
-3 1 3 3532.75 161.054 1
3 -3 1 3625.65 187.331 1
3 -3 2 256.638 52.9062 1
3 -2 3 203.476 52.511 1
2 -3 3 254.06 65.8902 1
-3 2 3 215.789 26.6871 1
3 -3 3 526.733 102.913 1
0 0 4 27162.1 615.449 1
0 -1 4 34.8054 36.4823 1
1 0 4 58.048 30.8348 1
0 1 4 -42.8036 47.8011 1
-1 0 4 -7.78745 46.8907 1
1 -1 4 128.333 54.0976 1
1 1 4 266.938 61.9263 1
-1 -1 4 117.906 44.0676 1
-1 1 4 203.853 53.4004 1
2 -1 4 414.56 91.2989 1
-2 1 4 414.595 65.4052 1
4 -2 1 432.537 63.4036 1
0 -2 4 1530.9 164.925 1
0 2 4 1783.77 156.857 1
-2 0 4 1735.33 149.61 1
2 0 4 1636.18 170.651 1
-1 2 4 403.774 65.375 1
2 1 4 517.971 105.142 1
4 -1 2 379.183 61.7829 1
1 -2 4 272.275 68.8917 1
2 -2 4 11075.1 447.636 1
4 -2 2 10934.9 369.082 1
-2 2 4 11141.6 333.616 1
4 -3 2 471.66 81.3324 1
3 -2 4 383.81 77.7086 1
-3 2 4 482.822 62.1742 1
-3 1 4 312.397 64.8332 1
3 -1 4 263.931 39.8296 1
4 -3 1 258.992 58.507 1
3 0 4 901.838 137.737 1
4 -3 0 851.106 70.5412 1
1 -3 4 293.092 67.4372 1
4 -1 3 362.06 83.9196 1
4 -2 3 448.681 77.46 1
2 -3 4 511.468 109.413 1
3 -4 2 486.484 94.592 1
-4 2 3 484.749 47.0973 1
4 -3 3 2401.59 205.548 1
3 -4 3 2512.53 218.495 1
3 -3 4 2275.38 214.522 1
4 0 4 1469.41 170.256 1
4 -4 0 1502.77 111.202 1
4 -4 1 381.48 68.2681 1
4 -1 4 288.555 81.3438 1
4 -4 -1 409.025 44.8809 1
-4 1 4 405.44 70.039 1
2 -4 4 41.3361 53.0481 1
4 -4 2 8.65346 46.2011 1
4 -2 4 -61.1608 70.5441 1
-4 2 4 -40.83 31.6769 1
4 -4 3 73.2996 40.0364 1
3 -4 4 -24.9016 55.9064 1
4 -3 4 -0.86294 49.2562 1
4 -4 4 29236.5 801.689 1
0 0 5 -118.082 65.9444 1
-1 0 5 25.9817 29.4504 1
0 1 5 10.7368 58.7498 1
0 -1 5 91.9429 36.327 1
1 0 5 27.9267 38.3292 1
-1 -1 5 766.873 116.872 1
1 1 5 764.432 115.633 1
1 -1 5 1001.74 148.088 1
-1 1 5 850.135 115.899 1
2 -1 5 411.818 108.479 1
-2 1 5 329.923 73.3787 1
-1 -2 5 305.818 88.3785 1
1 2 5 453.051 100.406 1
-2 0 5 130.831 56.3967 1
0 -2 5 132.251 59.22 1
2 0 5 79.8932 48.9034 1
0 2 5 113.227 55.3454 1
-1 2 5 323.25 82.4609 1
2 1 5 363.59 81.0935 1
-2 -1 5 245.797 65.3238 1
1 -2 5 179.783 73.0178 1
2 -2 5 455.3 104.303 1
-2 2 5 609.59 95.5589 1
5 -2 2 484.991 82.9016 1
5 -3 2 1219.39 123.573 1
3 -2 5 1465.89 180.715 1
-3 2 5 1348.03 132.123 1
-3 1 5 768.313 106.118 1
5 -3 1 739.632 83.3176 1
3 -1 5 621.528 120.675 1
5 -3 0 -4.256 23.3881 1
-3 0 5 -13.3209 28.0399 1
0 -3 5 -64.4782 70.8041 1
3 0 5 58.8234 58.6617 1
3 1 5 645.399 117.593 1
1 -3 5 637.935 122.915 1
5 -1 3 665.027 111.147 1
-5 2 3 1161.61 75.1094 1
2 -3 5 1224.84 168.282 1
5 -2 3 1271.24 151.428 1
3 -3 5 1403.54 183.543 1
3 -5 3 1311.21 165.193 1
-3 3 5 1360.63 128.065 1
5 -3 3 1331.27 157.972 1
4 -3 5 426.442 120.865 1
5 -4 3 390.079 99.0891 1
3 -5 4 362.486 96.4161 1
-4 3 5 398.925 68.5766 1
-4 2 5 550.539 78.904 1
5 -4 2 517.198 91.8813 1
4 -2 5 573.088 133.693 1
-4 1 5 523.602 88.58 1
4 -1 5 696.415 148.338 1
5 -4 1 649.416 94.8714 1
4 0 5 949.713 146.018 1
-4 0 5 748.945 86.3627 1
5 -4 0 977.75 94.158 1
1 -4 5 565.999 107.39 1
5 -1 4 593.111 129.592 1
4 -5 1 536.414 86.7807 1
5 -2 4 335.284 83.6592 1
-5 2 4 517.504 61.3734 1
2 -4 5 515.371 126.601 1
4 -5 2 552.603 107.561 1
3 -4 5 466.842 119.321 1
5 -3 4 633.049 110.947 1
4 -5 3 566.401 115.317 1
4 -5 4 4586.5 327.811 1
4 -4 5 4457.34 326.853 1
5 -4 4 4542.21 324.785 1
5 -5 0 892.158 97.8137 1
5 -5 -1 1635.95 104.054 1
5 -5 1 1938.06 162.922 1
-5 1 5 1729.19 157.201 1
5 -1 5 1868.73 221.747 1
-5 2 5 3080.56 176.259 1
5 -5 2 3021.53 221.696 1
2 -5 5 3233.24 291.361 1
5 -2 5 3160.75 278.079 1
-5 3 5 -35.459 26.3177 1
3 -5 5 -45.6852 65.56 1
5 -3 5 -24.2608 70.2706 1
5 -5 3 0.54152 46.7368 1
4 -5 5 2230.55 257.099 1
5 -5 4 1793.8 199.174 1
5 -4 5 1992.68 239.189 1
5 -5 5 4366.09 355.153 1
0 0 6 9.49975 41.0308 1
0 -1 6 228.632 89.374 1
1 0 6 276.358 93.0836 1
0 1 6 166.544 49.4887 1
-1 0 6 188.029 72.16 1
1 1 6 92.5493 67.3254 1
-1 -1 6 9.84565 45.9989 1
-1 1 6 -56.9368 46.7981 1
1 -1 6 122.235 68.7397 1
1 2 6 1102.9 154.332 1
-1 -2 6 1342.58 166.462 1
2 -1 6 1304.41 178.073 1
-2 1 6 1180.92 150.185 1
-2 0 6 74.5227 50.1444 1
2 0 6 48.1729 47.8962 1
0 -2 6 111.32 42.5002 1
0 2 6 82.1769 44.0162 1
-1 2 6 1103.8 146.906 1
-2 -1 6 1405.94 180.589 1
2 1 6 1347.41 171.337 1
1 -2 6 1386.39 182.199 1
-2 -2 6 740.9 126.606 1
2 -2 6 999.866 154.618 1
-2 2 6 909.083 124.916 1
3 -2 6 5986.22 380.787 1
6 -3 2 5400.18 292.95 1
-3 2 6 5661.43 299.077 1
3 -1 6 281.343 63.1963 1
-1 -3 6 312.171 118.02 1
-3 1 6 336.858 89.7647 1
6 -3 1 296.541 66.9534 1
-3 0 6 551.652 94.8992 1
3 0 6 680.088 141.169 1
0 -3 6 524.723 121.82 1
3 1 6 543.348 132.378 1
-3 -1 6 530.954 124.795 1
1 -3 6 460.973 121.604 1
2 -3 6 5861.07 385.646 1
6 -2 3 5387.91 339.397 1
-2 3 6 5486.58 306.118 1
3 -3 6 5586.75 394.69 1
6 -3 3 5331.03 331.303 1
-3 3 6 5457.42 289.273 1
6 -4 3 1507.52 177.374 1
3 -6 4 1388.29 187.371 1
4 -3 6 1526.72 198.76 1
-4 3 6 1361.46 138.673 1
4 -2 6 1852.12 214.506 1
-4 2 6 1887.07 167.523 1
6 -4 2 1766.25 166.575 1
6 -4 1 92.015 37.9155 1
-4 1 6 251.495 75.3742 1
4 -1 6 243.158 68.9259 1
0 -4 6 2033.34 246.397 1
4 0 6 2044.36 211.967 1
-4 0 6 1852.45 192.791 1
6 -4 0 2026.65 128.329 1
1 -4 6 230.481 87.9751 1
-6 2 4 1755.63 117.729 1
4 -6 2 1863.83 184.885 1
6 -2 4 1864.05 212.437 1
2 -4 6 2058.04 234.255 1
3 -4 6 1123.72 191.734 1
6 -3 4 1117.63 157.202 1
4 -6 3 1178.35 165.393 1
6 -4 4 3658.69 296.846 1
4 -6 4 3494.17 299.021 1
4 -4 6 3865.07 326.603 1
4 -6 5 959.483 178.768 1
5 -4 6 800.539 154.717 1
6 -5 4 700.059 130.195 1
6 -5 3 4768.12 326.483 1
-5 3 6 4904.72 247.594 1
3 -6 5 4985.31 380.043 1
5 -3 6 5316.25 386.023 1
5 -2 6 2189.37 244.453 1
-5 2 6 2160.56 178.039 1
2 -6 5 1995.36 235.836 1
6 -5 2 2122.09 188.225 1
5 -1 6 553.051 123.82 1
6 -5 1 532.198 93.097 1
-5 1 6 625.388 112.292 1
6 -5 0 3380.81 180.212 1
5 -6 0 3473.21 216.653 1
5 0 6 3657.41 322.667 1
-5 0 6 3454.04 249.69 1
1 -5 6 637.913 133.519 1
6 -5 -1 502.341 52.5854 1
5 -6 1 511.786 85.3636 1
6 -1 5 595.376 142.697 1
-6 2 5 1997.06 148.101 1
5 -6 2 1955.61 195.73 1
2 -5 6 1907.09 238.068 1
6 -2 5 2042.23 237.722 1
-6 3 5 4180.49 177.043 1
5 -6 3 4477.18 306.648 1
3 -5 6 4760.88 369.472 1
6 -3 5 4149.21 330.353 1
6 -4 5 661.152 148.756 1
5 -6 4 749.074 156.424 1
4 -5 6 883.669 156.054 1
5 -6 5 858.385 166.806 1
5 -5 6 947.944 184.6 1
6 -5 5 884.419 173.779 1
6 -6 0 1261.82 125.617 1
6 -6 -1 76.2284 90.1337 1
-6 1 6 -41.5785 29.5796 1
6 -1 6 2.51746 84.65 1
6 -6 1 -41.217 48.999 1
6 -6 2 7.51297 45.6835 1
6 -2 6 128.172 81.0321 1
2 -6 6 -74.9207 87.6793 1
-6 2 6 112.827 49.8391 1
6 -6 3 5945.5 365.057 1
3 -6 6 6451.65 452.644 1
-6 3 6 6218.3 259.344 1
6 -3 6 6794.59 451.319 1
6 -4 6 244.159 112.107 1
4 -6 6 190.97 118.293 1
6 -6 4 214.34 108.746 1
6 -5 6 1691.25 233.385 1
6 -6 5 1667.65 226.346 1
5 -6 6 1690.06 251.293 1
6 -6 6 330.83 135.309 1
0 0 7 63.0833 103.166 1
0 -1 7 24.136 66.3112 1
1 0 7 77.0987 52.4122 1
-1 0 7 -46.0007 56.4977 1
0 1 7 -2.37898 54.3003 1
1 -1 7 1879.66 220.134 1
-1 1 7 2248.45 232.807 1
-1 -1 7 2117.36 231.12 1
1 1 7 2202.63 225.034 1
2 -1 7 -34.3628 86.7285 1
-1 -2 7 14.4083 49.4637 1
1 2 7 -12.2935 60.0757 1
-2 1 7 -13.2703 49.065 1
-2 0 7 853.685 144.837 1
2 0 7 708.21 137.68 1
0 2 7 820.726 144.613 1
0 -2 7 880.564 167.914 1
2 1 7 -22.2104 72.8055 1
1 -2 7 -70.1588 77.1086 1
-2 -1 7 -116.093 57.8433 1
-1 2 7 142.195 103.051 1
2 2 7 3535.98 307.16 1
-2 2 7 3460.84 265.451 1
2 -2 7 3578.95 312.467 1
-2 -2 7 3244.49 294.851 1
-2 -3 7 7726.72 464.186 1
3 -2 7 7699.79 471.644 1
-3 2 7 7786.08 384.059 1
3 -1 7 14135.9 625.87 1
-3 1 7 13752.1 537.289 1
-1 -3 7 13665.4 615.117 1
3 0 7 380.887 119.529 1
0 -3 7 522.868 136.734 1
-3 0 7 381.905 95.1658 1
3 1 7 15904.4 674.063 1
-1 3 7 14850.2 578.925 1
1 -3 7 14988.4 652.938 1
-3 -1 7 15215.9 601.405 1
2 -3 7 7895.06 474.289 1
-3 -2 7 7841.96 453.333 1
-2 3 7 8281.57 424.72 1
-3 3 7 251.65 66.2244 1
3 -3 7 139.536 62.3513 1
7 -3 3 109.863 60.6945 1
7 -4 3 1144.9 162.225 1
-4 3 7 1307.87 149.737 1
4 -3 7 1344.29 203.727 1
7 -4 2 1418.08 157.728 1
4 -2 7 1673.28 225.08 1
-4 2 7 1660.73 174.563 1
-4 1 7 -160.297 83.3659 1
4 -1 7 -117.966 89.4224 1
7 -4 1 64.4442 42.7296 1
-1 -4 7 -27.8984 74.9395 1
4 0 7 2677.95 277.783 1
0 -4 7 2445.05 275.118 1
-4 0 7 2246.52 215.224 1
1 -4 7 45.9244 97.5506 1
4 1 7 75.1051 81.1837 1
-4 -1 7 -7.70956 67.2535 1
2 -4 7 1448.39 210.632 1
7 -2 4 1350 178.36 1
7 -3 4 1258.74 183.356 1
3 -4 7 1217.75 203.951 1
4 -7 3 1362.54 189.424 1
4 -4 7 3159.55 328.355 1
7 -4 4 3226.87 285.064 1
4 -7 4 3087.65 295.101 1
7 -5 4 6433.83 409.585 1
4 -7 5 6302.28 444.496 1
5 -4 7 6526.25 468.95 1
3 -7 5 2458.68 266.559 1
5 -3 7 2567 290.343 1
7 -5 3 2195.36 219.907 1
-5 3 7 2243.08 191.964 1
-5 2 7 232.788 75.672 1
5 -2 7 401.142 115.876 1
7 -5 2 448.153 91.1689 1
-5 1 7 654.75 115.658 1
5 -1 7 746.873 161.837 1
7 -5 1 690.944 104.499 1
5 0 7 74.9938 60.1286 1
0 -5 7 -106.997 100.206 1
7 -5 0 53.9817 36.1133 1
-5 0 7 -6.51921 48.9983 1
5 -7 1 901.608 132.481 1
-5 -1 7 688.95 126.263 1
1 -5 7 1016.51 167.869 1
2 -5 7 441.884 160.195 1
-7 2 5 277.636 59.0536 1
7 -2 5 218.401 72.3194 1
5 -7 2 361.804 94.8917 1
7 -3 5 2230.09 255.417 1
3 -5 7 2523.73 288.088 1
5 -7 3 2039.46 221.019 1
-7 3 5 1882.34 111.031 1
5 -7 4 6740.16 434.34 1
7 -4 5 6710.27 440.716 1
4 -5 7 6872.42 483.312 1
5 -7 5 6812.03 466.809 1
7 -5 5 7252.01 466.593 1
5 -5 7 7290.14 497.264 1
5 -7 6 1272 208.417 1
6 -5 7 1497.95 234.658 1
7 -6 5 1239.4 204.872 1
6 -4 7 3054.06 327.579 1
4 -7 6 3028.13 332.253 1
7 -6 4 3024.47 284.471 1
6 -3 7 1476.45 222.253 1
7 -6 3 1196.82 172.257 1
-6 3 7 1151.52 139.508 1
3 -7 6 1518.46 221.177 1
-6 2 7 2784.24 220.877 1
7 -6 2 2965.7 237.098 1
6 -2 7 3152.74 321.741 1
2 -7 6 3321.15 321.949 1
6 -7 -2 2737.78 150.491 1
6 -1 7 1273.97 209.081 1
6 -7 -1 1087.49 113.223 1
7 -6 1 1019.93 129.961 1
-6 1 7 921.924 137.694 1
-6 0 7 451.5 88.5422 1
7 -6 0 541.215 84.0061 1
6 -7 0 670.926 106.522 1
7 -6 -1 708.041 71.2857 1
-7 1 6 740.84 113.919 1
1 -6 7 679.563 132.541 1
6 -7 1 704.594 110.487 1
6 -7 2 3486.86 264.08 1
2 -6 7 3583.81 369.594 1
-7 2 6 3098.04 204.893 1
7 -2 6 3440.91 331.041 1
3 -6 7 1739.96 262.159 1
6 -7 3 1421.47 183.196 1
7 -3 6 1537.71 226.103 1
-7 3 6 1306.06 112.196 1
7 -4 6 2592.36 291.996 1
4 -6 7 2532.47 290.209 1
6 -7 4 2457.68 270.057 1
7 -5 6 1270.7 211.78 1
6 -7 5 1368.78 202.671 1
5 -6 7 1348.19 194.064 1
6 -6 7 370.011 135.97 1
7 -6 6 371.243 91.2251 1
6 -7 6 321.341 109.831 1
-7 0 7 1201.57 163.714 1
7 -7 0 1293.38 130.594 1
7 -7 1 599.854 91.7692 1
-7 1 7 616.92 111.203 1
1 -7 7 788.738 160.371 1
7 -7 -1 611.536 73.9746 1
7 -1 7 967.457 186.196 1
-7 2 7 880.526 118.321 1
7 -2 7 828.117 173.343 1
7 -7 2 906.956 143.434 1
2 -7 7 810.745 188.813 1
3 -7 7 2969.23 340.197 1
7 -3 7 2862.26 325.339 1
7 -7 3 2474.98 255.526 1
-7 3 7 2635.39 191.577 1
7 -4 7 174.267 64.6852 1
7 -7 4 220.65 99.1887 1
4 -7 7 385.104 150.657 1
7 -5 7 982.92 181.115 1
5 -7 7 1016.86 183.291 1
7 -7 5 921.215 168.504 1
6 -7 7 4607.08 423.861 1
7 -7 6 4532.47 399.115 1
7 -6 7 4338.07 408.142 1
7 -7 7 2908.08 347.368 1
0 0 8 6439.09 422.476 1
1 0 8 2855.37 287.681 1
0 -1 8 2594.03 283.344 1
0 1 8 2807.92 276.817 1
-1 0 8 2828.32 288.992 1
-1 1 8 500.355 117.695 1
-1 -1 8 286.833 99.2586 1
1 -1 8 322.563 118.691 1
1 1 8 180.602 107.602 1
-2 1 8 2620.75 250.816 1
1 2 8 3084.04 295.231 1
-1 -2 8 3245.78 298.83 1
2 -1 8 2826.85 302.036 1
0 2 8 3572.54 307.513 1
2 0 8 3681.13 340.76 1
0 -2 8 3762.19 346.637 1
-2 0 8 3759.55 312.431 1
-2 -1 8 2504.41 269.23 1
-1 2 8 2744.97 261.104 1
1 -2 8 2850.1 297.689 1
2 1 8 2542.04 267.036 1
2 -2 8 7000.59 480.045 1
-2 -2 8 6212.96 433.107 1
-2 2 8 6883.32 404.72 1
2 2 8 7249.84 472.651 1
-3 2 8 842.117 135.768 1
-2 -3 8 912.219 186.305 1
-1 -3 8 8613.25 519.12 1
3 -1 8 8356.29 524.738 1
-3 1 8 8428.49 458.761 1
0 -3 8 838.733 165.311 1
-3 0 8 1061.81 179.979 1
0 3 8 905.301 170.661 1
3 0 8 1185.94 235.065 1
1 -3 8 8039.45 506.809 1
-1 3 8 7861.98 443.753 1
3 1 8 7803.53 503.858 1
-3 -1 8 7751.7 464.687 1
-3 -2 8 1010.31 192.206 1
2 -3 8 1158.29 204.527 1
-2 3 8 1291.19 180.037 1
-3 3 8 190.931 41.6538 1
3 -3 8 -51.0728 79.0928 1
-3 -3 8 134.275 46.3983 1
4 -3 8 8408.46 589.326 1
8 -4 3 6865.8 395.031 1
-4 3 8 7129.59 389.361 1
4 -2 8 1124.02 205.544 1
-2 -4 8 939.298 175.312 1
-4 2 8 1125.07 156.552 1
-1 -4 8 303.198 117.077 1
-4 1 8 245.807 34.66 1
4 0 8 2933.51 310.878 1
0 -4 8 2937.69 320.044 1
-4 0 8 3275.01 276.001 1
-4 -1 8 414.958 137.872 1
1 -4 8 552.131 129.421 1
4 1 8 497.597 102.996 1
-4 -2 8 1013.06 173.717 1
2 -4 8 817.143 169.567 1
8 -3 4 7278.51 435.236 1
3 -4 8 7419.97 511.199 1
4 -4 8 883.404 168.446 1
8 -4 4 754.121 135.128 1
4 -8 4 656.128 135.104 1
4 -8 5 3262.32 331.459 1
5 -4 8 3475.08 359.876 1
8 -5 4 3276.26 297.277 1
8 -5 3 1501.3 188.592 1
-5 3 8 1513.11 182.302 1
5 -3 8 1625.45 250.99 1
8 -5 2 296.954 94.1278 1
-5 2 8 146.345 45.2169 1
5 -2 8 397.426 136.994 1
-1 -5 8 318.669 122.911 1
5 -1 8 549.881 118.176 1
-5 1 8 512.575 94.1518 1
8 -5 1 440.372 88.6135 1
0 -5 8 -71.7795 77.7711 1
5 0 8 154.005 102.811 1
-5 0 8 241.234 103.734 1
1 -5 8 543.787 167.556 1
-5 -1 8 781.188 149.802 1
-5 -2 8 201.818 106.835 1
2 -5 8 363.743 139.282 1
5 -8 2 190.232 89.2056 1
-8 2 5 187.056 32.6213 1
-8 3 5 1188.99 85.2438 1
8 -3 5 1546.54 232.859 1
3 -5 8 2039.53 277.832 1
5 -8 3 1561.19 210.719 1
5 -8 4 3542.63 329.758 1
8 -4 5 3459.34 329.931 1
4 -5 8 3803.37 375.864 1
8 -5 5 5054.88 397.04 1
5 -8 5 4828.82 411.021 1
5 -5 8 4858.46 424.089 1
5 -8 6 2524.3 295.74 1
6 -5 8 2993.77 356.44 1
8 -6 5 2587.79 293.36 1
6 -4 8 861.718 192.203 1
4 -8 6 947.144 192.977 1
8 -6 4 945.192 168.956 1
6 -3 8 3319.79 352.716 1
-6 3 8 3290.21 246.287 1
3 -8 6 3551.68 348.909 1
8 -6 3 3272.16 280.307 1
6 -2 8 -23.167 87.0715 1
8 -6 2 -35.4793 30.2282 1
-6 2 8 77.6937 51.6417 1
-6 1 8 537.113 105.671 1
8 -6 1 546.275 110.898 1
6 -1 8 723.683 170.207 1
8 -6 0 407.71 66.2717 1
6 -8 0 447.855 91.9659 1
6 0 8 374.356 131.664 1
0 -6 8 413.856 87.3447 1
-6 0 8 589.792 119.992 1
6 -8 1 684.061 123.024 1
1 -6 8 548.047 159.725 1
-6 -1 8 644.371 121.561 1
-8 2 6 15.8979 39.0021 1
6 -8 2 -35.3188 67.7866 1
2 -6 8 47.6696 97.1796 1
8 -3 6 3373.23 339.561 1
6 -8 3 3014.95 283.751 1
3 -6 8 3531.47 363.833 1
-8 3 6 2993.55 164.12 1
6 -8 4 617.699 135.641 1
4 -6 8 898.828 186.769 1
8 -4 6 599.575 130.889 1
5 -6 8 3048.93 346.395 1
6 -8 5 2676.01 299.489 1
8 -5 6 2770.18 307.881 1
6 -8 6 2287.41 287.737 1
6 -6 8 2112.94 295.152 1
8 -6 6 1947.82 260.206 1
6 -8 7 3551.48 374.121 1
7 -6 8 3832.45 401.677 1
8 -7 6 3640.64 370.384 1
5 -8 7 814.178 188.653 1
8 -7 5 963.998 172.573 1
7 -5 8 898.432 198.625 1
4 -8 7 631.157 181.133 1
8 -7 4 327.789 116.845 1
7 -4 8 563.621 133.109 1
3 -8 7 2031.44 282.681 1
-7 3 8 1902.66 186.542 1
8 -7 3 2003.84 217.89 1
7 -3 8 2048.79 273.233 1
7 -2 8 3204.97 355.667 1
-7 2 8 2800.42 240.72 1
8 -7 2 2457.76 231.037 1
7 -8 -2 2095.49 131.948 1
2 -8 7 2716.53 316.752 1
7 -1 8 3168.63 354.715 1
-7 1 8 2314.72 225.384 1
7 -8 -1 2355.65 170.255 1
8 -7 1 2298.44 199.327 1
0 -7 8 592.025 171.084 1
8 -7 0 483.805 79.2506 1
-7 0 8 557.689 137.032 1
7 -8 0 468.537 84.7022 1
-8 1 7 2163.87 214.42 1
1 -7 8 2513.49 320.958 1
-7 -1 8 2199.23 243.379 1
7 -8 1 2145.43 207.632 1
8 -7 -1 1496.29 106.912 1
2 -7 8 3043.01 359.19 1
-8 2 7 2942.74 215.593 1
8 -2 7 3336.72 360.868 1
7 -8 2 2896.08 261.026 1
-8 3 7 1900.42 152.543 1
8 -3 7 2318.24 304.409 1
7 -8 3 1848.26 229.433 1
3 -7 8 2460.83 331.51 1
4 -7 8 451.091 157.162 1
7 -8 4 400.282 106.518 1
8 -4 7 444.489 113.355 1
7 -8 5 532.646 138.472 1
5 -7 8 864.526 226.063 1
8 -5 7 668.868 168.844 1
7 -8 6 3473.43 360.364 1
6 -7 8 3842.41 401.325 1
8 -6 7 3681.08 393.366 1
7 -8 7 1442.26 244.274 1
7 -7 8 1357.13 252.401 1
8 -7 7 1429.97 250.625 1
-8 0 8 4804.2 353.616 1
8 -8 0 4736.86 260.948 1
1 -8 8 717.98 202.912 1
8 -8 -1 511.598 73.4931 1
-8 1 8 563.121 105.895 1
8 -8 1 607.183 105.584 1
-8 2 8 512.563 102.234 1
8 -8 2 444.451 89.4738 1
8 -2 8 699.539 144.617 1
2 -8 8 531.83 173.937 1
-8 3 8 572.051 102.033 1
8 -3 8 495.628 137.395 1
3 -8 8 471.166 143.222 1
8 -8 3 547.74 135.465 1
8 -4 8 362.787 143.9 1
4 -8 8 567.12 183.295 1
8 -8 4 444.287 128.844 1
8 -8 5 2965.88 321.901 1
8 -5 8 3462.11 387.218 1
5 -8 8 2921.75 361.418 1
8 -8 6 4964.52 438.115 1
6 -8 8 4737.74 447.3 1
8 -6 8 4852.37 461.554 1
8 -8 7 -73.8719 76.1522 1
7 -8 8 -73.8013 77.2347 1
8 -7 8 128.559 78.784 1
8 -8 8 1661.9 272.837 1
0 0 9 -16.1337 51.0917 1
-1 0 9 882.507 175.581 1
1 0 9 814.345 158.152 1
0 -1 9 1222.14 205.328 1
0 1 9 999.231 165.022 1
-1 -1 9 1062.42 184.381 1
-1 1 9 929.005 197.128 1
1 -1 9 1073.24 208.182 1
1 1 9 782.968 143.697 1
1 2 9 2353.88 277.799 1
2 -1 9 2199.47 270.567 1
-1 -2 9 2386.85 271.251 1
-2 1 9 2157.86 262.06 1
0 2 9 359.54 94.8827 1
-2 0 9 380.699 115.731 1
2 0 9 248.408 82.9572 1
0 -2 9 265.062 104.047 1
2 1 9 2857.4 325.126 1
-1 2 9 2662.32 279.629 1
1 -2 9 2469.82 291.402 1
-2 -1 9 2863.77 301.509 1
-2 2 9 28.5489 59.9257 1
2 -2 9 61.4078 86.3483 1
-2 -2 9 92.9164 101.46 1
2 2 9 59.7915 62.4718 1
-3 2 9 666.909 134.192 1
3 -2 9 429.9 125.657 1
-3 1 9 4072.52 342.513 1
3 -1 9 4263.68 384.344 1
-1 -3 9 4670.93 407.627 1
-3 0 9 3290.84 312.694 1
0 3 9 3171.29 320.05 1
0 -3 9 3194.77 333.012 1
3 0 9 2974.42 342.339 1
3 1 9 4840.77 428.433 1
-3 -1 9 4292.76 369.36 1
1 -3 9 4362.2 404.764 1
-1 3 9 4569.3 372.434 1
-2 3 9 601.15 115.423 1
3 2 9 490.336 115.361 1
-3 -2 9 474.441 135.239 1
2 -3 9 429.133 124.517 1
3 -3 9 160.419 67.1744 1
-3 3 9 380.325 104.953 1
4 -3 9 8102.58 554.609 1
-4 3 9 7883.71 443.861 1
-3 -4 9 8817.84 554.457 1
-2 -4 9 13719.3 696.711 1
-4 2 9 12147.6 563.287 1
4 -2 9 12913.3 686.999 1
4 -1 9 2204.73 301.074 1
-4 1 9 2097.05 244.913 1
-1 -4 9 1796.93 253.904 1
0 -4 9 4349.84 402.692 1
-4 0 9 4324.2 355.416 1
4 0 9 4242.36 403.099 1
4 1 9 2079.95 290.412 1
-4 -1 9 1967.81 242.043 1
1 -4 9 1896.52 275.287 1
2 -4 9 12307.2 674.914 1
-4 -2 9 12022.4 623.963 1
-4 -3 9 7469.51 509.561 1
3 -4 9 8079.99 561.452 1
4 -4 9 2566.92 312.327 1
-4 4 9 2131.07 230.598 1
-4 -4 9 2209.13 307.475 1
-5 4 9 309.598 86.3329 1
4 -9 5 295.015 74.7343 1
9 -5 4 250.038 45.0004 1
5 -4 9 265.417 72.7061 1
-5 3 9 984.912 159.818 1
-3 -5 9 973.809 190.227 1
9 -5 3 987.112 162.637 1
5 -3 9 1195.03 211.133 1
-5 2 9 1372.49 183.003 1
5 -2 9 1629.31 264.893 1
-2 -5 9 1034.83 205.66 1
5 -1 9 623.652 176.457 1
-5 1 9 604.801 139.01 1
-1 -5 9 318.885 135.109 1
5 0 9 614.712 171.201 1
0 -5 9 897.148 216.741 1
-5 0 9 658.426 144.466 1
1 -5 9 916.704 205.911 1
-5 -1 9 698.919 133.653 1
2 -5 9 1393.73 235.878 1
-5 -2 9 1400.55 215.921 1
-5 -3 9 1062.92 189.042 1
5 -9 3 1069.26 186.953 1
3 -5 9 1085.49 217.152 1
9 -4 5 317.216 108.545 1
4 -5 9 268.103 128.637 1
5 -9 4 267.587 105.046 1
5 -5 9 589.272 164.747 1
9 -5 5 452.76 129.636 1
5 -9 5 737.997 164.061 1
9 -6 5 4123.74 379.784 1
5 -9 6 3987.36 400.547 1
6 -5 9 3983.4 416.141 1
-6 4 9 179.573 49.8313 1
6 -4 9 189.911 89.9996 1
9 -6 4 340.351 110.751 1
4 -9 6 148.007 65.9258 1
3 -9 6 296.229 117.898 1
9 -6 3 187.66 75.145 1
-6 3 9 317.729 94.4245 1
6 -3 9 273.3 115.862 1
-2 -6 9 3566.24 389.778 1
6 -2 9 3931.8 414.594 1
9 -6 2 3319.62 262.909 1
-6 2 9 3498.65 278.61 1
6 -1 9 169.955 102.521 1
-6 1 9 76.0653 72.4732 1
6 0 9 5609.85 491.983 1
0 -6 9 4493.62 435.611 1
-6 0 9 4814.69 366.034 1
6 -9 1 117.34 49.4349 1
1 -6 9 -40.5291 121.348 1
-6 -1 9 153.83 84.9916 1
2 -6 9 3282.07 378.019 1
-9 2 6 2774.28 194.511 1
6 -9 2 3199.06 293.25 1
-6 -2 9 3312.27 325.866 1
6 -9 3 223.988 107.122 1
-9 3 6 268.801 51.7731 1
3 -6 9 362.612 146.809 1
9 -4 6 556.763 117.203 1
6 -9 4 372.374 123.482 1
4 -6 9 596.362 181.837 1
6 -9 5 4421.6 408.929 1
5 -6 9 4522.57 443.407 1
9 -5 6 4143.06 393.498 1
6 -9 6 1197.48 222.428 1
6 -6 9 1299.14 246.516 1
9 -6 6 1278.82 235.307 1
7 -6 9 1511.18 290.132 1
9 -7 6 1207.83 228.794 1
6 -9 7 1161.68 225.366 1
5 -9 7 1327.44 246.012 1
7 -5 9 1198.69 245.716 1
9 -7 5 1182.48 206.779 1
4 -9 7 4908.38 463.024 1
9 -7 4 4590.21 371.021 1
-7 4 9 4765.11 299.986 1
7 -4 9 5156.22 470.816 1
7 -3 9 -114.367 148.159 1
3 -9 7 -35.7945 79.6142 1
7 -9 -3 39.6413 28.6492 1
-7 3 9 22.8442 39.0917 1
9 -7 3 41.7027 32.1548 1
9 -7 2 535.468 126.934 1
-7 2 9 466.12 111.301 1
2 -9 7 459.85 141.547 1
7 -9 -2 479.678 81.2702 1
7 -2 9 431.834 157.866 1
-7 1 9 1355.62 192.683 1
7 -1 9 1317.43 228.063 1
9 -7 1 1115.07 133.424 1
-1 -7 9 1026.66 219.336 1
7 -9 -1 1256.23 139.932 1
7 -9 0 -34.2376 26.8632 1
-7 0 9 -44.3594 49.8442 1
0 -7 9 -95.8545 120.704 1
-7 -1 9 1213.46 192.469 1
1 -7 9 1200.37 238.018 1
-9 1 7 1181.5 142.599 1
7 -9 1 937.205 139.644 1
7 -9 2 446.817 99.2015 1
-9 2 7 541.995 94.0325 1
2 -7 9 508.313 146.317 1
-7 -2 9 634.645 159.376 1
9 -3 7 -11.4619 56.8539 1
7 -9 3 119.293 71.849 1
-9 3 7 13.1559 29.9018 1
9 -4 7 4970.57 457.808 1
7 -9 4 4372.75 381.416 1
4 -7 9 4068.97 409.974 1
9 -5 7 1489.58 247.533 1
7 -9 5 1426.77 229.277 1
5 -7 9 1473.81 253.431 1
7 -9 6 755.359 159.899 1
6 -7 9 887.458 218.962 1
9 -6 7 1081.96 221.928 1
7 -7 9 519.417 177.356 1
9 -7 7 625.726 167.09 1
7 -9 7 456.44 103.494 1
9 -8 7 1984.08 291.486 1
7 -9 8 2112.56 309.733 1
8 -7 9 2223.76 339.418 1
9 -8 6 540.292 144.665 1
8 -6 9 509.141 139.936 1
6 -9 8 496.438 174.122 1
5 -9 8 1820.61 295.785 1
8 -5 9 1938.29 314.45 1
9 -8 5 1864.66 267.619 1
8 -4 9 1349.6 272.207 1
9 -8 4 1074.71 192.6 1
-8 4 9 1171.01 142.263 1
4 -9 8 1165.97 222.455 1
8 -3 9 530.735 171.61 1
-8 3 9 477.178 93.1989 1
9 -8 3 585.711 132.948 1
3 -9 8 582.258 211.149 1
9 -8 2 1620.48 196.435 1
8 -9 -2 986.519 84.9988 1
2 -9 8 1247.67 224.35 1
8 -2 9 1952.34 289.926 1
-8 2 9 1497.41 191.961 1
1 -9 8 740.624 192.932 1
9 -8 1 835.353 116.481 1
8 -9 -1 793.826 102.005 1
-8 1 9 737.963 136.821 1
8 -9 0 638.872 101.152 1
-8 0 9 615.258 139.584 1
-9 0 8 621.938 143.932 1
9 -8 0 621.136 92.1806 1
0 -8 9 810.185 219.049 1
-9 1 8 557.695 118.768 1
-8 -1 9 554.774 120.16 1
8 -9 1 517.704 102.015 1
1 -8 9 487.607 189.65 1
-9 2 8 1679.77 177.926 1
8 -9 2 1689.8 206.76 1
2 -8 9 1502.07 254.896 1
8 -9 3 800.456 158.626 1
3 -8 9 848.168 207.318 1
9 -3 8 843.681 188.413 1
-9 3 8 722.724 105.854 1
4 -8 9 1165.7 234.799 1
9 -4 8 776.617 158.29 1
8 -9 4 1068.31 189.15 1
5 -8 9 1989.02 305.598 1
9 -5 8 1971.55 291.03 1
8 -9 5 2028.32 284.166 1
8 -9 6 357.687 101.054 1
6 -8 9 517.776 183.247 1
9 -6 8 397.645 164.948 1
7 -8 9 1906.89 299.473 1
9 -7 8 2236.38 319.286 1
8 -9 7 1959.71 286.282 1
9 -8 8 7081.2 579.836 1
8 -9 8 6984.05 594.561 1
8 -8 9 7043.27 598.853 1
9 -9 0 106.772 25.5035 1
0 -9 9 128.643 61.1691 1
-9 0 9 156.363 49.9815 1
-9 -1 9 624.485 156.814 1
1 -9 9 756.309 223.465 1
9 -9 -1 393.013 62.8947 1
9 -9 1 720.503 128.555 1
-9 1 9 379.595 90.9402 1
2 -9 9 785.49 199.917 1
-9 2 9 735.572 143.765 1
9 -9 2 797.396 141.898 1
9 -9 3 61.3114 36.6808 1
-9 3 9 387.016 102.932 1
3 -9 9 416.12 163.795 1
9 -3 9 274.531 145.633 1
9 -9 4 169.683 79.6921 1
4 -9 9 199.803 113.536 1
9 -4 9 305.034 169.644 1
5 -9 9 1443.24 277.853 1
9 -9 5 1470.19 238.544 1
9 -5 9 1247.74 261.54 1
6 -9 9 1262.44 286.027 1
9 -6 9 1440.93 269.636 1
9 -9 6 1097.01 224.214 1
7 -9 9 1935.14 319.465 1
9 -9 7 2068.06 308.785 1
9 -7 9 1968.91 308.346 1
8 -9 9 1474.06 300.781 1
9 -8 9 1220.89 249.813 1
9 -9 8 1204.97 236.181 1
9 -9 9 7488.67 636.528 1
0 0 10 -72.5101 57.631 1
0 1 10 387.326 108.345 1
0 -1 10 547.912 135.754 1
1 0 10 522.36 167.489 1
-1 0 10 549.67 142.844 1
1 1 10 194.568 94.2628 1
-1 1 10 277.816 95.1204 1
-1 -1 10 -5.22999 46.5029 1
1 -1 10 67.6017 110.618 1
-1 -2 10 1224.87 201.385 1
1 2 10 1225.44 215.343 1
-2 1 10 1094.81 170.665 1
2 -1 10 1414.16 254.121 1
2 0 10 6809.84 510.745 1
0 -2 10 6007.4 469.085 1
-2 0 10 6258.96 459.849 1
0 2 10 6195.04 466.836 1
-1 2 10 1317.87 212.518 1
1 -2 10 1043.21 210.028 1
2 1 10 981.822 173.884 1
-2 -1 10 1253.62 209.156 1
2 2 10 -197.486 120.453 1
-2 -2 10 -97.7504 123.212 1
2 -2 10 102.742 128.485 1
-2 2 10 -0.68159 51.2492 1
-2 -3 10 2969.29 333.778 1
-3 2 10 3023.1 318.518 1
3 -2 10 3101.94 363.272 1
-1 -3 10 1299.69 238.419 1
3 -1 10 1228.36 228.679 1
-3 1 10 1547.53 219.856 1
0 3 10 -38.3768 62.7735 1
3 0 10 -122.786 147.58 1
0 -3 10 140.742 57.567 1
-3 0 10 93.7554 82.9864 1
-3 -1 10 1199.78 215.876 1
-1 3 10 1245.42 212.463 1
1 -3 10 1543.65 267.322 1
3 1 10 1335.41 225.398 1
3 2 10 3083.28 339.473 1
-3 -2 10 3214.11 339.288 1
2 -3 10 3196.76 360.311 1
-2 3 10 2891.79 311.502 1
-3 3 10 18250.6 747.062 1
-3 -3 10 18470.6 841.42 1
3 -3 10 17646 858.178 1
-3 -4 10 793.733 177.037 1
-4 3 10 769.314 148.137 1
4 -3 10 913.679 221.681 1
4 -2 10 2493.92 321.165 1
-2 -4 10 2641.61 335.669 1
-4 2 10 2445 261.134 1
-4 1 10 1927.49 236.05 1
4 -1 10 1900.18 287.589 1
-1 -4 10 1902.9 274.297 1
-4 0 10 2019.16 257.474 1
0 -4 10 1484.81 233.586 1
4 0 10 1959.29 282.66 1
-4 -1 10 2100.65 255.371 1
4 1 10 2239.92 312.898 1
1 -4 10 2279.26 307.694 1
2 -4 10 2826.46 353.248 1
-4 -2 10 2844.1 311.575 1
3 -4 10 738.934 187.789 1
-4 -3 10 956.685 173.505 1
-4 4 10 976.014 180.502 1
4 -4 10 844.553 187.592 1
-4 -4 10 962.297 212.41 1
-5 4 10 3510.77 313.275 1
5 -4 10 3827.39 418.026 1
4 -10 5 3325.8 353.929 1
-4 -5 10 3500.52 384.998 1
-5 3 10 1348.86 187.673 1
5 -3 10 1606.92 276.69 1
-3 -5 10 1234.19 239.918 1
-5 2 10 798.429 161.635 1
5 -2 10 453.405 146.318 1
-2 -5 10 592.183 183.966 1
-1 -5 10 3631.34 392.531 1
5 -1 10 3729.81 407.006 1
-5 1 10 3629.16 338.703 1
0 -5 10 38.0038 51.0983 1
-5 0 10 -12.7913 44.7266 1
1 -5 10 3647.81 394.87 1
-5 -1 10 3811.19 356.692 1
5 1 10 3693.66 406.38 1
-5 -2 10 360.932 113.543 1
2 -5 10 574.64 150.009 1
3 -5 10 1261.27 241.179 1
-5 -3 10 1161.19 224.492 1
5 -10 4 3535.98 356.45 1
4 -5 10 4078.93 427.276 1
-5 -4 10 3967.67 404.706 1
10 -5 5 226.577 62.1689 1
5 -10 5 362.178 100.585 1
5 -5 10 297.797 137.053 1
6 -5 10 3237.23 402.872 1
5 -10 6 2763.51 343.673 1
10 -6 5 2750.6 311.398 1
-6 4 10 505.639 124.211 1
10 -6 4 387.725 141.948 1
4 -10 6 566.135 178.025 1
6 -4 10 452.858 172.055 1
-3 -6 10 1366.21 254.904 1
6 -3 10 1614.04 268.489 1
-6 3 10 1478.16 193.748 1
6 -2 10 1011.71 229.069 1
-2 -6 10 1159.81 222.41 1
-6 2 10 1061.9 172.983 1
6 -1 10 864.858 229.575 1
-1 -6 10 774.049 199.662 1
-6 1 10 725.928 149.365 1
0 -6 10 3861.3 435.498 1
6 0 10 4282.68 437.992 1
-6 0 10 3839.45 338.444 1
-6 -1 10 607.868 135.624 1
6 -10 1 592.231 121.439 1
1 -6 10 755.43 206.447 1
-6 -2 10 1032.41 199.363 1
6 -10 2 1182.2 194.383 1
2 -6 10 1231.67 199.582 1
-10 2 6 1000.29 117.816 1
-10 3 6 906.443 80.9692 1
-6 -3 10 1373.85 255.078 1
6 -10 3 1326.03 210.189 1
3 -6 10 1399.86 261.199 1
6 -10 4 286.847 92.7141 1
-6 -4 10 424.895 141.344 1
4 -6 10 331.904 115.053 1
10 -5 6 2837.52 338.104 1
5 -6 10 2890.07 369.763 1
6 -10 5 2684.43 310.194 1
10 -6 6 1957.17 283.78 1
6 -10 6 1962.9 289.345 1
6 -6 10 1994.39 319.288 1
6 -10 7 711.283 188.269 1
10 -7 6 470.698 149.131 1
7 -6 10 415.504 53.3164 1
10 -7 5 441.429 116.544 1
7 -5 10 749.23 167.801 1
5 -10 7 623.725 178.012 1
4 -10 7 886.454 196.404 1
-7 4 10 823.041 150.205 1
7 -4 10 736.676 213.031 1
10 -7 4 809.012 166.775 1
-7 3 10 3479.46 296.436 1
10 -7 3 3145.74 293.972 1
3 -10 7 3781.05 424.201 1
7 -3 10 3587.54 416.513 1
10 -7 2 -20.4735 69.0448 1
-7 2 10 -23.7148 64.1033 1
7 -2 10 83.9341 165.32 1
-2 -7 10 167.857 133.688 1
7 -10 -2 29.4334 36.7607 1
-7 1 10 3174.3 308.669 1
7 -10 -1 3105.52 240.014 1
7 -1 10 3435.13 417.122 1
-1 -7 10 3247.94 402.081 1
7 -10 0 651.113 134.123 1
-7 0 10 929.686 150.425 1
0 -7 10 600.812 177.3 1
-10 1 7 3080.34 256.135 1
1 -7 10 3322.55 397.117 1
7 -10 1 3145.06 286.691 1
-7 -1 10 3303.41 350.01 1
-10 2 7 103.329 47.7558 1
7 -10 2 162.032 62.8985 1
-7 -2 10 161.692 69.1748 1
2 -7 10 151.916 151.946 1
3 -7 10 3869.89 435.332 1
7 -10 3 3746.27 344.14 1
-7 -3 10 3621.9 382.669 1
-10 3 7 2753.71 169.826 1
10 -4 7 974.145 210.662 1
7 -10 4 854.392 175.666 1
4 -7 10 905.318 209.484 1
5 -7 10 545.857 172.682 1
7 -10 5 265.643 96.3868 1
10 -5 7 464.341 157.273 1
10 -6 7 747.852 167.278 1
7 -10 6 725.347 184.535 1
6 -7 10 708.554 192.479 1
7 -10 7 1404.2 273.232 1
7 -7 10 1610.42 318.201 1
10 -7 7 1387.14 260.692 1
8 -7 10 3522.96 430.424 1
7 -10 8 3308.41 392.996 1
10 -8 7 3609.66 415.064 1
8 -6 10 651.113 167.881 1
10 -8 6 622.047 163.049 1
6 -10 8 730.203 193.517 1
10 -8 5 969.398 195.474 1
8 -5 10 491.884 154.124 1
5 -10 8 685.599 189.747 1
8 -4 10 1451.99 274.984 1
4 -10 8 1140.11 237.532 1
10 -8 4 1125.9 196.942 1
-8 4 10 1210.31 170.416 1
3 -10 8 624.611 183.63 1
10 -8 3 610.026 128.474 1
8 -3 10 661.194 236.246 1
-8 3 10 460.579 113.153 1
10 -8 2 91.375 42.4899 1
2 -10 8 207.694 101.383 1
8 -10 -2 138.89 40.4107 1
-8 2 10 109.732 61.6947 1
8 -2 10 129.521 76.8539 1
-2 -8 10 134.718 123.92 1
10 -8 1 67.8927 48.0362 1
8 -10 -1 25.9554 20.9662 1
-8 1 10 39.649 35.854 1
-1 -8 10 126.206 87.5927 1
8 -10 0 313.734 48.9509 1
0 -8 10 459.682 149.978 1
-8 0 10 296.88 76.1823 1
-10 0 8 259.842 85.4413 1
-8 -1 10 -67.9097 108.04 1
-10 1 8 103.115 72.7752 1
1 -8 10 49.7787 71.8221 1
8 -10 1 160.852 72.8889 1
2 -8 10 178.223 122.925 1
8 -10 2 138.221 76.6696 1
-10 2 8 220.61 77.0286 1
-8 -2 10 47.5934 70.3166 1
-10 3 8 671.785 95.4287 1
8 -10 3 733.933 155.632 1
-8 -3 10 611.905 160.641 1
3 -8 10 619.643 179.565 1
4 -8 10 995.773 182.752 1
8 -10 4 1310.82 221.969 1
10 -4 8 1085.47 209.676 1
5 -8 10 839.167 225.784 1
8 -10 5 908.919 189.769 1
10 -5 8 768.491 197.537 1
6 -8 10 481.908 142.48 1
10 -6 8 528.227 146.265 1
8 -10 6 848.848 203.288 1
10 -7 8 3460.26 403.645 1
7 -8 10 3482.9 446.97 1
8 -10 7 3286.83 383.994 1
8 -10 8 2545.7 364.102 1
10 -8 8 3032.2 379.677 1
8 -8 10 2704.48 390.511 1
10 -9 8 117.717 55.7388 1
8 -10 9 296.572 167.78 1
9 -8 10 263.587 117.14 1
10 -9 7 3148.86 383.468 1
9 -7 10 3156.32 414.796 1
7 -10 9 3279.28 414.084 1
9 -6 10 842.036 199.003 1
6 -10 9 1061.17 268.785 1
10 -9 6 993.302 190.832 1
10 -9 5 442.923 121.121 1
9 -5 10 546.212 205.442 1
5 -10 9 527.881 178.475 1
4 -10 9 20.524 92.7163 1
10 -9 4 -47.946 47.4291 1
9 -4 10 140.008 134.871 1
9 -3 10 330.276 142.814 1
3 -10 9 431.578 160.779 1
-9 3 10 429.974 90.6397 1
10 -9 3 431.956 127.097 1
10 -9 2 115.777 49.0139 1
-9 2 10 33.1973 29.2393 1
2 -10 9 5.72622 101.6 1
-10 -1 9 1138.08 211.936 1
1 -10 9 1405.72 283.696 1
-1 -9 10 1265.83 265.009 1
-9 1 10 963.712 157.596 1
9 -10 -1 794.396 97.3718 1
10 -9 1 923.629 127.314 1
9 -10 0 117.689 44.6107 1
-9 0 10 48.6346 41.9255 1
-10 0 9 123.18 38.8698 1
-9 -1 10 730.405 139.378 1
1 -9 10 967.912 219.589 1
-10 1 9 995.525 162.92 1
9 -10 1 1124.73 147.786 1
-9 -2 10 21.0851 93.7505 1
2 -9 10 94.6453 100.046 1
-10 2 9 141.689 54.0182 1
9 -10 2 31.2721 63.8435 1
3 -9 10 361.143 118.387 1
-10 3 9 228.12 66.0839 1
9 -10 3 236.908 86.7058 1
4 -9 10 -51.9111 96.6077 1
9 -10 4 64.0834 41.3475 1
10 -5 9 604.207 153.805 1
5 -9 10 747.506 222.84 1
9 -10 5 716.02 173.474 1
6 -9 10 1265.25 270.081 1
10 -6 9 1236.52 275.781 1
9 -10 6 1029.31 220.749 1
9 -10 7 3527.8 413.061 1
10 -7 9 3944.75 464.521 1
7 -9 10 3882.57 459.971 1
9 -10 8 273.009 127.038 1
8 -9 10 87.7991 92.7212 1
10 -8 9 149.925 108.229 1
9 -10 9 -54.2991 148.044 1
9 -9 10 244.45 140.653 1
10 -9 9 -1.77003 117.587 1
10 -10 0 148.546 43.7756 1
-10 0 10 173.203 101.262 1
0 -10 10 182.139 92.6445 1
-10 -1 10 268.052 119.735 1
-1 -10 10 321.469 141.275 1
1 -10 10 239.667 113.432 1
10 -10 1 215.245 82.1048 1
-10 1 10 269.549 90.5346 1
10 -10 2 88.1263 75.4388 1
2 -10 10 191.078 141.694 1
-10 -2 10 114.043 66.903 1
-10 2 10 120.087 55.8853 1
-10 3 10 -10.5183 45.4572 1
10 -10 3 69.3575 87.3162 1
3 -10 10 99.9199 91.0145 1
4 -10 10 31.3475 79.1619 1
10 -4 10 -82.685 56.8854 1
10 -10 4 1.32074 56.7753 1
5 -10 10 858.15 237.631 1
10 -5 10 912.097 210.506 1
10 -10 5 1045.47 203.554 1
10 -6 10 2455.29 359.34 1
6 -10 10 2587.3 403.033 1
10 -10 6 2458.72 336.747 1
10 -10 7 1498.76 266.821 1
7 -10 10 1701.29 329.13 1
10 -7 10 1433.62 260.045 1
10 -10 8 -47.2913 98.0843 1
8 -10 10 63.567 101.86 1
10 -8 10 -55.1848 122.52 1
10 -10 9 2399.17 386.671 1
9 -10 10 1944.56 331.204 1
10 -9 10 2324 391.542 1
10 -10 10 -60.7041 125.267 1
0 0 11 208.878 122.813 1
-1 0 11 894.65 175.036 1
0 1 11 1016.05 201.613 1
0 -1 11 877.26 174.658 1
1 0 11 818.205 190.485 1
1 1 11 435.199 139.111 1
1 -1 11 577.117 199.463 1
-1 1 11 608.647 171.825 1
-1 -1 11 847.245 231.439 1
-1 -2 11 1068.42 212.198 1
2 -1 11 1016.03 224.996 1
-2 1 11 1013.46 200.189 1
0 -2 11 281.713 127.473 1
-2 0 11 175.763 110.811 1
2 0 11 110.023 108.15 1
0 2 11 182.474 111.046 1
-2 -1 11 922.15 181.382 1
-1 2 11 1064.02 227.686 1
1 -2 11 1322.11 266.406 1
2 1 11 1151.01 231.246 1
-2 -2 11 11563 686.189 1
-2 2 11 11913.5 656.164 1
2 2 11 12179.5 717.181 1
2 -2 11 11974.2 727.545 1
3 -2 11 1703.73 289.039 1
-3 2 11 1221.16 221.624 1
-2 -3 11 1174.67 250.602 1
1 3 11 3757.41 391.875 1
-3 1 11 3460.19 356.119 1
3 -1 11 3733.54 410.462 1
-1 -3 11 3641.14 390.707 1
-3 0 11 -39.3759 67.6459 1
3 0 11 173.556 127.459 1
0 3 11 -71.5773 82.845 1
0 -3 11 -42.8462 94.6001 1
-3 -1 11 3998.1 399.499 1
-1 3 11 3807.17 379.867 1
1 -3 11 3843.36 396.034 1
3 1 11 4175.76 433.741 1
-3 -2 11 1152.23 217.998 1
3 2 11 1279.62 244.204 1
2 -3 11 1201.29 240.932 1
-2 3 11 1360.94 212.919 1
-3 3 11 2423.61 281.902 1
-3 -3 11 2763.14 319.914 1
3 -3 11 2483.5 331.49 1
4 -3 11 1090.36 231.017 1
-4 3 11 1235.73 195.837 1
-3 -4 11 1657.08 269.98 1
-2 -4 11 3362.78 379.451 1
-4 2 11 3097.14 327.636 1
4 -2 11 3148.74 383.856 1
-1 -4 11 814.634 215.486 1
4 -1 11 897.316 233.8 1
-4 1 11 829.574 159.997 1
-4 0 11 1816.11 276.84 1
4 0 11 1862.08 295.126 1
0 -4 11 1650.45 272.504 1
-4 -1 11 799.225 180.531 1
1 -4 11 809.842 218.35 1
4 1 11 762.769 155.087 1
2 -4 11 2740.73 343.578 1
-4 -2 11 3020.78 347.44 1
-4 -3 11 1140.84 213.394 1
3 -4 11 1175.4 248.94 1
4 -4 11 4128.06 444.199 1
-4 -4 11 3888.92 425.983 1
-4 4 11 3803.13 349.669 1
5 -4 11 3431.66 403.274 1
-5 4 11 2966.11 302.044 1
-4 -5 11 2915.22 374.876 1
5 -3 11 182.618 127.944 1
-3 -5 11 240.519 131.953 1
-5 3 11 213.593 100.79 1
-5 2 11 1133.82 181.108 1
5 -2 11 1181.65 237.481 1
-2 -5 11 1252.35 236.198 1
5 -1 11 3305.61 408.16 1
-5 1 11 3199.31 348.051 1
-1 -5 11 3249.05 395.008 1
5 0 11 2062.58 294.503 1
-5 0 11 1982.29 252.466 1
0 -5 11 1871.34 278.305 1
5 1 11 3295.21 392.618 1
-5 -1 11 3452.37 355.861 1
1 -5 11 3313.28 386.607 1
-5 -2 11 990.702 190.955 1
2 -5 11 672.6 138.898 1
-5 -3 11 339.2 108.3 1
3 -5 11 131.807 77.9659 1
5 -11 4 3253.15 349.034 1
-5 -4 11 3395.01 390.9 1
4 -5 11 3181.9 396.631 1
5 -11 5 76.8353 73.4106 1
5 -5 11 109.467 82.4174 1
-5 -5 11 132.346 111.598 1
-5 -6 11 541.331 165.017 1
6 -5 11 653.806 195.141 1
5 -11 6 570.777 179.254 1
6 -4 11 1184.79 271.735 1
-4 -6 11 1077.37 202.552 1
4 -11 6 1401.18 290.524 1
-6 4 11 1411.94 206.593 1
-3 -6 11 1314.85 252.87 1
-6 3 11 1248.19 180.529 1
6 -3 11 1498.47 286.63 1
-2 -6 11 4189.15 468.547 1
-6 2 11 4261.46 366.954 1
6 -2 11 4080.54 438.776 1
-6 1 11 234.941 102.763 1
-1 -6 11 197.25 131.361 1
6 -1 11 329.92 125.669 1
-6 0 11 4724.39 411.295 1
0 -6 11 5518.71 515.993 1
6 0 11 5403.14 508.926 1
-6 -1 11 351.578 111.062 1
1 -6 11 482.524 179.141 1
6 -11 2 3771.13 357.108 1
-11 2 6 3631.63 229.199 1
2 -6 11 4669.5 478.195 1
-6 -2 11 4042.3 407.343 1
6 -11 3 1158.61 217.03 1
-6 -3 11 1327.6 249.298 1
3 -6 11 1203.68 247.709 1
6 -11 4 1219.42 215.164 1
-6 -4 11 1190.44 243.058 1
4 -6 11 1172.74 223.391 1
6 -11 5 593.395 175.901 1
-6 -5 11 613.361 167.688 1
5 -6 11 647.674 171.508 1
6 -11 6 614.07 187.314 1
6 -6 11 813.579 204.746 1
11 -6 6 577.895 164.347 1
11 -7 6 1517.56 260.845 1
6 -11 7 1326.9 238.096 1
7 -6 11 1381.61 284.164 1
11 -7 5 955.06 187.625 1
5 -11 7 806.935 183.511 1
7 -5 11 921.457 167.913 1
7 -4 11 830.484 205.694 1
11 -7 4 871.809 180.062 1
-4 -7 11 1024.63 244.313 1
4 -11 7 757.106 184.19 1
-7 4 11 881.996 165.646 1
-7 3 11 525.951 127.447 1
7 -3 11 442.829 96.0251 1
3 -11 7 473.797 179.011 1
-3 -7 11 392.699 136.006 1
7 -2 11 967.964 234.89 1
-7 2 11 930.808 172.044 1
-2 -7 11 817.602 240.62 1
7 -1 11 1138.47 233.047 1
-7 1 11 827.302 162.841 1
7 -11 -1 802.255 127.65 1
-1 -7 11 832.356 224.497 1
-7 0 11 135.373 76.6131 1
7 -11 0 67.1788 70.9622 1
0 -7 11 141.679 146.955 1
7 -11 1 1294.33 195.551 1
-7 -1 11 1044.68 198.739 1
1 -7 11 1203.66 245.623 1
-7 -2 11 929.976 168.965 1
-11 2 7 821.441 112.6 1
2 -7 11 1149.18 248.08 1
7 -11 2 1018.08 182.214 1
7 -11 3 394.962 115.89 1
-7 -3 11 425.374 109.107 1
3 -7 11 484.958 146.371 1
4 -7 11 608.36 171.085 1
7 -11 4 790.399 171.453 1
-7 -4 11 798.153 182.144 1
5 -7 11 802.534 185.694 1
-7 -5 11 1023.5 227.044 1
7 -11 5 1143.45 223.798 1
11 -6 7 1767.32 279.66 1
7 -11 6 1367.03 247.316 1
6 -7 11 1722.2 316.407 1
7 -11 7 999.652 241.44 1
11 -7 7 987.939 209.019 1
7 -7 11 1225.31 273.214 1
11 -8 7 1505.56 250.367 1
8 -7 11 1590.43 302.454 1
7 -11 8 1621.54 289.925 1
11 -8 6 2757.59 340.244 1
8 -6 11 2350.02 357.96 1
6 -11 8 2350.03 346.139 1
11 -8 5 1685.2 250.948 1
5 -11 8 1845.58 319.517 1
8 -5 11 1728.14 313.257 1
11 -8 4 487.433 145.884 1
4 -11 8 338.681 154.664 1
-8 4 11 362.845 90.235 1
8 -4 11 543.553 172.652 1
8 -3 11 -63.8264 73.649 1
-8 3 11 -4.22651 53.3441 1
11 -8 3 106.603 74.2554 1
3 -11 8 102.732 67.9868 1
-3 -8 11 39.1625 116.836 1
2 -11 8 1933.85 315.889 1
8 -11 -2 1585.71 155.425 1
8 -2 11 2365.84 370.623 1
-8 2 11 2083.08 244.85 1
-2 -8 11 2033.09 354.237 1
-8 1 11 -26.8796 60.3334 1
-1 -8 11 -87.4146 109.657 1
8 -11 -1 41.3831 27.9099 1
-8 0 11 1696.1 242.714 1
8 -11 0 1604.45 188.385 1
0 -8 11 1759.91 320.565 1
1 -8 11 78.3928 71.1829 1
8 -11 1 -13.0795 36.0604 1
-11 1 8 17.8345 51.7412 1
-11 2 8 1699.74 172.746 1
-8 -2 11 2044.97 291.187 1
8 -11 2 1915.85 247.02 1
2 -8 11 1927.39 315.514 1
8 -11 3 265.901 103.155 1
3 -8 11 218.675 75.6878 1
-8 -3 11 134.286 125.568 1
-8 -4 11 488.512 176.717 1
4 -8 11 518.096 163.165 1
8 -11 4 578.928 140.194 1
8 -11 5 2007.46 289.23 1
5 -8 11 2137.74 347.036 1
11 -5 8 2210.94 338.061 1
11 -6 8 2555.33 356.986 1
8 -11 6 2276.61 323.491 1
6 -8 11 2843.79 405.016 1
7 -8 11 1953.68 335.821 1
8 -11 7 2249.24 344.446 1
11 -7 8 1715.62 305.969 1
8 -11 8 569.27 167.981 1
8 -8 11 226.138 112.188 1
11 -8 8 241.476 130.968 1
9 -8 11 159.37 111.82 1
11 -9 8 511.95 172.449 1
8 -11 9 230.562 109.711 1
7 -11 9 1712.65 336.645 1
11 -9 7 1330.15 253.563 1
9 -7 11 1266.53 280.526 1
9 -6 11 1178.2 265.88 1
11 -9 6 1050.02 210.302 1
6 -11 9 1449.79 300.117 1
9 -5 11 -124.195 116.027 1
11 -9 5 57.5987 59.643 1
5 -11 9 37.827 133.035 1
11 -9 4 239.556 125.101 1
-9 4 11 345.955 97.5849 1
9 -4 11 218.465 156.541 1
4 -11 9 176.241 141.194 1
-3 -9 11 258.715 98.2743 1
9 -3 11 591.189 153.524 1
11 -9 3 777.353 170.221 1
-9 3 11 745.793 140.389 1
3 -11 9 643.658 187.427 1
11 -9 2 462.958 117.666 1
-2 -9 11 226.649 157.87 1
-9 2 11 240.776 74.5917 1
2 -11 9 291.292 161.608 1
-9 1 11 362.591 103.683 1
9 -11 -1 319.85 55.7131 1
-1 -9 11 373.328 162.4 1
1 -11 9 183.768 161.361 1
-11 0 9 -125.357 89.3552 1
9 -11 0 16.511 39.5517 1
-9 0 11 1.51597 105.532 1
0 -9 11 -57.3346 94.6802 1
-11 1 9 376.161 104.437 1
9 -11 1 238.616 67.6074 1
1 -9 11 469.503 217.365 1
-9 -1 11 214.758 68.2375 1
2 -9 11 129.971 77.8663 1
9 -11 2 246.689 80.4298 1
-9 -2 11 62.2283 73.2165 1
-9 -3 11 720.017 179.504 1
9 -11 3 711.108 144.78 1
3 -9 11 599.305 185.165 1
9 -11 4 -44.8234 71.9657 1
-9 -4 11 159.997 94.3147 1
4 -9 11 204.609 152.672 1
11 -5 9 47.9605 93.7007 1
5 -9 11 -5.50827 104 1
9 -11 5 55.8642 114.887 1
9 -11 6 1131.58 227.546 1
6 -9 11 1365.83 266.55 1
11 -6 9 1099.38 233.972 1
9 -11 7 1579.38 271.247 1
7 -9 11 1703.13 328.872 1
11 -7 9 1863.84 343.519 1
9 -11 8 547.182 189.924 1
11 -8 9 389.838 161.014 1
8 -9 11 348.599 184.221 1
11 -9 9 -112.164 121.13 1
9 -11 9 -61.4894 96.2501 1
9 -11 10 501.345 192.163 1
10 -9 11 351.36 123.743 1
11 -10 9 651.878 199.134 1
11 -10 8 1385 296.949 1
8 -11 10 997.034 251.96 1
10 -8 11 1290.81 305.616 1
10 -7 11 1855.44 355.447 1
11 -10 7 1679 293.168 1
7 -11 10 1396.58 253.119 1
11 -10 6 274.327 131.686 1
10 -6 11 182.586 171.272 1
6 -11 10 357.812 180.645 1
5 -11 10 357.997 158.605 1
10 -5 11 437.068 166.049 1
11 -10 5 510.744 166.734 1
4 -11 10 450.317 143.908 1
10 -4 11 572.783 182.845 1
11 -10 4 489.194 110.928 1
3 -11 10 197.495 86.3239 1
11 -10 3 216.341 84.3217 1
-10 3 11 161.08 36.1424 1
2 -11 10 8.34502 124.68 1
-11 -2 10 -29.07 69.3731 1
11 -10 2 -28.539 52.447 1
-2 -10 11 -0.62305 119.908 1
-10 2 11 -11.0891 57.8664 1
1 -11 10 281.393 127.901 1
-1 -10 11 232.596 93.9777 1
-10 1 11 393.482 124.103 1
-11 -1 10 318.936 70.9782 1
0 -11 10 1237.14 285.688 1
-11 0 10 1062.72 195.324 1
0 -10 11 1199.28 254.895 1
-10 0 11 1492.68 251.085 1
-11 1 10 337.085 59.6622 1
1 -10 11 334.976 136.42 1
10 -11 1 83.9471 41.4702 1
-10 -1 11 294.154 85.1513 1
-11 2 10 95.287 43.887 1
2 -10 11 166.472 84.3526 1
-10 -2 11 126.697 59.9221 1
10 -11 2 -15.4179 62.0775 1
10 -11 3 254.524 114.108 1
-10 -3 11 234.134 106.027 1
3 -10 11 71.9066 112.615 1
4 -10 11 251.446 156.099 1
10 -11 4 374.556 123.866 1
11 -5 10 276.941 153.174 1
10 -11 5 337.743 106.937 1
5 -10 11 354.832 72.8598 1
6 -10 11 399.928 196.544 1
11 -6 10 320.609 177.086 1
10 -11 6 119.345 126.616 1
11 -7 10 1796.73 343.814 1
7 -10 11 1720.76 329.924 1
10 -11 7 2162.04 330.494 1
8 -10 11 1136.77 275.434 1
11 -8 10 1301.42 270.274 1
10 -11 8 1457.25 306.733 1
9 -10 11 536.351 140.318 1
10 -11 9 446.679 130.272 1
11 -9 10 593.628 174.63 1
10 -10 11 896.184 255.801 1
10 -11 10 627.778 191.953 1
11 -10 10 1030.28 251.845 1
0 -11 11 947.745 249.964 1
-11 0 11 1042.86 211.568 1
-11 -1 11 566.065 162.442 1
-1 -11 11 848.644 229.523 1
1 -11 11 523.416 202.684 1
-11 1 11 482.605 109.871 1
2 -11 11 835.181 257.333 1
-11 2 11 740.9 152.282 1
-11 -2 11 789.451 193.117 1
-2 -11 11 673.694 228.535 1
11 -11 2 705.071 140.913 1
-11 -3 11 1409.36 249.219 1
3 -11 11 1691.87 326.102 1
11 -11 3 1413.66 217 1
4 -11 11 346.934 178.778 1
11 -11 4 105.692 67.6437 1
5 -11 11 602.994 103.428 1
11 -5 11 675.201 213.94 1
11 -11 5 499.694 129.615 1
6 -11 11 225.828 62.8157 1
11 -11 6 393.922 112.289 1
11 -6 11 410.508 187.317 1
11 -11 7 767.926 202.117 1
11 -7 11 634.176 218.422 1
7 -11 11 779.225 231.494 1
11 -8 11 302.127 100.089 1
8 -11 11 332.795 166.969 1
11 -11 8 396.035 161.463 1
11 -9 11 -54.3331 92.3961 1
11 -11 9 -61.719 108.864 1
9 -11 11 162.483 84.6757 1
10 -11 11 820.322 240.202 1
11 -11 10 1127.23 285.477 1
11 -10 11 1227.39 292.167 1
11 -11 11 548.026 177.33 1
0 0 12 1119.06 206.829 1
-1 0 12 1904.2 293.712 1
0 -1 12 1883.88 274.6 1
0 1 12 2117.31 329.461 1
1 0 12 1988.88 298.443 1
-1 1 12 -68.0127 77.2003 1
1 1 12 -47.4764 57.242 1
-1 -1 12 -33.0146 112.026 1
-2 1 12 109.32 115.82 1
-1 -2 12 37.1639 107.022 1
2 -1 12 92.8253 57.1457 1
1 2 12 113.379 75.8874 1
2 0 12 872.217 235.246 1
0 2 12 1319.64 234.543 1
0 -2 12 1116.08 252.556 1
-2 0 12 1036.52 211.934 1
-2 -1 12 12.8685 87.2143 1
1 -2 12 66.92 64.9384 1
-1 2 12 56.5919 109.144 1
2 1 12 -180.799 124.407 1
2 -2 12 2095.04 316.321 1
-2 -2 12 2487.59 349.483 1
2 2 12 2562.09 348.859 1
-2 2 12 2492.61 306.818 1
-2 -3 12 77.7335 63.9039 1
-3 2 12 232.154 99.1484 1
3 -2 12 357.719 136.635 1
-3 1 12 4215.94 401.804 1
3 -1 12 4887.39 481.324 1
-1 -3 12 4793.75 477.353 1
3 0 12 -0.7649 98.1735 1
0 3 12 25.2121 53.0453 1
-3 0 12 115.334 94.3665 1
0 -3 12 -53.0578 133.755 1
-3 -1 12 4260.19 434.371 1
-1 3 12 4102.95 421.751 1
3 1 12 4288.67 459.833 1
1 -3 12 4523.45 455.98 1
3 2 12 239.473 127.781 1
-3 -2 12 115.781 115.427 1
-2 3 12 132.257 130.1 1
2 -3 12 -81.0922 63.8139 1
-3 -3 12 2649.19 354.376 1
3 -3 12 2902.26 385.758 1
-3 3 12 2500.76 316.034 1
-3 -4 12 1230.1 225.849 1
4 -3 12 1504.24 256.212 1
-4 3 12 1474.51 244.757 1
4 -2 12 1226.45 291.943 1
-2 -4 12 1169.82 258.636 1
-4 2 12 1049.72 225.794 1
4 -1 12 981.124 210.54 1
-4 1 12 1191.6 245.708 1
-1 -4 12 1112.33 231.783 1
4 0 12 6337.71 563.021 1
-4 0 12 5596.15 469.311 1
0 -4 12 5317.6 510.761 1
1 -4 12 1014.93 257.411 1
4 1 12 1069.13 226.489 1
-4 -1 12 1003.05 208.422 1
2 -4 12 1085.55 245.507 1
-4 -2 12 704.176 169.414 1
-4 -3 12 1360.18 258.415 1
3 -4 12 1132.53 252.488 1
-4 4 12 -61.6938 94.9375 1
4 -4 12 72.7281 102.582 1
-4 -4 12 -109.212 122.148 1
-4 -5 12 262.894 100.78 1
-5 4 12 290.748 77.1902 1
-3 -5 12 4848.73 482.416 1
-5 3 12 4543.76 410.784 1
5 -3 12 4544.64 491.718 1
-2 -5 12 448.171 124.118 1
5 -2 12 475.922 140.701 1
-5 2 12 509.351 146.096 1
-5 1 12 6463.5 495.029 1
-1 -5 12 6608.13 570.456 1
5 -1 12 6885.31 619.621 1
-5 0 12 177.618 49.5276 1
0 -5 12 198.262 115.446 1
5 1 12 7046.23 602.62 1
-5 -1 12 6295.1 531.717 1
1 -5 12 6830.58 593.08 1
2 -5 12 534.999 150.047 1
-5 -2 12 655.222 185.708 1
-5 -3 12 4401.92 454.473 1
3 -5 12 4450.19 494.139 1
4 -5 12 430.131 93.9529 1
5 -12 4 491.393 137.893 1
-5 -4 12 447.414 151.972 1
5 -12 5 104.916 112.726 1
5 -5 12 179.04 115.773 1
-5 -5 12 -146.113 162.582 1
6 -5 12 828.253 186.094 1
-5 -6 12 1271.96 282.594 1
5 -12 6 938.923 216.954 1
-4 -6 12 123.534 75.4335 1
-6 4 12 267.962 76.681 1
6 -4 12 -32.0432 108.467 1
4 -12 6 224.206 93.1829 1
-6 3 12 1165.86 194.421 1
-3 -6 12 877.358 212.824 1
-6 2 12 603.12 159.789 1
6 -2 12 549.185 183.69 1
-2 -6 12 528.128 205.335 1
6 -1 12 334.634 163.408 1
-1 -6 12 274.681 148.263 1
-6 1 12 141.757 48.3172 1
0 -6 12 2587.82 373.792 1
-6 0 12 2544.48 317.581 1
6 0 12 2237.48 344.797 1
1 -6 12 132.729 83.0163 1
-6 -1 12 226.416 69.7911 1
-6 -2 12 668.306 162.84 1
2 -6 12 850.637 249.018 1
6 -12 2 813.268 185.04 1
-12 2 6 610.448 98.6533 1
6 -12 3 1221.71 220.195 1
-6 -3 12 1462.86 268.131 1
3 -6 12 1416.33 281.695 1
6 -12 4 129.842 81.365 1
4 -6 12 350.839 155.254 1
-6 -4 12 303.678 153.485 1
-6 -5 12 1131.77 263.165 1
5 -6 12 1023.51 232.898 1
6 -12 5 763.891 185.965 1
6 -12 6 1374.72 262.35 1
-6 -6 12 1482.28 251.945 1
6 -6 12 1162.33 245.88 1
-6 -7 12 1749.16 317.063 1
6 -12 7 1952.06 320.558 1
7 -6 12 1846.84 331.655 1
7 -5 12 1181.38 241.309 1
-5 -7 12 969.006 224.191 1
5 -12 7 1060.59 247.72 1
-7 4 12 877.236 182.602 1
-4 -7 12 851.086 226.451 1
7 -4 12 908.687 220.04 1
4 -12 7 756.889 211.506 1
7 -3 12 1452.14 263.395 1
-7 3 12 1150.3 181.954 1
3 -12 7 1330.53 280.21 1
-3 -7 12 816.121 198.123 1
7 -2 12 227.434 85.4253 1
-2 -7 12 440.028 209.744 1
-7 2 12 288.23 115.858 1
-1 -7 12 4062.01 471.428 1
-7 1 12 4048.33 388.148 1
7 -1 12 3955.79 470.239 1
-7 0 12 160.233 56.4896 1
7 -12 0 273.157 90.1118 1
7 -12 1 4080.76 361.539 1
-7 -1 12 4499.98 424.018 1
1 -7 12 4517.61 504.164 1
7 -12 2 416.453 149.846 1
2 -7 12 197.266 117.586 1
-7 -2 12 241.937 141.313 1
-12 2 7 155.91 42.3381 1
-7 -3 12 1291.91 257.543 1
3 -7 12 1301.13 290.018 1
7 -12 3 1282.49 230.07 1
4 -7 12 738.354 110.286 1
7 -12 4 684.707 176.387 1
-7 -4 12 1061.9 248.713 1
7 -12 5 1284.49 227.403 1
-7 -5 12 1289.76 258.381 1
5 -7 12 1456.41 280.965 1
6 -7 12 2092.58 336.163 1
7 -12 6 2113.72 326.397 1
-7 -6 12 2135.24 347.957 1
7 -7 12 758.526 174.865 1
7 -12 7 450.858 138.21 1
12 -7 7 565.421 162.735 1
-7 -7 12 458.169 167.742 1
8 -7 12 2065.72 353.585 1
7 -12 8 1699.8 284.837 1
12 -8 7 2127.65 339.503 1
-6 -8 12 198.741 185.958 1
6 -12 8 187.689 117.987 1
8 -6 12 117.011 119.069 1
12 -8 6 170.012 57.4497 1
8 -5 12 1741.09 343.25 1
5 -12 8 1295.63 259.287 1
-5 -8 12 1469.89 292.915 1
4 -12 8 1782.5 326.007 1
-4 -8 12 2110.96 379.65 1
8 -4 12 1601.75 319.943 1
-8 4 12 1643.86 224.228 1
-3 -8 12 760.293 230.731 1
3 -12 8 581.028 176.926 1
-8 3 12 673.3 150.953 1
8 -3 12 513.213 173.77 1
2 -12 8 2452.52 367.968 1
8 -12 -2 2105.48 198.336 1
-8 2 12 2309.9 281.716 1
8 -2 12 2804.9 391.217 1
-2 -8 12 2428.61 371.866 1
-8 1 12 513.769 124.739 1
-1 -8 12 316.87 142.928 1
8 -12 -1 416.761 110.316 1
8 -12 0 925.525 165.333 1
0 -8 12 1127.52 265.851 1
-8 0 12 925.02 205.213 1
1 -8 12 625.091 215.825 1
-8 -1 12 440.545 154.214 1
8 -12 1 416.695 122.092 1
-12 1 8 463.145 113.263 1
8 -12 2 2410.69 282.827 1
-8 -2 12 2688.55 347.377 1
2 -8 12 2860.09 413.857 1
8 -12 3 232.283 66.1561 1
3 -8 12 37.6944 69.3773 1
4 -8 12 1925.94 349.349 1
8 -12 4 1832.54 284.487 1
-8 -4 12 1790.76 305.492 1
-8 -5 12 1606.26 298.325 1
5 -8 12 1494.93 305.479 1
8 -12 5 1573.85 281.564 1
8 -12 6 149.64 123.725 1
6 -8 12 198.68 102.217 1
-8 -6 12 110.619 66.268 1
8 -12 7 1837.97 325.959 1
12 -7 8 1815.56 310.161 1
7 -8 12 2075.95 356.91 1
8 -12 8 2235.99 355.947 1
12 -8 8 2335.21 349.965 1
8 -8 12 2513.57 392.217 1
12 -9 8 637.882 208.021 1
8 -12 9 419.035 159.961 1
9 -8 12 732.383 247.439 1
7 -12 9 786.764 214.684 1
9 -7 12 584.282 178.019 1
12 -9 7 500.442 128.06 1
9 -6 12 1955.93 352.302 1
6 -12 9 1507.97 310.531 1
12 -9 6 1350.76 237.314 1
9 -5 12 1493.29 307.678 1
-5 -9 12 1188.31 293.637 1
12 -9 5 1291.64 226.798 1
5 -12 9 1391.77 284.866 1
-4 -9 12 489.823 193.986 1
9 -4 12 338.464 160.796 1
-9 4 12 228.171 63.4192 1
12 -9 4 303.326 107.793 1
4 -12 9 547.135 154.216 1
-9 3 12 1025.85 176.074 1
9 -3 12 1025.26 241.532 1
3 -12 9 966.773 268.959 1
-3 -9 12 763.749 150.262 1
-2 -9 12 257.547 145.118 1
-9 2 12 502.612 142.481 1
2 -12 9 412.606 169.573 1
1 -12 9 1422.42 282.312 1
-9 1 12 1457.35 231.956 1
-1 -9 12 1285.78 297.763 1
-9 0 12 499.72 135.49 1
-12 0 9 350.411 95.7333 1
9 -12 0 543.873 114.391 1
0 -9 12 260.584 176.992 1
-12 1 9 1336.38 190.09 1
9 -12 1 1353.63 198.905 1
-9 -1 12 1250.38 239.554 1
1 -9 12 1395.29 315.877 1
-9 -2 12 494.246 146.248 1
2 -9 12 316.229 179.704 1
9 -12 2 415.934 116.302 1
3 -9 12 1182.52 271.993 1
-9 -3 12 865.541 189.282 1
9 -12 3 1069.22 207.436 1
4 -9 12 344.407 191.224 1
-9 -4 12 407.325 180.889 1
9 -12 4 317.406 129.985 1
-9 -5 12 1098.45 247.83 1
5 -9 12 1128.02 260.06 1
9 -12 5 1058.54 232.829 1
9 -12 6 1389.78 247.954 1
6 -9 12 1614.2 323.136 1
7 -9 12 852.227 229.181 1
9 -12 7 679.778 201.478 1
12 -7 9 590.007 184.563 1
8 -9 12 455.898 175.657 1
12 -8 9 624.305 212.148 1
9 -12 8 653.188 192.049 1
9 -9 12 27.6974 61.9718 1
12 -9 9 61.3115 78.9155 1
9 -12 10 620.535 183.973 1
10 -9 12 702.953 241.333 1
12 -10 9 521.437 158.347 1
12 -10 8 80.9022 94.6639 1
8 -12 10 26.3085 147.301 1
10 -8 12 174.218 52.7487 1
7 -12 10 1915.99 351.959 1
10 -7 12 2275.94 412.911 1
12 -10 7 1999.8 325.608 1
12 -10 6 619.955 185.068 1
6 -12 10 527.83 189.082 1
10 -6 12 401.196 108.292 1
5 -12 10 2355.42 371.109 1
12 -10 5 2628.79 325.086 1
10 -5 12 2869.15 432.656 1
12 -10 4 709.747 158.141 1
-4 -10 12 653.447 222.998 1
4 -12 10 578.744 150.161 1
10 -4 12 698.896 184.761 1
-3 -10 12 517.789 204.553 1
3 -12 10 461.152 211.195 1
-10 3 12 192.105 47.7887 1
12 -10 3 387.323 129.335 1
-2 -10 12 1973.63 354.232 1
-10 2 12 1653.2 232.324 1
2 -12 10 1581.43 332.943 1
-10 1 12 1138.82 194.438 1
1 -12 10 1154.34 268.423 1
-12 -1 10 1411.22 231.234 1
-1 -10 12 1361.98 303.209 1
0 -10 12 1521.3 331.137 1
-12 0 10 1356.61 204.773 1
-10 0 12 1472.25 251.38 1
0 -12 10 1509.58 326.597 1
1 -10 12 1282.84 316.373 1
-12 1 10 1097.18 167.973 1
-10 -1 12 1029.99 214.999 1
10 -12 1 816.269 132.701 1
2 -10 12 1411.13 313.212 1
10 -12 2 1430.42 202.92 1
-10 -2 12 1553.53 277.706 1
10 -12 3 459.783 131.093 1
3 -10 12 407.298 172.383 1
-10 -3 12 386.261 163.586 1
4 -10 12 926.775 245.682 1
-10 -4 12 1061.08 232.104 1
10 -12 4 963.432 206.041 1
10 -12 5 2753.66 346.52 1
-10 -5 12 2679.67 396.215 1
5 -10 12 2693.35 431.223 1
10 -12 6 671.305 184.017 1
6 -10 12 488.339 157.319 1
7 -10 12 2308.51 396.288 1
12 -7 10 2213.53 372.21 1
10 -12 7 2046.79 353.819 1
10 -12 8 -37.5374 84.5805 1
12 -8 10 212.388 164.302 1
8 -10 12 -275.727 182.039 1
10 -12 9 591.309 173.926 1
12 -9 10 577.651 182.242 1
9 -10 12 204.373 97.1692 1
10 -10 12 243.687 197.205 1
12 -10 10 243.222 172.411 1
10 -12 10 351.865 200.172 1
10 -12 11 1341.87 300.573 1
11 -10 12 1747.74 384.793 1
12 -11 10 1909.42 373.755 1
12 -11 9 143.814 94.4805 1
11 -9 12 406.891 187.417 1
9 -12 11 582.539 250.762 1
11 -8 12 87.1495 142.799 1
12 -11 8 61.2682 70.4207 1
8 -12 11 4.01963 65.6438 1
12 -11 7 373.59 157.378 1
11 -7 12 93.1309 56.4386 1
7 -12 11 298.537 171.054 1
12 -11 6 1775.91 285.945 1
6 -12 11 1710.4 327.803 1
11 -6 12 1867 328.731 1
11 -5 12 2438.43 387.43 1
5 -12 11 2247.46 401.631 1
12 -11 5 2245.51 317.942 1
12 -11 4 2579.24 314.653 1
4 -12 11 2536.83 417.081 1
3 -12 11 142.087 57.4854 1
-3 -11 12 118.707 67.8122 1
-12 -3 11 144.364 106.311 1
-12 -2 11 1036.73 231.915 1
2 -12 11 876.784 203.671 1
-2 -11 12 1113.73 238.879 1
-11 1 12 667.97 157.176 1
-12 -1 11 750.575 213.676 1
-1 -11 12 495.051 120.084 1
1 -12 11 853.804 224.947 1
0 -12 11 598.089 228.356 1
-11 0 12 667.066 168.423 1
0 -11 12 641.594 232.457 1
-12 0 11 654.68 146.604 1
1 -11 12 886.445 288.469 1
-12 1 11 553.439 137.401 1
-11 -1 12 688.204 163.76 1
-11 -2 12 784.03 212.515 1
2 -11 12 789.429 250.971 1
11 -12 3 62.0062 68.0459 1
3 -11 12 -53.2318 128.267 1
-11 -3 12 -17.5893 40.9859 1
4 -11 12 3080.41 445.169 1
11 -12 4 2534.53 318.34 1
-11 -4 12 2616.47 380.167 1
5 -11 12 2239.91 387.768 1
11 -12 5 2110.49 293.152 1
-11 -5 12 2124.92 344.749 1
6 -11 12 1957.41 358.435 1
11 -12 6 1855.1 310.387 1
12 -7 11 381.35 198.17 1
7 -11 12 283.724 185.588 1
11 -12 7 170.916 87.8658 1
8 -11 12 77.3175 63.2733 1
12 -8 11 54.4362 83.1568 1
11 -12 8 238.997 145.088 1
9 -11 12 395.963 181.838 1
11 -12 9 315.288 140.563 1
12 -9 11 375.857 193.612 1
10 -11 12 1510.18 305.32 1
12 -10 11 1288.26 290.984 1
11 -12 10 1833.53 363.339 1
11 -11 12 1188.18 340.018 1
12 -11 11 1134.38 276.714 1
11 -12 11 1137.14 275.284 1
-12 0 12 2497.05 315.097 1
0 -12 12 2657.88 434.561 1
1 -12 12 462.968 215.42 1
-12 -1 12 641.557 184.703 1
-1 -12 12 401.683 139.904 1
-12 -2 12 -82.208 96.9667 1
-2 -12 12 25.5963 60.9997 1
2 -12 12 63.757 57.4506 1
-12 -3 12 2515.07 337.084 1
-3 -12 12 2507.07 412.19 1
3 -12 12 3019.3 479.765 1
4 -12 12 406.015 178.835 1
12 -12 4 259.023 60.3356 1
-12 -4 12 492.111 172.696 1
12 -12 5 1193.46 231.156 1
5 -12 12 1446.83 343.681 1
-12 -5 12 1236.49 272.533 1
12 -12 6 51.0888 111.614 1
6 -12 12 -115.164 153.482 1
12 -12 7 3396.59 436.616 1
7 -12 12 3984.75 537.298 1
12 -7 12 3930.53 549.004 1
12 -12 8 350.932 155.878 1
12 -8 12 264.364 165.323 1
8 -12 12 224.203 160.486 1
12 -12 9 608.536 239.666 1
9 -12 12 474.486 204.91 1
12 -9 12 809.324 275.968 1
10 -12 12 2854.66 461.789 1
12 -10 12 2708.32 458.129 1
12 -12 10 2380.56 399.176 1
12 -12 11 310.204 170.025 1
11 -12 12 116.887 141.529 1
12 -11 12 -141.647 195.287 1
12 -12 12 274.233 129.186 1
0 0 13 146.796 89.1119 1
-1 0 13 -55.0836 88.2044 1
0 -1 13 36.0712 62.0867 1
0 1 13 225.348 143.144 1
1 0 13 61.1143 74.8021 1
1 -1 13 1645.77 306.681 1
1 1 13 1922.98 324.137 1
-1 1 13 1879.62 308.201 1
-1 -1 13 1510.11 265.038 1
2 -1 13 904.464 189.747 1
-1 -2 13 470.537 140.735 1
1 2 13 554.773 133.748 1
-2 1 13 887.652 234.799 1
0 -2 13 1279.03 271.042 1
-2 0 13 1195.69 234.088 1
0 2 13 1179.57 215.749 1
2 0 13 1029.08 224.014 1
-2 -1 13 1018.17 233.684 1
-1 2 13 520.032 184.094 1
1 -2 13 541.473 165.585 1
2 1 13 651.303 179.339 1
2 2 13 1286.24 258.213 1
-2 -2 13 1744.45 301.932 1
-2 2 13 1666.62 271.61 1
2 -2 13 1545.92 284.336 1
-2 -3 13 16.0161 86.3192 1
-3 2 13 262.1 124.386 1
3 -2 13 111.536 129.259 1
-3 1 13 737.954 188.556 1
3 -1 13 704.147 203.375 1
-1 -3 13 853.41 201.805 1
-3 0 13 33.369 137.101 1
0 -3 13 344.417 132.125 1
0 3 13 264.49 121.252 1
3 0 13 -67.804 69.7343 1
-3 -1 13 840.015 218.708 1
-1 3 13 1030.47 244.67 1
1 -3 13 957.053 248.202 1
3 1 13 682.868 166.292 1
-3 -2 13 55.7787 134.162 1
2 -3 13 319.356 187.781 1
-2 3 13 150.378 122.467 1
3 2 13 -60.3323 89.6663 1
-3 3 13 106.208 118.933 1
-3 -3 13 -44.2621 59.4575 1
3 -3 13 94.211 94.4408 1
-3 -4 13 345.009 170.35 1
4 -3 13 224.772 142.001 1
-4 3 13 283.411 124.149 1
4 -2 13 6915.14 626.733 1
-4 2 13 6290.2 512.807 1
-2 -4 13 6568.46 585.512 1
4 -1 13 63.5429 87.3313 1
-4 1 13 10.5833 92.577 1
-1 -4 13 135.098 167.497 1
4 0 13 3047.86 417.622 1
0 -4 13 3163.35 415.094 1
-4 0 13 3201.49 387.245 1
1 -4 13 250.071 110.866 1
-4 -1 13 -137.94 129.534 1
4 1 13 -46.1067 139.99 1
-4 -2 13 6358.48 556.516 1
2 -4 13 6472.23 592.887 1
3 -4 13 186.886 133.872 1
-4 -3 13 321.896 137.5 1
4 -4 13 1949.36 346.527 1
-4 4 13 2080.08 297.291 1
-4 -4 13 2011.27 320.024 1
-5 4 13 2160.76 283.721 1
-4 -5 13 2353.68 364.745 1
5 -4 13 2118.56 357.585 1
5 -3 13 1150.69 253.479 1
-3 -5 13 1173.37 268.131 1
-5 3 13 1141.81 208.105 1
-2 -5 13 434.778 193.63 1
-5 2 13 363.331 152.71 1
5 -2 13 268.644 169.086 1
-5 1 13 4264.19 423.43 1
-1 -5 13 3996 474.131 1
5 -1 13 4591.57 517.266 1
5 0 13 1214.72 279.858 1
-5 0 13 609.363 164.507 1
0 -5 13 1067.58 243.7 1
1 -5 13 4708.84 514.083 1
-5 -1 13 4614.04 464.537 1
-5 -2 13 515.654 187.596 1
2 -5 13 470.04 194.795 1
3 -5 13 1115.83 221.249 1
-5 -3 13 1059.34 197.732 1
4 -5 13 1896.84 341.109 1
-5 -4 13 1723.11 295.416 1
-5 -5 13 819.574 203.464 1
5 -5 13 484.108 181.875 1
5 -13 5 514.095 139.948 1
6 -5 13 2316.74 375.351 1
5 -13 6 2237.01 340.206 1
-5 -6 13 2587.34 408.777 1
6 -4 13 1774.26 327.234 1
4 -13 6 1717.58 296.066 1
-4 -6 13 1717.39 309.617 1
-6 4 13 1523.1 242.393 1
-3 -6 13 142.01 76.4074 1
6 -3 13 -54.839 90.4654 1
-6 3 13 165.844 97.008 1
-2 -6 13 4225.79 493.733 1
-6 2 13 3977.56 390.591 1
6 -2 13 4431.96 497.742 1
-6 1 13 97.6323 68.1636 1
-1 -6 13 128.88 110.943 1
-6 0 13 2701.68 341.723 1
0 -6 13 3054.92 429.266 1
6 0 13 3142.65 456.027 1
1 -6 13 -143.925 98.5826 1
-6 -1 13 -73.1156 146.712 1
2 -6 13 4394.48 508.381 1
-6 -2 13 4241.07 450.604 1
6 -13 3 34.549 62.2413 1
3 -6 13 110.626 117.337 1
-6 -3 13 68.1215 64.4992 1
-6 -4 13 1417.48 262.714 1
6 -13 4 1386.64 224.622 1
4 -6 13 1363.62 306.094 1
5 -6 13 2759.45 411.725 1
6 -13 5 2209.27 335.306 1
-6 -5 13 2679.86 381.994 1
6 -6 13 324.341 206.278 1
6 -13 6 98.9071 96.7238 1
-6 -6 13 76.9436 121.718 1
6 -13 7 4470.24 507.439 1
7 -6 13 5031.03 548.066 1
-6 -7 13 4387.94 519.834 1
5 -13 7 3207.61 438.301 1
-5 -7 13 3285.33 438.743 1
7 -5 13 3831.09 490.452 1
-4 -7 13 1040.65 274.215 1
7 -4 13 1088.34 264.174 1
4 -13 7 943.608 203.836 1
-7 4 13 1018.42 181.898 1
-3 -7 13 1885.04 328.175 1
3 -13 7 1879.14 343.285 1
-7 3 13 1894.48 268.287 1
7 -3 13 2098.42 347.05 1
-2 -7 13 2766.81 386.679 1
7 -2 13 2952.87 436.495 1
-7 2 13 2664.85 319.518 1
-1 -7 13 3378.48 442.32 1
-7 1 13 3333.66 365.475 1
7 -1 13 3338 448.822 1
7 -13 0 1338.03 209.848 1
0 -7 13 1516.96 320.736 1
1 -7 13 2849.06 425.951 1
7 -13 1 2702.66 321.568 1
-7 -1 13 2842.9 368.445 1
-7 -2 13 2582.72 348.058 1
7 -13 2 2567.72 300.711 1
2 -7 13 2487.87 384.574 1
-7 -3 13 2338.63 352.266 1
7 -13 3 1966.03 291.176 1
3 -7 13 2436.07 380.392 1
7 -13 4 797.03 201.969 1
4 -7 13 914.997 241.101 1
-7 -4 13 852.777 211.153 1
5 -7 13 3556.19 478.501 1
-7 -5 13 3870.95 467.8 1
7 -13 5 3526.41 411.25 1
7 -13 6 4486.09 476.584 1
-7 -6 13 4411.93 518.796 1
6 -7 13 4653.82 559.938 1
-7 -7 13 5951.44 598.818 1
7 -7 13 6253.7 649.149 1
7 -13 7 6111.98 586.848 1
-7 -8 13 88.6005 94.8522 1
7 -13 8 111.629 54.0117 1
-6 -8 13 248.882 158.231 1
8 -6 13 -46.7841 124.917 1
6 -13 8 143.331 123.455 1
5 -13 8 791.125 254.82 1
-5 -8 13 868.429 241.185 1
8 -5 13 1227.93 276.486 1
8 -4 13 2528.27 389.587 1
4 -13 8 2768.88 406.394 1
-4 -8 13 2377.36 374.178 1
-8 4 13 2621.73 300.229 1
8 -3 13 1491.1 310.838 1
-3 -8 13 1292.87 286.073 1
3 -13 8 1681.58 336.813 1
-8 3 13 1411.02 233.932 1
-2 -8 13 1694.73 299.447 1
8 -2 13 1704.67 311.124 1
-8 2 13 1832.32 266.48 1
-1 -8 13 -86.3667 138.575 1
8 -13 -1 26.8697 32.441 1
-8 1 13 9.55347 46.3634 1
-8 0 13 6492.06 516.928 1
8 -13 0 6237.97 423.592 1
0 -8 13 6876.01 663.485 1
1 -8 13 94.6324 163.556 1
-8 -1 13 -62.4147 100.031 1
-13 1 8 -54.5056 42.2961 1
8 -13 1 -190.9 94.5773 1
-8 -2 13 1845.47 296.956 1
2 -8 13 1720.35 342.727 1
8 -13 2 1628.35 240.49 1
3 -8 13 1553.26 325.547 1
8 -13 3 1098.98 225.48 1
-8 -3 13 1155.34 254.188 1
-8 -4 13 2620.47 359.085 1
8 -13 4 2410.2 332.871 1
4 -8 13 2825.73 433.057 1
5 -8 13 1203.18 267.811 1
-8 -5 13 1127.42 258.999 1
8 -13 5 1030.88 181.682 1
6 -8 13 73.1858 79.3752 1
-8 -6 13 -100.372 74.998 1
8 -13 6 133.703 107.084 1
8 -13 7 113.474 56.1531 1
7 -8 13 183.307 113.946 1
-8 -7 13 231.341 188.316 1
-8 -8 13 182.08 128.671 1
8 -13 8 -6.60698 72.6388 1
8 -8 13 78.4347 153.129 1
13 -9 8 1110.37 257.774 1
-8 -9 13 1177.34 272.282 1
9 -8 13 1115.44 268.388 1
8 -13 9 1070.18 263.036 1
9 -7 13 507.046 196.654 1
7 -13 9 690.053 227.227 1
-7 -9 13 704.697 215.646 1
-6 -9 13 459.221 181.507 1
9 -6 13 911.744 269.932 1
6 -13 9 629.546 242.929 1
5 -13 9 2425.72 379.494 1
-5 -9 13 2717.34 402.614 1
9 -5 13 2631.04 428.807 1
-4 -9 13 4322.67 515.157 1
4 -13 9 4727.86 557.012 1
9 -4 13 5222.73 594.415 1
-9 3 13 1094.47 197.787 1
-3 -9 13 992.884 271.57 1
3 -13 9 1258.75 296.738 1
9 -3 13 962.621 275.967 1
-9 2 13 2454.32 308.287 1
-2 -9 13 2375.94 398.904 1
2 -13 9 2677.28 414.219 1
-9 1 13 4011.04 403.648 1
-1 -9 13 4107.35 521.065 1
1 -13 9 4045.28 499.723 1
9 -13 0 495.775 90.2088 1
-13 0 9 733.396 128.927 1
0 -9 13 638.158 186.587 1
-9 0 13 646.807 170.998 1
1 -9 13 4593.63 534.908 1
9 -13 1 3994.62 351.318 1
-9 -1 13 4356.79 455.276 1
-9 -2 13 2481.69 345.697 1
9 -13 2 2273.04 285.527 1
2 -9 13 2452.18 396.646 1
-9 -3 13 914.063 233.165 1
9 -13 3 1212.88 213.347 1
3 -9 13 1096.26 265.962 1
-9 -4 13 4644.44 509.83 1
9 -13 4 4415.71 443.863 1
4 -9 13 4507.09 542.964 1
-9 -5 13 2136.85 342.834 1
5 -9 13 2443.17 397.935 1
9 -13 5 2387.94 333.006 1
6 -9 13 726.233 202.979 1
9 -13 6 693.616 199.281 1
-9 -6 13 609.649 195.586 1
7 -9 13 627.132 235.968 1
-9 -7 13 725.634 230.374 1
9 -13 7 742.466 202.381 1
8 -9 13 1090.05 287.758 1
9 -13 8 846.586 234.914 1
-9 -8 13 1044.16 276.732 1
9 -9 13 122.279 90.7357 1
13 -9 9 182.652 84.9274 1
9 -13 9 90.3831 86.054 1
10 -9 13 89.7056 127.361 1
9 -13 10 397.623 179.765 1
13 -10 9 252.045 142.044 1
8 -13 10 -17.8701 136.817 1
13 -10 8 41.2576 69.7092 1
10 -8 13 91.7208 159.599 1
10 -7 13 655.683 242.329 1
13 -10 7 1094.49 257.261 1
-7 -10 13 937.985 294.781 1
7 -13 10 972.041 267.038 1
-6 -10 13 1271.32 305.202 1
6 -13 10 1219.78 296.43 1
13 -10 6 1340.29 247.007 1
10 -6 13 1266.27 301.111 1
10 -5 13 976.506 272.623 1
-5 -10 13 1045.42 251.247 1
5 -13 10 832.35 247.98 1
10 -4 13 275.861 148.019 1
4 -13 10 273.699 106.017 1
-4 -10 13 406.641 150.426 1
3 -13 10 342.478 170.331 1
-3 -10 13 262.388 157.815 1
-2 -10 13 1600.27 319.181 1
2 -13 10 1445.15 320.695 1
-10 2 13 1377.53 220.715 1
1 -13 10 713.153 238.484 1
-1 -10 13 561.596 177.033 1
-13 -1 10 744.75 158.768 1
-10 1 13 652.269 162.384 1
0 -13 10 75.8092 116.353 1
0 -10 13 90.4749 120.395 1
-13 0 10 154.405 107.744 1
-10 0 13 47.6805 43.7556 1
1 -10 13 518.471 193.617 1
-10 -1 13 934.943 206.199 1
10 -13 2 1417.56 219.344 1
2 -10 13 1710.73 303.179 1
-10 -2 13 1828.77 321.039 1
-10 -3 13 225.198 129.905 1
3 -10 13 308.048 153.119 1
10 -13 3 357.841 127.56 1
-10 -4 13 346.663 161.332 1
4 -10 13 494.459 209.843 1
10 -13 4 479.816 145.326 1
10 -13 5 945.141 217.793 1
-10 -5 13 947.976 263.163 1
5 -10 13 815.346 251.834 1
6 -10 13 1180.76 265.996 1
-10 -6 13 1235.34 296.802 1
10 -13 6 1174.44 255.047 1
10 -13 7 669.229 199.564 1
-10 -7 13 712.281 202.394 1
7 -10 13 590.318 241.267 1
8 -10 13 240.501 185.85 1
10 -13 8 -50.1477 94.5947 1
9 -10 13 153.593 106.233 1
13 -9 10 92.3681 94.5847 1
10 -13 9 409.569 151.977 1
10 -13 10 621.468 213.984 1
13 -10 10 545.894 182.585 1
10 -10 13 668.385 205.505 1
13 -11 10 1604.72 331.37 1
11 -10 13 1455.14 377.311 1
10 -13 11 1412.52 336.712 1
9 -13 11 161.851 147.311 1
13 -11 9 222.936 162.477 1
11 -9 13 34.1779 102.271 1
13 -11 8 4461 527.332 1
8 -13 11 4526.86 555.032 1
11 -8 13 4398.4 582.342 1
7 -13 11 91.2569 128.681 1
11 -7 13 144.183 144.226 1
13 -11 7 122.302 119.444 1
-6 -11 13 2251.12 422.847 1
6 -13 11 2450.53 409.07 1
13 -11 6 1948.03 305.477 1
11 -6 13 2224.36 402.789 1
-5 -11 13 849.287 243.891 1
13 -11 5 458.026 141.188 1
11 -5 13 771.329 259.055 1
5 -13 11 567.628 247.601 1
4 -13 11 2572.88 412.918 1
-4 -11 13 2581.94 451.425 1
-3 -11 13 1385.98 334.341 1
-13 -3 11 1658.97 276.469 1
3 -13 11 1390.96 329.658 1
-13 -2 11 509.942 185.344 1
2 -13 11 431.366 147.184 1
-2 -11 13 661.486 259.699 1
-13 -1 11 1651.63 261.52 1
-1 -11 13 1933.25 350.125 1
-11 1 13 1685.07 257.623 1
1 -13 11 1697.75 342.44 1
0 -13 11 1760.77 351.693 1
-11 0 13 2185.86 303.765 1
0 -11 13 2171.08 390.603 1
1 -11 13 1713.95 314.779 1
-1 -13 11 1741.6 368.77 1
-11 -1 13 2032.32 311.027 1
2 -11 13 343.75 194.106 1
-11 -2 13 370.868 123.38 1
-11 -3 13 1636.64 280.793 1
3 -11 13 1507.15 355.539 1
-11 -4 13 2360.94 363.807 1
11 -13 4 2301.88 314.994 1
4 -11 13 2899.9 459.323 1
-11 -5 13 561.468 200.268 1
5 -11 13 896.732 257.272 1
11 -13 5 712.002 201.946 1
6 -11 13 2065.88 392.024 1
-11 -6 13 1829.28 333.278 1
11 -13 6 2090.28 333.744 1
-11 -7 13 95.9123 126.694 1
7 -11 13 123.517 111.564 1
11 -13 7 191.434 106.504 1
8 -11 13 5285.44 636.144 1
11 -13 8 4573.63 528.542 1
13 -8 11 3918.07 518.612 1
9 -11 13 419.712 127.273 1
13 -9 11 184.105 144.9 1
11 -13 9 299.855 115.775 1
13 -10 11 1317.69 310.565 1
11 -13 10 1374.48 312.553 1
10 -11 13 1440.49 323.138 1
11 -13 11 2938.24 464.895 1
13 -11 11 2468.21 438.268 1
11 -11 13 2469.86 424.444 1
12 -11 13 425.997 183.057 1
13 -12 11 280.11 127.23 1
11 -13 12 485.958 215.114 1
12 -10 13 1005.72 283.887 1
10 -13 12 1023.01 308.299 1
13 -12 10 997.454 261.718 1
13 -12 9 1177.42 254.51 1
9 -13 12 1144.21 311.936 1
12 -9 13 1127.23 332.337 1
13 -12 8 -19.4638 121.695 1
12 -8 13 72.0638 77.5472 1
8 -13 12 13.3824 59.3832 1
13 -12 7 710.786 181.705 1
12 -7 13 1046.84 320.032 1
7 -13 12 1029 293.97 1
6 -13 12 708.974 250.423 1
13 -12 6 862.639 246.763 1
-5 -12 13 275.87 217.299 1
5 -13 12 221.866 149.339 1
4 -13 12 1121.29 245.41 1
-13 -4 12 1275.81 245.678 1
-4 -12 13 1337.84 343.927 1
-3 -12 13 2403.47 440.393 1
-13 -3 12 2138.25 317.768 1
3 -13 12 2516.13 425.189 1
-2 -12 13 387.064 124.435 1
-13 -2 12 488.099 151.454 1
2 -13 12 821.261 262.184 1
1 -13 12 226.434 154.395 1
-13 -1 12 45.6372 81.361 1
-1 -12 13 321.751 211.004 1
-12 0 13 847.604 188.053 1
0 -13 12 535.459 131.755 1
0 -12 13 831.857 261.429 1
-12 -1 13 154.067 77.4398 1
1 -12 13 7.37318 120.542 1
-1 -13 12 124.079 65.3841 1
2 -12 13 652.304 252.454 1
-2 -13 12 282.447 68.8099 1
-12 -2 13 497.773 189.2 1
3 -12 13 2192.75 410.425 1
-12 -3 13 2365.52 369.044 1
-3 -13 12 2248.05 393.488 1
4 -12 13 1175.22 328.227 1
-12 -4 13 1482.93 266.696 1
12 -13 5 431.9 165.797 1
5 -12 13 366.946 170.621 1
-12 -5 13 605.049 196.415 1
-12 -6 13 825.724 247.191 1
12 -13 6 855.052 237.168 1
6 -12 13 797.576 225.119 1
-12 -7 13 1130.31 281.59 1
7 -12 13 943.087 263.868 1
12 -13 7 978.174 243.854 1
8 -12 13 -4.55056 117.105 1
12 -13 8 138.409 73.5034 1
9 -12 13 1075.99 271.262 1
13 -9 12 1123.66 263.882 1
12 -13 9 1291.38 301.736 1
12 -13 10 763.667 276.506 1
13 -10 12 880.898 289.587 1
10 -12 13 871.287 269.478 1
11 -12 13 358.985 223.231 1
13 -11 12 525.411 206.172 1
12 -13 11 246.159 77.4178 1
12 -12 13 799.994 281.394 1
12 -13 12 795.196 237.221 1
13 -12 12 755.299 227.98 1
0 -13 13 1264.7 318.4 1
-13 -1 13 194.439 94.1349 1
1 -13 13 213.375 225.747 1
-1 -13 13 220.524 165.949 1
2 -13 13 3152.17 496.695 1
-13 -2 13 2948.34 390.927 1
-2 -13 13 2787.49 461.174 1
-3 -13 13 59.3005 69.7561 1
-13 -3 13 13.0816 80.6691 1
4 -13 13 938.353 271.792 1
-4 -13 13 696.291 245.051 1
-13 -4 13 336.397 175.114 1
-13 -5 13 1832.71 335.729 1
5 -13 13 1832.59 353.163 1
-5 -13 13 2045.74 389.268 1
6 -13 13 9878.91 886.866 1
-13 -6 13 10051.5 823.458 1
13 -13 7 850.502 236.652 1
7 -13 13 453.173 95.4368 1
-13 -7 13 943.475 281.493 1
8 -13 13 -153.853 117.638 1
13 -13 8 39.8533 109.967 1
13 -9 13 1263.31 328.766 1
13 -13 9 1234.7 310.284 1
9 -13 13 1073.17 305.974 1
13 -13 10 2560.37 444.227 1
10 -13 13 2912.71 475.711 1
13 -10 13 2541.29 495.982 1
13 -11 13 651.725 219.331 1
11 -13 13 763.21 277.219 1
13 -13 11 804.727 342.933 1
12 -13 13 695.989 225.497 1
13 -12 13 1005.15 286.378 1
13 -13 12 950.879 310.982 1
13 -13 13 3434.76 562.114 1
0 0 14 -227.629 138.459 1
0 -1 14 146.067 103.893 1
1 0 14 203.482 96.1923 1
0 1 14 121.175 104.564 1
-1 0 14 250.982 122.262 1
1 -1 14 2471.91 372.253 1
1 1 14 1938.58 309.866 1
-1 -1 14 1814.39 308.772 1
-1 1 14 2119.61 334.186 1
-2 1 14 -47.5462 79.8991 1
1 2 14 15.6671 85.1812 1
2 -1 14 -57.0211 95.994 1
2 0 14 670.807 197.716 1
0 -2 14 734.675 219.64 1
-2 0 14 749.327 203.821 1
0 2 14 1160.94 245.756 1
-2 -1 14 77.5217 81.0784 1
1 -2 14 279.901 68.1189 1
-1 2 14 -12.6875 119.762 1
2 1 14 207.671 124.494 1
-2 2 14 523.034 177.559 1
2 2 14 280.283 141.257 1
2 -2 14 380.465 178.878 1
-2 -2 14 276.38 118.069 1
3 -2 14 390.923 168.821 1
-2 -3 14 228.445 116.401 1
-3 2 14 356.711 143.375 1
3 -1 14 868.883 244.052 1
-3 1 14 531.573 138.903 1
-1 -3 14 929.641 247.134 1
0 -3 14 296.508 127.188 1
0 3 14 439.662 150.73 1
-3 0 14 258.465 123.799 1
3 0 14 217.325 65.2785 1
3 1 14 998.914 249.615 1
-3 -1 14 1008.96 252.047 1
-1 3 14 1058.32 252.949 1
1 -3 14 1065.93 254.041 1
2 -3 14 287.644 137.439 1
-3 -2 14 290.799 160.956 1
-2 3 14 447.693 166.503 1
-3 3 14 7611.11 595.72 1
-3 -3 14 7848.32 648.947 1
3 -3 14 8149.11 681.134 1
-4 3 14 516.954 160.738 1
-3 -4 14 577.64 128.786 1
4 -3 14 622.609 210.203 1
-2 -4 14 1599.91 328.797 1
4 -2 14 1321.03 293.399 1
-4 2 14 846.258 202.186 1
4 -1 14 654.849 140.984 1
-1 -4 14 814.258 245.666 1
-4 1 14 900.893 213.014 1
0 -4 14 4389.93 493.605 1
-4 0 14 4282.09 456.997 1
4 0 14 5114.35 550.03 1
4 1 14 805.855 275.734 1
-4 -1 14 351.749 144.782 1
1 -4 14 643.181 191.065 1
-4 -2 14 1066.62 215.688 1
2 -4 14 1316.08 317.823 1
3 -4 14 868.461 231.874 1
-4 -3 14 491.415 189.56 1
-4 -4 14 306.202 131.457 1
4 -4 14 295.765 181.21 1
-4 -5 14 1911.72 332.515 1
-5 4 14 1866.29 298.003 1
5 -4 14 1873.75 341.334 1
-3 -5 14 2584.86 410.259 1
-5 3 14 2011.84 299.029 1
5 -3 14 2088.86 350.515 1
-2 -5 14 246.789 158.903 1
5 -2 14 439.312 153.492 1
-5 2 14 123.13 52.1051 1
5 -1 14 5046.13 536.858 1
-5 1 14 5283.41 494.413 1
-1 -5 14 5301.64 547.75 1
0 -5 14 842.844 231.573 1
5 0 14 678.239 199.531 1
-5 0 14 485.427 150.342 1
1 -5 14 5554.67 574.812 1
-5 -1 14 5454.02 519.638 1
2 -5 14 583.39 243.49 1
-5 -2 14 175.044 133.856 1
-5 -3 14 2402.58 365.685 1
3 -5 14 1935.26 371.603 1
-5 -4 14 2645.27 395.292 1
4 -5 14 2496.62 411.02 1
5 -5 14 2015.07 343.371 1
-5 -5 14 2053.1 341.383 1
5 -14 5 2039.24 323.052 1
5 -14 6 3079.45 407.874 1
-5 -6 14 3006.77 430.453 1
6 -5 14 3275.94 442.853 1
6 -4 14 5304.61 590.591 1
-6 4 14 4666.65 443.717 1
4 -14 6 4704.55 507.055 1
-4 -6 14 5073.96 543.139 1
6 -3 14 6339.26 642.111 1
-3 -6 14 6130.64 613.871 1
-6 3 14 5664.75 503.417 1
6 -2 14 5180.39 592.075 1
-2 -6 14 5364.54 577.215 1
-6 2 14 5354.21 492.024 1
-1 -6 14 2887.04 410.664 1
6 -1 14 3560.61 490.843 1
-6 1 14 3493.98 395.681 1
0 -6 14 1044.82 248.48 1
6 0 14 859.761 244.218 1
-6 0 14 819.727 214.811 1
1 -6 14 3198.71 446.779 1
-6 -1 14 3677.71 435.282 1
2 -6 14 5474.11 586.25 1
-6 -2 14 5522.66 540.221 1
6 -14 3 5258.51 492.513 1
3 -6 14 5700.91 591.989 1
-6 -3 14 5201.58 537.388 1
-6 -4 14 4943.63 526.415 1
4 -6 14 4716.45 550.814 1
6 -14 4 4777.13 488.879 1
-6 -5 14 3293.72 438.188 1
6 -14 5 3538.37 416.939 1
5 -6 14 3731.97 514.23 1
-6 -6 14 356.55 150.793 1
6 -6 14 88.7979 120.41 1
6 -14 6 278.69 159.857 1
6 -14 7 1014.78 242.233 1
7 -6 14 1143.93 270.457 1
-6 -7 14 1285.61 318.244 1
7 -5 14 701.447 195.199 1
-5 -7 14 548.876 134.791 1
5 -14 7 600.653 188.134 1
7 -4 14 121.595 154.331 1
-4 -7 14 295.704 176.629 1
4 -14 7 421.332 156.092 1
-7 4 14 468.536 151.192 1
-3 -7 14 2593.42 402.69 1
7 -3 14 1975.97 357.878 1
-7 3 14 2421.36 316.347 1
-2 -7 14 84.7009 118.462 1
7 -2 14 -54.6696 81.1499 1
-7 2 14 49.0541 61.857 1
7 -1 14 4752.88 552.507 1
-1 -7 14 4550.74 532.042 1
-7 1 14 4574.73 456.292 1
-7 0 14 -63.1785 58.7817 1
0 -7 14 -12.2649 122.629 1
7 -14 1 4512.82 422.618 1
-7 -1 14 4591.11 471.601 1
1 -7 14 4552.33 525.383 1
-7 -2 14 122.137 72.2769 1
2 -7 14 -16.115 61.103 1
7 -14 2 59.4967 62.6877 1
3 -7 14 2375.43 398.358 1
7 -14 3 1952.22 301.464 1
-7 -3 14 2673.75 367.838 1
7 -14 4 288.705 98.0176 1
4 -7 14 551.026 204.09 1
-7 -4 14 358.133 167.717 1
7 -14 5 774.206 217.486 1
5 -7 14 608.151 152.726 1
-7 -5 14 501.22 164.229 1
6 -7 14 1587.1 355.735 1
-7 -6 14 1544.74 314.996 1
7 -14 6 1275.86 269.279 1
-7 -7 14 6.9504 172.361 1
7 -7 14 41.291 149.139 1
7 -14 7 325.343 145.153 1
-7 -8 14 1169.68 267.733 1
7 -14 8 1210.42 259.861 1
8 -7 14 1483.73 323.78 1
-6 -8 14 4197.13 535.379 1
6 -14 8 4373.76 541.762 1
8 -6 14 3975.44 538.75 1
-5 -8 14 3734.69 505.544 1
8 -5 14 3381.15 478.011 1
5 -14 8 2930.97 425.806 1
-4 -8 14 1361.76 304.704 1
4 -14 8 1605.69 328.504 1
8 -4 14 1431.91 298.766 1
3 -14 8 1204.54 259.754 1
-8 3 14 1635.77 264.826 1
-3 -8 14 1486.11 305.419 1
8 -3 14 1635.74 361.475 1
8 -2 14 937.381 236.618 1
-2 -8 14 525.809 157.199 1
-8 2 14 781.719 188.341 1
8 -14 -1 4754.12 376.755 1
-8 1 14 4815.32 470.418 1
-1 -8 14 5144.21 586.916 1
8 -14 0 10187.4 595.018 1
0 -8 14 11246.6 864.322 1
-8 0 14 10525.6 703.922 1
8 -14 1 4454.46 417.197 1
1 -8 14 4813.52 583.534 1
-8 -1 14 5046.75 495.612 1
-8 -2 14 565.047 197.308 1
8 -14 2 645.269 161.591 1
2 -8 14 627.122 210.143 1
-8 -3 14 1379.24 269.28 1
8 -14 3 1285.68 236.752 1
3 -8 14 1719.06 332.827 1
-8 -4 14 1419.99 288.484 1
4 -8 14 1314.24 307.324 1
8 -14 4 1227.01 269.031 1
8 -14 5 3091.13 398.895 1
-8 -5 14 3146.69 438.53 1
5 -8 14 3190.56 487.74 1
-8 -6 14 4143.9 531.511 1
8 -14 6 4188.6 493.763 1
6 -8 14 4564.66 563.146 1
7 -8 14 1496.46 342.813 1
-8 -7 14 1895.73 361.814 1
8 -14 7 1528.62 313.335 1
8 -14 8 -307.5 183.58 1
-8 -8 14 31.9211 67.7102 1
8 -8 14 -140.199 68.4981 1
9 -8 14 912.017 268.638 1
-8 -9 14 585.354 194.609 1
8 -14 9 343.21 141.479 1
9 -7 14 298.82 113.506 1
7 -14 9 175.577 116.234 1
-7 -9 14 557.45 205.041 1
6 -14 9 25.3498 86.4932 1
-6 -9 14 -130.405 182.112 1
9 -5 14 1855.12 383.038 1
5 -14 9 1686.24 333.518 1
-5 -9 14 1421.34 308.647 1
4 -14 9 1726.58 339.581 1
9 -4 14 2094.87 407.718 1
-4 -9 14 2063.33 387.121 1
3 -14 9 1754.82 366.574 1
-3 -9 14 1324.99 270.757 1
9 -3 14 1906.79 368.599 1
-9 3 14 1285.9 217.549 1
-2 -9 14 116.559 104.338 1
2 -14 9 185.407 81.8209 1
-9 2 14 39.5949 98.0497 1
-9 1 14 1251.57 251.211 1
-1 -9 14 1170.49 260.648 1
0 -9 14 -35.6829 114.734 1
-9 0 14 74.395 57.0867 1
-9 -1 14 1387.9 278.664 1
1 -9 14 1419.82 304.774 1
9 -14 1 1152.67 195.813 1
2 -9 14 77.6822 223.253 1
9 -14 2 52.7922 38.5135 1
-9 -2 14 -52.6026 142.15 1
-9 -3 14 1454.88 285.661 1
3 -9 14 1245.64 319.589 1
9 -14 3 1323.33 228.453 1
-9 -4 14 1829.53 316.683 1
9 -14 4 1623.95 249.563 1
4 -9 14 1923.22 372.421 1
9 -14 5 1588.9 284.869 1
5 -9 14 1848.58 382.643 1
-9 -5 14 1612.65 316.014 1
6 -9 14 228.037 144.694 1
9 -14 6 76.4106 76.407 1
-9 -6 14 47.4134 91.564 1
-9 -7 14 145.253 82.0973 1
9 -14 7 171.458 95.7594 1
7 -9 14 257.28 176.914 1
9 -14 8 685.03 195.503 1
8 -9 14 823.806 280.336 1
-9 -8 14 389.365 147.436 1
-9 -9 14 5.15607 98.1001 1
9 -9 14 68.5675 115.952 1
9 -14 9 29.238 97.3238 1
-9 -10 14 3064.3 497.355 1
10 -9 14 2650.63 486.552 1
9 -14 10 2525.94 419.05 1
8 -14 10 558.557 176.825 1
-8 -10 14 830.811 256.133 1
10 -8 14 783.978 240.23 1
10 -7 14 1648.34 346.456 1
-7 -10 14 1792.56 387.397 1
7 -14 10 1674.21 365.694 1
10 -6 14 45.155 112.977 1
6 -14 10 142.156 103.336 1
-5 -10 14 1545.79 332.132 1
5 -14 10 1783.95 363.621 1
10 -5 14 1809.42 386.65 1
-4 -10 14 2549.74 438.557 1
4 -14 10 2408.21 408.421 1
10 -4 14 2624.75 438.541 1
3 -14 10 3118.31 469.994 1
-3 -10 14 3101.04 478.248 1
2 -14 10 2067.67 365.242 1
-2 -10 14 2471.95 428.401 1
-10 2 14 1694.21 243.085 1
-1 -10 14 1081.05 272.293 1
1 -14 10 1241.84 295.929 1
-14 -1 10 986.441 191.015 1
-10 1 14 1098.53 209.435 1
-10 0 14 306.39 92.9091 1
0 -14 10 461.943 194.493 1
0 -10 14 736.856 264.568 1
1 -10 14 1129.3 289.84 1
-10 -1 14 1275.63 283.25 1
-10 -2 14 1611.32 260.799 1
2 -10 14 1841.03 363.876 1
3 -10 14 3573.11 503.934 1
10 -14 3 3161.01 352.619 1
-10 -3 14 3273.67 435.443 1
-10 -4 14 2380.67 376.767 1
4 -10 14 2268.63 395.791 1
10 -14 4 2299.4 327.413 1
10 -14 5 1844.32 301.705 1
-10 -5 14 1524.48 294.262 1
5 -10 14 1620.7 373.171 1
10 -14 6 225.563 132.836 1
-10 -6 14 300.016 133.418 1
6 -10 14 419.522 238.714 1
7 -10 14 1510.41 358.314 1
-10 -7 14 1792.79 356.374 1
10 -14 7 1505.6 302.055 1
-10 -8 14 754.014 233.557 1
8 -10 14 775.882 255.598 1
10 -14 8 513.239 164.914 1
10 -14 9 2845.21 443.764 1
-10 -9 14 2417.13 428.567 1
9 -10 14 2423.77 439.928 1
-10 -10 14 1406.09 337.903 1
10 -14 10 1248.71 302.262 1
10 -10 14 1329.37 340.855 1
11 -10 14 -101.453 148.973 1
10 -14 11 298.848 187.358 1
14 -11 10 131.358 103.344 1
-10 -11 14 145.891 138.51 1
9 -14 11 1210.34 321.157 1
-9 -11 14 950.265 275.467 1
11 -9 14 1339.91 338.625 1
11 -8 14 1021.43 297.572 1
-8 -11 14 1204.48 321 1
8 -14 11 1100.77 303.154 1
11 -7 14 187.929 128.959 1
7 -14 11 129.78 130.324 1
11 -6 14 1023.65 306.369 1
6 -14 11 778.946 249.533 1
-6 -11 14 691.87 253.719 1
11 -5 14 1650.4 390.02 1
-5 -11 14 1504.12 348.56 1
5 -14 11 1252.55 307.72 1
-4 -11 14 427.411 204.96 1
4 -14 11 646.38 234.55 1
3 -14 11 637.633 198.792 1
-3 -11 14 929.108 256.079 1
-14 -3 11 773.139 187.465 1
-14 -2 11 784.35 185.336 1
2 -14 11 941.458 259.353 1
-2 -11 14 973.828 291.232 1
-1 -11 14 476.565 218.564 1
-11 1 14 403.339 150.54 1
1 -14 11 432.786 207.825 1
-11 0 14 500.791 122.56 1
0 -14 11 462.693 163.11 1
0 -11 14 661.649 253.846 1
-1 -14 11 376.154 185.008 1
-11 -1 14 510.938 167.965 1
1 -11 14 442.532 212.937 1
-11 -2 14 626.302 163.048 1
2 -11 14 710.714 234.1 1
-11 -3 14 766.96 206.82 1
3 -11 14 906.595 251.509 1
4 -11 14 226.065 125.717 1
-11 -4 14 561.233 193.422 1
-11 -5 14 884.894 232.818 1
11 -14 5 1130.13 266.22 1
5 -11 14 938.632 293.608 1
11 -14 6 772.904 189.228 1
6 -11 14 1176.51 322.73 1
-11 -6 14 684.773 210.382 1
7 -11 14 310.02 260.616 1
-11 -7 14 159.661 88.8358 1
11 -14 7 133.213 59.1898 1
-11 -8 14 759.345 207.069 1
8 -11 14 1004.28 314.869 1
11 -14 8 861.843 214.52 1
9 -11 14 1027.76 340.268 1
11 -14 9 1011.52 304.328 1
-11 -9 14 1186.21 290.844 1
11 -14 10 340.709 195.732 1
-11 -10 14 17.8526 96.0993 1
10 -11 14 283.444 166.332 1
14 -11 11 58.2015 148.414 1
11 -11 14 -32.8348 136.635 1
11 -14 11 88.6062 96.6223 1
11 -14 12 2248.53 450.379 1
14 -12 11 2113.34 413.301 1
12 -11 14 2067.16 432.461 1
14 -12 10 918.302 283.88 1
10 -14 12 775.191 274.221 1
12 -10 14 520.217 201.352 1
9 -14 12 2016.44 412.753 1
14 -12 9 1867.45 326.464 1
-9 -12 14 2067.29 417.397 1
12 -9 14 2522.55 464.956 1
8 -14 12 633.267 133.456 1
12 -8 14 666.676 195.258 1
-8 -12 14 815.168 267.841 1
14 -12 8 708.293 216.218 1
-7 -12 14 2265 443.547 1
12 -7 14 2596.4 450.171 1
7 -14 12 2443.03 436.265 1
6 -14 12 940.687 235.838 1
-6 -12 14 1261.97 319.719 1
5 -14 12 5716.14 674.279 1
-5 -12 14 5494.76 656.662 1
4 -14 12 -107.651 158.644 1
-14 -4 12 -11.0453 111.187 1
-4 -12 14 291.438 199.681 1
3 -14 12 439.089 202.617 1
-3 -12 14 346.596 123.6 1
-14 -3 12 410.814 133.951 1
-14 -2 12 645.87 143.655 1
2 -14 12 1137.55 303.245 1
-2 -12 14 707.028 238.176 1
1 -14 12 1331 301.365 1
-1 -12 14 1308.52 323.177 1
0 -12 14 739.768 226.514 1
0 -14 12 1045.81 292.024 1
-12 -1 14 1092.04 222.616 1
1 -12 14 1583.35 341.389 1
-1 -14 12 1250.58 323.983 1
2 -12 14 993.846 284.941 1
-2 -14 12 740.634 225.224 1
-12 -2 14 514.7 140.719 1
-12 -3 14 308.881 149.478 1
-3 -14 12 505.105 239.353 1
3 -12 14 539.362 178.097 1
4 -12 14 70.5206 144.673 1
-12 -4 14 119.276 97.5827 1
5 -12 14 5796.55 683.477 1
-12 -5 14 5544.19 600.978 1
-12 -6 14 1497.66 338.863 1
6 -12 14 1232.88 305.06 1
-12 -7 14 2262.38 403.191 1
7 -12 14 2032.39 416.389 1
12 -14 7 2315.36 370.779 1
12 -14 8 1130.08 263.481 1
-12 -8 14 996.811 279.44 1
8 -12 14 1096.11 337.781 1
-12 -9 14 2056.44 413.586 1
12 -14 9 2033.66 369.339 1
9 -12 14 1822.05 388.088 1
10 -12 14 871.346 239.482 1
-12 -10 14 685.082 276.518 1
12 -14 10 815.781 252.846 1
11 -12 14 2303.11 445.843 1
14 -11 12 2134.9 432.572 1
12 -14 11 2244.29 427.754 1
12 -14 12 3948.94 598.131 1
12 -12 14 3604.44 569.79 1
14 -12 12 3781.01 564.859 1
14 -13 12 33.0163 136.803 1
13 -12 14 -264.079 239.036 1
12 -14 13 167.805 178.043 1
14 -13 11 908.854 279.55 1
13 -11 14 1256.64 355.75 1
11 -14 13 1107.98 316.417 1
14 -13 10 962.945 285.352 1
10 -14 13 1105.5 290.172 1
13 -10 14 1404.17 368.67 1
9 -14 13 194.576 127.714 1
13 -9 14 334.006 171.404 1
8 -14 13 1049.72 325.159 1
-8 -13 14 1118.97 294.444 1
7 -14 13 958.839 296.674 1
-14 -7 13 657.799 227.44 1
-7 -13 14 728.595 280.685 1
-6 -13 14 269.329 99.4918 1
-14 -6 13 265.071 105.839 1
-5 -13 14 2640.73 452.338 1
-14 -5 13 2553.66 412.174 1
5 -14 13 2485.42 438.703 1
-14 -4 13 859.829 203.912 1
4 -14 13 800.809 285.595 1
-4 -13 14 863.233 304.775 1
-3 -13 14 580.49 263.64 1
3 -14 13 759.085 253.416 1
-14 -3 13 774.549 247.588 1
-2 -13 14 1069.91 297.697 1
2 -14 13 799.639 272.018 1
-1 -13 14 943.751 299.464 1
1 -14 13 874.204 241.462 1
0 -13 14 208.164 164.673 1
0 -14 13 -186.577 215.912 1
-1 -14 13 1066.28 328.206 1
1 -13 14 954.185 304.64 1
-13 -2 14 997.336 232.693 1
2 -13 14 1062.79 287.151 1
-2 -14 13 950.731 311.6 1
-3 -14 13 625.91 138.345 1
-13 -3 14 491.573 167.481 1
3 -13 14 327.918 100.032 1
-4 -14 13 1006.6 296.423 1
4 -13 14 688.24 284.516 1
-13 -4 14 688.283 177.049 1
-5 -14 13 2150.65 435.772 1
5 -13 14 2040.44 400.597 1
-13 -5 14 2147.41 393.333 1
6 -13 14 333.103 194.545 1
-13 -6 14 454.361 258.894 1
7 -13 14 741.42 270.064 1
-13 -7 14 708.192 256.959 1
-13 -8 14 633.822 208.811 1
8 -13 14 1126.48 333.139 1
9 -13 14 -44.8296 155.989 1
-13 -9 14 212.83 208.666 1
13 -14 9 192.357 165.758 1
10 -13 14 1215.65 322.964 1
13 -14 10 1137.86 274.75 1
-13 -10 14 1313.89 335.371 1
11 -13 14 1255.41 297.921 1
13 -14 11 881.909 248.682 1
14 -11 13 1214.62 331.824 1
13 -14 12 203.531 120.016 1
12 -13 14 136.883 93.2609 1
14 -12 13 107.943 102.35 1
13 -14 13 170.636 198.643 1
14 -13 13 -37.167 71.1193 1
13 -13 14 11.7209 108.956 1
0 -14 14 334.182 233.133 1
1 -14 14 181.234 125.18 1
-1 -14 14 250.385 136.304 1
-2 -14 14 282.586 157.023 1
2 -14 14 -152.482 164.248 1
-14 -3 14 8169.02 694.017 1
-3 -14 14 8425.99 864.475 1
3 -14 14 8409.79 833.304 1
4 -14 14 1192.5 297.599 1
-4 -14 14 954.224 186.659 1
-14 -4 14 1322.98 293.708 1
-14 -5 14 640.779 222.094 1
5 -14 14 476.151 154.825 1
-5 -14 14 529.794 191.989 1
6 -14 14 40.6958 164.208 1
-14 -6 14 73.1212 130.333 1
-6 -14 14 124.328 137.938 1
-14 -7 14 7914.94 768.456 1
7 -14 14 7611.26 813.255 1
-7 -14 14 7701.74 842.96 1
8 -14 14 2962.96 505.902 1
-8 -14 14 2952.92 565.621 1
-14 -8 14 2839.26 476.507 1
-14 -9 14 714.202 274.12 1
9 -14 14 513.495 217.464 1
10 -14 14 1311.32 366.445 1
-14 -10 14 1194.99 326.67 1
11 -14 14 181.629 109.792 1
14 -12 14 272.149 194.75 1
14 -14 12 5.62877 104.203 1
12 -14 14 122.106 100.931 1
14 -13 14 260.427 130.915 1
14 -14 13 136.583 113.425 1
14 -14 14 2421.47 475.674 1
0 0 15 2.13511 58.1756 1
0 1 15 110.744 77.7459 1
1 0 15 27.844 71.43 1
0 -1 15 242.956 79.7513 1
-1 0 15 236.335 76.8236 1
-1 -1 15 205.817 59.6837 1
-1 1 15 94.9934 85.1062 1
1 -1 15 281.311 175.856 1
1 1 15 404.392 157.931 1
1 2 15 372.967 126.698 1
-2 1 15 111.004 126.783 1
2 -1 15 145.467 158.053 1
-1 -2 15 5.49814 69.5307 1
0 -2 15 1469.95 283.476 1
2 0 15 1253.52 290.091 1
-2 0 15 1208.57 275.16 1
0 2 15 1408.03 295.636 1
-2 -1 15 95.7065 139.893 1
-1 2 15 179.952 141.933 1
2 1 15 -45.8267 113.6 1
1 -2 15 -33.5889 119.212 1
2 -2 15 2055.86 356.07 1
-2 2 15 2619.22 386.986 1
2 2 15 2800.06 414.686 1
-2 -2 15 2503.83 388.107 1
-2 -3 15 718.244 231.267 1
-3 2 15 476.429 162.089 1
3 -2 15 436.149 138.948 1
3 -1 15 1890.55 334.985 1
-3 1 15 1890.06 321.398 1
-1 -3 15 1682.07 306.941 1
3 0 15 1641.16 310.626 1
-3 0 15 1946.61 330.716 1
0 -3 15 1830.51 344.944 1
3 1 15 1887.99 347.912 1
-1 3 15 2006.65 331.34 1
1 -3 15 1801.08 322.536 1
-3 -1 15 1709.41 337.033 1
-3 -2 15 465.836 160.03 1
2 -3 15 786.411 207.101 1
-2 3 15 651.203 189.226 1
3 -3 15 916.853 243.029 1
-3 3 15 632.253 165.286 1
-3 -3 15 787.906 196.422 1
-4 3 15 1164.86 238.92 1
-3 -4 15 884.1 211.436 1
4 -3 15 1161.13 285.773 1
4 -2 15 2049.33 337.236 1
-2 -4 15 2555.09 389.193 1
-4 2 15 3253.58 415.11 1
-1 -4 15 2042.76 351.307 1
-4 1 15 1912.32 304.293 1
4 -1 15 2490.23 416.948 1
0 -4 15 1674.83 335.664 1
4 0 15 1311.88 307.875 1
-4 0 15 1569.26 303.305 1
-4 -1 15 2213.08 364.1 1
1 -4 15 2160.05 369.772 1
4 1 15 2199.71 394.251 1
2 -4 15 3416.14 445.568 1
-4 -2 15 2969.13 407.335 1
-4 -3 15 1163.25 263.213 1
3 -4 15 1029.3 254.69 1
4 -4 15 448.508 181.489 1
-4 -4 15 314.167 165.294 1
5 -4 15 1568.41 331.447 1
-4 -5 15 1190.94 284.399 1
-3 -5 15 924.93 239.149 1
-5 3 15 923.93 223.398 1
5 -3 15 542.072 220.256 1
5 -2 15 6626.25 660.021 1
-2 -5 15 6844.69 662.945 1
-5 2 15 6349.8 557.754 1
5 -1 15 3343.62 469.723 1
-1 -5 15 3146.45 437.066 1
-5 1 15 3179.59 399.507 1
-5 0 15 2090.41 338.939 1
0 -5 15 2467.28 404.894 1
5 0 15 2141.05 383.408 1
1 -5 15 2733.53 423.896 1
-5 -1 15 2714.73 389.737 1
2 -5 15 6395.35 645.366 1
-5 -2 15 5726.85 577.803 1
-5 -3 15 926.212 256.206 1
3 -5 15 1115.62 260.164 1
4 -5 15 1452.72 334.599 1
-5 -4 15 1492.87 287.634 1
5 -5 15 1638.72 354.023 1
5 -15 5 1548.57 304.173 1
-5 -5 15 1539.94 303.163 1
-5 -6 15 1639.52 359.914 1
5 -15 6 1118.11 240.374 1
6 -5 15 1472.41 325.584 1
6 -4 15 2030.14 376.793 1
4 -15 6 2306.05 365.385 1
-4 -6 15 2341 397.699 1
-3 -6 15 1018.25 241.851 1
6 -3 15 1111.86 284.04 1
-6 3 15 984.625 210.211 1
-2 -6 15 578.367 261.525 1
-6 2 15 629.032 194.587 1
6 -2 15 389.439 123.696 1
6 -1 15 470.468 206.348 1
-6 1 15 531.527 168.628 1
-1 -6 15 473.115 190.176 1
0 -6 15 7359.62 698.598 1
-6 0 15 7479.11 621.552 1
1 -6 15 470.029 124.978 1
-6 -1 15 570.938 176.457 1
2 -6 15 447.937 176.604 1
-6 -2 15 353.212 136.63 1
6 -15 3 1150.22 241.853 1
3 -6 15 1128.99 275.893 1
-6 -3 15 929.573 247.496 1
-6 -4 15 2367.1 389.455 1
4 -6 15 2233.83 409.508 1
6 -15 4 2138.55 334.596 1
-6 -5 15 1375.74 304.18 1
6 -15 5 1456.47 294.629 1
5 -6 15 1052.92 226.197 1
-6 -6 15 90.3137 75.3063 1
6 -6 15 328.825 178.066 1
6 -15 6 333.412 148.547 1
7 -6 15 415.802 183.651 1
-6 -7 15 486.441 158.841 1
6 -15 7 170.888 144.994 1
-5 -7 15 2348.66 385.438 1
7 -5 15 2449.61 434.827 1
5 -15 7 2115.06 358.711 1
7 -4 15 5819.45 658.575 1
4 -15 7 4939.35 554.828 1
-4 -7 15 5155.33 584.364 1
7 -3 15 1336.77 308.279 1
-3 -7 15 1577.49 335.373 1
-7 3 15 1431.02 267.02 1
-2 -7 15 427.368 171.328 1
-7 2 15 287.33 106.005 1
7 -2 15 739.354 220.062 1
-1 -7 15 4247.75 565.391 1
-7 1 15 4268.64 452.644 1
7 -1 15 4845.43 601.443 1
0 -7 15 5626.91 630.27 1
-7 0 15 5493.67 535.065 1
7 -15 1 4589.72 444.237 1
-7 -1 15 4392.54 497.212 1
1 -7 15 4847.17 572.738 1
2 -7 15 622.678 206.324 1
-7 -2 15 637.254 197.131 1
7 -15 2 417.76 118.72 1
7 -15 3 1240.08 233.841 1
-7 -3 15 1042.61 239.554 1
3 -7 15 1597.61 339.904 1
7 -15 4 4950.33 506.212 1
4 -7 15 5469.81 641.952 1
-7 -4 15 4804.69 546.366 1
5 -7 15 2364.42 399.077 1
7 -15 5 2073.76 327.186 1
-7 -5 15 1899.87 341.581 1
-7 -6 15 246.45 66.0402 1
7 -15 6 491.886 206.417 1
6 -7 15 292.922 138.492 1
-7 -7 15 1591.09 341.098 1
7 -15 7 1881.05 333.788 1
7 -7 15 2276.78 433.539 1
8 -7 15 3125.52 468.689 1
-7 -8 15 2825.74 454.894 1
7 -15 8 2781.94 435.484 1
-6 -8 15 1452.3 331.217 1
6 -15 8 1328.31 297.663 1
8 -6 15 1521.92 351.006 1
5 -15 8 178.082 70.1196 1
8 -5 15 64.3614 135.893 1
-5 -8 15 253.998 118.413 1
8 -4 15 -44.2051 83.5114 1
-4 -8 15 -103.712 114.222 1
4 -15 8 -10.5214 96.5978 1
-8 3 15 237.318 140.312 1
-3 -8 15 234.147 153.067 1
8 -3 15 82.7054 124.544 1
3 -15 8 271.077 129.37 1
8 -2 15 2465.12 411.691 1
-8 2 15 2475.21 342.616 1
-2 -8 15 2679.56 439.273 1
-1 -8 15 27.8561 88.8883 1
-8 1 15 96.6222 45.1627 1
-8 0 15 -79.6236 59.8767 1
0 -8 15 22.1173 129.319 1
8 -15 0 -72.7791 83.4651 1
1 -8 15 207.274 194.702 1
8 -15 1 224.289 105.634 1
-8 -1 15 182.598 53.7205 1
-8 -2 15 2598.25 390.195 1
2 -8 15 2571.03 433.594 1
8 -15 2 2570.13 325.2 1
-8 -3 15 163.098 119.238 1
8 -15 3 98.8969 55.8215 1
3 -8 15 -27.1766 86.9815 1
8 -15 4 80.412 42.5924 1
4 -8 15 147.458 124.219 1
-8 -4 15 168.018 152.706 1
5 -8 15 167.291 140.565 1
-8 -5 15 354.362 167.659 1
8 -15 5 203.215 88.211 1
8 -15 6 1586.54 310.627 1
-8 -6 15 1791.9 364.097 1
6 -8 15 1392.45 346.541 1
7 -8 15 2555.97 446.355 1
-8 -7 15 2678.9 451.84 1
8 -15 7 2924.24 440.23 1
-8 -8 15 390.984 164.592 1
8 -8 15 340.161 207.985 1
8 -15 8 422.519 117.203 1
-8 -9 15 233.601 81.7018 1
9 -8 15 293.038 137.454 1
8 -15 9 140.686 65.1857 1
9 -7 15 553.88 171.435 1
-7 -9 15 831.821 220.355 1
-6 -9 15 4745.6 602.797 1
9 -6 15 5170.96 631.583 1
6 -15 9 4352.1 555.369 1
-5 -9 15 1630.93 345.418 1
5 -15 9 1988.73 374.855 1
9 -5 15 1888.26 389.069 1
4 -15 9 524.577 165.392 1
9 -4 15 710.178 222.196 1
-4 -9 15 681.642 193.038 1
-3 -9 15 3385.75 523.936 1
9 -3 15 3452.04 529.157 1
-9 3 15 3158.35 375.554 1
3 -15 9 3281.88 479.563 1
-2 -9 15 1562.9 309.865 1
2 -15 9 1599.58 360.975 1
-9 2 15 1490.57 264.427 1
-1 -9 15 2334.6 414.947 1
-9 1 15 2272.84 331.133 1
0 -9 15 2275.63 431.988 1
-9 0 15 2011.77 330.653 1
1 -9 15 1886.49 374.898 1
-9 -1 15 1713.18 308.889 1
2 -9 15 1233.52 283.817 1
9 -15 2 1482.28 263.802 1
-9 -2 15 1150.74 325.763 1
-9 -3 15 3286.45 447.389 1
9 -15 3 3263.64 374.656 1
3 -9 15 3423.42 498.522 1
-9 -4 15 741.332 185.853 1
9 -15 4 779.733 220.598 1
4 -9 15 1032.89 239.401 1
-9 -5 15 1736.86 348.07 1
9 -15 5 1913.94 317.63 1
5 -9 15 1973.14 401.992 1
9 -15 6 5079.78 542.63 1
-9 -6 15 5001.55 582.472 1
6 -9 15 4590.47 601.482 1
7 -9 15 1034.24 292.587 1
9 -15 7 673.379 217.385 1
-9 -7 15 1126.46 314.781 1
8 -9 15 290.822 182.116 1
9 -15 8 333.611 121.952 1
-9 -8 15 318.177 103.248 1
9 -15 9 1135.89 300.482 1
-9 -9 15 822.37 251.791 1
9 -9 15 889.756 247.34 1
9 -15 10 1194.65 267.336 1
10 -9 15 1655.22 365.631 1
-9 -10 15 1434.25 330.333 1
8 -15 10 339.699 177.57 1
-8 -10 15 402.929 186.717 1
10 -8 15 155.722 189.917 1
10 -7 15 639.667 303.713 1
7 -15 10 816.897 246.063 1
-7 -10 15 688.734 191.549 1
-6 -10 15 230.801 147.277 1
6 -15 10 128.662 111.362 1
10 -6 15 438.435 258.523 1
-5 -10 15 407.775 195.405 1
5 -15 10 370.76 136.148 1
10 -5 15 515.483 211.311 1
-4 -10 15 1538.81 333.551 1
10 -4 15 1637.67 349.469 1
4 -15 10 1761.52 371.55 1
3 -15 10 465.862 138.897 1
-3 -10 15 639.042 268.654 1
-2 -10 15 517.122 179.092 1
-10 2 15 660.369 145.855 1
2 -15 10 598.404 198.468 1
-10 1 15 61.6485 66.0651 1
1 -15 10 131.888 108.286 1
-1 -10 15 20.6282 102.557 1
0 -10 15 778.167 222.261 1
-10 0 15 696.901 163.24 1
-10 -1 15 41.1604 100.879 1
1 -10 15 96.4208 101.566 1
-10 -2 15 779.339 201.362 1
2 -10 15 683.036 231.255 1
3 -10 15 481.288 139.335 1
-10 -3 15 681.378 188.892 1
10 -15 4 1292.88 247.496 1
4 -10 15 1813.83 377.535 1
-10 -4 15 1668.58 325.006 1
10 -15 5 287.103 108.204 1
5 -10 15 202.992 105.374 1
-10 -5 15 249.047 155.723 1
-10 -6 15 227.569 144.812 1
10 -15 6 112.668 116.116 1
6 -10 15 71.2087 130.848 1
-10 -7 15 426.604 166.883 1
10 -15 7 724.415 210.147 1
7 -10 15 610.43 238.263 1
8 -10 15 305.867 164.037 1
10 -15 8 174.174 97.6628 1
-10 -8 15 64.6752 105.425 1
9 -10 15 1597.83 367.659 1
10 -15 9 1494.63 339.799 1
-10 -9 15 1452.9 346.927 1
10 -15 10 109.496 106.728 1
-10 -10 15 298.574 140.14 1
10 -10 15 -71.4201 154.658 1
-10 -11 15 1645.23 400.291 1
11 -10 15 1436.37 332.869 1
10 -15 11 1729.77 385.046 1
11 -9 15 2032.59 437.437 1
-9 -11 15 1509.44 352.839 1
9 -15 11 1717.28 395.61 1
8 -15 11 3287.57 504.674 1
-8 -11 15 3646.17 541.103 1
11 -8 15 3963.45 607.68 1
-7 -11 15 680.729 215.224 1
7 -15 11 622.296 239.393 1
11 -7 15 1040.63 327.616 1
11 -6 15 4574.93 626.33 1
6 -15 11 4179.76 581.134 1
-6 -11 15 4776.59 633.008 1
-5 -11 15 2335.06 442.933 1
5 -15 11 1766 385.378 1
4 -15 11 1739.8 386.728 1
-4 -11 15 2045.77 424.203 1
3 -15 11 403.581 100.103 1
-3 -11 15 206.831 84.8073 1
-15 -3 11 392.858 131.398 1
-2 -11 15 2862.05 487.828 1
2 -15 11 2413.34 414.719 1
1 -15 11 1173.15 334.014 1
-1 -11 15 1010.32 236.511 1
0 -11 15 20.2752 63.8544 1
-11 0 15 -82.1495 73.3881 1
0 -15 11 93.0035 91.2213 1
-1 -15 11 1116.41 308.423 1
1 -11 15 1350.89 356.083 1
-11 -1 15 1008.38 273.361 1
2 -11 15 2780.43 483.868 1
-11 -2 15 2795.48 411.229 1
-11 -3 15 333.219 171.428 1
3 -11 15 601.899 283.209 1
4 -11 15 1498.82 365.013 1
-11 -4 15 1732.57 342.623 1
-11 -5 15 2051.82 375.876 1
5 -11 15 2401.49 439.58 1
-11 -6 15 4327.63 545.833 1
11 -15 6 4451.18 501.941 1
6 -11 15 4390.98 601.52 1
7 -11 15 996.707 335.873 1
11 -15 7 1241.25 282.213 1
-11 -7 15 1055.67 300.945 1
11 -15 8 3658.26 491.03 1
-11 -8 15 4018.57 575.765 1
8 -11 15 3436.37 535.762 1
-11 -9 15 1832.71 364.69 1
9 -11 15 1533.16 378.236 1
11 -15 9 1752.46 361.987 1
-11 -10 15 1477.16 358.503 1
11 -15 10 1577.52 357.762 1
10 -11 15 1460.08 337.913 1
11 -15 11 644.043 250.005 1
-11 -11 15 754.854 289.221 1
11 -11 15 586.852 248.712 1
11 -15 12 1350.63 327.798 1
-11 -12 15 1388.87 351.288 1
12 -11 15 1307.18 364.455 1
12 -10 15 613.57 257.414 1
10 -15 12 580.121 253.204 1
-10 -12 15 492.927 270.309 1
-9 -12 15 464.583 186.093 1
12 -9 15 514.802 218.078 1
9 -15 12 465.287 168.382 1
8 -15 12 107.095 87.2698 1
12 -8 15 -94.4726 105.727 1
-8 -12 15 194.634 106.553 1
12 -7 15 -73.1031 98.7996 1
7 -15 12 72.5715 85.5202 1
-7 -12 15 131.656 167.021 1
6 -15 12 1922.3 414.944 1
-6 -12 15 1993.74 407.204 1
-5 -12 15 1582.62 350.704 1
-15 -5 12 1569.85 317.879 1
5 -15 12 1428.16 333.292 1
4 -15 12 387.255 194.934 1
-15 -4 12 462.76 171.596 1
-4 -12 15 845.804 309.672 1
-3 -12 15 356.806 181.225 1
3 -15 12 155.175 85.1737 1
2 -15 12 1420 341.316 1
-2 -12 15 1326.91 317.776 1
-1 -12 15 1237.1 340.529 1
1 -15 12 1420.51 330.538 1
0 -12 15 897.827 290.566 1
0 -15 12 1051.85 282.641 1
1 -12 15 1179.8 263.381 1
-12 -1 15 835.978 194.38 1
-1 -15 12 1228.86 310.184 1
-12 -2 15 1236.87 274.195 1
-2 -15 12 1206.68 308.875 1
2 -12 15 880.14 220.745 1
-3 -15 12 374.595 190.829 1
-12 -3 15 398.655 155.836 1
3 -12 15 205.276 71.5949 1
4 -12 15 334.335 182.666 1
-12 -4 15 494.328 155.285 1
-12 -5 15 1798.37 370.087 1
5 -12 15 1825.46 386.912 1
-12 -6 15 1980.97 361.653 1
6 -12 15 1890.44 442.752 1
-12 -7 15 103.838 74.2249 1
7 -12 15 128.502 107.94 1
-12 -8 15 121.489 160.181 1
12 -15 8 282.705 174.622 1
-12 -9 15 220.257 162.087 1
9 -12 15 313.61 185.858 1
12 -15 9 271.198 140.751 1
12 -15 10 528.565 216.61 1
10 -12 15 449.019 216.034 1
-12 -10 15 570.135 259.876 1
-12 -11 15 1285.31 374.172 1
11 -12 15 1594.53 396.424 1
12 -15 11 1339.89 306.218 1
-12 -12 15 329.149 125.895 1
12 -15 12 560.271 207.539 1
12 -12 15 347.076 78.1962 1
-12 -13 15 718.73 284.953 1
13 -12 15 787.445 245.361 1
12 -15 13 694.679 238.245 1
-11 -13 15 2704.65 554.046 1
13 -11 15 2602.71 497.895 1
11 -15 13 2090.12 433.087 1
-10 -13 15 371.249 166.982 1
10 -15 13 672.143 267.761 1
13 -10 15 767.664 318.012 1
9 -15 13 -181.828 64.8764 1
13 -9 15 -42.106 129.782 1
-9 -13 15 -244.394 190.149 1
8 -15 13 3105.3 544.14 1
-8 -13 15 2862.69 522.688 1
-15 -7 13 1716.1 357.185 1
7 -15 13 1831.39 406.723 1
-7 -13 15 1817.43 412.769 1
6 -15 13 2517.41 480.095 1
-6 -13 15 2098.87 441.496 1
-15 -6 13 2395.39 418.318 1
-5 -13 15 1328.97 356.703 1
5 -15 13 1239.61 354.806 1
-15 -5 13 1586.11 330.075 1
-4 -13 15 5173.64 702.252 1
4 -15 13 4719.73 633.056 1
-15 -4 13 4810.34 554.278 1
-3 -13 15 409.606 217.245 1
3 -15 13 485.566 189.33 1
2 -15 13 1913.39 411.733 1
-2 -13 15 1873.69 443.123 1
-1 -13 15 475.104 157.938 1
1 -15 13 231.287 67.8652 1
0 -13 15 565.064 217.987 1
0 -15 13 277.163 104.066 1
-1 -15 13 310.869 90.2197 1
1 -13 15 476.017 223.07 1
2 -13 15 1269.88 296.802 1
-2 -15 13 1395.22 354.114 1
-13 -3 15 663.884 145.725 1
3 -13 15 568.312 252.247 1
-3 -15 13 490.58 185.703 1
-4 -15 13 4917.48 663.841 1
-13 -4 15 5241.3 606.184 1
4 -13 15 5242.06 681.12 1
-13 -5 15 1213.71 290.503 1
5 -13 15 1284.13 320.37 1
-5 -15 13 1379.66 387.977 1
6 -13 15 2301.43 450.848 1
-13 -6 15 2658.48 431.351 1
7 -13 15 1750.53 359.657 1
-13 -7 15 2219.1 437.396 1
-13 -8 15 3077.63 519.41 1
8 -13 15 3386.93 573.504 1
-13 -9 15 125.136 108.28 1
9 -13 15 -320.285 242.291 1
-13 -10 15 664.875 217.403 1
10 -13 15 447.054 159.216 1
13 -15 11 3006.95 503.372 1
11 -13 15 2315.39 471.029 1
-13 -11 15 2418.87 495.494 1
12 -13 15 643.138 254.734 1
-13 -12 15 553.956 200.882 1
13 -15 12 623.068 235.51 1
-13 -13 15 940.598 282.984 1
13 -13 15 994.182 378.557 1
13 -15 13 820.733 244.14 1
-13 -14 15 257.137 128.588 1
14 -13 15 255.148 87.3577 1
-12 -14 15 465.154 250.933 1
14 -12 15 393.201 229.198 1
12 -15 14 534.295 222.995 1
11 -15 14 245.828 55.0878 1
-11 -14 15 43.7118 182.373 1
10 -15 14 193.62 143.035 1
-10 -14 15 73.6688 88.378 1
-15 -10 14 415.923 188.369 1
9 -15 14 221.324 111.501 1
-15 -9 14 185.08 115.782 1
-9 -14 15 14.3479 111.693 1
-8 -14 15 303.24 208.224 1
8 -15 14 68.8225 142.351 1
-15 -8 14 539.912 155.026 1
7 -15 14 612.24 269.612 1
-15 -7 14 825.646 266.134 1
-7 -14 15 886.804 362.823 1
6 -15 14 349.891 203.22 1
-15 -6 14 288.62 155.192 1
-6 -14 15 382.439 198.6 1
5 -15 14 1150.8 306.988 1
-15 -5 14 978.442 258.65 1
-5 -14 15 935.935 319.632 1
-4 -14 15 1397.03 335.159 1
4 -15 14 1642.7 388.952 1
-3 -14 15 432.009 276.894 1
3 -15 14 384.817 145.884 1
-2 -14 15 478.823 260.391 1
2 -15 14 549.435 217.673 1
-1 -14 15 1047.6 342.69 1
1 -15 14 1321.39 341.343 1
0 -15 14 229.062 171.623 1
0 -14 15 57.7513 122.142 1
1 -14 15 1313.04 345.22 1
-1 -15 14 1109.79 276.694 1
-2 -15 14 640.45 305.886 1
2 -14 15 350.631 203.418 1
-3 -15 14 404.103 186.668 1
3 -14 15 98.4449 133.296 1
4 -14 15 1092.83 267.624 1
-14 -4 15 1487.36 312.636 1
-4 -15 14 1729.78 412.157 1
-14 -5 15 1136.57 299.261 1
5 -14 15 1164.6 321.947 1
-5 -15 14 957.055 268.496 1
-6 -15 14 484.826 252.568 1
-14 -6 15 481.466 180.294 1
6 -14 15 456.037 196.164 1
7 -14 15 613.359 202.609 1
-14 -7 15 600.499 231.066 1
-7 -15 14 422.47 207.977 1
-8 -15 14 541.663 289.944 1
8 -14 15 224.798 149.129 1
-14 -8 15 808.651 291.946 1
-14 -9 15 373.782 141.299 1
9 -14 15 183.872 132.526 1
10 -14 15 84.1874 160.688 1
-14 -10 15 150.345 91.6491 1
11 -14 15 285.367 231.408 1
-14 -11 15 81.5812 194.691 1
-14 -12 15 298.168 175.009 1
12 -14 15 257.605 79.3766 1
13 -14 15 597.719 261.315 1
-14 -13 15 550.638 287.589 1
14 -14 15 271.403 149.603 1
-14 -14 15 406.729 215.548 1
0 -15 15 406.945 195.041 1
1 -15 15 372.518 187.348 1
-1 -15 15 47.0704 129.504 1
2 -15 15 2702.01 502.894 1
-2 -15 15 2879.52 532.548 1
3 -15 15 1623.28 366.57 1
-3 -15 15 1940.58 437.04 1
-4 -15 15 3684.35 613.821 1
4 -15 15 3692.49 592.91 1
-5 -15 15 663.694 208.272 1
5 -15 15 855.946 241.426 1
-6 -15 15 5493.95 751.724 1
6 -15 15 5828.62 746.513 1
-15 -6 15 6131.57 703.933 1
7 -15 15 620.211 229.144 1
-15 -7 15 1205.99 360.763 1
-7 -15 15 882.156 255.442 1
-8 -15 15 877.216 281.822 1
-15 -8 15 395.995 129.752 1
8 -15 15 901.334 319.422 1
9 -15 15 2297.44 472.409 1
-15 -9 15 1772.91 388.026 1
-9 -15 15 1968.11 474.647 1
-10 -15 15 549.779 281.341 1
15 10 -15 616.306 146.346 3
10 -15 15 430.932 242.089 1
-15 -10 15 543.377 274.628 1
15 11 -15 460.92 154.472 3
-11 -15 15 382.795 229.947 1
-15 -11 15 -142.367 165.133 1
11 -15 15 169.576 104.811 1
15 12 -15 313.053 174.442 3
12 -15 15 -12.2508 103.966 1
-15 -12 15 -220.577 167.098 1
-12 -15 15 355.036 221.785 1
13 -15 15 164.302 156.471 1
-13 -15 15 203.258 179.627 1
-15 -13 15 -1.74513 171.036 1
-14 -15 15 330.302 203.522 1
14 -15 15 155.873 147.523 1
-15 -14 15 254.875 225.581 1
-15 -15 15 1992.22 509.628 1
0 0 16 7797.2 700.404 1
0 -1 16 320.853 157.485 1
1 0 16 503.016 211.471 1
-1 0 16 271.15 130.741 1
0 1 16 501.765 246.54 1
-1 1 16 420.867 216.134 1
-1 -1 16 507.61 167.831 1
1 -1 16 505.415 95.2585 1
1 1 16 564.352 197.665 1
1 2 16 523.191 191.132 1
-2 1 16 830.173 233.679 1
2 -1 16 590.062 216.463 1
-1 -2 16 665.772 226.645 1
0 -2 16 541.488 193.029 1
-2 0 16 297.318 150.763 1
2 0 16 246.954 143.697 1
0 2 16 263.285 108.439 1
-2 -1 16 761.924 178.817 1
2 1 16 458.871 181.818 1
-1 2 16 489.605 214.532 1
1 -2 16 500.418 238.551 1
-2 2 16 39.4097 100.996 1
2 2 16 284.36 127.149 1
-2 -2 16 171.67 100.404 1
2 -2 16 13.3573 113.856 1
3 -2 16 2878.54 433.556 1
-2 -3 16 2723.45 394.525 1
-3 2 16 2599.84 407.57 1
-3 1 16 1173.28 249.059 1
3 -1 16 1558.32 336.024 1
-1 -3 16 1096.62 241.902 1
3 0 16 750.733 198.181 1
0 -3 16 1052.94 233.895 1
-3 0 16 1202.45 291.868 1
-1 3 16 1301.37 275.606 1
3 1 16 1240.02 306.917 1
1 -3 16 1210.16 303.517 1
-3 -1 16 899.58 214.417 1
-2 3 16 2911.79 426.159 1
2 -3 16 3455.85 520.626 1
-3 -2 16 2729.75 419.998 1
3 -3 16 689.991 223.363 1
-3 -3 16 1011.11 279.221 1
-3 3 16 1060.79 273.602 1
4 -3 16 539.01 224.833 1
-3 -4 16 424.957 232.568 1
-4 3 16 477.067 140.45 1
-2 -4 16 1746.9 312.581 1
-4 2 16 2010.66 338.8 1
4 -2 16 1815.29 343.948 1
-1 -4 16 3429.23 465.704 1
4 -1 16 3140.78 478.147 1
-4 1 16 3172.36 441.985 1
0 -4 16 198.86 137.747 1
-4 0 16 82.2003 126.759 1
4 0 16 168.547 92.8821 1
-4 -1 16 3200.32 432.99 1
1 -4 16 3387.68 492.204 1
4 1 16 3221.41 492.491 1
-4 -2 16 2023.2 361.209 1
2 -4 16 1704.12 363.414 1
3 -4 16 858.423 280.417 1
-4 -3 16 662.664 201.962 1
-4 -4 16 264.366 126.266 1
4 -4 16 771.867 229.171 1
-4 -5 16 2204.42 395.926 1
5 -4 16 2642.51 433.048 1
5 -3 16 237.843 157.733 1
-5 3 16 290.445 150.845 1
-3 -5 16 620.531 212.67 1
5 -2 16 2276.41 432.177 1
-5 2 16 1751.52 332.691 1
-2 -5 16 2005.99 375.402 1
-1 -5 16 1409.46 346.766 1
5 -1 16 1445 330.132 1
-5 1 16 1287.92 268.287 1
-5 0 16 5909.14 582.655 1
5 0 16 6146.22 677.11 1
0 -5 16 5991.09 625.015 1
-5 -1 16 1788.76 326.933 1
1 -5 16 1679.14 370.166 1
-5 -2 16 1182.72 239.422 1
2 -5 16 1614.9 346.431 1
3 -5 16 206.813 181.069 1
-5 -3 16 359.043 139.154 1
4 -5 16 2155.91 400.225 1
-5 -4 16 2298.9 381.162 1
5 -16 5 93.2488 74.6999 1
5 -5 16 -98.2455 68.0554 1
-5 -5 16 -15.6364 72.3045 1
-5 -6 16 3584.39 501.643 1
5 -16 6 3279.82 455.732 1
6 -5 16 3369.57 491.479 1
-4 -6 16 496.687 193.833 1
6 -4 16 338.954 181.057 1
4 -16 6 354.684 161.546 1
-3 -6 16 1507.47 295.585 1
-6 3 16 1690.19 286.592 1
6 -3 16 1537.79 357.117 1
6 -2 16 300.286 166.512 1
-2 -6 16 436.845 209.818 1
-6 2 16 240.473 95.6732 1
6 -1 16 1163.97 270.748 1
-1 -6 16 1319.42 264.024 1
-6 1 16 1062.24 243.264 1
0 -6 16 4606.44 574.168 1
-6 0 16 4596.94 506.574 1
1 -6 16 1410.38 328.456 1
-6 -1 16 1324.4 268.298 1
2 -6 16 542.014 233.88 1
-6 -2 16 425.413 199.372 1
6 -16 3 1603.62 293.764 1
-6 -3 16 1785.8 361.303 1
3 -6 16 1285.02 318.479 1
6 -16 4 498.908 178.295 1
-6 -4 16 412.303 168.29 1
4 -6 16 250.164 143.229 1
-6 -5 16 3622.55 492.713 1
6 -16 5 3332.34 445.954 1
5 -6 16 4477.85 582.029 1
6 -6 16 4019.9 538.365 1
6 -16 6 3902.91 512.962 1
-6 -6 16 4121.97 535.937 1
-6 -7 16 1029.99 252.811 1
6 -16 7 1327.26 309.86 1
7 -6 16 1371.25 321.814 1
7 -5 16 556.358 241.705 1
-5 -7 16 682.768 198.589 1
5 -16 7 518.531 201.001 1
-4 -7 16 164.54 101.689 1
7 -4 16 538.631 227.82 1
4 -16 7 362.037 204.088 1
7 -3 16 1613.38 359.764 1
-3 -7 16 2039.99 397.501 1
-7 3 16 1723.03 273.125 1
7 -2 16 163.971 119.078 1
-7 2 16 104.616 72.3251 1
-2 -7 16 328.168 184.151 1
-1 -7 16 2430.53 403.599 1
-7 1 16 2180.3 348.573 1
-7 0 16 32.3679 67.2071 1
0 -7 16 -31.1471 70.5573 1
-7 -1 16 2013.15 366.429 1
1 -7 16 1631.61 325.71 1
7 -16 1 1721.97 276.584 1
-7 -2 16 416.177 172.143 1
7 -16 2 265.93 113.952 1
2 -7 16 554.287 254.027 1
3 -7 16 1798.14 366.358 1
7 -16 3 1829.44 314.021 1
-7 -3 16 1627.61 342.915 1
7 -16 4 222.531 118.188 1
4 -7 16 415.086 183.176 1
-7 -4 16 263.699 206.517 1
5 -7 16 379.157 89.41 1
7 -16 5 472.144 182.081 1
-7 -5 16 637.95 216.464 1
-7 -6 16 1317.09 316.304 1
6 -7 16 1139 289.166 1
7 -16 6 1078.43 253.269 1
7 -7 16 203.48 189.682 1
-7 -7 16 129.719 137.735 1
7 -16 7 -198.874 129.183 1
8 -7 16 1524.57 372.732 1
-7 -8 16 1425.25 330.819 1
7 -16 8 1047.17 253.424 1
6 -16 8 188.52 151.374 1
8 -6 16 77.3553 84.2645 1
-6 -8 16 138.924 90.672 1
8 -5 16 2950.76 494.187 1
-5 -8 16 2439.74 407.855 1
5 -16 8 2278.12 374.813 1
-4 -8 16 3627.39 533.228 1
4 -16 8 3863.51 517.533 1
8 -4 16 3616.54 565.546 1
8 -3 16 1953.44 390.341 1
-8 3 16 1513.73 264.276 1
-3 -8 16 1597.63 347.268 1
3 -16 8 1825.29 356.881 1
-2 -8 16 1754.01 384.411 1
-8 2 16 1690.38 294.56 1
8 -2 16 1685.4 358.767 1
-8 1 16 1808.86 325.702 1
-1 -8 16 2146.2 411.535 1
0 -8 16 1294.42 337.239 1
-8 0 16 1627.53 295.998 1
8 -16 1 1900.77 300.549 1
-8 -1 16 1801.55 317.974 1
1 -8 16 1973.69 396.562 1
8 -16 2 1409.59 265.821 1
-8 -2 16 1297.85 272.209 1
2 -8 16 1479.53 339.088 1
8 -16 3 1593.01 280.504 1
-8 -3 16 1387.2 311.72 1
3 -8 16 1530.29 341.125 1
8 -16 4 4155.17 486.347 1
-8 -4 16 3877.86 484.739 1
4 -8 16 4229.92 564.815 1
5 -8 16 3093.05 513.775 1
8 -16 5 2288.3 359.509 1
-8 -5 16 2698.91 440.154 1
8 -16 6 330.259 126.162 1
6 -8 16 169.88 148.087 1
-8 -6 16 -150.671 117.406 1
8 -16 7 1191.38 296.94 1
7 -8 16 1086.52 258.625 1
-8 -7 16 1358.91 335.115 1
-8 -8 16 791.841 236.856 1
8 -8 16 914.978 293.5 1
8 -16 8 1050.07 282.983 1
8 -16 9 2514.67 418.613 1
-8 -9 16 2633 491.531 1
9 -8 16 2728.06 470.804 1
-7 -9 16 -30.3928 95.3679 1
7 -16 9 184.059 86.6084 1
6 -16 9 1055.85 284.718 1
-6 -9 16 616.046 200.109 1
9 -6 16 1097.25 319.494 1
9 -5 16 407.56 221.402 1
-5 -9 16 419.789 239.012 1
5 -16 9 594.616 157.954 1
9 -4 16 41.9573 139.194 1
4 -16 9 32.6727 90.1437 1
-4 -9 16 96.5261 119.967 1
3 -16 9 958.866 266.099 1
9 -3 16 1235.75 331.155 1
-9 3 16 1018.44 213.837 1
-3 -9 16 1146.58 296.369 1
2 -16 9 507.07 144.43 1
-9 2 16 461.851 176.371 1
-2 -9 16 516.966 137.428 1
-1 -9 16 662.36 269.609 1
-9 1 16 968.799 247.615 1
-9 0 16 185.449 107.856 1
0 -9 16 524.016 239.954 1
1 -9 16 780.887 253.758 1
-9 -1 16 740.137 225.273 1
-9 -2 16 600.721 184.753 1
2 -9 16 607.816 235.685 1
-9 -3 16 1298.73 296.077 1
3 -9 16 1148.87 272.679 1
9 -16 3 931.316 212.163 1
-9 -4 16 30.4943 123.817 1
4 -9 16 235.458 160.795 1
9 -16 4 78.1004 39.3426 1
5 -9 16 639.696 264.201 1
-9 -5 16 304.189 149.277 1
9 -16 5 429.517 176.007 1
9 -16 6 859.882 243.125 1
-9 -6 16 1068.43 273.397 1
6 -9 16 923.741 317.541 1
-9 -7 16 270.116 58.591 1
9 -16 7 345.091 155.819 1
7 -9 16 433.168 218.067 1
-9 -8 16 2195.2 436.496 1
9 -16 8 2396.36 418.734 1
8 -9 16 2528.69 460.9 1
9 -16 9 186.752 117.397 1
-9 -9 16 122.847 114.807 1
9 -9 16 67.0089 68.201 1
10 -9 16 1211.25 341.122 1
9 -16 10 1186.31 292.222 1
-9 -10 16 1006.53 280.451 1
10 -8 16 731.411 293.23 1
-8 -10 16 764.151 272.293 1
8 -16 10 761.104 248.609 1
-7 -10 16 3683.98 564.322 1
7 -16 10 3333.01 519.976 1
10 -7 16 3369.75 546.299 1
6 -16 10 1852.61 379.216 1
10 -6 16 2729.56 490.148 1
-6 -10 16 2277.78 449.148 1
10 -5 16 3013.08 515.396 1
5 -16 10 3355.37 521.934 1
-5 -10 16 2983.65 492.949 1
-4 -10 16 -85.3218 145.869 1
4 -16 10 -98.538 136.542 1
3 -16 10 454.116 191.27 1
-3 -10 16 259.256 90.9688 1
2 -16 10 1222.57 331.365 1
-2 -10 16 1543.49 365.973 1
-10 1 16 2012.46 330.734 1
1 -16 10 2089.09 419.207 1
-1 -10 16 1804.78 376.408 1
0 -16 10 2777.61 466.124 1
-10 0 16 3059.69 395.111 1
0 -10 16 2663.83 457.515 1
-10 -1 16 1914.1 334.439 1
1 -10 16 1680.61 356.574 1
-10 -2 16 1134.85 250.991 1
2 -10 16 1367.1 347.36 1
-10 -3 16 351.575 124.725 1
3 -10 16 379.749 183.79 1
-10 -4 16 171.758 107.769 1
4 -10 16 170.229 159.738 1
5 -10 16 3402.51 537.237 1
10 -16 5 3034.3 402.11 1
-10 -5 16 2976.33 449.832 1
-10 -6 16 2141.12 375.311 1
6 -10 16 2624.5 484.979 1
10 -16 6 2301.81 395.845 1
-10 -7 16 3117.13 512.362 1
10 -16 7 3285.04 472.346 1
7 -10 16 3354.91 509.695 1
-10 -8 16 539.519 244.296 1
10 -16 8 479.622 180.316 1
8 -10 16 662.791 291.684 1
9 -10 16 1100.15 328.409 1
-10 -9 16 1054.93 319.757 1
10 -16 9 1017.7 291.859 1
10 -10 16 586.82 210.698 1
-10 -10 16 361.767 137.884 1
10 -16 10 726.444 264.831 1
-10 -11 16 2398.5 491.36 1
10 -16 11 1989.49 393.111 1
11 -10 16 2362.74 496.028 1
9 -16 11 571.935 251.783 1
-9 -11 16 805.376 251.922 1
11 -9 16 760.314 309.175 1
11 -8 16 991.17 243.046 1
-8 -11 16 909.847 271.97 1
8 -16 11 731.143 229.718 1
-7 -11 16 1402.45 359.596 1
7 -16 11 1409.16 354.239 1
11 -7 16 1540.8 358.83 1
6 -16 11 1321.55 339.406 1
11 -6 16 1116.96 291.316 1
-6 -11 16 959.414 265.686 1
5 -16 11 1213.47 301.219 1
-5 -11 16 828.489 262.114 1
-4 -11 16 795.777 328.321 1
4 -16 11 769.152 259.76 1
3 -16 11 355.206 242.986 1
-3 -11 16 225.488 92.9646 1
-2 -11 16 1259.61 305.062 1
2 -16 11 1465.45 372.54 1
-1 -11 16 3040.35 529.567 1
1 -16 11 3098.04 538.833 1
-11 0 16 279.882 110.534 1
0 -11 16 490.885 200.897 1
0 -16 11 253.879 114.413 1
1 -11 16 3883.67 570.961 1
-11 -1 16 3055.73 420.798 1
-1 -16 11 3136.77 515.693 1
2 -11 16 1653.84 358.79 1
-11 -2 16 1856.5 339.441 1
-11 -3 16 214.809 169.335 1
3 -11 16 125.832 159.601 1
-11 -4 16 641.996 251.431 1
4 -11 16 689.115 262.849 1
-11 -5 16 723.472 190.997 1
5 -11 16 869.26 292.459 1
6 -11 16 534.184 245.508 1
-11 -6 16 908.374 216.522 1
-11 -7 16 1203.88 297.172 1
11 -16 7 1354.28 278.673 1
7 -11 16 804.13 239.411 1
-11 -8 16 791.976 299.001 1
11 -16 8 743.217 237.416 1
8 -11 16 852.655 256.694 1
11 -16 9 582.409 191.076 1
9 -11 16 822.959 283.308 1
-11 -9 16 866.126 283.78 1
-11 -10 16 2370.58 474.741 1
11 -16 10 2180.83 394.918 1
10 -11 16 2346.08 467.72 1
11 -16 11 237.477 134.873 1
11 -11 16 -71.5256 166.494 1
-11 -11 16 283.003 207.423 1
12 -11 16 347.362 248.925 1
11 -16 12 207.191 120.784 1
-11 -12 16 56.0256 69.0523 1
-10 -12 16 2582.99 502.804 1
10 -16 12 2796.85 488.443 1
12 -10 16 2359.05 498.611 1
12 -9 16 3668.97 580.809 1
9 -16 12 3151.41 527.591 1
-9 -12 16 3497.09 578.61 1
12 -8 16 1473.19 380.528 1
8 -16 12 1467.21 394.886 1
-8 -12 16 1376.92 369.834 1
-7 -12 16 4719.32 656.583 1
7 -16 12 5542.26 690.539 1
-6 -12 16 60.0124 111.596 1
6 -16 12 130.946 77.7491 1
5 -16 12 965.219 257.701 1
-16 -5 12 1070.29 276.541 1
-5 -12 16 1268.38 299.42 1
4 -16 12 1907.69 419.303 1
-4 -12 16 2301.08 454.702 1
3 -16 12 3973.29 572.398 1
-3 -12 16 4264.87 601.861 1
-2 -12 16 401.853 167.568 1
2 -16 12 397.088 219.552 1
-1 -12 16 1476.06 355.108 1
1 -16 12 1544.5 358.192 1
0 -12 16 -83.7894 86.4613 1
0 -16 12 -302.714 195.624 1
-1 -16 12 1214.32 324.12 1
1 -12 16 1352 345.477 1
-12 -2 16 179.911 95.0391 1
-2 -16 12 426.347 228.72 1
2 -12 16 495.901 288.283 1
-3 -16 12 4004.51 592.302 1
-12 -3 16 4287.62 517.955 1
3 -12 16 4266.86 607.722 1
-12 -4 16 1865.89 358.623 1
4 -12 16 1813.91 413.749 1
5 -12 16 1046.39 307.029 1
-12 -5 16 889.369 223.229 1
-12 -6 16 275.302 167.159 1
6 -12 16 -38.285 110.141 1
7 -12 16 4985.02 687.124 1
-12 -7 16 4209.67 585.212 1
8 -12 16 1505.24 378.681 1
-12 -8 16 1524.4 393.219 1
9 -12 16 2927.1 535.494 1
-12 -9 16 3476.13 570.75 1
10 -12 16 2690.57 485.728 1
12 -16 10 3081.45 503.821 1
-12 -10 16 2254.07 452.901 1
11 -12 16 345.643 256.494 1
-12 -11 16 201.216 131.987 1
12 -16 11 195.124 127.01 1
-12 -12 16 53.6117 68.5418 1
12 -12 16 126.748 103.433 1
12 -16 13 815.229 273.689 1
13 -12 16 1050.87 355.038 1
-12 -13 16 1031.97 317.499 1
11 -16 13 106.015 121.595 1
13 -11 16 389.195 253.642 1
-11 -13 16 132.291 149.887 1
10 -16 13 101.865 78.0943 1
13 -10 16 154.121 112.024 1
-10 -13 16 51.4029 140.398 1
-9 -13 16 749.635 336.152 1
9 -16 13 543.514 173.185 1
-8 -13 16 589.085 280.373 1
8 -16 13 416.396 143.317 1
-16 -7 13 -109.256 153.429 1
7 -16 13 114.847 99.4027 1
-7 -13 16 294.922 220.069 1
6 -16 13 774.437 270.836 1
-16 -6 13 347.709 180.072 1
-6 -13 16 296.343 109.567 1
-5 -13 16 2288.16 479.041 1
5 -16 13 2339.07 445.974 1
-4 -13 16 872.05 280.85 1
4 -16 13 976.104 334.353 1
-3 -13 16 1301.32 332.03 1
3 -16 13 1354.16 350.01 1
2 -16 13 1062.27 340.439 1
-2 -13 16 1256.71 338.386 1
-1 -13 16 45.4012 95.7602 1
1 -16 13 245.845 190.288 1
0 -13 16 746.003 263.966 1
0 -16 13 807.177 317.695 1
-1 -16 13 157.097 156.952 1
1 -13 16 283.325 129.133 1
2 -13 16 1104.38 313.379 1
-2 -16 13 1453.1 356.312 1
-13 -3 16 1414.28 331.665 1
3 -13 16 1344.88 350.249 1
-3 -16 13 1851.55 443.546 1
4 -13 16 1002.22 355.453 1
-13 -4 16 756.878 237.726 1
-4 -16 13 613.866 224.051 1
-13 -5 16 1938.27 403.32 1
-5 -16 13 2118.88 459.194 1
5 -13 16 1845.1 419.262 1
-13 -6 16 387.88 177.392 1
6 -13 16 900.56 297.724 1
-13 -7 16 177.989 170.489 1
7 -13 16 27.675 94.0165 1
8 -13 16 406.519 184.953 1
-13 -8 16 524.72 255.234 1
-13 -9 16 803.272 292.391 1
9 -13 16 675.024 262.078 1
-13 -10 16 235.927 180.969 1
10 -13 16 206.167 188.024 1
11 -13 16 183.358 183.557 1
16 11 -13 5.21956 78.6124 3
-13 -11 16 -208.419 103.812 1
-13 -12 16 760.674 263.114 1
12 -13 16 1254.9 363.828 1
13 -16 13 575.898 241.053 1
-13 -13 16 375.329 189.967 1
13 -13 16 107.346 147.427 1
-13 -14 16 -254.748 182.851 1
13 -16 14 -5.49158 130.183 1
14 -13 16 -144.684 156.099 1
12 -16 14 855.053 228.4 1
-12 -14 16 1485.72 403.737 1
11 -16 14 219.551 109.129 1
14 11 -16 657.821 198.584 3
-11 -14 16 740.207 267.817 1
10 -16 14 396.393 219.133 1
-16 -10 14 108.24 135.536 1
-10 -14 16 0.56687 146.426 1
-16 -9 14 1347.66 373.132 1
-9 -14 16 1240.76 355.087 1
9 -16 14 1329.83 333.369 1
8 -16 14 91.2111 171.47 1
-8 -14 16 198.808 148.049 1
-16 -8 14 231.782 179.291 1
7 -16 14 693.862 277.001 1
-7 -14 16 846.188 354.263 1
-16 -7 14 284.883 85.9874 1
6 -16 14 3166.64 523.316 1
-6 -14 16 2934.7 565.295 1
-5 -14 16 7742.34 877.089 1
5 -16 14 8131.28 880.54 1
4 -16 14 274.617 204.69 1
-4 -14 16 186.173 176.591 1
-3 -14 16 242.29 151.018 1
3 -16 14 103.602 154.445 1
-2 -14 16 1463.08 364.27 1
2 -16 14 1627.36 374.641 1
1 -16 14 1648.71 397.996 1
-1 -14 16 1666.92 400.372 1
0 -14 16 565.641 243.25 1
0 -16 14 275.175 191.658 1
1 -14 16 1563.25 374.696 1
-1 -16 14 1694.47 433.389 1
2 -14 16 1377.8 356.127 1
-2 -16 14 1619.36 388.03 1
-3 -16 14 56.9906 117.886 1
3 -14 16 173.274 151.229 1
4 -14 16 315.714 180.662 1
-4 -16 14 46.7372 212.966 1
-14 -5 16 8785.1 813.093 1
-5 -16 14 8173.02 898.53 1
5 -14 16 7810.13 879.451 1
6 -14 16 3291.19 554.62 1
-6 -16 14 3114.52 553.759 1
-14 -6 16 3710.4 528.902 1
-14 -7 16 620.993 228.193 1
-7 -16 14 679.564 350.74 1
7 -14 16 693.708 269.588 1
8 -14 16 409.246 233.67 1
-8 -16 14 -26.8864 218.982 1
-14 -8 16 -49.4462 173.915 1
9 -14 16 1693.24 449.86 1
-14 -9 16 1374.73 366.853 1
16 10 -14 152.837 73.2099 3
-14 -10 16 236.744 175.772 1
10 -14 16 252.763 99.4629 1
11 -14 16 248.398 199.585 1
16 11 -14 584.204 194.604 3
-14 -11 16 577.456 284.353 1
12 -14 16 1009.08 307.603 1
16 12 -14 1286.28 273.222 3
-14 -12 16 1410.34 388.63 1
13 -14 16 330.801 158.793 1
-14 -13 16 93.2378 65.6807 1
14 -14 16 271.311 213.525 1
-14 -14 16 285.917 72.4755 1
-16 -14 15 146.488 215.064 1
-14 -15 16 116.392 208.838 1
15 13 -16 40.8024 97.5248 3
-13 -15 16 37.0015 161.203 1
13 -16 15 -60.6519 192.74 1
-16 -13 15 422.383 225.003 1
-16 -12 15 822.139 311.89 1
15 12 -16 755.978 225.899 3
-12 -15 16 1044.24 391.712 1
12 -16 15 940.247 305.695 1
-11 -15 16 170.628 99.4515 1
11 -16 15 196.435 70.0214 1
15 11 -16 -53.1597 70.5981 3
10 -16 15 159.846 152.273 1
15 10 -16 238.023 158.004 3
-16 -10 15 502.064 229.643 1
-10 -15 16 46.7622 118.069 1
-16 -9 15 -52.6919 78.4233 1
9 -16 15 56.3027 97.4672 1
-9 -15 16 -82.0316 166.976 1
15 9 -16 35.9376 61.7878 3
8 -16 15 18.2743 100.136 1
-16 -8 15 111.026 57.9115 1
-16 -7 15 1613.31 313.074 1
-7 -15 16 1778.49 433.554 1
7 -16 15 1793.3 437.796 1
-6 -15 16 1286.91 351 1
6 -16 15 1157.68 371.462 1
5 -16 15 121.074 107.855 1
-5 -15 16 273.503 278.087 1
4 -16 15 1908.66 450.618 1
-4 -15 16 1557.23 380.763 1
3 -16 15 1234.61 359.3 1
-3 -15 16 1346.27 406.836 1
-2 -15 16 1083.25 322.38 1
2 -16 15 664.896 208.036 1
1 -16 15 616.3 291.554 1
-1 -15 16 -69.9982 130.845 1
0 -15 16 1368.8 382.78 1
0 -16 15 1201.77 338.404 1
-1 -16 15 241.819 157.508 1
1 -15 16 99.4048 167.361 1
2 -15 16 987.56 327.302 1
-2 -16 15 587.281 256.378 1
3 -15 16 840.304 255.61 1
-3 -16 15 1334.82 403.947 1
-4 -16 15 1829.51 455.048 1
4 -15 16 1540.13 410.441 1
5 -15 16 274.132 161.826 1
-5 -16 15 -1.09735 197.849 1
-6 -16 15 1610.8 390.092 1
6 -15 16 1304 319.55 1
-15 -7 16 1705.2 403.393 1
-7 -16 15 1831.62 454.908 1
7 -15 16 1728.4 414.708 1
-8 -16 15 392.373 143.795 1
-15 -8 16 254.591 204.144 1
8 -15 16 700.728 281.395 1
-15 -9 16 -317.107 236.976 1
-9 -16 15 21.575 137.984 1
9 -15 16 -169.439 189.943 1
16 9 -15 48.5891 78.0963 3
16 10 -15 181.791 107.824 3
-15 -10 16 263.891 221.8 1
10 -15 16 290.673 249.247 1
-10 -16 15 351.612 228.664 1
11 -15 16 181.402 171.362 1
16 11 -15 366.096 109.32 3
-11 -16 15 -12.7189 174.237 1
-15 -11 16 7.19715 62.4879 1
-12 -16 15 569.941 265.092 1
-15 -12 16 891.144 354.301 1
12 -15 16 437.5 112.747 1
16 12 -15 688.64 172.927 3
-13 -16 15 215.848 80.5237 1
-15 -13 16 56.6734 108.318 1
13 -15 16 45.1278 232.927 1
16 13 -15 125.414 78.6582 3
16 14 -15 59.4561 70.7187 3
-14 -16 15 106.966 174.919 1
14 -15 16 -91.5983 164.072 1
-15 -14 16 -302.284 230.643 1
-16 -15 15 56.8187 88.6851 1
-15 -15 16 61.9194 103.128 1
0 -16 16 1066.4 253.702 1
1 -16 16 165.885 212.757 1
-1 -16 16 258.128 208.849 1
2 -16 16 646.672 290.15 1
-2 -16 16 571.228 277.178 1
3 -16 16 2619.21 502.98 1
-3 -16 16 2877.78 527.696 1
4 -16 16 2783.61 554.888 1
-4 -16 16 2525.86 548.707 1
5 -16 16 -123.677 195.628 1
-5 -16 16 247.703 163.322 1
6 -16 16 -81.0144 86.6299 1
-6 -16 16 -13.8972 104.465 1
7 -16 16 1397.06 394.148 1
-7 -16 16 1455.13 317.489 1
16 7 -16 1363.66 263.126 3
8 -16 16 1904.96 482.342 1
-8 -16 16 1233.71 370.963 1
16 8 -16 1128.75 241.397 3
9 -16 16 -269.323 257.692 1
-9 -16 16 -168.904 121.411 1
-16 -9 16 -86.1753 157.027 1
16 9 -16 -51.1745 61.7462 3
16 10 -16 528.008 183.191 3
10 -16 16 361.971 254.041 1
-10 -16 16 487.967 227.822 1
-16 -10 16 470.533 256.482 1
16 11 -16 29.8935 79.1234 3
11 -16 16 -9.43834 124.654 1
-16 -11 16 56.4084 75.5946 1
-12 -16 16 247.196 207.569 1
16 12 -16 379.369 168.903 3
12 -16 16 520.583 298.296 1
-16 -12 16 22.4081 250.53 1
-13 -16 16 -151.968 214.314 1
16 13 -16 61.2616 113.352 3
-16 -13 16 191.407 141.4 1
13 -16 16 -89.0871 145.382 1
-14 -16 16 282.913 207.887 1
-16 -14 16 -4.47606 107.773 1
16 14 -16 77.7019 60.4504 3
16 15 -16 1121.22 247.041 3
-15 -16 16 810.227 342.389 1
-16 -15 16 980.83 320.497 1
-16 -16 15 554.347 247.912 1
16 16 -16 4138.61 512.827 3
-16 -16 16 3245.06 622.222 1
0 0 17 -118.363 156.87 1
0 1 17 964.156 270.549 1
1 0 17 703.109 232.255 1
-1 0 17 601.04 196.543 1
0 -1 17 607.88 201.085 1
1 -1 17 75.8254 159.022 1
-1 -1 17 114.126 70.0958 1
1 1 17 90.1478 90.0036 1
-1 1 17 51.0406 107.638 1
1 2 17 1372.73 308.786 1
-2 1 17 1391.1 311.869 1
2 -1 17 1423.25 362.404 1
-1 -2 17 815.999 210.409 1
2 0 17 951.05 286.061 1
0 -2 17 1407.82 306.9 1
0 2 17 839.916 217.321 1
-2 0 17 1066.92 284.003 1
1 -2 17 1328.81 289.272 1
-2 -1 17 1457.55 328.792 1
2 1 17 1331.95 287.52 1
-1 2 17 1012.02 243.064 1
2 -2 17 2574.93 435.12 1
-2 -2 17 1912.34 355.281 1
-2 2 17 2256.76 382.241 1
-2 -3 17 144.272 114.229 1
3 -2 17 271.655 130.736 1
-3 2 17 50.5873 49.3004 1
3 -1 17 378.249 125.845 1
-3 1 17 638.986 185.813 1
-1 -3 17 568.589 180.863 1
-3 0 17 775.196 209.441 1
0 -3 17 964.947 278.96 1
3 0 17 786.31 248.098 1
1 -3 17 808.036 265.198 1
3 1 17 396.367 148.451 1
-3 -1 17 528.798 184.026 1
-2 3 17 277.507 158.366 1
-3 -2 17 440.961 170.111 1
3 -3 17 351.819 174.479 1
-3 3 17 433.831 150.947 1
-3 -3 17 505.932 193.688 1
4 -3 17 2697.53 465.99 1
-3 -4 17 2404.99 411.09 1
-4 3 17 3002.06 422.461 1
-4 2 17 932.276 234.388 1
4 -2 17 1135.84 302.231 1
-2 -4 17 1163.8 270.281 1
4 -1 17 1448.16 307.8 1
-1 -4 17 1291.17 298.968 1
-4 1 17 1781.98 343.006 1
4 0 17 -23.3591 133.911 1
-4 0 17 123.193 119.851 1
0 -4 17 220.271 175.081 1
-4 -1 17 1445.95 302.989 1
1 -4 17 1491.05 346.737 1
-4 -2 17 941.851 241.271 1
2 -4 17 1337.37 317.736 1
3 -4 17 2521.01 440.961 1
-4 -3 17 2192.1 401.191 1
4 -4 17 934.142 256.026 1
-4 -4 17 844.372 253.805 1
5 -4 17 1803.61 372.064 1
-4 -5 17 1832.49 365.302 1
5 -3 17 1498.19 345.203 1
-3 -5 17 1608.51 340.354 1
-5 3 17 1327.59 289.676 1
-5 2 17 1504.38 286.931 1
-2 -5 17 1811.11 368.856 1
5 -2 17 1809.44 385.264 1
-1 -5 17 75.3164 95.8643 1
5 -1 17 380.2 194.871 1
-5 1 17 322.713 163.08 1
0 -5 17 500.574 275.201 1
5 0 17 679.118 204.236 1
-5 0 17 750.514 218.11 1
1 -5 17 379.171 128.606 1
-5 -1 17 485.196 162.947 1
2 -5 17 1380.41 283.607 1
-5 -2 17 1281.58 287.326 1
-5 -3 17 1600.69 358.238 1
3 -5 17 1482.76 342.758 1
4 -5 17 1777.21 368.846 1
-5 -4 17 1961.8 349.185 1
5 -17 5 580.172 189.501 1
5 -5 17 736.153 250.114 1
-5 -5 17 716.019 245.389 1
6 -5 17 94.4298 114.905 1
-5 -6 17 204.776 142.398 1
5 -17 6 137.546 55.3164 1
-4 -6 17 624.859 187.906 1
6 -4 17 1261.14 336.216 1
4 -17 6 759.207 267.545 1
-3 -6 17 986.087 280.722 1
6 -3 17 898.576 275.416 1
-6 3 17 886.414 233.271 1
6 -2 17 1714.34 327.425 1
-6 2 17 1758.5 303.75 1
-2 -6 17 1423.75 313.128 1
-1 -6 17 1257.65 307.453 1
-6 1 17 1225.25 280.198 1
6 -1 17 1566.07 385.284 1
-6 0 17 2782.29 430.355 1
0 -6 17 2936.15 444.044 1
1 -6 17 1185.42 304.905 1
-6 -1 17 1391.59 310.548 1
-6 -2 17 1534.41 302.641 1
2 -6 17 1711.63 380.952 1
3 -6 17 708.812 283.02 1
6 -17 3 629.729 213.445 1
-6 -3 17 492.187 166.287 1
-6 -4 17 1075.21 286.317 1
4 -6 17 1015.87 297.477 1
6 -17 4 923.708 220.289 1
6 -17 5 322.939 178.853 1
5 -6 17 57.3237 84.7592 1
-6 -5 17 536.438 185.073 1
-6 -6 17 -166.768 98.2957 1
6 -17 6 26.612 67.9994 1
6 -6 17 36.4046 182.423 1
6 -17 7 3610.22 512.212 1
-6 -7 17 3769.92 539.911 1
7 -6 17 3589.67 535.517 1
7 -5 17 2168.12 424.684 1
5 -17 7 2617.63 433.628 1
-5 -7 17 2264.27 442.668 1
7 -4 17 905.452 327.049 1
-4 -7 17 1419.94 351.008 1
4 -17 7 751.964 257.897 1
-7 3 17 695.007 172.675 1
7 -3 17 1002.03 285.984 1
-3 -7 17 573.751 217.947 1
7 -2 17 1719.18 394.936 1
-7 2 17 962.924 220.956 1
-2 -7 17 1284.71 324.931 1
-7 1 17 1821.2 315.113 1
-1 -7 17 1491.16 345.641 1
-7 0 17 1436.03 294.48 1
0 -7 17 1752.09 377.178 1
-7 -1 17 1422.88 285.828 1
7 -17 1 1315.24 256.023 1
1 -7 17 1400.04 341.864 1
2 -7 17 1291.57 321.085 1
-7 -2 17 1165.41 279.553 1
7 -17 2 1383.47 273.351 1
-7 -3 17 1035.62 274.264 1
7 -17 3 919.656 215.445 1
3 -7 17 1159.7 311.581 1
7 -17 4 705.217 192.86 1
4 -7 17 771.991 271.421 1
-7 -4 17 641.643 178.813 1
7 -17 5 2718.97 425.414 1
5 -7 17 2688.64 471.346 1
-7 -5 17 2871.54 451.51 1
7 -17 6 3660.86 500.638 1
-7 -6 17 3645.25 516.273 1
6 -7 17 3737.64 551.085 1
7 -7 17 1.37702 107.879 1
7 -17 7 173.865 126.956 1
-7 -7 17 27.7913 113.644 1
8 -7 17 6.60502 126.761 1
7 -17 8 79.8023 128.423 1
6 -17 8 206.096 94.4764 1
-6 -8 17 366.592 175.184 1
8 -6 17 159.447 128.269 1
5 -17 8 766.632 277.582 1
-5 -8 17 1038.82 310.041 1
8 -5 17 763.932 270.226 1
4 -17 8 385.119 171.334 1
-4 -8 17 557.664 240.799 1
8 -4 17 283.801 185.565 1
-8 3 17 255.656 110.773 1
-3 -8 17 230.731 138.597 1
3 -17 8 454.184 177.442 1
8 -3 17 384.588 267.653 1
-8 2 17 2895.96 400.18 1
-2 -8 17 2377.27 423 1
-1 -8 17 -81.9837 139.02 1
-8 1 17 248.995 129.695 1
-8 0 17 73.7099 96.132 1
0 -8 17 131.657 135.633 1
1 -8 17 -6.33736 61.5229 1
-8 -1 17 -119.593 191.413 1
2 -8 17 2815.66 474.021 1
-8 -2 17 2549.93 398.931 1
8 -17 2 2431.81 341.339 1
3 -8 17 196.649 158.338 1
8 -17 3 371.496 81.9777 1
-8 -3 17 351.899 187.481 1
8 -17 4 139.196 96.5961 1
4 -8 17 359.913 228.241 1
-8 -4 17 300.329 160.366 1
5 -8 17 1034.78 308.818 1
8 -17 5 1051.14 257.557 1
-8 -5 17 735.275 183.768 1
8 -17 6 260.51 171.76 1
-8 -6 17 -13.7395 64.2419 1
6 -8 17 228.02 155.822 1
8 -17 7 281.941 120.306 1
-8 -7 17 234.299 132.289 1
7 -8 17 78.3626 129.878 1
8 -17 8 -180.168 180.478 1
-8 -8 17 61.4604 177.747 1
8 -8 17 11.0531 129.737 1
9 -8 17 3332.44 555.031 1
8 -17 9 3594.01 529.086 1
-8 -9 17 3206.6 529.218 1
9 -7 17 825.94 271.246 1
-7 -9 17 896.06 310.126 1
7 -17 9 1004.16 254.133 1
9 -6 17 930.164 293.346 1
-6 -9 17 500.24 220.54 1
6 -17 9 569.851 190.816 1
-5 -9 17 1150.1 289.185 1
9 -5 17 1367.01 336.124 1
5 -17 9 1291.1 322.415 1
-4 -9 17 2670.68 488.147 1
4 -17 9 2424.46 433.806 1
9 -4 17 2791.18 477.831 1
3 -17 9 1459.08 368.557 1
-3 -9 17 1462.94 352.713 1
-2 -9 17 3631.63 540.331 1
-9 2 17 3511.51 446.442 1
2 -17 9 3483.89 522.945 1
-9 1 17 1348.46 281.314 1
-1 -9 17 1705.3 388.06 1
-9 0 17 330.109 112.621 1
0 -9 17 480.509 245.539 1
-9 -1 17 1284.44 273.588 1
1 -9 17 1272.96 304.123 1
-9 -2 17 3251.99 454.116 1
2 -9 17 3371.01 507.508 1
3 -9 17 1718.56 405.806 1
-9 -3 17 1268.7 278.439 1
4 -9 17 2770.23 478.693 1
-9 -4 17 2534.33 416.918 1
-9 -5 17 1102.05 267.214 1
5 -9 17 1260.18 335.583 1
9 -17 5 1043.33 229.272 1
6 -9 17 740.386 246.786 1
9 -17 6 673.004 226.349 1
-9 -6 17 559.521 196.291 1
9 -17 7 1134.31 297.453 1
7 -9 17 1060.12 291.752 1
-9 -7 17 714.495 243.782 1
-9 -8 17 3352.19 532.724 1
8 -9 17 4067.72 606.885 1
9 -17 8 3399.27 487.637 1
-9 -9 17 169.887 203.788 1
9 -9 17 330.868 149.042 1
9 -17 9 320.57 117.489 1
-9 -10 17 861.93 286.63 1
10 -9 17 791.183 287.351 1
9 -17 10 593.319 138.503 1
10 -8 17 1546.67 419.182 1
-8 -10 17 1355.23 364.743 1
8 -17 10 1642.48 370.551 1
-7 -10 17 1140.46 355.321 1
7 -17 10 1236.83 335.499 1
10 -7 17 1277.26 379.694 1
10 -6 17 629.614 217.885 1
6 -17 10 683.198 213.965 1
-6 -10 17 959.419 319.726 1
10 -5 17 2733.52 527.068 1
-5 -10 17 2884.59 526.602 1
5 -17 10 2576.87 459.908 1
4 -17 10 243.755 149.328 1
-4 -10 17 760.966 266.845 1
-3 -10 17 121.945 75.3287 1
3 -17 10 565.241 249.684 1
-2 -10 17 397.018 123.594 1
2 -17 10 836.483 314.825 1
-1 -10 17 997.772 305.804 1
1 -17 10 929.717 268.326 1
-10 0 17 4182.65 497.738 1
0 -10 17 4397.41 616.432 1
0 -17 10 3940.62 584.444 1
1 -10 17 888.21 246.483 1
-10 -1 17 1002.33 257.432 1
-10 -2 17 595.099 176.481 1
2 -10 17 583.531 218.785 1
-10 -3 17 519.642 213.427 1
3 -10 17 513.358 225.38 1
4 -10 17 1015.33 309.946 1
-10 -4 17 690.543 195.616 1
5 -10 17 2480.43 465.909 1
-10 -5 17 2732.87 444.477 1
-10 -6 17 843.325 252.145 1
6 -10 17 840.948 279.995 1
-10 -7 17 1046.58 281.186 1
7 -10 17 1328.91 335.112 1
10 -17 7 1027.34 260.656 1
8 -10 17 1675.1 393.982 1
-10 -8 17 1522.23 370.91 1
10 -17 8 1297.84 285.092 1
9 -10 17 896.061 305.704 1
10 -17 9 527.206 203.653 1
-10 -9 17 525.788 216.953 1
-10 -10 17 179.8 75.04 1
10 -10 17 -12.1278 216.82 1
10 -17 10 35.016 52.0298 1
-10 -11 17 2786.55 549.112 1
11 -10 17 2977.89 534.231 1
10 -17 11 3073.18 527.938 1
-9 -11 17 488.23 181.379 1
11 -9 17 664.923 217.521 1
9 -17 11 609.956 204.925 1
11 -8 17 1937.78 442.239 1
8 -17 11 1699.42 374.756 1
-8 -11 17 1733.3 347.764 1
-7 -11 17 1384.38 327.862 1
11 -7 17 1700.87 409.044 1
7 -17 11 1878.83 436 1
6 -17 11 2847.03 489.885 1
11 -6 17 2727.24 513.081 1
-6 -11 17 2911.86 508.698 1
-5 -11 17 1234.64 287.43 1
5 -17 11 1155.37 311.83 1
4 -17 11 2319.28 420.791 1
-4 -11 17 1997.87 419.939 1
3 -17 11 1213.25 332.685 1
-3 -11 17 996.703 303.246 1
2 -17 11 749.995 251.749 1
-2 -11 17 607.878 263.525 1
1 -17 11 832.465 270.615 1
-1 -11 17 970.133 298.48 1
0 -11 17 3608.69 573.57 1
0 -17 11 3490.83 545.759 1
-1 -17 11 816.983 328.435 1
-11 -1 17 653.382 204.088 1
1 -11 17 450.781 211.117 1
2 -11 17 807.003 294.463 1
-11 -2 17 848.184 238.94 1
-11 -3 17 892.48 236.314 1
3 -11 17 711.231 241.629 1
4 -11 17 2220.76 441.875 1
-11 -4 17 1942.31 382.005 1
5 -11 17 1022.2 332.409 1
-11 -5 17 1110.23 265.151 1
6 -11 17 3204 536.999 1
-11 -6 17 2821.3 461.897 1
7 -11 17 1684.48 399.296 1
-11 -7 17 1331.97 335.674 1
-11 -8 17 1819.4 434.415 1
8 -11 17 1523.36 337.119 1
-11 -9 17 527.396 281.034 1
11 -17 9 481.713 156.73 1
9 -11 17 578.588 246.159 1
10 -11 17 2947.84 527.79 1
11 -17 10 2776.26 483.405 1
-11 -10 17 2926.83 528.265 1
-11 -11 17 1600.86 446.024 1
11 -17 11 1614.04 364.848 1
11 -11 17 1220.29 332.171 1
17 11 -11 1798.3 321.533 3
12 -11 17 565.492 275.164 1
-11 -12 17 446.947 189.494 1
11 -17 12 195.43 76.4097 1
11 -12 -17 305.314 146.303 2
17 12 -11 870.442 256.177 3
-10 -12 17 211.375 122.421 1
10 -17 12 539.159 225.27 1
12 -10 17 588.903 261.374 1
9 -17 12 974.213 319.704 1
-9 -12 17 1001.86 347.365 1
12 -9 17 741.126 269.551 1
-8 -12 17 1039.82 338.64 1
12 -8 17 1050.79 338.268 1
8 -17 12 929.251 280.51 1
7 -17 12 2226.54 474.818 1
-7 -12 17 2105.06 451.931 1
-6 -12 17 361.752 166.963 1
6 -17 12 161.127 84.4211 1
5 -17 12 257.706 191.027 1
-5 -12 17 408.104 209.626 1
-4 -12 17 2663.38 499.782 1
4 -17 12 2467.38 479.002 1
-3 -12 17 1261.16 329.906 1
3 -17 12 1202.78 316.518 1
-2 -12 17 1311.52 367.425 1
2 -17 12 1618.23 401.419 1
1 -17 12 840.741 271.331 1
-1 -12 17 943.375 302.987 1
0 -12 17 405.738 227.187 1
0 -17 12 467.655 167.667 1
1 -12 17 840.963 277.363 1
-1 -17 12 1051.24 259.578 1
-2 -17 12 1425.49 381.472 1
-12 -2 17 1295.78 306.359 1
2 -12 17 1568.38 392.756 1
3 -12 17 1286.88 331.34 1
-3 -17 12 1171.34 347.33 1
-12 -3 17 1270.77 293.564 1
4 -12 17 2503.48 455.232 1
-12 -4 17 2241.33 410.103 1
5 -12 17 359.323 206.143 1
-12 -5 17 369.351 188.641 1
-12 -6 17 103.024 105.259 1
6 -12 17 489.559 236.912 1
7 -12 17 2212.78 480.039 1
-12 -7 17 1970.86 427.48 1
8 -12 17 1017.68 336.797 1
-12 -8 17 1306.58 311.629 1
-12 -9 17 702.249 161.733 1
9 -12 17 799.013 254.288 1
12 -10 -17 189.609 83.039 2
10 -12 17 428.902 146.225 1
17 10 -12 570.741 183.864 3
-12 -10 17 377.54 231.341 1
11 -12 17 708.356 317.405 1
17 11 -12 391.298 189.894 3
-12 -11 17 611.004 272.401 1
-12 -12 17 496.518 258.947 1
12 -12 17 348.417 190.367 1
17 12 -12 602.625 224.719 3
12 -17 12 205.799 100.016 1
-12 -13 17 341.812 154.494 1
12 -17 13 488.998 263.244 1
13 -12 17 479.721 145.893 1
-11 -13 17 568.11 323.41 1
13 -11 17 353.843 155.173 1
11 -17 13 527.67 271.391 1
11 -13 -17 233.732 132.053 2
13 11 -17 357.607 128.464 3
10 -13 -17 543.565 177.478 2
10 -17 13 676.195 229.602 1
-10 -13 17 749.013 273.002 1
-9 -13 17 920.094 296.777 1
9 -17 13 1153.3 336.673 1
8 -17 13 2663.74 518.051 1
-8 -13 17 2357.33 492.142 1
-7 -13 17 406.784 194.855 1
-17 -7 13 456.148 203.819 1
7 -17 13 666.097 267.254 1
-6 -13 17 3610.22 621.674 1
6 -17 13 3689.4 579.152 1
-5 -13 17 1311.95 389.485 1
5 -17 13 1003.48 270.121 1
-4 -13 17 2744.06 519.115 1
4 -17 13 3004.31 551.045 1
-3 -13 17 784.531 267.645 1
3 -17 13 559.65 263.791 1
2 -17 13 2716.42 508.402 1
-2 -13 17 2896.53 540.135 1
-1 -13 17 761.166 301.244 1
1 -17 13 409.251 281.328 1
0 -13 17 906.692 254.288 1
0 -17 13 1161.9 355.04 1
-1 -17 13 806.901 306.585 1
1 -13 17 204.496 102.263 1
2 -13 17 2930.17 544.739 1
-2 -17 13 2861.51 538.43 1
3 -13 17 592.279 171.98 1
-3 -17 13 860.856 345.146 1
-4 -17 13 2793.88 540.184 1
-13 -4 17 2684.46 444.069 1
4 -13 17 2666.44 506.397 1
-5 -17 13 1688.42 453.743 1
-13 -5 17 1108.61 294.314 1
5 -13 17 1411.57 385.609 1
-13 -6 17 3267.95 528.514 1
6 -13 17 3777 620.027 1
7 -13 17 457.642 204.152 1
-13 -7 17 412.068 230.056 1
8 -13 17 2116.71 501.435 1
-13 -8 17 2348.35 448.561 1
9 -13 17 1200.23 363.585 1
-13 -9 17 1161.35 342.218 1
17 9 -13 926.362 197.031 3
10 -13 17 462.829 254.159 1
-13 -10 17 298.033 135.993 1
17 10 -13 688.568 211.455 3
11 -13 17 354.782 216.126 1
-13 -11 17 168.607 112.943 1
17 11 -13 325.469 161.121 3
17 12 -13 944.584 242.021 3
12 -13 17 886.19 308.768 1
-13 -12 17 622.083 281.747 1
13 -13 17 364.171 219.884 1
-13 -13 17 274.238 113.655 1
17 13 -13 343.941 123.521 3
17 14 -13 22.6421 90.0507 3
-13 -14 17 9.31326 151.196 1
12 -17 14 63.4994 178.663 1
-12 -14 17 -300.01 161.193 1
14 12 -17 166.669 108.371 3
-11 -14 17 779.374 315.356 1
-17 -11 14 419.694 237.548 1
11 -17 14 507.613 239.732 1
14 11 -17 864.288 228.728 3
10 -17 14 227.81 187.946 1
14 10 -17 444.331 188.625 3
10 -14 -17 48.2345 52.2797 2
-10 -14 17 444.657 183.423 1
-17 -10 14 -48.9584 93.179 1
-9 -14 17 39.3365 153.794 1
9 -17 14 326.721 239.411 1
-17 -9 14 295.504 244.216 1
-8 -14 17 830.072 327.806 1
8 -17 14 808.299 355.028 1
-17 -8 14 647.105 220.338 1
-7 -14 17 233.853 159.759 1
7 -17 14 40.196 64.5942 1
6 -17 14 1851.82 400.576 1
-6 -14 17 1790.16 433.315 1
5 -17 14 595.976 239.723 1
-5 -14 17 443.443 174.869 1
4 -17 14 -23.509 108.601 1
-4 -14 17 224.995 174.322 1
-3 -14 17 2390.88 489.098 1
3 -17 14 2180.09 458.789 1
2 -17 14 1189.66 345.111 1
-2 -14 17 1112.46 355.934 1
1 -17 14 905.245 309.08 1
-1 -14 17 874.234 288.254 1
0 -14 17 306.014 191.658 1
0 -17 14 102.687 177.133 1
-1 -17 14 855.286 255.388 1
1 -14 17 865.636 252.577 1
2 -14 17 772.93 298.367 1
-2 -17 14 1009.27 297.048 1
3 -14 17 1819.49 418.605 1
-3 -17 14 2197.39 473.457 1
4 -14 17 129.815 182.831 1
-4 -17 14 259.547 270.854 1
5 -14 17 356.233 181.063 1
-5 -17 14 666.291 241.364 1
6 -14 17 2029.35 446.124 1
-14 -6 17 1953.42 396.473 1
-6 -17 14 2376.28 528.401 1
-14 -7 17 -14.3328 172.15 1
7 -14 17 289.523 255.465 1
-7 -17 14 402.657 167.394 1
-14 -8 17 639.353 249.149 1
-8 -17 14 935.887 320.224 1
17 8 -14 752.455 212.546 3
8 -14 17 629.969 189.315 1
-14 -9 17 -48.4748 187.712 1
17 9 -14 604.479 219.006 3
9 -14 17 350.613 278.738 1
17 10 -14 202.695 96.3949 3
-14 -10 17 48.13 112.84 1
10 -14 17 1.73847 81.5635 1
11 -14 17 903.31 360.278 1
-14 -11 17 798.159 288.556 1
17 11 -14 647.73 171.146 3
-14 -12 17 111.669 96.3975 1
12 -14 17 344.549 260.122 1
17 12 -14 211.101 147.804 3
-14 -13 17 136.99 187.718 1
17 13 -14 130.317 113.155 3
13 -14 17 -21.9485 182.775 1
17 14 -14 118.983 118.907 3
-14 -14 17 -25.9163 96.804 1
17 15 -14 604.091 198.807 3
-17 -14 15 502.81 284.839 1
-14 -15 17 465.015 256.702 1
15 14 -17 530.796 164.801 3
15 13 -17 352.078 155.144 3
-17 -13 15 327.429 291.409 1
-13 -15 17 573.414 325.935 1
-12 -15 17 -21.561 96.165 1
-17 -12 15 221.119 258.298 1
15 12 -17 -80.7649 107.003 3
12 -17 15 176.677 116.498 1
-11 -15 17 239.267 100.582 1
11 -17 15 -243.612 223.259 1
15 11 -17 42.4378 157.609 3
-17 -11 15 118.119 297.415 1
-10 -15 17 534.574 303.353 1
10 -15 -17 168.509 94.3136 2
15 10 -17 271.929 58.5668 3
-17 -10 15 250.384 243.607 1
10 -17 15 120.82 157.126 1
-9 -15 17 -184.132 162.748 1
9 -17 15 -50.804 104.466 1
-8 -15 17 850.097 288.552 1
8 -17 15 880.537 288.572 1
-7 -15 17 1256.18 328.895 1
7 -17 15 1185.01 402.121 1
-6 -15 17 1108.94 341.106 1
6 -17 15 739.17 264.248 1
-5 -15 17 969.294 332.624 1
5 -17 15 1144.44 316.576 1
4 -17 15 2170.99 448.696 1
-4 -15 17 2060.53 444.648 1
3 -17 15 378.25 218.356 1
-3 -15 17 867.002 331.848 1
-2 -15 17 1001.7 324.398 1
2 -17 15 536.209 229.601 1
-1 -15 17 1411.32 392.786 1
1 -17 15 1138.66 322.49 1
0 -15 17 476.8 217.575 1
0 -17 15 368.216 235.752 1
1 -15 17 1164.71 352.059 1
-1 -17 15 1423.73 401.807 1
-2 -17 15 489.585 216.067 1
2 -15 17 827.649 361.111 1
3 -15 17 585.585 247.139 1
-3 -17 15 517.778 298.236 1
4 -15 17 2665.49 538.414 1
-4 -17 15 2112.8 460.557 1
-5 -17 15 1000.75 348.256 1
5 -15 17 1317.96 321.475 1
6 -15 17 721.098 267 1
17 6 -15 848.055 218.697 3
-6 -17 15 1107.79 349.48 1
-7 -17 15 1530.6 379.651 1
7 -15 17 1099.82 379.928 1
17 7 -15 1112.6 253.148 3
8 -15 17 754.122 276.183 1
-15 -8 17 944.269 308.942 1
-8 -17 15 743.373 286.816 1
17 8 -15 961.496 235.658 3
-15 -9 17 91.019 167.113 1
9 -15 17 35.0055 152.675 1
17 9 -15 171.154 102.298 3
-9 -17 15 167.351 185.424 1
-10 -17 15 284.486 146.957 1
17 10 -15 277.063 161.208 3
-15 -10 17 401.351 209.05 1
10 -15 17 242.551 141.965 1
11 -15 17 300.414 239.199 1
-15 -11 17 95.3782 65.146 1
17 11 -15 -227.528 153.517 3
-11 -17 15 -175.888 224.259 1
12 -15 17 -27.6034 130.477 1
17 12 -15 96.0376 52.9649 3
-15 -13 17 618.239 272.791 1
17 13 -15 219.586 137.257 3
-13 -17 15 730.388 363.94 1
13 -15 17 130.106 104.337 1
17 14 -15 821.047 247.901 3
-14 -17 15 1133.06 390.752 1
14 -15 17 483.892 264.849 1
-15 -14 17 326.702 186.558 1
15 15 -17 1441.5 282.739 3
-17 -15 15 1388.05 445.654 1
-15 -17 15 1477.47 432.532 1
-15 -15 17 1167.98 370.251 1
17 15 -15 1815.49 339.65 3
-17 -15 16 335.009 234.905 1
-16 -17 15 320.061 112.681 1
-15 -16 17 437.988 288.032 1
16 15 -17 208.817 117.36 3
17 16 -15 233.502 134.664 3
-17 -14 16 184.317 67.0026 1
16 14 -17 330.263 115.911 3
-17 -13 16 425.306 294.594 1
-13 -16 17 278.128 100.563 1
16 13 -17 416.119 146.556 3
12 -17 16 431.411 246.527 1
-12 -16 17 101.359 244.521 1
-17 -12 16 -37.7783 90.9817 1
16 12 -17 343.604 188.342 3
-17 -11 16 317.252 223.195 1
11 -17 16 237.193 223.204 1
16 11 -17 5.82707 47.0518 3
-11 -16 17 -165.87 253.686 1
10 -17 16 -19.6885 156.01 1
-10 -16 17 217.423 165.052 1
16 10 -17 357.351 156.16 3
-9 -16 17 233.763 177.245 1
9 -17 16 172.51 201.498 1
16 9 -17 124.596 46.0573 3
-8 -16 17 393.514 351.25 1
8 -17 16 377.83 135.233 1
16 8 -17 149.372 49.3419 3
7 -17 16 -95.2638 235.81 1
16 7 -17 0.52756 109.661 3
-7 -16 17 174.201 181.151 1
6 -17 16 691.099 275.594 1
-6 -16 17 802.099 320.558 1
-5 -16 17 1333.1 348.85 1
5 -17 16 1005.37 301.004 1
4 -17 16 579.421 323.447 1
-4 -16 17 374.242 200.915 1
3 -17 16 653.365 302.99 1
-3 -16 17 -57.5945 207.105 1
-2 -16 17 421.155 244.553 1
2 -17 16 485.228 213.667 1
-1 -16 17 484.094 245.123 1
1 -17 16 725.197 296.624 1
0 -17 16 117.351 141.55 1
0 -16 17 -5.69138 104.765 1
-1 -17 16 727.467 238.756 1
1 -16 17 684.923 268.516 1
-2 -17 16 76.8656 118.974 1
2 -16 17 648.076 245.662 1
-3 -17 16 85.2549 152.406 1
3 -16 17 154.833 83.3152 1
-4 -17 16 381.905 160.053 1
4 -16 17 319.708 144.061 1
-5 -17 16 1225.42 376.478 1
17 5 -16 995.41 212.681 3
5 -16 17 1322.91 425.403 1
-6 -17 16 689.95 297.728 1
6 -16 17 571.653 222.311 1
17 6 -16 570.455 183.651 3
17 7 -16 91.0393 131.517 3
-7 -17 16 52.0853 70.7527 1
7 -16 17 128.063 146.964 1
-8 -17 16 156.351 135.085 1
8 -16 17 241.649 155.619 1
17 8 -16 119.711 72.9232 3
-9 -17 16 -137.558 158.532 1
17 9 -16 39.7966 83.8881 3
9 -16 17 -115.828 177.448 1
-16 -10 17 -126.642 177.629 1
-10 -17 16 321.92 293.217 1
17 10 -16 413.862 146.338 3
10 -16 17 483.911 229.097 1
-16 -11 17 215.827 209.307 1
11 -16 17 -164.627 253.029 1
17 11 -16 211.485 121.233 3
12 -16 17 227.368 185.646 1
-16 -12 17 118.919 59.9641 1
17 12 -16 149.966 117.699 3
-16 -13 17 -48.4795 131.156 1
-13 -17 16 181.47 122.156 1
17 13 -16 302.125 131.194 3
13 -16 17 242.828 269.564 1
-14 -17 16 276.697 174.924 1
17 14 -16 712.004 239.076 3
-16 -14 17 423.49 238.761 1
17 15 -16 165.41 107.396 3
-15 -17 16 359.315 252.226 1
-16 -15 17 292.586 184.949 1
-17 -16 15 -48.4418 220.298 1
-16 -17 16 -364.929 275.665 1
-16 -16 17 18.8217 208.013 1
-17 -16 16 231.182 187.012 1
17 16 -16 -30.732 73.6135 3
16 16 -17 73.7758 131.175 3
0 -17 17 360.719 248.876 1
-1 -17 17 1481.97 426.682 1
1 -17 17 1005.06 309.79 1
2 -17 17 -59.9511 150.922 1
-2 -17 17 241.415 234.77 1
3 -17 17 1919.73 475.087 1
-3 -17 17 2686.08 564.776 1
-4 -17 17 194.681 181.555 1
4 -17 17 187.679 184.908 1
5 -17 17 1005.68 326.586 1
17 5 -17 1217.33 280.461 3
-5 -17 17 1599.27 455.566 1
-6 -17 17 472.687 280.015 1
17 6 -17 274.418 150.172 3
6 -17 17 68.9999 197.69 1
17 7 -17 46.8828 96.437 3
7 -17 17 103.181 124.123 1
17 8 -17 146.727 78.3527 3
-8 -17 17 88.2065 182.867 1
8 -17 17 157.795 133.741 1
9 -17 17 444.169 206.955 1
17 9 -17 349.919 170.864 3
-9 -17 17 185.56 185.554 1
-10 -17 17 275.521 217.208 1
17 10 -17 48.42 103.714 3
10 -17 17 130.137 139.76 1
11 -17 17 103.561 115.339 1
17 11 -17 -8.69094 124.406 3
12 -17 17 -7.01766 154.987 1
-17 -12 17 466.422 370.207 1
-12 -17 17 238.689 216.906 1
17 12 -17 375.461 146.261 3
-13 -17 17 419.862 206.042 1
17 13 -17 569.518 190.465 3
-17 -13 17 338.89 190.823 1
-14 -17 17 -261.529 265.63 1
-17 -14 17 215.03 270.964 1
17 14 -17 -29.7521 87.5911 3
17 17 -15 563.353 225.517 3
-15 -17 17 344.343 254.339 1
-17 -17 15 432.244 273.446 1
17 15 -17 65.1266 112.412 3
-17 -15 17 284.043 225.116 1
16 17 -17 275.698 155.624 3
17 17 -16 74.3642 134.072 3
17 16 -17 88.1701 80.1085 3
17 17 -17 7170.47 668.236 3
0 0 18 -3.12607 171.248 1
1 0 18 1363.4 329.983 1
-1 0 18 1465.33 355.825 1
0 1 18 1268.9 304.716 1
0 -1 18 1217.89 307.51 1
1 -1 18 155.306 107.93 1
-1 -1 18 238.194 115.737 1
1 1 18 101.857 68.1699 1
-1 1 18 76.7728 70.6364 1
-1 -2 18 506.151 168.826 1
2 -1 18 563.244 225.928 1
-2 1 18 523.935 159.828 1
-2 0 18 483.306 169.869 1
2 0 18 470.569 172.903 1
0 2 18 607.192 215.96 1
0 -2 18 223.066 62.1531 1
1 -2 18 417.554 154.625 1
-1 2 18 403.091 166.015 1
2 1 18 357.053 194.879 1
-2 -1 18 329.212 172.3 1
-2 -2 18 953.464 286.464 1
2 -2 18 765.393 231.917 1
-2 2 18 1066.58 286.367 1
3 -2 18 711.932 236.39 1
-2 -3 18 642.037 203.424 1
-3 2 18 830.504 270.185 1
3 -1 18 1441.42 352.617 1
-1 -3 18 1252 321.657 1
-3 1 18 1663.58 345.633 1
3 0 18 949.982 316.13 1
-3 0 18 781.828 179.388 1
0 -3 18 836.807 256.498 1
-3 -1 18 1356.19 300.713 1
1 -3 18 1154.44 269.958 1
2 -3 18 912.726 263.099 1
-3 -2 18 928.397 263.248 1
-3 -3 18 513.221 196.932 1
3 -3 18 530.253 241.176 1
-3 -4 18 1458 327.524 1
4 -3 18 1206.02 331.027 1
-2 -4 18 -44.551 61.6228 1
4 -2 18 -6.87328 88.7053 1
-4 2 18 204.905 160.564 1
-4 1 18 323.099 109.235 1
-1 -4 18 344.479 135.161 1
4 -1 18 426.157 236.1 1
0 -4 18 186.842 130.841 1
-4 0 18 161.999 144.47 1
4 0 18 244.252 218.728 1
-4 -1 18 655.324 250.785 1
1 -4 18 371.937 211.654 1
-4 -2 18 -43.5731 122.107 1
2 -4 18 171.601 234.102 1
-4 -3 18 1764.31 367.535 1
3 -4 18 1660.36 372.163 1
-4 -4 18 1040.93 290.015 1
4 -4 18 1160.29 345.834 1
5 -4 18 902.313 307.017 1
-4 -5 18 740.736 268.711 1
-5 3 18 3809.69 506.758 1
5 -3 18 3587.77 551.995 1
-3 -5 18 3839.57 549.681 1
-5 2 18 1683.93 339.396 1
5 -2 18 1438.65 341.947 1
-2 -5 18 1435.48 313.924 1
5 -1 18 2409 436.744 1
-5 1 18 2319.67 393.38 1
-1 -5 18 2396.16 434.05 1
0 -5 18 1956.14 390.287 1
-5 0 18 2584.79 413.174 1
1 -5 18 2541.2 446.589 1
-5 -1 18 2374.51 407.65 1
2 -5 18 1277.16 274.984 1
-5 -2 18 1367.04 312.326 1
3 -5 18 3868.61 563.253 1
-5 -3 18 3794.81 515.063 1
4 -5 18 490.933 203.53 1
-5 -4 18 731.616 224.672 1
-5 -5 18 150.125 162.236 1
5 -18 5 369.268 188.611 1
5 -18 6 1806.16 371.98 1
6 -5 18 1664.22 341.968 1
-5 -6 18 1823.78 368.964 1
4 -18 6 575.998 178.354 1
6 -4 18 975.637 328.619 1
-4 -6 18 705.783 216.03 1
6 -3 18 1055.8 278.807 1
-6 3 18 1539.19 288.528 1
-3 -6 18 1494.85 349.097 1
-6 2 18 612.013 201.547 1
6 -2 18 671.595 246.259 1
-2 -6 18 454.39 222.542 1
-1 -6 18 1057.51 296.93 1
-6 1 18 1241.16 285.285 1
6 -1 18 863.357 238.808 1
0 -6 18 379.459 147.498 1
-6 0 18 578.492 194.876 1
1 -6 18 1235.85 313.124 1
-6 -1 18 816.25 264.266 1
2 -6 18 290.795 120.839 1
-6 -2 18 195.033 128.04 1
-6 -3 18 956.356 262.059 1
3 -6 18 1394.84 324.592 1
6 -18 3 1388.4 300.967 1
4 -6 18 1032.52 345.421 1
-6 -4 18 946.243 282.772 1
6 -18 4 793.013 190.603 1
6 -18 5 1772.53 373.894 1
5 -6 18 1827.43 404.907 1
-6 -5 18 1754.52 377.495 1
6 -18 6 143.729 83.4815 1
6 -6 18 80.0574 66.6255 1
-6 -6 18 285.482 135.85 1
6 -18 7 657.773 217.153 1
-6 -7 18 617.917 235.906 1
7 -6 18 660.376 257.028 1
-5 -7 18 774.625 262.372 1
7 -5 18 676.673 256.258 1
5 -18 7 253.598 74.7668 1
-4 -7 18 724.475 270.895 1
7 -4 18 658.597 282.701 1
4 -18 7 894.006 290.137 1
7 -3 18 2477.51 480.89 1
-7 3 18 2164.14 362.253 1
3 -18 7 2086.89 407.974 1
-3 -7 18 2370.81 433.078 1
7 -2 18 457.755 209.992 1
-2 -7 18 491.969 190.073 1
-7 2 18 584.84 199.041 1
-7 1 18 1750.46 351.129 1
-1 -7 18 1848.18 392.548 1
0 -7 18 466.585 252.022 1
-7 0 18 299.896 142.031 1
1 -7 18 1508.96 379.319 1
-7 -1 18 1601.68 323.31 1
7 -18 2 427.078 139.237 1
2 -7 18 465.191 236.712 1
-7 -2 18 339.105 147.854 1
7 -18 3 2361.85 377.379 1
-7 -3 18 2296.35 386.457 1
3 -7 18 1915.01 370.181 1
7 -18 4 242.768 111.561 1
4 -7 18 543.867 196.519 1
-7 -4 18 240.378 121.833 1
7 -18 5 260.85 129.169 1
5 -7 18 516.995 230.471 1
-7 -5 18 240.773 97.3197 1
7 -18 6 599.914 210.257 1
6 -7 18 704.713 295.66 1
-7 -6 18 605.418 149.528 1
7 -18 7 375.404 184.491 1
-7 -7 18 142.818 70.5212 1
7 -7 18 171.026 140.329 1
8 -7 18 1635.03 375.093 1
7 -18 8 1659.5 388.379 1
-7 -8 18 1820.1 387.945 1
8 -6 18 852.114 279.131 1
6 -18 8 910.423 281.568 1
-6 -8 18 737.188 217.394 1
5 -18 8 1602.66 372.098 1
8 -5 18 1691.24 386.885 1
-5 -8 18 2007.28 422.761 1
8 -4 18 673.565 203.727 1
-4 -8 18 368.276 216.256 1
4 -18 8 756.25 276.395 1
3 -18 8 311.208 188.987 1
8 -3 18 437.302 258.592 1
-8 3 18 278.144 118.507 1
-3 -8 18 371.712 201.881 1
-8 2 18 2402.41 404.347 1
2 -18 8 2440.51 446.639 1
-2 -8 18 2400.72 462.409 1
-8 1 18 2763.16 431.795 1
-1 -8 18 2394.32 470.411 1
-8 0 18 824.858 232.497 1
0 -8 18 613.979 229.607 1
1 -8 18 3014.64 525.562 1
-8 -1 18 2863.82 458.309 1
2 -8 18 2071.85 402.079 1
-8 -2 18 2463.72 419.09 1
3 -8 18 114.025 128.277 1
-8 -3 18 -63.436 183.046 1
4 -8 18 360.572 207.769 1
8 -18 4 650.653 200.827 1
-8 -4 18 339.888 136.468 1
5 -8 18 1817.7 399.236 1
-8 -5 18 1605.49 354.193 1
8 -18 5 1684.39 312.2 1
8 -18 6 1111.07 275.298 1
-8 -6 18 1313.84 343.898 1
6 -8 18 1125.43 335.739 1
8 -18 7 1683.82 329.05 1
7 -8 18 1671.96 383.571 1
-8 -7 18 1731.27 364.783 1
-8 -8 18 209.383 79.3512 1
8 -18 8 178.313 110.717 1
8 -8 18 51.1855 142.079 1
-8 -9 18 741.893 268.365 1
9 -8 18 667.472 276.602 1
8 -18 9 877.208 252.027 1
9 -7 18 1065.82 359.382 1
-7 -9 18 502.848 231.093 1
7 -18 9 633.289 242.475 1
9 -6 18 1007.57 306.412 1
6 -18 9 921.255 304.367 1
-6 -9 18 896.29 261.704 1
9 -5 18 399.127 212.732 1
5 -18 9 529.2 219.825 1
-5 -9 18 499.459 189.464 1
4 -18 9 1572.8 363.045 1
-4 -9 18 1135.32 327.339 1
9 -4 18 1514.93 392.606 1
3 -18 9 581.08 228.304 1
-3 -9 18 1081.82 327.541 1
-2 -9 18 -132.385 221.771 1
2 -18 9 159.926 120.719 1
-1 -9 18 3059.02 522.136 1
-9 1 18 2708.79 427.824 1
1 -18 9 3166.23 507.267 1
-9 0 18 622.1 212.277 1
0 -9 18 533.392 239.865 1
1 -9 18 3210.29 539.585 1
-9 -1 18 3710.8 503.248 1
2 -9 18 153.375 155.804 1
-9 -2 18 -23.9429 93.0106 1
3 -9 18 971.709 290.723 1
-9 -3 18 683.027 183.968 1
-9 -4 18 1379.4 346.065 1
4 -9 18 1992.98 477.013 1
-9 -5 18 476.819 180.03 1
5 -9 18 506.801 245.291 1
-9 -6 18 741.639 233.818 1
9 -18 6 721.238 220.116 1
6 -9 18 993.511 312.009 1
9 -18 7 846.334 260.793 1
7 -9 18 345.619 148.238 1
-9 -7 18 733.16 271.79 1
-9 -8 18 476.025 222.955 1
8 -9 18 1004.29 322.75 1
9 -18 8 855.507 296.55 1
9 -9 18 1131.75 318.553 1
-9 -9 18 972.83 277.212 1
9 -18 9 1030.4 298.86 1
10 -9 18 3078.4 554.614 1
9 -18 10 2441.06 481.821 1
-9 -10 18 2307.35 442.874 1
10 -8 18 401.266 180.067 1
-8 -10 18 504.086 227.212 1
8 -18 10 549.725 236.471 1
10 -7 18 1171.13 343.785 1
7 -18 10 957.002 308.997 1
-7 -10 18 831.379 272.311 1
10 -6 18 10.4618 149.974 1
-6 -10 18 -37.9896 104.275 1
5 -18 10 1815.83 388.95 1
-5 -10 18 1914.89 401.621 1
-4 -10 18 2861.48 510.344 1
4 -18 10 2869.45 489.98 1
-3 -10 18 3725.7 587.944 1
3 -18 10 3545.71 553.456 1
-2 -10 18 175.948 117.239 1
2 -18 10 323.405 216.929 1
-1 -10 18 1369.75 373.425 1
1 -18 10 1598.59 407.556 1
-10 0 18 2304.19 383.082 1
0 -18 10 1971.35 387.548 1
0 -10 18 2187.15 452.757 1
-10 -1 18 1123.93 287.197 1
1 -10 18 1851.51 415.987 1
-10 -2 18 47.9374 111.932 1
2 -10 18 159.81 163.852 1
-10 -3 18 3537.63 507.999 1
3 -10 18 3985.57 599.414 1
-10 -4 18 2842.14 483.789 1
4 -10 18 3152.85 543.136 1
5 -10 18 1722.5 391.053 1
-10 -5 18 1759.62 391.829 1
6 -10 18 2.54764 175.024 1
-10 -6 18 136.886 112.343 1
-10 -7 18 1098.47 311.21 1
7 -10 18 592.491 190.473 1
-10 -8 18 528.057 214.356 1
8 -10 18 321.234 137.587 1
10 -18 8 532.97 203.982 1
-10 -9 18 2292.94 450.161 1
9 -10 18 2892.34 547.37 1
10 -18 9 2840.94 478.018 1
-10 -10 18 768.141 286.885 1
10 -10 18 1137.56 368.397 1
18 10 -10 975.352 278.538 3
10 -18 10 710.236 196.738 1
10 -11 -18 158.303 132.398 2
11 -10 18 111 136.215 1
18 11 -10 -223.534 120.433 3
10 -18 11 -17.3719 71.1461 1
-10 -11 18 188.881 85.8535 1
-9 -11 18 343.947 155.442 1
9 -18 11 842.845 289.56 1
11 -9 18 628.733 263.025 1
18 11 -9 667.975 234.885 3
11 -8 18 1199.88 393.598 1
-8 -11 18 966.394 309.029 1
8 -18 11 790.327 261.005 1
-7 -11 18 352.375 192.406 1
7 -18 11 663.792 213.572 1
11 -7 18 484.47 169.663 1
-6 -11 18 1190.26 348.493 1
6 -18 11 1218.91 308.23 1
-5 -11 18 663.656 224.247 1
5 -18 11 602.665 224.886 1
-4 -11 18 644.633 258.929 1
4 -18 11 503.287 202.463 1
3 -18 11 2785.02 512.065 1
-3 -11 18 2936.02 529.859 1
-2 -11 18 900.813 292.568 1
2 -18 11 697.383 179.035 1
-1 -11 18 955.237 344.134 1
1 -18 11 1317.29 393.977 1
0 -11 18 193.074 161.491 1
0 -18 11 541.91 236.788 1
-1 -18 11 856.374 275.544 1
1 -11 18 919.78 286.815 1
-11 -2 18 582.316 210.279 1
2 -11 18 1030.77 322.967 1
-11 -3 18 3254.51 493.373 1
3 -11 18 3148.23 565.154 1
4 -11 18 559.44 127.562 1
-11 -4 18 712.546 206.211 1
5 -11 18 465.758 174.695 1
-11 -5 18 681.451 210.052 1
-11 -6 18 987.509 283.025 1
6 -11 18 1363.64 375.387 1
7 -11 18 375.507 232.439 1
-11 -7 18 358.929 185.148 1
8 -11 18 726.944 240.914 1
-11 -8 18 835.132 288.826 1
11 -9 -18 666.763 184.64 2
18 9 -11 761.567 172.712 3
9 -11 18 598.854 282.537 1
-11 -9 18 656.594 254.038 1
11 -10 -18 -57.6825 82.9139 2
-11 -10 18 57.4533 108.023 1
10 -11 18 -39.8652 185.224 1
18 10 -11 30.1896 123.179 3
-11 -11 18 999.828 329.622 1
18 11 -11 1294.89 312.052 3
11 -11 18 945.861 326.052 1
11 -11 -18 969.502 230.84 2
11 -12 -18 1465.4 280.667 2
12 -11 18 1472.51 405.938 1
-11 -12 18 1336.46 383.611 1
11 -18 12 1490.71 385.672 1
18 12 -11 1693.52 332.738 3
10 -12 -18 36.5238 100.71 2
12 -10 18 302.748 204.664 1
18 12 -10 284.283 94.8105 3
-10 -12 18 451.245 288.622 1
10 -18 12 18.2971 133.299 1
9 -18 12 862.532 297.08 1
-9 -12 18 543.56 293.324 1
12 -9 18 247.77 140.404 1
18 12 -9 404.093 207.121 3
9 -12 -18 409.41 151.688 2
8 -18 12 653.765 281.912 1
-8 -12 18 175.006 184.707 1
18 12 -8 215.205 161.526 3
7 -18 12 2556.31 468.085 1
18 12 -7 2601.9 405.785 3
-7 -12 18 2584.99 503.936 1
-6 -12 18 1806.04 417.881 1
6 -18 12 2195.24 466.875 1
-5 -12 18 2731.18 540.814 1
5 -18 12 3424.93 577.082 1
4 -18 12 128.15 200.374 1
-4 -12 18 104.467 186.724 1
3 -18 12 120.272 114.961 1
-3 -12 18 402.869 201.583 1
2 -18 12 126.894 122.923 1
-2 -12 18 203.742 216.512 1
-1 -12 18 1976.85 438.022 1
1 -18 12 2415.3 466.157 1
0 -18 12 690.806 237.664 1
0 -12 18 334.82 130.667 1
-1 -18 12 2151.51 454.847 1
1 -12 18 2621 502.974 1
-2 -18 12 146.006 112.842 1
2 -12 18 258.976 216.222 1
-3 -18 12 185.729 187.503 1
3 -12 18 226.934 126.107 1
-12 -3 18 192.044 93.2647 1
-12 -4 18 37.1274 149.296 1
4 -12 18 500.608 226.792 1
5 -12 18 3181.9 557.681 1
-12 -5 18 3032.65 505.246 1
-12 -6 18 1810.7 391.249 1
6 -12 18 1540.28 398.873 1
-12 -7 18 2347.2 434.96 1
12 -7 -18 1891.63 299.877 2
7 -12 18 2341.92 466.257 1
-12 -8 18 126.38 131.051 1
12 -8 -18 362.669 119.595 2
8 -12 18 606.441 294.208 1
18 8 -12 280.061 198.362 3
-12 -9 18 246.232 202.405 1
9 -12 18 751.864 272.726 1
18 9 -12 744.659 222.14 3
12 -9 -18 441.119 146.897 2
12 -10 -18 144.198 91.7812 2
-12 -10 18 79.1233 216.08 1
18 10 -12 132.143 196.78 3
10 -12 18 108.967 110.707 1
12 -11 -18 1521.16 258.055 2
18 11 -12 1899.13 312.778 3
-12 -11 18 1864.13 447.369 1
11 -12 18 1833.31 451.135 1
18 12 -12 178.277 59.5168 3
12 -12 18 73.1554 258.767 1
-12 -12 18 19.1024 144.113 1
13 -12 18 69.4703 204.267 1
-12 -13 18 194.591 135.328 1
18 13 -12 617.135 258.955 3
13 12 -18 190.068 81.7493 3
11 -18 13 88.4034 143.04 1
11 -13 -18 42.5691 64.8768 2
-11 -13 18 93.376 94.0537 1
18 13 -11 192.08 165.51 3
13 11 -18 264.92 125.093 3
18 13 -10 333.729 169.376 3
10 -13 -18 399.852 145.69 2
10 -18 13 592.769 249.596 1
-10 -13 18 448.771 277.578 1
-9 -13 18 131.387 104.904 1
9 -18 13 110.283 83.717 1
9 -13 -18 150.231 149.955 2
-8 -13 18 804.267 312.213 1
8 -13 -18 364.399 112.469 2
8 -18 13 404.818 250.973 1
-7 -13 18 2199.15 488.997 1
7 -18 13 2377.84 477.765 1
-6 -13 18 559.388 244.682 1
6 -18 13 864.629 260.617 1
-5 -13 18 578.629 228.972 1
5 -18 13 234.159 68.3168 1
-4 -13 18 1043.01 382.175 1
4 -18 13 902.121 359.195 1
3 -18 13 401.214 210.951 1
-3 -13 18 302.751 182.363 1
2 -18 13 864.12 268.051 1
-2 -13 18 970.224 298.508 1
1 -18 13 1340.54 363.282 1
-1 -13 18 1611.65 405.637 1
0 -18 13 1540.01 383.238 1
0 -13 18 1408.84 362.925 1
-1 -18 13 1022.72 358.428 1
1 -13 18 1296.41 341.044 1
2 -13 18 1004.89 373.974 1
-2 -18 13 908.436 383.253 1
3 -13 18 -92.3866 170.129 1
-3 -18 13 230.322 155.324 1
13 -4 -18 608.413 180.641 2
-4 -18 13 658.196 289.825 1
4 -13 18 583.298 232.979 1
13 -5 -18 380.451 138.019 2
5 -13 18 350.104 142.28 1
-5 -18 13 303.305 113.385 1
-13 -5 18 649.384 240.75 1
13 -6 -18 733.658 227.013 2
-13 -6 18 755.823 287.248 1
6 -13 18 704.116 315.856 1
-13 -7 18 2754.16 501.937 1
7 -13 18 2294.8 498.823 1
18 7 -13 2648.38 383.903 3
8 -13 18 327.478 162.068 1
-13 -8 18 767.254 279.369 1
18 8 -13 521.972 168.858 3
-13 -9 18 132.173 160.292 1
9 -13 18 26.2012 84.2475 1
18 9 -13 266.602 109.179 3
18 10 -13 671.084 215.224 3
10 -13 18 1014.28 344.734 1
-13 -10 18 566.574 187.563 1
18 11 -13 127.347 149.037 3
11 -13 18 -18.1911 159.286 1
-13 -11 18 -29.3175 62.4496 1
12 -13 18 149.455 174.966 1
18 12 -13 250.269 180 3
-13 -12 18 84.7597 67.2959 1
13 -13 18 164.089 132.546 1
-13 -13 18 257.331 304.024 1
18 13 -13 0.32445 197.67 3
18 14 -13 343.616 58.8657 3
-13 -14 18 68.0783 205.577 1
14 13 -18 216.912 124.339 3
-18 -12 14 -81.1757 154.797 1
14 12 -18 -219.511 150.353 3
-12 -14 18 147.87 256.82 1
18 14 -12 61.3569 102.445 3
-11 -14 18 32.0881 130.768 1
-18 -11 14 -10.5341 128.245 1
14 11 -18 -4.62209 91.8182 3
18 14 -11 105.378 111.453 3
11 -18 14 78.5734 137.773 1
10 -14 -18 147.884 96.2706 2
-10 -14 18 82.6904 210.476 1
14 10 -18 234.282 98.615 3
10 -18 14 182.576 185.08 1
9 -14 -18 1181.88 226.317 2
9 -18 14 1051.08 324.933 1
-9 -14 18 1247.18 335.325 1
-8 -14 18 205.9 187.332 1
8 -18 14 244.983 201.248 1
8 -14 -18 366.795 156.413 2
-7 -14 18 709.293 276.464 1
7 -14 -18 496.97 156.63 2
7 -18 14 699.649 318.855 1
-6 -14 18 289.219 293.908 1
6 -18 14 -157.09 130.819 1
5 -18 14 257.654 169.951 1
-5 -14 18 -202.664 268.258 1
4 -18 14 873.328 287.506 1
-4 -14 18 730.185 270.545 1
3 -18 14 2738.88 547.345 1
-3 -14 18 2150.28 496.036 1
2 -18 14 -48.3579 155.262 1
-2 -14 18 460.419 236.327 1
1 -18 14 596.995 253.485 1
-1 -14 18 727.238 250.797 1
0 -14 18 379.7 202.151 1
0 -18 14 278.233 176.812 1
1 -14 18 690.797 330.798 1
-1 -18 14 648.877 216.491 1
-2 -18 14 278.102 231.945 1
2 -14 18 384.894 263.307 1
-3 -18 14 2704.57 539.103 1
3 -14 18 2977.36 580.421 1
-4 -18 14 389.384 99.0153 1
4 -14 18 336.019 172.369 1
5 -14 18 100.165 88.5464 1
18 5 -14 66.9841 57.7623 3
-5 -18 14 27.3047 169.786 1
18 6 -14 37.27 74.3048 3
6 -14 18 66.065 165.401 1
-6 -18 14 -19.3909 119.714 1
7 -14 18 622.234 269.613 1
-14 -7 18 656.487 244.662 1
18 7 -14 993.586 210.819 3
-7 -18 14 733.47 338.092 1
8 -14 18 547.19 268.37 1
18 8 -14 326.488 121.884 3
-14 -8 18 533.322 249.013 1
-8 -18 14 60.5155 99.256 1
-14 -9 18 908.899 344.714 1
9 -14 18 1411.86 401.971 1
18 9 -14 1378.28 262.6 3
18 10 -14 172.851 109.966 3
10 -14 18 137.525 164.461 1
-14 -10 18 251.014 134.702 1
18 11 -14 -326.294 219.745 3
-14 -11 18 -66.5101 163.275 1
11 -14 18 -141.926 233.279 1
-14 -12 18 -333.906 241.059 1
18 12 -14 -74.8041 87.7871 3
18 13 -14 418.317 201.801 3
13 -14 18 594.373 303.485 1
-14 -13 18 117.93 204.773 1
18 14 -14 39.767 83.8053 3
-14 -14 18 40.6864 156.133 1
14 14 -18 -106.935 123.527 3
-14 -15 18 300.861 133.403 1
15 14 -18 436.671 171.767 3
18 15 -14 622.636 128.736 3
-18 -14 15 98.3168 168.49 1
18 15 -13 211.693 172.909 3
-18 -13 15 162.471 190.809 1
-13 -15 18 -301.392 305.28 1
15 13 -18 -101.041 129.676 3
-12 -15 18 -39.1811 104.696 1
18 15 -12 296.983 164.323 3
-18 -12 15 215.619 116.332 1
15 12 -18 152.372 66.0177 3
11 -18 15 21.3479 171.727 1
-11 -15 18 603.167 309.969 1
15 11 -18 301.499 193.627 3
10 -15 -18 544.944 147.105 2
-10 -15 18 422.659 194.078 1
15 10 -18 567.088 153.302 3
10 -18 15 349.952 154.594 1
9 -15 -18 764.589 179.093 2
9 -18 15 1008.82 311.243 1
-9 -15 18 737.014 328.937 1
15 9 -18 892.167 215.912 3
8 -18 15 185.085 202.801 1
8 -15 -18 147.328 135.377 2
-8 -15 18 285.966 212.285 1
7 -18 15 -144.731 162.384 1
-7 -15 18 33.2362 152.416 1
7 -15 -18 -151.332 126.544 2
-6 -15 18 504.452 216.134 1
6 -18 15 691.315 293.619 1
-5 -15 18 1625.27 444.198 1
5 -18 15 1966.14 445.142 1
4 -18 15 542.772 272.19 1
-4 -15 18 387.238 242.086 1
-3 -15 18 667.154 350.149 1
3 -18 15 148.537 147.492 1
2 -18 15 1053.51 354.128 1
-2 -15 18 1100.06 363.905 1
-1 -15 18 15.5198 154.846 1
1 -18 15 -114.651 205.611 1
0 -18 15 401.554 195.896 1
0 -15 18 521.808 269.996 1
-1 -18 15 26.086 156.01 1
1 -15 18 -95.2897 157.95 1
-2 -18 15 1206.4 423.103 1
2 -15 18 762.855 307.976 1
-3 -18 15 422.737 247.505 1
18 15 3 219.502 178.558 3
18 3 -15 98.981 63.9159 3
3 -15 18 147.761 175.825 1
4 -15 18 655.559 247.669 1
18 4 -15 705.458 191.265 3
-4 -18 15 521.969 225.409 1
18 15 4 137.056 104.322 3
18 5 -15 1568.48 279.07 3
5 -15 18 1805.72 475.056 1
-5 -18 15 1754.6 443.365 1
6 -15 18 483.342 184.175 1
18 6 -15 362.955 137.659 3
-6 -18 15 598.076 199.471 1
-7 -18 15 52.0441 156.858 1
18 7 -15 117.15 50.1443 3
7 -15 18 53.6896 137.19 1
-8 -18 15 88.0394 130.879 1
18 8 -15 68.3576 82.2685 3
18 9 -15 1091.06 240.715 3
-15 -9 18 1120.21 337.84 1
9 -15 18 634.165 266.955 1
-9 -18 15 304.584 125.928 1
10 -15 18 322.173 142.484 1
-10 -18 15 669.419 295.713 1
18 10 -15 722.17 192.238 3
-15 -10 18 615.081 247.556 1
-15 -11 18 48.3608 111.97 1
18 11 -15 319.986 116.219 3
-11 -18 15 290.328 165.289 1
11 -15 18 367.786 168.166 1
12 -15 18 228.574 170.652 1
-15 -12 18 6.07889 174.818 1
-12 -18 15 -148.396 290.275 1
18 12 -15 447.492 205.415 3
-15 -13 18 29.5869 71.2102 1
13 -15 18 34.2791 248.395 1
-13 -18 15 -94.9835 195.455 1
18 13 -15 18.1556 110.994 3
-14 -18 15 528.294 302.393 1
18 14 -15 540.944 249.127 3
-15 -14 18 233.814 274.696 1
-15 -15 18 899.038 321.366 1
15 15 -18 1096.88 255.018 3
-15 -18 15 641.51 151.038 1
-18 -15 15 749.69 158.458 1
18 15 -15 1348.32 321.481 3
-18 -15 16 -109.734 245.328 1
18 16 -15 -67.0655 112.888 3
16 15 -18 158.547 89.5061 3
-16 -18 15 -301.91 245.282 1
-14 -16 18 1348.03 404.503 1
16 14 -18 1683.58 315.931 3
18 16 -14 1941.44 366.965 3
18 16 -13 471.83 193.182 3
-13 -16 18 160.797 240.819 1
16 13 -18 401.938 149.94 3
-12 -16 18 258.012 156.163 1
16 12 -18 104.643 132.802 3
-11 -16 18 236.631 66.0735 1
16 11 -18 362.375 151.933 3
11 -18 16 264.632 250.02 1
-10 -16 18 -17.6542 195.266 1
10 -18 16 -159.955 207.682 1
16 10 -18 237.37 115.553 3
-9 -16 18 29.7033 103.61 1
9 -18 16 -117.429 119.265 1
16 9 -18 274.737 140.819 3
8 -18 16 474.288 254.096 1
16 8 -18 510.915 204.809 3
-8 -16 18 194.72 74.1332 1
7 -18 16 702.736 282.168 1
16 7 -18 686.131 210.724 3
-7 -16 18 1053.69 379.762 1
-6 -16 18 944.286 237.014 1
6 -18 16 1466.4 425.178 1
-5 -16 18 662.31 276.953 1
5 -18 16 147.561 126.876 1
-4 -16 18 82.7678 79.6109 1
4 -18 16 -267.103 194.703 1
-3 -16 18 -40.2055 216.775 1
3 -18 16 -206.913 233.615 1
2 -18 16 2041.23 483.495 1
-2 -16 18 2209.3 471.519 1
1 -18 16 660.401 340.116 1
-1 -16 18 586.022 172.715 1
0 -16 18 -140.417 183.759 1
0 -18 16 315.333 193.288 1
18 1 -16 506.107 175.666 3
1 -16 18 473.197 274.584 1
-1 -18 16 171.442 123.779 1
18 2 -16 1559.08 287.482 3
-2 -18 16 2461.17 513.534 1
2 -16 18 2163.37 501.479 1
-3 -18 16 217.18 181.164 1
18 3 -16 74.5673 133.105 3
3 -16 18 360.625 212.169 1
18 16 4 53.9027 67.9069 3
-4 -18 16 237.171 222.933 1
18 4 -16 -95.5349 142.455 3
4 -16 18 -9.57984 144.429 1
18 16 5 532.392 201.486 3
18 5 -16 532.016 165.046 3
5 -16 18 648.203 230.932 1
-5 -18 16 587.85 285.726 1
-6 -18 16 1401.69 385.328 1
18 6 -16 1165.63 251.909 3
6 -16 18 1880.53 472.09 1
-7 -18 16 546.13 284.054 1
7 -16 18 840.955 333.894 1
18 7 -16 650.799 175.941 3
-8 -18 16 -5.19682 129.538 1
18 8 -16 190.657 60.1713 3
8 -16 18 52.6687 142.126 1
-9 -18 16 93.5017 92.5238 1
18 9 -16 -99.6173 120.037 3
9 -16 18 243.647 181.5 1
18 10 -16 191.895 124.392 3
-10 -18 16 379.911 330.113 1
10 -16 18 -137.445 275.394 1
-16 -11 18 46.4593 149.346 1
11 -16 18 172.266 161.17 1
-11 -18 16 295.864 108.447 1
18 11 -16 373.142 134.608 3
12 -16 18 233.4 174.24 1
-16 -12 18 -27.5825 236.883 1
18 12 -16 61.3387 101.524 3
-12 -18 16 561.424 221.564 1
-16 -13 18 192.725 112.038 1
18 13 -16 73.938 51.1434 3
13 -16 18 216.04 283.625 1
-16 -14 18 780.639 314.095 1
18 14 -16 1387.32 277.673 3
-14 -18 16 1233.28 438.254 1
-16 -15 18 34.1809 130.953 1
18 15 -16 276.352 82.3882 3
-15 -18 16 76.4072 158.244 1
-18 -16 15 140.764 160.246 1
15 16 -18 291.753 142.037 3
18 16 -16 1459.04 335.381 3
16 16 -18 1299.49 301.666 3
16 18 -17 180.47 133.16 3
17 16 -18 158.352 103.272 3
18 17 -16 472.848 174.42 3
18 17 -15 585.704 242.399 3
17 15 -18 171.962 86.1449 3
-14 -17 18 -53.4692 226.411 1
18 17 -14 51.482 63.8151 3
17 14 -18 133.498 119.036 3
-13 -17 18 299.776 181.238 1
18 17 -13 569.832 197.885 3
17 13 -18 392.194 155.87 3
-12 -17 18 64.1526 195.573 1
17 12 -18 38.5145 141.876 3
-11 -17 18 113.011 286.944 1
17 11 -18 -91.3345 52.5922 3
11 -18 17 136.694 270.114 1
17 10 -18 258.842 169.582 3
-10 -17 18 479.136 317.131 1
10 -18 17 132.62 114.451 1
-9 -17 18 221.435 188.698 1
9 -18 17 88.029 156.066 1
17 9 -18 50.2335 83.3534 3
8 -18 17 173.689 172.627 1
-8 -17 18 192.035 183.261 1
17 8 -18 401.53 148.423 3
7 -18 17 538.764 293.881 1
-7 -17 18 679.124 306.824 1
17 7 -18 724.272 200.74 3
-6 -17 18 541.406 234.825 1
6 -18 17 624.709 312.055 1
17 6 -18 263.544 84.1642 3
-5 -17 18 425.526 275.614 1
5 -18 17 302.568 181.491 1
-4 -17 18 959.237 336.697 1
4 -18 17 540.26 225.604 1
-3 -17 18 849.928 348.742 1
3 -18 17 491.235 333.432 1
2 -18 17 127.589 82.4313 1
-2 -17 18 221.002 148.325 1
-1 -17 18 123.863 98.6186 1
1 -18 17 -116.404 119.84 1
0 -17 18 -481.661 356.312 1
0 -18 17 24.6407 206.314 1
1 -17 18 60.4627 65.9835 1
18 1 -17 42.9397 77.3707 3
-2 -18 17 67.011 63.7813 1
2 -17 18 80.5026 185.523 1
18 2 -17 131.214 75.4241 3
18 3 -17 577.683 202.383 3
-3 -18 17 722.85 314.693 1
3 -17 18 609.551 288.957 1
18 4 -17 822.476 208.459 3
-4 -18 17 906.009 369.381 1
4 -17 18 1253.63 463.946 1
18 5 -17 284.464 93.7852 3
-5 -18 17 265.853 194.887 1
18 17 5 28.0623 63.8311 3
5 -17 18 151.565 122.59 1
6 -17 18 514.124 251.776 1
18 6 -17 334.089 130.951 3
-6 -18 17 565.627 296.491 1
-7 -18 17 667.415 273.944 1
7 -17 18 807.743 296.276 1
18 7 -17 747.771 221.937 3
18 8 -17 435.625 152.599 3
-8 -18 17 76.2681 123.681 1
18 9 -17 321.902 126.711 3
9 -17 18 109.107 144.407 1
-9 -18 17 334.392 178.279 1
-10 -18 17 -200.534 197.737 1
10 -17 18 336.963 269.243 1
18 10 -17 81.536 87.7087 3
11 -17 18 -288.149 200.058 1
18 11 -17 169.218 102.501 3
-11 -18 17 93.9058 194.337 1
12 -17 18 -14.5833 164.244 1
18 12 -17 -53.1432 80.1226 3
-12 -18 17 19.743 226.994 1
-13 -18 17 436.216 236.254 1
18 13 -17 569.033 196.798 3
-14 -18 17 -39.728 87.9868 1
18 14 -17 34.9919 105.862 3
18 15 -17 346.032 144.983 3
15 17 -18 113.925 90.2762 3
16 17 -18 -6.62166 64.7047 3
18 16 -17 117.445 82.2927 3
17 17 -18 121.122 72.9928 3
17 18 -17 178.99 77.2098 3
18 17 -17 372.939 197.29 3
0 -18 18 527.346 283.037 1
-1 -18 18 385.915 157.117 1
1 -18 18 24.9189 221.252 1
2 -18 18 475.001 268.987 1
-2 -18 18 160.32 183.955 1
-3 -18 18 102.124 84.0409 1
3 -18 18 -159.113 237.886 1
-4 -18 18 634.469 222.461 1
18 4 -18 539.694 148.106 3
4 -18 18 994.961 334.695 1
18 18 5 110.076 104.563 3
-5 -18 18 -66.9807 127.692 1
18 5 -18 -25.7055 75.0856 3
5 -18 18 288.194 184.353 1
-6 -18 18 -216.113 173.476 1
6 -18 18 -61.0149 177.805 1
18 6 -18 183.886 171.19 3
-7 -18 18 688.058 268.981 1
7 -18 18 640.635 182.897 1
18 7 -18 590.232 194.165 3
-8 -18 18 1427.63 461.5 1
8 -18 18 1364.3 352.122 1
18 8 -18 1422.75 293.599 3
-9 -18 18 278.127 210.395 1
18 9 -18 275.434 196.227 3
9 -18 18 380.207 239.434 1
18 10 -18 46.0985 102.884 3
-10 -18 18 9.78695 148.531 1
10 -18 18 -172.615 126.276 1
11 -18 18 329.434 177.372 1
18 11 -18 112.205 69.4811 3
-11 -18 18 544.518 257.133 1
-12 -18 18 37.3485 178.922 1
18 12 -18 38.689 78.2419 3
12 -18 18 -99.5529 146.21 1
-13 -18 18 303.901 314.842 1
18 13 -18 222.862 148.104 3
18 14 -18 242.859 117.39 3
18 18 -14 401.371 211.181 3
15 18 -18 244.308 107.682 3
18 18 -15 407.544 194.519 3
18 15 -18 615.63 205.918 3
16 18 -18 4297.24 484.424 3
18 16 -18 4783.4 542.556 3
18 18 -16 4476 544.266 3
18 17 -18 256.142 116.003 3
18 18 -17 347.655 155.885 3
17 18 -18 170.07 134.067 3
18 18 -18 6310.15 621.697 3
0 0 19 -165.07 183.335 1
0 1 19 203.103 115.431 1
1 0 19 -193.633 196.111 1
-1 0 19 -68.7861 112.29 1
0 -1 19 -41.532 108.872 1
1 -1 19 2493.02 445.835 1
-1 1 19 2214.03 429.808 1
-1 -1 19 1951.32 395.918 1
1 1 19 2367.13 440.593 1
-2 1 19 668.073 196.926 1
2 -1 19 683.842 265.201 1
-1 -2 19 515.895 240.723 1
2 0 19 140.816 97.6401 1
-2 0 19 -42.0707 117.542 1
1 -2 19 436.719 132.07 1
-2 -1 19 364.356 166.95 1
-2 2 19 1440.45 347.254 1
-2 -2 19 1449.55 350.855 1
2 -2 19 1540.93 339.335 1
-2 -3 19 1071.66 307.85 1
-3 2 19 1390.9 304.618 1
3 -2 19 1514.88 340.465 1
-3 1 19 322.616 175.374 1
3 -1 19 506.717 168.084 1
-1 -3 19 315.399 134.878 1
0 -3 19 61.5627 84.585 1
3 0 19 -153.558 128.875 1
-3 0 19 75.7358 71.804 1
-3 -1 19 487.674 190.098 1
1 -3 19 588.343 251.94 1
2 -3 19 1283.71 351.965 1
-3 -2 19 1165.65 305.82 1
3 -3 19 457.609 119.767 1
-3 -3 19 493.287 67.3198 1
-3 -4 19 1091.73 323.49 1
4 -3 19 1134.65 359.508 1
4 -2 19 469.733 144.844 1
-2 -4 19 714.857 221.581 1
-4 2 19 575.935 199.899 1
-4 1 19 4118.02 548.1 1
4 -1 19 4057.86 577.708 1
-1 -4 19 4163.13 585.996 1
0 -4 19 2169.43 455.104 1
-4 0 19 2153.45 412.143 1
-4 -1 19 4144.96 566.452 1
1 -4 19 4189.75 604.106 1
-4 -2 19 1120.84 328.265 1
2 -4 19 845.174 319.072 1
3 -4 19 1002.19 287.77 1
-4 -3 19 852.131 253.84 1
-4 -4 19 5716.66 684.143 1
4 -4 19 5318.04 696.333 1
5 -4 19 1556.79 394.122 1
-4 -5 19 1670.05 410.134 1
5 -3 19 356.836 212.022 1
-3 -5 19 280.571 173.073 1
5 -2 19 -64.1942 156.13 1
-2 -5 19 -15.272 130.916 1
-5 2 19 174.473 159.764 1
5 -1 19 67.885 91.4479 1
-1 -5 19 158.262 137.148 1
-5 1 19 230.301 135.572 1
-5 0 19 1011.67 271.973 1
0 -5 19 868.26 298.434 1
1 -5 19 73.7719 133.417 1
-5 -1 19 64.5248 174.937 1
2 -5 19 -12.7771 162.667 1
-5 -2 19 39.7557 90.4372 1
-5 -3 19 194.824 205.131 1
3 -5 19 373.791 142.481 1
4 -5 19 1531.74 337.912 1
-5 -4 19 1809.47 396.886 1
5 -19 4 1356.49 319.251 1
5 -19 5 195.1 135.053 1
5 -5 19 309.056 209.941 1
-5 -5 19 267.527 230.806 1
5 -19 6 325.256 236.394 1
6 -5 19 396.859 263.404 1
-5 -6 19 -22.3906 60.282 1
6 -4 19 169.423 199.608 1
4 -19 6 -84.4415 58.4518 1
-4 -6 19 127.39 166.886 1
-3 -6 19 952.752 254.007 1
6 -3 19 1269.8 331.31 1
-2 -6 19 6682.38 749.192 1
-6 2 19 6761.15 684.145 1
6 -2 19 6792.06 794.779 1
-1 -6 19 1021.05 319.591 1
-6 1 19 964.403 260.529 1
-6 0 19 -138.845 69.9689 1
0 -6 19 14.0315 177.275 1
-6 -1 19 973.699 274.276 1
1 -6 19 853.391 271.525 1
2 -6 19 7212.21 787.178 1
6 -19 2 6735.05 661.618 1
-6 -2 19 6377.01 697.5 1
3 -6 19 1379.71 336.038 1
-6 -3 19 1165.05 335.483 1
6 -19 3 1669.25 331.881 1
-6 -4 19 69.5622 79.9635 1
4 -6 19 18.2371 178.429 1
6 -19 4 202.494 128.965 1
5 -6 19 216.11 132.279 1
-6 -5 19 206.525 111.423 1
6 -19 5 407.958 234.964 1
6 -19 6 228.054 97.8423 1
6 -6 19 333.38 155.436 1
-6 -6 19 166.178 129.902 1
-6 -7 19 455.615 170.003 1
7 -6 19 59.2994 100.017 1
6 -19 7 273.918 125.019 1
5 -19 7 173.541 102.16 1
-5 -7 19 193.201 121.6 1
7 -5 19 -8.6449 170.837 1
7 -4 19 865.998 311.618 1
4 -19 7 626.261 244.325 1
-4 -7 19 891.887 264.012 1
7 -3 19 2460.06 484.595 1
3 -19 7 2185.08 412.727 1
-3 -7 19 2000.44 385.818 1
-7 2 19 2498.97 412.215 1
-2 -7 19 1946.95 388.784 1
-1 -7 19 415.608 184.152 1
-7 1 19 456.32 198.646 1
0 -7 19 -14.3545 113.02 1
-7 0 19 20.0717 101.52 1
-7 -1 19 496.738 142.106 1
1 -7 19 351.073 100.319 1
-7 -2 19 2557.91 443.806 1
2 -7 19 2246.96 456.35 1
3 -7 19 2498.77 466.258 1
-7 -3 19 1977.03 396.917 1
7 -19 3 2333.05 394.738 1
4 -7 19 828.115 218.416 1
7 -19 4 933.62 246.842 1
-7 -4 19 1000.57 305.877 1
-7 -5 19 38.5993 90.0492 1
5 -7 19 250.963 138.672 1
7 -19 5 214.078 76.183 1
7 -19 6 319.674 153.609 1
6 -7 19 372.912 285.924 1
-7 -6 19 300.622 194.742 1
7 -19 7 145.364 122.16 1
7 -7 19 116.09 191.799 1
-7 -7 19 166.967 77.1764 1
-7 -8 19 1062.42 244.939 1
7 -19 8 706.962 265.838 1
8 -7 19 865.203 283.103 1
8 -6 19 39.1287 113.428 1
6 -19 8 132.601 123.669 1
-6 -8 19 425.354 214.463 1
8 -5 19 310.631 216.189 1
-5 -8 19 220.759 111.154 1
5 -19 8 342.733 241.086 1
4 -19 8 2078.41 429.933 1
8 -4 19 1887.92 440.411 1
-4 -8 19 1924.67 401.264 1
-3 -8 19 472.5 229.334 1
3 -19 8 471.973 212.3 1
2 -19 8 130.566 135.751 1
-8 2 19 106.844 88.891 1
-2 -8 19 73.8401 93.1444 1
-1 -8 19 249.252 157.433 1
-8 1 19 322.177 199.573 1
-8 0 19 4051.45 559.912 1
0 -8 19 3908.79 610.972 1
1 -8 19 283.51 183.679 1
-8 -1 19 -82.2619 123.216 1
-8 -2 19 181.496 180.229 1
2 -8 19 261.831 216.278 1
3 -8 19 529.671 259.16 1
-8 -3 19 180.145 125.604 1
-8 -4 19 1675.01 356.67 1
4 -8 19 1658.9 440.157 1
8 -19 5 7.47419 97.8446 1
5 -8 19 -45.6807 152.57 1
-8 -5 19 86.8671 140.354 1
8 -19 6 46.1129 93.1735 1
-8 -6 19 190.68 148.171 1
6 -8 19 -25.3981 106.813 1
7 -8 19 667.842 275.763 1
8 -19 7 422.063 166.849 1
-8 -7 19 1031.29 306.507 1
-8 -8 19 682.691 209.83 1
8 -19 8 535.302 192.31 1
8 -8 19 459.652 225.007 1
9 -8 19 281.323 232.119 1
8 -19 9 74.3751 146.02 1
-8 -9 19 194.05 172.876 1
-7 -9 19 289.826 56.4001 1
9 -7 19 228.364 181.778 1
9 -6 19 2001.18 489.381 1
6 -19 9 1821.14 387.038 1
-6 -9 19 1537.15 401.494 1
5 -19 9 1163.36 312.257 1
-5 -9 19 717.978 261.751 1
9 -5 19 875.467 336.177 1
-4 -9 19 1338.2 351.559 1
4 -19 9 1460.38 377.901 1
3 -19 9 487.918 224.877 1
-3 -9 19 301.036 199.596 1
2 -19 9 399.242 149.589 1
-2 -9 19 672.678 258.973 1
-1 -9 19 1958.37 431.355 1
1 -19 9 2102.35 440.233 1
-9 1 19 2240.47 410.932 1
-9 0 19 3478.49 489.998 1
0 -9 19 4050.06 609.841 1
1 -9 19 1291.89 368.582 1
-9 -1 19 1753.4 372.623 1
2 -9 19 413.967 264.772 1
-9 -2 19 522.36 244.326 1
-9 -3 19 327.17 93.0803 1
3 -9 19 391.041 233.456 1
4 -9 19 1080.07 280.294 1
-9 -4 19 1221.34 297.991 1
5 -9 19 1267.56 351.977 1
-9 -5 19 1278.3 357.799 1
-9 -6 19 1611.37 361.502 1
6 -9 19 1646.96 392.822 1
7 -9 19 479.798 249.318 1
-9 -7 19 787.4 252.437 1
8 -9 19 250.722 89.1351 1
-9 -8 19 329.136 189.103 1
9 -19 8 455.879 249.997 1
-9 -9 19 289.114 188.356 1
9 -9 -19 218.364 80.7084 2
9 -9 19 268.14 171.392 1
19 9 -9 178.324 92.2622 3
9 -19 9 76.9417 70.2031 1
19 10 -9 236.818 203.446 3
9 -10 -19 78.9585 70.1439 2
10 -9 19 200.166 154.609 1
-9 -10 19 550.09 253.19 1
9 -19 10 278.655 162.803 1
10 -8 19 503.654 173.78 1
8 -19 10 442.331 213.076 1
-8 -10 19 567.028 247.126 1
19 10 -8 459.308 189.856 3
7 -19 10 1582.61 347.725 1
-7 -10 19 1579.47 374.168 1
10 -7 19 1912.71 485.927 1
19 10 -7 1261.81 286.166 3
6 -19 10 51.5075 131.361 1
-6 -10 19 600.599 261.776 1
10 -6 19 567.855 256.096 1
5 -19 10 394.67 208.122 1
-5 -10 19 152.797 79.3587 1
-4 -10 19 462.666 224.288 1
4 -19 10 614.781 270.465 1
-3 -10 19 498.19 174.768 1
3 -19 10 563.395 248.185 1
-2 -10 19 4242.4 638.38 1
2 -19 10 3484.67 547.19 1
-1 -10 19 33.2136 183.992 1
1 -19 10 182.594 134.923 1
0 -19 10 1267.93 353.143 1
0 -10 19 1373.75 344.235 1
1 -10 19 16.2427 111.282 1
-10 -1 19 329.335 165.533 1
2 -10 19 4068.04 614.183 1
-10 -2 19 4175.36 544.788 1
-10 -3 19 825.349 265.988 1
3 -10 19 420.147 243.174 1
-10 -4 19 507.246 178.542 1
4 -10 19 543.736 265.801 1
-10 -5 19 87.659 138.802 1
5 -10 19 -57.3968 119.137 1
6 -10 19 377.76 230.578 1
-10 -6 19 108.951 73.9992 1
7 -10 19 1750.86 434.69 1
-10 -7 19 1426.84 340.215 1
10 -8 -19 596.358 173.387 2
8 -10 19 401.101 199.988 1
-10 -8 19 324.915 117.786 1
19 8 -10 590.235 239.798 3
10 -9 -19 268.198 118.503 2
-10 -9 19 329.549 224.705 1
19 9 -10 232.846 140.387 3
9 -10 19 -53.6236 201.291 1
10 -10 19 893.532 333.378 1
10 -10 -19 812.16 209.128 2
-10 -10 19 835.888 303.926 1
19 10 -10 1089.93 292.014 3
-10 -11 19 541.878 253.691 1
10 -11 -19 667.05 215.481 2
19 11 -10 625.748 207.201 3
11 -10 19 837.093 278.198 1
10 -19 11 707.752 266.174 1
9 -11 -19 258.428 134.167 2
-9 -11 19 58.9108 122.957 1
19 11 -9 121.55 124.007 3
9 -19 11 121.409 48.662 1
11 -9 19 84.1848 134.888 1
8 -11 -19 885.325 235.155 2
8 -19 11 1126.3 338.773 1
11 -8 19 1359.57 377.282 1
19 11 -8 1035.14 275.902 3
-8 -11 19 593.267 120.285 1
7 -19 11 990.899 295.834 1
19 11 -7 497.468 193.698 3
-7 -11 19 704.165 254.294 1
-6 -11 19 126.511 195.47 1
6 -19 11 255.013 186.597 1
19 11 -6 277.534 168.052 3
5 -19 11 1002.13 331.34 1
-5 -11 19 524.022 220.148 1
-4 -11 19 937.802 291.882 1
4 -19 11 1124.26 349.443 1
3 -19 11 856.842 298.64 1
-3 -11 19 950.255 281.461 1
2 -19 11 2319.25 447.349 1
-2 -11 19 2574.61 538.511 1
-1 -11 19 930.171 286.857 1
1 -19 11 992.013 341.655 1
0 -19 11 587.234 176.452 1
0 -11 19 441.957 203.906 1
-1 -19 11 1008.52 285.848 1
1 -11 19 820.365 259.142 1
-11 -2 19 2104.72 407.648 1
2 -11 19 2992.97 523.209 1
3 -11 19 782.346 321.499 1
-11 -3 19 766.966 248.066 1
4 -11 19 1189.64 325.858 1
-11 -4 19 1512.82 348.344 1
5 -11 19 824.83 301.58 1
-11 -5 19 901.299 292.318 1
-11 -6 19 -3.2779 75.8924 1
6 -11 19 331.445 249.94 1
11 -6 -19 207.769 144.459 2
11 -7 -19 674.547 199.379 2
19 7 -11 1263.56 258.861 3
-11 -7 19 788.751 291.349 1
7 -11 19 968.006 370.158 1
8 -11 19 1501.18 427.752 1
11 -8 -19 792.406 175.919 2
-11 -8 19 1050.38 304.819 1
19 8 -11 1016.1 243.164 3
9 -11 19 22.9351 191.35 1
11 -9 -19 38.1225 43.9761 2
-11 -9 19 168.951 177.328 1
11 -10 -19 840.225 202.673 2
-11 -10 19 1183.47 318.567 1
19 10 -11 1061.22 250.609 3
10 -11 19 762.525 255.452 1
11 -11 -19 229.912 121.794 2
-11 -11 19 0.56568 79.3033 1
11 -11 19 69.8969 169.174 1
11 -12 -19 1.07852 71.1252 2
12 -11 19 30.5856 117.913 1
-11 -12 19 2.34787 130.587 1
19 12 -11 124.065 185.233 3
-10 -12 19 -243.239 172.049 1
10 -12 -19 236.4 113.786 2
10 -19 12 463.485 267.899 1
12 -10 19 55.1766 162.115 1
19 12 -10 244.306 219.496 3
9 -19 12 1323 358.364 1
9 -12 -19 1021.82 223.663 2
-9 -12 19 1092.08 333.77 1
19 12 -9 1373.96 313.849 3
-8 -12 19 1278.13 376.881 1
8 -12 -19 1759.06 298.599 2
8 -19 12 1534.52 379.372 1
19 12 -8 1828.22 343.143 3
-7 -12 19 120.507 161.86 1
7 -12 -19 123.783 107.023 2
7 -19 12 35.7879 103.282 1
19 12 -7 219.833 140.503 3
-6 -12 19 1879.79 450.219 1
6 -12 -19 1493.44 285.289 2
6 -19 12 1760.75 412.42 1
19 12 -6 1691.56 355.203 3
5 -19 12 1044.93 334.342 1
19 12 -5 858.443 292.409 3
-5 -12 19 1015.37 295.518 1
4 -19 12 -42.4874 67.7403 1
-4 -12 19 -248.577 183.074 1
19 12 -4 70.8622 120.091 3
-3 -12 19 336.391 189.669 1
3 -19 12 356.699 155.592 1
2 -19 12 1063.1 338.702 1
-2 -12 19 1034.29 327.56 1
-1 -12 19 728.011 310.404 1
1 -19 12 829.259 318.535 1
0 -19 12 1328.16 358.189 1
0 -12 19 1947.82 507.125 1
-1 -19 12 492.035 230.832 1
1 -12 19 930.789 356.882 1
12 -2 -19 643.411 158.864 2
-2 -19 12 1031.95 341.42 1
-3 -19 12 189.773 61.7305 1
12 -3 -19 386.522 169.337 2
4 -12 19 -29.7915 109.148 1
12 -4 -19 148.167 123.741 2
-12 -4 19 224.52 163.475 1
5 -12 19 1463.63 427.355 1
19 5 -12 1114.51 221.868 3
12 -5 -19 894.56 218.249 2
-12 -5 19 1173.04 338.194 1
12 -6 -19 1681.44 312.886 2
-12 -6 19 1942.38 409.65 1
6 -12 19 1658.7 420.331 1
19 6 -12 1940.17 346.156 3
12 -7 -19 30.1558 50.9787 2
-12 -7 19 -77.585 72.7221 1
7 -12 19 76.7341 148.715 1
19 7 -12 56.1239 146.71 3
12 -8 -19 1897.62 325.57 2
-12 -8 19 2147.03 483.372 1
19 8 -12 2237.62 378.598 3
8 -12 19 1547.51 405.209 1
12 -9 -19 1105.26 261.277 2
-12 -9 19 843.522 280.357 1
9 -12 19 1426.06 381.629 1
19 9 -12 1092.05 247.35 3
12 -10 -19 433.393 134.961 2
10 -12 19 -9.80442 188.045 1
19 10 -12 146.475 134.091 3
-12 -10 19 151.124 119.404 1
12 -11 -19 5.18303 67.8977 2
11 -12 19 107.492 76.3122 1
19 11 -12 167.228 128.949 3
-12 -11 19 117.606 72.8764 1
-12 -12 19 792.147 302.993 1
19 12 -12 1222.92 262.088 3
12 -12 19 821.37 244.308 1
-12 -13 19 199.494 281.883 1
19 13 -12 21.5202 57.5755 3
11 -13 -19 7.82583 97.2772 2
19 13 -11 107.791 84.7367 3
-11 -13 19 357.12 295.059 1
-10 -13 19 200.259 124.202 1
10 -13 -19 446.26 134.237 2
10 -19 13 455.102 62.7585 1
9 -19 13 8.80336 137.604 1
9 -13 -19 198.892 100.914 2
-9 -13 19 -14.8053 213.236 1
19 13 -9 126.085 145.785 3
-8 -13 19 1080.77 339.924 1
8 -13 -19 757.182 198.443 2
8 -19 13 1032.93 311.752 1
19 13 -8 1050.99 270.997 3
-7 -13 19 360.311 216.679 1
7 -13 -19 506.219 171.578 2
7 -19 13 313.216 175.691 1
19 13 -7 346.541 168.265 3
-6 -13 19 1079.99 346.032 1
6 -13 -19 1078.5 216.902 2
19 13 -6 880.493 284.879 3
6 -19 13 1108.1 338.272 1
5 -19 13 751.402 245.227 1
19 13 -5 135.249 162.54 3
-5 -13 19 336.277 217.436 1
5 -13 -19 323.625 107.008 2
-4 -13 19 809.784 326.707 1
4 -19 13 832.212 284.517 1
19 13 -4 452.95 206.473 3
-3 -13 19 534.451 285.356 1
3 -19 13 52.4588 77.3181 1
19 13 -3 350.72 223.307 3
2 -19 13 1041.14 370.141 1
-2 -13 19 807.604 355.938 1
19 13 -2 1061.97 296.866 3
1 -19 13 147.044 96.3261 1
-1 -13 19 -106.505 100.488 1
19 13 -1 187.01 173.226 3
0 -19 13 2585.21 535.373 1
0 -13 19 2526.2 558.105 1
-1 -19 13 412.576 268.514 1
1 -13 19 -211.642 175.105 1
13 -2 -19 383.644 101.411 2
2 -13 19 540.726 289.355 1
-2 -19 13 582.58 233.605 1
13 -3 -19 429.551 161.442 2
3 -13 19 626.499 320.063 1
-3 -19 13 95.4188 108.315 1
19 3 -13 853.743 237.742 3
4 -13 19 739.024 297.904 1
-4 -19 13 777.881 268.246 1
13 -4 -19 648.322 208.905 2
19 4 -13 458.338 139.741 3
5 -13 19 411.591 247.047 1
19 5 -13 193.972 141.323 3
-5 -19 13 565.923 285.705 1
13 -5 -19 384.309 142.95 2
13 -6 -19 1097.97 261.933 2
-13 -6 19 720.323 214.255 1
6 -13 19 1285.89 396.711 1
19 6 -13 1436.85 291.763 3
-13 -7 19 784.365 276.74 1
7 -13 19 558.058 265.817 1
19 7 -13 487.178 141.985 3
19 8 -13 1082.21 226.993 3
-13 -8 19 1123.58 301.565 1
8 -13 19 895.241 249.684 1
-13 -9 19 92.4875 95.4966 1
9 -13 19 79.1902 187.346 1
19 9 -13 -116.475 156.878 3
-13 -10 19 531.081 203.561 1
10 -13 19 431 326.043 1
19 10 -13 733.669 207.786 3
-13 -11 19 249.604 276.69 1
11 -13 19 -327.944 269.195 1
19 11 -13 -230.567 107.979 3
-13 -12 19 -31.9823 104.164 1
12 -13 19 44.5282 99.7115 1
-13 -13 19 342.987 281.32 1
13 -13 19 -69.0888 154.863 1
13 13 -19 217.68 129.496 3
19 13 -13 -5.31891 76.108 3
-13 -14 19 575.894 359.732 1
-19 -13 14 554.278 277.606 1
19 14 -13 500.365 181.21 3
14 13 -19 422.248 175.384 3
-12 -14 19 279.589 192.498 1
19 14 -12 389.213 154.415 3
14 12 -19 19.4921 53.5056 3
-11 -14 19 548.982 365.206 1
19 14 -11 217.77 140.197 3
-10 -14 19 69.7175 140.639 1
10 -19 14 373.805 258.076 1
10 -14 -19 154.98 111.12 2
19 14 -10 289.155 212.023 3
9 -14 -19 191.114 180.03 2
9 -19 14 30.4802 163.248 1
-9 -14 19 43.6732 118.391 1
19 14 -9 -47.2737 160.236 3
19 14 -8 830.375 321.512 3
8 -19 14 377.47 165.387 1
8 -14 -19 809.052 177.146 2
-8 -14 19 793.804 339.923 1
7 -14 -19 570.946 136.677 2
19 14 -7 570.611 199.769 3
-7 -14 19 933.411 328.623 1
7 -19 14 806.431 296.187 1
19 14 -6 888.708 316.969 3
6 -14 -19 955.912 186.393 2
6 -19 14 1131.38 305.813 1
-6 -14 19 1220.18 393.932 1
5 -14 -19 556.318 159.082 2
5 -19 14 701.69 277.998 1
-5 -14 19 399.656 247.788 1
19 14 -5 404.018 178.423 3
19 14 -4 1070.24 276.937 3
-4 -14 19 1311.27 378.232 1
4 -14 -19 837.871 195.935 2
4 -19 14 1062.59 365.215 1
3 -19 14 405.402 241.885 1
19 14 -3 2.33829 113.744 3
-3 -14 19 601.207 296.237 1
19 -3 -14 225.646 129.576 3
3 -14 -19 277.089 142.362 2
19 -2 -14 -68.2756 134.247 3
2 -19 14 322.267 242.597 1
-2 -14 19 154.424 68.4885 1
19 14 -2 -6.84349 130.804 3
2 -14 -19 330.074 128.331 2
19 14 -1 657.85 193.352 3
19 -1 -14 181.474 55.5724 3
1 -19 14 672.62 295.497 1
-1 -14 19 816.391 354.567 1
0 -19 14 297.27 171.187 1
19 0 -14 60.7112 101.683 3
0 -14 19 175.22 199.079 1
19 14 0 5.67612 102.081 3
19 1 -14 518.854 154.32 3
1 -14 19 1225.81 404.636 1
19 14 1 350.046 171.024 3
-1 -19 14 1127.91 391.99 1
2 -14 19 95.1665 108.945 1
-2 -19 14 273.023 215.598 1
19 2 -14 238.955 123.707 3
19 14 2 115.647 113.29 3
3 -14 19 352.579 202.22 1
-3 -19 14 141.457 117.281 1
19 3 -14 274.392 81.7868 3
19 14 3 6.41101 76.6796 3
19 4 -14 1021.59 219.705 3
4 -14 19 1383.86 412.906 1
19 14 4 561.788 248.707 3
-4 -19 14 1401.68 445.216 1
5 -14 19 360.721 114.769 1
19 5 -14 483.561 169.149 3
-5 -19 14 499.32 263.085 1
6 -14 19 996.841 305.473 1
19 6 -14 1308.45 262.012 3
-6 -19 14 1427.79 374.493 1
19 7 -14 746.278 227.563 3
7 -14 19 769.659 309.307 1
-7 -19 14 818.884 346.981 1
-14 -8 19 841.504 316.212 1
19 8 -14 609.768 163.504 3
-8 -19 14 848.789 324.914 1
8 -14 19 802.577 343.52 1
9 -14 19 15.0442 152.822 1
-14 -9 19 125.014 170.845 1
-9 -19 14 108.971 122.886 1
19 9 -14 47.1709 102.65 3
-14 -10 19 200.875 128.99 1
10 -14 19 170.373 80.9078 1
19 10 -14 295.047 74.072 3
11 -14 19 846.945 327.035 1
-14 -11 19 762.613 240.776 1
19 11 -14 619.886 201.756 3
-14 -12 19 191.409 99.2231 1
12 -14 19 270.342 69.6794 1
19 12 -14 218.077 131.918 3
19 13 -14 598.34 220.896 3
-14 -13 19 284.619 221.032 1
13 -14 19 319.423 118.766 1
13 14 -19 498.225 162.038 3
14 14 -19 119.88 134.028 3
-14 -14 19 296.275 196.715 1
-19 -14 14 337.179 308.732 1
19 14 -14 68.2087 108.036 3
15 14 -19 74.3295 100.469 3
19 15 -14 43.1129 126.212 3
-13 -15 19 284.132 189.828 1
19 15 -13 259.42 104.196 3
-12 -15 19 653.898 327.851 1
15 12 -19 398.485 166.481 3
19 15 -12 434.829 163.942 3
15 11 -19 166.115 74.2074 3
19 15 -11 87.5208 204.544 3
10 -15 -19 500.945 124.043 2
-10 -15 19 785.921 280.86 1
15 10 -19 494.627 187.642 3
19 15 -10 585.694 243.266 3
10 -19 15 419.119 186.602 1
9 -19 15 -172.625 211.62 1
19 15 -9 122.096 110.539 3
9 -15 -19 102.43 141.614 2
-9 -15 19 31.1871 112.383 1
8 -19 15 748.878 268.211 1
8 -15 -19 697.177 194.684 2
-8 -15 19 804.203 243.631 1
19 15 -8 242.549 210.533 3
-7 -15 19 597.611 246.663 1
7 -15 -19 397.449 134.658 2
7 -19 15 636.316 272.692 1
-6 -15 19 331.059 262.618 1
6 -15 -19 282.531 178.97 2
6 -19 15 183.337 169.247 1
5 -15 -19 194.614 96.1875 2
-5 -15 19 330.972 235.245 1
5 -19 15 434.156 312.072 1
4 -15 -19 927.643 225.057 2
-4 -15 19 785.288 246.793 1
4 -19 15 668.874 254.237 1
19 -3 -15 375.963 186.652 3
3 -19 15 682.198 224.575 1
-3 -15 19 513.275 289.825 1
3 -15 -19 617.29 174.436 2
2 -15 -19 589.536 155.426 2
19 -2 -15 472.571 157.146 3
-2 -15 19 759.998 318.901 1
2 -19 15 363.216 217.48 1
1 -15 -19 116.546 97.4575 2
19 -1 -15 -268.204 157.208 3
1 -19 15 -11.2734 153.671 1
-1 -15 19 368.191 297.233 1
19 15 0 -0.83295 56.0471 3
19 0 -15 19.434 64.5238 3
0 -19 15 93.35 122.446 1
0 -15 19 111.231 79.649 1
1 -15 19 211.48 208.943 1
-1 -19 15 60.2992 180.326 1
19 1 -15 154.981 105.711 3
19 15 1 72.284 132.95 3
-2 -19 15 582.55 269.95 1
19 2 -15 486.403 169.906 3
2 -15 19 821.103 303.792 1
19 15 2 705.93 187.902 3
-3 -19 15 790.275 293.786 1
19 3 -15 653.029 195.828 3
19 15 3 380.72 197.567 3
3 -15 19 610.356 229.393 1
19 4 -15 831.438 214.889 3
4 -15 19 992.719 321.469 1
-4 -19 15 642.003 252.123 1
19 15 4 344.179 201.094 3
19 15 5 95.2589 83.2784 3
19 5 -15 108.911 90.3927 3
-5 -19 15 -140.801 135.53 1
6 -15 19 267.035 254.405 1
-6 -19 15 279.618 190.772 1
19 6 -15 264.637 152.348 3
19 7 -15 550.869 173.451 3
7 -15 19 437.501 311.857 1
-7 -19 15 6.47843 118.412 1
19 8 -15 978.581 250.893 3
-8 -19 15 873 349.538 1
8 -15 19 808.919 217.597 1
9 -15 19 55.1604 99.9985 1
19 9 -15 240.159 148.495 3
-9 -19 15 163.927 162.167 1
-15 -10 19 541.245 204.496 1
10 -15 19 412.401 223.09 1
-10 -19 15 392.347 269.223 1
19 10 -15 610.595 190.247 3
-11 -19 15 -73.4719 215.404 1
19 11 -15 -88.1209 95.9074 3
11 -15 19 54.719 86.2316 1
-15 -12 19 275.487 249.343 1
12 -15 19 -85.8303 242.71 1
19 12 -15 732.513 233.73 3
-12 -19 15 240.656 203.079 1
13 -15 19 32.892 95.1648 1
-13 -19 15 725.495 366.596 1
19 13 -15 469.102 128.614 3
-15 -13 19 350.942 221.469 1
-15 -14 19 -6.61047 109.049 1
-14 -19 15 145.991 153.281 1
14 15 -19 40.1163 94.0268 3
19 14 -15 96.8516 78.6061 3
-19 -15 14 -7.34415 113.544 1
-15 -15 19 247.538 170.525 1
-15 -19 15 397.439 297.464 1
19 15 -15 783.347 247.05 3
15 15 -19 462.993 168.672 3
16 15 -19 518.841 215.719 3
19 16 -15 520.9 209.657 3
-14 -16 19 338.356 236.768 1
16 14 -19 463.641 172.373 3
19 16 -14 503.914 224.402 3
-13 -16 19 237.28 257.297 1
16 13 -19 -52.1263 109.003 3
19 16 -13 239.687 172.6 3
-12 -16 19 495.029 251.85 1
16 12 -19 314.422 179.882 3
19 16 -12 -54.0123 127.462 3
19 16 -11 341.947 215.404 3
-11 -16 19 372.925 176.692 1
16 11 -19 364.129 188.526 3
11 -19 16 243.243 161.249 1
19 16 -10 -81.1462 141.996 3
10 -19 16 -269.56 291.528 1
-10 -16 19 276.052 195.335 1
16 10 -19 -18.2574 97.9883 3
19 16 -9 27.7047 143.126 3
9 -16 -19 130.716 142.911 2
-9 -16 19 -190.135 184.713 1
16 9 -19 122.506 125.577 3
9 -19 16 -15.0133 241.164 1
8 -16 -19 1282.69 276.257 2
-8 -16 19 994.798 350.706 1
8 -19 16 1147.04 373.549 1
7 -19 16 37.632 107.409 1
-7 -16 19 157.032 94.2573 1
7 -16 -19 -38.1708 142.793 2
6 -16 -19 527.214 172.453 2
-6 -16 19 539.59 336.348 1
6 -19 16 382.054 242.039 1
-5 -16 19 142.273 177.486 1
5 -16 -19 192.211 75.8645 2
5 -19 16 350.217 286.164 1
4 -19 16 79.3298 106.979 1
4 -16 -19 -48.4104 107.924 2
-4 -16 19 173.315 211.695 1
3 -19 16 519.634 253.045 1
-3 -16 19 968.411 336.839 1
3 -16 -19 556.026 185.819 2
19 -2 -16 398.962 182.656 3
-2 -16 19 255.599 170.086 1
2 -16 -19 435.648 150.539 2
2 -19 16 463.904 309.012 1
-1 -16 19 245.649 155.81 1
19 -1 -16 228.389 118.863 3
1 -16 -19 163.092 73.4492 2
1 -19 16 317.482 282.086 1
0 -16 19 32.1622 158.078 1
0 -19 16 153.573 76.3209 1
0 -16 -19 -8.83049 72.6751 2
19 0 -16 113.626 172.231 3
19 16 1 42.3311 98.2075 3
1 -16 19 -212.656 268.904 1
19 1 -16 23.1371 47.9075 3
-1 -19 16 5.58802 120.058 1
19 2 -16 603.624 195.918 3
2 -16 19 121.93 125.118 1
-2 -19 16 528.355 278.71 1
19 16 2 353.775 204.823 3
-3 -19 16 437.961 172.881 1
19 3 -16 583.681 202.192 3
3 -16 19 887.115 319.043 1
19 16 3 302.259 201.746 3
4 -16 19 96.0753 130.996 1
19 4 -16 355.974 173.757 3
-4 -19 16 418.878 251.954 1
19 16 4 35.5373 73.5442 3
5 -16 19 244.377 158.796 1
-5 -19 16 345.364 244.387 1
19 5 -16 532.003 237.881 3
19 16 5 246.21 119.352 3
-6 -19 16 378.2 190.17 1
6 -16 19 438.68 99.3416 1
19 6 -16 394.334 175.844 3
-7 -19 16 227.87 257.198 1
7 -16 19 294.851 109.233 1
19 7 -16 51.8466 134.97 3
8 -16 19 1116.84 384.755 1
19 8 -16 1142.64 278.6 3
-8 -19 16 703.263 306.392 1
-9 -19 16 -67.7839 211.896 1
9 -16 19 -260.813 263.464 1
19 9 -16 46.7454 77.9056 3
10 -16 19 307.292 239.381 1
19 10 -16 251.112 188.309 3
-10 -19 16 89.0635 100.902 1
-11 -19 16 328.638 284.415 1
11 -16 19 307.646 130.343 1
19 11 -16 393.364 162.52 3
12 -16 19 562.943 272.022 1
19 12 -16 198.843 97.4536 3
-12 -19 16 111.507 226.588 1
-16 -13 19 171.098 266.019 1
19 13 -16 230.288 175.571 3
-13 -19 16 -76.7662 206.651 1
13 -16 19 182.807 102.231 1
-19 -16 14 193.44 75.4893 1
14 16 -19 247.274 76.4938 3
19 14 -16 504.276 207.073 3
-14 -19 16 447.982 258.518 1
19 15 -16 549.892 191.578 3
15 16 -19 552.414 201.555 3
19 16 -16 1714.51 338.827 3
16 16 -19 1213.21 268.786 3
16 19 -17 -207.912 146.952 3
17 16 -19 -65.6854 54.7951 3
19 17 -15 4679.47 554.68 3
17 15 -19 4623.77 526.86 3
17 14 -19 64.428 174.769 3
19 17 -14 377.552 193.904 3
-13 -17 19 47.4639 208.947 1
17 13 -19 145.985 89.0658 3
19 17 -13 163.623 122.515 3
19 17 -12 344.669 134.025 3
-12 -17 19 242.289 235.017 1
17 12 -19 80.5482 107.679 3
19 17 -11 34.8665 111.735 3
-11 -17 19 43.8351 170.518 1
17 11 -19 164.83 90.116 3
11 -19 17 65.0353 101.373 1
17 10 -19 372.559 176.633 3
-10 -17 19 253.627 154.104 1
19 17 -10 357.971 164.768 3
10 -19 17 166.795 156.381 1
-9 -17 19 118.836 216.35 1
9 -19 17 -338.731 182.828 1
17 9 -19 169.018 133.106 3
-8 -17 19 823.73 283.139 1
8 -19 17 622.472 268.519 1
17 8 -19 581.988 158.504 3
7 -19 17 1022.09 385.293 1
-7 -17 19 441.734 277.22 1
-6 -17 19 416.395 224.877 1
6 -19 17 -72.8684 201.04 1
-5 -17 19 790.227 356.753 1
5 -19 17 542.254 272.095 1
-4 -17 19 91.6133 147.168 1
4 -19 17 197.366 131.368 1
3 -19 17 -357.96 272.319 1
-3 -17 19 301.181 144.702 1
-2 -17 19 96.0928 88.9507 1
2 -19 17 -285.739 233.367 1
1 -19 17 469.887 180.987 1
-1 -17 19 402.602 250.359 1
19 -1 -17 524.231 140.583 3
0 -17 19 318.376 270.769 1
0 -19 17 -5.75878 174.317 1
19 0 -17 60.8318 87.5123 3
19 1 -17 342.428 124.557 3
1 -17 19 549.804 206.219 1
19 17 2 62.8659 100.387 3
-2 -19 17 -203.173 209.364 1
19 2 -17 -117.358 100.412 3
2 -17 19 268.303 219.221 1
-3 -19 17 -80.5401 108 1
19 3 -17 38.4994 110.894 3
3 -17 19 163.458 165.796 1
19 17 3 54.6723 93.047 3
-4 -19 17 284.9 222.726 1
19 4 -17 188.286 163.143 3
19 17 4 246.657 154.42 3
4 -17 19 -64.8976 153.691 1
5 -17 19 507.89 225.549 1
19 5 -17 616.763 180.533 3
-5 -19 17 591.025 353.45 1
19 17 5 236.21 162.02 3
19 6 -17 39.01 77.3446 3
-6 -19 17 107.202 95.6479 1
-7 -19 17 674.963 293.919 1
7 -17 19 498.415 292.482 1
19 7 -17 338.776 120.926 3
-8 -19 17 30.5271 201.881 1
8 -17 19 984.524 372.298 1
19 8 -17 883.886 216.783 3
-9 -19 17 98.1714 94.2928 1
19 9 -17 120.311 95.8247 3
9 -17 19 420.586 309.974 1
-10 -19 17 115.096 123.179 1
19 10 -17 610.335 183.155 3
10 -17 19 959.649 347.475 1
-11 -19 17 86.2219 96.9763 1
19 11 -17 288.642 180.768 3
11 -17 19 372.638 275.767 1
-12 -19 17 -46.4976 155.453 1
19 12 -17 118.567 164.857 3
12 -17 19 165.967 86.3022 1
19 13 -17 271.169 143.083 3
-13 -19 17 259.916 208.376 1
19 14 -17 179.773 146.27 3
14 17 -19 219.597 115.298 3
19 15 -17 5094.55 555.724 3
15 17 -19 4588.01 515.928 3
17 19 -16 87.7617 115.092 3
19 16 -17 -124.619 176.951 3
16 17 -19 212.424 150.564 3
17 19 -17 9.10869 87.3759 3
19 17 -17 -122.903 124.498 3
17 17 -19 1.21497 73.8605 3
19 18 -17 212.18 140.396 3
18 17 -19 248.88 139.843 3
17 19 -18 272.294 102.9 3
18 16 -19 449.109 192.238 3
19 18 -16 729.373 253.295 3
16 19 -18 842.312 295.302 3
18 15 -19 622.554 238.008 3
19 18 -15 387.423 141.547 3
18 14 -19 543.204 179.579 3
19 18 -14 746.252 226.192 3
18 13 -19 317.758 128.234 3
19 18 -13 447.069 162.569 3
18 12 -19 242.833 145.472 3
19 18 -12 150.193 78.3784 3
18 11 -19 -0.29489 109.397 3
19 18 -11 33.4306 107.937 3
10 -19 18 -62.875 264.164 1
-10 -18 19 103.533 222.715 1
18 10 -19 -177.515 158.868 3
-9 -18 19 568.001 304.495 1
9 -19 18 229.296 152.016 1
18 9 -19 262.877 69.5315 3
18 8 -19 224.888 89.1768 3
8 -19 18 -237.721 271.998 1
-7 -18 19 637.09 370.734 1
7 -19 18 326.534 117.525 1
18 7 -19 746.881 197.21 3
-6 -18 19 1442.97 464.141 1
18 6 -19 1154.2 264.313 3
6 -19 18 887.016 310.185 1
18 19 5 203.685 180.33 3
5 -19 18 -196.444 300.967 1
-4 -18 19 27.5261 169.743 1
4 -19 18 -84.2932 154.827 1
3 -19 18 851.997 333.445 1
-3 -18 19 1319.2 365.741 1
-2 -18 19 895.581 312.807 1
2 -19 18 664.223 249.705 1
1 -19 18 255.041 121.158 1
-1 -18 19 -346.11 214.764 1
0 -18 19 523.426 360.51 1
0 -19 18 648.456 229.863 1
-1 -19 18 208.734 321.672 1
1 -18 19 -262.228 186.282 1
19 18 2 319.211 192.175 3
19 2 -18 744.635 224.468 3
-2 -19 18 415.333 215.882 1
2 -18 19 586.798 332.277 1
-3 -19 18 1074.35 362.547 1
19 3 -18 924.544 217.575 3
3 -18 19 850.977 313.053 1
19 18 3 652.003 236.293 3
4 -18 19 374.778 208.677 1
19 4 -18 239.796 176.985 3
-4 -19 18 92.989 94.0385 1
19 18 4 31.8172 137.201 3
19 5 -18 426.318 160.165 3
-5 -19 18 265.788 129.635 1
19 18 5 212.93 111.583 3
6 -18 19 899.526 283.896 1
19 6 -18 995.779 222.532 3
-7 -19 18 363.359 117.764 1
7 -18 19 692.928 337.777 1
19 7 -18 600.526 229.737 3
19 8 -18 583.962 196.444 3
8 -18 19 284.918 159.475 1
-8 -19 18 704.627 253.519 1
-9 -19 18 302.669 197.683 1
9 -18 19 -43.5615 88.7445 1
19 9 -18 290.83 112.081 3
-10 -19 18 -115.973 266.035 1
10 -18 19 447.387 200.221 1
19 10 -18 -11.5545 105.603 3
-11 -19 18 -285.65 136.789 1
11 -18 19 82.2333 89.2291 1
19 11 -18 -43.761 134.316 3
19 12 -18 791.487 279.344 3
19 13 -18 336.887 147.674 3
19 14 -18 1061.24 270.536 3
18 19 -14 779.869 218.438 3
19 15 -18 404.011 170.572 3
15 18 -19 384.075 145.893 3
18 19 -15 451.15 153.594 3
19 16 -18 536.322 259.21 3
16 18 -19 432.443 173.955 3
18 19 -16 431.666 212.567 3
17 18 -19 198.688 119.836 3
19 17 -18 217.261 120.73 3
18 19 -17 350.836 185.951 3
19 18 -18 124.915 84.5723 3
18 18 -19 17.9563 82.1214 3
18 19 -18 69.7095 94.4181 3
0 -19 19 826.562 287.944 1
1 -19 19 -127.584 67.0461 1
-1 -19 19 -273.997 204.104 1
-2 -19 19 3938.71 689.443 1
2 -19 19 2859.56 589.091 1
19 19 3 449.83 203.88 3
-3 -19 19 483.242 208.784 1
3 -19 19 425.561 291.88 1
4 -19 19 931.868 323.532 1
19 4 -19 772.195 226.305 3
-4 -19 19 8.30848 205.179 1
19 19 4 663.515 190.835 3
5 -19 19 746.095 322.798 1
19 5 -19 522.216 158.486 3
-5 -19 19 544.105 279.571 1
19 19 5 323.036 190.706 3
6 -19 19 803.901 252.941 1
-6 -19 19 826.474 249.598 1
19 6 -19 1070.56 248.278 3
7 -19 19 265.495 173.433 1
19 7 -19 685.37 205.402 3
-7 -19 19 525.904 370.566 1
8 -19 19 148.004 140.389 1
19 8 -19 771.147 235.514 3
19 9 -19 2000.21 340.81 3
-9 -19 19 1574.8 440.843 1
9 -19 19 1093.27 343.046 1
10 -19 19 -191.93 313.219 1
19 10 -19 120.473 91.5986 3
19 19 -11 95.8359 119.761 3
19 11 -19 43.7199 85.1339 3
19 12 -19 23.5721 61.3011 3
19 19 -12 42.7342 82.5058 3
19 13 -19 653 236.843 3
19 19 -13 536.797 223.159 3
19 14 -19 9.76285 65.3931 3
19 19 -14 289.398 182.094 3
19 19 -15 250.909 75.2495 3
15 19 -19 91.2887 106.299 3
19 19 -16 213.18 144.1 3
16 19 -19 539.635 200.297 3
19 16 -19 451.57 172.698 3
19 19 -17 6564.11 639.938 3
19 17 -19 5442.25 552.358 3
17 19 -19 5723.03 565.108 3
19 19 -18 51.2549 106.274 3
18 19 -19 343.243 146.225 3
19 18 -19 180.222 162.533 3
19 19 -19 174.114 121.686 3
0 0 20 3581.66 566.088 1
1 0 20 -8.29028 92.7229 1
0 1 20 86.7347 113.174 1
0 -1 20 -100.328 57.4823 1
1 -1 20 878.738 290.302 1
-1 1 20 870.951 274.704 1
-1 -1 20 1324.49 379.524 1
-2 1 20 1526.01 348.846 1
-1 -2 20 1412.31 344.165 1
2 -1 20 1513.46 347.349 1
-2 0 20 449.126 177.354 1
2 0 20 381.75 191.635 1
0 -2 20 77.6411 105.759 1
-2 -1 20 1515.7 358.391 1
1 -2 20 1683.61 375.528 1
2 -2 20 4037.93 601.835 1
-2 -2 20 3333.48 517.145 1
-3 2 20 1102.96 293.508 1
-2 -3 20 576.638 237.886 1
3 -2 20 888.759 274.891 1
-3 1 20 217.119 144.532 1
3 -1 20 333.072 206.256 1
-1 -3 20 630.502 279.245 1
3 0 20 2532.69 481.071 1
0 -3 20 2415.67 465.041 1
-3 0 20 2512.75 430.714 1
1 -3 20 254.571 100.826 1
-3 -1 20 559.035 212.05 1
2 -3 20 814.015 333.254 1
-3 -2 20 825.007 266.377 1
-3 -3 20 3088.09 511.823 1
3 -3 20 3601.67 560.464 1
-3 -4 20 1208.28 335.18 1
4 -3 20 1039.98 266.782 1
-2 -4 20 563.853 265.329 1
-4 2 20 410.102 186.542 1
4 -2 20 341.841 201.742 1
-1 -4 20 500.954 150.311 1
-4 1 20 473.177 164.015 1
4 -1 20 376.097 209.266 1
-4 0 20 907.529 268.691 1
0 -4 20 1039 283.533 1
-4 -1 20 573.492 189.676 1
1 -4 20 572.948 280.536 1
2 -4 20 589.018 220.492 1
-4 -2 20 402.234 178.606 1
-4 -3 20 880.792 259.483 1
3 -4 20 953.676 370.519 1
-4 -4 20 35.0822 63.5913 1
4 -4 20 144.184 137.387 1
5 -4 20 1226.54 380.07 1
4 -20 5 928.145 282.901 1
-4 -5 20 1214.74 330.157 1
-3 -5 20 947.31 295.495 1
5 -3 20 1257.78 374.16 1
5 -2 20 2837.22 528.291 1
-5 2 20 2485.04 437.122 1
-2 -5 20 2521.81 496.73 1
-5 1 20 2262.54 449.03 1
-1 -5 20 1812.62 429.424 1
0 -5 20 1641.89 404.331 1
-5 0 20 1858.73 379.925 1
-5 -1 20 2146.56 372.839 1
1 -5 20 2345.93 490.768 1
-5 -2 20 2787.33 479.432 1
2 -5 20 2801.59 519.318 1
3 -5 20 631.574 235.9 1
-5 -3 20 698.669 254.541 1
4 -5 20 1124.42 304.152 1
-5 -4 20 1338.46 371.224 1
5 -20 4 1330.95 323.203 1
-5 -5 20 2462.56 466.409 1
5 -5 20 1885.63 436.13 1
5 -20 5 2264.85 419.335 1
5 -20 6 366.609 214.88 1
6 -5 20 211.324 189.321 1
-5 -6 20 541.926 246.029 1
6 -4 20 965.805 324.092 1
-4 -6 20 1009.34 302.683 1
4 -20 6 642.632 223.877 1
-3 -6 20 695.448 254.135 1
6 -3 20 469.07 155.627 1
6 -2 20 394.4 207.838 1
-2 -6 20 314.899 222.457 1
-6 2 20 487.529 166.278 1
-6 1 20 916.646 277.779 1
-1 -6 20 1102.93 305.08 1
0 -6 20 904.633 294.157 1
-6 0 20 360.039 193.118 1
-6 -1 20 1115.2 295.516 1
1 -6 20 917.179 329.967 1
2 -6 20 391.56 204.473 1
-6 -2 20 464.934 241.69 1
6 -20 2 401.904 197.673 1
3 -6 20 807.175 301.466 1
-6 -3 20 663.61 205.001 1
6 -20 3 497.286 227.908 1
4 -6 20 652.786 244.486 1
-6 -4 20 408.579 294.744 1
6 -20 4 630.517 217.883 1
6 -20 5 433.166 163.907 1
5 -6 20 449.838 248.261 1
-6 -5 20 428.859 160.44 1
6 -20 6 -54.5475 103.409 1
-6 -6 20 64.4901 158.267 1
6 -6 20 134.611 175.651 1
7 -6 20 683.804 237.637 1
6 -20 7 916.277 284.517 1
-6 -7 20 400.144 193.392 1
5 -20 7 715.772 279.017 1
-5 -7 20 424.984 202.181 1
7 -5 20 507.647 165.197 1
7 -4 20 359.188 196.668 1
4 -20 7 215.181 174.605 1
-4 -7 20 185.666 173.927 1
3 -20 7 2580.02 473.159 1
7 -3 20 2502.61 487.909 1
-3 -7 20 2963.45 518.65 1
-2 -7 20 1048.7 305.516 1
-7 2 20 974.6 293.51 1
-7 1 20 3470.65 516.561 1
-1 -7 20 3234.12 535.496 1
0 -7 20 943.351 189.775 1
-7 0 20 885.542 247.805 1
1 -7 20 2436.14 453.732 1
-7 -1 20 2549.97 429.329 1
2 -7 20 685.642 264.738 1
-7 -2 20 561.124 182.458 1
3 -7 20 3258.08 553.688 1
-7 -3 20 3000.31 510.878 1
-7 -4 20 -125.021 171.721 1
4 -7 20 83.3027 183.84 1
-7 -5 20 539.975 237.031 1
5 -7 20 541.951 246.749 1
7 -20 5 325.367 156.884 1
7 -20 6 727.71 227.594 1
6 -7 20 552.647 284.702 1
-7 -6 20 441.074 171.744 1
7 -20 7 56.6741 116.613 1
-7 -7 20 120.67 134.309 1
7 -7 20 202.717 185.361 1
7 -20 8 -62.5248 115.707 1
8 -7 20 267.391 207.268 1
-7 -8 20 137.327 146.621 1
20 8 -7 3.99236 81.6013 3
8 -6 20 -82.2282 65.9169 1
6 -20 8 -141.437 169.318 1
-6 -8 20 175.431 172.159 1
5 -20 8 37.6463 112.824 1
8 -5 20 344.089 208.127 1
-5 -8 20 384.728 207.978 1
8 -4 20 1324.56 401.355 1
4 -20 8 1399.56 364.741 1
-4 -8 20 1099.51 335.495 1
-3 -8 20 1802.62 452.393 1
3 -20 8 1727.88 360.583 1
-2 -8 20 797.728 315.271 1
2 -20 8 606.252 275.172 1
-1 -8 20 1310.77 370.773 1
-8 1 20 1304.76 323.239 1
0 -8 20 1997.47 433.671 1
-8 0 20 2288.48 422.172 1
1 -8 20 1325.98 342.388 1
-8 -1 20 1387.07 323.23 1
2 -8 20 542.054 260.742 1
-8 -2 20 498.09 156.995 1
-8 -3 20 2193.45 439.856 1
3 -8 20 2438.84 489.9 1
4 -8 20 1460.87 372.265 1
-8 -4 20 1727.58 371.957 1
-8 -5 20 166.19 172.528 1
5 -8 20 353.004 262.159 1
6 -8 20 8.83806 112.857 1
-8 -6 20 -105.396 137.819 1
8 -7 -20 67.4869 91.957 2
7 -8 20 -211.586 177.669 1
8 -20 7 -13.1827 81.8562 1
20 7 -8 -19.6558 116.434 3
-8 -7 20 -220.484 210.498 1
8 -8 -20 -23.0336 90.478 2
8 -20 8 283.215 182.049 1
8 -8 20 -44.3781 179.216 1
20 8 -8 16.2971 67.5207 3
-8 -8 20 201.564 134.037 1
8 -20 9 239.795 161.525 1
9 -8 20 436.78 194.567 1
8 -9 -20 27.5698 102.326 2
-8 -9 20 538.861 270.697 1
20 9 -8 132.25 138.33 3
9 -7 20 375.211 253.363 1
-7 -9 20 93.9186 61.6589 1
7 -20 9 245.28 102.579 1
7 -9 -20 346.416 150.712 2
20 9 -7 333.162 216.467 3
6 -20 9 937.184 310.131 1
9 -6 20 813.43 243.119 1
-6 -9 20 888.636 295.014 1
20 9 -6 665.349 231.733 3
-5 -9 20 117.978 64.2406 1
5 -20 9 11.8115 77.9742 1
-4 -9 20 188.366 200.442 1
4 -20 9 276.986 201.143 1
-3 -9 20 1243.65 386.51 1
3 -20 9 1236.5 350.698 1
2 -20 9 54.9036 165.144 1
-2 -9 20 413.805 215.713 1
-1 -9 20 2997.75 534.95 1
1 -20 9 2533.77 522.961 1
-9 0 20 290.178 203.787 1
0 -9 20 -14.0002 89.8603 1
1 -9 20 2437.83 537.876 1
-9 -1 20 2390.7 418.641 1
-9 -2 20 265.439 182.873 1
2 -9 20 326.932 197.059 1
-9 -3 20 1453.52 369.144 1
3 -9 20 1695.02 413.761 1
4 -9 20 626.32 244.057 1
-9 -4 20 455.3 185.43 1
-9 -5 20 154.926 103.127 1
5 -9 20 44.0071 137.064 1
6 -9 20 844.857 228.892 1
20 6 -9 694.699 226.935 3
-9 -6 20 717.232 245.02 1
9 -6 -20 833.854 226.045 2
9 -7 -20 327.751 141.109 2
7 -9 20 491.028 220.363 1
20 7 -9 376.649 163.227 3
-9 -7 20 235.075 193.322 1
9 -8 -20 306.895 155.991 2
-9 -8 20 420.803 228.613 1
8 -9 20 417.472 263.977 1
20 8 -9 70.5299 80.1367 3
9 -9 20 1387.83 351.875 1
20 9 -9 1179.42 311.807 3
-9 -9 20 1197.51 294.108 1
9 -9 -20 1420.52 282.405 2
9 -10 -20 558.206 183.233 2
-9 -10 20 920.947 293.101 1
20 10 -9 442.592 165.627 3
9 -20 10 357.234 195.402 1
10 -9 20 731.286 213.083 1
8 -10 -20 298.327 136.81 2
10 -8 20 355.823 89.7614 1
-8 -10 20 220.883 233.477 1
8 -20 10 147.181 150.144 1
20 10 -8 4.8587 87.1181 3
-7 -10 20 605.493 230.258 1
10 -7 20 472.797 263.321 1
7 -20 10 194.701 130.262 1
20 10 -7 58.1048 47.6772 3
7 -10 -20 342.171 143.617 2
6 -10 -20 1121.21 273.364 2
6 -20 10 1265.08 378.215 1
-6 -10 20 1146.94 354.479 1
20 10 -6 1328.54 278.721 3
5 -20 10 214.128 129.476 1
-5 -10 20 -97.3317 168.146 1
5 -10 -20 151.666 83.2511 2
20 10 -5 179.07 124.277 3
4 -20 10 -1.03256 134.314 1
-4 -10 20 -29.9241 168.219 1
20 10 -4 398.23 193.62 3
3 -20 10 -56.8367 159.053 1
-3 -10 20 456.252 253.836 1
2 -20 10 1468.56 382.918 1
-2 -10 20 1341.93 342.912 1
1 -20 10 1984.04 483.234 1
-1 -10 20 1813.53 445.827 1
0 -10 20 -260.732 225.241 1
0 -20 10 -107.162 185.694 1
1 -10 20 1549.75 380.534 1
2 -10 20 1228.52 366.674 1
-10 -2 20 1643.3 363.717 1
10 -3 -20 -74.8117 114.553 2
-10 -3 20 66.5539 68.2332 1
-10 -4 20 -140.251 199.574 1
4 -10 20 -12.7581 120.146 1
10 -4 -20 186.715 109.624 2
-10 -5 20 485.832 215.424 1
10 -5 -20 264.75 125.447 2
20 5 -10 228.976 108.45 3
5 -10 20 509.059 292.69 1
10 -6 -20 857.225 240.842 2
-10 -6 20 955.73 284.457 1
20 6 -10 685.726 247.646 3
6 -10 20 1223.21 332.129 1
7 -10 20 475.674 218.844 1
10 -7 -20 590.975 214.405 2
20 7 -10 369.093 185.151 3
-10 -7 20 217.832 219.17 1
10 -8 -20 442.84 193.101 2
20 8 -10 104.796 48.0305 3
8 -10 20 596.765 277.842 1
-10 -8 20 399.589 245.976 1
9 -10 20 287.226 123.967 1
10 -9 -20 556.48 157.943 2
-10 -9 20 322.824 149.151 1
10 -10 -20 -62.8741 109.162 2
20 10 -10 -14.4392 88.7167 3
-10 -10 20 19.1893 100.036 1
10 -10 20 -162.701 157.758 1
10 -11 -20 311.239 128.337 2
20 11 -10 337.286 148.242 3
-10 -11 20 171.679 127.679 1
9 -11 -20 368.735 110.267 2
-9 -11 20 147.621 85.7812 1
20 11 -9 331.902 156.593 3
11 -9 20 407.944 241.878 1
9 -20 11 414.863 240.923 1
8 -20 11 1460.68 334.11 1
8 -11 -20 1345.1 263.414 2
20 11 -8 1343.16 293.851 3
-8 -11 20 1050.81 371.742 1
7 -11 -20 1644.76 299.254 2
-7 -11 20 1925.67 445.462 1
7 -20 11 1936.4 405.054 1
20 11 -7 1993.52 355.151 3
6 -20 11 493.557 247.723 1
-6 -11 20 768.337 355.269 1
6 -11 -20 893.796 240.691 2
20 11 -6 316.841 233.288 3
5 -11 -20 349.001 155.304 2
5 -20 11 216.183 218.659 1
-5 -11 20 117.521 92.9221 1
20 11 -5 18.7404 87.1203 3
11 4 -20 240.894 166.236 2
20 -4 -11 138.509 140.209 3
4 -20 11 369.616 206.947 1
20 11 -4 208.355 192.354 3
-4 -11 20 108.852 68.6671 1
4 -11 -20 141.344 51.3194 2
11 3 -20 -10.1655 39.3631 2
20 -3 -11 -17.9772 149.154 3
-3 -11 20 -49.4868 106.643 1
3 -20 11 -6.45484 87.736 1
3 -11 -20 30.2257 67.8874 2
20 11 -3 45.5339 68.9457 3
11 2 -20 126.366 79.8409 2
2 -20 11 221.282 206.729 1
20 11 -2 108.687 52.0287 3
-2 -11 20 266.509 159.224 1
1 -20 11 1778.56 471.893 1
11 1 -20 1053.48 247.419 2
-1 -11 20 1316.03 331.617 1
11 0 -20 176.564 130.118 2
0 -20 11 289.088 214.369 1
0 -11 20 300.362 203.754 1
11 -1 -20 1489.34 264.653 2
-1 -20 11 1783.73 406.813 1
1 -11 20 1797.98 461.325 1
11 -2 -20 133.621 101.869 2
2 -11 20 107.719 150.989 1
20 2 -11 72.5971 93.9913 3
-2 -20 11 396.38 290.604 1
-11 -3 20 147.726 156.459 1
11 -3 -20 115.231 80.7376 2
3 -11 20 -1.12094 69.7152 1
20 3 -11 95.6151 100.076 3
11 -4 -20 348.581 172.922 2
-11 -4 20 467.895 210.539 1
20 4 -11 340.114 142.363 3
4 -11 20 451.896 215.967 1
-11 -5 20 428.578 196.267 1
11 -5 -20 -4.26259 108.404 2
5 -11 20 297.605 123.751 1
20 5 -11 29.4182 81.3666 3
11 -6 -20 434.11 178.499 2
6 -11 20 420.556 186.178 1
20 6 -11 400.545 142.74 3
-11 -6 20 306.179 150.986 1
7 -11 20 1917.1 475.912 1
11 -7 -20 1964.37 338.734 2
-11 -7 20 1734.88 401.609 1
20 7 -11 1716.66 313.689 3
11 -8 -20 1200.96 275.54 2
8 -11 20 1151.98 323.313 1
-11 -8 20 1267.59 322.993 1
20 8 -11 1024.8 264.908 3
11 -9 -20 754.347 238.905 2
9 -11 20 651.343 373.062 1
-11 -9 20 601.642 251.134 1
20 9 -11 518.074 163.815 3
-11 -10 20 808.644 242.411 1
11 -10 -20 525.218 195.536 2
10 -11 20 420.031 236.579 1
20 10 -11 176.407 115.281 3
11 -11 -20 621.538 166.472 2
-11 -11 20 773.559 266.487 1
20 11 -11 890.307 229.275 3
11 -11 20 870.279 261.059 1
11 -12 -20 270.659 139.107 2
12 -11 20 354.188 222.922 1
-11 -12 20 239.432 72.2495 1
20 12 -11 233.657 91.288 3
10 -12 -20 267.473 111.514 2
-10 -12 20 189.205 186.098 1
20 12 -10 304.652 116.3 3
9 -20 12 677.878 252.617 1
-9 -12 20 1329.85 378.806 1
9 -12 -20 636.452 210.501 2
20 12 -9 822.627 265.057 3
8 -12 -20 626.796 247.219 2
-8 -12 20 340.342 210.18 1
8 -20 12 369.146 186.569 1
20 12 -8 384.117 193.85 3
7 -12 -20 -14.7003 79.9935 2
-7 -12 20 11.1089 113.879 1
7 -20 12 84.4046 156.188 1
20 12 -7 -7.18672 107.226 3
-6 -12 20 -5.79397 156.841 1
6 -20 12 56.7571 140.35 1
6 -12 -20 54.5374 126.608 2
20 12 -6 7.04824 96.3672 3
5 -20 12 644.67 288.629 1
5 -12 -20 790.038 217.93 2
-5 -12 20 334.151 205.223 1
20 12 -5 543.71 235.419 3
4 -20 12 881.833 335.974 1
4 -12 -20 812.288 223.268 2
-4 -12 20 706.539 274.761 1
20 12 -4 504.919 183.019 3
3 -20 12 1259.04 368.975 1
3 -12 -20 1275.6 272.283 2
-3 -12 20 1658.75 454.373 1
20 12 -3 1135.62 293.517 3
20 -3 -12 1297.96 249.972 3
20 -2 -12 115.927 84.6802 3
20 12 -2 -0.55869 46.8055 3
-2 -12 20 -103.051 177.494 1
2 -20 12 -166.446 190.616 1
12 2 -20 -18.808 100.411 2
2 -12 -20 160.777 144.063 2
12 1 -20 686.792 229.07 2
20 -1 -12 1199.59 269.195 3
1 -20 12 1381.93 381.258 1
-1 -12 20 1039.42 345.123 1
20 12 -1 745.825 242.463 3
20 0 -12 692.664 173.193 3
0 -12 20 387.392 167.368 1
0 -20 12 942.648 381.91 1
20 12 0 656.658 214 3
12 0 -20 586.675 190.904 2
12 -1 -20 652.343 201.339 2
20 12 1 248.682 170.311 3
20 1 -12 1002.36 260.164 3
1 -12 20 1190.93 375.628 1
-1 -20 12 812.582 308.791 1
12 -2 -20 12.0749 94.6962 2
2 -12 20 -138.708 199.092 1
20 2 -12 77.7318 61.0322 3
20 12 2 -2.49377 89.0915 3
-2 -20 12 27.1855 122.832 1
12 -3 -20 1034.27 237.079 2
3 -12 20 1633.84 437.768 1
20 3 -12 1237.27 283.875 3
-3 -20 12 1676.57 428.995 1
20 12 3 762.297 233.522 3
12 -4 -20 771.319 201.155 2
20 4 -12 777.45 157.224 3
-4 -20 12 861.576 274.524 1
4 -12 20 900.883 297.047 1
12 -5 -20 559.968 189.6 2
5 -12 20 615.638 230.976 1
20 5 -12 690.488 198.396 3
-12 -5 20 602.104 227.015 1
20 6 -12 178.07 49.3118 3
-12 -6 20 273.109 199.571 1
12 -6 -20 191.297 116.61 2
6 -12 20 249.372 267.462 1
12 -7 -20 65.6924 112.016 2
7 -12 20 -273.098 175.317 1
20 7 -12 -29.9871 65.9702 3
-12 -7 20 239.316 210.913 1
12 -8 -20 537.782 198.666 2
-12 -8 20 744.184 309.583 1
20 8 -12 574.411 209.944 3
8 -12 20 424.073 250.222 1
-12 -9 20 403.065 178.119 1
9 -12 20 612.095 299.95 1
12 -9 -20 852.694 227.001 2
12 -10 -20 151.927 84.5504 2
-12 -10 20 327.238 254.401 1
20 10 -12 -42.3858 70.4117 3
10 -12 20 232.261 251.541 1
12 -11 -20 328.582 153.36 2
-12 -11 20 301.607 111.052 1
11 -12 20 -19.5409 105.957 1
20 11 -12 308.53 145.816 3
-12 -12 20 -85.0175 146.125 1
12 -12 20 -283.525 232.953 1
20 12 -12 24.3174 70.613 3
-12 -13 20 116.466 74.9779 1
20 13 -12 442.982 225.332 3
11 -13 -20 436.738 155.027 2
20 13 -11 273.904 175.039 3
-11 -13 20 27.7052 166.314 1
10 -13 -20 554.243 163.305 2
-10 -13 20 931.662 292.487 1
20 13 -10 601.923 216.513 3
-9 -13 20 2589.87 543.754 1
9 -20 13 1786.59 422.722 1
9 -13 -20 2259.39 343.512 2
20 13 -9 2783.73 446.377 3
8 -13 -20 456.182 166.523 2
-8 -13 20 289.045 245.824 1
20 13 -8 518.154 210.892 3
8 -20 13 316.275 191.263 1
-7 -13 20 258.948 82.0321 1
7 -13 -20 219.259 124.965 2
7 -20 13 276.468 213.761 1
20 13 -7 61.0732 94.9491 3
6 -13 -20 523.451 176.032 2
-6 -13 20 442.417 273.069 1
6 -20 13 402.109 167.761 1
5 -20 13 670.414 84.4453 1
5 -13 -20 544.141 162.526 2
-5 -13 20 811.454 232.22 1
20 13 -5 944.779 266.331 3
-4 -13 20 101.079 169.106 1
4 -20 13 189.109 93.3629 1
4 -13 -20 88.3329 65.4839 2
20 13 -4 89.9213 80.306 3
3 -20 13 924.449 282.951 1
20 -3 -13 800.912 186.11 3
3 -13 -20 1057.5 212.146 2
-3 -13 20 1088.46 319.165 1
20 13 -3 1032.85 261.449 3
20 -2 -13 234.136 129.15 3
2 -20 13 458.188 167.485 1
2 -13 -20 339.921 142.201 2
-2 -13 20 292.415 123.177 1
20 13 -2 71.9224 117.818 3
20 -1 -13 419.669 165.166 3
1 -20 13 298.422 265.064 1
-1 -13 20 466.004 300.771 1
20 13 -1 251.683 137.327 3
0 -20 13 179.499 63.4263 1
20 0 -13 115.453 137.762 3
0 -13 20 367.62 224.67 1
20 13 0 32.0301 96.9643 3
-1 -20 13 302.897 165.73 1
1 -13 20 91.6363 170.313 1
20 1 -13 176.551 94.0775 3
20 13 1 147.375 131.01 3
-2 -20 13 580.835 294.892 1
13 -2 -20 531.049 209.34 2
2 -13 20 208.597 121.788 1
20 2 -13 307.586 131.262 3
20 13 2 47.0432 103.26 3
13 -3 -20 692.388 215.321 2
3 -13 20 1095.7 356.372 1
20 3 -13 1012.67 248.212 3
20 13 3 371.348 166.76 3
-3 -20 13 842.271 316.496 1
13 -4 -20 392.973 194.145 2
-4 -20 13 174.718 109.304 1
4 -13 20 246.342 218.883 1
20 4 -13 257.788 67.0405 3
20 13 4 108.888 112.269 3
5 -13 20 861.889 297.664 1
20 5 -13 1356.93 284.327 3
20 13 5 513.385 190.451 3
13 -5 -20 1076.3 267.983 2
-5 -20 13 1042.68 351.28 1
13 -6 -20 426.397 173.263 2
6 -13 20 373.907 228.17 1
20 6 -13 541.337 190.774 3
-6 -20 13 219.232 229.646 1
20 7 -13 399.39 198.087 3
-13 -7 20 180.988 94.2576 1
7 -13 20 539.88 296.679 1
8 -13 20 758.195 348.466 1
20 8 -13 458.291 155.463 3
-13 -8 20 597.782 255.553 1
20 9 -13 3179.02 427.054 3
-13 -9 20 1940.55 447.88 1
9 -13 20 1815.7 437.521 1
-13 -10 20 302.842 168.33 1
20 10 -13 1008.05 273.241 3
10 -13 20 1159.13 397.114 1
-13 -11 20 62.2 58.3277 1
11 -13 20 30.5237 99.3846 1
20 11 -13 286.583 121.471 3
-13 -12 20 355.603 221.973 1
12 -13 20 -24.8503 163.042 1
20 12 -13 510.483 241.048 3
-13 -13 20 305.431 163.159 1
20 13 -13 419.908 185.096 3
14 13 -20 141.786 59.0864 3
-13 -14 20 326.308 199.397 1
20 14 -13 499.701 182.963 3
-12 -14 20 11.1455 103.098 1
20 14 -12 289.487 188.115 3
-11 -14 20 492.023 260.048 1
20 14 -11 697.173 255.806 3
10 -14 -20 135.61 145.261 2
-10 -14 20 -181.219 212.054 1
20 14 -10 -127.206 155.622 3
9 -14 -20 38.006 66.0332 2
-9 -14 20 -64.2754 179.499 1
9 -20 14 -92.0425 134.209 1
20 14 -9 -166.593 114.205 3
8 -20 14 33.2635 64.6975 1
8 -14 -20 268.971 132.184 2
20 14 -8 290.512 137.203 3
-8 -14 20 190.751 177.388 1
-7 -14 20 856.66 281.646 1
7 -20 14 1197.07 328.087 1
20 14 -7 704.098 310.381 3
7 -14 -20 907.865 194.731 2
6 -20 14 348.795 262.272 1
6 -14 -20 353.274 177.402 2
-6 -14 20 151.984 212.793 1
20 14 -6 114.938 112.601 3
5 -14 -20 103.245 75.5345 2
5 -20 14 102.344 158.207 1
-5 -14 20 127.419 142.818 1
20 14 -5 62.3211 122.602 3
4 -14 -20 645.358 169.851 2
4 -20 14 599.329 262.057 1
-4 -14 20 151.103 115.425 1
20 14 -4 388.144 173.923 3
3 -14 -20 301.516 183.021 2
20 -3 -14 12.6305 105.833 3
3 -20 14 97.0156 226.777 1
20 14 -3 26.7904 70.1001 3
-3 -14 20 -15.8268 193.199 1
2 -20 14 22.6429 202.783 1
20 -2 -14 356.769 181.63 3
2 -14 -20 -130.972 103.98 2
-2 -14 20 9.0815 85.2535 1
20 14 -2 1.4685 54.8954 3
1 -20 14 480.523 233.885 1
20 -1 -14 420.197 171.859 3
-1 -14 20 618.867 263.454 1
1 -14 -20 636.53 189.671 2
20 14 -1 632.445 193.381 3
0 -20 14 122.331 78.1283 1
0 -14 20 47.0748 191.962 1
20 0 -14 167.448 126.537 3
20 14 0 62.8864 118.746 3
-1 -20 14 499.138 137.761 1
20 1 -14 522.75 166.193 3
20 14 1 393.075 188.624 3
1 -14 20 578.624 181.182 1
2 -14 20 183.999 141.362 1
-2 -20 14 -34.7169 166.738 1
20 2 -14 275.831 124.943 3
20 14 2 228.105 155.518 3
-3 -20 14 223.445 212.982 1
20 3 -14 -86.4196 102.693 3
3 -14 20 114.456 104.429 1
20 14 3 49.4105 54.6255 3
20 4 -14 449.238 168.987 3
4 -14 20 760.542 310.132 1
20 14 4 330.332 181.524 3
-4 -20 14 555.72 300.893 1
5 -14 20 133.774 177.358 1
-5 -20 14 147.677 151.132 1
20 5 -14 136.851 92.3206 3
20 14 5 14.8499 94.2708 3
6 -14 20 47.0878 76.0416 1
20 6 -14 261.682 89.8752 3
-6 -20 14 322.162 149.664 1
7 -14 20 1346.64 418.627 1
20 7 -14 1320.72 295.382 3
-7 -20 14 901.356 313.829 1
8 -14 20 297.04 127.369 1
20 8 -14 409.968 170.928 3
-14 -9 20 235.54 206.297 1
20 9 -14 -207.255 122.921 3
-9 -20 14 125.255 132.23 1
10 -14 20 86.4799 104.903 1
-10 -20 14 246.981 174.419 1
20 10 -14 145.801 130.091 3
-14 -10 20 -125.553 127.914 1
11 -14 20 336.649 88.246 1
-14 -11 20 572.277 295.618 1
-11 -20 14 661.753 270.849 1
20 11 -14 804.395 231.127 3
12 -14 20 -54.4418 190.141 1
20 12 -14 147.528 125.103 3
-14 -12 20 111.339 125.442 1
-14 -13 20 130.472 107 1
20 13 -14 214.272 122.246 3
13 14 -20 309.709 85.2209 3
-14 -14 20 562.788 263.74 1
14 14 -20 981.833 224.765 3
20 14 -14 687.825 219.525 3
15 14 -20 819.626 218.269 3
20 15 -14 558.163 233.654 3
-13 -15 20 506.478 243.031 1
15 13 -20 335.069 117.534 3
20 15 -13 861.583 256.122 3
-12 -15 20 107.999 131.349 1
15 12 -20 378.078 154.705 3
20 15 -12 479.33 211.278 3
20 15 -11 552.963 237.339 3
-11 -15 20 26.7562 191.12 1
10 -20 15 4.96234 108.059 1
10 -15 -20 152.588 122.733 2
20 15 -10 145.637 61.8656 3
9 -15 -20 267.107 147.96 2
9 -20 15 427.056 249.185 1
-9 -15 20 -50.5289 171.07 1
20 15 -9 393.49 218.314 3
8 -20 15 75.0853 198.283 1
8 -15 -20 149.447 131.302 2
20 15 -8 209.904 140.394 3
7 -15 -20 1254.98 250.005 2
-7 -15 20 1138.09 399.286 1
20 15 -7 932.324 326.428 3
7 -20 15 1184.75 387.717 1
6 -15 -20 310.794 147.782 2
-6 -15 20 539.248 292.846 1
20 15 -6 10.1657 82.1197 3
6 -20 15 431.791 258.784 1
-5 -15 20 -52.1166 86.8637 1
20 15 -5 -0.32173 192.052 3
5 -20 15 188.599 274.232 1
5 -15 -20 251.071 135.899 2
4 -20 15 577.126 228.724 1
4 -15 -20 447.717 166.401 2
-4 -15 20 404.248 203.27 1
20 15 -4 372.728 213.724 3
3 -15 -20 284.899 126.633 2
-3 -15 20 573.75 285.237 1
3 -20 15 517.673 282.348 1
20 15 -3 149.696 173.791 3
2 -20 15 37.0756 112.508 1
20 -2 -15 183.824 188.592 3
-2 -15 20 69.984 149.483 1
2 -15 -20 -77.8679 49.5073 2
20 15 -2 4.80997 136.866 3
-1 -15 20 87.8465 175.76 1
1 -15 -20 224.588 111.113 2
20 -1 -15 288.209 160.705 3
20 15 -1 195.382 153.697 3
0 -20 15 58.4385 150.629 1
0 -15 20 359.076 274.096 1
20 0 -15 52.4988 88.4089 3
20 15 0 42.7425 145.377 3
-1 -20 15 66.1679 67.6572 1
20 1 -15 515.075 178.072 3
1 -15 20 593.06 319.449 1
20 15 1 104.838 155.065 3
20 2 -15 -31.6505 69.736 3
-2 -20 15 106.939 117.685 1
2 -15 20 8.12864 106.597 1
20 15 2 38.5918 59.5087 3
-3 -20 15 318.454 210.055 1
20 3 -15 391.963 103.271 3
20 15 3 124.649 125.829 3
-4 -20 15 861.479 351.682 1
4 -15 20 688.738 258.539 1
20 15 4 609.175 217.257 3
20 4 -15 672.498 244.615 3
-5 -20 15 16.4398 116.091 1
20 5 -15 194.564 120.882 3
5 -15 20 231.56 264.249 1
20 15 5 16.8308 62.4818 3
-6 -20 15 67.2844 190.68 1
6 -15 20 370.719 279.835 1
20 6 -15 121.216 81.0611 3
7 -15 20 1143.78 381.815 1
20 7 -15 1523.62 310.167 3
-7 -20 15 1213.34 435.76 1
20 8 -15 -19.3887 53.958 3
8 -15 20 132.363 138.44 1
-8 -20 15 320.209 278.57 1
9 -15 20 394.037 281.538 1
20 9 -15 259.197 154.239 3
-9 -20 15 232.891 174.535 1
10 -15 20 -70.4399 95.9607 1
20 10 -15 280.584 149.926 3
-10 -20 15 272.846 178.426 1
11 -15 20 201.674 131.295 1
20 11 -15 319.052 151.852 3
-11 -20 15 252.412 135.132 1
12 -15 20 465.56 316.158 1
-15 -12 20 -194.271 109.569 1
20 12 -15 98.5345 96.1609 3
-12 -20 15 294.243 242.078 1
-15 -13 20 526.541 239.88 1
-13 -20 15 475.983 218.386 1
20 13 -15 696.688 218.735 3
13 -15 20 448.377 268.272 1
13 15 -20 867.11 238.997 3
14 15 -20 322.47 164.607 3
20 14 -15 367.66 190.423 3
20 15 -15 344.641 152.052 3
15 15 -20 213.878 167.033 3
16 15 -20 313.779 173.005 3
20 16 -15 338.007 178.169 3
16 14 -20 646.519 223.685 3
20 16 -14 648.42 174.234 3
16 13 -20 549.653 202.959 3
20 16 -13 672.519 246.291 3
16 12 -20 645.439 192.2 3
20 16 -12 464.323 185.508 3
-11 -16 20 192.538 113.519 1
16 11 -20 116.668 105.812 3
20 16 -11 1.05736 118.533 3
20 16 -10 8.77406 101.308 3
10 -20 16 -350.866 296.501 1
9 -16 -20 1240.36 253.584 2
-9 -16 20 1144.86 373.522 1
9 -20 16 506.259 261.075 1
20 16 -9 1357.9 333.447 3
20 16 -8 217.993 213.436 3
8 -16 -20 398.128 162.764 2
8 -20 16 563.991 292.272 1
-8 -16 20 251.448 121.617 1
7 -20 16 137.366 70.2909 1
7 -16 -20 371.683 88.0636 2
-7 -16 20 401.377 127.343 1
20 16 -7 474.241 211.822 3
6 -16 -20 312.034 170.546 2
-6 -16 20 43.5776 131.365 1
6 -20 16 200.201 184.074 1
20 16 -6 -18.0527 114.948 3
-5 -16 20 735.943 378.175 1
5 -16 -20 361.223 137.76 2
5 -20 16 21.619 190.437 1
20 16 -5 177.924 206.465 3
4 -16 -20 -153.293 107.615 2
-4 -16 20 -405.524 229.137 1
4 -20 16 40.6707 193.767 1
20 16 -4 8.36422 116.524 3
-3 -16 20 750.597 330.201 1
3 -20 16 720.4 301.885 1
3 -16 -20 687.659 190.482 2
20 16 -3 304.28 179.822 3
20 -2 -16 74.9475 144.911 3
2 -16 -20 93.1308 84.9418 2
-2 -16 20 383.551 140.367 1
2 -20 16 40.9432 129.063 1
20 16 -2 254.993 110.345 3
1 -20 16 444.195 238.769 1
20 -1 -16 240.342 118.039 3
1 -16 -20 134.115 103.003 2
20 16 -1 161.682 137.949 3
-1 -16 20 429.838 249.344 1
0 -16 20 86.0919 225.413 1
20 0 -16 -24.2298 60.1199 3
0 -16 -20 -55.0395 82.2068 2
0 -20 16 -129.66 232.216 1
20 16 0 98.4461 122.929 3
-1 -20 16 625.804 319.234 1
20 1 -16 457.085 152.139 3
1 -16 20 715.094 324.725 1
20 16 1 199.643 179.318 3
20 2 -16 120.926 151.061 3
-2 -20 16 -120.619 188.947 1
20 16 2 34.2346 129.151 3
2 -16 20 416.57 236.615 1
3 -16 20 739.77 289.23 1
-3 -20 16 864.511 205.631 1
20 3 -16 1135.61 280.436 3
20 16 3 340.555 212.597 3
-4 -20 16 184.552 119.115 1
4 -16 20 69.3255 95.9436 1
20 4 -16 11.4001 61.8679 3
20 16 4 107.343 134.095 3
-5 -20 16 107.857 72.3698 1
5 -16 20 -66.1032 217.796 1
20 5 -16 281.328 116.701 3
20 16 5 227.199 160.198 3
-6 -20 16 -25.3631 150.649 1
6 -16 20 331.03 238.63 1
20 6 -16 367.658 155.915 3
-7 -20 16 409.027 249.949 1
7 -16 20 -53.1875 173.502 1
20 7 -16 447.56 160.499 3
-8 -20 16 464.761 207.539 1
20 8 -16 525.441 178.029 3
8 -16 20 196.552 132.195 1
-9 -20 16 1144.73 396.909 1
9 -16 20 901.932 306.48 1
20 9 -16 1384.83 281.087 3
10 -16 20 2.74972 259.258 1
-10 -20 16 30.1742 178.884 1
20 10 -16 35.9255 92.8572 3
-11 -20 16 -241.339 246.891 1
11 -16 20 -360.72 326.282 1
20 11 -16 -185.679 113.579 3
-12 -20 16 666.786 270.929 1
20 12 -16 473.606 205.861 3
12 -16 20 -82.3749 162.306 1
20 13 -16 509.309 164.201 3
13 16 -20 329.473 145.633 3
20 14 -16 722.923 228.807 3
14 16 -20 586.871 225.214 3
15 16 -20 463.264 239.564 3
20 15 -16 125.682 88.6634 3
16 16 -20 3177.91 406.629 3
20 16 -16 3637.45 492.428 3
16 20 -17 197.377 115.273 3
17 16 -20 89.4883 96.3607 3
20 17 -16 187.273 135.784 3
17 15 -20 1102.83 259.041 3
20 17 -15 1201.73 274.156 3
17 14 -20 542.855 220.263 3
20 17 -14 330.234 136.875 3
17 13 -20 83.6053 176.994 3
20 17 -13 207.12 178.957 3
17 12 -20 87.4919 101.163 3
20 17 -12 64.9925 121.405 3
17 11 -20 129.685 72.5635 3
-11 -17 20 -175.66 105.717 1
20 17 -11 -17.0727 114.279 3
17 10 -20 10.7475 79.5849 3
20 17 -10 -84.8133 139.049 3
-10 -17 20 89.6608 248.84 1
10 -20 17 -85.2069 172.751 1
9 -20 17 482.836 287.123 1
-9 -17 20 578.819 303.401 1
20 17 -9 171.748 128.473 3
-8 -17 20 464.363 287.078 1
8 -20 17 439.805 254.273 1
20 17 -8 110.046 90.0966 3
7 -20 17 342.752 253.258 1
-7 -17 20 268.241 89.4913 1
20 17 -7 92.1355 194.212 3
20 17 -6 225.742 210.817 3
6 -20 17 276.95 200.119 1
-6 -17 20 190.469 228.675 1
20 17 -5 403.324 216.827 3
-5 -17 20 440.865 140.052 1
5 -20 17 680.753 411.175 1
20 17 -4 203.184 198.7 3
4 -20 17 403.682 230.463 1
-4 -17 20 340.606 260.627 1
20 17 -3 494.254 191.625 3
-3 -17 20 582.143 314.985 1
3 -20 17 132.63 126.225 1
2 -20 17 236.366 98.0254 1
-2 -17 20 276.242 271.359 1
20 17 -2 13.1575 144.378 3
20 -1 -17 3.28491 64.4562 3
1 -17 -20 16.0271 71.4916 2
1 -20 17 -113.924 175.808 1
20 17 -1 -5.49677 65.7669 3
0 -20 17 69.6544 212.492 1
20 0 -17 183.633 141.629 3
0 -17 20 -58.8888 103.552 1
0 -17 -20 51.5815 98.6102 2
20 17 0 -9.50616 119.03 3
20 1 -17 -187.479 110.273 3
1 -17 20 -173.409 81.4184 1
-1 -17 -20 -87.6279 107.8 2
-1 -20 17 -99.1429 259.777 1
20 17 1 -40.3705 63.7428 3
20 2 -17 -61.2542 101.625 3
-2 -20 17 321.199 198.716 1
20 17 2 107.478 95.8079 3
2 -17 20 399.891 207.279 1
3 -17 20 462.015 204.202 1
-3 -20 17 380.742 124.578 1
20 3 -17 361.139 166.653 3
20 17 3 180.318 121.764 3
4 -17 20 366.378 201.008 1
-4 -20 17 189.305 172.632 1
20 4 -17 179.755 152.901 3
20 17 4 145.583 156.479 3
-5 -20 17 504.615 146.322 1
20 5 -17 390.668 167.007 3
20 17 5 279.838 193.531 3
-6 -20 17 394.064 313.396 1
6 -17 20 517.639 297.809 1
20 6 -17 228.773 91.8737 3
-7 -20 17 168.695 74.9026 1
7 -17 20 110.048 119.336 1
-8 -20 17 465.744 198.193 1
8 -17 20 698.524 371.811 1
20 8 -17 875.779 246.478 3
-9 -20 17 629.506 417.86 1
9 -17 20 330.47 236.359 1
20 9 -17 170.692 128.096 3
10 -17 20 168.238 129.318 1
20 10 -17 373.515 216.388 3
-10 -20 17 694.761 382.542 1
11 -17 20 323.952 220.328 1
-11 -20 17 394.381 156.489 1
20 11 -17 238.441 77.1531 3
20 12 -17 -117.669 132.826 3
13 17 -20 182.525 52.8606 3
20 13 -17 81.7591 65.8739 3
20 14 -17 161.995 71.3779 3
14 17 -20 380.396 187.147 3
20 15 -17 1321.32 280.65 3
15 17 -20 992.501 237.762 3
17 20 -16 117.199 102.067 3
20 16 -17 -74.1382 118.309 3
16 17 -20 11.5939 120.712 3
20 17 -17 -74.8797 81.6413 3
17 17 -20 258.974 158.105 3
17 20 -17 138.479 75.286 3
18 17 -20 46.4883 61.61 3
20 18 -17 157.366 101.528 3
18 16 -20 2144.93 358.985 3
20 18 -16 2345.74 399.382 3
16 20 -18 2170.95 361.276 3
18 15 -20 448.513 151.336 3
20 18 -15 633.381 236.618 3
18 14 -20 894.916 197.1 3
20 18 -14 1324.98 296.574 3
18 13 -20 8.11556 67.55 3
20 18 -13 80.4669 150.789 3
18 12 -20 395.254 169.756 3
20 18 -12 118.246 95.3608 3
18 11 -20 692.344 188.797 3
20 18 -11 739.631 256.395 3
18 10 -20 315.275 137.901 3
20 18 -10 44.3284 140.593 3
9 -20 18 638.352 217.904 1
18 9 -20 349.38 102.897 3
20 18 -9 444.933 160.636 3
-9 -18 20 839.04 407.11 1
-8 -18 20 -265.003 224.188 1
8 -20 18 58.6234 118.685 1
20 18 -8 -0.70639 95.084 3
-7 -18 20 469.792 470.411 1
20 18 -7 359.869 206.203 3
7 -20 18 305.506 225.043 1
6 -20 18 1047.37 439.817 1
-6 -18 20 961.911 327.971 1
20 18 -6 472.175 239.832 3
5 -20 18 1991.71 552.215 1
-5 -18 20 2118.17 527.887 1
20 18 -5 1191.97 356.987 3
20 18 -4 28.6259 74.9072 3
4 -20 18 -164.594 135.209 1
-4 -18 20 -15.9335 100.125 1
20 18 -3 0.32598 130.45 3
-3 -18 20 190.3 152.889 1
3 -20 18 440.424 180.381 1
20 18 -2 439.581 213.447 3
-2 -18 20 -30.9018 254.302 1
2 -20 18 606.922 279.14 1
-1 -18 20 169.603 184.572 1
1 -20 18 325.904 141.816 1
20 0 -18 190.826 88.1249 3
0 -18 20 -60.5629 217.773 1
20 18 0 19.9406 51.0216 3
20 1 -18 165.959 129.884 3
-1 -20 18 299.408 262.257 1
1 -18 20 354.395 217.349 1
20 18 1 74.1817 179.218 3
-2 -20 18 532.31 324.414 1
20 2 -18 194.095 140.304 3
2 -18 20 297.62 203.878 1
20 18 2 18.1638 70.6152 3
3 -18 20 497.163 264.329 1
-3 -20 18 729.086 354.306 1
20 18 3 528.213 167.841 3
20 3 -18 598.286 201.964 3
-4 -20 18 64.7394 80.8166 1
4 -18 20 51.7862 94.2957 1
20 4 -18 54.54 87.7571 3
20 18 4 -13.4284 104.946 3
-5 -20 18 2266.64 582.566 1
5 -18 20 2145.32 524.43 1
20 18 5 1550.01 291.161 3
20 5 -18 2066.92 342.502 3
-6 -20 18 719.595 311.3 1
20 6 -18 1167.49 245.3 3
6 -18 20 815.786 269.346 1
20 7 -18 402.327 161.473 3
-7 -20 18 537.52 238.939 1
-8 -20 18 252.08 119.342 1
20 8 -18 213.228 101.064 3
8 -18 20 304.362 270.214 1
-9 -20 18 554.682 244.735 1
9 -18 20 207.613 120.294 1
20 9 -18 684.512 178.831 3
10 -18 20 -292.89 331.062 1
20 10 -18 70.5593 136.364 3
20 11 -18 268.172 111.492 3
20 12 -18 -214.854 122.118 3
20 13 -18 41.7968 104.584 3
13 18 -20 -19.2758 108.545 3
18 20 -14 1279.89 333.142 3
14 18 -20 860.434 224.088 3
20 14 -18 1442.49 295.847 3
20 15 -18 570.278 276.518 3
15 18 -20 319.039 144.988 3
18 20 -15 409.229 188.468 3
18 20 -16 2298.49 382.975 3
20 16 -18 2090.11 387.333 3
16 18 -20 1883.74 324.942 3
20 17 -18 159.013 108.089 3
17 18 -20 316.039 124.909 3
18 20 -17 288.973 132.246 3
18 18 -20 1956.43 350.596 3
20 18 -18 2309.11 370.361 3
18 20 -18 1987.55 365.059 3
19 18 -20 -46.2851 139.844 3
18 20 -19 -57.1285 97.4965 3
20 19 -18 20.935 75.1115 3
19 17 -20 -62.5265 109.48 3
20 19 -17 6.90561 100.309 3
17 20 -19 126.365 84.0927 3
19 16 -20 80.6644 65.3981 3
20 19 -16 18.9355 65.665 3
16 20 -19 26.1039 46.9585 3
20 19 -15 395.862 198.072 3
19 15 -20 237.83 100.57 3
15 20 -19 1.49636 138.27 3
19 14 -20 557.708 194.978 3
20 19 -14 568.424 205.383 3
19 13 -20 2977 399.893 3
20 19 -13 1191.76 305.693 3
19 12 -20 142.898 120.939 3
20 19 -12 245.273 170.387 3
20 19 -11 217.947 165.775 3
19 11 -20 258.279 49.5205 3
19 10 -20 713.106 211.425 3
20 19 -10 595.895 225.715 3
19 9 -20 132.596 109.771 3
20 19 -9 105.89 174.748 3
20 19 -8 327.887 286.162 3
8 -20 19 814.495 319.447 1
19 8 -20 299.79 155.99 3
20 19 -7 7.04709 79.1591 3
7 -20 19 220.915 80.4251 1
19 7 -20 434.489 191.781 3
20 19 -6 1138.84 274.809 3
6 -20 19 770.549 359.094 1
-6 -19 20 585.685 267.17 1
5 -20 19 1172.06 374.718 1
-5 -19 20 781.069 399.838 1
19 20 5 537.355 222.846 3
4 -20 19 503.334 219.334 1
-4 -19 20 525.729 197.527 1
19 20 4 527.889 190.879 3
19 20 3 -20.6238 133.5 3
20 19 -3 22.4477 97.0501 3
-3 -19 20 259.897 117.972 1
3 -20 19 94.6721 168.667 1
20 19 -2 31.6274 104.919 3
-2 -19 20 -79.6968 125.941 1
2 -20 19 -87.6816 156.166 1
20 19 -1 5.03581 79.082 3
-1 -19 20 -148.972 186.599 1
1 -20 19 239.889 164.416 1
0 -19 20 126.417 61.754 1
20 19 0 1.53088 67.4394 3
-1 -20 19 21.8433 116.121 1
20 19 1 58.2229 89.6531 3
1 -19 20 -207.24 279.777 1
2 -19 20 366.462 260.503 1
-2 -20 19 277.186 242.131 1
20 19 2 98.8573 124.846 3
3 -19 20 32.7736 93.4715 1
-3 -20 19 335.961 241.916 1
20 3 -19 96.0229 182.442 3
20 19 3 31.8584 119.632 3
4 -19 20 756.057 313.496 1
20 4 -19 574.739 185.583 3
-4 -20 19 569.058 204.872 1
20 19 4 323.791 78.8145 3
-5 -20 19 646.852 230.044 1
5 -19 20 323.187 97.2273 1
20 5 -19 792.99 223.113 3
20 19 5 369.167 206.264 3
6 -19 20 731.196 234.29 1
-6 -20 19 667.738 288.96 1
20 6 -19 806.129 186.985 3
-7 -20 19 14.5148 247.645 1
20 7 -19 180.036 51.0199 3
7 -19 20 81.7981 153.692 1
20 8 -19 328.178 106.475 3
8 -19 20 1268.31 847.839 1
20 9 -19 310.077 115.967 3
20 10 -19 719.428 246.04 3
20 11 -19 297.994 222.858 3
19 20 -12 217.445 95.8846 3
20 12 -19 450.439 234.887 3
20 13 -19 1273.35 276.8 3
19 20 -13 1032.48 248.29 3
20 14 -19 511.985 161.926 3
19 20 -14 631.118 173.704 3
14 19 -20 840.543 226.74 3
20 15 -19 467.204 178.02 3
19 20 -15 247.891 141.764 3
15 19 -20 454.165 180.589 3
20 16 -19 -66.6016 112.485 3
16 19 -20 117.727 79.5478 3
19 20 -16 -74.9311 88.3248 3
19 20 -17 -21.89 64.3673 3
20 17 -19 -24.5261 156.291 3
17 19 -20 -57.0104 49.8277 3
18 19 -20 68.4837 107.934 3
20 18 -19 169.26 97.4795 3
19 20 -18 110.14 64.9236 3
20 19 -19 245.134 83.5816 3
19 20 -19 21.5876 102.794 3
0 -20 20 -3.57501 121.498 1
20 20 0 196.467 125.575 3
20 20 -1 442.997 234.582 3
1 -20 20 329.105 199.498 1
-1 -20 20 636.054 256.647 1
20 20 1 558.775 235.027 3
20 20 -2 33.5312 66.2116 3
20 20 2 -263.015 126.007 3
-2 -20 20 66.8993 151.857 1
2 -20 20 268.299 284.424 1
3 -20 20 1311.68 465.112 1
-3 -20 20 1444.95 465.141 1
20 20 3 922.519 245.817 3
20 20 4 753.663 211.652 3
4 -20 20 809.509 325.454 1
20 20 5 8.17324 77.2043 3
20 6 -20 1041.47 230.002 3
20 20 -7 1851.48 438.754 3
20 7 -20 2080.72 327.057 3
20 20 -8 2243.87 428.437 3
20 8 -20 2390.93 368.87 3
20 9 -20 322.055 118.782 3
20 20 -9 -10.7323 136.663 3
20 10 -20 932.164 224.436 3
20 20 -10 900.087 261.153 3
20 11 -20 -93.8741 80.4341 3
20 20 -11 29.9202 94.9653 3
20 12 -20 110.969 135.219 3
20 20 -12 239.563 179.842 3
20 20 -13 374.678 181.552 3
20 13 -20 274.646 121.528 3
14 20 -20 -34.7329 144.119 3
20 14 -20 337.316 171.169 3
20 20 -14 113.01 153.267 3
20 15 -20 961.996 251.786 3
20 20 -15 987.315 269.811 3
15 20 -20 1120.74 276.706 3
20 16 -20 1043.74 240.193 3
16 20 -20 1329.47 274.848 3
20 20 -16 1561.38 324.946 3
20 20 -17 81.7021 117.887 3
20 17 -20 92.0229 96.2507 3
17 20 -20 133.739 68.691 3
20 20 -18 1680.17 319.987 3
20 18 -20 1267.72 251.928 3
18 20 -20 1598.45 301.315 3
19 20 -20 695.358 186.424 3
20 20 -19 965.343 247.689 3
20 19 -20 859.581 209.004 3
20 20 -20 920.901 236.78 3
0 0 21 56.266 136.963 1
1 0 21 2884.06 509.533 1
-1 0 21 2808.76 502.771 1
0 -1 21 3101.18 545.124 1
-1 -1 21 3662.06 563.324 1
-1 1 21 3605.07 571.362 1
1 -1 21 3818.72 586.128 1
-1 -2 21 1298.81 381.23 1
-2 1 21 1118.93 286.134 1
2 -1 21 1015.22 325.519 1
-2 0 21 855.486 289.911 1
0 -2 21 1421.39 380.708 1
-2 -1 21 1117.38 272.292 1
1 -2 21 1051.8 332.648 1
-2 -2 21 281.869 240.608 1
2 -2 21 106.331 178.861 1
-2 -3 21 1125.09 345.839 1
3 -2 21 980.151 328.24 1
-1 -3 21 884.374 300.482 1
-3 1 21 986.095 331.123 1
3 -1 21 1114.99 323.054 1
0 -3 21 76.6445 115.793 1
-3 0 21 -200.734 168.955 1
-3 -1 21 1249.65 352.858 1
1 -3 21 692.479 264.458 1
-3 -2 21 1013.41 325.281 1
2 -3 21 1258.73 368.542 1
3 -3 21 2252.4 481.968 1
-3 -3 21 1926.21 415.811 1
4 -3 21 919.529 307.087 1
-3 -4 21 998.279 282.994 1
4 -2 21 2140.8 433.566 1
-2 -4 21 2207.23 436.254 1
-4 1 21 1637.4 350.268 1
-1 -4 21 1710.97 392.867 1
0 -4 21 407.435 203.151 1
-4 0 21 142.853 161.733 1
1 -4 21 1396.14 354.626 1
-4 -1 21 1925.56 436.173 1
-4 -2 21 2329.03 448.061 1
2 -4 21 2293.26 469.426 1
3 -4 21 582.639 241.253 1
-4 -3 21 906.028 289.451 1
4 -4 21 869.718 317.454 1
-4 -4 21 608.937 261.419 1
4 -21 5 561.277 242.347 1
-4 -5 21 710.642 278.777 1
5 -4 21 567.615 318.739 1
5 -3 21 302.332 216.545 1
-3 -5 21 237.895 235.304 1
-2 -5 21 550.471 187.26 1
5 -2 21 820.822 293.057 1
-5 1 21 729.93 262.183 1
-1 -5 21 580.686 262.814 1
-5 0 21 1672.43 382.628 1
0 -5 21 1685.77 419.542 1
-5 -1 21 518.565 186.35 1
1 -5 21 834.219 286.144 1
-5 -2 21 691.529 230.373 1
2 -5 21 764.613 323.978 1
3 -5 21 305.902 227.21 1
-5 -3 21 322.758 188.169 1
5 -21 3 239.357 83.6706 1
-5 -4 21 413.514 245.786 1
4 -5 21 731.029 311.123 1
5 -21 4 429.403 184.252 1
5 -21 5 287.614 68.916 1
-5 -5 21 17.8336 118.482 1
5 -5 21 426.159 259.546 1
5 -21 6 1133.41 315.801 1
-5 -6 21 1044.77 322.678 1
6 -5 21 1269.8 426.555 1
-4 -6 21 2175.31 474.111 1
6 -4 21 2736.39 545.235 1
4 -21 6 2421.43 473.738 1
3 -21 6 380.731 171.347 1
-3 -6 21 809.44 225.679 1
6 -3 21 590.682 294.451 1
-2 -6 21 -114.886 183.966 1
-1 -6 21 1771.52 422.327 1
-6 1 21 2213.31 447.685 1
-6 0 21 3836.01 556.39 1
0 -6 21 3606.06 566.73 1
1 -6 21 1674.79 395.88 1
-6 -1 21 1819.18 439.831 1
2 -6 21 41.3325 216.927 1
-6 -2 21 158.721 124.726 1
3 -6 21 1019.48 341.862 1
-6 -3 21 722.589 299.058 1
6 -21 4 2462.14 439.85 1
-6 -4 21 1934.07 405.028 1
4 -6 21 2524.5 503.574 1
6 -21 5 1238.67 345.177 1
-6 -5 21 934.227 276.408 1
5 -6 21 1258.6 386.826 1
6 -6 21 354.313 264.485 1
6 -6 -21 79.6359 141.129 2
6 -21 6 102.665 155.839 1
-6 -6 21 120.881 139.316 1
21 6 -6 31.7299 100.739 3
-6 -7 21 13.5303 93.5909 1
6 -21 7 115.944 202.066 1
6 -7 -21 7.58278 129.72 2
21 7 -6 -6.57676 110.434 3
7 -6 21 144.472 70.5808 1
5 -21 7 819.557 292.472 1
7 -5 21 824.482 276.823 1
5 -7 -21 684.975 183.661 2
-5 -7 21 589.323 232.976 1
21 7 -5 313.887 172.758 3
-4 -7 21 906.255 288.453 1
7 -4 21 670.23 218.386 1
4 -21 7 765.585 282.143 1
-3 -7 21 319.037 240.193 1
3 -21 7 52.3531 132.627 1
-2 -7 21 567.279 258.179 1
-1 -7 21 679.57 288.561 1
-7 1 21 623.097 201.688 1
0 -7 21 918.209 312.629 1
-7 0 21 421.12 210.928 1
-7 -1 21 810.394 282.443 1
1 -7 21 887.548 300.601 1
-7 -2 21 325.932 61.1963 1
2 -7 21 528.227 227.279 1
-7 -3 21 41.1502 85.5217 1
3 -7 21 -20.2126 97.8245 1
4 -7 21 1271.14 423.385 1
-7 -4 21 611.047 219.881 1
-7 -5 21 962.325 314.918 1
7 -5 -21 528.934 131.342 2
5 -7 21 607.367 187.281 1
21 5 -7 479.02 150.087 3
7 -6 -21 42.501 61.0338 2
21 6 -7 33.2545 72.0246 3
6 -7 21 0.57718 72.1962 1
-7 -7 21 87.8293 108.215 1
7 -7 21 -137.097 194.107 1
7 -21 7 -231.742 210.817 1
21 7 -7 0.58381 64.5562 3
7 -7 -21 95.9025 73.8765 2
8 -7 21 696.367 300.757 1
7 -21 8 302.865 149.339 1
7 -8 -21 503.969 184.622 2
21 8 -7 468.06 207.931 3
-7 -8 21 648.583 266.327 1
8 -6 21 -66.4481 137.104 1
6 -21 8 15.763 55.6686 1
6 -8 -21 -58.9527 83.8582 2
-6 -8 21 78.7643 121.982 1
21 8 -6 -6.12242 133.455 3
5 -8 -21 718.752 218.072 2
-5 -8 21 813.639 291.642 1
5 -21 8 975.258 353.138 1
8 -5 21 933.971 302.63 1
21 8 -5 585.081 241.764 3
-4 -8 21 144.158 128.019 1
4 -21 8 319.753 215.153 1
21 -4 -8 16.379 104.084 3
21 8 -4 -24.534 109.177 3
4 -8 -21 92.8061 102.499 2
-3 -8 21 270.006 231.531 1
3 -21 8 456.884 241.45 1
21 8 -3 243.064 157.035 3
-2 -8 21 3143.9 580.891 1
2 -21 8 3336.97 578.821 1
-1 -8 21 208.217 156.005 1
-8 1 21 326.921 176.531 1
0 -8 21 789.372 285.733 1
-8 0 21 970.092 202.154 1
-8 -1 21 328.511 151 1
1 -8 21 537.215 272.992 1
8 -2 -21 3949.71 460.378 2
2 -8 21 3861.24 638.004 1
-8 -2 21 2870.64 497.274 1
8 -3 -21 278.218 143.681 2
-8 -3 21 653.18 301.53 1
21 3 -8 280.734 147.326 3
3 -8 21 285.843 141.752 1
21 4 -8 98.2982 71.8901 3
-8 -4 21 -49.4679 149.535 1
4 -8 21 239.174 229.207 1
8 -4 -21 41.2372 45.6576 2
-8 -5 21 1103.81 326.986 1
21 5 -8 550.504 213.528 3
5 -8 21 458.888 222.298 1
8 -5 -21 1023.1 261.734 2
8 -6 -21 262.413 131.911 2
-8 -6 21 183.842 79.4456 1
21 6 -8 149.059 163.133 3
6 -8 21 16.9954 146.067 1
8 -7 -21 710.089 219.249 2
21 7 -8 462.688 186.927 3
7 -8 21 430.069 148.105 1
-8 -7 21 142.642 132.926 1
8 -8 -21 369.183 182.169 2
8 -8 21 218.861 251.134 1
21 8 -8 81.8709 90.2262 3
-8 -8 21 590.512 294.737 1
9 -8 21 -170.71 164.288 1
21 9 -8 46.3902 103.978 3
8 -9 -21 194.152 76.1506 2
9 8 -21 71.9959 99.7513 2
9 -7 21 249.929 86.3708 1
21 9 -7 360.991 173.702 3
7 -9 -21 473.683 232.613 2
7 -21 9 525.946 200.036 1
9 7 -21 274.973 129.882 2
-7 -9 21 604.269 266.047 1
6 -9 -21 102.318 165.131 2
9 -6 21 -279.631 303.134 1
6 -21 9 -5.6254 125.667 1
9 6 -21 85.9721 56.8533 2
21 9 -6 86.8881 57.6851 3
-6 -9 21 -288.238 180.092 1
9 5 -21 -50.0087 73.6651 2
5 -21 9 104.536 140.688 1
5 -9 -21 -133.555 126.332 2
21 9 -5 -142.987 146.694 3
-5 -9 21 135.091 228.223 1
4 -21 9 232.192 170.772 1
9 4 -21 240.58 138.934 2
21 -4 -9 123.247 150.588 3
4 -9 -21 312.509 156.486 2
21 9 -4 475.069 200.06 3
-4 -9 21 352.624 229.874 1
-3 -9 21 2406.08 509.25 1
3 -21 9 1898.34 437.807 1
21 -3 -9 2146.72 363.775 3
9 3 -21 2012.79 325.116 2
3 -9 -21 2179.83 346.663 2
21 9 -3 2313.81 382.499 3
-2 -9 21 2007.25 467.465 1
21 -2 -9 2361.61 366.17 3
9 2 -21 1678.89 302.794 2
21 9 -2 1621.91 317.618 3
2 -21 9 2085.79 470.869 1
-1 -9 21 918.127 324.487 1
9 1 -21 419.278 159.964 2
21 -1 -9 664.047 198.316 3
21 9 -1 223.378 121.508 3
1 -21 9 721.112 268.194 1
9 0 -21 109.601 91.5785 2
0 -9 21 -32.4329 162.271 1
21 0 -9 23.5564 81.6464 3
1 -9 21 360.889 191.054 1
-9 -1 21 158.733 91.2707 1
9 -1 -21 690.435 221.841 2
21 1 -9 383.59 147.027 3
9 -2 -21 2074.23 335.321 2
21 2 -9 2249.09 361.498 3
-9 -2 21 2340.47 439.782 1
2 -9 21 1999.06 486.596 1
9 -3 -21 2408.66 378.586 2
3 -9 21 2347.21 483.571 1
-9 -3 21 2182.74 418.971 1
21 3 -9 2320.17 380.972 3
21 4 -9 192.068 74.5869 3
9 -4 -21 350.544 126.005 2
4 -9 21 352.076 220.713 1
-9 -4 21 250.566 138.555 1
5 -9 21 -19.2448 93.6707 1
-9 -5 21 90.9896 76.5389 1
9 -5 -21 190.261 143.004 2
21 5 -9 -44.775 95.6626 3
-9 -6 21 15.9043 163.849 1
6 -9 21 -194.453 169.817 1
9 -6 -21 -39.5084 110.835 2
21 6 -9 163.616 113.324 3
7 -9 21 493.311 248.671 1
9 -7 -21 649.726 195.883 2
21 7 -9 551.361 195.798 3
-9 -7 21 485.995 193.085 1
9 -8 -21 210.912 94.5953 2
-9 -8 21 -665.302 263.47 1
21 8 -9 -267.418 132.393 3
8 -9 21 -179.074 195.43 1
9 -9 -21 107.561 94.0007 2
9 -9 21 -102.493 121.973 1
-9 -9 21 220.977 168.102 1
21 9 -9 256.223 183.701 3
9 -10 -21 1448.11 284.794 2
-9 -10 21 1392.9 402.735 1
10 -9 21 1255.88 387.416 1
21 10 -9 1472.17 324.583 3
8 -10 -21 1458.36 280.938 2
10 -8 21 1971.26 504.427 1
8 -21 10 1664.52 399.618 1
-8 -10 21 1739 394.891 1
21 10 -8 2082.04 381.083 3
7 -21 10 143.828 60.2032 1
21 10 -7 113.043 70.0869 3
6 -21 10 176.982 143.312 1
6 -10 -21 316.089 144.977 2
10 6 -21 125.362 60.7995 2
21 10 -6 58.8782 194.322 3
10 5 -21 353.553 162.152 2
5 -10 -21 357.566 145.883 2
5 -21 10 68.0556 59.3131 1
21 10 -5 19.0152 108.345 3
-5 -10 21 125.881 72.8774 1
10 4 -21 230.237 111.904 2
4 -21 10 223.119 106.764 1
21 10 -4 161.789 172.835 3
4 -10 -21 354.962 162.247 2
-4 -10 21 -27.0299 143.513 1
3 -21 10 265.143 161.838 1
10 3 -21 178.934 91.1685 2
3 -10 -21 -18.7376 111.389 2
21 -3 -10 147.673 120.248 3
21 10 -3 108.399 129.639 3
2 -21 10 298.678 205.157 1
-2 -10 21 316.729 211.017 1
10 2 -21 255.192 144.548 2
21 -2 -10 174.157 146.471 3
21 10 -2 -30.1663 123.65 3
-1 -10 21 141.763 173.519 1
10 1 -21 -40.4958 133.611 2
21 -1 -10 -12.3262 73.2388 3
21 10 -1 -14.5672 127.638 3
1 -21 10 -60.1749 150.893 1
10 0 -21 2789.96 419.013 2
21 0 -10 2052.72 333.717 3
0 -10 21 1940.91 477.033 1
21 10 0 1438.61 288.267 3
0 -21 10 2098.9 484.245 1
10 -1 -21 181.634 144.83 2
1 -10 21 79.3761 150.295 1
21 1 -10 19.271 71.507 3
21 10 1 141.605 135.246 3
-1 -21 10 6.19153 153.872 1
2 -10 21 383.483 258.484 1
10 -2 -21 396.804 174.363 2
21 2 -10 546.859 221.334 3
21 10 2 213.036 126.699 3
10 -3 -21 171.047 95.7056 2
-10 -3 21 328.068 129.302 1
21 3 -10 459.361 197.765 3
3 -10 21 86.2817 160.559 1
10 -4 -21 137.36 83.1453 2
-10 -4 21 168.979 164.967 1
4 -10 21 147.054 123.009 1
21 4 -10 202.506 50.1262 3
-10 -5 21 503.876 198.353 1
10 -5 -21 291.803 161.455 2
21 5 -10 223.908 144.206 3
5 -10 21 164.549 152.564 1
-10 -6 21 70.643 106.578 1
10 -6 -21 140.646 86.663 2
21 6 -10 388.023 175.884 3
6 -10 21 530.828 254.105 1
7 -10 21 250.316 118.242 1
10 -7 -21 363.013 141.425 2
21 7 -10 325.003 130.731 3
-10 -7 21 514.122 249.331 1
10 -8 -21 1530.03 289.632 2
21 8 -10 2195.32 387.097 3
8 -10 21 2220.05 546.76 1
-10 -8 21 1594.64 390.198 1
10 -9 -21 1248.75 279.399 2
9 -10 21 1469.11 408.295 1
-10 -9 21 1563.07 423.091 1
21 9 -10 1381.27 310.976 3
10 -10 21 202.314 160.304 1
10 -10 -21 -0.28795 94.8562 2
-10 -10 21 -13.4837 166.021 1
21 10 -10 -143.956 131.391 3
10 -11 -21 58.7071 55.9035 2
11 -10 21 114.137 80.6568 1
-10 -11 21 143.102 219.958 1
21 11 -10 23.1542 116.704 3
-9 -11 21 653.01 315.476 1
9 -11 -21 782.67 194.524 2
21 11 -9 743.545 208.721 3
8 -11 -21 1075.7 266.474 2
21 11 -8 448.46 252.402 3
8 -21 11 690.251 276.301 1
-8 -11 21 513.294 209.049 1
7 -11 -21 699.034 209.862 2
-7 -11 21 430.72 274.771 1
7 -21 11 -107.172 262.139 1
21 11 -7 150.635 149.149 3
6 -11 -21 315.13 136.487 2
6 -21 11 163.742 101.846 1
-6 -11 21 245.065 248.55 1
21 11 -6 254.027 120.751 3
5 -21 11 198.75 227.891 1
5 -11 -21 897.651 201.862 2
21 11 -5 642.288 208.819 3
-5 -11 21 688.095 298.006 1
11 4 -21 126.802 105.639 2
4 -21 11 292.614 225.895 1
4 -11 -21 -1.40868 104.824 2
21 11 -4 304.11 181.948 3
-4 -11 21 231.631 202.556 1
11 3 -21 140.576 134.007 2
3 -21 11 -226.161 198.505 1
21 -3 -11 389.355 153.409 3
3 -11 -21 309.161 137.453 2
21 11 -3 164.865 148.567 3
-3 -11 21 339.513 200.079 1
21 -2 -11 170.659 153.085 3
2 -21 11 215.819 128.119 1
2 -11 -21 169.426 146.715 2
21 11 -2 59.3754 123.652 3
11 2 -21 72.3254 73.0192 2
-2 -11 21 0.5781 81.1807 1
-1 -11 21 449.847 232.661 1
11 1 -21 139.184 123.346 2
21 -1 -11 237.806 138.284 3
21 11 -1 120.914 110.108 3
1 -21 11 313.354 247.857 1
0 -11 21 1912.26 441.943 1
11 0 -21 1833.17 312.067 2
21 11 0 1923.82 366.536 3
21 0 -11 2206.07 361.655 3
0 -21 11 2325.19 531.288 1
21 1 -11 320.05 194.342 3
11 -1 -21 301.552 155.307 2
1 -11 21 144.176 170.127 1
-1 -21 11 323.634 185.749 1
21 11 1 15.902 86.2107 3
2 -11 21 37.0192 59.7943 1
21 2 -11 159.507 141.665 3
11 -2 -21 157.341 138.496 2
21 11 2 6.82925 101.452 3
-2 -21 11 164.008 210.427 1
11 -3 -21 289.053 189.616 2
3 -11 21 103.175 137.681 1
21 3 -11 269.58 188.132 3
21 11 3 240.91 152.153 3
11 -4 -21 57.9448 89.7394 2
21 4 -11 285.872 212.03 3
-11 -4 21 134.245 126.809 1
4 -11 21 95.8145 160.87 1
21 11 4 -18.2528 48.948 3
11 -5 -21 587.196 172.346 2
-11 -5 21 921.237 283.764 1
21 5 -11 655.057 199.843 3
21 11 5 568.832 179.603 3
5 -11 21 1049.01 381.166 1
-11 -6 21 -5.18219 56.7196 1
21 6 -11 374.598 198.434 3
11 -6 -21 327.245 144.063 2
6 -11 21 254.423 122.793 1
11 -7 -21 191.183 70.2797 2
21 7 -11 165.409 54.8155 3
7 -11 21 386.475 276.445 1
-11 -7 21 156.038 164.354 1
11 -8 -21 749.965 240.016 2
8 -11 21 724.507 336.872 1
21 8 -11 591.845 183.556 3
-11 -8 21 639.771 262.176 1
11 -9 -21 534.55 180.698 2
-11 -9 21 248.85 205.679 1
21 9 -11 589.894 225.812 3
9 -11 21 939.119 371.241 1
11 -10 -21 312.427 130.605 2
10 -11 21 -56.0241 89.896 1
-11 -10 21 50.2592 187.658 1
21 10 -11 117.923 151.38 3
11 -11 -21 275.152 155.359 2
11 -11 21 110.569 184.012 1
-11 -11 21 120.492 87.1497 1
21 11 -11 36.4145 98.8354 3
11 -12 -21 549.854 211.764 2
-11 -12 21 88.9706 119.645 1
21 12 -11 407.656 223.975 3
10 -12 -21 2145.88 369.947 2
-10 -12 21 1951.43 507.909 1
21 12 -10 1969.33 382.754 3
9 -12 -21 885.314 227.568 2
21 12 -9 814.619 257.583 3
-9 -12 21 1037.04 401.206 1
8 -12 -21 974.713 213.076 2
21 12 -8 560.934 227.392 3
-8 -12 21 651.213 262.69 1
8 -21 12 591.828 291.756 1
7 -12 -21 1316.07 263.333 2
-7 -12 21 960.483 334.576 1
7 -21 12 971.191 272.136 1
21 12 -7 1192.62 293.325 3
6 -12 -21 554.101 172.943 2
6 -21 12 547.534 200.62 1
-6 -12 21 448.764 254.362 1
21 12 -6 521.625 222.412 3
5 -21 12 488.207 367.531 1
5 -12 -21 346.179 193.203 2
-5 -12 21 222.982 131.687 1
21 12 -5 151.165 124.107 3
4 -12 -21 441.728 140.848 2
-4 -12 21 415.996 242.748 1
4 -21 12 287.793 93.5492 1
21 12 -4 184.547 159.091 3
3 -21 12 540.974 239.858 1
3 -12 -21 339.983 133.497 2
-3 -12 21 -39.2662 149.819 1
21 12 -3 209.872 149.577 3
21 -3 -12 -22.8455 57.5684 3
12 2 -21 456.252 179.905 2
21 -2 -12 881.776 230.383 3
2 -21 12 1026.07 343.924 1
2 -12 -21 1025.11 270.728 2
21 12 -2 701.37 288.515 3
-2 -12 21 605.09 249.42 1
12 1 -21 -263.349 120.707 2
1 -21 12 -57.1884 145.484 1
21 -1 -12 151.114 184.723 3
21 12 -1 78.8007 166.089 3
-1 -12 21 48.2267 144.277 1
12 0 -21 154.303 114.721 2
0 -12 21 346.651 262.528 1
0 -21 12 129.357 102.663 1
21 0 -12 187.414 76.8636 3
21 12 0 79.6701 133.856 3
12 -1 -21 -18.7343 98.4354 2
1 -12 21 -259.533 180.587 1
-1 -21 12 77.4622 116.169 1
21 1 -12 176.352 175.489 3
21 12 1 10.3776 71.967 3
21 2 -12 889.088 230.766 3
12 -2 -21 649.07 192.724 2
2 -12 21 654.706 205.21 1
-2 -21 12 564.065 223.034 1
21 12 2 453.721 200.558 3
12 -3 -21 17.2254 100.826 2
21 12 3 13.2599 70.2067 3
21 3 -12 -2.67023 167.785 3
3 -12 21 327.178 181.96 1
-3 -21 12 299.031 183.544 1
12 -4 -21 244.684 113.542 2
4 -12 21 280.841 112.255 1
21 12 4 122.081 108.651 3
21 4 -12 143.382 136.109 3
-4 -21 12 296.316 245.727 1
21 5 -12 296.665 179.294 3
12 -5 -21 182.843 96.6338 2
5 -12 21 286.44 195.623 1
21 12 5 39.3915 122.762 3
-12 -6 21 485.065 219.612 1
12 -6 -21 634.296 207.039 2
21 6 -12 577.392 192.593 3
6 -12 21 837.73 344.666 1
12 -7 -21 1123.26 254.568 2
21 7 -12 1315.06 280.302 3
7 -12 21 1325.78 380.388 1
-12 -7 21 1072.42 389.138 1
12 -8 -21 891.813 255.124 2
8 -12 21 600.843 272.979 1
21 8 -12 925.569 258.113 3
-12 -8 21 564.133 298.387 1
12 -9 -21 684.07 278.274 2
-12 -9 21 522.991 262.832 1
21 9 -12 777.051 251.816 3
9 -12 21 495.485 280.866 1
12 -10 -21 1948.82 313.67 2
10 -12 21 2530.91 599.371 1
-12 -10 21 1925.38 453.939 1
21 10 -12 2806.61 430.799 3
11 -12 21 329.355 126.816 1
-12 -11 21 222.685 266.233 1
21 11 -12 472.443 227.1 3
-12 -12 21 339.765 215.227 1
21 12 -12 159.114 126.733 3
-12 -13 21 186.125 225.094 1
21 13 -12 178.165 130.999 3
11 -13 -21 276.334 138.445 2
-11 -13 21 239.938 148.952 1
21 13 -11 460.507 176.756 3
-10 -13 21 89.6528 142.74 1
21 13 -10 130.865 136.418 3
9 -13 -21 531.091 170.109 2
-9 -13 21 662.286 256.648 1
21 13 -9 554.112 217.25 3
8 -13 -21 7.71546 65.8945 2
-8 -13 21 90.6431 313.629 1
8 -21 13 62.6984 147.025 1
21 13 -8 248.353 160.438 3
7 -13 -21 681.038 256.855 2
-7 -13 21 703.582 297.007 1
21 13 -7 630.576 250.121 3
7 -21 13 203.243 133.551 1
6 -13 -21 456.612 154.9 2
6 -21 13 670.971 301.042 1
-6 -13 21 644.906 262.863 1
21 13 -6 519.351 272.581 3
5 -13 -21 1468.82 274.956 2
21 13 -5 886.718 263.058 3
5 -21 13 1199.9 382.212 1
-5 -13 21 874.067 246.748 1
-4 -13 21 148.857 222.209 1
4 -13 -21 151.901 103.437 2
21 13 -4 7.12366 65.1903 3
4 -21 13 -103.456 86.7323 1
21 -3 -13 -4.88456 112.331 3
-3 -13 21 63.777 149.397 1
3 -21 13 50.9978 107.803 1
3 -13 -21 80.7524 104.336 2
21 13 -3 84.7406 131.724 3
-2 -13 21 621.23 284.938 1
2 -21 13 490.508 189.377 1
21 -2 -13 520.056 165.899 3
2 -13 -21 430.774 156.091 2
21 13 -2 666.139 195.171 3
1 -21 13 806.878 309.231 1
21 -1 -13 646.256 195.986 3
1 -13 -21 626.91 209.435 2
21 13 -1 361.068 238.017 3
-1 -13 21 438.362 199.641 1
0 -13 21 29.41 238.385 1
0 -21 13 77.4845 113.816 1
21 0 -13 -101.426 104.936 3
21 13 0 32.9963 153.87 3
-1 -21 13 826.513 300.959 1
1 -13 21 114.591 169.059 1
21 1 -13 463.112 136.433 3
21 13 1 496.692 154.445 3
2 -13 21 725.431 358.257 1
21 2 -13 688.022 214.387 3
-2 -21 13 695.747 328.244 1
21 13 2 421.697 140.996 3
13 -3 -21 343.523 171.515 2
3 -13 21 163.813 296.6 1
21 3 -13 -72.1038 153.155 3
-3 -21 13 145.479 173.737 1
21 13 3 28.3249 111.767 3
13 -4 -21 196.452 162.208 2
4 -13 21 -17.5905 97.6933 1
21 4 -13 221.553 179.029 3
21 13 4 13.0658 136.573 3
-4 -21 13 45.5555 158.251 1
13 -5 -21 1325.62 286.659 2
-5 -21 13 1072.6 363.313 1
5 -13 21 1289.4 403.332 1
21 5 -13 1123.9 259.461 3
21 13 5 867.411 235.809 3
13 -6 -21 490.815 195.813 2
6 -13 21 578.892 199.633 1
21 6 -13 629.413 199.026 3
-6 -21 13 680.147 303.913 1
7 -13 21 296.82 164.821 1
21 7 -13 648.628 185.163 3
-7 -21 13 454.166 174.243 1
21 8 -13 30.9138 161.825 3
8 -13 21 183.452 240.726 1
-13 -9 21 437.46 272.888 1
9 -13 21 477.595 182.224 1
21 9 -13 395.963 90.1342 3
-13 -10 21 258.398 176.504 1
10 -13 21 717.559 308.92 1
21 10 -13 819.758 248.033 3
11 -13 21 318.252 205.656 1
21 11 -13 280.059 112.734 3
-13 -11 21 281.027 122.998 1
21 12 -13 -366.758 213.508 3
12 -13 21 -110.368 103.873 1
-13 -13 21 302.989 195.233 1
21 13 -13 549.213 197.909 3
-13 -14 21 331.179 296.629 1
21 14 -13 462.464 207.085 3
-12 -14 21 143.327 127.762 1
21 14 -12 198.008 124.219 3
-11 -14 21 -350.075 257.461 1
21 14 -11 207.226 126.044 3
10 -14 -21 207.986 104.434 2
-10 -14 21 183.674 94.6922 1
21 14 -10 337.276 225.348 3
9 -14 -21 1106.16 202.845 2
9 -21 14 1323.25 402.184 1
-9 -14 21 983.257 342.449 1
21 14 -9 1221.11 316.949 3
8 -21 14 733.709 314.277 1
-8 -14 21 1380.78 450.537 1
8 -14 -21 908.458 229.431 2
21 14 -8 738.791 309.439 3
7 -14 -21 318.577 149.006 2
-7 -14 21 118.585 93.1176 1
21 14 -7 212.536 106.521 3
7 -21 14 133.49 101.486 1
6 -14 -21 440.727 108.505 2
-6 -14 21 484.781 307.281 1
6 -21 14 919.923 367.098 1
21 14 -6 483.704 203.433 3
5 -14 -21 214.504 99.2436 2
-5 -14 21 196.28 164.145 1
21 14 -5 36.4797 96.799 3
4 -21 14 208.315 63.9341 1
-4 -14 21 205.788 180.804 1
4 -14 -21 244.513 154.992 2
21 14 -4 138.465 95.0978 3
3 -14 -21 139.254 58.0191 2
21 14 -3 -15.1423 91.7903 3
-3 -14 21 228.478 68.2634 1
21 -2 -14 189.41 159.879 3
2 -21 14 312.327 154.839 1
2 -14 -21 202.224 68.2085 2
-2 -14 21 -54.7875 159.673 1
21 14 -2 53.6801 130.582 3
1 -14 -21 -6.35 60.9952 2
1 -21 14 -116.789 208.969 1
21 -1 -14 261.591 170.314 3
21 14 -1 61.9843 176.935 3
-1 -14 21 49.7905 106.202 1
0 -21 14 368.899 157.938 1
21 0 -14 597.724 226.578 3
21 14 0 550.881 202.638 3
0 -14 21 713.087 246.789 1
1 -14 21 166.713 73.2921 1
-1 -21 14 217.19 264.976 1
21 1 -14 56.2067 59.9691 3
21 14 1 -5.54499 93.0644 3
2 -14 21 624.482 286.245 1
21 2 -14 399.736 137.362 3
21 14 2 53.2267 129.799 3
-2 -21 14 22.6699 154.54 1
-3 -21 14 353.49 229.749 1
21 3 -14 100.101 113.312 3
3 -14 21 -61.1187 122.912 1
21 14 3 245.783 171.063 3
-4 -21 14 -92.4643 68.2116 1
4 -14 21 -38.0061 126.221 1
21 4 -14 91.3336 94.2758 3
21 14 4 3.26352 74.7403 3
5 -14 21 -155.728 178.704 1
21 5 -14 95.6914 141.653 3
21 14 5 132.386 95.9612 3
-5 -21 14 -46.7875 172.559 1
21 6 -14 459.369 148.92 3
6 -14 21 492.852 206.015 1
-6 -21 14 739.891 296.132 1
7 -14 21 -232.328 139.843 1
-7 -21 14 -95.7734 125.862 1
21 8 -14 1155.54 261.002 3
8 -14 21 801.47 324.938 1
-8 -21 14 920.018 363.85 1
21 9 -14 1184.96 273.008 3
9 -14 21 1521.28 468.235 1
-9 -21 14 862.854 328.181 1
10 -14 21 136.804 104.677 1
21 10 -14 149.576 105.489 3
-11 -21 14 431.359 301.59 1
21 11 -14 164.751 62.6129 3
11 -14 21 341.241 175.21 1
-14 -12 21 275.588 258.396 1
12 -14 21 238.742 93.0827 1
21 12 -14 118.331 84.6872 3
-12 -21 14 676.582 604.617 1
-14 -13 21 448.779 283.29 1
-13 -21 14 -12.6077 147.905 1
21 13 -14 40.6572 138.171 3
21 14 -14 478.24 201.858 3
21 15 -14 238.053 216.677 3
21 15 -13 34.8086 100.384 3
-12 -15 21 218.398 160.409 1
21 15 -12 778.408 243.068 3
21 15 -11 368.112 198.656 3
-11 -15 21 153.843 153.296 1
10 -15 -21 380.272 158.138 2
21 15 -10 367.569 236.641 3
-10 -15 21 315.177 212.949 1
9 -21 15 64.247 244.141 1
9 -15 -21 -47.2597 102.873 2
-9 -15 21 -130.513 197.847 1
21 15 -9 32.0826 81.9453 3
8 -15 -21 1265.86 238.632 2
-8 -15 21 1163.56 421.467 1
8 -21 15 878.58 327.158 1
21 15 -8 1603.64 387.574 3
7 -21 15 325.317 173.389 1
7 -15 -21 -20.5715 75.1079 2
-7 -15 21 76.6448 148.074 1
21 15 -7 13.6133 88.7213 3
-6 -15 21 521.059 232.123 1
6 -15 -21 467.97 136.945 2
6 -21 15 610.689 283.848 1
21 15 -6 345.955 172.509 3
-5 -15 21 285.81 209.237 1
5 -15 -21 222.849 136.349 2
5 -21 15 381.297 262.857 1
21 15 -5 168.361 116.186 3
4 -21 15 577.893 278.367 1
4 -15 -21 823.421 199.643 2
-4 -15 21 741.121 355.032 1
21 15 -4 719.486 210.223 3
3 -15 -21 221 163.927 2
3 -21 15 159.754 88.8245 1
21 15 -3 401.766 147.314 3
-3 -15 21 382.29 149.882 1
21 -2 -15 626.109 818.508 3
2 -15 -21 208.255 166.711 2
2 -21 15 392.218 249.044 1
21 15 -2 55.3684 90.0768 3
-2 -15 21 368.523 222.328 1
-1 -15 21 344.778 148.988 1
1 -21 15 110.704 102.555 1
21 -1 -15 202.038 282.65 3
1 -15 -21 295.442 133.798 2
21 15 -1 160.626 129.637 3
21 15 0 327.893 184.232 3
0 -21 15 642.8 224.93 1
21 0 -15 638.871 245.096 3
0 -15 -21 333.689 167.835 2
0 -15 21 856.119 384.099 1
1 -15 21 171.396 193.828 1
21 1 -15 195.457 129.342 3
21 15 1 112.3 106.491 3
2 -15 21 222.046 258.68 1
-2 -21 15 106.865 106.78 1
21 2 -15 338.061 180.367 3
21 15 2 267.809 157.702 3
-3 -21 15 817.742 367.498 1
3 -15 21 248.742 147.986 1
21 3 -15 498.306 194.116 3
21 15 3 311.099 160.103 3
-4 -21 15 894.922 329.017 1
21 4 -15 629.396 201.195 3
21 15 4 393.926 203.353 3
-5 -21 15 182.315 161.748 1
5 -15 21 383.084 190.904 1
21 5 -15 45.984 111.975 3
21 15 5 204.779 135.73 3
-6 -21 15 202.609 176.751 1
21 6 -15 219.018 92.658 3
6 -15 21 292.535 113.898 1
-7 -21 15 -75.9241 105.563 1
21 7 -15 84.4248 81.8311 3
8 -15 21 1481.42 449.683 1
21 8 -15 1763.6 316.989 3
-8 -21 15 1063.24 407.72 1
9 -15 21 -124.185 219.043 1
21 9 -15 218.346 166.677 3
-9 -21 15 -124.459 269.779 1
21 10 -15 311.87 190.442 3
-10 -21 15 537.297 320.829 1
10 -15 21 390.765 208.417 1
11 -15 21 305.408 91.8532 1
21 11 -15 725.289 199.667 3
12 -15 21 495.162 293.598 1
21 12 -15 369.274 194.476 3
-12 -21 15 317.878 304.023 1
21 13 -15 21.4792 133.036 3
21 14 -15 312.024 186.99 3
21 15 -15 2289.77 402.022 3
15 15 -21 2063.92 318.034 3
16 15 -21 17.0278 110.393 3
21 16 -15 218.153 157.836 3
16 14 -21 727.183 198.739 3
21 16 -14 887.471 253.162 3
16 13 -21 290.003 161.295 3
21 16 -13 -208.117 98.8929 3
21 16 -12 682.649 236.013 3
-11 -16 21 -85.812 206.648 1
21 16 -11 280.723 157.027 3
21 16 -10 708.861 212.563 3
-10 -16 21 557.378 177.969 1
-9 -16 21 84.8132 94.9024 1
9 -16 -21 326.625 116.817 2
9 -21 16 233.605 198.864 1
21 16 -9 136.193 219.149 3
8 -16 -21 25.3078 75.0331 2
8 -21 16 74.1889 155.576 1
-8 -16 21 208.995 225.943 1
21 16 -8 -61.1638 65.8637 3
7 -21 16 -69.9554 125.078 1
7 -16 -21 336.969 151.547 2
-7 -16 21 111.812 189.723 1
21 16 -7 101.874 198.84 3
6 -16 -21 540.088 201.447 2
-6 -16 21 1024.69 382.678 1
21 16 -6 633.428 205.327 3
6 -21 16 543.523 309.763 1
5 -16 -21 23.144 84.7391 2
-5 -16 21 -126.598 173.37 1
5 -21 16 338.033 325.94 1
21 16 -5 0.33431 100.271 3
4 -16 -21 -86.4628 64.094 2
-4 -16 21 221.738 206.895 1
4 -21 16 89.3622 276.283 1
21 16 -4 55.3997 160.132 3
3 -16 -21 35.9908 69.455 2
3 -21 16 -10.5759 216.625 1
-3 -16 21 94.9163 168.091 1
21 16 -3 151.398 161.904 3
2 -16 -21 389.855 87.9474 2
2 -21 16 313.679 238.406 1
21 16 -2 120.233 145.526 3
-2 -16 21 638.247 327.164 1
21 -1 -16 -254.485 179.532 3
1 -21 16 -39.1819 203.529 1
1 -16 -21 252.23 122.41 2
-1 -16 21 253.717 194.247 1
21 16 -1 128.158 116.634 3
0 -21 16 274.579 292.865 1
21 0 -16 164.622 141.043 3
0 -16 -21 -76.7209 99.4155 2
21 16 0 13.0553 82.2067 3
0 -16 21 -34.6404 116.469 1
-1 -21 16 -87.6882 290.346 1
1 -16 21 157.943 260.86 1
-1 -16 -21 -6.67035 118.88 2
21 16 1 0.57589 75.1976 3
21 1 -16 2.63621 85.8877 3
2 -16 21 444.855 233.232 1
-2 -21 16 1103.49 403.837 1
21 2 -16 523.19 168.233 3
21 16 2 389.672 234.049 3
3 -16 21 163.215 193.75 1
-3 -21 16 17.1148 158.994 1
21 3 -16 375.906 172.936 3
21 16 3 59.4488 117.651 3
4 -16 21 -99.8577 142.508 1
-4 -21 16 162.798 137.444 1
21 4 -16 105.132 161.311 3
21 16 4 257.181 174.791 3
21 16 5 73.9143 59.572 3
-5 -21 16 -142.467 180.648 1
21 5 -16 -36.5224 103.659 3
5 -16 21 -7.46716 146.251 1
-6 -21 16 477.674 219.492 1
21 6 -16 656.329 212.365 3
6 -16 21 855.07 307.057 1
-7 -21 16 65.9974 74.6086 1
21 7 -16 343.86 191.066 3
7 -16 21 443.621 381.578 1
-8 -21 16 64.4939 108.115 1
21 8 -16 123.558 76.7456 3
8 -16 21 11.8445 188.417 1
-9 -21 16 256.856 272.327 1
21 9 -16 252.217 190.709 3
9 -16 21 375.618 191.804 1
-10 -21 16 213.566 137.801 1
21 10 -16 451.772 128.779 3
10 -16 21 483.423 244.652 1
21 11 -16 85.9377 122.662 3
11 -16 21 -204.355 269.35 1
21 12 -16 639.601 211.653 3
13 16 -21 67.2543 84.6446 3
21 13 -16 134.454 135.773 3
14 16 -21 549.17 157.505 3
21 14 -16 793.747 223.354 3
21 15 -16 175.84 113.122 3
15 16 -21 -274.575 176.935 3
21 16 -16 -103.786 129.808 3
16 16 -21 -77.1836 62.6815 3
16 21 -17 1087.74 243.752 3
21 17 -16 1084.95 292.234 3
21 17 -15 59.986 91.3675 3
17 15 -21 226.456 120.078 3
17 14 -21 408.612 167.294 3
21 17 -14 269.553 169.67 3
17 13 -21 433.704 141.397 3
21 17 -13 564.991 231.554 3
21 17 -12 331.818 101.917 3
17 12 -21 454.975 151.551 3
21 17 -11 149.067 169.556 3
21 17 -10 377.012 189.827 3
21 17 -9 351.52 219.271 3
-9 -17 21 553.15 323.007 1
8 -17 -21 635.933 185.158 2
8 -21 17 397.218 165.865 1
-8 -17 21 627.76 378.204 1
21 17 -8 464.717 220.533 3
7 -17 -21 -225.186 154.972 2
7 -21 17 -4.71606 194.438 1
-7 -17 21 142.115 191.098 1
21 17 -7 66.0108 144.735 3
6 -21 17 995.811 321.849 1
6 -17 -21 1156.05 225.719 2
-6 -17 21 1371.02 509.735 1
21 17 -6 921.094 260.488 3
5 -17 -21 -175.983 113.241 2
-5 -17 21 86.1766 133.563 1
21 17 -5 5.08269 87.3667 3
5 -21 17 71.0098 89.9185 1
4 -17 -21 -46.1779 111.588 2
-4 -17 21 229.743 100.34 1
4 -21 17 198.745 244.704 1
21 17 -4 -2.66012 81.7807 3
3 -17 -21 270.036 129.557 2
3 -21 17 198.399 151.459 1
-3 -17 21 496.23 240.472 1
21 17 -3 118.176 135.024 3
2 -17 -21 330.002 147.857 2
-2 -17 21 480.678 344.491 1
2 -21 17 -38.8553 148.313 1
21 17 -2 153.608 125.111 3
21 -1 -17 19.6468 72.2637 3
1 -21 17 -58.8639 152.245 1
1 -17 -21 -171.899 118.384 2
-1 -17 21 -179.079 161.642 1
21 17 -1 -1.54995 134.884 3
21 0 -17 532.142 232.76 3
0 -21 17 1374.83 405.754 1
0 -17 -21 712.601 229.858 2
0 -17 21 1089.74 367.207 1
21 17 0 777.201 232.079 3
1 -17 21 -21.1825 200.656 1
-1 -17 -21 -79.9402 129.463 2
-1 -21 17 -95.6818 218.34 1
21 1 -17 56.1984 85.7606 3
21 17 1 27.1862 52.774 3
2 -17 21 290.881 181.412 1
-2 -21 17 339.198 246.325 1
21 2 -17 148.109 97.0634 3
21 17 2 69.0105 145.229 3
3 -17 21 555.968 267.986 1
-3 -21 17 430.911 218.16 1
21 17 3 3.00006 97.0401 3
21 3 -17 -108.64 78.3775 3
-4 -21 17 -188.077 170.493 1
4 -17 21 -78.6448 179.293 1
21 4 -17 -282.216 152.227 3
21 17 4 28.0801 76.0364 3
21 5 -17 -50.6574 102.265 3
-5 -21 17 127.585 144.417 1
21 17 5 6.7914 63.9675 3
-6 -21 17 921.141 247.528 1
21 6 -17 1228.76 273.742 3
6 -17 21 1651.09 466.55 1
-7 -21 17 529.347 280.374 1
7 -17 21 14.0252 226.631 1
21 7 -17 93.9486 92.1252 3
8 -17 21 473.649 157.274 1
-8 -21 17 356.863 231.528 1
21 8 -17 718.276 258.021 3
-9 -21 17 373.668 247.339 1
9 -17 21 654.212 298.725 1
21 9 -17 369.455 176.914 3
21 10 -17 1274.54 299.988 3
21 11 -17 42.4614 52.8709 3
21 12 -17 577.031 234.931 3
12 17 -21 465.391 181.034 3
21 13 -17 647.845 229.187 3
13 17 -21 328.073 125.424 3
14 17 -21 632.546 202.9 3
21 14 -17 435.246 201.252 3
15 17 -21 420.358 232.697 3
21 15 -17 -157.011 115.684 3
17 21 -16 712.836 256.335 3
21 16 -17 813.15 203.249 3
17 17 -21 3921.09 461.258 3
21 17 -17 4320.61 501.877 3
17 21 -17 4518.22 508.41 3
21 18 -17 214.942 148.836 3
17 21 -18 30.1998 137.391 3
18 17 -21 -67.5253 120.181 3
18 16 -21 167.437 174.01 3
21 18 -16 66.6879 110.939 3
16 21 -18 329.507 208.412 3
18 15 -21 1291.35 334.687 3
21 18 -15 70.8011 135.407 3
18 14 -21 582.53 189.206 3
21 18 -14 661.648 191.97 3
21 18 -13 326.081 211.99 3
18 13 -21 238.111 155.021 3
18 12 -21 -70.5937 45.5724 3
21 18 -12 241.238 97.4057 3
18 11 -21 162.888 63.4388 3
21 18 -11 129.808 132.191 3
21 18 -10 474.701 253.056 3
21 18 -9 212.37 241.317 3
8 -21 18 -108.218 251.062 1
21 18 -8 15.9901 116.732 3
7 -21 18 -214.719 246.275 1
21 18 -7 -12.3231 82.1178 3
6 -21 18 246.193 176.027 1
-6 -18 21 -135.321 205.354 1
21 18 -6 49.7208 86.4449 3
5 -21 18 1172.94 425.816 1
-5 -18 21 1370.69 392.105 1
21 18 -5 1121.35 290.235 3
21 18 -4 174.869 217.101 3
-4 -18 21 268.688 153.92 1
4 -21 18 12.5043 203.103 1
21 18 -3 -2.96512 76.8937 3
3 -21 18 78.5113 196.773 1
-2 -18 21 839.338 318.842 1
2 -21 18 470.083 230.597 1
21 18 -2 224.348 173.166 3
1 -21 18 209.579 69.866 1
-1 -18 21 194.002 295.192 1
21 18 -1 24.4765 110.424 3
21 0 -18 535.895 189.571 3
0 -21 18 424.298 269.533 1
0 -18 21 554.922 230.811 1
21 18 0 153.496 176.327 3
-1 -21 18 -82.058 158.669 1
21 1 -18 -96.1108 169.06 3
21 18 1 53.8478 125.042 3
1 -18 21 -25.8796 196.516 1
2 -18 21 -39.9027 138.827 1
21 2 -18 212.365 169.607 3
-2 -21 18 325.24 241.628 1
21 18 2 370.775 161.564 3
-3 -21 18 123.175 82.5576 1
3 -18 21 -249.773 232.976 1
21 3 -18 165.661 128.779 3
21 18 3 53.2213 126.223 3
21 4 -18 211.723 57.8658 3
-4 -21 18 276.85 175.208 1
21 18 4 26.2064 95.9605 3
-5 -21 18 2019.82 542.095 1
21 5 -18 1744.8 306.306 3
5 -18 21 1092.38 348.545 1
21 18 5 1029.97 262.329 3
-6 -21 18 167.817 211.298 1
6 -18 21 -306.434 305.938 1
21 6 -18 64.4455 123.189 3
21 7 -18 264.419 124.432 3
7 -18 21 163.162 212.396 1
21 8 -18 49.5837 93.0759 3
21 9 -18 739.569 216.376 3
21 10 -18 266.338 115.025 3
21 11 -18 28.3818 72.7746 3
12 18 -21 19.2502 52.6029 3
21 12 -18 156.071 90.4278 3
21 13 -18 357.125 184.266 3
13 18 -21 367.445 202.248 3
21 14 -18 484.026 195.695 3
14 18 -21 806.259 244.296 3
18 21 -14 657.789 208.163 3
21 15 -18 46.4899 155.851 3
18 21 -15 -35.8799 85.5617 3
21 16 -18 260.661 105.765 3
16 18 -21 223.513 115.139 3
18 21 -16 -51.6098 94.7792 3
21 17 -18 283.375 147.176 3
17 18 -21 235.389 81.5972 3
18 21 -17 25.841 81.3655 3
18 18 -21 74.0227 87.8722 3
18 21 -18 178.693 109.468 3
21 19 -18 301.983 154.612 3
19 18 -21 452.311 171.341 3
18 21 -19 420.995 130.686 3
21 19 -17 -93.5544 116.245 3
19 17 -21 11.8319 55.4014 3
19 16 -21 16.3489 71.0745 3
21 19 -16 127.182 58.6376 3
19 15 -21 801.578 228.228 3
21 19 -15 661.232 192.927 3
15 21 -19 1021.42 267.456 3
19 14 -21 995.893 233.842 3
21 19 -14 1250.14 311.612 3
21 19 -13 364.749 160.378 3
19 13 -21 458.484 173.939 3
19 12 -21 348.366 196.926 3
21 19 -12 285.773 134.162 3
19 11 -21 208.961 121.372 3
21 19 -11 393.061 174.473 3
21 19 -10 711.747 262.698 3
19 10 -21 590.551 212.321 3
21 19 -9 -478.338 185.445 3
21 19 -8 964.348 338.877 3
21 19 -7 2449.11 498.176 3
21 19 -6 1039.43 310.994 3
19 21 5 174.142 140.029 3
21 19 -5 128.139 72.0648 3
4 -21 19 1607.31 506.679 1
21 19 -4 1852.97 375.993 3
19 21 4 1707.44 347.529 3
19 21 3 24.9807 81.9415 3
-3 -19 21 32.3722 143.955 1
3 -21 19 192.185 199.574 1
21 19 -3 91.9587 151.622 3
2 -21 19 1337.75 390.869 1
-2 -19 21 1220.68 365.236 1
21 19 -2 618.667 260.087 3
21 19 -1 161.368 154.809 3
1 -21 19 636.524 409.377 1
-1 -19 21 385.221 240.961 1
0 -21 19 58.8009 183.214 1
0 -19 21 234.86 182.17 1
21 19 0 12.3071 80.7596 3
1 -19 21 468.629 279.595 1
21 1 -19 79.6597 110.055 3
-1 -21 19 420.361 243.107 1
21 19 1 69.7792 69.8327 3
2 -19 21 1752.48 505.848 1
21 2 -19 1025.66 229.354 3
-2 -21 19 2037.15 531.706 1
21 19 2 1273.1 282.977 3
21 3 -19 183.535 154.116 3
3 -19 21 193.307 98.5631 1
-3 -21 19 509.956 245.07 1
21 19 3 228.641 111.715 3
21 19 4 1439.29 307.686 3
4 -19 21 1318.63 424.084 1
21 4 -19 1964.8 360.101 3
21 5 -19 283.297 146.847 3
21 19 5 85.6641 69.4248 3
21 6 -19 768.097 230.29 3
21 7 -19 2507.95 363.83 3
21 8 -19 1522.87 302.061 3
21 9 -19 60.4917 68.7753 3
21 10 -19 273.069 126.198 3
21 11 -19 331.015 170.902 3
19 21 -12 476.741 239.172 3
12 19 -21 347.722 186.439 3
21 12 -19 433.679 169.917 3
21 13 -19 167.685 114.293 3
13 19 -21 294.346 151.936 3
19 21 -13 263.06 159.892 3
21 14 -19 1027.11 262.056 3
14 19 -21 928.158 215.775 3
19 21 -14 855.125 234.064 3
21 15 -19 1047.85 244.092 3
15 19 -21 990.558 233.937 3
19 21 -15 980.084 267.206 3
16 19 -21 83.2642 91.7488 3
21 16 -19 375.289 163.968 3
19 21 -16 179.591 126.564 3
21 17 -19 66.4483 53.0377 3
17 19 -21 160.556 135.049 3
19 21 -18 227.166 127.209 3
21 18 -19 638.765 205.747 3
18 19 -21 614.593 192.676 3
19 21 -19 2624.2 376.496 3
19 19 -21 1829.51 333.368 3
21 19 -19 1833.68 307.799 3
20 19 -21 405.745 127.717 3
21 20 -19 136.961 139.693 3
19 21 -20 351.704 142.638 3
20 18 -21 338.718 174.413 3
18 21 -20 362.532 68.3784 3
17 21 -20 269.849 126.958 3
20 17 -21 357.814 122.536 3
21 20 -17 658.758 230.873 3
20 16 -21 277.896 154.731 3
21 20 -16 338.698 130.23 3
16 21 -20 460.249 195.807 3
21 20 -15 303.523 141.912 3
20 15 -21 366.639 136.258 3
15 21 -20 312.313 143.153 3
20 14 -21 111.491 73.2552 3
21 20 -14 417.08 169.702 3
14 21 -20 421.902 178.649 3
20 13 -21 299.318 153.135 3
21 20 -13 667.261 211.553 3
20 12 -21 806.322 196.945 3
21 20 -12 1017.62 286.558 3
20 11 -21 335.696 142.088 3
21 20 -11 294.984 142.625 3
20 10 -21 203.793 114.158 3
21 20 -10 502.527 222.924 3
20 9 -21 304.151 162.852 3
21 20 -9 110.587 135.683 3
21 20 -8 348.862 189.927 3
21 20 -7 920.994 283.226 3
21 20 -6 67.7736 88.4263 3
20 21 5 91.2205 135.837 3
21 20 -5 117.939 152.496 3
20 21 4 482.779 192.009 3
21 20 -4 482.554 239.143 3
20 21 3 849.986 282.128 3
21 20 -3 1399.31 348.741 3
20 21 2 637.079 272.803 3
21 20 -2 604.767 233.283 3
21 20 -1 75.2762 150.369 3
20 21 1 85.0612 67.4665 3
20 21 0 454.182 220.925 3
21 20 0 604.796 247.278 3
20 21 -1 87.9691 140.491 3
21 20 1 151.044 100.149 3
20 21 -2 564.814 243.212 3
21 20 2 525.632 240.762 3
21 20 3 995.584 297.366 3
21 4 -20 738.152 209.471 3
21 20 4 477.773 168.893 3
21 5 -20 200.158 220.031 3
21 20 5 34.9731 69.3233 3
21 6 -20 84.1019 106.071 3
20 21 -7 709.252 308.388 3
21 7 -20 1262.92 280.707 3
20 21 -8 618.479 226.487 3
21 8 -20 547.255 184.591 3
21 9 -20 -8.06535 93.8843 3
20 21 -9 92.1223 167.311 3
21 10 -20 322.876 127.254 3
20 21 -10 184.515 95.5021 3
21 11 -20 451.25 173.073 3
20 21 -11 483.785 190.374 3
21 12 -20 1078.57 279.174 3
20 21 -12 1234.72 305.213 3
21 13 -20 296.547 134.723 3
20 21 -13 324.97 155.204 3
13 20 -21 448.064 153.834 3
21 14 -20 637 206.393 3
20 21 -14 216.766 75.7032 3
14 20 -21 447.79 169.654 3
15 20 -21 177.895 103.906 3
20 21 -15 159.635 68.3674 3
21 16 -20 183.144 46.7307 3
20 21 -16 489.956 205.904 3
16 20 -21 228.567 139.683 3
21 17 -20 140.418 64.9933 3
17 20 -21 322.702 184.947 3
20 21 -17 457.208 230.919 3
21 18 -20 353.485 138.913 3
18 20 -21 298.446 137.084 3
20 21 -19 223.632 71.2846 3
21 19 -20 125.464 65.3184 3
19 20 -21 262.297 93.7104 3
20 20 -21 241.71 90.8342 3
21 20 -20 152.666 118.814 3
20 21 -20 191.006 100.821 3
21 21 0 1417.83 296.599 3
21 21 1 60.548 130.167 3
21 21 -1 28.5251 154.189 3
21 21 2 614.643 265.265 3
21 21 -2 1102.14 268.191 3
21 21 3 -24.0479 73.6214 3
21 21 -3 -0.66402 90.3927 3
21 21 4 631.165 240.58 3
21 21 -4 808.869 287.713 3
21 21 5 -22.6016 112.169 3
21 21 -5 123.238 173.132 3
21 21 -6 2156.73 445.079 3
21 7 -21 172.498 87.3641 3
21 21 -7 184.858 187.092 3
21 8 -21 322.645 166.486 3
21 21 -8 -37.2695 130.25 3
21 9 -21 2239.75 343.654 3
21 21 -9 1870.49 363.278 3
21 10 -21 -2.18174 112.548 3
21 21 -10 182.701 144.461 3
21 11 -21 305.736 146.683 3
21 21 -11 191.349 119.67 3
21 12 -21 182.647 119.353 3
21 21 -12 321.388 137.424 3
21 21 -13 716.162 218.959 3
21 13 -21 672.497 180.456 3
13 21 -21 428.297 143.374 3
21 21 -14 418.971 133.412 3
21 14 -21 444.561 168.293 3
14 21 -21 212.873 119.018 3
21 21 -15 41.8088 73.6538 3
15 21 -21 179.265 79.023 3
21 16 -21 913.221 228.3 3
21 21 -16 990.745 232.38 3
16 21 -21 776.66 193.713 3
21 21 -17 481.876 156.672 3
21 17 -21 560.3 199.815 3
17 21 -21 455.969 138.792 3
21 18 -21 480.757 161.128 3
18 21 -21 261.053 100.241 3
21 21 -18 550.25 138.773 3
21 21 -19 34.3471 75.4998 3
21 19 -21 181.123 142.354 3
19 21 -21 263.347 166.594 3
21 21 -20 288.238 141.086 3
20 21 -21 21.774 122.435 3
21 20 -21 0.2166 83.7013 3
21 21 -21 291.59 193.501 3
0 0 22 -59.4524 82.5415 1
-1 0 22 3255.38 570.07 1
0 -1 22 2988.25 532.125 1
-1 -1 22 -30.3649 131.703 1
1 -1 22 -263.803 256.951 1
2 -1 22 463.15 253.314 1
-1 -2 22 590.725 228.211 1
-2 0 22 5107.93 693.87 1
0 -2 22 5258.36 720.738 1
-2 -1 22 907.373 275.443 1
1 -2 22 671.81 246.702 1
2 -2 22 408.002 284.455 1
-2 -2 22 395.681 258.256 1
3 -2 22 2885.67 554.143 1
-2 -3 22 2937.7 528.342 1
-1 -3 22 524.557 227.146 1
-3 1 22 942.775 308.574 1
0 -3 22 347.259 213.795 1
-3 0 22 128.114 228.843 1
-3 -1 22 545.713 160.101 1
1 -3 22 541.043 241.517 1
-3 -2 22 2456.95 469.65 1
2 -3 22 3029.55 557.125 1
3 -3 22 391.666 243.019 1
-3 -3 22 51.0468 92.7196 1
22 -3 -4 122.959 88.3959 3
4 -3 22 90.8058 121.333 1
3 -4 -22 129.84 127.714 2
-3 -4 22 -27.0694 143.711 1
-2 -4 22 1195.56 339.659 1
4 -2 22 1564.68 381.245 1
-1 -4 22 1300.76 350.593 1
-4 1 22 1275.72 323.49 1
0 -4 22 844.39 256.31 1
-4 0 22 853.87 298.273 1
1 -4 22 1274.42 308.616 1
-4 -1 22 1051.06 314.754 1
-4 -2 22 1432.33 364.693 1
2 -4 22 1653.22 415.708 1
-4 -3 22 98.7384 205.997 1
3 -4 22 103.628 156.037 1
4 -3 -22 289.448 86.763 2
4 -4 22 567.447 251.727 1
4 -4 -22 689.361 210.672 2
22 4 -4 606.069 215.058 3
-4 -4 22 511.062 200.156 1
5 -4 22 1083.4 344.954 1
22 5 -4 733.601 239.807 3
-4 -5 22 981.002 337.21 1
4 -5 -22 597.255 173.925 2
4 -22 5 644.421 297.828 1
22 -3 -5 2068.18 386.158 3
5 -3 22 2787.18 519.444 1
22 5 -3 2680.06 365.782 3
3 -5 -22 2967.22 424.992 2
-3 -5 22 2697.93 525.4 1
22 -2 -5 1042.73 263.903 3
-2 -5 22 812.654 270.736 1
-5 1 22 820.941 248.623 1
22 -1 -5 153.297 128.166 3
-1 -5 22 528.237 234.434 1
22 0 -5 1589.85 295.087 3
-5 0 22 1898.25 406.985 1
0 -5 22 1455.81 400.961 1
1 -5 22 640.158 269.221 1
22 1 -5 358.117 215.998 3
-5 -1 22 475.073 196.401 1
-5 -2 22 919.819 285.732 1
5 -2 -22 1086.57 264.919 2
22 2 -5 1052.98 270.564 3
2 -5 22 898.372 281.61 1
3 -5 22 2707.24 525.495 1
22 3 -5 3094.76 417.393 3
5 -3 -22 2168.66 377.459 2
-5 -3 22 2610.71 494.802 1
4 -5 22 899.058 253.973 1
5 -4 -22 651.082 198.422 2
-5 -4 22 1143.95 316.571 1
22 4 -5 899.497 252.867 3
5 -22 4 816.518 241.827 1
5 -22 5 99.3025 195.413 1
5 -5 22 37.4894 143.131 1
5 -5 -22 -34.6616 116.109 2
22 5 -5 23.8135 95.2344 3
-5 -5 22 3.15705 173.004 1
5 -22 6 -21.3553 144.671 1
6 -5 22 51.2455 141.394 1
5 -6 -22 197.743 155.527 2
6 5 -22 5.46468 45.8397 2
-5 -6 22 -198.591 231.462 1
22 6 -5 54.9427 95.2926 3
22 6 -4 13.7838 82.9636 3
6 -4 22 238.57 173.53 1
-4 -6 22 189.489 197.912 1
4 -6 -22 165.288 181.781 2
6 4 -22 86.4761 99.6061 2
4 -22 6 262.847 213.589 1
22 -3 -6 297.364 208.871 3
6 3 -22 722.584 205.378 2
-3 -6 22 901.625 316.416 1
3 -6 -22 789.36 219.427 2
3 -22 6 670.48 304.396 1
22 6 -3 971.728 243.808 3
22 6 -2 934.793 262.821 3
6 2 -22 1157 252.318 2
22 -2 -6 1591.34 318.181 3
-2 -6 22 1540.96 421.649 1
6 1 -22 231.888 137.644 2
-6 1 22 627.054 207.355 1
22 -1 -6 168.676 174.698 3
-1 -6 22 323.982 283.956 1
22 6 -1 156.185 88.5758 3
6 0 -22 -16.9631 53.2296 2
0 -6 22 109.457 58.7709 1
22 0 -6 62.0568 104.935 3
6 -1 -22 350.393 160.831 2
22 1 -6 389.021 218.872 3
-6 -1 22 360.521 181.563 1
1 -6 22 561.138 269.945 1
22 2 -6 1689.44 329.977 3
2 -6 22 1785.19 445.076 1
-6 -2 22 1629.6 399.669 1
6 -2 -22 1192.14 264.62 2
3 -6 22 752.181 288.564 1
22 3 -6 715.867 207.094 3
6 -3 -22 870.851 219.434 2
-6 -3 22 438.54 150.25 1
6 -4 -22 183.714 112.94 2
22 4 -6 15.1525 68.4362 3
-6 -4 22 118.893 120.758 1
4 -6 22 329.719 261.983 1
-6 -5 22 111.99 239.85 1
22 5 -6 209.924 160.39 3
6 -5 -22 75.7297 96.7642 2
5 -6 22 50.2812 183.049 1
6 -22 6 122.81 202.38 1
6 6 -22 32.6933 118.342 2
-6 -6 22 -189.813 147.23 1
6 -6 -22 -107.275 133.447 2
6 -6 22 -1.80893 154.296 1
22 6 -6 14.1034 90.8549 3
22 7 -6 54.9332 69.3952 3
-6 -7 22 89.9761 104.867 1
7 6 -22 104.695 55.6755 2
6 -22 7 130.905 141.164 1
7 -6 22 239.244 141.192 1
6 -7 -22 -1.41805 50.8217 2
5 -22 7 293.735 103 1
7 5 -22 211.002 127.378 2
-5 -7 22 300.888 82.9482 1
5 -7 -22 172.637 114.331 2
22 7 -5 560.05 246.935 3
7 -5 22 493.855 232.132 1
4 -7 -22 608.884 217.211 2
7 4 -22 255.435 123.826 2
-4 -7 22 386.105 185.088 1
22 7 -4 357.866 149.291 3
4 -22 7 922.177 280.616 1
22 -3 -7 220.502 142.535 3
7 3 -22 489.583 184.566 2
-3 -7 22 476.52 212.915 1
22 7 -3 808.302 366.934 3
3 -7 -22 671.536 169.095 2
3 -22 7 1026.8 306.275 1
7 2 -22 307.697 160.233 2
22 7 -2 255.571 205.475 3
2 -22 7 432.853 183.134 1
22 -2 -7 478.954 167.034 3
-2 -7 22 220.035 144.849 1
7 1 -22 1181.26 273.167 2
22 7 -1 997.963 244.346 3
-7 1 22 1331.61 367.645 1
-1 -7 22 935.386 301.836 1
22 -1 -7 966.86 237.626 3
7 0 -22 717.128 219.761 2
0 -7 22 916.459 311.201 1
-7 0 22 349.533 117.267 1
22 7 0 701.717 240.593 3
22 0 -7 702.773 219.024 3
7 -1 -22 1366.35 291.689 2
22 1 -7 1212.19 313.475 3
22 7 1 1018.14 220.101 3
-7 -1 22 1506 373.982 1
1 -7 22 1361.63 377.029 1
-7 -2 22 343.775 227.261 1
22 2 -7 191.678 114.981 3
7 -2 -22 337.986 140.752 2
2 -7 22 417.921 258.156 1
3 -7 22 998.457 389.159 1
22 3 -7 568.611 197.234 3
7 -3 -22 601.67 163.631 2
-7 -3 22 667.07 245.856 1
4 -7 22 292.489 212.643 1
7 -4 -22 302.282 114.566 2
-7 -4 22 506.353 236.224 1
22 4 -7 327.195 209.061 3
22 5 -7 191.159 189.639 3
-7 -5 22 512.224 127.627 1
5 -7 22 388.747 204.793 1
7 -5 -22 235.401 140.524 2
6 -7 22 67.1223 137.756 1
6 7 -22 51.8151 56.9553 2
7 -6 -22 54.3926 118.939 2
-7 -6 22 298.316 154.199 1
22 6 -7 182.526 148.327 3
7 -7 22 342.932 260.619 1
7 7 -22 226.586 146.441 2
7 -7 -22 294.341 140.224 2
-7 -7 22 304.663 225.529 1
22 7 -7 74.602 75.9066 3
-7 -8 22 -188.924 171.851 1
8 7 -22 90.71 122.067 2
7 -8 -22 66.8896 123.645 2
22 8 -7 123.859 119.845 3
8 -7 22 -325.13 313.922 1
-6 -8 22 78.136 147.202 1
8 -6 22 191.49 207.623 1
8 6 -22 226.286 143.132 2
6 -22 8 24.3397 173.951 1
6 -8 -22 27.2523 85.802 2
22 8 -6 195.258 165.305 3
-5 -8 22 268.735 115.051 1
8 5 -22 175.175 104.154 2
5 -8 -22 287.951 115.235 2
22 8 -5 153.731 88.866 3
4 -22 8 786.145 282.446 1
4 -8 -22 1640.18 318.403 2
-4 -8 22 1366.12 401.329 1
8 4 -22 1343.39 295.218 2
22 8 -4 1433.26 311.725 3
3 -22 8 -152.399 155.963 1
22 -3 -8 -52.7651 123.123 3
8 3 -22 -7.03324 96.6885 2
-3 -8 22 35.3674 113.594 1
3 -8 -22 318.393 179.103 2
22 8 -3 44.3069 112.67 3
22 -2 -8 919.254 227.308 3
8 2 -22 200.604 112.488 2
-2 -8 22 483.93 192.992 1
22 8 -2 814.711 245.13 3
2 -22 8 815.508 296.572 1
8 1 -22 537.882 228.259 2
22 -1 -8 234.505 150.932 3
22 8 -1 259.298 184.98 3
1 -22 8 309.356 288.524 1
-1 -8 22 728.833 300.532 1
8 0 -22 674.642 188.753 2
-8 0 22 878.491 292.445 1
0 -8 22 864.79 297.639 1
22 0 -8 1241.8 273.295 3
22 8 0 851.663 241.329 3
22 1 -8 319.602 150.105 3
8 -1 -22 339.444 168.055 2
-8 -1 22 544.511 150.774 1
22 8 1 560.545 232.858 3
1 -8 22 536.571 266.088 1
-8 -2 22 660.786 161.758 1
8 -2 -22 810.024 213.632 2
22 2 -8 643.135 189.651 3
2 -8 22 896.823 382.949 1
22 8 2 540.961 174.176 3
22 8 3 17.1341 84.3681 3
8 -3 -22 -59.8844 51.2339 2
22 3 -8 183.251 124.441 3
-8 -3 22 -193.147 55.9952 1
3 -8 22 297.219 184.094 1
8 -4 -22 1196.27 267.694 2
4 -8 22 1400.21 304.469 1
22 4 -8 1247.9 258.58 3
22 8 4 1056 267.756 3
-8 -4 22 1462.46 356.962 1
8 -5 -22 250.652 125.444 2
5 -8 22 118.701 124.755 1
22 8 5 37.8041 81.1448 3
22 5 -8 141.442 74.4847 3
-8 -5 22 120.62 115.403 1
-8 -6 22 281.811 136.945 1
8 -6 -22 252.586 199.531 2
22 6 -8 321.733 176.21 3
6 -8 22 377.787 128.548 1
7 8 -22 -6.60429 105.204 2
-8 -7 22 -24.8224 157.81 1
7 -8 22 349.654 199.914 1
8 -7 -22 98.8488 78.6897 2
22 7 -8 -27.9048 76.2132 3
-8 -8 22 374.832 100.79 1
8 8 -22 544.592 166.698 2
8 -8 -22 365.472 158.93 2
22 8 -8 252.789 185.207 3
8 -8 22 276 244.803 1
9 -8 22 1629.43 396.642 1
8 -9 -22 1742.83 351.26 2
22 9 -8 1561.87 319.591 3
-8 -9 22 1565.32 428.145 1
9 7 -22 314.1 118.399 2
7 -9 -22 180.156 117.29 2
7 -22 9 492.318 301.989 1
9 -7 22 433.482 300.384 1
22 9 -7 63.9597 153.158 3
-7 -9 22 231.21 250.354 1
-6 -9 22 208.37 99.8951 1
9 6 -22 91.1226 87.1303 2
6 -22 9 174.796 81.1636 1
6 -9 -22 5.7953 85.5106 2
22 9 -6 105.709 153.4 3
-5 -9 22 266.491 177.789 1
9 5 -22 -11.1384 93.2456 2
5 -9 -22 -32.0784 94.4834 2
5 -22 9 -5.44898 90.2977 1
22 9 -5 -0.60546 116.899 3
9 4 -22 500.768 172.446 2
4 -22 9 460.981 221.008 1
-4 -9 22 945.941 332.157 1
4 -9 -22 285.849 142.554 2
3 -22 9 544.063 230.629 1
9 3 -22 525.944 157.059 2
-3 -9 22 900.989 333.51 1
22 9 -3 745.55 275.444 3
3 -9 -22 1205.5 264.729 2
22 -3 -9 596.825 203.141 3
2 -22 9 544.984 272.699 1
9 2 -22 175.835 103.572 2
-2 -9 22 355.239 129.504 1
22 9 -2 285.245 140.627 3
22 -2 -9 179.219 74.9939 3
2 -9 -22 467.917 204.5 2
22 -1 -9 901.991 241.056 3
9 1 -22 498.467 221.185 2
-1 -9 22 861.419 317.589 1
22 9 -1 366.229 217.739 3
1 -22 9 755.193 348.466 1
22 0 -9 60.1082 112.508 3
9 0 -22 13.0259 76.1382 2
0 -22 9 227.639 173.626 1
22 9 0 31.8491 119.977 3
22 9 1 276.886 156.367 3
9 -1 -22 627.307 227.073 2
1 -9 22 509.248 191.013 1
22 1 -9 507.95 163.933 3
-9 -2 22 369.804 156.982 1
9 -2 -22 367.302 160.344 2
2 -9 22 615.049 235.914 1
22 9 2 79.8665 102.291 3
22 2 -9 432.653 157.559 3
22 9 3 243.139 197.201 3
9 -3 -22 838.082 233.318 2
22 3 -9 639.027 236.938 3
-9 -3 22 781.234 330.797 1
3 -9 22 1026.12 376.118 1
4 -9 22 870.991 346.855 1
9 -4 -22 807.339 242.633 2
22 9 4 371.725 124.292 3
-9 -4 22 525.127 181.749 1
22 4 -9 486.921 162.512 3
9 -5 -22 -2.55304 91.4941 2
22 5 -9 134.636 128.581 3
-9 -5 22 1.58206 111.359 1
5 -9 22 -209.209 211.186 1
22 9 5 25.0174 39.3878 3
6 -9 22 382.834 133.38 1
-9 -6 22 87.8981 99.2758 1
9 -6 -22 214.07 156.588 2
-9 -7 22 543.756 227.87 1
9 -7 -22 281.892 148.557 2
22 7 -9 340.313 197.235 3
7 -9 22 492.653 269.838 1
-9 -8 22 1916.1 469.116 1
8 -9 22 1701.35 477.79 1
8 9 -22 1166.84 217.068 2
9 -8 -22 1801.61 345.933 2
22 8 -9 1803.38 366.774 3
9 -9 -22 264.375 160.572 2
9 -9 22 268.447 209.416 1
22 9 -9 474.903 224.085 3
-9 -9 22 226.896 67.6258 1
9 -10 -22 262.388 137.126 2
22 10 -9 302.428 179.615 3
-9 -10 22 -53.7855 82.0634 1
10 -9 22 516.306 223.176 1
8 -10 -22 235.264 150.755 2
22 10 -8 145.115 209.128 3
-8 -10 22 134.019 203.445 1
7 -10 -22 161.292 70.7405 2
7 -22 10 318.584 187.201 1
22 10 -7 157.771 106.683 3
-7 -10 22 352.825 233.686 1
10 6 -22 941.215 215.343 2
6 -22 10 1264.47 367.261 1
6 -10 -22 1185.94 277.504 2
22 10 -6 1059.66 285.546 3
-6 -10 22 819.97 339.521 1
10 5 -22 18.3905 55.3121 2
5 -22 10 125.183 166.453 1
5 -10 -22 315.193 175.869 2
22 10 -5 192.715 124.925 3
-5 -10 22 139.159 92.5478 1
-4 -10 22 390.42 237.406 1
10 4 -22 401.079 166.687 2
4 -22 10 574.211 233.263 1
4 -10 -22 533.083 228.448 2
22 10 -4 136.036 83.5973 3
-3 -10 22 219.577 152.353 1
10 3 -22 162.552 94.5816 2
3 -22 10 287.885 191.3 1
22 -3 -10 93.932 118.872 3
3 -10 -22 275.195 192.405 2
22 10 -3 80.4401 156.59 3
2 -22 10 294.38 217.954 1
10 2 -22 237.076 146.782 2
-2 -10 22 130.879 155.936 1
22 -2 -10 447.886 184.799 3
2 -10 -22 123.741 103.811 2
22 10 -2 38.2318 116.718 3
1 -22 10 268.945 73.6033 1
22 -1 -10 212.224 107.03 3
10 1 -22 350.034 164.026 2
-1 -10 22 176.21 145.161 1
22 10 -1 290.171 161.703 3
10 0 -22 676.741 221.285 2
0 -10 22 587.586 307.553 1
22 0 -10 760.204 216.001 3
22 10 0 875.219 237.902 3
0 -22 10 665.544 193.715 1
10 -1 -22 235.735 153.513 2
22 10 1 140.934 150.378 3
22 1 -10 15.4802 95.793 3
1 -10 22 186.521 173.216 1
-1 -22 10 179.837 186.722 1
2 -10 22 159.492 210.769 1
10 -2 -22 411.896 204.471 2
22 10 2 11.5705 86.7846 3
22 2 -10 422.518 133.11 3
10 -3 -22 417.918 168.615 2
22 10 3 88.7179 78.5942 3
22 3 -10 273.345 93.9004 3
3 -10 22 125.714 125.169 1
10 -4 -22 176.582 117.965 2
-10 -4 22 418.989 155.125 1
22 4 -10 571.394 220.159 3
22 10 4 75.4558 149.173 3
4 -10 22 338.194 255.797 1
-10 -5 22 373.218 287.759 1
5 -10 22 469.994 214.183 1
10 -5 -22 98.7923 84.1821 2
22 5 -10 139.716 149.388 3
22 10 5 84.266 75.9689 3
10 -6 -22 933.322 233.236 2
-10 -6 22 968.432 313.409 1
6 -10 22 1340.78 415.49 1
22 6 -10 949.691 289.415 3
-10 -7 22 21.682 173.329 1
10 -7 -22 294.923 112.633 2
22 7 -10 339.34 120.051 3
7 -10 22 223.004 84.5401 1
-10 -8 22 203.753 163.81 1
8 -10 22 278.459 218.315 1
10 -8 -22 96.0956 86.605 2
22 8 -10 280.394 141.429 3
10 -9 -22 229.561 78.9295 2
9 -10 22 174.862 79.8029 1
22 9 -10 210.669 201.917 3
-10 -9 22 443.92 185.651 1
10 -10 -22 2374.59 377.145 2
10 -10 22 2183.03 539.375 1
22 10 -10 2732.3 431.715 3
-10 -10 22 2264.56 532.515 1
10 -11 -22 1127.49 249.154 2
22 11 -10 1249.77 283.266 3
-10 -11 22 835.579 331.682 1
22 11 -9 1381.45 343.939 3
9 -11 -22 1326.99 256.236 2
-9 -11 22 978.485 356.998 1
8 -11 -22 719.321 216.218 2
22 11 -8 817.264 197.638 3
-8 -11 22 848.526 259.693 1
7 -11 -22 584.044 185.937 2
7 -22 11 379.661 94.9248 1
22 11 -7 436.691 261.813 3
-7 -11 22 427.918 260.085 1
6 -11 -22 890.387 228.275 2
6 -22 11 1444.2 377.193 1
22 11 -6 593.867 268.442 3
-6 -11 22 1465.42 422.514 1
5 -22 11 255.7 271.316 1
5 -11 -22 445.299 207.864 2
22 11 -5 37.6955 120.167 3
-5 -11 22 360.433 238.548 1
11 4 -22 -73.1943 122.483 2
22 11 -4 140.782 161.666 3
4 -22 11 -217.038 187.232 1
4 -11 -22 -73.6911 98.263 2
-4 -11 22 -63.6797 160.145 1
-3 -11 22 934.341 363.664 1
11 3 -22 76.0517 47.9723 2
3 -22 11 704.688 252.496 1
22 -3 -11 243.309 173.968 3
3 -11 -22 19.7049 50.5577 2
22 11 -3 164.878 146.729 3
11 2 -22 211.402 116.683 2
-2 -11 22 21.749 124.797 1
2 -22 11 172.325 182.121 1
2 -11 -22 71.6722 87.1823 2
22 -2 -11 -47.8923 84.9276 3
22 11 -2 6.73914 130.382 3
1 -22 11 93.8175 138.307 1
11 1 -22 329.373 141.216 2
22 -1 -11 825.511 260.272 3
-1 -11 22 561.429 257.584 1
22 11 -1 301.698 203.109 3
0 -22 11 -209.255 224.981 1
11 0 -22 26.9074 71.6629 2
0 -11 22 -349.621 206.109 1
22 0 -11 30.2425 97.6814 3
22 11 0 10.8305 119.964 3
11 -1 -22 417.289 144.819 2
1 -11 22 687.761 241.365 1
22 1 -11 530.638 130.019 3
22 11 1 206.669 137.306 3
-1 -22 11 747.922 223.527 1
11 -2 -22 436.489 333.229 2
2 -11 22 96.9783 140.408 1
22 11 2 0.52345 68.2082 3
22 2 -11 364.569 128.76 3
-2 -22 11 30.3819 83.0863 1
11 -3 -22 163.745 143.227 2
22 11 3 8.87109 71.129 3
3 -11 22 36.7683 79.6972 1
22 3 -11 182.25 66.9207 3
11 -4 -22 177.434 184.566 2
22 11 4 -13.2302 149.695 3
4 -11 22 -61.653 144.968 1
22 4 -11 78.5174 185.397 3
11 -5 -22 372.405 174.824 2
22 5 -11 298.549 209.249 3
22 11 5 34.2549 119.965 3
5 -11 22 249.403 133.1 1
11 -6 -22 937.569 254.482 2
6 -11 22 1015.3 358.176 1
-11 -6 22 885.518 319.6 1
22 6 -11 872.386 276.201 3
-11 -7 22 484.927 137.167 1
11 -7 -22 660.851 221.79 2
22 7 -11 498.961 217.327 3
7 -11 22 659.064 344.154 1
-11 -8 22 1011.56 329.88 1
11 -8 -22 818.983 235.361 2
22 8 -11 981.079 254.163 3
8 -11 22 973.634 311.758 1
11 -9 -22 1375.8 281.511 2
9 -11 22 1402.81 421.465 1
22 9 -11 978.974 282.357 3
-11 -9 22 1312.37 387.722 1
11 -10 -22 998.164 242.461 2
10 -11 22 1106.22 331.51 1
22 10 -11 1235.8 280.863 3
-11 -10 22 796.822 281.082 1
11 -11 -22 1197.34 253.455 2
22 11 -11 965.079 270.337 3
11 -11 22 688.861 226.412 1
-11 -11 22 647.445 281.867 1
11 -12 -22 82.0541 129.588 2
22 12 -11 60.7568 132.407 3
-11 -12 22 -70.4765 107.736 1
10 -12 -22 41.9641 84.7196 2
-10 -12 22 -34.0683 175.178 1
22 12 -10 91.0491 102.795 3
-9 -12 22 708.634 280.154 1
9 -12 -22 398.757 86.8773 2
22 12 -9 443.976 207.761 3
8 -12 -22 1557.48 284.346 2
-8 -12 22 1473.55 436.139 1
22 12 -8 1597.24 313.308 3
-7 -12 22 816.32 358.573 1
7 -12 -22 426.496 168.273 2
7 -22 12 630.406 280.594 1
22 12 -7 163.894 166.895 3
6 -12 -22 389.305 174.224 2
6 -22 12 429.178 264.988 1
-6 -12 22 240.37 174.209 1
22 12 -6 27.0431 99.3904 3
5 -22 12 117.436 145.659 1
-5 -12 22 228.317 78.1648 1
5 -12 -22 230.47 76.471 2
22 12 -5 -0.63904 138.243 3
22 12 -4 258.355 216.221 3
4 -22 12 502.592 270.836 1
-4 -12 22 594.268 254.017 1
4 -12 -22 634.725 206.451 2
3 -22 12 133.502 227.451 1
3 -12 -22 275.217 174.95 2
22 12 -3 -27.2195 165.998 3
-3 -12 22 -154.207 133.335 1
12 2 -22 735.486 227.818 2
-2 -12 22 906.749 288.912 1
2 -22 12 924.73 277.75 1
2 -12 -22 733.213 212.872 2
22 -2 -12 862.464 159.334 3
22 12 -2 1055.81 244.717 3
12 1 -22 302.209 163.842 2
-1 -12 22 80.6877 97.0802 1
1 -22 12 532.337 249.554 1
22 12 -1 105.537 132.467 3
22 -1 -12 310.044 120.181 3
1 -12 -22 481.059 203.274 2
12 0 -22 -14.541 74.4588 2
0 -22 12 -2.51519 79.735 1
0 -12 22 80.3406 129.522 1
22 0 -12 29.3104 85.8751 3
22 12 0 58.5751 145.961 3
-1 -22 12 105.287 169.114 1
12 -1 -22 247.62 131.57 2
1 -12 22 149.449 166.791 1
22 1 -12 313.908 100.974 3
22 12 1 390.47 149.54 3
12 -2 -22 933.588 259.931 2
2 -12 22 1240.77 455.207 1
22 2 -12 1474.44 291.782 3
22 12 2 1135.21 276.17 3
-2 -22 12 1163.7 429.843 1
12 -3 -22 93.5129 84.5049 2
3 -12 22 129.202 107.791 1
22 3 -12 -243.486 188.392 3
22 12 3 64.1965 130.7 3
-3 -22 12 -26.4832 189.323 1
12 -4 -22 593.145 214.792 2
4 -12 22 224.151 125.024 1
22 4 -12 714.617 204.944 3
22 12 4 149.371 168.931 3
-4 -22 12 1036.49 386 1
12 -5 -22 215.761 126.382 2
22 5 -12 96.434 90.0718 3
22 12 5 33.8133 54.0879 3
-5 -22 12 238.36 290.766 1
5 -12 22 329.191 254.058 1
12 -6 -22 188.209 103.814 2
6 -12 22 58.0256 81.1962 1
12 -7 -22 245.049 132.812 2
22 7 -12 137.178 136.856 3
7 -12 22 368.045 224.769 1
-12 -8 22 1148.37 370.825 1
12 -8 -22 1393.09 306.907 2
22 8 -12 1898.06 340.244 3
8 -12 22 1628.09 483.425 1
12 -9 -22 790.052 228.218 2
9 -12 22 1011.75 384.839 1
22 9 -12 671.434 190.571 3
-12 -9 22 657.056 266.814 1
12 -10 -22 97.5569 56.665 2
22 10 -12 261.339 144.699 3
-12 -10 22 111.287 97.7294 1
10 -12 22 -57.1176 167.06 1
22 11 -12 203.448 182.304 3
-12 -11 22 6.32688 244.72 1
11 -12 22 314.779 266.191 1
-12 -12 22 1775.95 520.471 1
22 12 -12 2552.73 407.385 3
-12 -13 22 594.096 283.456 1
22 13 -12 -73.1644 91.9714 3
11 -13 -22 931.422 226.396 2
-11 -13 22 303.227 223.505 1
22 13 -11 433.039 184.566 3
10 -13 -22 1335.99 271.054 2
-10 -13 22 1134.86 406.008 1
22 13 -10 1255.44 311.272 3
9 -13 -22 1.78256 105.87 2
-9 -13 22 -39.9925 202.492 1
22 13 -9 328.579 227.913 3
8 -13 -22 872.086 225.407 2
-8 -13 22 518.372 259.159 1
22 13 -8 990.243 254.235 3
7 -13 -22 1962.74 322.499 2
7 -22 13 1880.04 448.66 1
-7 -13 22 2597.91 557.282 1
22 13 -7 1572.39 406.706 3
6 -13 -22 687.71 165.823 2
6 -22 13 390.995 153.303 1
-6 -13 22 110.981 89.1195 1
22 13 -6 309.619 230.462 3
5 -13 -22 60.4574 100.289 2
5 -22 13 132.402 141.15 1
-5 -13 22 72.5495 159.823 1
22 13 -5 15.2721 110.962 3
4 -22 13 -92.893 67.9498 1
4 -13 -22 209.983 124.449 2
22 13 -4 2.54586 81.3798 3
-4 -13 22 0.64057 147.179 1
3 -13 -22 182.439 123.697 2
3 -22 13 -143.754 162.339 1
22 13 -3 -12.139 92.0577 3
-3 -13 22 -10.8671 116.032 1
-2 -13 22 -37.6466 155.768 1
22 -2 -13 -21.6957 68.9455 3
2 -22 13 -98.1022 153.32 1
2 -13 -22 171.294 161.323 2
22 13 -2 -51.9429 74.7618 3
-1 -13 22 380.471 266.514 1
1 -22 13 207.704 136.008 1
22 -1 -13 159.038 108.116 3
1 -13 -22 107.596 147.495 2
22 13 -1 137.023 136.396 3
22 0 -13 109.413 91.2462 3
0 -13 22 145.487 82.7611 1
0 -22 13 269.079 271.071 1
22 13 0 586.366 254.586 3
1 -13 22 548.599 233.339 1
22 1 -13 580.27 166.962 3
-1 -22 13 747.653 360.912 1
22 13 1 52.597 71.7608 3
-2 -22 13 54.5291 184.795 1
2 -13 22 53.0066 140.38 1
22 2 -13 100.624 109.465 3
22 13 2 -14.3669 64.9703 3
-3 -22 13 336.12 214.937 1
22 13 3 146.268 96.5022 3
22 3 -13 188.598 117.506 3
3 -13 22 356.002 286.497 1
4 -13 22 -306.439 265.282 1
22 4 -13 -179.041 156.817 3
22 13 4 44.2521 146.539 3
-4 -22 13 214.858 212.147 1
22 5 -13 244.405 177.015 3
22 13 5 93.4056 137.078 3
5 -13 22 295.798 242.792 1
-5 -22 13 -51.5601 248.619 1
6 -13 22 609.009 290.833 1
22 6 -13 439.126 151.957 3
-6 -22 13 618.833 266.363 1
7 -13 22 2216.48 502.893 1
22 7 -13 2253.4 384.319 3
-7 -22 13 2067.27 495.07 1
22 8 -13 1103.47 279.496 3
-8 -22 13 808.018 378.221 1
8 -13 22 665.165 220.381 1
9 -13 22 408.192 256.164 1
22 9 -13 268.927 105.978 3
22 10 -13 1703.83 346.05 3
10 -13 22 1413.55 372.229 1
-13 -10 22 669.443 267.103 1
11 -13 22 1147.93 365.058 1
22 11 -13 959.082 277.275 3
-13 -11 22 216.106 133.495 1
-13 -12 22 184.788 199.84 1
22 12 -13 -18.0885 103.059 3
-13 -13 22 -462.976 245.908 1
22 13 -13 246.886 162.365 3
22 14 -13 -65.9605 116.882 3
-12 -14 22 82.7462 158.949 1
22 14 -12 121.148 97.045 3
-11 -14 22 783.723 340.962 1
22 14 -11 390.791 173.325 3
10 -14 -22 809.389 214.646 2
-10 -14 22 861.203 368.78 1
22 14 -10 1371.45 319.7 3
-9 -14 22 579.057 278.819 1
9 -14 -22 715.003 197.991 2
22 14 -9 595.621 262.442 3
8 -22 14 348.767 175.163 1
8 -14 -22 83.5444 80.6817 2
22 14 -8 177.634 89.3698 3
-8 -14 22 306.511 256.067 1
7 -14 -22 901.214 246.154 2
-7 -14 22 502.466 270.822 1
22 14 -7 456.109 236.432 3
7 -22 14 652.813 326.318 1
6 -14 -22 702.703 218.715 2
-6 -14 22 718.937 324.885 1
6 -22 14 914.337 319.364 1
22 14 -6 284.324 193.532 3
5 -14 -22 939.924 235.339 2
5 -22 14 583.289 286.31 1
-5 -14 22 888.765 350.951 1
22 14 -5 892.697 300.301 3
-4 -14 22 170.217 135.467 1
22 14 -4 16.1692 54.5381 3
3 -22 14 -87.6968 198.905 1
3 -14 -22 467.532 168.388 2
22 14 -3 124.041 177.629 3
-3 -14 22 228.424 213.116 1
2 -22 14 263.227 193.732 1
22 -2 -14 550.097 221.516 3
2 -14 -22 320.355 91.149 2
22 14 -2 336.989 209.98 3
-2 -14 22 257.027 343.624 1
1 -22 14 755.31 280.522 1
22 -1 -14 584.721 197.915 3
-1 -14 22 279.463 128.406 1
1 -14 -22 458.518 163.659 2
22 14 -1 347.902 220.305 3
0 -14 22 255.667 172.589 1
0 -22 14 396.095 225.473 1
22 0 -14 358.424 148.491 3
0 -14 -22 551.721 170.452 2
22 14 0 261.199 163.004 3
-1 -22 14 35.993 263.523 1
1 -14 22 308.418 178.269 1
22 1 -14 555.506 179.223 3
22 14 1 352.62 169.139 3
-2 -22 14 400.297 141.747 1
2 -14 22 163.399 146.506 1
22 2 -14 508.028 148.477 3
22 14 2 170.307 180.994 3
-3 -22 14 27.9435 202.971 1
22 3 -14 262.159 138.519 3
22 14 3 62.8342 85.0839 3
3 -14 22 93.8958 113.125 1
-4 -22 14 -24.7316 115.909 1
22 4 -14 266.293 156.945 3
22 14 4 59.783 61.1148 3
-5 -22 14 1124.45 375.807 1
22 14 5 484.838 191.992 3
5 -14 22 886.628 334.498 1
22 5 -14 974.809 211.797 3
22 6 -14 1053.55 234.962 3
6 -14 22 779.122 367.276 1
-6 -22 14 444.066 229.656 1
7 -14 22 734.006 306.318 1
22 7 -14 456.645 179.184 3
-7 -22 14 136.617 196.163 1
8 -14 22 383.489 196.676 1
22 8 -14 352.51 100.689 3
-8 -22 14 34.5687 120.349 1
22 9 -14 921.002 253.191 3
-9 -22 14 893.533 301.881 1
9 -14 22 927.545 332.936 1
10 -14 22 326.353 130.51 1
22 10 -14 902.554 243.413 3
-10 -22 14 730.383 163.481 1
11 -14 22 23.7383 219.7 1
-11 -22 14 -223.025 316.341 1
22 11 -14 518.095 212.788 3
22 12 -14 318.449 151.355 3
22 13 -14 56.7107 135.246 3
22 14 -14 479.385 218.937 3
22 15 -14 48.547 141.144 3
22 15 -13 -36.7808 106.308 3
22 15 -12 -22.7791 135.251 3
22 15 -11 832.381 265.318 3
10 -15 -22 577.027 218.249 2
22 15 -10 239.279 122.417 3
9 -15 -22 298.607 58.2824 2
22 15 -9 307.146 223.996 3
8 -15 -22 583.294 171.581 2
8 -22 15 259.952 215.938 1
-8 -15 22 907.548 372.29 1
22 15 -8 1121.42 273.017 3
7 -22 15 6.5287 99.7032 1
22 15 -7 167.342 168.332 3
7 -15 -22 -63.666 56.8201 2
-7 -15 22 201.874 219.355 1
6 -15 -22 275.216 123.226 2
-6 -15 22 366.888 312.502 1
22 15 -6 214.932 219.855 3
6 -22 15 156.077 139.062 1
5 -15 -22 14.572 116.436 2
5 -22 15 24.3011 141.807 1
-5 -15 22 299.012 208.254 1
22 15 -5 15.4079 89.8138 3
4 -15 -22 289.066 147.509 2
4 -22 15 -160.265 115.975 1
-4 -15 22 -111.188 236.458 1
22 15 -4 127.681 142.221 3
3 -15 -22 500.648 198.262 2
3 -22 15 335.109 73.4006 1
22 15 -3 272.654 114.637 3
-3 -15 22 475.124 264.061 1
22 15 -2 101.598 82.3878 3
2 -15 -22 81.4109 152.579 2
2 -22 15 303.723 84.2723 1
-2 -15 22 174.75 135.941 1
-1 -15 22 164.465 97.7297 1
22 -1 -15 214.913 209.167 3
1 -15 -22 140.38 73.4799 2
1 -22 15 223.932 185.54 1
22 15 -1 33.3054 102.673 3
0 -15 22 115.554 134.837 1
0 -15 -22 187.631 159.143 2
0 -22 15 -107.403 200.702 1
22 15 0 4.45923 95.7502 3
22 0 -15 -258.757 167.216 3
1 -15 22 365.416 215.973 1
-1 -22 15 99.826 200.341 1
22 1 -15 244.793 140.167 3
22 15 1 184.125 137.727 3
-2 -22 15 240.097 233.343 1
2 -15 22 541.497 295.379 1
22 2 -15 500.394 194.459 3
22 15 2 433.542 176.865 3
-3 -22 15 681.382 291.75 1
3 -15 22 728.231 366.184 1
22 3 -15 692.681 179.174 3
22 15 3 563.289 222.076 3
-4 -22 15 25.379 85.2343 1
22 4 -15 201.65 149.362 3
22 15 4 1.55946 46.1613 3
4 -15 22 279.64 273.059 1
-5 -22 15 148.001 207.222 1
5 -15 22 -278.078 274.144 1
22 5 -15 107.385 90.2095 3
22 15 5 6.23335 51.8023 3
-6 -22 15 42.3603 157.115 1
22 6 -15 246.962 124.743 3
6 -15 22 271.266 154.34 1
-7 -22 15 60.3276 256.45 1
7 -15 22 213.41 153.326 1
22 7 -15 127.19 110.632 3
-8 -22 15 548.382 304.993 1
22 8 -15 519.884 152.595 3
8 -15 22 185.139 167.463 1
22 9 -15 565.447 223.281 3
9 -15 22 -146.188 273.218 1
-9 -22 15 655.76 387.584 1
22 10 -15 409.415 163.982 3
10 -15 22 145.216 250.138 1
-10 -22 15 -338.187 250.246 1
22 11 -15 816.268 248.975 3
22 12 -15 73.1369 170.788 3
22 13 -15 109.472 97.2765 3
22 14 -15 127.816 61.5468 3
22 15 -15 1041.17 252.366 3
22 16 -15 288.221 156.858 3
22 16 -14 1396.54 311.552 3
22 16 -13 596.794 233.999 3
22 16 -12 499.773 236.453 3
22 16 -11 962.511 240.043 3
22 16 -10 9.28893 125.476 3
9 -16 -22 76.1952 80.4365 2
22 16 -9 225.554 206.463 3
8 -16 -22 -32.2702 72.8617 2
22 16 -8 87.6009 126.499 3
7 -22 16 625.763 228.86 1
7 -16 -22 1406.66 282.288 2
-7 -16 22 1204.78 367.456 1
22 16 -7 1046.75 309.678 3
6 -22 16 81.4651 253.52 1
6 -16 -22 -103.118 106.536 2
-6 -16 22 244.841 177.301 1
22 16 -6 -79.5978 111.181 3
5 -16 -22 434.302 150.652 2
-5 -16 22 -32.5606 101.374 1
5 -22 16 174.255 169.1 1
22 16 -5 206.755 147.152 3
4 -16 -22 897.493 163.108 2
4 -22 16 587.175 237.848 1
-4 -16 22 639.433 305.855 1
22 16 -4 1032.33 266.319 3
3 -16 -22 -106.888 99.2291 2
3 -22 16 182.851 175.463 1
-3 -16 22 4.82465 77.0405 1
22 16 -3 -20.8368 108.976 3
2 -16 -22 154.396 104.888 2
22 16 -2 0.636 55.3835 3
22 -1 -16 695.034 183.194 3
1 -16 -22 650.982 150.274 2
1 -22 16 497.632 223.868 1
22 16 -1 280.291 133.357 3
-1 -16 22 750.461 290.319 1
0 -16 22 392.556 240.912 1
0 -22 16 700.282 395.21 1
0 -16 -22 245.175 145.991 2
22 0 -16 178.918 120.306 3
22 16 0 20.4777 111.469 3
1 -16 22 786.423 334.685 1
-1 -16 -22 1000.12 281.104 2
-1 -22 16 1109.73 349.35 1
22 1 -16 887.061 232.293 3
22 16 1 657.007 258.674 3
2 -16 22 292.198 283.189 1
-2 -22 16 -147.931 73.586 1
22 2 -16 -74.7373 119.954 3
22 16 2 186.431 110.976 3
-3 -22 16 221.973 240.004 1
3 -16 22 195.271 171.358 1
22 3 -16 -126.502 130.915 3
22 16 3 -14.1993 96.1786 3
22 4 -16 357.843 176.417 3
-4 -22 16 578.068 338.977 1
4 -16 22 870.292 309.498 1
22 16 4 377.772 205.285 3
22 16 5 78.246 82.7691 3
-5 -22 16 69.712 137.001 1
5 -16 22 -83.4458 189.156 1
22 5 -16 172.809 130.582 3
-6 -22 16 5.87051 91.447 1
22 6 -16 322.911 211.224 3
6 -16 22 95.993 157 1
7 -16 22 1314.98 430.124 1
-7 -22 16 1314.68 403.332 1
22 7 -16 1973.19 362.16 3
-8 -22 16 -70.2063 309.643 1
8 -16 22 10.0709 123.982 1
22 8 -16 235.159 163.458 3
9 -16 22 390.497 220.713 1
22 9 -16 272.297 109.15 3
22 10 -16 440.128 205.782 3
22 11 -16 879.383 194.713 3
22 12 -16 536.286 197.627 3
22 13 -16 279.761 162.828 3
22 14 -16 1011.14 227.176 3
22 15 -16 435.055 171.148 3
22 16 -16 539.301 227.68 3
16 16 -22 806.024 195.685 3
22 17 -16 250.361 100.974 3
16 22 -17 35.7992 94.846 3
17 16 -22 295.324 165.548 3
17 15 -22 171.227 117.713 3
22 17 -15 179.279 207.385 3
22 17 -14 95.3154 96.5344 3
22 17 -13 677.666 220.287 3
22 17 -12 206.314 124.762 3
22 17 -11 118.663 157.148 3
22 17 -10 962.697 290.42 3
22 17 -9 53.588 106.673 3
8 -17 -22 284.387 64.9817 2
22 17 -8 405.843 178.543 3
7 -17 -22 174.943 133.236 2
7 -22 17 191.823 231.951 1
22 17 -7 250.41 173.67 3
6 -22 17 160.38 299.237 1
6 -17 -22 265.628 180.768 2
22 17 -6 50.712 198.196 3
-6 -17 22 879.322 397.83 1
5 -17 -22 120.824 65.6342 2
22 17 -5 10.9441 77.1741 3
5 -22 17 -46.3416 196.33 1
4 -17 -22 684.272 259.812 2
4 -22 17 727.174 316.852 1
-4 -17 22 797.378 276.765 1
22 17 -4 642.81 205.854 3
-3 -17 22 186.081 135.865 1
3 -17 -22 384.026 169.709 2
3 -22 17 412.733 345.026 1
22 17 -3 37.1729 99.5947 3
2 -22 17 100.582 131.901 1
2 -17 -22 106.536 130.995 2
22 17 -2 55.2759 106.376 3
-2 -17 22 -212.044 178.719 1
1 -17 -22 1789.04 306.367 2
22 17 -1 1130.78 312.028 3
1 -22 17 1377.1 458.131 1
-1 -17 22 1039.68 332.727 1
22 17 0 5.47832 52.1854 3
22 0 -17 98.5216 82.6693 3
0 -17 22 -243.073 73.9687 1
0 -17 -22 -30.1432 105.916 2
0 -22 17 30.4201 197.451 1
-1 -22 17 1404.36 425.254 1
1 -17 22 1388.86 407.606 1
22 1 -17 1435.89 321.286 3
-1 -17 -22 1475.36 303.614 2
22 17 1 1019.88 322.725 3
22 2 -17 -58.8739 108.645 3
-2 -17 -22 84.2474 93.2736 2
-2 -22 17 295.66 250.442 1
22 17 2 -10.278 123.227 3
-3 -22 17 88.8706 93.4949 1
3 -17 22 -43.1661 167.576 1
22 3 -17 -5.18272 69.1844 3
22 17 3 4.95821 49.4384 3
22 4 -17 969.764 269.17 3
-4 -22 17 730.885 186.216 1
4 -17 22 590.912 263.024 1
22 17 4 439.356 179.524 3
22 5 -17 129.437 130.108 3
-5 -22 17 -89.7758 194.221 1
5 -17 22 221.832 251.666 1
22 17 5 62.2519 95.9431 3
-6 -22 17 168.392 183.784 1
22 6 -17 348.279 116.032 3
6 -17 22 286.779 214.753 1
22 7 -17 536.456 225.859 3
22 8 -17 511.62 176.512 3
22 9 -17 300.571 179.368 3
22 10 -17 921.902 268.23 3
22 11 -17 254.919 152.705 3
22 12 -17 136.414 95.2572 3
22 13 -17 767.61 230.95 3
22 14 -17 461.765 212.084 3
22 15 -17 120.825 104.732 3
15 17 -22 -37.9691 138.347 3
22 16 -17 173.244 71.5068 3
16 17 -22 323.645 138.825 3
17 22 -16 218.225 151.577 3
17 17 -22 530.549 159.991 3
22 17 -17 431.343 160.322 3
17 22 -17 368.32 120.756 3
18 17 -22 917.21 225.966 3
22 18 -17 694.854 207.884 3
17 22 -18 358.189 107.419 3
18 16 -22 979.496 233.35 3
22 18 -16 1283.48 293.409 3
16 22 -18 1344.81 283.302 3
18 15 -22 721.249 212.229 3
22 18 -15 509.056 155.885 3
18 14 -22 83.2285 45.7704 3
22 18 -14 -58.261 146.991 3
22 18 -13 801.959 199.236 3
22 18 -12 150.523 66.8963 3
22 18 -11 -97.0525 133.481 3
22 18 -10 349.452 191.096 3
22 18 -9 2534.96 430.091 3
22 18 -8 298.3 235.896 3
22 18 -7 1331.84 345.399 3
22 18 -6 166.349 97.2186 3
22 18 -5 35.7503 122.16 3
4 -18 -22 342.927 110.9 2
22 18 -4 311.503 163.53 3
4 -22 18 411.075 261.213 1
3 -18 -22 2560.66 373.139 2
3 -22 18 3084.03 641.271 1
22 18 -3 2598.45 429.271 3
2 -18 -22 454.345 162.855 2
2 -22 18 233.047 140.471 1
22 18 -2 81.8912 131.917 3
-2 -18 22 328.551 272.977 1
1 -18 -22 247.2 94.7019 2
22 18 -1 215.473 95.5112 3
0 -18 22 19.3455 71.7541 1
0 -22 18 17.3285 89.2886 1
0 -18 -22 38.6165 98.15 2
22 18 0 12.8809 98.0633 3
1 -18 22 269.55 151.797 1
22 1 -18 249.272 165.765 3
-1 -18 -22 391.946 144.475 2
-1 -22 18 461.645 346.698 1
22 18 1 238.859 170.39 3
2 -18 22 -37.9648 164.75 1
-2 -22 18 -155.774 164.955 1
-2 -18 -22 191.763 84.5068 2
22 18 2 332.301 179.163 3
22 2 -18 299.129 55.1191 3
-3 -18 -22 2894.34 397.881 2
3 -18 22 2804.02 615.138 1
22 18 3 2560.34 397.208 3
22 3 -18 3013.04 407.23 3
22 4 -18 429.063 186.258 3
22 18 4 255.649 179.938 3
22 5 -18 230.467 182.39 3
22 18 5 114.83 118.694 3
22 6 -18 276.231 167.963 3
22 7 -18 1525.18 302.4 3
22 8 -18 842.191 246.396 3
22 9 -18 2329.87 392.523 3
22 10 -18 373.189 168.511 3
22 11 -18 49.9653 71.2014 3
22 12 -18 247.506 148.811 3
22 13 -18 1007.99 245.041 3
18 22 -14 85.886 76.2418 3
22 14 -18 174.601 111.661 3
14 18 -22 101.49 60.7577 3
22 15 -18 1059.77 288.182 3
15 18 -22 629.565 193.772 3
18 22 -15 475.254 199.654 3
22 16 -18 973.834 249.772 3
16 18 -22 970.268 238.812 3
18 22 -16 1004.44 227.802 3
22 17 -18 585.498 208.661 3
17 18 -22 789.472 211.241 3
18 22 -17 928.132 254.019 3
18 18 -22 291.53 127.557 3
22 18 -18 480.913 217.873 3
18 22 -18 419.757 159.949 3
22 19 -18 645.618 244.906 3
19 18 -22 387.813 186.276 3
18 22 -19 269.222 109.913 3
19 17 -22 322.878 138.636 3
22 19 -17 356.712 155.233 3
17 22 -19 317.923 155.537 3
22 19 -16 818.492 245.281 3
16 22 -19 488.468 178.5 3
19 16 -22 434.144 148.415 3
19 15 -22 524.429 144.62 3
22 19 -15 449.271 159.937 3
15 22 -19 341.999 120.27 3
19 14 -22 359.694 182.15 3
22 19 -14 165.527 123.087 3
19 13 -22 174.44 42.8482 3
22 19 -13 229.311 95.9915 3
22 19 -12 290.298 147.78 3
22 19 -11 947.826 246.607 3
22 19 -10 44.6612 118.096 3
22 19 -9 410.833 166.708 3
22 19 -8 427.96 205.889 3
22 19 -7 237.975 154.906 3
22 19 -6 1123.77 364.66 3
22 19 -5 220.835 206.505 3
19 22 5 121.312 122.853 3
22 19 -4 554.96 246.26 3
19 22 4 741.232 231.011 3
19 22 3 403.965 219.378 3
22 19 -3 473.272 214.871 3
22 19 -2 135.336 123.905 3
22 19 -1 80.6884 127.444 3
22 19 0 -17.2207 74.1937 3
22 1 -19 101.447 120.104 3
22 19 1 303.414 175.611 3
22 19 2 -58.1021 133.926 3
22 2 -19 174.806 69.6606 3
22 3 -19 1269.59 278.823 3
22 19 3 391.349 181.936 3
22 4 -19 979.617 234.589 3
22 19 4 1043.61 250.838 3
22 5 -19 618.14 209.324 3
22 19 5 136.433 134.888 3
22 6 -19 1436.66 287.893 3
22 7 -19 -48.1673 111.549 3
22 8 -19 289.345 118.413 3
22 9 -19 383.594 167.146 3
22 10 -19 100.416 78.6231 3
19 22 -11 1136.94 287.139 3
22 11 -19 1003.19 250.632 3
19 22 -12 426.889 204.923 3
22 12 -19 189.069 100.492 3
22 13 -19 398.045 106.627 3
13 19 -22 176.838 135.344 3
19 22 -13 111.741 114.293 3
22 14 -19 6.24791 51.7655 3
14 19 -22 44.6807 113.545 3
19 22 -14 160.158 128.502 3
22 15 -19 735.132 219.28 3
15 19 -22 563.659 164.551 3
19 22 -15 586.202 221.952 3
16 19 -22 583.779 195.807 3
19 22 -16 512.078 173.942 3
22 16 -19 826.82 255.492 3
22 17 -19 547.067 207.789 3
17 19 -22 219.043 63.1127 3
19 22 -17 238.253 168.306 3
22 18 -19 58.9114 77.487 3
18 19 -22 216.946 149.772 3
19 22 -18 449.961 217.301 3
19 19 -22 700.079 176.158 3
22 19 -19 813.181 213.507 3
19 22 -19 649.825 183.867 3
20 19 -22 68.0721 44.4236 3
22 20 -19 69.2885 125.304 3
20 18 -22 225.767 85.4156 3
22 20 -18 551.358 186.494 3
18 22 -20 530.435 174.862 3
22 20 -17 912.841 249.743 3
20 17 -22 508.071 158.656 3
17 22 -20 546.538 140.496 3
20 16 -22 -237.327 139.526 3
16 22 -20 -41.6301 66.6424 3
20 15 -22 243.837 157.46 3
22 20 -15 97.3999 70.0481 3
15 22 -20 276.835 120.875 3
20 14 -22 111.689 103.156 3
22 20 -14 108.595 104.37 3
14 22 -20 95.0448 157.094 3
20 13 -22 518.454 170.563 3
22 20 -13 554.572 210.03 3
20 12 -22 1119.81 216.955 3
22 20 -12 1087.4 250.659 3
22 20 -11 439.932 189.12 3
22 20 -10 945.361 259.231 3
22 20 -9 394.711 198.184 3
22 20 -8 470.787 249.311 3
22 20 -7 67.0981 130.838 3
22 20 -6 119.232 188.716 3
22 20 -5 2643.88 497.327 3
20 22 5 1396.11 332.912 3
22 20 -4 7.75641 131.676 3
20 22 4 87.1019 51.7439 3
22 20 -3 -17.2084 91.5352 3
20 22 3 116.134 110.195 3
22 20 -2 237.631 197.139 3
20 22 2 29.2097 74.1056 3
22 20 -1 1499.52 351.722 3
20 22 1 1742.62 345.281 3
22 20 0 7.05507 92.802 3
20 22 0 260.348 174.305 3
20 22 -1 886.389 272.147 3
22 20 1 1446 348.959 3
20 22 -2 -354.459 154.16 3
22 2 -20 -160.86 100.164 3
22 20 2 34.9547 57.3092 3
22 3 -20 -34.869 111.848 3
22 20 3 11.2887 101.636 3
22 4 -20 113.971 124.506 3
22 20 4 121.383 146.63 3
22 5 -20 3393.19 432.437 3
22 20 5 1735.67 350.841 3
22 6 -20 332.839 99.4998 3
20 22 -7 -2.10096 105.572 3
22 7 -20 708.34 438.469 3
20 22 -8 796.05 223.612 3
22 8 -20 572.812 178.639 3
22 9 -20 344.88 175.279 3
20 22 -9 444.402 204.238 3
22 10 -20 1080.79 258.916 3
20 22 -10 970.094 273.753 3
22 11 -20 364.739 149.523 3
20 22 -11 549.71 230.171 3
22 12 -20 1133.3 251.97 3
20 22 -12 1427.7 311.848 3
12 20 -22 1019.78 223.983 3
22 13 -20 511.13 187.155 3
13 20 -22 600.104 170.417 3
20 22 -13 816.168 201.612 3
22 14 -20 47.5243 93.3733 3
14 20 -22 61.5246 57.9671 3
20 22 -14 115.779 70.0893 3
22 15 -20 147.648 146.9 3
15 20 -22 150.775 73.4695 3
20 22 -15 14.7112 65.6132 3
22 16 -20 54.1287 78.0808 3
16 20 -22 -74.0933 96.7006 3
20 22 -16 -158.409 109.426 3
17 20 -22 660.044 176.903 3
22 17 -20 617.173 162.314 3
20 22 -17 646.098 179.204 3
22 18 -20 191.703 133.311 3
18 20 -22 263.288 121.036 3
20 22 -18 469.52 163.927 3
22 19 -20 161.856 98.7517 3
19 20 -22 -37.5145 77.0122 3
20 22 -19 160.672 124.664 3
20 20 -22 109.863 104.541 3
22 20 -20 530.75 155.786 3
20 22 -20 372.253 130.196 3
21 20 -22 736.782 163.955 3
20 22 -21 689.167 163.278 3
22 21 -20 325.584 200.264 3
21 19 -22 904.801 186.563 3
22 21 -19 1089.11 203.616 3
18 22 -21 607.021 141.856 3
22 21 -18 457.121 125.295 3
21 17 -22 56.9589 81.1169 3
22 21 -17 340.886 174.422 3
17 22 -21 253.21 130.608 3
22 21 -16 235.533 127.312 3
16 22 -21 255.216 122.856 3
21 16 -22 78.8973 54.9544 3
22 21 -15 83.9251 97.3419 3
15 22 -21 74.0368 71.7021 3
21 15 -22 221.089 78.9233 3
21 14 -22 420.439 169.927 3
22 21 -14 327.471 167.783 3
14 22 -21 231.897 98.4646 3
21 13 -22 449.399 147.01 3
22 21 -13 731.214 206.106 3
13 22 -21 511.83 171.524 3
21 12 -22 120.613 49.1695 3
22 21 -12 132.548 69.0824 3
21 11 -22 215.775 144.209 3
22 21 -11 261.465 168.904 3
22 21 -10 778.307 240.614 3
22 21 -9 510.47 201.403 3
22 21 -8 24.5467 138.88 3
22 21 -7 393.059 231.941 3
22 21 -6 280.166 248.28 3
21 22 5 89.1411 55.9867 3
22 21 -5 108.435 159.582 3
21 22 4 1028.77 283.788 3
22 21 -4 1007.39 301.013 3
21 22 3 418.66 202.464 3
22 21 -3 120.4 109.528 3
22 21 -2 329.369 171.082 3
21 22 2 254.266 211.569 3
22 21 -1 407.919 270.98 3
21 22 1 424.543 236.717 3
22 21 0 80.5907 134.716 3
21 22 0 -12.822 84.0704 3
22 21 1 246.192 221.338 3
21 22 -1 209.886 237.864 3
22 21 2 36.5647 129.725 3
21 22 -2 486.324 195.11 3
22 21 3 306.688 199.651 3
21 22 -3 403.617 158.475 3
22 21 4 623.307 232.565 3
21 22 -4 1249.38 315.114 3
22 21 5 382.457 190.7 3
21 22 -5 314.702 202.48 3
22 6 -21 1041.34 233.222 3
21 22 -6 718.9 292.807 3
22 7 -21 388.529 167.005 3
21 22 -7 212.29 193.909 3
22 8 -21 38.9329 58.6871 3
21 22 -8 34.2517 96.0636 3
22 9 -21 643.116 205.017 3
21 22 -9 614.343 216.412 3
22 10 -21 407.246 91.0029 3
21 22 -10 634.918 236.749 3
11 21 -22 12.2265 45.7944 3
22 11 -21 -67.7722 97.6052 3
22 12 -21 285.073 116.653 3
21 22 -12 82.7965 102.002 3
12 21 -22 192.465 164.26 3
22 13 -21 440.023 170.253 3
21 22 -13 544.294 198.229 3
13 21 -22 574.73 150.59 3
22 14 -21 210.189 117.434 3
21 22 -14 70.4413 92.0941 3
14 21 -22 415.297 176.291 3
22 15 -21 25.5623 59.0031 3
21 22 -15 62.6876 81.3975 3
15 21 -22 179.645 117.721 3
22 16 -21 209.822 86.4562 3
16 21 -22 91.9983 64.3983 3
21 22 -16 103.742 62.2958 3
17 21 -22 44.9819 45.617 3
21 22 -17 119.576 57.301 3
22 18 -21 649.383 154.868 3
18 21 -22 155.277 215.724 3
21 22 -18 769.55 224.279 3
19 21 -22 1068.53 201.299 3
21 22 -19 849.17 202.545 3
22 20 -21 158.297 133.671 3
20 21 -22 192.959 169.649 3
22 21 -21 4.36685 76.1311 3
21 22 -21 40.214 98.6892 3
21 21 -22 29.4701 90.9101 3
22 22 0 78.1432 131.086 3
22 22 1 206.025 219.585 3
22 22 -1 204.408 174.292 3
22 22 2 7.80248 45.8348 3
22 22 -2 -29.0845 117.791 3
22 22 3 1452.9 322.574 3
22 22 -3 1675.79 385.548 3
22 22 4 23.3822 131.053 3
22 22 -4 38.7708 127.797 3
22 22 5 30.9876 90.8323 3
22 22 -5 17.6481 130.911 3
22 22 -6 -54.4504 73.9139 3
22 22 -7 813.095 293.598 3
22 22 -8 352.27 205.941 3
22 22 -9 -1.01009 147.217 3
22 10 -22 767.013 176.903 3
22 22 -10 689.082 238.794 3
11 22 -22 -58.5431 62.81 3
22 11 -22 8.40324 88.624 3
22 22 -11 -72.9739 124.087 3
22 12 -22 916.572 221.09 3
12 22 -22 803.25 187.796 3
22 22 -12 759.519 231.418 3
22 13 -22 201.884 126.282 3
22 22 -13 -60.5664 121.152 3
13 22 -22 -68.2069 131.03 3
22 14 -22 994.532 200.282 3
22 22 -14 1789.55 353.96 3
14 22 -22 1377.98 252.664 3
22 15 -22 698.786 181.787 3
22 22 -15 737.696 192.369 3
15 22 -22 468.146 147.751 3
22 16 -22 102.007 122.384 3
22 22 -16 320.611 142.832 3
16 22 -22 139.4 47.6203 3
22 17 -22 -4.24709 48.9573 3
22 22 -17 165.783 152.628 3
17 22 -22 20.3285 85.9251 3
22 22 -18 119.247 76.8699 3
22 18 -22 16.1705 39.8742 3
18 22 -22 0.59458 55.695 3
19 22 -22 -32.4548 54.0592 3
22 19 -22 86.5365 101.269 3
22 22 -19 17.9023 124.169 3
22 20 -22 54.589 129.331 3
20 22 -22 9.66758 136.045 3
22 22 -20 89.0611 92.6436 3
22 21 -22 -2.29275 114.698 3
21 22 -22 -1.95477 70.1555 3
22 22 -21 -10.1416 33.8583 3
22 22 -22 161.242 147.842 3
23 0 0 490.98 157.895 3
23 0 1 691.08 191.264 3
23 0 -1 654.682 212.539 3
23 -1 0 621.399 269.94 3
23 1 0 859.111 253.723 3
23 -1 1 1840.14 351.521 3
23 1 1 2002.57 360.62 3
23 -1 -1 2009.44 341.275 3
23 1 -1 2221.15 355.934 3
-1 -1 23 3214.56 582.092 1
1 -1 23 2516.93 504.26 1
23 2 -1 373.281 177.397 3
23 -1 -2 656.781 207.534 3
-1 -2 23 756.874 295.389 1
2 1 -23 723.829 199.065 2
23 1 2 776.316 214.337 3
23 -2 0 40.0416 104.624 3
23 0 2 18.9897 75.1921 3
23 2 0 9.56263 62.1587 3
2 0 -23 124.814 146.898 2
0 -2 23 117.379 133.262 1
-2 0 23 159.035 65.5636 1
23 0 -2 12.656 59.0576 3
23 -1 2 863.199 215.746 3
1 -2 23 1294.5 429.449 1
23 -2 -1 924.084 283.202 3
23 2 1 643.537 237.488 3
23 1 -2 962.362 230.613 3
2 -1 -23 923.002 221.997 2
-2 -1 23 1163.65 322.397 1
23 -2 -2 533.997 247.117 3
2 2 -23 785.795 219.394 2
2 -2 23 967.051 371.678 1
23 2 2 414.54 186.191 3
-2 -2 23 1352.45 407.249 1
23 2 -2 1155.98 267.282 3
23 2 3 857.493 222.921 3
23 3 -2 1105.82 260.906 3
3 2 -23 741.798 240.596 2
-2 -3 23 1393.57 379.988 1
3 -2 23 1034.8 344.408 1
23 -2 -3 1120.29 246.374 3
23 -1 -3 1519.36 344.354 3
23 1 3 1745.89 284.346 3
3 1 -23 2109.08 349.738 2
23 3 -1 2074.27 368.667 3
-1 -3 23 2248.5 479.758 1
3 0 -23 3094.9 400.957 2
23 3 0 2880.24 408.879 3
0 -3 23 3440.89 606.869 1
-3 0 23 3031.97 519.45 1
23 0 3 1724.57 362.387 3
23 0 -3 2941.25 408.707 3
3 -1 -23 2219.68 457.197 2
1 -3 23 1943.74 487.309 1
23 3 1 1902.91 325.983 3
-3 -1 23 2544.64 629.751 1
23 1 -3 2100.49 364.553 3
1 3 -23 1408.17 286.036 2
23 3 2 481.572 167.018 3
3 -2 -23 741.778 248.479 2
23 2 -3 569.258 258.78 3
2 3 -23 876.041 225.937 2
2 -3 23 696.214 232.089 1
-3 -2 23 902.335 311.032 1
3 -3 -23 -61.4276 106.719 2
3 -3 23 28.8444 100.235 1
23 -3 -3 -1.38782 57.7911 3
3 3 -23 70.6475 91.0548 2
23 3 3 14.9292 125.409 3
-3 -3 23 138.366 197.045 1
23 3 -3 28.1347 82.5478 3
3 -4 -23 872.649 246.381 2
-3 -4 23 914.087 317.369 1
4 -3 23 543.222 249.919 1
23 -3 -4 204.39 160.548 3
23 4 -3 442.257 207.619 3
23 3 4 291.236 133.307 3
4 3 -23 460.797 145.226 2
-2 -4 23 398.076 235.67 1
23 4 -2 332.193 144.752 3
4 2 -23 532.482 207.954 2
23 -2 -4 387.375 181.433 3
23 2 4 293.259 167.712 3
23 4 -1 1278.3 282.582 3
-1 -4 23 1613.34 401.512 1
4 1 -23 917.934 246.023 2
23 -1 -4 776.828 212.155 3
23 0 4 97.5127 124.272 3
23 4 0 250.015 119.627 3
0 -4 23 415.033 217.334 1
4 0 -23 295.223 133.371 2
23 0 -4 411.49 194.208 3
-4 0 23 454.57 242.481 1
4 -1 -23 1544.04 428.703 2
-4 -1 23 1502.61 368.806 1
23 4 1 1136.48 238.617 3
1 4 -23 852.358 244.942 2
23 1 -4 1005.44 314.335 3
1 -4 23 1187.14 354.395 1
23 2 -4 336.774 191.581 3
2 -4 23 275.622 244.157 1
4 -2 -23 414.292 167.212 2
23 4 2 359.254 166.205 3
2 4 -23 269.459 114.936 2
-4 -2 23 602.839 257.253 1
4 -3 -23 774.305 215.247 2
-4 -3 23 866.258 315.297 1
23 3 -4 726.681 221.287 3
23 4 3 141.745 131.917 3
3 4 -23 517.535 192.616 2
3 -4 23 858.583 258.751 1
-4 -4 23 1273.12 349.153 1
4 4 -23 666.791 223.704 2
4 -4 23 1317.95 397.815 1
4 -4 -23 1027.65 232.737 2
23 4 4 659.761 181.029 3
23 4 -4 1310.48 275.578 3
4 -23 4 973.017 219.1 1
4 -5 -23 471.808 165.153 2
23 5 -4 449.601 171.913 3
5 -4 23 505.589 208.764 1
-4 -5 23 149.893 59.118 1
23 4 5 176.507 139.292 3
5 4 -23 285.075 144.516 2
4 -23 5 370.909 267.886 1
5 3 -23 1143.66 263.276 2
23 -3 -5 1006.25 275.513 3
23 3 5 925.524 213.163 3
3 -5 -23 1042.75 244.394 2
3 -23 5 1098.79 328.879 1
-3 -5 23 1098.57 302.372 1
23 5 -3 1018.21 268.627 3
-2 -5 23 1714.93 452.319 1
23 2 5 953.561 229.764 3
23 -2 -5 802.92 287.303 3
23 5 -2 822.562 282.71 3
5 2 -23 1078.04 250.569 2
-1 -5 23 758.353 231.433 1
23 -1 -5 806.115 250.613 3
5 1 -23 737.507 223.214 2
23 5 -1 512.313 194.588 3
23 5 0 323.025 89.3008 3
0 -5 23 470.568 244.48 1
-5 0 23 272.799 122.927 1
5 0 -23 247.944 143.295 2
23 0 -5 280.549 207.263 3
-5 -1 23 745.601 314.4 1
23 5 1 553.882 187.016 3
1 5 -23 780.594 235.661 2
1 -5 23 1076.87 407.762 1
23 1 -5 537.259 207.621 3
5 -1 -23 661.469 200.841 2
23 2 -5 1101.88 274.918 3
5 -2 -23 908.931 227.623 2
23 5 2 929.774 235.484 3
2 5 -23 668.862 220.977 2
-5 -2 23 1075.37 322.926 1
2 -5 23 1192.57 353.436 1
3 -5 23 1161.53 347.555 1
-5 -3 23 1125.17 353.85 1
23 5 3 778.741 222.779 3
5 -3 -23 1099.6 276.701 2
23 3 -5 1443.29 292.689 3
3 5 -23 854.392 211.84 2
-5 -4 23 398.501 222.169 1
4 5 -23 194.461 110.561 2
4 -5 23 359.411 161.059 1
23 5 4 379.772 129.157 3
5 -4 -23 445.137 201.507 2
23 4 -5 419.736 212.452 3
5 5 -23 189.303 130.656 2
5 -5 23 254.74 103.16 1
23 5 5 30.3121 46.1378 3
5 -5 -23 155.503 148.941 2
23 5 -5 18.9939 80.8809 3
-5 -5 23 -12.2541 94.4466 1
-5 -6 23 240.725 223.939 1
5 -23 6 35.7019 153.067 1
23 6 -5 33.056 97.8432 3
6 5 -23 111.822 107.129 2
5 -6 -23 112.688 79.127 2
6 -5 23 175.882 194.79 1
4 -23 6 348.287 182.268 1
4 -6 -23 180.689 152.992 2
6 4 -23 393.101 130.081 2
-4 -6 23 379.718 143.054 1
23 6 -4 688.421 243.401 3
23 3 6 244.978 103.47 3
23 -3 -6 534.37 216.463 3
-3 -6 23 443.261 183.221 1
6 3 -23 239.369 113.939 2
23 6 -3 161.541 187.136 3
3 -6 -23 545.011 225.447 2
3 -23 6 446.389 186.595 1
6 2 -23 901.851 228.205 2
23 -2 -6 659.103 235.596 3
23 2 6 696.379 176.611 3
23 6 -2 964.945 274.267 3
-2 -6 23 1205.64 356.031 1
6 1 -23 262.195 156.035 2
23 -1 -6 254.033 139.217 3
23 6 -1 5.47584 58.4208 3
-1 -6 23 332.896 196.315 1
0 6 -23 73.8307 50.9191 2
23 0 -6 23.92 123.399 3
6 0 -23 -47.6002 116.831 2
-6 0 23 146.675 118.791 1
0 -6 23 213.472 144.089 1
23 6 0 136.868 149.014 3
-6 -1 23 259.111 172.767 1
1 -6 23 427.884 252.616 1
6 -1 -23 126.942 90.7975 2
23 1 -6 295.081 211.89 3
1 6 -23 265.442 133.684 2
23 6 1 167.303 118.591 3
6 -2 -23 757.672 223.89 2
23 6 2 901.27 226.282 3
2 6 -23 747.803 200.209 2
-6 -2 23 1111.96 349.426 1
2 -6 23 1183.29 330.82 1
23 2 -6 1117.87 281.541 3
-6 -3 23 645.299 252.113 1
23 6 3 168.002 102.904 3
6 -3 -23 545.444 194.751 2
23 3 -6 364.616 186.643 3
3 -6 23 126.839 147.687 1
3 6 -23 172.675 115.782 2
4 -6 23 544.968 251.526 1
4 6 -23 471.299 161.035 2
23 6 4 381.228 140.412 3
6 -4 -23 381.517 89.5949 2
23 4 -6 166.828 171.614 3
-6 -4 23 482.524 235.499 1
5 6 -23 102.766 72.622 2
5 -6 23 208.891 73.0313 1
6 -5 -23 150.426 86.573 2
23 6 5 74.6444 41.4394 3
23 5 -6 -0.30287 48.9706 3
-6 -6 23 386.917 238.285 1
23 6 -6 240.438 164.324 3
6 -6 23 105.391 153.782 1
6 -6 -23 218.384 125.026 2
23 6 6 40.4731 89.7106 3
7 6 -23 297.024 152.929 2
-6 -7 23 29.0202 143.133 1
6 -7 -23 364.045 120.611 2
23 7 -6 435.745 208.482 3
7 -6 23 182.936 175.455 1
5 -23 7 253.382 63.1388 1
7 5 -23 146.332 126.045 2
-5 -7 23 492.378 220.97 1
5 -7 -23 444.404 198.936 2
23 7 -5 229.335 151.096 3
4 -23 7 379.715 255.346 1
7 4 -23 39.7607 85.9358 2
-4 -7 23 228.708 280.859 1
23 7 -4 17.8816 53.7788 3
4 -7 -23 145.011 118.397 2
7 3 -23 645.824 205.26 2
23 -3 -7 1035.83 253.213 3
3 -7 -23 915.96 260.702 2
23 7 -3 459.036 225.677 3
-3 -7 23 656.176 311.889 1
3 -23 7 816.745 266.19 1
7 2 -23 144.476 140.266 2
-2 -7 23 189.302 200.395 1
23 7 -2 241.41 128.257 3
2 -7 -23 246.895 185.452 2
23 -2 -7 44.1778 87.9069 3
2 -23 7 -69.4965 175.895 1
7 1 -23 139.217 137.339 2
23 7 -1 267.03 217.37 3
23 -1 -7 442.756 184.27 3
-1 7 -23 164.454 113.572 2
-1 -7 23 367.67 233.002 1
-7 0 23 866.918 281.112 1
7 0 -23 701.379 200.936 2
23 0 -7 485.14 243.924 3
23 7 0 601.209 230.607 3
0 7 -23 556.53 146.231 2
0 -7 23 773.442 301.409 1
1 -7 23 104.943 101.718 1
-7 -1 23 355.784 74.182 1
7 -1 -23 118.063 103.331 2
1 7 -23 253.088 112.51 2
23 7 1 245.866 160.523 3
23 1 -7 150.234 90.8719 3
2 7 -23 95.6749 64.5967 2
-7 -2 23 253.005 192.662 1
2 -7 23 222.528 250.742 1
7 -2 -23 144.878 56.6289 2
23 2 -7 147.545 127.191 3
23 7 2 17.3787 85.3601 3
3 -7 23 1421.31 426.503 1
-7 -3 23 843.445 311.518 1
7 -3 -23 904.028 258.345 2
23 3 -7 872.358 239.725 3
23 7 3 269.236 161.93 3
3 7 -23 689.177 174.806 2
7 -4 -23 18.3581 101.015 2
23 4 -7 46.0865 85.494 3
23 7 4 21.1758 103.97 3
4 7 -23 89.1687 90.9718 2
4 -7 23 106.574 100.979 1
-7 -4 23 114.177 101.662 1
5 -7 23 517.425 281.114 1
5 7 -23 49.1654 85.466 2
23 5 -7 249.685 195.513 3
7 -5 -23 337.876 187.832 2
23 7 5 25.3926 44.9254 3
-7 -5 23 61.6139 114.788 1
23 6 -7 602.201 226.327 3
6 7 -23 312.574 168.04 2
23 7 6 67.9747 53.4347 3
6 -7 23 314.827 260.188 1
7 -6 -23 423.665 166.036 2
-7 -6 23 369.316 201.676 1
-7 -7 23 1249.23 386.702 1
7 -7 -23 831.647 236.682 2
7 7 -23 989.336 227.981 2
7 -7 23 1034.28 352.654 1
23 7 -7 1202.68 293.232 3
8 7 -23 791.755 223.076 2
-7 -8 23 419.066 175.416 1
7 -8 -23 539.578 173.786 2
8 -7 23 623.671 314.015 1
23 8 -7 196.571 264.336 3
8 6 -23 47.1136 79.2698 2
23 8 -6 0.63067 102.791 3
6 -8 -23 106.362 77.5821 2
8 5 -23 147.916 76.4211 2
5 -23 8 -208.376 195.328 1
-5 -8 23 167.676 156.869 1
5 -8 -23 137.925 141.882 2
23 8 -5 76.646 155.254 3
4 -23 8 397.182 124.646 1
8 4 -23 497.091 206.242 2
-4 -8 23 283.039 149.428 1
23 8 -4 193.564 198.31 3
4 -8 -23 561.918 225.867 2
3 -23 8 823.844 295.575 1
-3 -8 23 712.598 258.559 1
8 3 -23 484.074 191.952 2
23 -3 -8 763.465 255.075 3
23 8 -3 709.372 285.854 3
3 -8 -23 1017.71 257.309 2
8 2 -23 -102.193 155.115 2
23 -2 -8 12.9441 85.2891 3
-2 -8 23 356.095 238.274 1
2 -8 -23 216.818 75.7446 2
23 8 -2 87.6981 79.1416 3
2 -23 8 210.057 208.884 1
8 1 -23 88.8651 147.952 2
23 -1 -8 196.294 167.534 3
-1 -8 23 -171.172 88.9729 1
1 -23 8 223.622 135.871 1
23 8 -1 71.7164 116.033 3
8 0 -23 1146.07 295.971 2
23 0 -8 1194.4 286.5 3
23 8 0 525.542 250.697 3
0 -8 23 1024.73 321.875 1
-8 -1 23 32.7182 60.0362 1
8 -1 -23 -35.8546 51.4837 2
23 8 1 164.899 131.795 3
1 -8 23 56.4549 134.601 1
23 1 -8 -0.30309 123.949 3
2 -8 23 -6.77089 101.646 1
8 -2 -23 43.6784 80.478 2
-8 -2 23 62.679 85.0731 1
23 2 -8 290.373 116.406 3
23 8 2 41.4184 135.258 3
-8 -3 23 593.731 247.56 1
3 -8 23 739.159 206.831 1
8 -3 -23 1033.81 266.269 2
23 3 -8 944.942 225.948 3
23 8 3 513.082 191.419 3
4 8 -23 216.054 60.9012 2
8 -4 -23 354.353 153.708 2
4 -8 23 414.507 267.025 1
23 4 -8 563.886 157.505 3
23 8 4 227.14 112.609 3
-8 -4 23 109.014 195.085 1
5 8 -23 76.7458 84.1183 2
-8 -5 23 -195.779 176.751 1
23 8 5 40.683 57.3315 3
8 -5 -23 12.2979 45.6376 2
23 5 -8 -25.7479 54.2973 3
5 -8 23 85.821 138.972 1
23 6 -8 150.359 141.641 3
6 -8 23 408.216 272.309 1
6 8 -23 165.541 113.197 2
8 -6 -23 74.6274 120.381 2
-8 -6 23 53.9194 129.486 1
23 8 6 26.5442 64.2807 3
7 8 -23 598.307 177.623 2
8 -7 -23 465.238 181.143 2
-8 -7 23 1030.86 377.974 1
23 7 -8 791.56 243.97 3
7 -8 23 579.932 332.851 1
8 8 -23 180.874 70.9495 2
-8 -8 23 762.756 312.288 1
8 -8 -23 563.878 219.363 2
23 8 -8 433.625 191.511 3
8 -8 23 494.775 73.5959 1
23 9 -8 48.6825 131.917 3
-8 -9 23 -81.4053 111.263 1
8 -9 -23 221.336 152.435 2
9 -8 23 -59.0443 104.117 1
9 7 -23 665.34 212.283 2
-7 -9 23 733.015 318.82 1
7 -9 -23 488.231 215.68 2
23 9 -7 578.5 212.608 3
9 6 -23 70.8216 119.382 2
-6 -9 23 -28.4161 92.7603 1
6 -9 -23 213.364 126.565 2
6 -23 9 173.474 120.259 1
23 9 -6 53.1336 112.456 3
9 5 -23 419.713 150.648 2
-5 -9 23 -161.245 221.841 1
5 -23 9 87.6895 166.84 1
5 -9 -23 239.621 121.508 2
23 9 -5 219.649 125.062 3
4 -9 -23 212.672 125.395 2
9 4 -23 113.513 72.9469 2
4 -23 9 150.106 102.661 1
23 9 -4 211.907 150.361 3
3 -23 9 51.8925 80.4587 1
9 3 -23 56.5792 69.7056 2
-3 -9 23 -30.3186 202.416 1
23 -3 -9 213.873 74.6399 3
3 -9 -23 199.556 115.043 2
23 9 -3 15.9074 94.7481 3
2 -23 9 29.7873 181.113 1
23 9 -2 -10.5453 145.307 3
-2 -9 23 141.765 189.938 1
9 2 -23 -8.35796 99.5495 2
23 -2 -9 205.343 69.3509 3
2 -9 -23 68.3281 107.661 2
9 1 -23 682.714 244.09 2
23 9 -1 432.858 188.388 3
23 -1 -9 1048.2 247.571 3
-1 -9 23 907.292 344.375 1
1 -23 9 882.768 319.256 1
9 0 -23 76.2819 68.4144 2
23 0 -9 229.336 144.696 3
23 9 0 -3.05719 100.616 3
0 -9 23 -202.534 265.49 1
0 -23 9 162.094 167.774 1
9 -1 -23 824.458 201.532 2
23 1 -9 1014.6 289.53 3
23 9 1 560.116 206.632 3
-1 -23 9 1084 276.703 1
1 -9 23 903.889 366.438 1
9 -2 -23 117.398 109.358 2
23 2 -9 135.947 127.192 3
23 9 2 44.5922 44.7255 3
2 -9 23 -10.5964 180.976 1
3 -9 23 274.44 173.035 1
-9 -3 23 240.929 111.289 1
9 -3 -23 312.277 175.207 2
23 3 -9 189.841 70.9254 3
23 9 3 222.567 126.882 3
9 -4 -23 134.104 115.041 2
23 4 -9 215.669 185.246 3
4 -9 23 -66.5537 153.822 1
23 9 4 50.2121 113.184 3
-9 -4 23 55.1643 143.923 1
9 -5 -23 315.651 133.37 2
5 -9 23 186.39 91.6141 1
23 5 -9 379.716 249.39 3
-9 -5 23 237.156 257.067 1
23 9 5 110.725 51.6129 3
23 6 -9 20.9748 135.104 3
9 -6 -23 13.1437 125.49 2
23 9 6 171.224 84.9089 3
-9 -6 23 -118.122 157.407 1
6 -9 23 -61.2883 64.1333 1
7 9 -23 591.274 154.54 2
9 -7 -23 503.927 161.224 2
7 -9 23 610.601 310.211 1
-9 -7 23 788.735 229.024 1
23 7 -9 347.712 214.528 3
8 -9 23 393.52 235.241 1
-9 -8 23 156.986 127.672 1
9 -8 -23 242.605 168.121 2
23 8 -9 103.337 78.4964 3
-9 -9 23 1596.67 458.579 1
9 -9 -23 1384.4 284.446 2
9 -9 23 1273.88 332.658 1
23 9 -9 1522.52 341.254 3
-9 -10 23 1513 448.285 1
9 -10 -23 1676.13 329.91 2
23 10 -9 2112.14 394.945 3
-8 -10 23 -290.903 298.129 1
8 -10 -23 -37.2803 125.442 2
23 10 -8 73.2153 159.173 3
-7 -10 23 839.467 284.24 1
7 -10 -23 1149.58 264.698 2
23 10 -7 456.38 273.116 3
10 6 -23 663.036 200.546 2
-6 -10 23 378.069 155.843 1
6 -23 10 235.716 145.868 1
6 -10 -23 976.249 307.955 2
23 10 -6 618.366 308.572 3
10 5 -23 599.635 186.016 2
-5 -10 23 832.055 373.51 1
5 -23 10 617.184 229.432 1
5 -10 -23 538.17 193.512 2
23 10 -5 260.662 206.493 3
10 4 -23 249.653 227.668 2
-4 -10 23 -5.55661 122.59 1
4 -23 10 -165.371 221.226 1
4 -10 -23 139.262 106.789 2
23 10 -4 12.79 108.458 3
10 3 -23 -13.4817 111.924 2
3 -23 10 294.739 118.279 1
-3 -10 23 -41.3922 187.965 1
23 -3 -10 114.578 170.945 3
3 -10 -23 130.31 68.2589 2
23 10 -3 10.0617 91.688 3
2 -10 -23 146.959 106.596 2
2 -23 10 10.4235 140.253 1
10 2 -23 38.0259 105.885 2
-2 -10 23 124.815 64.8558 1
23 -2 -10 444.734 178.662 3
23 10 -2 135.69 126.383 3
1 -23 10 791.318 316.314 1
10 1 -23 580.913 181.157 2
23 -1 -10 628.865 239.797 3
23 10 -1 303.91 169.076 3
-1 -10 23 581.171 254.718 1
10 0 -23 105.731 89.6237 2
23 0 -10 52.7059 111.438 3
23 10 0 134.049 180.137 3
0 -10 23 -14.3936 104.051 1
0 -23 10 434.757 286.563 1
23 1 -10 838.224 259.777 3
10 -1 -23 779.835 223.841 2
1 -10 23 931.03 312.933 1
23 10 1 722.111 194.92 3
-1 -23 10 661.334 307.02 1
23 2 -10 133.65 106.281 3
10 -2 -23 108.787 141.266 2
23 10 2 -1.86248 42.7093 3
2 -10 23 69.1605 120.239 1
-2 -23 10 -26.5909 233.933 1
10 -3 -23 9.63949 66.4029 2
23 3 -10 185.074 129.518 3
23 10 3 3.60776 109.343 3
3 -10 23 317.787 302.219 1
4 -10 23 -121.526 137.069 1
10 -4 -23 278.966 185.861 2
23 10 4 82.2381 93.4509 3
23 4 -10 168.995 146.458 3
10 -5 -23 529.36 188.223 2
5 -10 23 523.474 314.036 1
23 5 -10 917.57 268.994 3
-10 -5 23 761.285 282.531 1
23 10 5 168.247 149.169 3
10 -6 -23 941.013 239.842 2
23 10 6 559.663 182.779 3
23 6 -10 1038.22 284.721 3
6 -10 23 1045.89 398.068 1
-10 -6 23 677.077 306.938 1
7 -10 23 544.932 182.765 1
10 -7 -23 333.56 144.149 2
-10 -7 23 538.676 215.296 1
23 7 -10 664.249 268.309 3
23 8 -10 28.1475 127.221 3
10 -8 -23 53.6437 94.4831 2
-10 -8 23 75.1114 107.101 1
8 -10 23 -165.992 173.26 1
-10 -9 23 1483.68 446.608 1
10 -9 -23 1380.64 318.409 2
9 -10 23 1937.6 446.652 1
23 9 -10 1893.29 353.675 3
-10 -10 23 984.089 329.688 1
10 -10 -23 968.744 260.222 2
10 -10 23 951.656 428.647 1
23 10 -10 864.051 289.378 3
10 -11 -23 619.913 202.283 2
23 11 -10 224.297 206.224 3
-10 -11 23 375.214 59.6237 1
9 -11 -23 1568.64 296.444 2
23 11 -9 1643.62 314.774 3
-9 -11 23 1727.1 465.399 1
23 11 -8 329.529 185.092 3
8 -11 -23 818.811 219.451 2
23 11 -7 324.715 187.573 3
-7 -11 23 476.438 242.241 1
7 -11 -23 464.073 171.459 2
-6 -11 23 688.2 271.298 1
6 -11 -23 996.458 234.696 2
23 11 -6 799.732 241.754 3
6 -23 11 514.778 185.852 1
-5 -11 23 30.442 108.208 1
5 -11 -23 292.463 131.751 2
23 11 -5 84.7703 65.1935 3
11 4 -23 75.8726 116.255 2
-4 -11 23 -20.8426 62.5564 1
23 11 -4 1.5842 67.0615 3
4 -11 -23 -37.1374 110.311 2
11 3 -23 146.878 123.36 2
-3 -11 23 470.037 271.205 1
3 -23 11 59.2099 224.844 1
23 11 -3 40.8848 181.762 3
3 -11 -23 449.067 174.917 2
11 2 -23 147.855 152.939 2
23 -2 -11 -116.778 182.105 3
-2 -11 23 45.5533 193.532 1
2 -11 -23 148.522 120.313 2
11 1 -23 386.53 148.783 2
1 -23 11 804.797 331.618 1
-1 -11 23 224.029 234.44 1
1 -11 -23 312.577 136.461 2
23 11 -1 82.4797 139.608 3
23 -1 -11 490.445 163.698 3
0 -23 11 74.3764 82.3682 1
11 0 -23 26.8309 48.0079 2
23 0 -11 185.685 98.8137 3
0 -11 23 119.604 171.977 1
23 11 0 197.749 123.817 3
11 -1 -23 285.02 166.077 2
1 -11 23 508.731 274.635 1
23 11 1 435.385 168.159 3
23 1 -11 433.524 161.062 3
-1 -23 11 860.918 375.586 1
2 -11 23 172.717 102.88 1
11 -2 -23 143.077 116.875 2
23 2 -11 162.006 121.605 3
23 11 2 123.639 139.203 3
-2 -23 11 262.255 253.469 1
11 -3 -23 296.888 175.993 2
23 3 -11 195.984 96.2207 3
23 11 3 401.523 204.91 3
3 -11 23 426.245 160.245 1
-3 -23 11 815.951 391.408 1
4 -11 23 193.931 179.262 1
11 -4 -23 14.3639 52.5639 2
23 4 -11 -31.6356 88.8567 3
23 11 4 -6.30664 63.3005 3
-4 -23 11 -5.31408 90.1374 1
11 -5 -23 336.138 158.382 2
5 -11 23 289.092 217.324 1
23 11 5 202.004 123.12 3
23 5 -11 336.734 75.1127 3
11 -6 -23 752.515 196.399 2
23 11 6 525.906 177.157 3
6 -11 23 755.639 309.128 1
23 6 -11 806.246 260.224 3
11 -7 -23 967.118 264.906 2
-11 -7 23 350.671 164.274 1
23 7 -11 906.14 257.699 3
7 -11 23 543.578 240.537 1
11 -8 -23 764.347 263.197 2
-11 -8 23 559.661 243.959 1
8 -11 23 475.171 277.18 1
23 8 -11 601.321 217.395 3
9 -11 23 1428.97 460.724 1
-11 -9 23 1130.93 371.774 1
11 -9 -23 1367.41 306.724 2
23 9 -11 1021.17 248.751 3
-11 -10 23 328.209 252.782 1
10 -11 23 474.71 224.138 1
11 -10 -23 501.976 203.312 2
23 10 -11 150.891 161.865 3
11 -11 -23 2352.97 389.576 2
23 11 -11 1964.31 356.965 3
-11 -11 23 1294.51 472.393 1
11 -12 -23 1602.57 299.957 2
-11 -12 23 1081.79 377.335 1
23 12 -11 1698.35 358.175 3
10 -12 -23 -57.9429 101.364 2
23 12 -10 108.94 170.363 3
-10 -12 23 -373.809 220.569 1
9 -12 -23 1554.04 278.627 2
23 12 -9 1138.54 287.569 3
-9 -12 23 1321.88 429.172 1
8 -12 -23 2559.65 382.787 2
-8 -12 23 2120.65 513.199 1
23 12 -8 2089.47 420.083 3
7 -12 -23 160.942 126.186 2
23 12 -7 324.683 149.89 3
6 -12 -23 46.3573 83.5913 2
6 -23 12 116.836 103.019 1
23 12 -6 145.494 150.427 3
-6 -12 23 50.7846 142.791 1
-5 -12 23 331.359 256.459 1
5 -12 -23 269.846 83.529 2
23 12 -5 332.59 106.707 3
5 -23 12 589.19 283.588 1
4 -12 -23 248.723 65.5158 2
-4 -12 23 122.535 97.8817 1
4 -23 12 63.4845 103.262 1
-3 -12 23 57.5102 157.546 1
3 -23 12 360.057 291.566 1
3 -12 -23 193.884 273.069 2
23 12 -3 0.94351 126.459 3
-2 -12 23 542.095 318.012 1
2 -23 12 565.795 308.914 1
23 -2 -12 614.642 191.363 3
2 -12 -23 681.964 300.042 2
23 12 -2 27.0144 74.3859 3
12 1 -23 108.818 113.795 2
23 12 -1 15.8535 71.6342 3
1 -23 12 376.077 200.327 1
23 -1 -12 -123.105 91.2758 3
1 -12 -23 261.464 217.724 2
-1 -12 23 131.612 160.963 1
12 0 -23 89.3227 160.252 2
0 -23 12 32.8649 140.668 1
23 0 -12 21.7578 76.113 3
0 -12 23 212.376 117 1
23 12 0 -38.1157 99.6402 3
-1 -23 12 -100.028 180.962 1
12 -1 -23 149.703 91.8777 2
23 1 -12 172.207 74.8013 3
23 12 1 24.2958 94.1824 3
1 -12 23 -55.747 109.266 1
-2 -23 12 795.539 338.337 1
2 -12 23 388.388 177.292 1
12 -2 -23 452.251 221.58 2
23 12 2 85.4187 130.769 3
23 2 -12 394.468 172.435 3
12 -3 -23 137.496 163.731 2
23 12 3 124.168 161.335 3
23 3 -12 90.8352 137.777 3
3 -12 23 75.7628 171.515 1
-3 -23 12 -106.168 197.274 1
12 -4 -23 -79.7629 74.0761 2
23 4 -12 -32.1935 152.565 3
23 12 4 -9.44984 51.4738 3
4 -12 23 -71.0534 148.719 1
-4 -23 12 41.649 200.795 1
12 -5 -23 204.784 145.153 2
5 -12 23 239.187 210.373 1
23 5 -12 711.716 234.962 3
23 12 5 232.895 121.702 3
-5 -23 12 343.918 213.271 1
12 -6 -23 75.918 120.481 2
-6 -23 12 -242.603 212.284 1
23 6 -12 -11.2962 65.298 3
6 -12 23 -95.6851 128.481 1
12 -7 -23 181.763 121.85 2
23 7 -12 452.928 198.068 3
7 -12 23 75.9679 111.846 1
12 -8 -23 2484.23 382.174 2
8 -12 23 2466.62 576.766 1
23 8 -12 2721.15 444.058 3
12 -9 -23 1053.72 276.922 2
9 -12 23 1490.65 517.319 1
23 9 -12 1426.54 306.887 3
-12 -10 23 111.341 90.2907 1
12 -10 -23 79.9143 129.392 2
10 -12 23 -46.0429 139.345 1
23 10 -12 203.447 133.253 3
23 11 -12 1764.53 351.678 3
-12 -11 23 1076.23 440.48 1
23 12 -12 428.429 199.258 3
-12 -12 23 4.65673 239.191 1
23 13 -12 -133.571 137.389 3
23 13 -11 2027.45 386.069 3
-11 -13 23 997.755 377.415 1
10 -13 -23 26.9254 111.744 2
23 13 -10 97.1425 163.445 3
-10 -13 23 180.599 139.026 1
9 -13 -23 362.672 171.852 2
23 13 -9 166.21 101.812 3
-9 -13 23 288.588 185.721 1
8 -13 -23 1398.88 288.69 2
23 13 -8 802.299 321.007 3
-8 -13 23 1393.13 366.502 1
7 -13 -23 770.847 234.415 2
23 13 -7 496.664 222.699 3
-7 -13 23 503.113 285.818 1
6 -13 -23 -17.0357 94.5894 2
6 -23 13 271.418 77.1016 1
23 13 -6 296.178 141.019 3
-6 -13 23 106.13 197.95 1
5 -23 13 404.544 174.319 1
5 -13 -23 218.242 108.074 2
23 13 -5 224.347 175.288 3
-5 -13 23 500.595 318.347 1
-4 -13 23 142.744 120.01 1
4 -23 13 32.4047 160.455 1
4 -13 -23 61.583 107.788 2
23 13 -4 63.6169 110.973 3
-3 -13 23 1052.92 370.598 1
3 -23 13 735.608 265.322 1
3 -13 -23 1102.88 258.499 2
23 13 -3 865.735 244.861 3
-2 -13 23 480.158 275.179 1
2 -23 13 681.178 375.912 1
23 -2 -13 -34.8563 138.562 3
2 -13 -23 497.919 186.085 2
23 13 -2 57.6234 126.459 3
-1 -13 23 176.949 113.453 1
1 -23 13 136.05 73.3841 1
23 -1 -13 382.394 175.342 3
1 -13 -23 351.25 159.802 2
23 13 -1 291.362 172.493 3
0 -23 13 131.49 196.507 1
0 -13 23 372.087 195.448 1
23 13 0 235.541 151.867 3
23 0 -13 280.666 160.245 3
0 -13 -23 591.956 199.469 2
-1 -23 13 395.988 177.133 1
1 -13 23 0.67013 83.2379 1
23 1 -13 404.915 151.495 3
23 13 1 140.378 176.908 3
-2 -23 13 316.014 270.842 1
23 2 -13 362.33 106.59 3
23 13 2 47.4471 131.638 3
2 -13 23 -90.835 97.0533 1
-3 -23 13 825.863 321.597 1
23 3 -13 1165.35 297.22 3
23 13 3 385.259 193.815 3
3 -13 23 1168.27 384.003 1
23 4 -13 539.505 239.717 3
23 13 4 124.024 108.321 3
4 -13 23 282.689 200.579 1
-4 -23 13 100.148 211.118 1
5 -13 23 259.133 224.703 1
23 13 5 -10.1753 94.9193 3
23 5 -13 221.211 173.976 3
-5 -23 13 -135.738 277.31 1
6 -13 23 60.7289 196.3 1
23 6 -13 -19.6573 83.003 3
-6 -23 13 251.524 305.514 1
7 -13 23 541.546 199.865 1
23 7 -13 887.198 242.352 3
-7 -23 13 712.365 312.443 1
23 8 -13 1499.24 311.23 3
-8 -23 13 1181.82 427.449 1
8 -13 23 1242.12 380.343 1
9 -13 23 241.554 140.621 1
23 9 -13 436.079 169.218 3
-9 -23 13 399.554 191.022 1
23 10 -13 64.5089 144.683 3
-10 -23 13 -240.742 113.069 1
10 -13 23 30.4972 152.349 1
11 -13 23 1368.06 437.26 1
23 11 -13 1741.59 365.99 3
23 12 -13 -188.901 172.361 3
23 13 -13 580.618 257.782 3
23 14 -13 -24.7529 67.671 3
23 14 -12 398.087 225.774 3
23 14 -11 808.839 268.01 3
10 -14 -23 609.04 183.708 2
23 14 -10 882.365 250.959 3
9 -14 -23 -92.1213 154.644 2
23 14 -9 111.127 104.875 3
8 -14 -23 81.2062 94.9951 2
-8 -14 23 143.526 112.246 1
23 14 -8 94.2662 177.72 3
7 -14 -23 1852.62 321.078 2
23 14 -7 1579.09 349.675 3
-7 -14 23 1188.85 314.811 1
7 -23 14 942.792 354.565 1
6 -14 -23 0.90622 88.0253 2
23 14 -6 114.063 116.129 3
6 -23 14 -60.2487 311.993 1
-6 -14 23 -381.167 227.225 1
5 -14 -23 222.046 60.8155 2
5 -23 14 191.405 223.613 1
23 14 -5 107.069 145.026 3
-5 -14 23 309.22 307.664 1
-4 -14 23 426.345 186.881 1
4 -23 14 181.632 161.969 1
4 -14 -23 231.974 138.832 2
23 14 -4 473.487 222.483 3
-3 -14 23 512.5 327.478 1
3 -23 14 397.964 273.213 1
23 14 -3 101.128 163.545 3
3 -14 -23 540.912 213.586 2
-2 -14 23 1041.11 407.226 1
2 -23 14 503.715 218.929 1
2 -14 -23 584.112 164.248 2
23 14 -2 360.162 234.148 3
-1 -14 23 316.863 267.353 1
23 -1 -14 185.297 196.696 3
1 -23 14 112.609 237.839 1
1 -14 -23 123.424 87.345 2
23 14 -1 147.639 119.249 3
0 -23 14 -34.7909 114.668 1
0 -14 23 496.811 364.186 1
23 0 -14 95.802 95.5593 3
0 -14 -23 221.018 166.146 2
23 14 0 96.2905 135.749 3
-1 -23 14 160.836 106.36 1
23 1 -14 34.6792 115.158 3
23 14 1 40.3292 141.741 3
-2 -23 14 861.447 345.044 1
23 2 -14 823.438 222.533 3
2 -14 23 598.461 289.045 1
23 14 2 321.842 221.242 3
-3 -23 14 -48.8162 280.848 1
23 3 -14 409.184 146.137 3
3 -14 23 345.824 201.252 1
23 14 3 98.6901 149.793 3
-4 -23 14 154.283 154.381 1
23 14 4 353.616 125.002 3
23 4 -14 590.038 263.992 3
4 -14 23 738.032 357.375 1
-5 -23 14 296.809 292.811 1
23 5 -14 -7.57439 69.9079 3
23 14 5 -5.50795 56.3624 3
5 -14 23 26.6381 167.954 1
-6 -23 14 116.16 188.934 1
6 -14 23 -148.921 202.824 1
23 6 -14 47.2296 56.4923 3
7 -14 23 1521.5 444.829 1
23 7 -14 2074.09 375.858 3
-7 -23 14 1654.15 497.096 1
8 -14 23 -151.057 133.244 1
-8 -23 14 -235.43 130.831 1
9 -14 23 -51.049 156.297 1
23 9 -14 75.9333 125.462 3
-9 -23 14 -49.7123 258.722 1
23 10 -14 708.839 232.719 3
23 11 -14 846.952 251.679 3
23 12 -14 92.0108 111.12 3
23 13 -14 -16.4138 88.9971 3
23 14 -14 202.015 156.168 3
23 15 -14 269.9 138.57 3
23 15 -13 383.591 135.459 3
23 15 -12 -56.3167 73.3554 3
23 15 -11 438.824 201.6 3
23 15 -10 1644.01 381.714 3
9 -15 -23 679.749 235.375 2
23 15 -9 349.651 215.6 3
8 -15 -23 614.74 195.06 2
23 15 -8 540.794 293.312 3
-8 -15 23 141.563 131.422 1
7 -15 -23 203.093 58.2611 2
23 15 -7 107.162 169.779 3
6 -15 -23 596.645 198.397 2
23 15 -6 141.293 183.043 3
-6 -15 23 583.224 214.11 1
6 -23 15 353.901 199.464 1
5 -15 -23 1623.6 337.589 2
-5 -15 23 1599.51 482.903 1
5 -23 15 611.679 280.608 1
23 15 -5 989.315 306.219 3
4 -15 -23 580.824 154.847 2
4 -23 15 282.809 268.704 1
23 15 -4 364.179 213.711 3
-4 -15 23 794.245 342.413 1
3 -23 15 328.912 326.828 1
3 -15 -23 245.483 156.594 2
23 15 -3 142.672 202.352 3
2 -23 15 536.023 265.118 1
-2 -15 23 538.174 259.207 1
2 -15 -23 508.716 138.346 2
23 15 -2 622.145 218.504 3
23 -1 -15 463.305 171.379 3
-1 -15 23 760.958 381.866 1
1 -23 15 238.439 148.491 1
1 -15 -23 1051.57 249.921 2
23 15 -1 262.095 190.08 3
0 -15 23 160.699 206.697 1
0 -23 15 12.5116 167.464 1
23 0 -15 110.338 81.2232 3
0 -15 -23 -153.67 142.125 2
23 15 0 -35.0828 123.165 3
-1 -23 15 979.541 401.67 1
1 -15 23 1071.76 361.209 1
23 1 -15 965.4 261.251 3
-1 -15 -23 895.635 197.759 2
23 15 1 421.155 192.224 3
-2 -23 15 1122.95 447.887 1
2 -15 23 896.697 351.659 1
23 2 -15 618.179 165.862 3
23 15 2 363.712 216.682 3
-3 -23 15 414.718 256.152 1
3 -15 23 192.423 203.245 1
23 3 -15 38.8959 59.0251 3
23 15 3 -105.629 151.941 3
-4 -23 15 1097.76 435.305 1
23 4 -15 736.821 192.933 3
23 15 4 578.255 205.959 3
4 -15 23 905.575 341.244 1
-5 -23 15 1345.59 437.001 1
23 5 -15 1124.25 279.446 3
23 15 5 557.312 198.774 3
5 -15 23 731.968 298.655 1
-6 -23 15 650.531 271.616 1
6 -15 23 705.202 341.671 1
23 6 -15 691.712 244.763 3
7 -15 23 -51.4572 209.052 1
23 7 -15 17.3346 89.0751 3
8 -15 23 134.41 185.722 1
23 8 -15 231.647 129.97 3
23 9 -15 435.235 167.623 3
23 10 -15 2027.21 367.199 3
23 11 -15 202.349 132.334 3
23 12 -15 63.4994 140.408 3
23 13 -15 498.303 223.532 3
23 14 -15 -164.198 105.446 3
23 15 -15 243.556 99.9114 3
23 16 -15 58.4411 75.9626 3
23 16 -14 751.181 268.305 3
23 16 -13 168.387 195.986 3
23 16 -12 93.4095 86.0515 3
23 16 -11 247.185 140.31 3
23 16 -10 404.909 178.939 3
9 -16 -23 1447.75 301.601 2
23 16 -9 1642.27 398.39 3
8 -16 -23 322.699 136.554 2
23 16 -8 532.962 215.611 3
7 -16 -23 -64.4879 104.073 2
23 16 -7 144.32 159.979 3
6 -23 16 -30.9599 209.199 1
6 -16 -23 103.32 81.2849 2
23 16 -6 35.805 208.053 3
5 -16 -23 776.919 205.713 2
23 16 -5 397.21 251.602 3
5 -23 16 1111.03 409.341 1
-5 -16 23 529.188 149.823 1
4 -16 -23 838.204 217.8 2
4 -23 16 363.929 246.99 1
23 16 -4 217.816 197.363 3
-4 -16 23 601.853 319.649 1
-3 -16 23 450.449 314.5 1
3 -16 -23 -90.0839 143.472 2
3 -23 16 579.788 262.135 1
23 16 -3 254.825 132.167 3
-2 -16 23 478.317 328.819 1
2 -16 -23 356.889 139.06 2
2 -23 16 208.445 77.8164 1
23 16 -2 336.456 162.178 3
-1 -16 23 42.9943 233.18 1
1 -16 -23 96.4906 76.57 2
1 -23 16 453.283 240.998 1
23 16 -1 82.8034 107.992 3
0 -16 23 172.248 78.9988 1
23 0 -16 100.973 121.697 3
0 -23 16 431.37 91.2738 1
23 16 0 34.1482 138.222 3
-1 -23 16 189.045 216.376 1
1 -16 23 190.973 233.241 1
23 1 -16 75.7063 103.499 3
-1 -16 -23 185.435 65.5797 2
23 16 1 414.944 191.348 3
2 -16 23 362.728 194.788 1
-2 -23 16 509.475 140.268 1
23 2 -16 368.494 163.589 3
23 16 2 368.768 173.072 3
-2 -16 -23 242.611 56.9774 2
-3 -23 16 282.765 257.058 1
23 3 -16 245.04 142.849 3
3 -16 23 230.012 289.433 1
23 16 3 195.031 110.118 3
4 -16 23 667.183 298.039 1
-4 -23 16 912.838 282.461 1
23 4 -16 367.02 125.83 3
23 16 4 204.446 174.83 3
-5 -23 16 359.197 209.393 1
23 5 -16 689.014 225.767 3
23 16 5 296.605 154.606 3
5 -16 23 853.966 403.803 1
23 6 -16 106.959 140.52 3
23 7 -16 -185.739 172.239 3
23 8 -16 449.091 135.025 3
23 9 -16 1409.68 283.202 3
23 10 -16 382.95 152.775 3
23 11 -16 290.279 134.281 3
23 12 -16 -44.6546 125.336 3
23 13 -16 242.813 171.233 3
23 14 -16 415.85 191.133 3
23 15 -16 357.422 187.648 3
23 16 -16 788.856 261.31 3
16 23 -17 -31.7679 111.017 3
23 17 -16 196.684 184.835 3
23 17 -15 687.386 237.356 3
23 17 -14 972.821 257.999 3
23 17 -13 91.3071 110.248 3
23 17 -12 489.543 189.255 3
23 17 -11 490.311 215.254 3
23 17 -10 355.673 157.899 3
23 17 -9 106.699 81.8014 3
8 -17 -23 744.235 205.582 2
23 17 -8 167.014 214.483 3
7 -17 -23 282.185 125.32 2
23 17 -7 101.132 165.942 3
6 -17 -23 685.701 208.47 2
23 17 -6 690.915 281.06 3
5 -17 -23 433.055 155.247 2
23 17 -5 479.769 194.303 3
4 -17 -23 2702.29 385.722 2
23 17 -4 2809.79 445.215 3
3 -17 -23 732.175 162.992 2
23 17 -3 145.868 204.205 3
2 -17 -23 61.986 93.3043 2
2 -23 17 314.299 206.296 1
23 17 -2 277.178 233.316 3
1 -23 17 -49.8121 63.9896 1
23 17 -1 34.3604 59.0905 3
23 0 -17 2248.9 387.821 3
0 -23 17 2039.61 494.93 1
0 -17 -23 2118 335.601 2
23 17 0 1558.52 380.505 3
-1 -23 17 -9.4597 222.073 1
-1 -17 -23 316.142 156.945 2
23 17 1 -430.762 160.218 3
23 1 -17 194.105 192.659 3
23 2 -17 106.165 68.9152 3
-2 -17 -23 239.343 181.792 2
23 17 2 26.4166 109.761 3
23 3 -17 638.093 287.84 3
23 17 3 78.4867 114.81 3
-3 -17 -23 546.531 213.633 2
23 4 -17 2742.48 418.397 3
23 17 4 1980.07 360.188 3
23 5 -17 138.922 107.728 3
23 17 5 38.6852 151.046 3
23 6 -17 835.852 226.33 3
23 7 -17 459.991 182.676 3
23 8 -17 911.328 219.02 3
23 9 -17 1.30164 83.8457 3
23 10 -17 360.969 177.96 3
23 11 -17 273.962 157.851 3
23 12 -17 570.354 216.655 3
23 13 -17 -13.9417 107.033 3
23 14 -17 1166.81 297.238 3
23 15 -17 380.797 136.603 3
23 16 -17 87.3013 105.406 3
17 23 -16 -37.303 98.2477 3
23 17 -17 59.42 88.1034 3
17 23 -17 170.143 76.5442 3
23 18 -17 335.447 82.4692 3
17 23 -18 377.518 143.001 3
23 18 -16 -124.653 154.626 3
16 23 -18 -276.105 161.431 3
23 18 -15 129.029 76.7951 3
23 18 -14 217.895 61.2033 3
23 18 -13 71.1002 119.597 3
23 18 -12 703.579 241.799 3
23 18 -11 797.076 246.314 3
23 18 -10 739.248 212.667 3
23 18 -9 -112.797 140.176 3
23 18 -8 111.407 122.893 3
7 -18 -23 1131.64 258.962 2
23 18 -7 1300.3 325.366 3
6 -18 -23 252.868 149.984 2
23 18 -6 6.26305 92.4838 3
18 23 5 49.5302 82.2264 3
5 -18 -23 23.4807 77.0684 2
23 18 -5 -24.3769 163.614 3
4 -18 -23 219.59 206.065 2
23 18 -4 -33.4333 124.371 3
3 -18 -23 799.284 225.482 2
23 18 -3 92.3944 109.308 3
2 -18 -23 903.762 283.255 2
23 18 -2 605.131 232.211 3
1 -18 -23 372.337 157.83 2
23 18 -1 52.4155 68.4314 3
0 -18 -23 369.805 159.427 2
23 18 0 59.5273 132.116 3
23 1 -18 227.251 91.3366 3
-1 -18 -23 223.442 133.701 2
23 18 1 393.727 185.8 3
-2 -18 -23 700.409 217.876 2
23 2 -18 834.302 221.681 3
23 18 2 774.572 249.954 3
-3 -18 -23 225.503 123.882 2
23 18 3 188.024 58.6298 3
-4 -18 -23 -24.3234 172.494 2
23 18 4 14.0076 101.792 3
23 4 -18 -302.257 170.267 3
23 5 -18 166.936 81.5624 3
23 18 5 34.4802 94.0442 3
23 6 -18 77.0547 111.695 3
23 7 -18 1394.67 283.236 3
23 8 -18 154.82 102.218 3
23 9 -18 -93.2395 99.4145 3
23 10 -18 441.191 207.386 3
23 11 -18 702.899 263.421 3
23 12 -18 566.115 200.205 3
23 13 -18 464.7 215.805 3
18 23 -14 427.59 225.057 3
23 14 -18 271.786 174.168 3
23 15 -18 77.4272 92.8634 3
18 23 -15 -98.2927 98.8554 3
23 16 -18 140.086 84.3998 3
18 23 -16 120.909 56.4756 3
23 17 -18 323.232 81.5097 3
18 23 -17 373.802 135.643 3
23 18 -18 919.532 210.497 3
18 18 -23 479.04 143.199 3
18 23 -18 992.198 256.377 3
19 18 -23 9.28499 133.046 3
23 19 -18 -182.018 140.43 3
18 23 -19 53.6316 52.0146 3
19 17 -23 161.658 100.247 3
23 19 -17 124.011 60.7188 3
17 23 -19 237.919 102.162 3
23 19 -16 642.183 222.035 3
16 23 -19 761.502 190.999 3
23 19 -15 195.622 155.364 3
15 23 -19 -81.8287 95.9889 3
23 19 -14 485.19 198.185 3
23 19 -13 649.609 243.459 3
23 19 -12 882.261 231.255 3
23 19 -11 136.139 68.1094 3
23 19 -10 299.392 184.526 3
23 19 -9 1531.7 363.056 3
23 19 -8 783.846 250.937 3
23 19 -7 3.83637 123.259 3
23 19 -6 714.021 325.543 3
23 19 -5 182.319 163.415 3
19 23 5 233.586 157.369 3
23 19 -4 308.905 237.424 3
19 23 4 350.987 141.042 3
19 23 3 103.551 137.479 3
23 19 -3 61.6777 141.83 3
23 19 -2 1308.78 318.743 3
23 19 -1 63.8718 177.778 3
23 19 0 1082.99 269.584 3
23 19 1 108.131 162.057 3
23 2 -19 1115.97 258.385 3
23 19 2 691.761 271.846 3
23 3 -19 -74.4124 52.4762 3
23 19 3 48.0283 62.5624 3
23 19 4 392.584 183.916 3
-4 -19 -23 556.158 178.895 2
23 5 -19 342.161 174.309 3
-5 -19 -23 339.139 138.768 2
23 19 5 167.925 107.818 3
23 6 -19 1236.35 269.728 3
23 7 -19 225.085 168.555 3
23 8 -19 1098.36 264.579 3
23 9 -19 1238.39 277.596 3
23 10 -19 528.404 202.698 3
19 23 -11 -127.907 154.506 3
23 11 -19 0.90141 103.33 3
23 12 -19 1218.78 273.526 3
19 23 -12 1290.18 291.475 3
23 13 -19 485.733 159.162 3
19 23 -13 783.44 205.64 3
23 14 -19 464.151 182.862 3
19 23 -14 54.1628 76.8416 3
23 15 -19 317.96 171.479 3
19 23 -15 371.278 163.01 3
23 16 -19 689.498 171.167 3
19 23 -16 670.772 189.075 3
23 17 -19 77.1262 72.6143 3
17 19 -23 84.2326 79.1965 3
19 23 -17 201.036 111.606 3
18 19 -23 -56.8986 43.7042 3
23 18 -19 -21.5521 85.4794 3
19 23 -18 95.4626 88.5224 3
19 19 -23 3.34568 58.3348 3
23 19 -19 -7.20009 93.9244 3
19 23 -19 -172.649 96.9781 3
20 19 -23 63.362 76.7852 3
23 20 -19 355.796 143.596 3
19 23 -20 126.982 132.034 3
23 20 -18 -31.441 99.4946 3
20 18 -23 -4.73432 78.3722 3
18 23 -20 140.724 83.5292 3
20 17 -23 -0.20623 69.6216 3
23 20 -17 119.088 96.8986 3
17 23 -20 152.051 124.341 3
20 16 -23 126.128 97.7729 3
23 20 -16 110.713 125.17 3
16 23 -20 274.989 149.543 3
23 20 -15 194.129 140.599 3
15 23 -20 -150.982 97.2639 3
23 20 -14 73.869 65.9848 3
14 23 -20 274.976 150.131 3
23 20 -13 261.722 151.187 3
23 20 -12 611.585 173.552 3
23 20 -11 176.135 134.363 3
23 20 -10 727.436 236.044 3
23 20 -9 653.089 244.1 3
23 20 -8 417.636 232.693 3
23 20 -7 33.3639 111.961 3
23 20 -6 303.284 209.048 3
23 20 -5 1381.66 335.883 3
20 23 5 607.382 218.903 3
23 20 -4 464.72 176.822 3
20 23 4 574.078 249.138 3
23 20 -3 460.229 205.691 3
20 23 3 539.38 206.695 3
23 20 -2 171.189 183.147 3
20 23 2 231.562 139.914 3
23 20 -1 261.414 204.187 3
20 23 1 138.166 78.3902 3
23 20 0 315.273 207.197 3
20 23 0 92.1536 194.17 3
20 23 -1 294.404 202.993 3
23 20 1 31.6758 69.5778 3
20 23 -2 253.57 227.426 3
23 20 2 38.1659 126.84 3
20 23 -3 753.516 278.596 3
23 3 -20 604.353 193.846 3
23 20 3 354.429 215.575 3
23 4 -20 931.696 235.144 3
23 20 4 562.201 211.167 3
20 23 -5 977.791 302.826 3
23 5 -20 1532.92 302.12 3
23 20 5 898.778 279.414 3
20 23 -6 168.663 206.593 3
23 6 -20 116.93 79.705 3
23 7 -20 216.736 192.421 3
20 23 -7 3.44796 107.536 3
20 23 -8 78.3976 140.988 3
23 8 -20 362.722 102.585 3
23 9 -20 691.068 204.501 3
20 23 -9 281.035 178.776 3
23 10 -20 869.047 243.421 3
20 23 -10 618.68 190.977 3
23 11 -20 109.053 54.9284 3
20 23 -11 391.471 209.59 3
23 12 -20 507.992 147.766 3
20 23 -12 189.772 148.647 3
23 13 -20 220.775 106.841 3
20 23 -13 371.737 161.95 3
23 14 -20 92.0956 51.8376 3
20 23 -14 227.738 101.164 3
20 23 -15 441.37 155.852 3
23 15 -20 179.134 128.846 3
16 20 -23 -17.8623 59.7296 3
23 16 -20 183.259 137.278 3
20 23 -16 123.189 72.0312 3
17 20 -23 17.2893 37.6187 3
20 23 -17 -81.1339 99.4046 3
23 18 -20 88.1592 94.4602 3
18 20 -23 37.0951 114.172 3
20 23 -18 165.678 100.689 3
23 19 -20 2.26529 81.8629 3
19 20 -23 33.2614 134.11 3
20 23 -19 268.2 72.7246 3
20 23 -20 897.37 189.43 3
23 20 -20 1058.81 206.796 3
23 21 -20 -2.78813 90.2082 3
21 20 -23 -2.11787 89.7474 3
20 23 -21 12.3026 45.6041 3
23 21 -19 3.09825 135.071 3
21 19 -23 8.41628 72.4649 3
19 23 -21 13.5071 135.451 3
21 18 -23 12.3054 90.261 3
23 21 -18 175.953 118.068 3
18 23 -21 54.2753 100.803 3
23 21 -17 176.935 121.887 3
21 17 -23 -31.0041 96.1252 3
17 23 -21 54.3803 52.1768 3
21 16 -23 -13.3049 64.4823 3
16 23 -21 52.0671 72.6052 3
21 15 -23 896.122 195.842 3
23 21 -15 865.962 237.921 3
15 23 -21 928.117 218.544 3
23 21 -14 641.345 207.3 3
14 23 -21 521.435 157.969 3
23 21 -13 55.6446 71.7105 3
13 23 -21 72.7635 48.6214 3
12 23 -21 91.8816 91.1324 3
23 21 -12 154.263 169.239 3
23 21 -11 2054.37 415.384 3
23 21 -10 209.97 152.152 3
23 21 -9 90.533 116.721 3
23 21 -8 394.849 225.408 3
23 21 -7 395.888 222.77 3
23 21 -6 752.542 255.452 3
21 23 5 -12.0368 131.209 3
23 21 -5 194.956 214.933 3
21 23 4 821.146 272.546 3
23 21 -4 1276.02 317.92 3
23 21 -3 -27.3605 83.1408 3
21 23 3 -27.8319 74.2085 3
23 21 -2 742.648 270.14 3
21 23 2 605.131 229.803 3
23 21 -1 43.9452 76.8775 3
21 23 1 116.147 90.2718 3
23 21 0 394.66 218.77 3
21 23 0 360.629 211.049 3
23 21 1 15.5852 88.3232 3
21 23 -1 -22.8693 71.7779 3
23 21 2 336.778 230.289 3
21 23 -2 625.492 260.356 3
23 21 3 0.26608 56.3393 3
21 23 -3 -3.55843 113.984 3
23 4 -21 1621.99 289.699 3
23 21 4 1061.99 276.5 3
21 23 -4 1217.54 344.624 3
23 21 5 -152.809 90.6483 3
23 5 -21 -20.4569 116.993 3
21 23 -5 -234.266 131.078 3
23 6 -21 1051.08 266.034 3
21 23 -6 612.558 249.044 3
23 7 -21 1049.66 268.38 3
21 23 -7 561.383 234.467 3
23 8 -21 881.915 248.419 3
21 23 -8 507.987 259.075 3
23 9 -21 238.637 162.795 3
21 23 -9 64.8983 63.772 3
23 10 -21 124.515 54.0396 3
21 23 -10 161.485 173.234 3
23 11 -21 2402.54 348.841 3
21 23 -11 2279.31 434.001 3
23 12 -21 -115.354 108.383 3
21 23 -12 45.2811 55.8505 3
23 13 -21 145.558 116.632 3
21 23 -13 149.622 118.228 3
23 14 -21 528.233 186.955 3
21 23 -14 719.354 189.794 3
23 15 -21 951.49 208.642 3
21 23 -15 1102.73 270.994 3
23 16 -21 112.233 69.7506 3
16 21 -23 2.40087 96.6897 3
21 23 -16 -50.5323 86.5955 3
23 17 -21 -38.765 70.7266 3
17 21 -23 17.1323 71.3798 3
21 23 -17 100.933 107.854 3
23 18 -21 24.4719 90.9257 3
21 23 -18 -58.9534 44.9378 3
18 21 -23 -9.5444 57.0312 3
21 23 -19 28.9495 134.536 3
23 19 -21 37.705 82.8171 3
19 21 -23 19.4201 71.1384 3
23 20 -21 -36.1842 57.7625 3
20 21 -23 -2.26892 65.7605 3
21 23 -20 21.2865 37.8712 3
23 21 -21 -48.1298 99.454 3
21 21 -23 1.34244 62.2786 3
21 23 -21 -5.36424 100.686 3
23 22 -21 -4.94207 40.8145 3
22 21 -23 59.7544 77.1951 3
21 23 -22 9.84063 53.7877 3
22 20 -23 9.55501 85.3892 3
20 23 -22 5.93315 51.6927 3
23 22 -20 1.10233 60.7819 3
22 19 -23 28.4158 62.3344 3
23 22 -19 26.5645 174.666 3
19 23 -22 3.62666 85.9791 3
22 18 -23 271.009 183.432 3
18 23 -22 234.489 174.088 3
22 17 -23 145.911 140.094 3
17 23 -22 8.14108 146.772 3
23 22 -17 269.387 139.087 3
22 16 -23 13.9654 95.1375 3
23 22 -16 156.669 136.82 3
16 23 -22 32.4153 85.6082 3
22 15 -23 130.477 154.223 3
23 22 -15 415.475 141.613 3
15 23 -22 327.065 119.638 3
23 22 -14 360.547 166.161 3
14 23 -22 428.336 154.691 3
23 22 -13 116.882 73.3393 3
13 23 -22 -15.2923 106.804 3
23 22 -12 223.708 152.859 3
12 23 -22 187.161 97.3288 3
23 22 -11 552.878 231.638 3
11 23 -22 712.696 163.729 3
23 22 -10 569.083 244.685 3
23 22 -9 216.625 113.603 3
23 22 -8 398.678 186.906 3
23 22 -7 144.741 192.512 3
23 22 -6 199.424 168.084 3
22 23 5 199.128 113.146 3
23 22 -5 221.745 178.85 3
22 23 4 139.248 166.607 3
23 22 -4 420.279 205.011 3
22 23 3 533.913 230.134 3
23 22 -3 528.714 228.969 3
22 23 2 273.957 183.235 3
23 22 -2 398.608 212.669 3
23 22 -1 -7.81381 106.274 3
22 23 1 -15.2464 78.0437 3
23 22 0 430.425 227.194 3
22 23 0 199.417 197.623 3
22 23 -1 4.81898 50.1997 3
23 22 1 59.7881 103.487 3
23 22 2 139.366 166.53 3
22 23 -2 438.944 204.304 3
23 22 3 222.207 190.71 3
22 23 -3 334.628 209.565 3
23 22 4 216.252 164.807 3
22 23 -4 404.348 220.186 3
23 22 5 370.542 175.79 3
22 23 -5 179.521 140.286 3
22 23 -6 64.4657 56.2215 3
22 23 -7 177.33 138.067 3
23 8 -22 671.743 180.482 3
22 23 -8 365.061 215.698 3
23 9 -22 294.01 163.079 3
22 23 -9 199.462 152.149 3
23 10 -22 464.683 133.786 3
22 23 -10 419.802 198.608 3
23 11 -22 888.262 204.779 3
22 23 -11 837.976 269.573 3
23 12 -22 394.733 139.546 3
22 23 -12 400.468 192.825 3
23 13 -22 254.658 145.59 3
22 23 -13 286.604 149.426 3
23 14 -22 394.593 153.434 3
22 23 -14 490.532 185.954 3
23 15 -22 389.273 114.075 3
22 23 -15 550.487 171.336 3
16 22 -23 28.6282 82.1545 3
22 23 -16 26.6211 135.134 3
23 16 -22 -13.1964 135.829 3
17 22 -23 98.6519 125.803 3
23 17 -22 77.2994 158.447 3
22 23 -18 1076.05 236.992 3
18 22 -23 1265.83 200.818 3
19 22 -23 19.9446 56.0408 3
22 23 -19 -0.61465 69.8927 3
23 19 -22 -0.1766 58.6871 3
22 23 -20 18.4474 116.742 3
20 22 -23 -16.8204 62.1033 3
23 20 -22 12.5668 51.717 3
23 21 -22 -15.3055 42.1788 3
21 22 -23 -8.1757 63.8243 3
22 23 -21 -0.15855 42.6952 3
23 22 -22 -0.929 52.3547 3
22 23 -22 3.5604 50.1136 3
23 23 0 -143.691 97.6983 3
23 23 1 3.27673 116.555 3
23 23 -1 -45.1798 107.602 3
23 23 2 296.948 184.419 3
23 23 -2 597.8 192.411 3
23 23 3 127.623 145.979 3
23 23 -3 103.523 143.919 3
23 23 4 19.3706 107.816 3
23 23 -4 172.496 176.888 3
23 23 -5 10.987 58.3364 3
23 23 -6 738.856 284.071 3
23 23 -7 168.04 143.051 3
23 23 -8 -62.2916 86.3374 3
23 23 -9 418.451 189.397 3
23 23 -10 57.2724 102.451 3
23 23 -11 51.6282 116.522 3
23 23 -12 68.6635 137.475 3
23 23 -13 2647.53 420.756 3
23 14 -23 -37.9982 75.0754 3
23 23 -14 180.362 154.131 3
14 23 -23 2.65241 127.526 3
23 15 -23 8.75427 74.1305 3
23 23 -15 -6.7869 53.7697 3
15 23 -23 -15.3578 74.6966 3
23 16 -23 -25.4138 75.2131 3
16 23 -23 31.6755 50.8689 3
17 23 -23 54.1215 142.114 3
23 17 -23 162.962 144.883 3
23 18 -23 62.3696 61.2671 3
23 23 -18 55.3892 105.668 3
18 23 -23 -10.7452 36.133 3
19 23 -23 13.1313 60.8143 3
23 19 -23 -11.3872 37.2889 3
23 23 -19 -15.3339 36.2326 3
20 23 -23 -2.50106 44.3415 3
23 20 -23 14.2187 74.3856 3
23 23 -20 3.17445 41.6427 3
23 23 -21 1174.36 177.174 3
24 0 0 3401.46 440.354 3
24 1 0 343.31 195.087 3
24 -1 0 386.353 186.12 3
24 0 1 397.529 200.999 3
24 0 -1 536.675 202.243 3
24 -1 -1 68.9161 114.26 3
-1 -1 24 72.9817 124.124 1
24 -1 1 40.7396 111.406 3
24 1 1 104.839 119.985 3
1 1 -24 119.511 78.5577 2
24 1 -1 64.3021 92.6153 3
24 -1 -2 1719.64 372.087 3
-1 -2 24 1427.78 391.854 1
24 2 -1 1000.75 318.687 3
24 1 2 1185.56 297.172 3
2 1 -24 1223.28 295.154 2
24 0 2 214.866 141.924 3
2 0 -24 98.5587 149.024 2
24 0 -2 21.2389 119.51 3
24 2 0 9.22585 88.5148 3
0 -2 24 292.857 250.091 1
1 -2 24 1516.52 410.427 1
24 -2 -1 1122.46 280.449 3
-2 -1 24 2132 457.665 1
24 1 -2 1464.63 301.139 3
24 2 1 1651.2 298.923 3
2 -1 -24 1108.52 302.789 2
1 2 -24 1364.85 271.208 2
24 2 2 1673.92 308.054 3
24 -2 -2 1938.76 360.891 3
24 2 -2 2156.7 352.084 3
2 2 -24 1873.95 344.653 2
2 -2 -24 2265.28 375.721 2
-2 -2 24 2497.41 537.564 1
-2 -3 24 -93.8545 60.5896 1
24 2 3 -15.6212 58.7694 3
24 3 -2 91.062 159.957 3
24 -2 -3 75.7871 109.595 3
3 2 -24 17.3801 104.677 2
2 -3 -24 164.052 85.1105 2
-1 -3 24 264.457 318.551 1
24 1 3 201.567 120.647 3
24 -1 -3 25.1789 155.247 3
24 3 -1 -14.7824 116.817 3
3 1 -24 246.122 175.207 2
24 0 -3 626.489 196.755 3
24 0 3 81.0152 160.179 3
24 3 0 407.634 226.748 3
0 -3 24 442.707 270.486 1
3 0 -24 389.809 173.833 2
24 1 -3 -32.4183 129.774 3
1 -3 24 -19.9738 150.337 1
24 3 1 -3.71901 136.919 3
3 -1 -24 135.109 125.213 2
1 3 -24 -185.09 164.398 2
-3 -1 24 47.1545 133.148 1
24 2 -3 47.9147 70.8126 3
2 -3 24 -42.8976 88.0527 1
24 3 2 -109.276 83.3537 3
3 -2 -24 85.2933 74.1701 2
2 3 -24 77.1026 92.9009 2
3 -3 24 77.4459 163.051 1
3 3 -24 531.464 203.564 2
24 3 3 175.525 140.135 3
24 3 -3 312.057 150.886 3
3 -3 -24 345.148 166.108 2
-3 -3 24 212.822 246.727 1
24 3 4 704.262 174.826 3
24 4 -3 1287.88 289.98 3
4 3 -24 939.324 261.51 2
3 -4 -24 987.842 262.85 2
-3 -4 24 908.551 347.938 1
24 -2 -4 407.655 236.667 3
4 2 -24 278.717 173.081 2
24 2 4 266.284 127.964 3
24 4 -2 535.335 210.969 3
2 -4 -24 429.52 197.693 2
-2 -4 24 586.635 266.036 1
24 1 4 471.576 168.921 3
24 -1 -4 685.411 221.569 3
24 4 -1 574.699 193.56 3
4 1 -24 659.013 196.123 2
-1 -4 24 884.43 296.482 1
0 -4 24 962.562 352.834 1
24 0 -4 514.641 254.632 3
24 4 0 702.57 244.12 3
4 0 -24 765.089 240.245 2
0 4 -24 635.5 203.319 2
1 4 -24 656.242 182.37 2
1 -4 24 570.265 188.29 1
24 4 1 626.184 206.668 3
-4 -1 24 431.626 218.273 1
24 1 -4 766.965 226.724 3
4 -1 -24 700.008 243.166 2
-4 -2 24 370.22 141.265 1
4 -2 -24 282.732 165.661 2
24 4 2 291.69 159.897 3
24 2 -4 244.949 159.003 3
2 4 -24 188.145 99.8899 2
2 -4 24 182.093 137.139 1
3 -4 24 1232.21 423.893 1
24 3 -4 1190.53 287.383 3
3 4 -24 668.727 175.382 2
24 4 3 373.884 209.701 3
-4 -3 24 929.435 342.838 1
-4 -4 24 294.646 174.719 1
24 4 4 219.319 131.31 3
24 4 -4 363.825 137.925 3
4 4 -24 228.078 165.441 2
4 -4 -24 376.275 151.984 2
4 -4 24 389.208 150.616 1
-4 -5 24 557.313 336.654 1
24 4 5 -24.8194 104.754 3
4 -5 -24 190.211 148.448 2
5 4 -24 140.327 124.936 2
24 5 -4 127.008 167.371 3
-3 -5 24 207.481 161.968 1
24 3 5 58.4289 58.567 3
5 3 -24 94.3546 130.172 2
3 -5 -24 59.8523 110.011 2
24 5 -3 -10.6747 97.9921 3
3 -24 5 80.8495 204.13 1
24 2 5 272.482 149.737 3
24 -2 -5 42.7615 70.959 3
-2 -5 24 588.215 305.914 1
24 5 -2 313.785 199.951 3
2 -5 -24 175.942 124.907 2
5 2 -24 237.247 177.947 2
24 -1 -5 44.4802 101.376 3
5 1 -24 224.723 145.957 2
24 5 -1 11.8782 102.884 3
24 0 -5 533.534 219.922 3
0 -5 24 339.398 251.063 1
0 5 -24 305.924 139.806 2
5 0 -24 335.509 188.425 2
24 5 0 381.695 201.797 3
-5 -1 24 337.907 244.532 1
24 5 1 393.08 187.099 3
5 -1 -24 182.078 109.505 2
1 5 -24 269.083 137.506 2
24 1 -5 238.3 141.981 3
1 -5 24 48.7857 71.4851 1
2 -5 24 660.623 272.869 1
-5 -2 24 477.119 224.696 1
24 2 -5 180.909 123.892 3
24 5 2 261.228 172.496 3
2 5 -24 221.28 166.844 2
5 -2 -24 246.496 76.3983 2
5 -3 -24 224.43 418.283 2
24 5 3 51.6037 128.5 3
24 3 -5 176.521 144.351 3
3 -5 24 -195.831 217.008 1
-5 -3 24 -82.5761 138.986 1
3 5 -24 -71.5686 94.4965 2
5 -4 -24 -87.0536 64.0419 2
4 -5 24 70.5012 153.963 1
-5 -4 24 39.5662 163.151 1
4 5 -24 59.1692 57.5099 2
24 5 4 111.065 102.514 3
24 4 -5 22.3876 67.529 3
-5 -5 24 953.652 349.762 1
24 5 5 743.656 229.779 3
5 5 -24 622.063 176.507 2
5 -5 -24 992.458 234.042 2
5 -5 24 689.182 305.088 1
24 5 -5 726.047 268.023 3
6 5 -24 516.22 171.905 2
5 -6 -24 497.975 176.557 2
24 5 6 99.5545 67.1533 3
-5 -6 24 671.095 326.06 1
24 6 -5 316.131 140.493 3
4 -24 6 326.048 229.019 1
6 4 -24 311.34 174.901 2
24 4 6 12.7197 101.312 3
4 -6 -24 270.163 131.22 2
24 6 -4 222.63 144.831 3
-4 -6 24 94.9873 70.0179 1
24 3 6 -53.2302 108.625 3
6 3 -24 89.4216 130.403 2
24 6 -3 32.0464 128.673 3
3 -6 -24 139.037 147.485 2
3 -24 6 135.191 135.572 1
-3 -6 24 112.815 128.547 1
6 2 -24 94.7289 131.377 2
-2 -6 24 311.919 272.916 1
24 -2 -6 -83.9032 115.766 3
24 6 -2 52.6603 79.2564 3
2 -6 -24 139.045 106.047 2
2 -24 6 92.7189 91.2211 1
6 1 -24 779.472 224.787 2
-1 -6 24 1376.99 366.795 1
24 -1 -6 1184.98 336.258 3
24 6 -1 658.545 253.349 3
-1 6 -24 1111.75 264.159 2
24 0 -6 668.325 231.01 3
6 0 -24 644.851 216.027 2
0 -6 24 674.69 285.654 1
24 6 0 484.4 226.61 3
0 6 -24 508.192 129.895 2
-6 -1 24 1157.08 397.421 1
24 6 1 980.34 242.544 3
6 -1 -24 1238.94 290.406 2
1 6 -24 1003.16 257.855 2
24 1 -6 1658.5 314.673 3
1 -6 24 1604.62 465.903 1
-6 -2 24 270.645 185.799 1
6 -2 -24 69.5286 120.385 2
24 2 -6 133.47 114.988 3
24 6 2 -129.347 89.708 3
2 6 -24 163.253 72.4671 2
2 -6 24 27.1786 108.298 1
3 -6 24 256.996 123.113 1
6 -3 -24 128.13 130.091 2
-6 -3 24 107.753 181.966 1
3 6 -24 171.117 128.506 2
24 3 -6 140.828 140.721 3
24 6 3 49.8951 164.474 3
-6 -4 24 298.812 193.775 1
24 4 -6 293.563 134.974 3
24 6 4 204.983 136.11 3
6 -4 -24 218.177 89.1427 2
4 -6 24 64.1505 117.346 1
4 6 -24 197.511 145.349 2
5 -6 24 315.739 227.291 1
5 6 -24 82.6142 55.7432 2
6 -5 -24 362.285 180.399 2
24 5 -6 426.59 217.584 3
24 6 5 551.683 208.904 3
-6 -5 24 334.244 102.094 1
6 6 -24 81.2726 110.282 2
6 -6 -24 -72.2635 101.437 2
24 6 6 205.004 132.709 3
6 -6 24 -149.535 120.261 1
24 6 -6 4.78207 113.693 3
-6 -6 24 63.782 131.654 1
-6 -7 24 107.036 132.676 1
7 6 -24 97.3706 75.6497 2
6 -7 -24 162.587 93.9653 2
24 7 -6 191.831 196.443 3
5 -7 -24 60.8596 73.5969 2
7 5 -24 390.147 156.385 2
-5 -7 24 280.07 67.8703 1
24 7 -5 -7.59014 112.103 3
4 -24 7 103.439 144.691 1
7 4 -24 25.1461 70.6299 2
4 -7 -24 82.4278 107.955 2
24 7 -4 33.1404 146.048 3
-4 -7 24 244.114 123.4 1
3 -24 7 368.565 240.892 1
7 3 -24 302.137 172.546 2
3 -7 -24 205.968 127.157 2
24 7 -3 427.379 204.815 3
-3 -7 24 153.822 69.481 1
24 -2 -7 260.288 117.446 3
7 2 -24 220.351 149.841 2
24 7 -2 653.735 194.002 3
2 -7 -24 666.412 234.258 2
-2 -7 24 469.9 283.903 1
2 -24 7 723.688 330.165 1
-1 -7 24 -108.805 207.479 1
7 1 -24 -9.45417 99.0385 2
24 -1 -7 3.10744 121.712 3
24 7 -1 15.0015 56.8375 3
-1 7 -24 36.7224 90.0182 2
1 -24 7 80.0967 241.538 1
24 0 -7 106.401 90.7849 3
0 7 -24 -4.34051 52.4797 2
0 -7 24 -64.5709 128.988 1
7 0 -24 -51.096 89.1834 2
24 7 0 -0.5621 83.4556 3
1 7 -24 -6.74805 107.831 2
7 -1 -24 35.2333 68.4663 2
24 1 -7 -147.934 110.97 3
24 7 1 80.1242 151.765 3
1 -7 24 331.012 240.617 1
-7 -1 24 -73.6364 230.512 1
-7 -2 24 416.343 216.592 1
7 -2 -24 566.76 180.177 2
2 -7 24 497.985 271.575 1
2 7 -24 503.348 154.259 2
24 7 2 201.714 164.372 3
24 2 -7 366.939 154.02 3
-7 -3 24 318.423 249.738 1
24 7 3 20.3741 59.3221 3
7 -3 -24 425.162 207.04 2
24 3 -7 563.485 162.958 3
3 -7 24 532.125 226.038 1
3 7 -24 319.247 95.9243 2
4 -7 24 28.8159 113.7 1
-7 -4 24 80.5812 96.8293 1
7 -4 -24 -40.5577 115.453 2
4 7 -24 33.8102 79.2217 2
24 4 -7 286.384 186.994 3
24 7 4 47.2249 52.4271 3
7 -5 -24 72.1307 75.9558 2
5 7 -24 95.5106 82.4628 2
24 7 5 159.231 123.418 3
5 -7 24 270.409 173.214 1
24 5 -7 173.426 141.409 3
-7 -5 24 492.991 333.39 1
24 6 -7 275.155 198.502 3
6 7 -24 273.187 142.198 2
6 -7 24 297.881 137.01 1
7 -6 -24 446.389 187.796 2
24 7 6 151.991 104.587 3
-7 -6 24 352.936 249.617 1
7 7 -24 184.666 170.398 2
7 -7 24 -180.347 64.5817 1
7 -7 -24 15.0962 85.0402 2
24 7 -7 2.95266 108.818 3
-7 -7 24 6.0717 170.026 1
8 7 -24 694.81 201.361 2
7 -8 -24 1082.16 279.843 2
-7 -8 24 772.309 329.383 1
24 8 -7 700.37 237.502 3
6 -8 -24 134.623 147.889 2
8 6 -24 208.83 55.7065 2
24 8 -6 172.848 182.57 3
-6 -8 24 29.1532 146.03 1
8 5 -24 272.269 155.408 2
5 -8 -24 280.929 182.086 2
-5 -8 24 163.837 73.4255 1
24 8 -5 203.175 163.679 3
4 -24 8 328.236 149.385 1
8 4 -24 146.886 100.173 2
-4 -8 24 66.4839 133.231 1
4 -8 -24 398.345 169.33 2
24 8 -4 170.165 61.7201 3
3 -24 8 517.579 270.187 1
8 3 -24 432.359 182.828 2
3 -8 -24 533.976 217.05 2
24 8 -3 233.208 175.185 3
-3 -8 24 545.373 336.73 1
2 -24 8 996.864 353.081 1
8 2 -24 644.485 203.295 2
24 -2 -8 726.798 205.72 3
2 -8 -24 697.297 256.651 2
24 8 -2 409.786 227.065 3
-2 8 -24 667.846 170.588 2
-2 -8 24 362.824 227.986 1
24 -1 -8 208.704 215.528 3
8 1 -24 95.1755 127.692 2
-1 8 -24 246.014 47.7529 2
24 8 -1 125.51 94.1409 3
-1 -8 24 363.623 238.685 1
1 -24 8 481.159 317.178 1
0 8 -24 -4.46079 85.2707 2
8 0 -24 378.947 201.587 2
24 0 -8 610.743 244.569 3
24 8 0 227.111 140.756 3
0 -24 8 281.387 240.948 1
0 -8 24 518.645 268.72 1
1 -8 24 479.574 219.068 1
8 -1 -24 367.587 189.845 2
24 1 -8 202.189 145.347 3
1 8 -24 339.692 142.91 2
24 8 1 312.093 196.647 3
8 -2 -24 743.189 238.166 2
2 -8 24 524.364 247.033 1
24 2 -8 734.258 211.424 3
2 8 -24 338.162 162.143 2
24 8 2 694.285 213.237 3
3 8 -24 419.61 159.378 2
8 -3 -24 86.9518 111.282 2
-8 -3 24 264.68 175.833 1
24 3 -8 547.103 183.622 3
3 -8 24 468.892 197.954 1
24 8 3 322.678 201.264 3
-8 -4 24 365.035 290.046 1
4 8 -24 49.594 57.1827 2
8 -4 -24 432.002 189.544 2
24 8 4 34.7553 59.3525 3
24 4 -8 210.457 67.9923 3
4 -8 24 193.017 107.465 1
5 8 -24 221.572 148.087 2
5 -8 24 152.996 108.249 1
8 -5 -24 353.077 215.282 2
24 5 -8 162.809 54.8666 3
24 8 5 63.7273 58.1215 3
-8 -5 24 58.9031 168.596 1
6 8 -24 197.538 118.967 2
8 -6 -24 373.002 209.096 2
24 8 6 213.221 116.962 3
-8 -6 24 521.214 263.872 1
6 -8 24 385.645 245.294 1
24 6 -8 338.16 177.413 3
7 -8 24 683.831 245.638 1
24 7 -8 995.124 300.542 3
7 8 -24 679.636 194.878 2
8 -7 -24 1016.05 262.079 2
-8 -7 24 700.99 314.984 1
8 8 -24 -620.961 171.59 2
-8 -8 24 -245.279 175.583 1
8 -8 -24 -24.341 99.3854 2
24 8 -8 139.088 94.0904 3
8 -8 24 459.583 295.879 1
8 -9 -24 429.543 200.827 2
-8 -9 24 1084.1 415.709 1
24 9 -8 460.422 225.543 3
9 7 -24 551.397 200.123 2
7 -9 -24 716.988 229.039 2
-7 -9 24 186.223 81.3039 1
24 9 -7 162.458 212.892 3
9 6 -24 537.582 207.419 2
6 -9 -24 294.814 136.169 2
24 9 -6 213.228 139.686 3
-6 -9 24 429.095 130.006 1
9 5 -24 9.84517 46.951 2
5 -24 9 -18.4106 168.676 1
5 -9 -24 69.6779 135.034 2
-5 -9 24 5.0703 70.2089 1
24 9 -5 14.9004 137.401 3
9 4 -24 189.838 101.723 2
4 -24 9 10.3074 113.09 1
-4 -9 24 420.849 337.119 1
24 9 -4 98.9971 170.46 3
4 -9 -24 230.952 132.968 2
3 -24 9 147.526 164.466 1
9 3 -24 125.822 94.137 2
3 -9 -24 30.4737 94.9621 2
24 9 -3 13.6527 97.0516 3
-3 -9 24 173.313 169.604 1
-2 -9 24 613.558 176.102 1
2 -24 9 593.991 254.545 1
9 2 -24 552.903 204.931 2
24 -2 -9 550.441 219.2 3
2 -9 -24 396.018 117.455 2
24 9 -2 486.239 225.74 3
9 1 -24 392.032 175.173 2
24 -1 -9 381.798 150.072 3
24 9 -1 249.867 170.319 3
-1 -9 24 413.306 281.844 1
1 -9 -24 141.381 99.7667 2
1 -24 9 261.153 198.243 1
9 0 -24 296.026 147.605 2
24 9 0 160.159 173.477 3
24 0 -9 276.728 164.314 3
0 -9 24 431.961 233.409 1
0 -24 9 142.189 238.292 1
9 -1 -24 230.926 107.716 2
24 1 -9 451.233 198.745 3
24 9 1 144.535 148.842 3
-1 -24 9 135.525 214.94 1
1 -9 24 223.297 162.501 1
2 -9 24 109.107 117.941 1
9 -2 -24 312.654 183.008 2
24 9 2 224.909 166.826 3
24 2 -9 168.231 120.607 3
9 -3 -24 150.042 136.775 2
3 -9 24 96.9493 135.451 1
24 3 -9 116.716 153.998 3
24 9 3 -14.7135 104.459 3
9 -4 -24 359.957 169.787 2
24 4 -9 236.955 181.44 3
24 9 4 239.048 126.795 3
4 -9 24 -28.853 202.675 1
9 -5 -24 -52.3706 118.996 2
24 9 5 129.128 147.636 3
24 5 -9 184.878 193.483 3
-9 -5 24 298.799 221.842 1
5 -9 24 205.91 128.542 1
6 9 -24 437.5 152.848 2
9 -6 -24 423.622 187.341 2
6 -9 24 483.726 250.526 1
24 9 6 246.5 111.331 3
24 6 -9 356.737 203.756 3
-9 -6 24 259.865 208.682 1
7 9 -24 466.578 141.163 2
-9 -7 24 747.311 298.862 1
9 -7 -24 979.909 276.114 2
24 7 -9 986.172 275.738 3
7 -9 24 718.569 329.306 1
8 -9 24 325.015 234.53 1
9 -8 -24 426.48 186.083 2
-9 -8 24 363.994 284.796 1
24 8 -9 367.259 152.107 3
9 -9 -24 1156.93 272.797 2
-9 -9 24 571.727 266.233 1
24 9 -9 1025.58 256.151 3
9 -10 -24 2322.58 381.385 2
-9 -10 24 1616.34 478.175 1
24 10 -9 1873.73 392.433 3
-8 -10 24 1149.82 383.596 1
8 -10 -24 1310.16 299.939 2
24 10 -8 1569.04 352.795 3
-7 -10 24 232.774 181.99 1
7 -10 -24 49.8909 102.351 2
24 10 -7 129.011 130.161 3
6 -10 -24 1.56558 50.7637 2
-6 -10 24 231.911 201.009 1
24 10 -6 144.298 168.357 3
5 -10 -24 640.816 201.784 2
10 5 -24 433.927 140.282 2
5 -24 10 605.379 263.232 1
-5 -10 24 447.793 246.114 1
24 10 -5 427.607 211.553 3
10 4 -24 245.315 135.445 2
-4 -10 24 287.988 174.506 1
4 -24 10 408.203 239.661 1
4 -10 -24 147.596 166.09 2
24 10 -4 197.275 140.669 3
10 3 -24 43.5077 124.838 2
3 -24 10 -267.763 254.84 1
-3 -10 24 7.76987 139.164 1
24 10 -3 -65.9891 79.1188 3
3 -10 -24 66.3512 96.0821 2
10 2 -24 481.165 233.337 2
2 -24 10 -167.472 195.279 1
-2 -10 24 776.728 372.572 1
24 10 -2 293.919 211.382 3
2 -10 -24 28.2219 98.3933 2
1 -24 10 251.602 268.525 1
10 1 -24 58.6232 133.432 2
24 -1 -10 346.363 204.353 3
24 10 -1 25.1195 122.68 3
-1 -10 24 -231.967 280.761 1
1 -10 -24 64.4419 117.776 2
0 -24 10 108.035 142.182 1
10 0 -24 196.684 92.3071 2
24 0 -10 384.126 137.334 3
24 10 0 375.69 234.726 3
0 -10 24 174.795 193.897 1
10 -1 -24 22.4407 77.9727 2
24 1 -10 124.036 178.994 3
24 10 1 49.4762 57.0754 3
1 -10 24 -266.248 251.909 1
-1 -24 10 -29.0277 115.326 1
2 -10 24 402.182 172.578 1
10 -2 -24 627.605 235.643 2
24 10 2 428.979 203.956 3
24 2 -10 747.745 230.047 3
-2 -24 10 359.222 185.971 1
10 -3 -24 96.8214 108.973 2
3 -10 24 352.791 225.185 1
24 3 -10 115.404 200.028 3
24 10 3 66.104 176.665 3
-3 -24 10 226.355 178.649 1
10 -4 -24 101.259 108.071 2
4 -10 24 242.842 242.627 1
24 4 -10 47.0632 143.189 3
24 10 4 4.10075 55.8614 3
10 -5 -24 564.536 201.836 2
5 -10 24 444.203 264.024 1
24 5 -10 671.463 180.92 3
24 10 5 679.707 215.343 3
6 -10 24 -64.0974 191.427 1
10 -6 -24 275.571 167.135 2
24 10 6 98.8597 61.1308 3
24 6 -10 -121.204 131.909 3
10 -7 -24 101.747 117.083 2
7 -10 24 212.895 317.633 1
24 7 -10 13.2976 75.0434 3
-10 -7 24 -124.212 172.385 1
24 8 -10 1927.63 371.992 3
10 -8 -24 1953.89 368.125 2
8 -10 24 2019.32 516.003 1
-10 -8 24 1156.43 337.426 1
10 -9 -24 2128.27 339.766 2
9 -10 24 2329.66 546.748 1
-10 -9 24 1507.08 417.232 1
24 9 -10 2141.8 433.156 3
10 -10 -24 -20.9336 101.619 2
-10 -10 24 112.557 127.547 1
24 10 -10 -109.478 122.3 3
10 -11 -24 1863.99 327.534 2
-10 -11 24 1297.68 407.323 1
24 11 -10 2326.89 407.627 3
-9 -11 24 508.88 251.652 1
9 -11 -24 1102.24 283.524 2
24 11 -9 841.661 307.703 3
-8 -11 24 304.51 284.662 1
8 -11 -24 227.57 103.375 2
24 11 -8 466.958 214.962 3
-7 -11 24 -117.183 220.854 1
7 -11 -24 393.913 166.892 2
24 11 -7 180.506 125.477 3
6 -11 -24 1078.27 249.956 2
-6 -11 24 868.016 347.209 1
24 11 -6 1197.6 346.118 3
5 -11 -24 182.825 148.799 2
5 -24 11 325.83 120.535 1
-5 -11 24 301.042 182.33 1
24 11 -5 41.1437 120.598 3
-4 -11 24 391.799 188.153 1
4 -24 11 446.483 266.927 1
4 -11 -24 859.027 250.099 2
24 11 -4 379.837 211.851 3
11 3 -24 120.455 78.4704 2
24 11 -3 355.012 183.521 3
3 -24 11 373.906 254.698 1
3 -11 -24 264.55 186.387 2
11 2 -24 71.7608 76.6889 2
24 -2 -11 -59.3628 109.018 3
2 -24 11 28.137 169.586 1
2 -11 -24 -205.021 187.932 2
-2 -11 24 -132.333 210.25 1
24 11 -2 -9.00738 107.164 3
24 11 -1 -75.3814 158.827 3
11 1 -24 88.2184 134.735 2
1 -24 11 276.109 204.434 1
24 -1 -11 288.512 220.558 3
1 -11 -24 210.029 115.994 2
-1 -11 24 132.031 125.777 1
0 -24 11 648.983 286.985 1
11 0 -24 828.947 251.617 2
24 0 -11 948.675 274.788 3
0 -11 24 855.22 244.3 1
24 11 0 442.68 238.678 3
-1 -24 11 -157.361 225.221 1
11 -1 -24 84.2862 65.3292 2
24 1 -11 163.029 62.4008 3
1 -11 24 62.9809 159.241 1
24 11 1 48.3329 145.476 3
11 -2 -24 2.11754 119.079 2
24 2 -11 -85.2788 115.535 3
24 11 2 29.934 101.202 3
2 -11 24 103.902 203.811 1
-2 -24 11 85.3346 110.082 1
3 -11 24 71.0255 101.555 1
11 -3 -24 191.202 145.679 2
24 11 3 145.876 159.671 3
24 3 -11 528.493 208.386 3
-3 -24 11 108.849 176.595 1
11 -4 -24 286.831 168.408 2
4 -11 24 503.904 361.624 1
24 4 -11 432.762 185.043 3
24 11 4 450.079 143.307 3
-4 -24 11 627.559 295.991 1
11 -5 -24 156.607 151.145 2
24 5 -11 393.036 186.724 3
24 11 5 243.243 149.772 3
-5 -24 11 424.279 187.221 1
5 -11 24 57.1943 114.372 1
11 -6 -24 1437.39 346.375 2
24 11 6 596.814 214.969 3
24 6 -11 1203.29 261.88 3
6 -11 24 1045.39 363.95 1
11 -7 -24 89.2475 53.8336 2
7 -11 24 192.766 148.454 1
24 7 -11 161.404 89.2301 3
11 -8 -24 129.394 118.487 2
24 8 -11 215.234 207.814 3
8 -11 24 329.781 267.151 1
11 -9 -24 1254.24 308.075 2
9 -11 24 1037.91 306.807 1
-11 -9 24 1283.45 413.272 1
24 9 -11 1290.72 263.649 3
11 -10 -24 1548.08 350.035 2
-11 -10 24 1511.46 404.296 1
24 10 -11 2393.61 418.907 3
11 -11 -24 493.82 194.834 2
-11 -11 24 120.965 199.967 1
24 11 -11 559.346 203.121 3
11 -12 -24 984.325 274.743 2
24 12 -11 976.21 280.223 3
-10 -12 24 1586.78 457.501 1
10 -12 -24 2506.87 390.313 2
24 12 -10 2682.76 449.447 3
-9 -12 24 14.1897 171.224 1
9 -12 -24 207.626 150.18 2
24 12 -9 113.994 142.224 3
8 -12 -24 -201.706 170.135 2
24 12 -8 -59.6302 70.0007 3
-7 -12 24 386.265 98.1066 1
7 -12 -24 657.51 201.918 2
24 12 -7 334.712 198.848 3
-6 -12 24 869.587 375.736 1
6 -12 -24 1396.03 282.873 2
24 12 -6 892.275 324.063 3
-5 -12 24 66.3908 98.7174 1
5 -12 -24 131.634 125.445 2
24 12 -5 -6.70891 120.257 3
5 -24 12 333.161 185.594 1
4 -12 -24 61.8148 81.7771 2
-4 -12 24 148.883 93.1029 1
4 -24 12 150.505 124.708 1
24 12 -4 157.873 151.899 3
-3 -12 24 206.722 147.179 1
3 -24 12 255.64 88.4298 1
24 12 -3 366.864 208.313 3
3 -12 -24 252.788 158.151 2
2 -24 12 305.596 232.065 1
-2 -12 24 164.734 286.117 1
2 -12 -24 244.989 139.332 2
24 12 -2 73.5323 189.791 3
1 -24 12 218.334 243.08 1
24 -1 -12 227.394 133.049 3
-1 -12 24 62.2131 128.693 1
1 -12 -24 -47.7666 54.1985 2
24 12 -1 35.8308 99.5342 3
12 0 -24 512.819 213.961 2
24 0 -12 910.469 208.057 3
0 -12 24 723.181 214.37 1
24 12 0 314.55 206.522 3
0 -12 -24 757.292 243.892 2
12 -1 -24 -34.2067 88.7571 2
-1 -24 12 147.14 263.856 1
24 1 -12 -125.987 91.7863 3
1 -12 24 -6.81838 78.6716 1
24 12 1 -0.28915 81.8146 3
-2 -24 12 425.779 272.345 1
12 -2 -24 285.066 213.442 2
24 2 -12 241.568 161.796 3
24 12 2 52.646 184.489 3
2 -12 24 120.135 186.318 1
12 -3 -24 256.224 152.665 2
24 3 -12 420.181 207.367 3
24 12 3 29.2205 59.2052 3
3 -12 24 449.132 119.483 1
-3 -24 12 135.406 173.503 1
12 -4 -24 308.676 160.502 2
4 -12 24 468.468 243.914 1
24 4 -12 349.235 186.087 3
24 12 4 99.1074 51.4997 3
-4 -24 12 365.014 237.142 1
12 -5 -24 152.175 120.735 2
5 -12 24 -9.18597 160.728 1
24 5 -12 158.131 118.681 3
24 12 5 152.058 171.1 3
-5 -24 12 536.173 262.567 1
12 -6 -24 1270.4 282.781 2
24 6 -12 1543.19 320.751 3
24 12 6 814.134 218.911 3
6 -12 24 794.943 406.198 1
-6 -24 12 911.247 304.964 1
12 -7 -24 435.115 226.285 2
7 -12 24 671.319 321.453 1
-7 -24 12 805.22 314.956 1
24 7 -12 666.43 202.339 3
12 -8 -24 163.561 116.822 2
24 8 -12 242.551 130.337 3
8 -12 24 63.9382 123.607 1
12 -9 -24 38.4494 97.7593 2
24 9 -12 614.719 287.06 3
9 -12 24 642.229 350.785 1
24 10 -12 3033.38 480.435 3
24 11 -12 779.811 205.381 3
24 12 -12 -88.6338 115.588 3
24 13 -12 2765.34 434.802 3
24 13 -11 352.553 184.269 3
10 -13 -24 -87.7873 182.771 2
24 13 -10 -89.792 140.27 3
9 -13 -24 571.566 189.343 2
24 13 -9 3.9174 81.1534 3
8 -13 -24 2861.02 423.831 2
-8 -13 24 2022.12 458.268 1
24 13 -8 2727.18 460.221 3
-7 -13 24 156.679 95.3536 1
7 -13 -24 295.507 164.112 2
24 13 -7 87.3253 84.5228 3
-6 -13 24 -14.3704 178.793 1
6 -13 -24 229.032 59.8456 2
24 13 -6 88.5089 191.151 3
-5 -13 24 60.1741 110.121 1
5 -24 13 542.529 236.043 1
24 13 -5 492.414 277.298 3
-4 -13 24 174.363 79.377 1
4 -24 13 41.4866 316.009 1
4 -13 -24 445.775 149.26 2
24 13 -4 62.7893 101.612 3
-3 -13 24 146.417 144.415 1
3 -13 -24 105.624 73.3916 2
3 -24 13 377.111 251.37 1
24 13 -3 143.07 174.27 3
2 -24 13 773.446 325.061 1
-2 -13 24 232.321 134.562 1
2 -13 -24 811.015 247.785 2
24 13 -2 252.774 179.455 3
24 -1 -13 295.322 186.305 3
-1 -13 24 240.637 244.625 1
1 -24 13 120.071 84.0375 1
1 -13 -24 338.762 136.654 2
24 13 -1 26.6141 98.889 3
0 -24 13 152.446 95.9671 1
0 -13 -24 265.049 145.6 2
24 0 -13 418.693 189.503 3
24 13 0 8.72704 119.344 3
-1 -24 13 312.295 243.341 1
1 -13 24 289.126 306.547 1
24 13 1 61.6071 144.335 3
24 1 -13 244.977 138.676 3
-2 -24 13 314.436 173.872 1
24 2 -13 414.761 125.625 3
24 13 2 179.473 174.207 3
2 -13 24 522.282 294.497 1
-3 -24 13 -16.5134 108.791 1
24 13 3 14.1862 120.782 3
24 3 -13 -5.67055 103.552 3
3 -13 24 288.384 144.207 1
-4 -24 13 706 332.631 1
4 -13 24 -84.4297 166.092 1
24 4 -13 634.86 189.663 3
24 13 4 163.307 115.211 3
5 -13 24 433.689 211.77 1
24 5 -13 650.093 191.306 3
24 13 5 526.481 238.001 3
-5 -24 13 307.416 87.5476 1
24 6 -13 320.697 145.299 3
6 -13 24 192.839 238.123 1
-6 -24 13 91.8356 94.0522 1
24 7 -13 164.923 146.116 3
-7 -24 13 33.6699 167.893 1
7 -13 24 -25.5061 162.636 1
24 8 -13 3176.9 471.559 3
8 -13 24 2495.62 595.853 1
-8 -24 13 2607.24 594.064 1
24 9 -13 586.771 204.27 3
24 10 -13 -37.9258 90.2486 3
24 11 -13 278.59 170.141 3
24 12 -13 2643.06 424.385 3
24 13 -13 19.076 88.4444 3
24 14 -13 60.5576 86.8152 3
24 14 -12 1149.2 280.988 3
24 14 -11 58.3685 100.472 3
24 14 -10 42.6612 59.3845 3
10 -14 -24 190.282 164.043 2
9 -14 -24 389.822 140.682 2
24 14 -9 226.239 180.352 3
8 -14 -24 1601.55 335.268 2
24 14 -8 1929.36 406.388 3
7 -14 -24 966.392 227.71 2
24 14 -7 600.889 204.361 3
-6 -14 24 90.2177 160.565 1
6 -14 -24 390.777 142.634 2
24 14 -6 22.1938 76.1372 3
-5 -14 24 1176.8 343.157 1
5 -14 -24 1800.9 313.599 2
5 -24 14 1011.83 333.516 1
24 14 -5 1238.78 365.991 3
-4 -14 24 606.027 276.473 1
4 -14 -24 605.364 194.362 2
4 -24 14 515.831 204.767 1
24 14 -4 249.211 233.068 3
-3 -14 24 254.382 323.14 1
3 -14 -24 118.797 75.3562 2
3 -24 14 334.165 195.827 1
24 14 -3 47.5555 84.1894 3
-2 -14 24 687.249 357.861 1
2 -24 14 699.623 235.92 1
2 -14 -24 572.565 211.829 2
24 14 -2 178.122 209.277 3
-1 -14 24 161.286 132.819 1
24 -1 -14 170.571 165.771 3
1 -14 -24 409.52 205.466 2
1 -24 14 343.821 204.883 1
24 14 -1 418.973 203.995 3
0 -24 14 310.454 276.905 1
0 -14 24 654.004 352.195 1
24 0 -14 388.674 171.379 3
0 -14 -24 289.789 95.7426 2
24 14 0 104.414 139.378 3
-1 -24 14 223.333 139.892 1
24 1 -14 393.049 177.002 3
1 -14 24 668.635 287.738 1
24 14 1 220.776 188.185 3
-1 -14 -24 441.957 202.016 2
24 2 -14 694.539 228.495 3
-2 -24 14 477.629 301.668 1
2 -14 24 783.596 322.216 1
24 14 2 434.209 237.818 3
24 3 -14 243.629 131.829 3
24 14 3 32.9557 139.844 3
3 -14 24 -158.222 115.96 1
4 -14 24 589.861 312.024 1
-4 -24 14 707.748 156.925 1
24 4 -14 559.445 211.778 3
24 14 4 229.364 100.529 3
-5 -24 14 2321.49 650.583 1
5 -14 24 1225.13 396.092 1
24 14 5 1125.85 296.276 3
24 5 -14 1347.95 314.773 3
-6 -24 14 474.165 140.319 1
6 -14 24 427.798 200.104 1
24 6 -14 720.846 255.565 3
24 7 -14 817.813 239.674 3
24 8 -14 2142.1 378.52 3
24 9 -14 635.827 248.925 3
24 10 -14 -103.004 90.7918 3
24 11 -14 -13.6019 145.354 3
24 12 -14 1092.41 277.179 3
24 13 -14 144.796 171.883 3
24 14 -14 474.173 205.077 3
24 15 -14 385.765 152.798 3
24 15 -13 95.1006 57.8464 3
24 15 -12 171.136 98.7079 3
24 15 -11 21.0693 80.7711 3
24 15 -10 1625.35 349.506 3
9 -15 -24 488.118 175.736 2
24 15 -9 337.265 159.848 3
8 -15 -24 699.615 200.924 2
24 15 -8 172.532 200.14 3
7 -15 -24 447.229 204.313 2
24 15 -7 73.3344 115.307 3
6 -15 -24 907.78 238.117 2
24 15 -6 650.268 259.802 3
5 -15 -24 157.126 134 2
24 15 -5 23.3269 102.36 3
5 -24 15 -238.52 97.7463 1
4 -15 -24 572.11 176.386 2
4 -24 15 151.65 69.7048 1
24 15 -4 642.516 237.522 3
-3 -15 24 234.761 71.437 1
3 -15 -24 124.276 75.7259 2
3 -24 15 40.0622 110.06 1
24 15 -3 95.3809 156.718 3
-2 -15 24 594.916 273.189 1
2 -15 -24 696.277 218.29 2
2 -24 15 410.48 282.048 1
24 15 -2 130.596 188.297 3
-1 -15 24 99.8627 178.753 1
1 -15 -24 87.9574 83.9681 2
1 -24 15 228.881 137.378 1
24 15 -1 134.186 69.1995 3
0 -24 15 712.096 289.919 1
24 0 -15 357.918 86.2458 3
0 -15 24 779.179 328.355 1
0 -15 -24 628.207 182.661 2
24 15 0 298.129 219.273 3
1 -15 24 692.343 352.857 1
-1 -24 15 -115.082 288.376 1
24 1 -15 327.755 171.983 3
-1 -15 -24 246.231 105.188 2
24 15 1 82.3184 172.183 3
-2 -24 15 228.786 274.408 1
24 2 -15 263.713 147.741 3
2 -15 24 198.577 222.384 1
24 15 2 21.7518 52.5977 3
-2 -15 -24 315.788 153.689 2
-3 -24 15 -138.487 149.477 1
24 3 -15 -152.184 69.2553 3
24 15 3 17.3719 57.1418 3
3 -15 24 -36.8288 94.6999 1
24 4 -15 475.002 155.16 3
-4 -24 15 675.191 301.649 1
24 15 4 248.028 166.996 3
24 5 -15 -6.3468 84.2785 3
24 15 5 -29.6007 90.764 3
24 6 -15 820.961 236.795 3
24 7 -15 369.586 214.331 3
24 8 -15 864.041 270.346 3
24 9 -15 595.419 168.445 3
24 10 -15 1762.38 362.925 3
24 11 -15 181.752 78.2593 3
24 12 -15 -77.6927 121.969 3
24 13 -15 175.471 58.5543 3
24 14 -15 802.065 242.616 3
24 15 -15 373.367 189.64 3
24 16 -15 301.879 145.376 3
24 16 -14 -166.072 145.659 3
24 16 -13 -38.3806 120.694 3
24 16 -12 228.659 141.624 3
24 16 -11 342.006 153.932 3
24 16 -10 738.011 224.706 3
24 16 -9 987.909 308.602 3
8 -16 -24 207.812 139.981 2
24 16 -8 179.064 187.91 3
7 -16 -24 990.679 210.649 2
24 16 -7 534.616 267.172 3
6 -16 -24 398.015 122.919 2
24 16 -6 729.278 222.391 3
5 -16 -24 350.926 94.6117 2
24 16 -5 52.6057 95.4773 3
4 -16 -24 284.916 104.678 2
24 16 -4 60.8287 79.9662 3
3 -16 -24 1005.06 244.245 2
24 16 -3 641.854 302.274 3
2 -16 -24 625.685 206.256 2
24 16 -2 463.761 214.845 3
1 -16 -24 826.524 212.207 2
24 16 -1 195.552 202.01 3
24 0 -16 358.401 199.994 3
0 -16 -24 197.065 76.161 2
24 16 0 80.0011 197.754 3
24 1 -16 863.607 253.194 3
-1 -16 -24 1026.04 237.179 2
24 16 1 578.247 224.354 3
-2 -16 -24 305.046 140.85 2
24 2 -16 567.165 223.081 3
24 16 2 522.055 236.79 3
24 3 -16 1216.11 266.364 3
24 16 3 1010.92 266.709 3
-3 -16 -24 1365.42 300.375 2
24 4 -16 397.098 138.909 3
24 16 4 413.114 208.78 3
24 5 -16 24.9797 90.1401 3
24 16 5 231.988 174.447 3
24 6 -16 323.067 156.46 3
24 7 -16 505.298 234.718 3
24 8 -16 307.479 172.102 3
24 9 -16 1091.8 291.262 3
24 10 -16 638.204 235.593 3
24 11 -16 540.927 191.706 3
24 12 -16 -206.407 76.0929 3
24 13 -16 190.405 128.153 3
24 14 -16 170.651 199.971 3
24 15 -16 501.563 190.716 3
24 16 -16 151.285 121.57 3
16 24 -17 91.8749 129.922 3
24 17 -16 -42.602 75.2787 3
24 17 -15 -6.75095 69.4774 3
24 17 -14 -337.631 206.352 3
24 17 -13 439.029 191.176 3
24 17 -12 889.379 249.241 3
24 17 -11 509.172 209.042 3
24 17 -10 251.967 191.798 3
24 17 -9 100.586 120.572 3
8 -17 -24 1029.83 279.1 2
24 17 -8 1008.1 311.698 3
7 -17 -24 390.784 180.024 2
24 17 -7 394.165 232.575 3
6 -17 -24 500.311 181.856 2
24 17 -6 325.954 254.647 3
5 -17 -24 376.883 166.208 2
24 17 -5 44.2839 147.374 3
4 -17 -24 259.572 80.5656 2
24 17 -4 2.36367 62.9944 3
3 -17 -24 642.562 208.61 2
24 17 -3 480.438 178.188 3
2 -17 -24 432.523 181.263 2
24 17 -2 212.342 190.966 3
1 -17 -24 487.388 227.318 2
24 17 -1 203.139 111.317 3
24 17 0 735.545 273.362 3
0 -17 -24 1068.46 236.744 2
-1 -17 -24 527.364 194.855 2
24 1 -17 542.424 192.696 3
24 17 1 55.2052 162.987 3
24 2 -17 303.387 158.074 3
-2 -17 -24 512.448 228.14 2
24 17 2 64.7308 133.163 3
24 3 -17 187.403 117.743 3
-3 -17 -24 287.606 102.61 2
24 17 3 171.249 161.844 3
24 4 -17 302.185 129.448 3
24 17 4 215.783 163.506 3
-4 -17 -24 36.4065 64.6205 2
24 5 -17 13.8029 105.042 3
24 17 5 -17.0575 114.007 3
24 6 -17 469.173 170.731 3
24 7 -17 383.678 194.783 3
24 8 -17 1216.83 288.495 3
24 9 -17 -105.114 63.1948 3
24 10 -17 447.454 168.305 3
24 11 -17 527.104 189.553 3
24 12 -17 641.818 181.236 3
24 13 -17 432.967 143.827 3
24 14 -17 29.2764 54.8595 3
17 24 -15 240.685 156.142 3
24 15 -17 -12.6785 63.8059 3
24 16 -17 110.89 72.762 3
17 24 -16 105.452 114.979 3
24 17 -17 136.869 133.476 3
17 24 -17 -17.778 79.399 3
24 18 -17 115.755 105.58 3
17 24 -18 30.9391 106.608 3
24 18 -16 154.452 70.0869 3
16 24 -18 34.9579 129.298 3
15 24 -18 119.425 79.4535 3
24 18 -15 160.775 111.957 3
24 18 -14 192.489 140.604 3
24 18 -13 372.502 114.466 3
24 18 -12 143.585 84.967 3
24 18 -11 1577.16 345.628 3
24 18 -10 404.332 181.076 3
24 18 -9 146.342 201.331 3
24 18 -8 321.627 158.925 3
7 -18 -24 1499.85 275.901 2
24 18 -7 356.193 224.58 3
6 -18 -24 692.229 194.046 2
24 18 -6 430.852 272.748 3
18 24 5 1356.26 291.048 3
5 -18 -24 2147.52 334.904 2
24 18 -5 1242.45 355.381 3
4 -18 -24 150.368 137.455 2
24 18 -4 -7.72222 100.36 3
3 -18 -24 679.251 201.507 2
24 18 -3 189.189 171.453 3
2 -18 -24 372.439 127.328 2
24 18 -2 683.954 251.699 3
1 -18 -24 1427.44 264.006 2
24 18 -1 1140.69 346.047 3
0 -18 -24 569.836 183.173 2
24 18 0 468.036 188.737 3
-1 -18 -24 1513.72 285.565 2
24 18 1 761.302 264.101 3
24 2 -18 667.396 197.422 3
-2 -18 -24 810.175 227.718 2
24 18 2 179.369 132.976 3
24 3 -18 634.527 213.722 3
-3 -18 -24 290.736 57.8744 2
24 18 3 350.939 183.945 3
24 4 -18 30.9115 102.253 3
-4 -18 -24 55.8342 135.762 2
24 18 4 1.04435 105.536 3
24 5 -18 1550.65 326.698 3
24 18 5 1269.75 290.256 3
-5 -18 -24 1937.74 327.307 2
24 6 -18 799.033 206.397 3
24 7 -18 972.165 320.233 3
24 8 -18 61.776 52.7962 3
24 9 -18 215.979 100.073 3
24 10 -18 182.887 70.2099 3
24 11 -18 1328.32 295.441 3
24 12 -18 407.273 181.798 3
18 24 -13 153.284 66.2929 3
24 13 -18 401.403 184.359 3
24 14 -18 93.1718 99.2249 3
18 24 -14 282.788 162.146 3
24 15 -18 136.352 53.4535 3
18 24 -15 234.528 110.658 3
24 16 -18 -68.8251 88.106 3
18 24 -16 35.2105 87.291 3
24 17 -18 170.051 76.118 3
18 24 -17 156.705 65.5149 3
24 18 -18 39.0997 67.0189 3
18 24 -18 100.058 53.2715 3
24 19 -18 332.775 130.105 3
18 24 -19 137.27 110.445 3
24 19 -17 -148.883 103.696 3
17 24 -19 102.242 60.7943 3
24 19 -16 13.8397 74.8053 3
16 24 -19 187.109 160.845 3
24 19 -15 -112.195 108.104 3
15 24 -19 112.624 77.9952 3
14 24 -19 193.224 137.021 3
24 19 -14 36.4667 79.092 3
24 19 -13 577.467 159.713 3
24 19 -12 -22.5803 109.831 3
24 19 -11 1072.55 280.773 3
24 19 -10 330.312 164.873 3
24 19 -9 885.793 288.993 3
24 19 -8 541.464 242.58 3
24 19 -7 533.742 249.195 3
24 19 -6 56.9517 131.6 3
24 19 -5 -3.37281 55.8383 3
19 24 5 34.8009 71.5464 3
24 19 -4 1092.02 292.046 3
19 24 4 647.799 272.49 3
24 19 -3 430.005 171.4 3
19 24 3 17.5985 45.6309 3
19 24 2 -5.44417 78.1986 3
24 19 -2 282.601 221.521 3
1 -19 -24 598.466 197.182 2
24 19 -1 392.785 153.15 3
0 -19 -24 -51.6328 102.824 2
24 19 0 -4.23064 112.485 3
24 19 1 57.5809 104.353 3
-1 -19 -24 483.954 214.803 2
-2 -19 -24 621.028 198.836 2
24 19 2 198.745 229.435 3
24 3 -19 402.255 155.278 3
-3 -19 -24 193.389 91.5984 2
24 19 3 299.792 181.532 3
24 4 -19 1156.14 261.233 3
-4 -19 -24 1011 216.412 2
24 19 4 923.263 277.006 3
24 19 5 134.783 136.268 3
24 5 -19 201.289 68.2455 3
-5 -19 -24 -39.3122 98.9431 2
-6 -19 -24 305.36 145.937 2
24 6 -19 177.483 64.8606 3
24 7 -19 676.018 220.731 3
24 8 -19 670.384 220.661 3
24 9 -19 1057.06 251.136 3
24 10 -19 486.186 168.708 3
19 24 -11 587.457 220.561 3
24 11 -19 433.733 149.35 3
24 12 -19 202.765 153.694 3
19 24 -12 62.8067 141.806 3
24 13 -19 718.934 203.665 3
19 24 -13 402.477 126.313 3
24 14 -19 56.3545 47.971 3
19 24 -14 -5.88977 77.5919 3
24 15 -19 -14.2943 119.079 3
19 24 -15 134.48 107.331 3
24 16 -19 351.503 140.874 3
19 24 -16 0.56613 74.2855 3
24 17 -19 46.2817 70.3917 3
19 24 -17 221.516 154.696 3
24 18 -19 171.837 94.1763 3
19 24 -18 307.21 153.694 3
24 19 -19 245.285 102.775 3
19 24 -19 472.108 154.545 3
24 20 -19 17.621 60.2164 3
19 24 -20 -0.82614 75.6048 3
24 20 -18 178.581 44.6461 3
18 24 -20 -34.8716 143.596 3
24 20 -17 -23.5828 93.4764 3
17 24 -20 224.112 122.109 3
24 20 -16 218.926 123.325 3
16 24 -20 304.886 125.751 3
24 20 -15 820.487 247.837 3
15 24 -20 451.154 98.2728 3
24 20 -14 1200.69 301.075 3
14 24 -20 836.432 186.717 3
13 24 -20 481.278 160.026 3
24 20 -13 603.68 207.762 3
24 20 -12 242.445 145.21 3
24 20 -11 112.036 98.8587 3
24 20 -10 1472.16 365.769 3
24 20 -9 871.726 300.575 3
24 20 -8 61.0312 87.1687 3
24 20 -7 905.6 301.066 3
24 20 -6 57.5992 156.922 3
24 20 -5 699.658 259.975 3
20 24 5 379.335 205.843 3
24 20 -4 111.839 112.225 3
20 24 4 61.2373 115.815 3
20 24 3 1259.9 361.981 3
24 20 -3 2286.57 419.944 3
24 20 -2 168.169 189.286 3
20 24 2 16.2491 133.478 3
24 20 -1 225.305 165.181 3
20 24 1 89.0233 149.553 3
24 20 0 6.84273 72.4798 3
20 24 0 159.641 188.679 3
24 20 1 89.139 190.149 3
20 24 -1 93.4087 152.744 3
20 24 -2 -12.9921 116.4 3
24 20 2 44.2573 117.941 3
20 24 -3 1844.34 395.874 3
24 20 3 945.212 321.727 3
20 24 -4 9.53034 118.432 3
24 20 4 146.776 131.975 3
20 24 -5 332.686 208.573 3
24 20 5 187.395 177.315 3
20 24 -6 243.853 208.876 3
24 6 -20 136.475 68.0978 3
20 24 -7 678.235 285.067 3
24 7 -20 875.424 262.472 3
24 8 -20 533.103 160.613 3
20 24 -8 88.8628 90.9883 3
24 9 -20 1023.98 243.888 3
20 24 -9 671.381 256.609 3
24 10 -20 1102.64 242.749 3
20 24 -10 636.331 251.284 3
24 11 -20 -74.3599 118.365 3
20 24 -11 154.303 137.247 3
24 12 -20 420.284 137.265 3
20 24 -12 385.44 195.508 3
20 24 -13 615.988 213.23 3
24 13 -20 534.62 201.672 3
24 14 -20 640.481 156.907 3
20 24 -14 1320.4 286.762 3
24 15 -20 723.221 224.233 3
20 24 -15 715.303 198.162 3
24 16 -20 508.4 170.859 3
20 24 -16 457.823 144.61 3
24 17 -20 -124.062 129.223 3
20 24 -17 81.3338 56.6707 3
24 18 -20 -6.05282 80.5153 3
20 24 -18 52.9765 75.4246 3
24 19 -20 -12.4898 55.9664 3
20 24 -19 8.64517 87.2567 3
24 20 -20 37.6195 117.017 3
20 24 -20 -11.2499 99.4383 3
24 21 -20 -1.8315 114.096 3
20 24 -21 5.26506 66.4949 3
24 21 -19 62.8982 162.138 3
19 24 -21 64.8187 117.713 3
24 21 -18 171.537 105.769 3
18 24 -21 5.62886 116.631 3
24 21 -17 525.84 147.483 3
17 24 -21 78.3142 103.794 3
24 21 -16 233.848 165.838 3
16 24 -21 17.2876 97.4887 3
24 21 -15 17.4257 108.272 3
15 24 -21 206.746 102.419 3
24 21 -14 57.0642 118.444 3
14 24 -21 7.53441 69.9691 3
24 21 -13 206.939 94.0313 3
13 24 -21 148.756 68.603 3
12 24 -21 639.555 178.593 3
24 21 -12 163.964 144.493 3
24 21 -11 795.21 229.607 3
24 21 -10 -28.7124 112.515 3
24 21 -9 73.388 137.198 3
24 21 -8 186.201 167.463 3
24 21 -7 59.6968 124.212 3
24 21 -6 384.46 220.566 3
24 21 -5 458.543 181.83 3
21 24 5 247.23 174.231 3
24 21 -4 87.9039 139.659 3
21 24 4 25.638 90.1402 3
24 21 -3 133.845 63.0825 3
21 24 3 52.9953 133.192 3
24 21 -2 198.043 170.014 3
21 24 2 87.0052 141.043 3
24 21 -1 426.707 205.053 3
21 24 1 74.6781 159.104 3
24 21 0 13.0902 59.2445 3
21 24 0 -50.9272 69.7551 3
24 21 1 304.211 240.299 3
21 24 -1 377.157 223.276 3
24 21 2 97.1412 155.37 3
21 24 -2 195.613 167.23 3
24 21 3 95.3507 170.74 3
21 24 -3 65.9345 86.5693 3
24 21 4 286.512 165.154 3
21 24 -4 383.1 186.346 3
24 5 -21 847.188 228.649 3
24 21 5 403.607 199.381 3
21 24 -5 822.645 264.208 3
24 6 -21 518.585 195.209 3
21 24 -6 242.49 163.608 3
24 7 -21 334.42 139.745 3
21 24 -7 105.833 114.993 3
24 8 -21 390.326 150.134 3
21 24 -8 330.008 149.831 3
24 9 -21 458.697 145.667 3
21 24 -9 506.098 266.439 3
24 10 -21 -36.9458 177.947 3
21 24 -10 -59.0236 63.1946 3
24 11 -21 1035.12 222.217 3
21 24 -11 933.992 272.511 3
24 12 -21 345.904 122.357 3
21 24 -12 296.017 159.889 3
24 13 -21 169.436 53.1332 3
21 24 -13 16.0793 141.906 3
24 14 -21 26.9625 42.5514 3
21 24 -14 312.087 195.025 3
24 15 -21 218.811 134.676 3
21 24 -15 148.225 103.923 3
24 16 -21 1.99626 66.4189 3
21 24 -16 243.384 138.982 3
24 17 -21 68.5516 153.078 3
21 24 -17 564.498 174.927 3
24 18 -21 3.20219 81.2485 3
21 24 -18 114.581 65.0553 3
24 19 -21 39.9399 161.934 3
21 24 -19 831.875 179.172 3
24 20 -21 -6.60174 66.6934 3
21 24 -20 6.48582 94.0278 3
21 24 -21 29.0169 112.49 3
24 21 -21 127.998 121.818 3
24 22 -20 17.7229 63.0411 3
20 24 -22 74.9393 101.702 3
24 22 -19 -1.32729 64.222 3
19 24 -22 26.7507 82.291 3
24 22 -18 -0.84041 71.424 3
18 24 -22 10.9331 99.4429 3
24 22 -17 56.9943 70.4735 3
17 24 -22 64.1561 58.708 3
24 22 -16 566.227 153.807 3
16 24 -22 1089.89 196.527 3
24 22 -15 -50.1671 70.3706 3
15 24 -22 17.848 99.8667 3
24 22 -14 1455.58 332.104 3
14 24 -22 574.244 251.268 3
24 22 -13 263.423 132.826 3
13 24 -22 147.121 81.492 3
24 22 -12 2312.9 381.325 3
12 24 -22 1824.92 293.901 3
24 22 -11 857.794 234.309 3
11 24 -22 604.019 192.784 3
24 22 -10 26.3399 71.4205 3
24 22 -9 42.0831 131.627 3
24 22 -8 357.43 150.062 3
24 22 -7 627.477 237.019 3
24 22 -6 319.082 179.885 3
24 22 -5 1151.99 295.066 3
22 24 4 -3.78603 80.8173 3
24 22 -4 96.7578 138.812 3
24 22 -3 323.903 170.752 3
22 24 3 81.7141 156.249 3
24 22 -2 11.9496 78.3611 3
22 24 2 -596.121 174.077 3
24 22 -1 87.0359 54.8353 3
22 24 1 25.6571 119.718 3
24 22 0 -7.05522 57.1003 3
22 24 0 -43.8365 140.759 3
24 22 1 24.4989 117.985 3
22 24 -1 111.419 88.9067 3
24 22 2 13.0531 92.2078 3
22 24 -2 3.88944 73.46 3
24 22 3 106.713 133.178 3
22 24 -3 231.185 176.08 3
24 22 4 83.5071 101.008 3
22 24 -4 216.277 134.313 3
22 24 -5 1051 284.896 3
22 24 -6 165.54 183.421 3
24 7 -22 668.038 177.134 3
22 24 -7 240.534 137.547 3
24 8 -22 797.22 221.37 3
22 24 -8 306.593 217.214 3
24 9 -22 -149.485 86.8429 3
22 24 -9 9.06972 105.038 3
24 10 -22 347.278 152.625 3
22 24 -10 174.415 107.122 3
22 24 -11 728.653 230.203 3
24 11 -22 816.22 191.191 3
24 12 -22 1644.04 260.27 3
22 24 -12 1775.58 340.036 3
24 13 -22 205.44 115.129 3
22 24 -13 164.38 109.598 3
24 14 -22 564.053 282.647 3
22 24 -14 1195.8 252.519 3
24 15 -22 57.856 130.623 3
22 24 -15 2.07499 71.8191 3
24 16 -22 103.242 171.078 3
22 24 -16 655.426 163.411 3
24 17 -22 -2.59665 112.61 3
22 24 -17 -160.879 75.6316 3
24 18 -22 0.69549 92.6339 3
22 24 -18 56.8013 129.932 3
24 19 -22 -2.73873 88.3387 3
22 24 -19 3.37592 87.8471 3
22 24 -20 0.82644 80.5383 3
24 20 -22 19.7172 107.58 3
24 23 -19 76.6275 92.874 3
19 24 -23 72.6303 98.9842 3
24 23 -18 48.4615 86.6016 3
18 24 -23 21.7683 104.402 3
24 23 -17 354 203.496 3
17 24 -23 20.9087 106.71 3
24 23 -16 563.204 174.29 3
16 24 -23 133.521 142.609 3
24 23 -15 157.961 132.63 3
15 24 -23 7.58462 73.3443 3
24 23 -14 418.092 168.052 3
14 24 -23 76.4842 66.6833 3
24 23 -13 531.71 175.008 3
24 23 -12 402.238 196.805 3
24 23 -11 161.912 135.545 3
24 23 -10 514.375 176.789 3
24 23 -9 650.112 215.349 3
24 23 -8 42.7006 96.2951 3
24 23 -7 455.035 217.055 3
24 23 -6 172.463 110.7 3
24 23 -5 3.3192 72.6477 3
23 24 4 404.161 183.895 3
24 23 -4 611.968 226.011 3
23 24 3 23.5928 110.8 3
24 23 -3 247.494 193.857 3
23 24 2 48.4036 129.632 3
24 23 -2 96.345 148.825 3
24 23 -1 24.3722 83.9137 3
23 24 1 -23.3025 85.216 3
24 23 0 -39.3493 47.6384 3
23 24 0 56.7621 153.287 3
24 23 1 -36.8585 92.6314 3
23 24 -1 -5.3245 103.461 3
24 23 2 81.066 135.282 3
23 24 -2 197.199 153.548 3
24 23 3 196.614 163.827 3
23 24 -3 312.584 174.943 3
24 23 4 182.091 164.921 3
23 24 -4 418.949 187.65 3
23 24 -5 27.4308 62.3816 3
23 24 -6 53.3638 160.535 3
23 24 -7 398.993 166.166 3
23 24 -8 47.4156 64.519 3
23 24 -9 725.252 247.305 3
23 24 -10 505.822 191.328 3
23 24 -11 463.964 175.274 3
23 24 -12 343.322 155.953 3
24 13 -23 813.951 172.816 3
23 24 -13 401.846 119.016 3
24 14 -23 18.5179 46.0242 3
23 24 -14 69.2235 71.9813 3
23 24 -15 176.104 145.731 3
24 15 -23 59.6029 86.4483 3
24 16 -23 179.605 140.049 3
23 24 -16 690.429 197.093 3
24 17 -23 61.4401 119.416 3
23 24 -17 177.996 183.593 3
24 18 -23 13.4736 63.8254 3
23 24 -18 -3.07317 56.8681 3
24 19 -23 33.2005 98.1012 3
23 24 -19 151.347 128.697 3
24 24 0 217.296 174.805 3
24 24 1 52.6752 125.62 3
24 24 -1 -24.0269 109.247 3
24 24 2 -28.9428 97.1882 3
24 24 -2 -32.0879 67.0002 3
24 24 3 127.378 94.6467 3
24 24 -3 193.291 161.786 3
24 24 4 50.5734 142.518 3
24 24 -4 70.0088 70.4379 3
24 24 -5 333.013 211.533 3
24 24 -6 32.9502 144.831 3
24 24 -7 29.1805 66.7029 3
24 24 -8 -39.0533 129.44 3
24 24 -9 88.2212 180.834 3
24 24 -10 1011.8 279.338 3
24 24 -11 -100.486 104.652 3
24 24 -12 402.775 202.122 3
24 24 -13 24.4903 56.1133 3
24 24 -14 724.55 203.311 3
24 24 -15 214.208 133.248 3
24 24 -16 1271.16 257.379 3
24 24 -17 -0.96868 38.3594 3
24 24 -18 3.67513 88.4084 3
25 0 0 29.5385 72.7392 3
25 1 0 518.087 209.722 3
25 0 1 631.65 221.905 3
25 0 -1 684.307 241.431 3
1 0 -25 1007.18 252.196 2
25 -1 -1 275.73 169.631 3
25 1 -1 97.4647 161.535 3
25 1 1 21.6054 85.2191 3
1 1 -25 90.3376 83.0982 2
1 -1 -25 274.893 167.196 2
-1 -2 25 253.201 269.899 1
25 1 2 224.383 140.359 3
25 -1 -2 55.8715 132.547 3
2 1 -25 323.214 201.313 2
1 -2 -25 267.678 136.87 2
25 2 -1 94.9572 183.175 3
25 0 -2 27.5785 127.534 3
25 0 2 9.76358 134.317 3
25 2 0 56.4507 101.149 3
2 0 -25 -62.987 115.453 2
25 1 -2 326.417 195.986 3
2 -1 -25 278.634 134.026 2
1 2 -25 140.453 138.944 2
25 2 1 326.996 136.612 3
-2 -2 25 -39.7162 80.0785 1
25 2 -2 -40.3885 96.2608 3
25 2 2 -1.62003 105.914 3
2 2 -25 -94.8922 82.2039 2
2 -2 -25 69.9998 133.806 2
25 2 3 174.92 126.589 3
3 2 -25 200.636 92.23 2
2 -3 -25 443.295 220.733 2
-2 -3 25 -7.40027 204.838 1
25 3 -2 422.238 183.007 3
25 -1 -3 26.9753 77.7245 3
25 1 3 -67.7482 75.2642 3
-1 -3 25 -8.1071 111.697 1
3 1 -25 -58.0855 114.701 2
25 3 -1 20.676 97.9936 3
1 -3 -25 18.5922 57.7197 2
25 0 -3 601.021 283.195 3
3 0 -25 649.021 193.208 2
0 3 -25 735.819 224.36 2
25 3 0 555.828 221.306 3
1 3 -25 -59.977 59.9095 2
25 3 1 53.7964 114.242 3
25 1 -3 18.7696 89.0569 3
3 -1 -25 -35.8238 112.591 2
1 -3 25 153.156 93.8242 1
25 3 2 366.087 151.503 3
25 2 -3 185.688 163.551 3
3 -2 -25 547.922 224.693 2
-3 -2 25 736.944 311.178 1
2 3 -25 412.283 171.112 2
25 3 3 474.375 191.519 3
25 3 -3 276.258 162.546 3
3 -3 -25 977.094 276.587 2
3 3 -25 1199.21 293.236 2
-3 -3 25 492.787 253.59 1
4 3 -25 157.004 206.444 2
25 3 4 114.258 72.4891 3
25 4 -3 -9.18692 127.301 3
3 -4 -25 45.3144 85.866 2
-3 -4 25 177.856 134.575 1
25 -2 -4 16.4137 119.736 3
-2 -4 25 213.663 188.636 1
4 2 -25 -13.3442 78.8189 2
25 4 -2 107.808 87.8758 3
25 2 4 -18.1732 64.7733 3
2 -4 -25 20.6668 81.9067 2
4 1 -25 90.4933 88.6996 2
25 -1 -4 -10.1912 146.017 3
-1 -4 25 -15.775 137.711 1
25 4 -1 0.58503 111.794 3
1 -4 -25 146.895 136.52 2
0 4 -25 324.305 146.225 2
25 0 -4 104.594 136.413 3
25 4 0 145.847 166.927 3
4 0 -25 128.484 112.349 2
0 -4 25 252.787 136.748 1
1 -4 25 230.084 128.417 1
1 4 -25 -87.2965 119.464 2
25 1 -4 -7.10266 73.3751 3
25 4 1 65.9295 113.373 3
4 -1 -25 4.96323 48.4756 2
2 -4 25 -28.5921 93.6531 1
-4 -2 25 264.411 216.902 1
25 4 2 60.1244 176.161 3
4 -2 -25 -29.93 78.6578 2
2 4 -25 19.7085 63.3765 2
25 2 -4 -73.0766 172.636 3
3 -4 25 -219.742 174.982 1
25 3 -4 -13.6827 109.433 3
-4 -3 25 132.032 175.274 1
3 4 -25 -86.4772 51.5324 2
25 4 3 11.324 62.951 3
4 -3 -25 295.449 157.825 2
4 4 -25 39.6481 86.784 2
25 4 -4 40.971 90.2202 3
4 -4 -25 58.7874 107.009 2
25 4 4 94.3545 50.7038 3
-4 -4 25 222.346 272.862 1
5 4 -25 157.262 73.791 2
25 4 5 205.001 114.916 3
-4 -5 25 327.663 143.716 1
4 -5 -25 75.8663 136.079 2
25 5 -4 126.92 190.439 3
5 3 -25 51.0369 51.338 2
25 3 5 59.2958 99.6184 3
3 -5 -25 98.2589 131.661 2
-3 -5 25 -82.1787 151.798 1
25 5 -3 -1.23315 109.683 3
25 2 5 14.9241 147.599 3
25 -2 -5 175.456 151.301 3
5 2 -25 413.355 201.359 2
2 -5 -25 645.979 261.013 2
-2 -5 25 855.451 341.159 1
2 -25 5 132.061 98.0195 1
25 5 -2 397.214 198.381 3
5 1 -25 351.915 186.187 2
1 -5 -25 692.475 263.203 2
25 5 -1 476.691 232.755 3
25 -1 -5 436.902 226.404 3
-1 5 -25 384.84 166.897 2
-1 -5 25 442.84 258.343 1
5 0 -25 848.817 237.366 2
0 -5 25 1425.06 433.099 1
25 0 -5 1240.78 289.611 3
25 5 0 846.794 279.806 3
0 5 -25 970.542 235.358 2
5 -1 -25 321.779 194.906 2
25 5 1 440.485 261.579 3
1 5 -25 458.587 194.699 2
1 -5 25 241.064 200.15 1
-5 -1 25 654.723 283.616 1
25 1 -5 543.059 224.87 3
-5 -2 25 304.92 191.434 1
25 2 -5 201.995 181.987 3
25 5 2 223.768 201.205 3
2 5 -25 654.087 198.217 2
5 -2 -25 486.49 191.878 2
2 -5 25 390.157 129.303 1
-5 -3 25 265.138 258.219 1
25 5 3 152.671 144.42 3
3 5 -25 33.4643 64.3098 2
5 -3 -25 -9.34669 93.2244 2
25 3 -5 64.6827 106.976 3
3 -5 25 102.887 139.565 1
4 -5 25 -42.8829 214.587 1
4 5 -25 416.027 178.256 2
25 5 4 43.8113 113.274 3
5 -4 -25 347.293 153.899 2
25 4 -5 151.194 96.8813 3
-5 -4 25 181.042 174.576 1
5 -5 -25 -25.9675 115.18 2
5 5 -25 1.05569 92.6601 2
25 5 -5 205.604 186.014 3
-5 -5 25 -290.848 190.812 1
25 5 5 204.887 133.729 3
-5 -6 25 113.108 136.475 1
5 -6 -25 160.004 140.421 2
6 5 -25 48.1016 59.9349 2
25 6 -5 5.18178 58.1167 3
25 5 6 124.129 118.957 3
25 4 6 84.4176 107.598 3
-4 -6 25 0.63213 204.351 1
6 4 -25 189.214 120.813 2
25 6 -4 73.6511 125.97 3
4 -6 -25 -5.92616 87.3484 2
-3 -6 25 82.7258 63.9052 1
6 3 -25 192.748 173.741 2
25 6 -3 570.762 417.04 3
3 -6 -25 243.07 171.612 2
25 3 6 -2.40367 83.6141 3
3 -25 6 454.835 209.448 1
6 2 -25 96.1004 85.3004 2
25 -2 -6 119.995 147.368 3
-2 -6 25 214.874 175.954 1
2 -6 -25 118.096 95.1588 2
2 -25 6 440.306 243.445 1
25 6 -1 45.9348 102.607 3
-1 -6 25 39.9481 146.52 1
-1 6 -25 40.8004 45.6034 2
1 -6 -25 169.7 151.907 2
25 -1 -6 300.639 172.784 3
1 -25 6 65.136 115.298 1
6 0 -25 -33.953 59.132 2
25 0 -6 33.8711 130.475 3
0 6 -25 -33.8727 110.251 2
25 6 0 -17.6202 88.3478 3
0 -6 25 100.744 133.159 1
1 -6 25 307.277 205.394 1
25 1 -6 137.973 129.134 3
-6 -1 25 -112.048 120.458 1
1 6 -25 6.11088 41.4692 2
25 6 1 62.7017 143.108 3
6 -1 -25 -1.17827 119.929 2
6 -2 -25 39.1412 132.553 2
2 -6 25 -110.19 127.418 1
25 2 -6 53.3256 106.727 3
25 6 2 10.3861 91.2975 3
-6 -2 25 123.703 122.259 1
-6 -3 25 418.197 152.67 1
25 3 -6 173.671 161.811 3
25 6 3 271.381 139.714 3
3 6 -25 130.12 69.0753 2
3 -6 25 470.181 279.197 1
6 -3 -25 380.651 191.591 2
6 -4 -25 249.923 156.141 2
4 6 -25 87.8054 106.07 2
4 -6 25 -5.41905 102.903 1
25 4 -6 137.717 133.026 3
25 6 4 147.025 69.7713 3
-6 -4 25 296.186 143.84 1
5 -6 25 240.943 229.95 1
5 6 -25 178.696 46.963 2
-6 -5 25 135.836 88.6997 1
6 -5 -25 227.388 122.415 2
25 6 5 120.296 48.1956 3
25 5 -6 44.1665 63.1574 3
-6 -6 25 983.264 378.395 1
6 -6 -25 715.911 224.275 2
6 6 -25 567.56 170.992 2
25 6 6 590.954 222.669 3
25 6 -6 659.294 260.153 3
7 6 -25 -114.38 127.832 2
6 -7 -25 245.406 195.255 2
-6 -7 25 20.9398 140.287 1
25 7 -6 49.2371 98.5925 3
7 5 -25 364.434 167.23 2
25 7 -5 188.838 185.831 3
5 -7 -25 340.078 162.731 2
-5 -7 25 418.966 288.184 1
-4 -7 25 483.503 257.464 1
7 4 -25 775.207 221.947 2
25 4 7 12.7291 149.949 3
4 -7 -25 645.456 222.252 2
25 7 -4 550.51 187.215 3
3 -25 7 278.163 244.001 1
-3 -7 25 349.017 258.889 1
7 3 -25 276.605 148.769 2
25 7 -3 138.831 137.898 3
3 -7 -25 683.253 214.788 2
7 2 -25 404.238 195.64 2
25 -2 -7 637.094 257.424 3
25 7 -2 427.155 265.22 3
2 -7 -25 628.914 164.209 2
-2 7 -25 454.042 163.702 2
2 -25 7 745.843 283.569 1
7 1 -25 498.018 209.112 2
-1 -7 25 711.777 306.385 1
25 -1 -7 837.83 255.037 3
-1 7 -25 454.292 156.179 2
25 7 -1 594.82 195.734 3
1 -7 -25 880.488 235.768 2
1 -25 7 500.162 227.524 1
0 7 -25 42.9395 76.7309 2
7 0 -25 39.4413 85.6544 2
25 7 0 245.655 88.3402 3
0 -25 7 85.8997 118.339 1
7 -1 -25 356.34 230.291 2
1 7 -25 447.827 191.121 2
25 7 1 588.959 239.37 3
1 -7 25 795.391 359.495 1
25 1 -7 434.763 216.627 3
7 -2 -25 630.611 184.49 2
2 7 -25 562.668 189.386 2
25 2 -7 559.471 247.255 3
25 7 2 543.753 178.505 3
-7 -2 25 858.68 374.141 1
2 -7 25 929.774 387.859 1
-7 -3 25 233.932 57.7266 1
3 -7 25 322.17 231.99 1
7 -3 -25 73.6918 60.735 2
3 7 -25 109.745 80.8383 2
25 3 -7 168.632 98.8305 3
25 7 3 192.832 196.969 3
25 4 -7 813.149 257.249 3
4 7 -25 456.314 121.797 2
7 -4 -25 493.451 182.627 2
25 7 4 570.747 213.024 3
-7 -4 25 676.581 224.074 1
4 -7 25 680.649 316.517 1
5 7 -25 322.226 131.252 2
-7 -5 25 669.423 246.558 1
7 -5 -25 779.388 246.185 2
25 5 -7 459.907 174.248 3
25 7 5 400.605 184.291 3
5 -7 25 289.264 261.344 1
-7 -6 25 -208.499 127.296 1
6 7 -25 -2.79451 49.909 2
7 -6 -25 -84.0217 153.099 2
25 7 6 85.2331 122.809 3
6 -7 25 219.5 286.579 1
25 6 -7 122.687 173.056 3
7 7 -25 -49.4661 81.4319 2
7 -7 -25 26.0184 129.136 2
25 7 -7 17.9173 99.6504 3
-7 -7 25 -144.971 182.539 1
8 7 -25 104.312 120.475 2
7 -8 -25 -24.5904 152.415 2
25 8 -7 82.8628 146.262 3
8 6 -25 106.221 99.4829 2
6 -8 -25 130.589 56.0584 2
25 8 -6 308.492 150.822 3
5 -8 -25 379.289 190.013 2
8 5 -25 559.399 183.752 2
25 8 -5 486.017 223.504 3
-5 -8 25 329.262 177.612 1
8 4 -25 161.054 68.5291 2
4 -8 -25 464.045 196.672 2
25 8 -4 28.1219 65.0641 3
-4 -8 25 244.778 216.434 1
3 -25 8 106.435 209.254 1
8 3 -25 36.5002 65.254 2
3 -8 -25 157.852 181.741 2
25 8 -3 35.1113 135.923 3
-3 8 -25 81.9694 110.78 2
2 -25 8 -172.517 208.636 1
8 2 -25 13.1344 44.0794 2
25 -2 -8 114.343 127.824 3
-2 8 -25 -30.956 104.3 2
2 -8 -25 -78.2003 74.5436 2
25 8 -2 17.6117 52.618 3
25 -1 -8 300.529 161.886 3
-1 -8 25 540.742 299.859 1
8 1 -25 181.598 119.992 2
-1 8 -25 429.595 141.998 2
25 8 -1 158.819 129.305 3
1 -8 -25 429.084 235.629 2
1 -25 8 328.251 178.162 1
8 0 -25 481.48 199.745 2
0 -8 25 -14.6358 108.844 1
0 8 -25 334.721 133.156 2
25 8 0 49.89 78.6222 3
0 -25 8 149.275 222.398 1
25 0 -8 563.27 210.788 3
8 -1 -25 228.797 106.591 2
25 1 -8 445.068 136.872 3
1 8 -25 273.153 135.199 2
1 -8 25 69.2338 260.155 1
25 8 1 146.1 135.78 3
-1 -25 8 306.049 153.084 1
8 -2 -25 59.0297 74.7043 2
2 8 -25 78.5851 86.268 2
25 2 -8 169.151 153.782 3
25 8 2 29.0821 163.622 3
2 -8 25 126.165 146.185 1
25 3 -8 196.33 175.547 3
8 -3 -25 64.9845 102.761 2
3 8 -25 -11.8907 84.3885 2
25 8 3 4.83015 79.5918 3
25 4 -8 68.3147 120.014 3
4 8 -25 137.321 96.6995 2
8 -4 -25 57.0557 51.0021 2
4 -8 25 -3.46483 155.292 1
25 8 4 349.982 164.521 3
-8 -4 25 173.007 122.964 1
5 8 -25 338.82 139.816 2
-8 -5 25 482.734 228.33 1
8 -5 -25 494.144 200.694 2
25 8 5 106.838 106.395 3
25 5 -8 624.991 255.696 3
5 -8 25 582.875 216.958 1
-8 -6 25 201.5 215.026 1
6 8 -25 209.607 82.3907 2
8 -6 -25 400.958 194.143 2
25 8 6 58.2233 55.3696 3
25 6 -8 334.491 205.919 3
6 -8 25 476.088 327.937 1
7 8 -25 34.963 57.8893 2
8 -7 -25 -45.2422 102.906 2
25 7 -8 100.761 106.47 3
7 -8 25 -77.7447 251.073 1
-8 -7 25 73.8865 74.5325 1
8 8 -25 401.087 143.173 2
8 -8 -25 299.908 141.219 2
-8 -8 25 400.093 228.538 1
25 8 -8 49.0684 123.313 3
8 -9 -25 639.486 217.661 2
-8 -9 25 354.589 112.326 1
25 9 -8 895.516 234.578 3
7 -9 -25 871.073 266.758 2
-7 -9 25 411.419 209.513 1
25 9 -7 464.276 189.381 3
9 6 -25 1331.75 301.46 2
6 -9 -25 1493.04 292.94 2
-6 -9 25 1208.69 396.346 1
25 9 -6 932.4 320.934 3
9 5 -25 266.492 164.487 2
5 -9 -25 337.964 187.801 2
25 9 -5 137.768 204.551 3
-5 -9 25 277.86 160.639 1
-4 -9 25 209.202 223.504 1
9 4 -25 5.01477 107.656 2
4 -25 9 -46.2866 164.428 1
4 -9 -25 97.1635 145.15 2
25 9 -4 200.338 201.536 3
9 3 -25 423.376 185.976 2
3 -25 9 438.676 227.52 1
3 -9 -25 380.51 164.138 2
25 9 -3 718.422 266.35 3
-3 -9 25 316.204 152.291 1
2 -25 9 214.548 66.0087 1
9 2 -25 116.185 48.7736 2
25 9 -2 62.0692 74.3926 3
2 -9 -25 193.371 153.636 2
-2 -9 25 208.657 113.41 1
1 -25 9 -49.5536 151.146 1
9 1 -25 19.0327 48.4163 2
25 -1 -9 49.1325 118.582 3
25 9 -1 38.3234 96.2766 3
1 -9 -25 -76.0047 138.996 2
-1 -9 25 -18.7249 122.334 1
0 -9 25 192.807 143.436 1
9 0 -25 64.1783 75.2732 2
25 0 -9 92.4375 133.313 3
25 9 0 208.403 157.742 3
0 -25 9 215.132 151.242 1
9 -1 -25 50.9106 70.5385 2
25 1 -9 -47.356 76.5303 3
1 -9 25 -366.218 223.627 1
25 9 1 6.32857 69.8461 3
-1 -25 9 -310.134 260.296 1
9 -2 -25 230.695 152.851 2
25 9 2 208.421 157.639 3
25 2 -9 57.9419 151.101 3
2 -9 25 123.59 247.142 1
-2 -25 9 254.298 231.162 1
9 -3 -25 417.852 200.653 2
25 3 -9 317.193 171.659 3
25 9 3 286.297 143.428 3
3 -9 25 333.983 203.232 1
25 9 4 -16.4325 94.8737 3
9 -4 -25 220.752 130.438 2
25 4 -9 41.6793 155.381 3
4 -9 25 10.4864 134.381 1
5 9 -25 206.091 120.252 2
25 5 -9 81.8994 110.157 3
9 -5 -25 92.6998 124.465 2
25 9 5 91.693 64.9709 3
5 -9 25 58.0229 92.8131 1
6 -9 25 1919.63 492.89 1
6 9 -25 898.734 215.141 2
9 -6 -25 952.612 267.935 2
25 9 6 876.36 230.985 3
25 6 -9 1335.46 319.179 3
-9 -6 25 1347.26 385.14 1
7 9 -25 401.112 153.347 2
9 -7 -25 301.235 183.389 2
7 -9 25 694.688 440.037 1
25 7 -9 516.327 192.388 3
-9 -7 25 643.504 301.922 1
9 -8 -25 662.284 185.533 2
25 8 -9 642.528 273.715 3
-9 -8 25 739.481 221.589 1
9 -9 -25 162.512 165.348 2
-9 -9 25 -30.1049 128.848 1
25 9 -9 49.2461 185.82 3
9 -10 -25 780.659 281.165 2
-9 -10 25 842.756 313.762 1
25 10 -9 866.838 235.72 3
8 -10 -25 781.193 245.061 2
-8 -10 25 151.752 179.732 1
25 10 -8 626.467 254.729 3
7 -10 -25 1603.68 315.826 2
-7 -10 25 1484.26 395.322 1
25 10 -7 1515.82 382.778 3
6 -10 -25 226.888 156.016 2
-6 -10 25 124.452 198.594 1
25 10 -6 3.41461 75.6785 3
10 5 -25 136.514 109.928 2
5 -10 -25 80.1917 71.9754 2
-5 -10 25 112.524 114.046 1
25 10 -5 67.7963 191.444 3
10 4 -25 445.546 158.41 2
-4 -10 25 329.325 133.487 1
4 -10 -25 440.836 184.751 2
25 10 -4 312.37 237.829 3
4 -25 10 112.238 98.489 1
10 3 -25 952.392 234.726 2
3 -25 10 1017.66 388.661 1
3 -10 -25 1046.59 288.531 2
-3 -10 25 399.593 99.1086 1
25 10 -3 828.563 265.327 3
10 2 -25 1084.83 277.568 2
2 -25 10 1305.84 433.82 1
2 -10 -25 839.897 243.171 2
25 10 -2 483.37 222.106 3
-2 -10 25 922.507 279.714 1
1 -25 10 175.554 241.449 1
10 1 -25 221.828 177.569 2
25 10 -1 32.8396 102.53 3
25 -1 -10 382.862 230.767 3
1 -10 -25 26.4319 64.2379 2
-1 -10 25 -69.8443 229.936 1
0 -25 10 124.892 216.704 1
10 0 -25 185.113 137.788 2
25 0 -10 197.525 136.047 3
25 10 0 54.0575 142.371 3
0 -10 -25 213.358 123.107 2
0 -10 25 339.941 302.473 1
1 -10 25 4.12972 163.478 1
10 -1 -25 108.239 58.8013 2
25 1 -10 49.4593 81.0312 3
25 10 1 8.41217 146.855 3
-1 -25 10 313.743 258.954 1
10 -2 -25 1018.95 279.799 2
2 -10 25 924.947 376.924 1
25 2 -10 691.476 265.185 3
25 10 2 523.094 240.225 3
-2 -25 10 959.322 386.784 1
10 -3 -25 775.632 284.008 2
25 10 3 530.877 197.922 3
25 3 -10 838.963 201.993 3
3 -10 25 1038.31 320.962 1
-3 -25 10 641.608 244.218 1
10 -4 -25 189.705 123.148 2
25 4 -10 751.552 184.84 3
25 10 4 521.049 203.329 3
4 -10 25 107.524 156.729 1
-4 -25 10 348.216 268.001 1
5 -10 25 402.931 185.594 1
10 -5 -25 106.668 99.4119 2
25 10 5 150.31 72.4777 3
25 5 -10 462.014 176.382 3
10 -6 -25 92.4457 116.533 2
25 6 -10 181.702 152.591 3
6 -10 25 126.077 148.651 1
25 10 6 -14.501 49.4108 3
10 -7 -25 1946.95 356.977 2
7 -10 25 2176.39 521.772 1
25 7 -10 1919.12 393.352 3
10 -8 -25 748.686 237.576 2
25 8 -10 1337.87 306.538 3
8 -10 25 1100.43 377.137 1
-10 -8 25 1038.88 314.014 1
10 -9 -25 557.896 218.643 2
-10 -9 25 400.984 272.665 1
25 9 -10 772.244 277.994 3
10 -10 -25 447.562 218.244 2
25 10 -10 349.197 156.566 3
25 11 -10 3119.11 442.953 3
10 -11 -25 1808.6 360.114 2
9 -11 -25 1435.78 324.351 2
-9 -11 25 1307.91 349.016 1
25 11 -9 1524.11 358.231 3
8 -11 -25 323.491 161.768 2
-8 -11 25 689.564 306.315 1
25 11 -8 106.242 174.217 3
7 -11 -25 413.156 185.089 2
-7 -11 25 150.567 121.751 1
25 11 -7 61.4224 105.932 3
6 -11 -25 807.264 241.219 2
-6 -11 25 1067.52 362.558 1
25 11 -6 728.073 282.092 3
5 -11 -25 309.604 159.164 2
-5 -11 25 43.6323 68.4994 1
25 11 -5 205.386 208.362 3
4 -11 -25 728.949 214.398 2
-4 -11 25 304.407 155.366 1
25 11 -4 285.146 225.339 3
3 -25 11 0.66288 87.3075 1
3 -11 -25 91.3346 111.963 2
-3 -11 25 -19.8268 93.657 1
25 11 -3 74.0868 149.529 3
11 2 -25 223.22 132.945 2
2 -25 11 287.743 300.557 1
2 -11 -25 34.162 120.591 2
-2 -11 25 126.895 159.794 1
25 11 -2 11.4266 61.9097 3
11 1 -25 325.808 156.509 2
1 -25 11 -181.807 249.68 1
25 -1 -11 610.13 246.902 3
25 11 -1 110.462 163.231 3
-1 -11 25 85.3486 94.8544 1
1 -11 -25 232.671 138.373 2
11 0 -25 169.42 144.355 2
0 -25 11 184.92 283.501 1
25 0 -11 -16.185 72.4211 3
25 11 0 -0.30104 99.8184 3
0 -11 -25 104.349 126.422 2
0 -11 25 2.07541 260.738 1
1 -11 25 278.616 279.267 1
-1 -25 11 -4.91165 90.6419 1
11 -1 -25 260.037 141.747 2
25 11 1 231.806 176.59 3
25 1 -11 601.669 244.603 3
-2 -25 11 117.345 184.647 1
11 -2 -25 -36.6601 166.568 2
2 -11 25 200.633 179.122 1
25 2 -11 222.337 55.1311 3
25 11 2 -1.13252 69.0087 3
11 -3 -25 143.832 125.493 2
3 -11 25 432.162 320.929 1
25 3 -11 282.681 190.29 3
25 11 3 11.7591 129.929 3
-3 -25 11 55.95 168.339 1
11 -4 -25 554.57 215.219 2
25 4 -11 725.647 241.26 3
25 11 4 543.548 164.292 3
4 -11 25 577.864 293.114 1
-4 -25 11 963.245 385.909 1
11 -5 -25 165.29 131.055 2
25 5 -11 312.247 172.521 3
25 11 5 109.568 163.181 3
-5 -25 11 190.721 211.804 1
5 -11 25 218.08 163.748 1
11 -6 -25 760.876 236.115 2
6 -11 25 887.308 388.224 1
25 6 -11 868.531 247.194 3
25 11 6 600.523 189.234 3
-6 -25 11 1128.34 372.362 1
11 -7 -25 253.576 179.202 2
25 7 -11 516.49 195.482 3
7 -11 25 367.312 207.162 1
11 -8 -25 237.395 186.655 2
8 -11 25 278.447 157.568 1
25 8 -11 408.918 186.971 3
11 -9 -25 1037.95 295.063 2
25 9 -11 1771.9 342.285 3
11 -10 -25 2587.3 423.255 2
25 10 -11 3387.32 489.585 3
11 -11 -25 839.929 270.006 2
25 11 -11 1084.17 287.876 3
25 12 -11 1492.91 341.581 3
10 -12 -25 764.115 237.945 2
25 12 -10 1076.19 273.578 3
9 -12 -25 3075.24 458.284 2
25 12 -9 3110.49 496.191 3
8 -12 -25 8.29099 105.774 2
25 12 -8 40.0738 158.307 3
7 -12 -25 1484.11 307.69 2
-7 -12 25 1309.25 382.963 1
25 12 -7 1225.19 329.629 3
6 -12 -25 1319.29 280.185 2
25 12 -6 906.549 272.185 3
-6 -12 25 807.018 314.986 1
5 -12 -25 419.827 104.448 2
25 12 -5 321.639 170.31 3
-5 -12 25 197.105 218.158 1
-4 -12 25 40.2927 195.369 1
4 -25 12 -226.325 237.559 1
4 -12 -25 -250.129 127.97 2
25 12 -4 4.01286 62.5517 3
3 -25 12 552.457 129.39 1
-3 -12 25 98.0261 231.33 1
3 -12 -25 698.363 267.671 2
25 12 -3 302.217 238.464 3
2 -25 12 -162.633 329.605 1
2 -12 -25 43.4398 71.3836 2
-2 -12 25 -125.39 139.954 1
25 12 -2 -27.1872 83.4712 3
1 -25 12 606.817 262.713 1
25 -1 -12 780.038 232.577 3
1 -12 -25 500.287 216.781 2
-1 -12 25 319.484 216.513 1
25 12 -1 360.093 238.729 3
0 -25 12 822.742 316.839 1
25 12 0 613.678 270.803 3
25 0 -12 637.43 213.107 3
0 -12 -25 778.996 222.225 2
0 -12 25 157.876 94.0529 1
12 -1 -25 375.455 205.061 2
-1 -25 12 552.051 312.873 1
25 1 -12 651.432 219.513 3
25 12 1 573.739 230.951 3
-1 -12 -25 761.127 219.559 2
1 -12 25 622.815 323.297 1
12 -2 -25 208.829 153.562 2
2 -12 25 215.898 310.961 1
-2 -25 12 65.0355 183.753 1
25 2 -12 122.314 171.946 3
25 12 2 59.5343 90.7301 3
-3 -25 12 384.043 286.424 1
12 -3 -25 480.203 154.366 2
3 -12 25 416.934 134.055 1
25 12 3 162.498 54.1415 3
25 3 -12 490.904 95.7384 3
25 12 4 35.97 136.793 3
12 -4 -25 230.096 79.5981 2
25 4 -12 56.5151 123.516 3
4 -12 25 -110.827 199.827 1
12 -5 -25 361.556 175.355 2
25 12 5 248.8 121.744 3
25 5 -12 690.394 224.919 3
5 -12 25 330.597 266.57 1
-5 -25 12 890.62 315.561 1
12 -6 -25 866.183 273.53 2
6 -12 25 873.251 275.366 1
25 6 -12 1504.28 332.608 3
25 12 6 714.51 219.416 3
-6 -25 12 551.957 189.033 1
12 -7 -25 1850.74 360.789 2
25 7 -12 2334.5 392.801 3
12 -8 -25 -275.721 137.692 2
25 8 -12 34.5944 97.4516 3
25 9 -12 4323.12 568.601 3
25 10 -12 1128.25 292.848 3
25 11 -12 2005.47 390.413 3
25 12 -12 319.115 215.572 3
25 13 -12 973.957 243.987 3
25 13 -11 1265.96 313.064 3
10 -13 -25 245.514 147.951 2
25 13 -10 45.1626 87.8371 3
9 -13 -25 1613.42 310.708 2
25 13 -9 1718.43 372.956 3
8 -13 -25 843.734 232.912 2
25 13 -8 233.272 245.725 3
7 -13 -25 1200.19 255.706 2
25 13 -7 862.337 293.798 3
6 -13 -25 1554.93 316.299 2
25 13 -6 1426.19 347.962 3
-5 -13 25 271.264 95.8218 1
5 -13 -25 456.583 171.876 2
25 13 -5 293.175 145.601 3
4 -13 -25 242.682 152.107 2
-4 -13 25 -140.51 152.477 1
4 -25 13 50.189 75.931 1
25 13 -4 35.985 120.506 3
3 -13 -25 273.011 91.7986 2
3 -25 13 -115.125 155.526 1
-3 -13 25 -84.8352 76.8756 1
25 13 -3 44.4679 77.4379 3
2 -13 -25 42.2318 144.646 2
25 13 -2 56.3225 51.1645 3
1 -25 13 -89.2563 220.012 1
-1 -13 25 73.0557 119.44 1
25 13 -1 169.708 156.849 3
1 -13 -25 528.125 233.304 2
25 0 -13 61.6673 70.7003 3
0 -25 13 -242.892 136.528 1
0 -13 -25 -164.671 110.03 2
25 13 0 180.852 200.122 3
-1 -25 13 1164.08 445.739 1
25 1 -13 429.073 171.913 3
25 13 1 490.966 204.683 3
-1 -13 -25 709.515 207.174 2
1 -13 25 435.808 285.186 1
25 2 -13 80.2439 100.603 3
-2 -25 13 418.091 271.841 1
25 13 2 216.001 124.937 3
2 -13 25 51.122 198.058 1
-3 -25 13 184.791 207.599 1
3 -13 25 353.256 276.377 1
25 3 -13 182.892 126.629 3
25 13 3 354.593 186.265 3
-4 -25 13 -166.002 224.894 1
25 4 -13 29.2231 112.752 3
4 -13 25 264.954 65.3543 1
25 13 4 28.6403 102.882 3
25 13 5 567.105 219.135 3
25 5 -13 546.375 181.046 3
25 6 -13 1757.32 321.978 3
25 7 -13 1240.8 265.47 3
25 8 -13 1036.44 287.262 3
25 9 -13 1880.06 358.679 3
25 10 -13 -73.1005 112.143 3
25 11 -13 824.738 269.505 3
25 12 -13 776.93 221.074 3
25 13 -13 447.764 200.923 3
25 14 -13 619.018 203.931 3
25 14 -12 190.205 172.742 3
25 14 -11 1653.24 335.194 3
25 14 -10 47.547 83.945 3
9 -14 -25 2459.48 378.542 2
25 14 -9 2093.07 413.605 3
8 -14 -25 394.355 131.236 2
25 14 -8 107.409 195.834 3
7 -14 -25 393.149 141.516 2
25 14 -7 50.7918 145.7 3
6 -14 -25 25.6051 86.5133 2
25 14 -6 -422.193 172.854 3
5 -14 -25 769.63 264.153 2
25 14 -5 91.7203 174.459 3
4 -14 -25 83.9106 122.072 2
25 14 -4 -0.67502 139.186 3
3 -14 -25 509.635 212.368 2
25 14 -3 104.828 149.835 3
2 -14 -25 482.708 202.311 2
2 -25 14 -47.7071 257.067 1
25 14 -2 155.757 112.01 3
25 14 -1 253.85 216.297 3
1 -25 14 228.347 206.493 1
1 -14 -25 654.592 199.215 2
0 -25 14 -237.979 159.426 1
25 0 -14 129.449 152.667 3
0 -14 -25 -5.74279 135.682 2
25 14 0 -23.881 99.5821 3
-1 -25 14 440.65 202.534 1
25 1 -14 442.497 129.07 3
25 14 1 687.872 240.304 3
-1 -14 -25 840.982 255.932 2
25 2 -14 325.489 181.076 3
25 14 2 114.427 100.007 3
-2 -14 -25 312.502 142.288 2
25 3 -14 44.1242 119.668 3
25 14 3 257.781 137.837 3
25 4 -14 239.916 169.621 3
25 14 4 33.1527 109.791 3
25 5 -14 855.012 278.595 3
25 14 5 365.761 193.246 3
25 6 -14 -166.211 150.299 3
25 7 -14 492.53 176.434 3
25 8 -14 517.893 219.269 3
25 9 -14 3051.67 469.176 3
25 10 -14 101.789 121.858 3
25 11 -14 1491.3 326.056 3
25 12 -14 126.176 141.963 3
25 13 -14 940.107 282.75 3
25 14 -14 -43.2523 111.113 3
25 15 -14 1021.11 292.135 3
25 15 -13 89.6769 108.599 3
25 15 -12 619.172 186.333 3
25 15 -11 664.212 205.561 3
25 15 -10 238.801 169.894 3
9 -15 -25 341.117 165.488 2
25 15 -9 437.214 225.322 3
8 -15 -25 734.121 209.777 2
25 15 -8 594.344 258.223 3
7 -15 -25 802.86 237.906 2
25 15 -7 323.253 220.732 3
6 -15 -25 91.5055 78.4073 2
25 15 -6 89.1926 213.405 3
5 -15 -25 290.446 116.878 2
25 15 -5 13.4 127.864 3
4 -15 -25 229.018 120.228 2
25 15 -4 -6.41798 134.544 3
3 -15 -25 155.603 73.1113 2
25 15 -3 48.3414 60.382 3
2 -15 -25 539.491 183.531 2
25 15 -2 53.0741 188.137 3
1 -15 -25 687.538 221.936 2
25 15 -1 361.138 156.763 3
25 15 0 805.185 306.008 3
0 -15 -25 1520.73 299.044 2
25 1 -15 434.503 129.672 3
-1 -15 -25 633.5 198.703 2
25 15 1 224.218 185.568 3
25 2 -15 368.019 180.962 3
25 15 2 121.01 142.861 3
-2 -15 -25 466.811 176.918 2
25 3 -15 500.254 171.861 3
25 15 3 205.819 145.855 3
-3 -15 -25 302.688 126.633 2
25 4 -15 272.464 133.983 3
25 15 4 192.014 150.46 3
25 5 -15 32.1497 111.616 3
25 15 5 33.7975 75.9936 3
25 6 -15 -160.422 119.264 3
25 7 -15 926.337 259.852 3
25 8 -15 550.405 214.017 3
25 9 -15 490.328 201.185 3
25 10 -15 169.55 108.466 3
25 11 -15 568.706 196.316 3
25 12 -15 457.177 155.863 3
25 13 -15 -12.7509 101.547 3
25 14 -15 615.466 214.679 3
25 15 -15 235.685 141.029 3
25 16 -15 294.612 126.983 3
25 16 -14 841.079 243.739 3
25 16 -13 996.322 285.315 3
25 16 -12 -50.9917 111.01 3
25 16 -11 2031.52 342.632 3
25 16 -10 273.383 162.698 3
25 16 -9 658.422 247.608 3
8 -16 -25 229.66 72.5515 2
25 16 -8 121.186 146.803 3
7 -16 -25 820.712 193.351 2
25 16 -7 579.711 185.486 3
6 -16 -25 195.006 179.073 2
25 16 -6 -38.5139 91.4706 3
5 -16 -25 348.461 174.931 2
25 16 -5 288.375 185.592 3
4 -16 -25 103.824 145.111 2
25 16 -4 -24.9337 77.2987 3
3 -16 -25 32.6681 94.0142 2
25 16 -3 -388.256 161.883 3
2 -16 -25 310.672 165.502 2
25 16 -2 68.484 163.452 3
1 -16 -25 1298.49 272.419 2
25 16 -1 895.068 270.329 3
0 -16 -25 139.628 185.788 2
25 16 0 89.6173 133.538 3
25 1 -16 1140.22 269.473 3
-1 -16 -25 1315.14 297.421 2
25 16 1 580.174 258.909 3
25 2 -16 128.143 71.5381 3
-2 -16 -25 310.358 110.126 2
25 16 2 91.1614 149.085 3
25 3 -16 -18.3984 134.701 3
25 16 3 -36.7963 48.4816 3
-3 -16 -25 -2.79338 110.93 2
25 4 -16 124.779 73.2782 3
25 16 4 34.9443 113.366 3
25 5 -16 501.599 182.208 3
25 16 5 229.574 202.972 3
25 6 -16 -44.2475 68.0165 3
25 7 -16 982.526 279.045 3
25 8 -16 284.47 149.182 3
25 9 -16 816.516 215.37 3
25 10 -16 380.705 214.084 3
25 11 -16 1888.03 350.982 3
25 12 -16 292.602 201.576 3
25 13 -16 734.942 237.634 3
25 14 -16 446.103 129.983 3
25 15 -16 95.2258 76.039 3
25 16 -16 126.18 92.252 3
25 17 -16 256.032 152.559 3
16 25 -17 321.585 153.267 3
25 17 -15 -50.2091 169.133 3
25 17 -14 176.141 80.1122 3
25 17 -13 48.9554 113.75 3
25 17 -12 556.81 211.673 3
25 17 -11 182.672 134.249 3
25 17 -10 827.416 265.442 3
25 17 -9 136.586 78.3995 3
25 17 -8 1055.12 297.222 3
7 -17 -25 65.805 107.07 2
25 17 -7 70.7825 145.104 3
6 -17 -25 652.993 214.161 2
25 17 -6 264.282 252.806 3
5 -17 -25 472.244 326.43 2
25 17 -5 266.226 214.016 3
4 -17 -25 569.239 327.596 2
25 17 -4 273.158 237.27 3
3 -17 -25 702.628 204.708 2
25 17 -3 404.978 217.601 3
2 -17 -25 2615.81 368.318 2
25 17 -2 2380.29 414.79 3
1 -17 -25 -52.9644 130.824 2
25 17 -1 158.074 193.82 3
0 -17 -25 -88.6145 86.2341 2
25 17 0 7.60021 102.604 3
25 17 1 -17.0626 118.316 3
-1 -17 -25 98.5717 106.144 2
25 2 -17 2503.34 414.386 3
-2 -17 -25 2365.64 378.383 2
25 17 2 1416.28 342.315 3
25 3 -17 207.432 165.744 3
-3 -17 -25 820.001 232.758 2
25 17 3 436.785 205.88 3
25 17 4 101.086 119.084 3
-4 -17 -25 297.449 150.488 2
25 4 -17 153.77 68.9757 3
25 5 -17 583.171 232.319 3
25 17 5 486.473 221.939 3
25 6 -17 672.629 195.099 3
25 7 -17 367.509 179.784 3
25 8 -17 1182.5 278.599 3
25 9 -17 194.288 184.044 3
25 10 -17 632.918 201.955 3
25 11 -17 -86.4337 85.6569 3
25 12 -17 251.233 72.6783 3
25 13 -17 9.64758 86.0549 3
25 14 -17 142.703 79.8331 3
17 25 -15 138.005 167.137 3
25 15 -17 7.16692 73.8638 3
25 16 -17 274.849 141.745 3
17 25 -16 481.129 194.973 3
25 17 -17 408.972 153.494 3
17 25 -17 151.045 99.6789 3
25 18 -17 170.771 65.6728 3
17 25 -18 176.927 88.4997 3
25 18 -16 312.404 142.564 3
16 25 -18 182.447 110.912 3
15 25 -18 15.7314 108.493 3
25 18 -15 151.4 73.9167 3
25 18 -14 330.624 161.734 3
25 18 -13 53.1219 77.6141 3
25 18 -12 904 248.212 3
25 18 -11 48.7086 124.412 3
25 18 -10 381.163 148.188 3
25 18 -9 1173.5 342.108 3
25 18 -8 518.207 234.475 3
7 -18 -25 141.53 97.7779 2
25 18 -7 220.263 139.271 3
6 -18 -25 -67.3311 121.697 2
25 18 -6 28.1908 113.127 3
25 18 -5 311.085 190.066 3
18 25 5 81.374 154.803 3
4 -18 -25 723.551 215.943 2
25 18 -4 731.215 257.998 3
3 -18 -25 1012.23 223.61 2
25 18 -3 867.312 271.065 3
2 -18 -25 80.933 96.8751 2
25 18 -2 -9.53548 91.047 3
1 -18 -25 460.132 121.029 2
25 18 -1 262.676 180.509 3
0 -18 -25 488.547 164.719 2
25 18 0 253.822 169.388 3
-1 -18 -25 597.978 173.157 2
25 18 1 107.311 143.925 3
-2 -18 -25 317.245 153.528 2
25 18 2 -58.5221 119.313 3
25 3 -18 1080.12 277.945 3
-3 -18 -25 862.139 253.651 2
25 18 3 646.152 201.343 3
25 18 4 443.146 202.138 3
25 4 -18 1135.86 262.934 3
-4 -18 -25 952.855 297.882 2
-5 -18 -25 1210.51 319.615 2
25 18 5 498.262 205.667 3
25 5 -18 843.62 217.774 3
25 6 -18 166.286 72.9143 3
-6 -18 -25 187.529 82.67 2
25 7 -18 363.753 163.624 3
25 8 -18 639.086 194.542 3
25 9 -18 1430.92 305.322 3
25 10 -18 78.3339 65.847 3
25 11 -18 217.258 103.42 3
25 12 -18 1243.79 293.491 3
18 25 -13 393.498 160.436 3
25 13 -18 13.8801 97.5307 3
25 14 -18 160.729 118.41 3
18 25 -14 126.942 85.784 3
25 15 -18 -58.573 74.7265 3
18 25 -15 370.937 143.907 3
25 16 -18 404.239 177.833 3
18 25 -16 34.5235 71.9949 3
25 17 -18 88.2305 96.3035 3
18 25 -17 -39.011 74.0884 3
25 18 -18 34.1479 60.8839 3
18 25 -18 -71.4963 82.2113 3
25 19 -18 -91.9689 89.7463 3
18 25 -19 3.79346 125.675 3
25 19 -17 225.728 134.574 3
17 25 -19 345.915 187.968 3
25 19 -16 12.5759 120.163 3
16 25 -19 -111.657 104.043 3
25 19 -15 778.423 224.434 3
15 25 -19 687.925 205.719 3
14 25 -19 257.008 140.463 3
25 19 -14 651.725 183.939 3
25 19 -13 354.062 181.788 3
25 19 -12 525.157 227.23 3
25 19 -11 1118.9 320.879 3
25 19 -10 709.635 248.464 3
25 19 -9 15.7169 66.4381 3
25 19 -8 590.059 219.882 3
25 19 -7 227.314 179.76 3
6 -19 -25 110.705 180.59 2
25 19 -6 565.439 220.461 3
5 -19 -25 16.3893 131.314 2
25 19 -5 272.35 173.175 3
19 25 5 62.1678 105.521 3
4 -19 -25 247.083 307.361 2
19 25 4 1138.97 308.785 3
3 -19 -25 190.377 82.8617 2
25 19 -3 27.8193 133.98 3
19 25 3 -26.2917 114.557 3
19 25 2 91.3115 91.823 3
2 -19 -25 406.557 155.703 2
25 19 -2 223.997 170.894 3
1 -19 -25 542.998 177.676 2
25 19 -1 319.797 220.538 3
0 -19 -25 2228.31 330.295 2
25 19 0 1208.87 340.093 3
-1 -19 -25 391.089 165.03 2
25 19 1 40.5937 139.117 3
25 19 2 -15.6701 120.779 3
-2 -19 -25 257.977 112.355 2
-3 -19 -25 125.078 115.984 2
25 19 3 92.5862 160.792 3
25 4 -19 1965.38 329.903 3
-4 -19 -25 2281.42 327.653 2
25 19 4 1267.03 312.254 3
25 5 -19 535.846 155.915 3
-5 -19 -25 586.902 185.605 2
25 19 5 381.39 217.462 3
-6 -19 -25 952.283 222.696 2
25 6 -19 930.626 256.717 3
25 7 -19 371.469 103.535 3
-7 -19 -25 601.174 165.811 2
25 8 -19 515.561 158.681 3
25 9 -19 325.751 140.936 3
19 25 -10 890.355 277.844 3
25 10 -19 924.182 226.609 3
19 25 -11 1179.5 314.512 3
25 11 -19 945.977 188.573 3
25 12 -19 734.065 205.444 3
19 25 -12 463.279 210.945 3
25 13 -19 13.5719 61.4954 3
19 25 -13 340.594 170.838 3
25 14 -19 454.792 164.497 3
19 25 -14 525.969 171.42 3
25 15 -19 589.534 188.15 3
19 25 -15 822.602 222.488 3
25 16 -19 1.77101 80.3141 3
19 25 -16 12.019 122.946 3
25 17 -19 187.927 133.248 3
19 25 -17 -138.133 132.882 3
25 18 -19 2.99922 109.841 3
19 25 -18 5.10056 62.7056 3
25 19 -19 17.1994 167.773 3
19 25 -19 -6.34504 68.9706 3
25 20 -19 15.8771 145.446 3
19 25 -20 48.0828 115.035 3
25 20 -18 955.93 202.027 3
18 25 -20 1115.41 205.677 3
25 20 -17 -56.3536 67.1391 3
17 25 -20 17.7936 84.8088 3
25 20 -16 403.68 158.333 3
16 25 -20 14.6028 105.406 3
25 20 -15 46.4475 137.5 3
15 25 -20 181.686 66.1264 3
25 20 -14 194.945 78.6716 3
14 25 -20 218.296 118.715 3
13 25 -20 102.654 89.101 3
25 20 -13 46.6641 73.1551 3
25 20 -12 80.7833 81.597 3
25 20 -11 37.8728 80.2075 3
25 20 -10 807.954 267.398 3
25 20 -9 -68.4849 108.82 3
25 20 -8 512.133 234.031 3
25 20 -7 260.621 186.711 3
25 20 -6 555.481 260.776 3
25 20 -5 307.24 215.625 3
20 25 5 191.529 153.304 3
25 20 -4 238.644 160.222 3
20 25 4 113.803 109.842 3
25 20 -3 201.069 148.219 3
20 25 3 170.056 155.339 3
25 20 -2 514.088 203.659 3
20 25 2 597.087 223.609 3
25 20 -1 271.32 183.514 3
20 25 1 288.114 136.617 3
25 20 0 -8.67606 71.6905 3
20 25 0 113.478 117.124 3
25 20 1 38.2479 154.771 3
20 25 -1 281.471 187.462 3
25 20 2 301.885 224.825 3
20 25 -2 651.706 235.318 3
20 25 -3 383.181 233.658 3
25 20 3 74.5001 148.709 3
20 25 -4 138.345 158.879 3
25 20 4 125.499 131.172 3
20 25 -5 510.788 242.616 3
25 20 5 231.669 154.609 3
25 5 -20 461.623 209.581 3
20 25 -6 335.012 195.273 3
-6 -20 -25 74.4484 191.832 2
25 7 -20 333.592 115.784 3
-7 -20 -25 61.1416 157.315 2
20 25 -7 224.909 170.42 3
25 8 -20 415.096 192.988 3
-8 -20 -25 42.6136 176.326 2
20 25 -8 375.165 140.631 3
25 9 -20 -128.747 118.573 3
-9 -20 -25 28.7921 48.3842 2
25 10 -20 844.385 244.798 3
20 25 -10 1004.89 314.239 3
25 11 -20 21.6343 61.1081 3
20 25 -11 -76.5202 107.798 3
25 12 -20 -25.4306 128.417 3
20 25 -12 3.65291 123.853 3
25 13 -20 328.395 120.217 3
20 25 -13 39.784 80.2115 3
25 14 -20 220.114 110.998 3
20 25 -14 201.575 117.986 3
25 15 -20 -55.109 94.6229 3
20 25 -15 165.231 84.6644 3
25 16 -20 88.7409 77.6195 3
20 25 -16 434.823 153.042 3
25 17 -20 18.068 88.0492 3
20 25 -17 -75.1069 49.6586 3
25 18 -20 195.897 206.399 3
20 25 -18 851.212 188.667 3
25 19 -20 -19.1403 68.9688 3
20 25 -19 1.78646 87.4768 3
20 25 -20 -15.6875 75.1251 3
25 20 -20 74.6149 130.834 3
25 21 -20 0.8291 96.8889 3
20 25 -21 8.51361 94.9721 3
25 21 -19 -24.8531 99.408 3
19 25 -21 9.74502 95.6307 3
18 25 -21 -2.83569 74.73 3
25 21 -18 5.85021 76.2997 3
25 21 -17 917.564 183.584 3
17 25 -21 258.29 200.445 3
25 21 -16 195.328 99.7359 3
16 25 -21 -0.79089 84.82 3
25 21 -15 206.263 128.717 3
15 25 -21 -12.9902 99.0749 3
25 21 -14 166.057 113.654 3
14 25 -21 59.0512 147.974 3
25 21 -13 1574.17 340.548 3
13 25 -21 1970.69 291.346 3
25 21 -12 342.938 129.652 3
12 25 -21 313.497 101.857 3
25 21 -11 32.9931 61.0381 3
25 21 -10 742.297 230.164 3
25 21 -9 321.866 205.823 3
25 21 -8 1114.21 285.605 3
25 21 -7 211.032 194.46 3
25 21 -6 360.095 230.848 3
25 21 -5 104.115 87.7733 3
25 21 -4 63.0032 126.779 3
21 25 4 52.3784 151.661 3
25 21 -3 -14.2723 71.4825 3
21 25 3 -17.7024 66.4475 3
25 21 -2 700.513 246.435 3
21 25 2 243.406 193.884 3
25 21 -1 7.81692 63.2921 3
21 25 1 25.3687 87.1146 3
25 21 0 72.9673 127.178 3
21 25 0 89.8741 116.037 3
25 21 1 124.215 145.522 3
21 25 -1 57.0747 81.2953 3
25 21 2 179.543 197.636 3
21 25 -2 472.152 207.194 3
25 21 3 -17.3034 85.1037 3
21 25 -3 38.3917 72.6223 3
25 21 4 144.631 149.966 3
21 25 -4 34.0365 105.848 3
21 25 -5 111.344 135.122 3
25 6 -21 998.225 194.639 3
21 25 -6 438.307 222.837 3
25 7 -21 333.483 127.198 3
21 25 -7 208.224 187.219 3
25 8 -21 1518.94 286.206 3
21 25 -8 1054.94 324.04 3
25 9 -21 541.481 167.022 3
21 25 -9 319.789 158.691 3
25 10 -21 819.953 186.675 3
21 25 -10 494.062 206.082 3
25 11 -21 136.196 84.7173 3
21 25 -11 304.817 170.113 3
25 12 -21 441.138 168.21 3
21 25 -12 747.634 221.93 3
25 13 -21 2015.01 308.536 3
21 25 -13 1915.22 358.12 3
25 14 -21 23.8917 103.526 3
21 25 -14 210.811 117.544 3
25 15 -21 19.9437 100.897 3
21 25 -15 159.864 50.0706 3
25 16 -21 49.4763 158.125 3
21 25 -16 304.971 155.651 3
25 17 -21 904.421 183.66 3
21 25 -17 1077.8 241.661 3
25 18 -21 -9.20274 97.0939 3
21 25 -18 -9.62895 61.3021 3
25 19 -21 2.56335 89.7663 3
21 25 -19 29.8613 82.8306 3
25 20 -21 3.75871 84.7763 3
21 25 -20 1.62056 73.9097 3
25 22 -19 3.09522 71.1755 3
19 25 -22 -1.66495 32.4862 3
25 22 -18 143.853 124.549 3
18 25 -22 817.501 152.627 3
25 22 -17 6.97607 75.9851 3
17 25 -22 33.8848 78.1173 3
25 22 -16 910.629 217.619 3
16 25 -22 1060.12 185.094 3
25 22 -15 33.4263 89.3399 3
15 25 -22 24.2263 60.8635 3
25 22 -14 53.6008 92.3899 3
14 25 -22 6.40402 114.939 3
25 22 -13 262.612 136.22 3
13 25 -22 7.60934 85.4244 3
25 22 -12 800.548 254.399 3
12 25 -22 0.60276 132.99 3
25 22 -11 139.671 161.181 3
11 25 -22 176.909 109.494 3
25 22 -10 340.361 182.45 3
25 22 -9 2.69179 81.0484 3
25 22 -8 512.798 215.827 3
25 22 -7 273.812 176.9 3
25 22 -6 160.194 146.617 3
25 22 -5 438.368 194.758 3
25 22 -4 295.648 147.743 3
22 25 4 80.9849 116.109 3
25 22 -3 335.296 210.303 3
22 25 3 157.551 179.199 3
25 22 -2 -38.0877 75.7426 3
22 25 2 39.2935 161.741 3
25 22 -1 54.9367 83.6626 3
22 25 1 102.415 111.234 3
25 22 0 158.819 169.327 3
22 25 0 156.337 126.854 3
25 22 1 59.0434 131.972 3
22 25 -1 232.682 186.25 3
25 22 2 1.2444 75.1685 3
22 25 -2 334.83 192.13 3
25 22 3 222.033 167.144 3
22 25 -3 369.844 208.59 3
25 22 4 65.0264 134.191 3
22 25 -4 154.06 136.217 3
22 25 -5 213.962 162.511 3
22 25 -6 185.161 180.347 3
22 25 -7 277.025 128.956 3
22 25 -8 452.585 150.263 3
25 8 -22 464.937 131.441 3
25 9 -22 382.882 163.593 3
22 25 -9 -31.4909 115.501 3
25 10 -22 365.199 154.244 3
22 25 -10 176.142 112.533 3
25 11 -22 69.2743 62.6044 3
22 25 -11 16.275 104.322 3
25 12 -22 140.161 183.406 3
22 25 -12 666.533 224.637 3
25 13 -22 35.1978 124.972 3
22 25 -13 457.606 183.099 3
22 25 -14 312.671 155.764 3
25 14 -22 -62.3994 90.1665 3
25 15 -22 5.71663 83.1023 3
22 25 -15 -163.268 138.256 3
25 16 -22 821.702 168.163 3
22 25 -16 885.158 203.091 3
22 25 -17 37.3124 101.131 3
25 17 -22 43.5841 79.5065 3
25 18 -22 11.176 75.9929 3
22 25 -18 2.65439 71.2337 3
22 25 -19 0.84535 38.8238 3
25 19 -22 -1.15255 94.5402 3
25 23 -18 -14.3669 84.1195 3
17 25 -23 6.53367 84.364 3
25 23 -17 12.2209 52.7345 3
25 23 -16 -1.05572 120.279 3
16 25 -23 50.4182 100.969 3
25 23 -15 2433.39 367.903 3
15 25 -23 2065.42 241.648 3
25 23 -14 108.445 84.2144 3
14 25 -23 64.7278 121.602 3
25 23 -13 -600.898 172.852 3
25 23 -12 78.1036 102.06 3
25 23 -11 1097.23 284.822 3
25 23 -10 130.865 151.853 3
25 23 -9 189.68 163.649 3
25 23 -8 13.4838 115.631 3
25 23 -7 -95.2256 67.4441 3
25 23 -6 130.734 143.925 3
25 23 -5 53.9651 110.76 3
23 25 4 260.346 171.356 3
25 23 -4 376.838 177.588 3
23 25 3 60.43 118.793 3
25 23 -3 -1.11777 59.2757 3
25 23 -2 59.6219 119.31 3
23 25 2 -0.71164 61.7564 3
25 23 -1 107.006 150.17 3
23 25 1 -1.24222 85.9027 3
25 23 0 90.6561 88.8571 3
23 25 0 78.4797 122.377 3
25 23 1 51.5005 65.5064 3
23 25 -1 29.8504 107.995 3
25 23 2 168.081 98.3349 3
23 25 -2 -16.4202 64.6774 3
25 23 3 5.37132 63.6634 3
23 25 -3 174.646 141.573 3
25 23 4 283.129 177.999 3
23 25 -4 258.953 171.644 3
23 25 -5 55.0051 57.7154 3
23 25 -6 130.091 109.003 3
23 25 -7 37.9762 125.544 3
23 25 -8 114.895 120.246 3
23 25 -9 430.98 234.365 3
23 25 -10 252.167 138.239 3
23 25 -11 1004.98 268.169 3
23 25 -12 -24.3117 89.3736 3
25 13 -23 2.14176 56.8072 3
23 25 -13 25.5923 67.4266 3
25 14 -23 4.43564 50.8704 3
23 25 -14 153.232 127.139 3
25 15 -23 889.538 252.152 3
23 25 -15 1976.69 333.8 3
23 25 -16 60.6786 108.684 3
25 16 -23 31.6627 91.6033 3
25 17 -23 27.7587 80.7007 3
23 25 -17 1.3444 87.8664 3
23 25 -18 -0.86628 83.9707 3
25 24 -17 1.2294 63.0581 3
25 24 -16 -59.7307 51.6923 3
25 24 -15 146.299 77.3108 3
25 24 -14 73.703 120.395 3
25 24 -13 52.9366 112.872 3
25 24 -12 140.761 153.782 3
25 24 -11 211.809 160.57 3
25 24 -10 311.93 201.695 3
25 24 -9 -6.65614 99.6966 3
25 24 -8 335.582 192.473 3
25 24 -7 26.9313 99.1288 3
25 24 -6 -8.44599 67.2933 3
25 24 -5 30.6536 113.507 3
25 24 -4 60.4214 125.755 3
24 25 3 80.6547 132.013 3
25 24 -3 65.5483 108.857 3
24 25 2 129.09 124.727 3
25 24 -2 132.412 143.414 3
25 24 -1 34.9596 48.6093 3
24 25 1 -6.06913 87.7255 3
25 24 0 31.5909 133.03 3
24 25 0 69.0873 67.314 3
25 24 1 62.2449 133.12 3
24 25 -1 36.246 110.553 3
25 24 2 32.1777 40.873 3
24 25 -2 74.0014 134.215 3
25 24 3 207.318 147.822 3
24 25 -3 0.26439 77.4585 3
24 25 -4 20.9458 87.9479 3
24 25 -5 46.6411 62.1548 3
24 25 -6 -42.4707 68.159 3
24 25 -7 -1.35865 67.8155 3
24 25 -8 133.149 153.02 3
24 25 -9 74.9286 102.877 3
24 25 -10 128.009 94.2838 3
24 25 -11 349.836 204.999 3
24 25 -12 55.6374 121.19 3
24 25 -13 -39.6795 96.4829 3
24 25 -14 72.3118 87.6585 3
24 25 -15 107.135 86.0569 3
24 25 -16 40.2638 68.2797 3
24 25 -17 2.79489 88.7582 3
25 25 0 -11.5548 84.1211 3
25 25 1 16.0437 97.926 3
25 25 -1 -32.4201 145.768 3
25 25 2 22.6068 84.1758 3
25 25 -2 71.102 63.4998 3
25 25 3 -74.4026 57.7051 3
25 25 -3 94.466 176.105 3
25 25 -4 -21.6073 73.4862 3
25 25 -5 422.875 226.433 3
25 25 -6 129.559 82.1575 3
25 25 -7 159.385 106.978 3
25 25 -8 94.0349 111.47 3
25 25 -9 -36.3695 113.217 3
25 25 -10 -428.097 144.88 3
25 25 -11 -30.7035 63.1792 3
25 25 -12 -29.9741 71.4233 3
25 25 -13 1291.15 265.046 3
25 25 -14 15.5907 42.258 3
25 25 -15 75.6634 105.499 3
26 0 0 -33.4316 181.122 3
0 0 -26 -12.3921 64.2321 2
26 1 0 332.966 503.002 3
26 0 -1 0.6049 86.9037 3
1 0 -26 93.4716 103.137 2
0 1 -26 124.416 110.886 2
26 1 -1 39.5576 135.58 3
26 1 1 7.20605 120.525 3
1 1 -26 -26.6676 58.1366 2
1 -1 -26 60.2282 88.5079 2
26 1 2 69.4449 163.023 3
26 2 -1 269.048 180.107 3
2 1 -26 141.563 126.33 2
1 -2 -26 413.466 197.522 2
26 0 -2 45.7123 84.1911 3
2 0 -26 350.21 178.732 2
0 2 -26 253.739 119.981 2
26 2 0 164.897 111.094 3
26 2 1 209.26 132.331 3
26 1 -2 364.726 134.412 3
2 -1 -26 71.3507 105.21 2
1 2 -26 373.012 180.421 2
2 2 -26 337.346 127.155 2
26 2 2 150.646 114.157 3
26 2 -2 518.686 183.054 3
2 -2 -26 480.246 209.856 2
-2 -3 26 -29.0889 163.032 1
3 2 -26 -39.3899 66.8659 2
26 2 3 21.5717 106.393 3
26 3 -2 -13.6126 110.299 3
2 -3 -26 -9.56874 103.174 2
-1 -3 26 308.665 91.7668 1
26 -1 -3 0.63138 101.367 3
3 1 -26 98.7865 119.945 2
1 -3 -26 90.1187 144.499 2
-1 3 -26 149.614 111.151 2
26 3 0 -113.075 92.0085 3
3 0 -26 -5.61351 67.171 2
0 3 -26 -79.0414 97.8102 2
26 3 1 -16.9848 108.195 3
3 -1 -26 24.0119 91.4695 2
1 3 -26 150.817 128.626 2
26 1 -3 11.338 125.731 3
26 3 2 0.84103 72.9832 3
26 2 -3 75.9835 152.294 3
2 3 -26 12.8578 78.5089 2
3 -2 -26 -8.22534 58.6275 2
26 3 -3 65.4285 56.0227 3
26 3 3 93.2374 97.0613 3
3 3 -26 -346.177 140.27 2
3 -3 -26 180.707 171.158 2
-3 -3 26 559.66 370.572 1
26 3 4 515.898 218.198 3
4 3 -26 670.388 189.773 2
3 -4 -26 574.798 216.933 2
-3 -4 26 824.371 335.475 1
26 4 -3 423.523 217.507 3
26 4 -2 105.844 142.584 3
4 2 -26 60.4043 105.137 2
2 -4 -26 60.0467 65.3081 2
-1 -4 26 108.097 86.5611 1
26 4 -1 86.1272 184.854 3
4 1 -26 432.058 198.424 2
26 -1 -4 48.2172 158.048 3
1 -4 -26 293.993 170.978 2
-1 4 -26 323.929 169.475 2
26 4 0 -2.66312 54.1304 3
4 0 -26 0.59238 100.37 2
26 0 -4 -17.6552 129.689 3
0 4 -26 32.8304 109.259 2
0 -4 26 41.2493 73.7901 1
26 4 1 328.985 192.174 3
26 1 -4 447.85 186.514 3
1 -4 26 405.523 262.282 1
4 -1 -26 567.358 203.336 2
1 4 -26 373.945 108.344 2
26 4 2 -28.0542 124.064 3
26 2 -4 -163.66 108.467 3
-4 -2 26 66.3007 168.343 1
4 -2 -26 4.27351 46.9438 2
2 4 -26 -44.6342 118.051 2
26 3 -4 660.74 223.519 3
3 4 -26 289.808 137.695 2
-4 -3 26 624.945 293.076 1
26 4 3 252.396 163.568 3
4 -3 -26 631.562 199.689 2
26 4 -4 1278.86 298.544 3
26 4 4 1301.98 274.965 3
4 -4 -26 1156.89 301.309 2
-4 -4 26 1064.11 388.222 1
4 4 -26 1141.15 263.496 2
26 4 5 -30.7067 76.6115 3
5 4 -26 -27.3874 79.0643 2
4 -5 -26 23.4529 89.1847 2
26 5 -4 -5.20594 105.311 3
-4 -5 26 -6.51542 245.39 1
-3 -5 26 177.214 67.7728 1
26 3 5 -3.33487 150.383 3
26 5 -3 -8.60602 120.512 3
3 -5 -26 76.613 118.502 2
5 3 -26 341.453 179.888 2
-2 -5 26 239.714 92.1652 1
5 2 -26 111.245 122.596 2
26 5 -2 208.562 141.099 3
2 -5 -26 68.9989 111.601 2
-2 5 -26 -14.4779 66.7473 2
26 -1 -5 391.257 207.989 3
5 1 -26 290.422 109.656 2
26 5 -1 355.302 200.654 3
-1 5 -26 190.274 102.372 2
1 -5 -26 266.884 170.121 2
26 0 -5 38.8642 76.8501 3
26 5 0 141.92 212.467 3
5 0 -26 216.7 92.9296 2
0 5 -26 199.772 72.3803 2
0 -5 26 288.985 221.784 1
5 -1 -26 338.351 181.638 2
26 5 1 38.7413 120.007 3
26 1 -5 317.305 206.171 3
1 -5 26 471.705 299.66 1
1 5 -26 547.758 221.99 2
2 -5 26 100.601 151.968 1
-5 -2 26 325.157 261.595 1
26 2 -5 -26.848 61.5045 3
26 5 2 67.7449 115.969 3
5 -2 -26 71.3375 134.777 2
2 5 -26 193.085 181.604 2
-5 -3 26 -146.762 236.955 1
3 -5 26 -119.35 169.944 1
3 5 -26 184.7 175.12 2
5 -3 -26 -51.8146 122.036 2
26 5 3 141.329 125.265 3
26 3 -5 34.4897 55.7764 3
26 5 4 70.5783 74.3638 3
4 5 -26 40.6855 71.6352 2
-5 -4 26 160.563 207.438 1
5 -4 -26 6.2815 73.0944 2
26 4 -5 -16.4935 66.4053 3
5 5 -26 206.037 112.233 2
26 5 5 347.284 117.087 3
26 5 -5 258.619 166.051 3
-5 -5 26 -31.7413 186.822 1
5 -5 -26 396.287 204.056 2
6 5 -26 356.498 139.115 2
26 5 6 115.064 85.6833 3
5 -6 -26 246.847 176.685 2
-5 -6 26 129.958 239.714 1
26 6 -5 3.66813 103.197 3
6 4 -26 100.434 80.8534 2
26 4 6 -6.17717 127.502 3
4 -6 -26 -59.2201 89.1812 2
-4 -6 26 -98.9307 98.3283 1
26 6 -4 -23.5597 147.854 3
6 3 -26 85.6853 81.9921 2
26 6 -3 103.199 102.001 3
3 -6 -26 14.7145 93.6127 2
-3 -6 26 -126.879 138.628 1
6 2 -26 760.798 217.548 2
2 -6 -26 1114.51 270.174 2
26 6 -2 851.762 304.475 3
-2 6 -26 1106.07 261.007 2
-2 -6 26 1064.66 368.615 1
2 -26 6 602.071 181.545 1
26 6 -1 1090.03 268.864 3
-1 -6 26 1431 423.055 1
26 -1 -6 860.812 281.551 3
6 1 -26 963.14 261.024 2
-1 6 -26 696.908 214.008 2
1 -6 -26 1235.38 307.335 2
1 -26 6 1254.64 415.138 1
26 0 -6 0.99522 90.2671 3
0 -6 26 106.748 160.493 1
6 0 -26 -107.51 89.4099 2
26 6 0 205.153 163.981 3
0 6 -26 -4.17336 48.322 2
26 6 1 508.975 219.416 3
26 1 -6 1044.72 328.046 3
1 -6 26 1090.54 372.924 1
1 6 -26 935.739 239.43 2
6 -1 -26 1142.51 283.247 2
26 2 -6 871.699 331.761 3
-6 -2 26 615.318 273.639 1
2 -6 26 1569.31 455.536 1
6 -2 -26 946.464 267.335 2
2 6 -26 1255.77 278.86 2
26 6 2 1472.45 317.896 3
6 -3 -26 52.3132 83.5386 2
26 6 3 57.6858 83.4985 3
3 6 -26 202.574 152.236 2
26 3 -6 17.702 104.636 3
-6 -3 26 295.357 148.795 1
3 -6 26 -81.6268 73.5488 1
4 -6 26 -165.904 160.452 1
6 -4 -26 -342.489 149.107 2
-6 -4 26 20.9059 182.025 1
4 6 -26 83.6654 48.5092 2
26 4 -6 -21.8059 99.9859 3
26 6 4 -289.189 126.234 3
26 5 -6 123.086 77.7522 3
5 6 -26 11.3707 77.0558 2
6 -5 -26 82.1478 131.979 2
26 6 5 235.508 135.962 3
-6 -5 26 131.214 121.916 1
6 6 -26 709.874 211.487 2
26 6 6 775.337 208.447 3
-6 -6 26 356.644 220.448 1
26 6 -6 929.96 317.694 3
6 -6 -26 745.067 210.935 2
7 6 -26 340.831 161.891 2
-6 -7 26 154.854 168.502 1
6 -7 -26 356.651 196.788 2
26 7 -6 86.6635 64.648 3
7 5 -26 217.46 180.118 2
-5 -7 26 328.882 212.629 1
5 -7 -26 345.411 204.001 2
26 7 -5 104.344 68.5402 3
7 4 -26 166.922 136.854 2
-4 -7 26 107.665 180.135 1
26 7 -4 146.503 157.239 3
4 -7 -26 269.853 143.402 2
7 3 -26 562.242 217.78 2
26 7 -3 281.797 181.747 3
-3 7 -26 367.031 136.899 2
-3 -7 26 149.104 158.674 1
2 -26 7 376.292 216.639 1
7 2 -26 370.397 199.648 2
26 7 -2 433.397 212.416 3
-2 -7 26 406.979 225.312 1
2 -7 -26 658.869 214.164 2
-2 7 -26 469.321 143.885 2
26 7 -1 73.8236 141.113 3
7 1 -26 100.224 156.231 2
26 -1 -7 137.878 93.5905 3
1 -7 -26 80.438 132.864 2
-1 -7 26 207.046 205.035 1
-1 7 -26 150.489 97.1734 2
1 -26 7 170.972 317.544 1
0 7 -26 27.9064 125.408 2
7 0 -26 25.2258 48.6257 2
26 0 -7 119.739 174.131 3
26 7 0 27.2706 108.068 3
0 -7 -26 52.0965 113.197 2
0 -26 7 6.00409 252.433 1
0 -7 26 246.256 179.231 1
1 -7 26 -46.3244 245.734 1
7 -1 -26 329.41 157.005 2
1 7 -26 108.155 99.8894 2
26 1 -7 36.3766 137.111 3
26 7 1 211.596 182.634 3
7 -2 -26 644.331 231.395 2
2 7 -26 318.731 153.953 2
26 7 2 422.994 197.365 3
26 2 -7 228.616 171.135 3
3 -7 26 751.525 322.651 1
26 7 3 351.979 159.413 3
7 -3 -26 722.483 256.707 2
3 7 -26 498.834 161.359 2
26 3 -7 434.857 226.501 3
-7 -4 26 -24.5171 204.167 1
4 7 -26 15.1184 116.786 2
7 -4 -26 59.7839 63.5697 2
26 7 4 16.4296 90.6289 3
26 4 -7 204.963 154.461 3
4 -7 26 172.754 176.584 1
5 7 -26 145.044 138.635 2
5 -7 26 -7.87654 222.351 1
7 -5 -26 83.7052 113.585 2
26 7 5 74.35 78.6798 3
26 5 -7 50.9939 134.94 3
-7 -5 26 -8.30953 146.991 1
6 7 -26 215.199 88.9743 2
7 -6 -26 238.743 108.719 2
-7 -6 26 180.353 228.259 1
26 7 6 40.7628 58.9746 3
26 6 -7 -4.47411 128.912 3
7 7 -26 1492.28 297.118 2
-7 -7 26 1880.24 525.319 1
7 -7 -26 1509.82 338.038 2
26 7 -7 1582.99 319.386 3
8 7 -26 50.2749 50.6348 2
7 -8 -26 168.773 140.016 2
26 8 -7 22.6275 105.345 3
-7 -8 26 168.081 73.9771 1
-6 -8 26 9.36978 59.4708 1
8 6 -26 140.421 104.852 2
6 -8 -26 199.114 166.995 2
26 8 -6 5.14846 67.5599 3
-5 -8 26 377.29 101.078 1
8 5 -26 547.108 182.741 2
5 -8 -26 570.409 212.343 2
26 8 -5 514.133 275.739 3
-4 -8 26 230.534 97.5887 1
8 4 -26 577.864 181.467 2
4 -8 -26 660.139 246.475 2
26 8 -4 176.573 207.629 3
-4 8 -26 667.493 190.628 2
8 3 -26 653.493 227.445 2
-3 -8 26 924.293 343.981 1
3 -8 -26 726.172 247.191 2
26 8 -3 541.163 241.742 3
-3 8 -26 894.455 199.672 2
2 -26 8 322.173 102.105 1
8 2 -26 -52.6995 93.8022 2
-2 -8 26 -41.0774 122.022 1
26 8 -2 4.75669 125.637 3
-2 8 -26 47.4824 48.9666 2
2 -8 -26 -110.876 82.607 2
1 -26 8 532.4 130.757 1
8 1 -26 528.002 209.862 2
26 -1 -8 339.715 153.353 3
-1 -8 26 560.897 337.41 1
-1 8 -26 223.958 81.3638 2
26 8 -1 535.847 221.707 3
1 -8 -26 581.325 235.753 2
8 0 -26 -4.83573 86.3516 2
0 8 -26 126.873 115.927 2
26 0 -8 368.516 168.297 3
0 -8 -26 232.161 116.476 2
26 8 0 35.25 96.9998 3
0 -8 26 145.081 178.284 1
0 -26 8 70.9007 201.217 1
8 -1 -26 482.522 212.11 2
1 8 -26 538.639 163.387 2
26 1 -8 445.87 217.154 3
26 8 1 245.988 216.642 3
1 -8 26 515.947 290.207 1
-1 -26 8 100.512 105.199 1
2 -8 26 51.4376 108.931 1
8 -2 -26 47.524 50.1287 2
2 8 -26 -40.2212 133.837 2
26 2 -8 103.58 130.742 3
26 8 2 222.432 153.973 3
-2 -26 8 152.355 116.833 1
8 -3 -26 352.404 196.077 2
3 8 -26 619.553 216.031 2
3 -8 26 837.99 376.388 1
26 3 -8 676.366 267.897 3
26 8 3 805.386 220.666 3
4 -8 26 677.285 316.943 1
4 8 -26 593.812 226.065 2
8 -4 -26 157.613 134.873 2
26 8 4 433.566 186.777 3
26 4 -8 715.294 203.958 3
26 8 5 547.56 198.261 3
5 8 -26 524.667 155.936 2
8 -5 -26 278.098 165.988 2
26 5 -8 314.262 138.081 3
-8 -6 26 33.5447 183.642 1
6 8 -26 14.6081 100.702 2
6 -8 26 -189.464 326.008 1
8 -6 -26 44.933 80.4299 2
26 8 6 13.4899 71.0308 3
26 6 -8 284.267 200.311 3
7 8 -26 78.6599 92.3726 2
8 -7 -26 72.8384 120.305 2
26 7 -8 205.96 116.473 3
8 -8 -26 234.015 141.706 2
26 8 -8 93.3082 114.707 3
-8 -8 26 239.873 228.349 1
8 -9 -26 1049.88 273.26 2
26 9 -8 521.401 220.631 3
-8 -9 26 810.362 351.044 1
7 -9 -26 -38.1988 116.091 2
26 9 -7 83.2814 174.049 3
-7 -9 26 148.207 172.037 1
9 6 -26 364.283 166.462 2
6 -9 -26 494.299 193.053 2
26 9 -6 305.811 164.642 3
-6 -9 26 32.5775 95.9312 1
9 5 -26 727.367 216.422 2
5 -9 -26 752.147 286.426 2
26 9 -5 905.995 244.095 3
-5 -9 26 666.313 344.771 1
9 4 -26 820.877 238.863 2
4 -9 -26 1262.09 308.361 2
26 9 -4 834.241 279.539 3
-4 -9 26 1272.1 426.322 1
-3 -9 26 275.521 237.111 1
9 3 -26 210.755 150.125 2
26 9 -3 14.6886 92.721 3
3 -9 -26 168.427 53.5944 2
9 2 -26 355.791 191.924 2
2 -26 9 236.145 88.0621 1
-2 -9 26 489.88 258.283 1
26 9 -2 183.75 100.172 3
2 -9 -26 332.987 211.126 2
1 -26 9 795.67 389.944 1
9 1 -26 877.002 247.256 2
-1 -9 26 1294.17 428.727 1
26 -1 -9 512.787 176.28 3
26 9 -1 595.546 234.743 3
1 -9 -26 707.315 204.774 2
0 -26 9 49.9947 202.491 1
9 0 -26 688.747 235.075 2
26 0 -9 895.878 291.39 3
0 -9 26 142.505 100.339 1
26 9 0 146.602 142.031 3
0 -9 -26 319.003 146.292 2
9 -1 -26 906.959 274.438 2
26 1 -9 1263.22 295.311 3
26 9 1 652.342 197.698 3
1 -9 26 1412.94 438.668 1
-1 -26 9 952.372 372.757 1
9 -2 -26 402.22 151.329 2
26 2 -9 656.49 246.529 3
26 9 2 381.341 166.466 3
2 -9 26 227.889 181.448 1
-2 -26 9 350.453 67.9915 1
3 -9 26 256.908 208.503 1
9 -3 -26 304.437 97.7811 2
26 3 -9 214.146 114.888 3
26 9 3 91.0202 74.4498 3
-3 -26 9 282.222 200.449 1
4 -9 26 574.311 257.036 1
4 9 -26 823.577 190.631 2
9 -4 -26 1093.83 285.762 2
26 9 4 1055 244.464 3
26 4 -9 1327.92 294.928 3
5 9 -26 1311.66 280.595 2
5 -9 26 1167.32 435.024 1
9 -5 -26 971.304 255.154 2
26 5 -9 1197.38 289.965 3
26 9 5 627.093 213.653 3
6 9 -26 75.5419 98.3968 2
9 -6 -26 509.025 222.259 2
26 6 -9 401.883 213.646 3
6 -9 26 366.037 178.134 1
26 9 6 263.091 161.506 3
9 -7 -26 209.674 117.689 2
26 7 -9 35.3381 133.2 3
9 -8 -26 830.574 252.227 2
26 8 -9 1437.19 354.27 3
9 -9 -26 646.221 236.09 2
26 9 -9 994.121 275.756 3
9 -10 -26 992.839 266.392 2
26 10 -9 758.135 291.793 3
8 -10 -26 529.01 220.89 2
26 10 -8 500.584 226.678 3
7 -10 -26 1528.18 313.726 2
26 10 -7 1726.65 388.794 3
-7 -10 26 1097.04 360.469 1
6 -10 -26 351.056 197.277 2
26 10 -6 360.038 169.551 3
-6 -10 26 382.855 86.5928 1
5 -10 -26 208.243 108.14 2
26 10 -5 210.64 61.129 3
-5 -10 26 407.261 299.519 1
10 4 -26 20.9361 118.582 2
4 -10 -26 35.2782 87.1724 2
26 10 -4 -38.8797 135.961 3
-4 -10 26 -65.1448 150.647 1
10 3 -26 485.746 206.125 2
26 10 -3 1109.95 263.389 3
3 -10 -26 861.061 320.135 2
-3 -10 26 605.44 135.829 1
-2 -10 26 -58.0131 203.819 1
10 2 -26 101.7 80.0839 2
2 -26 10 80.0389 175.672 1
2 -10 -26 -8.84329 106.407 2
26 10 -2 15.7214 181.693 3
10 1 -26 223.884 143.054 2
-1 -10 26 -81.6491 240.04 1
26 -1 -10 121.081 137.935 3
1 -26 10 -221.175 183.272 1
1 -10 -26 -16.0802 154.098 2
26 10 -1 13.7641 99.6015 3
0 -26 10 315.207 262.62 1
10 0 -26 41.391 59.3939 2
26 0 -10 220.771 81.4528 3
0 -10 26 -56.6739 229.472 1
26 10 0 195.419 86.4589 3
0 -10 -26 97.327 55.608 2
-1 -26 10 241.686 135.933 1
10 -1 -26 303.9 169.309 2
26 10 1 197.724 88.5681 3
26 1 -10 108.403 75.1632 3
10 -2 -26 13.2111 50.6927 2
26 2 -10 -28.4914 119.043 3
26 10 2 130.253 119.689 3
2 -10 26 -175.654 140.701 1
10 -3 -26 770.206 273.053 2
26 10 3 722.659 234.331 3
26 3 -10 805.111 259.523 3
-3 -26 10 627.389 234.144 1
3 -10 26 843.631 353.906 1
10 -4 -26 -44.3045 142.302 2
4 -10 26 -723.443 318.072 1
26 4 -10 337.414 149.883 3
26 10 4 -11.7218 81.3801 3
-4 -26 10 -388.943 317.703 1
10 -5 -26 -8.414 132.249 2
26 10 5 229.652 149.435 3
26 5 -10 239.031 113.213 3
5 -10 26 252.123 133.027 1
-5 -26 10 205.377 256.22 1
10 -6 -26 184.305 163.415 2
6 -10 26 523.379 301.141 1
26 10 6 182.638 119.785 3
26 6 -10 787.366 255.475 3
10 -7 -26 1547.27 340.629 2
26 7 -10 1980.58 356.775 3
10 -8 -26 778.932 221.399 2
26 8 -10 1607.52 340.767 3
10 -9 -26 1109.32 314.329 2
26 9 -10 1366.03 290.363 3
10 -10 -26 1524.63 350.733 2
26 10 -10 1454.67 324.18 3
10 -11 -26 535.564 219.539 2
26 11 -10 830.923 234.71 3
9 -11 -26 -12.6312 69.7661 2
26 11 -9 -34.0017 137.137 3
8 -11 -26 3133.29 462.225 2
26 11 -8 3270.39 495.837 3
7 -11 -26 1986.21 377.92 2
26 11 -7 1786.21 411.172 3
6 -11 -26 753.026 254.279 2
26 11 -6 354.058 245.044 3
5 -11 -26 93.7576 90.6478 2
26 11 -5 6.17085 76.4949 3
4 -11 -26 56.0764 105.12 2
26 11 -4 86.1932 114.969 3
-4 -11 26 -99.7197 157.328 1
26 11 -3 1067.68 280.38 3
3 -11 -26 957.888 291.878 2
-3 -11 26 1230.27 346.668 1
11 2 -26 1012.57 251.241 2
2 -26 11 1007.06 341.927 1
26 11 -2 928.699 328.794 3
2 -11 -26 1387.83 304.269 2
-2 -11 26 1462.14 445.793 1
-1 -11 26 700.41 310.18 1
11 1 -26 474.082 210.95 2
1 -26 11 357.781 225.616 1
1 -11 -26 572.675 211.953 2
26 11 -1 425.878 172.522 3
11 0 -26 173.274 120.031 2
0 -11 26 -12.1733 191.9 1
0 -26 11 -55.9907 170.134 1
26 0 -11 20.4396 134.407 3
26 11 0 25.3762 65.6827 3
0 -11 -26 159.76 144.837 2
11 -1 -26 432.442 210.769 2
-1 -26 11 366.283 285.425 1
1 -11 26 504.23 190.523 1
26 1 -11 944.529 291.875 3
-1 -11 -26 484.472 227.885 2
26 11 1 263.087 197.607 3
-2 -26 11 1539.92 482.664 1
11 -2 -26 1164.38 338.361 2
2 -11 26 1607.93 455.389 1
26 2 -11 2188.59 429.501 3
26 11 2 769.051 276.086 3
11 -3 -26 855.946 240.965 2
26 3 -11 1248.58 259.851 3
26 11 3 913.797 204.24 3
3 -11 26 925.166 346.26 1
-3 -26 11 985.814 364.602 1
4 -11 26 75.2283 186.368 1
11 -4 -26 -50.3403 49.7939 2
26 4 -11 -50.9579 83.8142 3
26 11 4 93.5601 127.386 3
-4 -26 11 305.761 116.476 1
11 -5 -26 -75.4035 125.623 2
26 5 -11 185.318 180.303 3
26 11 5 -43.431 64.2942 3
11 -6 -26 725.033 275.095 2
26 11 6 443.398 190.352 3
26 6 -11 1144.02 253.171 3
11 -7 -26 1779.82 409.961 2
26 7 -11 2900.29 445.614 3
11 -8 -26 3024 465.95 2
26 8 -11 3844.55 525.641 3
11 -9 -26 263.425 185.751 2
26 9 -11 210.429 224.76 3
11 -10 -26 589.941 191.478 2
26 10 -11 1186.94 310.99 3
26 11 -11 -108.047 159.617 3
26 12 -11 2949.78 449.479 3
10 -12 -26 27.7682 75.6403 2
26 12 -10 241.969 144.972 3
9 -12 -26 934.044 253.823 2
26 12 -9 655.071 257.915 3
8 -12 -26 1282.01 304.031 2
26 12 -8 1182.19 310.204 3
7 -12 -26 163.901 61.434 2
26 12 -7 105.862 120.477 3
6 -12 -26 315.297 190.874 2
26 12 -6 42.896 131.483 3
5 -12 -26 187.904 92.8047 2
26 12 -5 55.6662 125.774 3
4 -12 -26 86.2203 107.524 2
26 12 -4 16.2051 83.5763 3
3 -12 -26 -21.7684 104.822 2
26 12 -3 4.30083 119.795 3
2 -26 12 139.833 178.056 1
2 -12 -26 77.8456 116.956 2
26 12 -2 18.1075 89.4229 3
1 -26 12 -140.739 326.362 1
26 12 -1 32.4779 143.069 3
1 -12 -26 114.304 154.086 2
0 -26 12 559.146 397.393 1
26 0 -12 597.873 208.479 3
26 12 0 357.221 256.589 3
0 -12 -26 508.587 249.286 2
-1 -26 12 12.5272 112.14 1
26 1 -12 -253.338 143.099 3
26 12 1 -15.4637 80.106 3
-1 -12 -26 -48.5872 150.598 2
26 2 -12 -0.34826 115.292 3
26 12 2 63.5399 136.567 3
12 -3 -26 56.9249 90.0082 2
26 3 -12 410.784 234.203 3
26 12 3 181.022 124.911 3
12 -4 -26 271.692 191.289 2
26 12 4 165.922 151.796 3
26 4 -12 327.174 144.044 3
26 5 -12 672.506 213.153 3
12 -5 -26 253.833 182.539 2
26 12 5 308.592 166.303 3
26 12 6 -58.9572 129.367 3
26 6 -12 110.74 135.454 3
26 7 -12 351.398 211.755 3
26 8 -12 1532.05 326.564 3
26 9 -12 1125.27 266.931 3
26 10 -12 19.2284 72.355 3
26 11 -12 2458.2 415.166 3
26 12 -12 2782.64 434.586 3
26 13 -12 621.887 199.628 3
26 13 -11 176.819 121.232 3
10 -13 -26 3944.3 483.587 2
26 13 -10 4571.54 573.063 3
9 -13 -26 388.296 140.926 2
26 13 -9 549.309 232.565 3
8 -13 -26 48.1157 68.2086 2
26 13 -8 23.087 103.408 3
7 -13 -26 98.1772 66.8666 2
26 13 -7 5.99355 93.4661 3
6 -13 -26 1355.82 301.484 2
26 13 -6 484.392 261.95 3
5 -13 -26 734.883 245.721 2
26 13 -5 248.937 225.321 3
4 -13 -26 391.343 191.925 2
26 13 -4 418.088 187.02 3
26 13 -3 49.6917 70.0708 3
3 -13 -26 216.216 192.465 2
2 -13 -26 51.6366 79.4643 2
26 13 -2 20.0763 129.382 3
1 -13 -26 524.101 232.369 2
26 13 -1 79.5508 52.8282 3
0 -13 -26 740.642 256.362 2
26 13 0 699.581 218.628 3
26 0 -13 943.116 273.748 3
26 1 -13 92.1402 121.6 3
26 13 1 44.9285 66.7215 3
-1 -13 -26 198.263 114.218 2
26 13 2 56.0658 96.6102 3
-2 -13 -26 105.755 54.8671 2
26 3 -13 497.845 221.856 3
26 13 3 381.148 174.395 3
26 4 -13 491.743 196.918 3
26 13 4 462.092 207.734 3
26 5 -13 273.906 194.347 3
26 13 5 319.073 158.93 3
26 6 -13 1594.89 350.794 3
26 7 -13 25.7133 136.494 3
26 8 -13 135.802 85.2038 3
26 9 -13 935.454 247.376 3
26 10 -13 4673.73 556.878 3
26 11 -13 251.847 171.18 3
26 12 -13 260.66 124.805 3
26 13 -13 -38.9957 74.4643 3
26 14 -13 1052.32 252.645 3
26 14 -12 138.008 148.305 3
26 14 -11 726.379 253.609 3
26 14 -10 1546.74 316.76 3
9 -14 -26 108.503 103.566 2
26 14 -9 -26.9264 82.3961 3
8 -14 -26 191.332 100.145 2
26 14 -8 46.3077 94.9748 3
7 -14 -26 76.0552 121.465 2
26 14 -7 96.9532 69.1984 3
6 -14 -26 735.881 232.249 2
26 14 -6 630.204 262.66 3
5 -14 -26 302.517 144.506 2
26 14 -5 -122.511 108.911 3
4 -14 -26 313.501 157.008 2
26 14 -4 142.093 121.736 3
3 -14 -26 223.421 99.3739 2
26 14 -3 144.951 190.523 3
2 -14 -26 859.729 221.489 2
26 14 -2 575.876 276.552 3
1 -14 -26 240.98 138.829 2
26 14 -1 51.4 165.139 3
0 -14 -26 488.348 169.141 2
26 14 0 201.966 127.016 3
26 1 -14 357.023 172.694 3
-1 -14 -26 513.926 186.979 2
26 14 1 206.409 164.873 3
26 2 -14 720.473 220.413 3
26 14 2 707.659 258.173 3
-2 -14 -26 743.716 242.962 2
26 3 -14 116.912 115.03 3
26 14 3 163.492 52.8461 3
-3 -14 -26 316.193 117.384 2
26 4 -14 285.37 160.734 3
26 14 4 93.2219 110.764 3
26 5 -14 -122.196 136.11 3
26 14 5 38.2658 136.989 3
26 6 -14 901.918 235.374 3
26 7 -14 262.763 198.502 3
26 8 -14 180.447 170.148 3
26 9 -14 -21.182 99.4147 3
26 10 -14 1536.14 313.434 3
26 11 -14 410.294 143.077 3
26 12 -14 141.658 77.8838 3
26 13 -14 1059.04 248.61 3
26 14 -14 593.566 163.865 3
26 15 -14 -77.832 110.236 3
26 15 -13 770.146 251.965 3
26 15 -12 2827.09 446.063 3
26 15 -11 255.377 123.558 3
26 15 -10 -104.174 135.033 3
26 15 -9 101.059 124.733 3
8 -15 -26 1603.99 302.479 2
26 15 -8 1618.77 375.175 3
7 -15 -26 -119.363 133.022 2
26 15 -7 -22.3264 123.878 3
6 -15 -26 615.05 203.783 2
26 15 -6 328.116 237.561 3
5 -15 -26 -61.7457 86.993 2
26 15 -5 -4.78009 101.066 3
4 -15 -26 203.139 58.2259 2
26 15 -4 16.129 70.8316 3
3 -15 -26 -94.9026 106.989 2
26 15 -3 27.3576 143.005 3
2 -15 -26 -21.1799 51.0066 2
26 15 -2 107.958 62.3663 3
1 -15 -26 -89.7462 130.72 2
26 15 -1 96.4264 171.089 3
0 -15 -26 1451.16 300.654 2
26 15 0 1205.84 311.331 3
26 1 -15 -268.733 202.432 3
26 15 1 -18.9083 114.154 3
-1 -15 -26 141.672 156.639 2
-2 -15 -26 137.31 160.848 2
26 2 -15 15.1552 68.7199 3
26 15 2 -59.5771 164.564 3
26 15 3 -34.779 82.6728 3
-3 -15 -26 47.4249 116.882 2
26 15 4 45.5467 52.6259 3
26 4 -15 298.039 148.11 3
-4 -15 -26 -25.6373 164.017 2
26 5 -15 211.455 212.391 3
26 15 5 -30.8759 115.41 3
26 6 -15 426.024 170.68 3
26 7 -15 -155.043 103.76 3
26 8 -15 2210.99 390.221 3
26 9 -15 -247.546 197.275 3
26 10 -15 -145.651 185.382 3
26 11 -15 123.11 171.101 3
26 12 -15 2749.75 421.341 3
26 13 -15 566.097 168.766 3
26 14 -15 129.289 124.851 3
26 15 -15 706.557 235.872 3
26 16 -15 -90.864 134.966 3
26 16 -14 -102.312 92.44 3
26 16 -13 845.12 222.58 3
26 16 -12 119.565 130.4 3
26 16 -11 212.815 137.628 3
26 16 -10 19.9632 104.249 3
26 16 -9 74.7587 156.349 3
8 -16 -26 123.407 135.326 2
26 16 -8 88.6675 130.499 3
7 -16 -26 495.211 164.233 2
26 16 -7 186.683 179.257 3
6 -16 -26 1102.02 255.14 2
26 16 -6 789.882 290.351 3
5 -16 -26 114.041 87.7973 2
26 16 -5 34.5181 120.459 3
4 -16 -26 189.919 182.998 2
26 16 -4 387.588 184.916 3
3 -16 -26 360.546 158.032 2
26 16 -3 317.58 190.418 3
2 -16 -26 700.169 205.893 2
26 16 -2 307.702 187.531 3
1 -16 -26 1861.18 343.268 2
26 16 -1 1688.5 357.859 3
0 -16 -26 836.403 235.674 2
26 16 0 251.848 200.683 3
-1 -16 -26 1873.72 328.63 2
26 16 1 571.367 308.591 3
26 2 -16 451.951 146.814 3
-2 -16 -26 514.924 183.611 2
26 16 2 102.74 157.353 3
26 16 3 73.4013 140.56 3
26 3 -16 260.57 80.3081 3
-3 -16 -26 252.517 195.275 2
26 16 4 5.94329 52.7304 3
26 4 -16 212.686 140.907 3
26 5 -16 613.479 264.351 3
26 16 5 41.4357 70.6527 3
26 6 -16 1302.8 316.812 3
26 7 -16 565.06 202.755 3
26 8 -16 19.1927 114.756 3
26 9 -16 -218.159 113.183 3
26 10 -16 120.81 126.569 3
26 11 -16 -33.0841 64.0192 3
26 12 -16 6.08567 76.3816 3
26 13 -16 615.119 187.38 3
26 14 -16 122.885 95.5103 3
26 15 -16 123.138 101.132 3
16 26 -16 106.604 92.5792 3
26 16 -16 240.06 152.628 3
26 17 -16 109.271 103.762 3
16 26 -17 -57.0815 142.254 3
26 17 -15 845.082 187.989 3
26 17 -14 433.832 185.66 3
26 17 -13 409.934 158.864 3
26 17 -12 21.2373 73.4935 3
26 17 -11 451.478 174.314 3
26 17 -10 1407.73 353.693 3
26 17 -9 585.76 258.892 3
26 17 -8 83.4402 130.565 3
7 -17 -26 93.56 85.3253 2
26 17 -7 -82.91 172.782 3
6 -17 -26 47.6414 70.7357 2
26 17 -6 131.645 108.329 3
5 -17 -26 374.535 169.386 2
26 17 -5 -10.6866 58.4544 3
4 -17 -26 336.664 161.283 2
26 17 -4 146.455 148.521 3
3 -17 -26 334.216 170.781 2
26 17 -3 10.986 63.7673 3
2 -17 -26 2196.74 365.233 2
26 17 -2 1890.45 378.489 3
1 -17 -26 417.826 170.835 2
26 17 -1 62.527 146.824 3
0 -17 -26 47.3741 81.632 2
26 17 0 85.8072 122.647 3
-1 -17 -26 392.104 204.94 2
26 17 1 24.2797 78.7526 3
-2 -17 -26 2914.96 410.769 2
26 17 2 1162.34 286.504 3
26 3 -17 421.979 196.974 3
-3 -17 -26 332.284 165.813 2
26 17 3 77.5854 126.076 3
26 4 -17 401.91 187.438 3
26 17 4 104.632 133.168 3
-4 -17 -26 155.051 82.9482 2
26 5 -17 -19.2262 61.0547 3
26 17 5 28.1034 51.5985 3
-5 -17 -26 166.045 64.6502 2
26 6 -17 318.852 142.2 3
-6 -17 -26 39.8372 111.139 2
26 7 -17 316.457 156.219 3
26 8 -17 728.936 235.682 3
26 9 -17 791.982 223.233 3
26 10 -17 1579.56 347.35 3
26 11 -17 854.789 236.253 3
26 12 -17 55.7337 101.697 3
26 13 -17 609.122 224.003 3
26 14 -17 492.332 180.477 3
26 15 -17 1041.12 245.558 3
17 26 -15 923.692 230.404 3
26 16 -17 131.607 102.21 3
17 26 -16 -3.81472 65.1968 3
26 17 -17 -51.17 137.528 3
17 26 -17 -142.825 71.8938 3
26 18 -17 131.825 103.966 3
17 26 -18 198.228 113.149 3
26 18 -16 538.316 166.668 3
16 26 -18 471.483 159.546 3
26 18 -15 343.234 153.081 3
15 26 -18 181.951 45.1313 3
26 18 -14 356.205 160.033 3
26 18 -13 253.294 108.301 3
26 18 -12 70.9925 69.7855 3
26 18 -11 232.776 158.537 3
26 18 -10 220.866 214.758 3
26 18 -9 937.234 342.938 3
26 18 -8 442.062 197.082 3
26 18 -7 577.525 238.02 3
6 -18 -26 -15.5872 133.201 2
26 18 -6 -13.9056 90.5132 3
26 18 -5 147.222 96.8239 3
18 26 5 104.323 151.208 3
18 26 4 446.129 210.151 3
4 -18 -26 517.176 156.658 2
26 18 -4 574.634 246.71 3
3 -18 -26 1070.68 271.008 2
26 18 -3 801.384 280.604 3
2 -18 -26 181.9 155.674 2
26 18 -2 71.7817 93.508 3
1 -18 -26 712.454 187.549 2
26 18 -1 570.483 212.631 3
0 -18 -26 -67.0585 68.3094 2
26 18 0 57.587 118.347 3
-1 -18 -26 850.383 226 2
26 18 1 237.257 217.966 3
26 18 2 17.4608 89.3045 3
-2 -18 -26 189.396 128.495 2
-3 -18 -26 623.348 178.907 2
26 18 3 463 204.739 3
26 4 -18 785.105 210.107 3
26 18 4 339.794 209.022 3
-4 -18 -26 493.158 174.73 2
26 5 -18 440.261 174.099 3
26 18 5 148.506 103.035 3
-5 -18 -26 374.579 158.242 2
26 6 -18 201.401 155.129 3
-6 -18 -26 -58.6478 81.2366 2
26 7 -18 826.041 239.916 3
-7 -18 -26 570.519 188.188 2
26 8 -18 677.837 254.208 3
26 9 -18 958.183 263.835 3
26 10 -18 377.176 160.063 3
26 11 -18 203.717 124.375 3
18 26 -12 45.1244 119.973 3
26 12 -18 -119.076 116.118 3
26 13 -18 247.226 161.329 3
18 26 -13 311.283 110.477 3
26 14 -18 231.121 130.642 3
18 26 -14 81.8298 92.6712 3
26 15 -18 427.504 170.897 3
18 26 -15 304.703 149.957 3
26 16 -18 452.738 154.228 3
18 26 -16 578.092 172.65 3
26 17 -18 -34.2746 86.8394 3
18 26 -17 -9.77506 70.7243 3
26 18 -18 2.57688 128.932 3
18 26 -18 31.3581 113.668 3
26 19 -18 -1.10381 99.5848 3
18 26 -19 -2.87462 42.1173 3
26 19 -17 54.4018 82.8149 3
17 26 -19 0.21636 92.2975 3
26 19 -16 -292.882 140.122 3
16 26 -19 102.633 74.113 3
26 19 -15 520.72 172.841 3
15 26 -19 -68.8301 116.006 3
26 19 -14 -53.8473 82.9767 3
14 26 -19 -110.162 98.7969 3
26 19 -13 781.924 216.398 3
26 19 -12 180.544 190.595 3
26 19 -11 280.638 170.612 3
26 19 -10 124.794 143.112 3
26 19 -9 143.295 178.906 3
26 19 -8 95.5573 146.885 3
26 19 -7 748.522 271.488 3
26 19 -6 264.102 198.26 3
5 -19 -26 38.1036 180.267 2
26 19 -5 483.635 245.225 3
19 26 5 234.041 219.282 3
4 -19 -26 3.08016 131.051 2
26 19 -4 132.997 191.899 3
19 26 4 108.763 147.14 3
3 -19 -26 -1.29494 101.257 2
26 19 -3 -69.5389 134.933 3
19 26 3 -2.32989 91.9287 3
2 -19 -26 134.144 201.79 2
26 19 -2 266.697 173.576 3
19 26 2 149.267 167.353 3
19 26 1 36.9043 65.3879 3
1 -19 -26 -7.87964 84.0464 2
26 19 -1 -6.8067 137.318 3
0 -19 -26 15.048 165.343 2
26 19 0 272.647 198.362 3
-1 -19 -26 -22.7895 142.635 2
26 19 1 61.207 135.34 3
-2 -19 -26 587.785 163.166 2
26 19 2 90.6595 143.117 3
-3 -19 -26 185.523 87.8928 2
26 19 3 54.5782 100.454 3
-4 -19 -26 285.419 117.144 2
26 19 4 204.01 171.076 3
26 5 -19 831.419 227.013 3
-5 -19 -26 749.346 184.093 2
26 19 5 369.575 211.587 3
26 6 -19 536.604 210.154 3
-6 -19 -26 92.1533 219.802 2
26 7 -19 803.922 217.511 3
-7 -19 -26 780.095 162.727 2
26 8 -19 124.522 94.7264 3
-8 -19 -26 148.311 139.068 2
19 26 -9 60.0025 79.0085 3
26 9 -19 26.1546 51.633 3
-9 -19 -26 36.4384 98.2665 2
19 26 -10 149.769 130.532 3
26 10 -19 702.758 208.794 3
26 11 -19 341.763 134.027 3
19 26 -11 247.916 198.28 3
26 12 -19 187.372 120.023 3
19 26 -12 201.17 162.7 3
26 13 -19 870.931 225.726 3
19 26 -13 539.531 214.183 3
26 14 -19 34.6146 119.402 3
19 26 -14 20.0409 95.1694 3
26 15 -19 -81.42 49.6888 3
19 26 -15 106.145 94.3823 3
26 16 -19 137.908 151.858 3
19 26 -16 115.838 108.004 3
26 17 -19 0.22607 66.7372 3
19 26 -17 92.1491 97.1278 3
26 18 -19 0.21362 83.6801 3
19 26 -18 0.21351 53.3405 3
26 19 -19 4.00131 144.497 3
19 26 -19 4.82651 102.861 3
26 20 -19 6.30496 93.7982 3
19 26 -20 16.3974 112.284 3
26 20 -18 692.629 166.161 3
18 26 -20 27.1083 132.87 3
26 20 -17 -27.4606 56.4802 3
17 26 -20 10.1079 37.483 3
26 20 -16 555.246 177.511 3
16 26 -20 625.857 157.122 3
26 20 -15 6.43908 72.4525 3
15 26 -20 -16.2332 60.3964 3
26 20 -14 659.627 199.696 3
14 26 -20 236.88 148.728 3
26 20 -13 271.921 177.093 3
13 26 -20 170.992 134.921 3
26 20 -12 1001.22 245.981 3
26 20 -11 1438.33 317.946 3
26 20 -10 91.5778 122.331 3
26 20 -9 218.88 144.141 3
26 20 -8 385.804 183.375 3
26 20 -7 1494.84 350.594 3
26 20 -6 343.449 204.005 3
26 20 -5 410.376 195.209 3
26 20 -4 122.643 175.796 3
20 26 4 96.5335 61.7948 3
26 20 -3 83.799 79.2963 3
20 26 3 8.94426 72.7217 3
26 20 -2 84.6571 115.814 3
20 26 2 119.927 138.435 3
26 20 -1 779.098 271.716 3
20 26 1 306.815 207.284 3
26 20 0 0.83532 79.2983 3
20 26 0 36.0377 142.937 3
26 20 1 387.561 240.979 3
20 26 -1 822.414 245.412 3
26 20 2 -16.9764 108.831 3
20 26 -2 250.806 165.958 3
-3 -20 -26 6.14596 68.7549 2
26 20 3 140.161 167.865 3
20 26 -3 93.939 152.402 3
-4 -20 -26 14.9691 65.6059 2
26 20 4 -25.2335 86.5246 3
20 26 -4 80.8835 124.945 3
-5 -20 -26 107.036 171.751 2
20 26 -5 308.473 186.64 3
26 6 -20 353.181 156.057 3
-6 -20 -26 86.4102 184.966 2
20 26 -6 120.541 119.584 3
26 7 -20 1565.28 279.391 3
20 26 -7 1825.27 376.328 3
-8 -20 -26 58.8515 158.357 2
26 8 -20 306.664 136.633 3
20 26 -8 367.779 172.534 3
-9 -20 -26 -34.7682 99.4537 2
26 9 -20 280.552 125.901 3
20 26 -9 -78.4704 144.348 3
26 10 -20 242.114 145.19 3
-10 -20 -26 -1.82859 110.87 2
20 26 -10 132.303 147.532 3
26 11 -20 1378.56 278.264 3
20 26 -11 1177.05 265.099 3
26 12 -20 1324.25 246.96 3
20 26 -12 1250.96 294.471 3
26 13 -20 85.832 51.2096 3
20 26 -13 387.664 184.877 3
26 14 -20 623.352 155.653 3
20 26 -14 1202.82 284.581 3
26 15 -20 22.9779 52.8642 3
20 26 -15 -9.05101 72.0424 3
26 16 -20 252.822 184.498 3
20 26 -16 491.151 162.073 3
26 17 -20 6.10726 108.354 3
20 26 -17 42.4959 83.193 3
26 18 -20 10.1267 111.935 3
20 26 -18 54.6422 123.334 3
26 19 -20 -1.95237 108.8 3
20 26 -19 2.69468 98.2791 3
26 20 -20 5.86271 89.0596 3
20 26 -20 -5.97794 84.0396 3
26 21 -19 125.474 147.323 3
19 26 -21 72.9661 126.695 3
26 21 -18 4.19017 80.7623 3
18 26 -21 13.0412 67.3944 3
26 21 -17 72.8704 97.4812 3
17 26 -21 20.787 36.2356 3
26 21 -16 36.2576 82.7983 3
16 26 -21 -42.4404 86.3519 3
26 21 -15 325.076 150.16 3
15 26 -21 -1.32741 55.948 3
26 21 -14 227.321 145.899 3
14 26 -21 4.55013 62.7544 3
26 21 -13 -18.4677 73.157 3
13 26 -21 -1.23085 88.4303 3
26 21 -12 205.538 140.698 3
12 26 -21 16.2759 63.5595 3
26 21 -11 351.816 230.752 3
26 21 -10 16.379 54.5831 3
26 21 -9 1136.85 294.809 3
26 21 -8 212.732 166.38 3
26 21 -7 471.771 234.027 3
26 21 -6 62.2752 109.505 3
26 21 -5 313.82 218.342 3
26 21 -4 432.493 250.976 3
21 26 4 636.22 232.726 3
26 21 -3 699.637 232.152 3
21 26 3 178.443 153.778 3
26 21 -2 275.223 163.015 3
21 26 2 40.5725 118.796 3
26 21 -1 148.383 139.982 3
21 26 1 88.1785 134.321 3
26 21 0 292.988 229.875 3
21 26 0 384.068 221.168 3
26 21 1 103.215 169.846 3
21 26 -1 175.38 153.182 3
26 21 2 70.8328 104.928 3
21 26 -2 -6.85174 54.4676 3
26 21 3 602.086 209.866 3
21 26 -3 527.922 223.231 3
26 21 4 257.781 183.595 3
21 26 -4 602.336 235.057 3
21 26 -5 390.265 198.808 3
21 26 -6 131.394 152.046 3
26 7 -21 636.16 188.174 3
21 26 -7 281.716 199.247 3
26 8 -21 241.667 118.552 3
21 26 -8 223.127 196.706 3
26 9 -21 1006.67 241.664 3
21 26 -9 816.018 254.2 3
26 10 -21 -72.9217 86.9538 3
21 26 -10 108.447 123.831 3
26 11 -21 489.279 149.786 3
21 26 -11 383.809 194.122 3
26 12 -21 15.7895 175.844 3
21 26 -12 195.719 170.569 3
26 13 -21 10.0471 146.579 3
21 26 -13 70.4953 110.681 3
26 14 -21 70.4192 105.972 3
21 26 -14 66.0051 103.193 3
26 15 -21 14.8665 138.37 3
21 26 -15 262.805 123.418 3
26 16 -21 0.5715 67.2444 3
21 26 -16 32.5885 47.8365 3
26 17 -21 -14.5005 46.8112 3
21 26 -17 33.9427 91.8587 3
26 18 -21 -14.9808 74.192 3
21 26 -18 28.0334 60.6617 3
21 26 -19 119.384 176.611 3
26 19 -21 -0.4584 106.135 3
26 22 -18 34.9299 92.8869 3
18 26 -22 -2.25194 55.4305 3
26 22 -17 37.1807 65.2755 3
17 26 -22 21.3302 48.1715 3
26 22 -16 733.865 189.19 3
16 26 -22 1404.73 201.172 3
26 22 -15 -35.1534 85.3252 3
15 26 -22 21.9614 33.3184 3
26 22 -14 662.053 203.611 3
14 26 -22 1271.01 202.335 3
26 22 -13 90.1955 125 3
13 26 -22 2.32934 136.731 3
26 22 -12 468.276 248.408 3
12 26 -22 151.563 172.161 3
26 22 -11 82.6823 57.4911 3
11 26 -22 15.2762 89.3987 3
26 22 -10 313.04 164.84 3
10 26 -22 67.5851 123.956 3
26 22 -9 1158.79 332.618 3
26 22 -8 164.965 136.65 3
26 22 -7 -503.468 169.822 3
26 22 -6 -37.6014 140.939 3
26 22 -5 153.569 175.893 3
26 22 -4 56.7491 97.4484 3
22 26 4 -10.4836 106.597 3
26 22 -3 299.981 133.599 3
22 26 3 85.9098 97.5601 3
26 22 -2 7.06626 87.9076 3
22 26 2 5.19505 63.4284 3
26 22 -1 206.557 136.222 3
22 26 1 91.1953 143.183 3
26 22 0 40.1637 80.9737 3
22 26 0 -3.59492 136.447 3
26 22 1 19.176 46.954 3
22 26 -1 179.166 144.733 3
26 22 2 31.6762 96.7077 3
22 26 -2 1.90441 79.1074 3
26 22 3 79.5149 124.783 3
22 26 -3 153.65 105.055 3
26 22 4 -0.62399 82.0381 3
22 26 -4 14.3833 54.8535 3
22 26 -5 251.69 178.167 3
22 26 -6 -57.46 102.208 3
22 26 -7 176.972 129.137 3
22 26 -8 72.2157 99.2806 3
26 9 -22 1570.69 251.627 3
22 26 -9 1234.11 308.084 3
26 10 -22 90.8426 109.983 3
22 26 -10 483.089 172.534 3
26 11 -22 1.02752 110.243 3
22 26 -11 156.544 138.786 3
26 12 -22 207.007 157.634 3
22 26 -12 299.47 205.812 3
26 13 -22 13.6277 116.3 3
22 26 -13 25.5345 52.3352 3
26 14 -22 335.966 175.767 3
22 26 -14 890.896 227.656 3
26 15 -22 -1.56751 58.8143 3
22 26 -15 14.4041 76.9531 3
26 16 -22 271.028 175.192 3
22 26 -16 825.966 226.366 3
22 26 -17 -3.02193 99.0616 3
26 17 -22 -12.6206 67.4345 3
26 18 -22 -5.85061 60.2588 3
22 26 -18 4.42183 77.5468 3
26 23 -17 65.6052 89.1869 3
26 23 -16 142.526 108.727 3
26 23 -15 69.9428 90.7603 3
26 23 -14 111.814 98.176 3
26 23 -13 123.32 112.704 3
26 23 -12 285.353 190.128 3
26 23 -11 178.565 123.4 3
26 23 -10 358.84 274.391 3
26 23 -9 -4.24659 112.464 3
26 23 -8 -32.5587 130.003 3
26 23 -7 101.924 108.834 3
26 23 -6 301.288 198.32 3
26 23 -5 381.239 176.512 3
26 23 -4 166.859 143.392 3
26 23 -3 61.3058 111.149 3
23 26 3 85.3952 129.326 3
26 23 -2 235.789 186.963 3
23 26 2 484.125 213.45 3
26 23 -1 50.0531 75.006 3
23 26 1 -21.4054 44.4091 3
26 23 0 34.3247 43.9707 3
23 26 0 51.6475 116.912 3
26 23 1 -1.3909 102.815 3
23 26 -1 28.8306 52.0841 3
26 23 2 296.708 172.499 3
23 26 -2 355.28 226.736 3
26 23 3 17.2601 88.7095 3
23 26 -3 57.0676 80.2151 3
23 26 -4 -40.3164 90.7027 3
23 26 -5 227.721 168.721 3
23 26 -6 42.7284 92.889 3
23 26 -7 320.223 150.024 3
23 26 -8 61.8221 112.597 3
23 26 -9 39.5505 49.987 3
23 26 -10 180.459 117.585 3
23 26 -11 214.46 133.818 3
23 26 -12 159.568 113.622 3
23 26 -13 254.189 152.198 3
23 26 -14 -52.7197 95.6438 3
23 26 -15 155.872 92.5443 3
23 26 -16 27.638 71.421 3
23 26 -17 7.06098 131.553 3
26 24 -15 80.4326 101.367 3
26 24 -14 470.856 211.414 3
26 24 -13 64.8603 97.1535 3
26 24 -12 491.783 210.276 3
26 24 -11 43.353 106.075 3
26 24 -10 115.744 110.671 3
26 24 -9 -46.7323 105.572 3
26 24 -8 49.9914 56.8215 3
26 24 -7 14.9562 92.1641 3
26 24 -6 126.825 170.1 3
26 24 -5 105.087 140.458 3
26 24 -4 8.52456 44.732 3
24 26 3 67.7134 52.2357 3
26 24 -3 33.309 83.7914 3
26 24 -2 55.4828 118.718 3
24 26 2 -3.89728 58.5265 3
26 24 -1 175.926 136.873 3
24 26 1 -49.9834 73.684 3
26 24 0 145.902 137.869 3
24 26 0 103.121 64.1049 3
26 24 1 40.8257 98.2239 3
24 26 -1 100.576 71.5523 3
26 24 2 59.3961 84.2049 3
24 26 -2 -15.2006 83.2657 3
26 24 3 27.261 75.1147 3
24 26 -3 137.625 131.107 3
24 26 -4 157.561 93.8538 3
24 26 -5 157.505 179.26 3
24 26 -6 322.033 170.183 3
24 26 -7 47.7647 76.6133 3
24 26 -8 47.2974 75.6071 3
24 26 -9 14.5217 107.656 3
24 26 -10 31.727 46.3679 3
24 26 -11 349.621 210.168 3
24 26 -12 412.562 197.875 3
24 26 -13 146.869 94.5841 3
24 26 -14 258.117 142.263 3
24 26 -15 -14.2133 45.9955 3
26 25 -14 61.9932 114.428 3
26 25 -13 132.637 112.972 3
26 25 -12 62.0919 82.7204 3
26 25 -11 19.9596 58.0673 3
26 25 -10 52.6193 111.872 3
26 25 -9 4.55603 56.9861 3
26 25 -8 50.5659 170.73 3
26 25 -7 1636.9 374.406 3
26 25 -6 21.1852 60.6779 3
26 25 -5 27.6962 74.5744 3
26 25 -4 122.278 115.322 3
25 26 3 227.879 141.077 3
26 25 -3 95.132 120.438 3
25 26 2 46.63 97.1484 3
26 25 -2 125.536 118.194 3
26 25 -1 71.2538 96.4401 3
25 26 1 80.4376 97.1084 3
26 25 0 268.681 177.035 3
25 26 0 312.985 117.055 3
26 25 1 24.2294 83.7317 3
25 26 -1 1.94917 92.4181 3
26 25 2 115.329 126.777 3
25 26 -2 14.739 64.3689 3
26 25 3 119.76 119.15 3
25 26 -3 29.0265 91.9847 3
25 26 -4 202.539 118.549 3
25 26 -5 -33.0559 46.1911 3
25 26 -6 7.52126 92.6053 3
25 26 -7 1488.31 377.375 3
25 26 -8 -44.4378 65.5306 3
25 26 -9 -17.4964 69.8637 3
25 26 -10 -3.09934 61.6007 3
25 26 -11 -15.6165 75.0708 3
25 26 -12 148.934 113.776 3
25 26 -13 43.5054 58.2783 3
25 26 -14 12.1946 40.8736 3
26 26 0 -147.399 79.3387 3
26 26 1 144.946 108.372 3
26 26 -1 37.097 122.619 3
26 26 2 30.7017 46.255 3
26 26 -2 215.42 124.321 3
26 26 -3 -19.8681 77.7313 3
26 26 -4 37.0158 79.0019 3
26 26 -5 -32.6468 44.486 3
26 26 -6 16.1449 41.6916 3
26 26 -7 24.2012 103.079 3
26 26 -8 242.578 130.386 3
26 26 -9 5.80197 63.0592 3
26 26 -10 -21.3433 85.2442 3
26 26 -11 -0.38783 53.2778 3
26 26 -12 8.50811 42.2397 3
0 0 -27 -149.305 96.0345 2
27 1 0 73.5642 139.49 3
1 0 -27 103.174 100.587 2
0 1 -27 -113.533 74.3425 2
0 -1 -27 111.892 98.3001 2
-1 0 -27 70.0356 124.99 2
27 1 -1 7.49485 74.0721 3
1 1 -27 161.891 152.088 2
1 -1 -27 233.913 131.887 2
-1 1 -27 109.456 118.288 2
27 2 -1 42.1135 188.956 3
2 1 -27 41.8381 87.6159 2
1 -2 -27 175.811 113.29 2
-1 2 -27 280.593 184.194 2
27 0 -2 -7.67007 166.97 3
27 2 0 -9.44655 81.7802 3
2 0 -27 -132.517 97.868 2
0 2 -27 107.379 130.133 2
0 -2 -27 -34.8534 116.279 2
27 2 1 -9.80885 128.482 3
27 1 -2 4.14757 62.2513 3
2 -1 -27 -61.6472 97.4559 2
1 2 -27 20.663 65.2618 2
27 2 -2 181.763 154.627 3
27 2 2 193.094 134.297 3
2 2 -27 -62.0451 70.9122 2
2 -2 -27 75.6349 92.7617 2
27 3 -2 3.82881 131.91 3
2 -3 -27 137.869 143.592 2
3 2 -27 173.33 181.529 2
-2 3 -27 -43.1131 53.971 2
27 3 -1 -176.263 113.468 3
3 1 -27 -31.7998 97.1917 2
1 -3 -27 86.1204 176.731 2
-1 3 -27 78.9981 121.111 2
27 0 -3 6.517 110.416 3
3 0 -27 238.799 111.741 2
27 3 0 78.2721 108.507 3
0 3 -27 -40.4904 108.282 2
0 -3 -27 122.097 182.004 2
27 1 -3 97.9683 141.752 3
27 3 1 118.748 127.577 3
3 -1 -27 183.318 187.725 2
1 3 -27 108.384 120.836 2
3 -2 -27 -13.7086 100.318 2
2 3 -27 38.832 51.632 2
27 2 -3 -163.388 112.312 3
27 3 3 907.974 270.886 3
27 3 -3 1481.77 343.962 3
3 3 -27 1591.19 315.683 2
3 -3 -27 1685.68 371.641 2
4 3 -27 211.722 120.719 2
27 4 -3 283.684 234.451 3
3 -4 -27 71.5758 135.056 2
-3 -4 27 222.135 89.7594 1
4 2 -27 121.414 117.211 2
-2 -4 27 237.832 210.219 1
2 -4 -27 291.586 182.452 2
27 4 -2 11.185 134.324 3
-2 4 -27 365.43 144.41 2
4 1 -27 274.965 162.312 2
27 4 -1 137.097 154.963 3
1 -4 -27 441.591 238.702 2
-1 4 -27 313.224 150.64 2
-1 -4 27 19.1237 157.544 1
27 4 0 26.8137 128.454 3
4 0 -27 -48.7725 55.3409 2
27 0 -4 306.852 230.879 3
0 4 -27 -334.138 138.05 2
0 -4 -27 -34.5036 137.318 2
27 1 -4 553.633 253.538 3
4 -1 -27 214.446 157.635 2
27 4 1 311.051 213.663 3
1 4 -27 408.231 160.785 2
27 4 2 206.36 134.922 3
27 2 -4 210.935 155.397 3
2 4 -27 395.062 169.782 2
4 -2 -27 163.534 97.0648 2
27 4 3 211.779 108.131 3
3 4 -27 444.905 162.862 2
27 3 -4 150.12 160.493 3
4 -3 -27 229.545 157.225 2
-4 -3 27 459.008 248.902 1
27 4 4 285.707 151.219 3
4 4 -27 -45.4952 78.3529 2
27 4 -4 168.105 114.181 3
4 -4 -27 59.4998 115.4 2
-4 -4 27 379.999 256.94 1
5 4 -27 357.452 156.336 2
4 -5 -27 160.292 144.161 2
-4 -5 27 12.1447 128.302 1
27 5 -4 10.6825 131.274 3
5 3 -27 1296.22 323.511 2
27 5 -3 966.188 271.314 3
-3 5 -27 918.466 252.799 2
-3 -5 27 1069.99 396.695 1
3 -5 -27 1014.93 305.697 2
-2 -5 27 517.923 265.959 1
5 2 -27 375.458 151.643 2
27 5 -2 271.292 215.72 3
2 -5 -27 364.484 188.598 2
-2 5 -27 309.399 145.783 2
5 1 -27 485.034 186.992 2
27 5 -1 306.001 134.872 3
-1 -5 27 549.893 316.051 1
-1 5 -27 160.083 142.729 2
1 -5 -27 319.056 227.082 2
27 0 -5 152.729 198.854 3
0 -5 27 1162.94 411.884 1
5 0 -27 567.555 184.807 2
27 5 0 393.593 244.383 3
0 5 -27 527.575 199.953 2
0 -5 -27 425.464 237.916 2
1 -5 27 333.102 269.863 1
5 -1 -27 451.94 199.059 2
27 5 1 20.7892 113.345 3
1 5 -27 353.588 124.458 2
27 1 -5 113.261 198.723 3
5 -2 -27 408.878 201.971 2
27 2 -5 150.462 188.961 3
27 5 2 586.655 237.5 3
2 5 -27 677.685 242.688 2
3 5 -27 833.793 234.351 2
27 5 3 1202.39 286.385 3
27 3 -5 978.322 321.008 3
-5 -3 27 1005.5 319.887 1
5 -3 -27 917.551 298.182 2
4 5 -27 176.131 102.438 2
27 5 4 20.0341 123.083 3
27 4 -5 255.781 267.502 3
5 -4 -27 74.0199 90.3703 2
5 5 -27 663.822 220.406 2
5 -5 -27 516.129 210.975 2
-5 -5 27 705.298 342.228 1
27 5 -5 571.88 309.915 3
27 5 5 930.834 224.264 3
5 -6 -27 0.97864 86.3475 2
6 5 -27 16.8817 112.508 2
27 6 -5 82.8437 91.6834 3
-5 -6 27 243.934 277.298 1
-4 -6 27 228.331 155.408 1
6 4 -27 298.75 150.768 2
27 6 -4 349.31 190.687 3
4 -6 -27 372.214 198.888 2
3 -6 -27 80.4722 88.6074 2
6 3 -27 78.9423 101.911 2
-3 -6 27 -226.954 179.076 1
27 6 -3 -2.95474 143.039 3
-3 6 -27 -38.7232 88.2186 2
6 2 -27 55.4159 100.341 2
-2 -6 27 348.249 249.1 1
27 6 -2 275.26 173.839 3
2 -6 -27 461.355 189.41 2
-2 6 -27 288.652 146.794 2
6 1 -27 737.144 258.061 2
27 6 -1 1177.7 292.829 3
-1 6 -27 1156.49 257.791 2
1 -6 -27 1402.05 335.766 2
-1 -6 27 1228.06 425.844 1
0 -6 27 973.732 281.911 1
0 6 -27 699.073 196.66 2
6 0 -27 606.51 203.071 2
27 0 -6 489.408 238.14 3
27 6 0 810.986 248.636 3
0 -6 -27 605.713 252.665 2
0 -27 6 325.43 213.669 1
6 -1 -27 996.672 264.665 2
27 1 -6 996.486 292.494 3
1 6 -27 1202.41 255.933 2
27 6 1 1220.13 281.694 3
1 -6 27 1052.61 327.539 1
2 -6 27 332.529 189.635 1
6 -2 -27 358.33 170.147 2
2 6 -27 212.322 128.205 2
27 2 -6 86.3036 118.251 3
27 6 2 174.671 144.042 3
3 6 -27 -174.513 145.493 2
6 -3 -27 53.3676 74.0958 2
27 6 3 13.145 97.4145 3
27 3 -6 38.0888 129.426 3
6 -4 -27 241.179 129.377 2
-6 -4 27 195.445 241.001 1
4 6 -27 289.539 107.023 2
27 4 -6 348.873 179.556 3
27 6 4 326.778 145.39 3
5 6 -27 32.2179 85.1373 2
6 -5 -27 -25.6079 100.003 2
27 5 -6 -14.4946 85.2024 3
-6 -5 27 -117.233 165.114 1
6 6 -27 22.9324 60.8566 2
6 -6 -27 275.981 192.4 2
27 6 6 93.3139 52.2704 3
27 6 -6 10.7334 145.628 3
7 6 -27 95.7484 115.268 2
6 -7 -27 271.264 202.126 2
27 7 -6 245.923 193.89 3
-6 -7 27 245.525 129.343 1
7 5 -27 625.68 170.948 2
5 -7 -27 629.821 268.816 2
27 7 -5 837.353 235.013 3
-5 -7 27 576.289 287.134 1
7 4 -27 480.46 169.454 2
4 -7 -27 144.359 133.413 2
27 7 -4 124.667 158.058 3
-4 7 -27 409.001 141.42 2
-4 -7 27 124.442 181.922 1
7 3 -27 317.337 172.157 2
3 -7 -27 454.067 176.38 2
27 7 -3 124.832 149.974 3
-3 7 -27 445.967 153 2
-3 -7 27 308.955 278.818 1
-2 -7 27 1198.7 350.489 1
7 2 -27 1464.54 292.7 2
2 -7 -27 1716.2 363.96 2
27 7 -2 1440.41 339.108 3
-2 7 -27 1582.5 258.787 2
1 -27 7 164.943 201.031 1
7 1 -27 247.719 162.885 2
-1 -7 27 104.272 104.604 1
-1 7 -27 78.8934 115.176 2
27 7 -1 15.4095 78.5975 3
1 -7 -27 -67.0051 115.795 2
0 7 -27 175.11 107.073 2
7 0 -27 357.349 193.539 2
27 0 -7 376.64 212.706 3
27 7 0 126.834 151.265 3
0 -7 27 10.6583 212.338 1
0 -7 -27 296.494 172.36 2
0 -27 7 359.07 126.814 1
7 -1 -27 85.4492 165.413 2
27 7 1 -311.247 139.088 3
27 1 -7 86.9437 134.861 3
1 7 -27 11.844 43.192 2
-1 -27 7 -221.477 179.325 1
1 -7 27 -58.5349 129.423 1
27 7 2 1312.95 347.139 3
7 -2 -27 1251.96 324.605 2
27 2 -7 1046.55 314.726 3
2 7 -27 1307.41 263.028 2
2 -7 27 1249.47 415.661 1
7 -3 -27 231.653 140.323 2
3 7 -27 461.405 196.037 2
27 3 -7 615.298 229.056 3
27 7 3 404.928 191.437 3
3 -7 27 539.024 246.667 1
4 7 -27 492.999 157.457 2
7 -4 -27 458.819 158.537 2
27 4 -7 460.127 182.62 3
27 7 4 436.736 177.939 3
5 7 -27 675.217 178.179 2
7 -5 -27 647.362 216.6 2
27 7 5 704.727 242.073 3
27 5 -7 1073.04 251.957 3
6 7 -27 197.458 110.626 2
7 -6 -27 425.531 194.496 2
27 7 6 51.8059 113.098 3
27 6 -7 332.502 195.264 3
7 7 -27 88.3267 104.525 2
7 -7 -27 64.0908 82.8194 2
27 7 -7 129.457 194.14 3
8 7 -27 782.736 188.965 2
7 -8 -27 1087.54 275.83 2
27 8 -7 728.254 191.543 3
8 6 -27 677.867 203.324 2
6 -8 -27 475.059 222.266 2
27 8 -6 740.56 245.392 3
8 5 -27 116.38 60.6113 2
5 -8 -27 164.064 145.163 2
-5 -8 27 484.312 271.657 1
27 8 -5 284.088 184.393 3
-5 8 -27 314.823 135.732 2
8 4 -27 1092.99 260.48 2
4 -8 -27 1244.24 299.524 2
-4 -8 27 554.558 249.594 1
27 8 -4 968.116 268.339 3
-4 8 -27 897.675 197.51 2
8 3 -27 709.944 223.13 2
-3 -8 27 191.5 221.019 1
3 -8 -27 862.724 283.327 2
27 8 -3 604.625 275.203 3
-3 8 -27 913.133 205.511 2
8 2 -27 491.793 183.567 2
27 8 -2 497.603 250.488 3
-2 8 -27 573.818 120.019 2
2 -8 -27 324.297 81.6656 2
-2 -8 27 330.366 173.76 1
8 1 -27 245.607 159.113 2
-1 8 -27 660.742 176.432 2
1 -8 -27 402.567 217.261 2
27 8 -1 308.692 181.33 3
-1 -8 27 231.351 89.6298 1
0 -27 8 873.408 367.474 1
0 -8 27 551.813 166.091 1
8 0 -27 818.004 270.366 2
0 8 -27 1020.31 235.392 2
27 8 0 793.392 238.352 3
27 0 -8 587.907 258.555 3
0 -8 -27 1077.91 301.681 2
1 8 -27 807.059 211.099 2
8 -1 -27 536.415 215.226 2
1 -8 27 -28.9011 96.6156 1
27 1 -8 852.279 261.793 3
27 8 1 605.89 225.348 3
-1 -8 -27 450.853 206.987 2
-1 -27 8 789.493 347.333 1
8 -2 -27 504.488 187.996 2
2 8 -27 638.404 203.36 2
27 2 -8 593.32 215.281 3
27 8 2 440.703 178.946 3
2 -8 27 468.022 282.117 1
-2 -27 8 375.319 335.018 1
8 -3 -27 913.464 268.304 2
3 8 -27 1071.7 235.937 2
3 -8 27 755.563 318.46 1
27 3 -8 939.239 238.321 3
27 8 3 673.273 221.066 3
-3 -27 8 1146.84 409.532 1
4 8 -27 1052.18 218.3 2
8 -4 -27 1069.13 308.876 2
27 8 4 717.044 215.848 3
27 4 -8 1332.44 277.268 3
4 -8 27 721.227 313.709 1
5 8 -27 225.824 64.0081 2
8 -5 -27 241.561 123.123 2
27 8 5 106.715 112.673 3
6 8 -27 567.252 159.405 2
8 -6 -27 571.003 242.263 2
27 8 6 604.17 208.241 3
27 6 -8 1117.43 280.824 3
7 8 -27 670.253 213.903 2
8 -7 -27 500.637 206.839 2
27 7 -8 1194.62 296.466 3
8 -8 -27 221.064 180.855 2
27 8 -8 371.26 170.885 3
8 -9 -27 528.377 214.412 2
27 9 -8 384.505 198.42 3
7 -9 -27 476.525 211.777 2
27 9 -7 160.025 121.79 3
6 -9 -27 284.418 145.715 2
27 9 -6 410.858 269.469 3
9 5 -27 233.528 69.255 2
5 -9 -27 4.28754 74.8174 2
27 9 -5 -6.19083 88.0515 3
9 4 -27 943.187 280.27 2
4 -9 -27 1147.34 305.055 2
27 9 -4 594.827 282.633 3
27 9 -3 136.816 121.949 3
9 3 -27 120.745 111.284 2
3 -9 -27 275.209 172.113 2
-3 -9 27 108.669 144.342 1
9 2 -27 56.5678 84.5715 2
-2 -9 27 99.3213 275.081 1
27 9 -2 4.5351 61.9858 3
2 -9 -27 224.254 142.778 2
9 1 -27 137.592 141.76 2
1 -27 9 -99.2795 272.702 1
27 9 -1 109.031 170.081 3
1 -9 -27 201.035 166.871 2
-1 -9 27 -90.6252 75.9697 1
0 -27 9 1598.5 460.91 1
9 0 -27 1362.91 311.737 2
27 0 -9 1527.97 362.297 3
27 9 0 928.979 291.509 3
0 -9 -27 1944.74 393.574 2
0 -9 27 1645.34 484.283 1
-1 -27 9 104.161 185.121 1
1 -9 27 100.49 145.991 1
9 -1 -27 -1.2538 76.1076 2
27 1 -9 36.2935 122.395 3
27 9 1 32.8568 68.1262 3
-1 -9 -27 45.1615 89.7553 2
2 -9 27 -350.071 99.0544 1
9 -2 -27 -72.3587 55.354 2
27 2 -9 85.7857 148.283 3
27 9 2 7.81138 128.138 3
-2 -27 9 63.9818 198.196 1
9 -3 -27 202.774 99.0619 2
27 3 -9 94.4793 105.686 3
27 9 3 278.328 177.522 3
-3 -27 9 -188.582 293.123 1
4 9 -27 837.289 177.939 2
9 -4 -27 1097.82 310.459 2
27 9 4 677.008 246.191 3
27 4 -9 950.55 255.153 3
5 9 -27 2.43411 81.08 2
9 -5 -27 156.287 104.299 2
27 9 5 186.655 157.176 3
27 5 -9 29.5309 77.0733 3
6 9 -27 373.209 139.224 2
9 -6 -27 66.5997 77.0235 2
27 9 6 374.123 134.456 3
27 6 -9 357.799 132.053 3
9 -7 -27 330.792 213.048 2
27 7 -9 733.276 243.184 3
9 -8 -27 406.411 155.5 2
27 8 -9 498.044 201.702 3
9 -9 -27 463.923 222.947 2
27 9 -9 870.427 235.329 3
9 -10 -27 1634.37 359.502 2
27 10 -9 2096.58 370.255 3
8 -10 -27 928.308 288.966 2
27 10 -8 880.366 325.153 3
7 -10 -27 -654.534 205.044 2
27 10 -7 6.3617 153.862 3
6 -10 -27 216.245 157.061 2
27 10 -6 36.6901 135.927 3
5 -10 -27 361.721 180.277 2
27 10 -5 855.2 238.456 3
4 -10 -27 915.993 276.849 2
27 10 -4 279.623 219.864 3
10 3 -27 112.833 47.346 2
3 -10 -27 289.833 167.672 2
27 10 -3 132.078 151.817 3
10 2 -27 1223.98 299.611 2
2 -10 -27 901.278 263.907 2
27 10 -2 760.299 250.497 3
10 1 -27 735.491 247.829 2
27 10 -1 518.443 207.655 3
1 -10 -27 892.156 262.936 2
10 0 -27 1988.76 392.225 2
0 -27 10 1985.35 536.309 1
27 0 -10 2681.7 450.534 3
27 10 0 1233.63 357.871 3
0 -10 -27 2371.13 410.679 2
10 -1 -27 897.859 251.602 2
27 10 1 441.694 253.937 3
-1 -10 -27 743.697 255.167 2
10 -2 -27 919.502 264.831 2
27 2 -10 1156.51 273.272 3
27 10 2 528.123 232.925 3
10 -3 -27 155.49 106.739 2
27 3 -10 185.452 148.22 3
27 10 3 245.864 168.185 3
10 -4 -27 426.357 222.363 2
27 4 -10 957.457 249.015 3
27 10 4 837.312 238.818 3
10 -5 -27 536.152 222.919 2
27 5 -10 688.471 175.051 3
27 10 5 505.902 203.63 3
10 -6 -27 314.982 168.226 2
27 10 6 146.062 112.97 3
27 6 -10 -48.315 123.566 3
10 -7 -27 -19.7518 135.519 2
27 7 -10 81.378 128.433 3
10 -8 -27 702.516 243.673 2
27 8 -10 1181.12 284.484 3
10 -9 -27 1976.78 400.427 2
27 9 -10 2583.99 410.529 3
10 -10 -27 287.767 175.434 2
27 10 -10 214.401 175.799 3
10 -11 -27 43.4464 62.5883 2
27 11 -10 49.1993 136.592 3
9 -11 -27 161.685 167.284 2
27 11 -9 257.262 175.912 3
8 -11 -27 1254.6 343.853 2
27 11 -8 1178.8 327.824 3
7 -11 -27 814.353 267.376 2
27 11 -7 591.328 282.045 3
6 -11 -27 160.627 123.305 2
27 11 -6 308.749 172.155 3
5 -11 -27 229.403 172.907 2
27 11 -5 420.546 192.106 3
4 -11 -27 126.921 114.827 2
27 11 -4 160.856 177.172 3
3 -11 -27 143.291 164.781 2
27 11 -3 98.611 150.142 3
2 -11 -27 375.422 223.015 2
27 11 -2 563.906 235.157 3
1 -11 -27 170.265 140.637 2
27 11 -1 117.454 143.963 3
11 0 -27 64.8854 70.7269 2
27 11 0 54.8096 162.921 3
0 -11 -27 -112.072 173.264 2
11 -1 -27 118.843 148.716 2
27 1 -11 113.184 69.9219 3
27 11 1 71.3755 125.932 3
-1 -11 -27 417.494 167.669 2
11 -2 -27 71.6149 60.016 2
-2 -11 -27 108.418 161.464 2
11 -3 -27 262.796 172.976 2
27 3 -11 410.744 165.689 3
27 11 3 112.175 84.8543 3
11 -4 -27 133.097 63.8083 2
27 11 4 102.645 107.109 3
27 4 -11 58.7698 130.402 3
11 -5 -27 143.384 117.808 2
27 5 -11 480.824 181.189 3
27 11 5 135.211 140.484 3
11 -6 -27 213.253 166.584 2
27 11 6 237.81 157.393 3
27 6 -11 381.547 164.429 3
11 -7 -27 526.409 244.491 2
27 7 -11 899.568 244.161 3
11 -8 -27 967.359 314.102 2
27 8 -11 1563.28 285.53 3
11 -9 -27 -81.3916 109.402 2
27 9 -11 329.973 205.899 3
27 10 -11 -73.0631 107.757 3
27 11 -11 1791.23 361.648 3
27 12 -11 3214.74 480.082 3
10 -12 -27 354.615 148.94 2
27 12 -10 595.471 192.988 3
9 -12 -27 626.444 222.592 2
27 12 -9 737.618 233.855 3
8 -12 -27 -34.9134 103.611 2
27 12 -8 58.7881 138.354 3
7 -12 -27 1068.35 284.802 2
27 12 -7 1014.94 342.106 3
6 -12 -27 486.933 154.295 2
27 12 -6 498.96 227.37 3
5 -12 -27 204.419 133.046 2
27 12 -5 171.566 198.997 3
27 12 -4 670.295 210.865 3
4 -12 -27 707.367 247.665 2
3 -12 -27 431.058 175.5 2
27 12 -3 100.826 102.896 3
2 -12 -27 147.645 80.0173 2
27 12 -2 305.444 194.8 3
27 12 -1 499.835 254.68 3
1 -12 -27 563.489 255.738 2
27 12 0 153.678 176.903 3
0 -12 -27 545.336 253.301 2
27 1 -12 961.362 281.036 3
27 12 1 436.179 160.873 3
-1 -12 -27 657.131 237.458 2
27 2 -12 613.101 243.696 3
27 12 2 155.442 174.589 3
-2 -12 -27 195.49 170.606 2
27 3 -12 709.337 239.903 3
27 12 3 156.304 154.457 3
27 4 -12 841.34 244.404 3
27 12 4 505.985 173.56 3
27 12 5 410.13 197.433 3
27 5 -12 716.809 252.398 3
27 6 -12 1352.48 351.731 3
27 12 6 686.31 219.577 3
27 7 -12 1405.59 310.973 3
27 8 -12 180.215 117.339 3
27 9 -12 952.824 263.877 3
27 10 -12 691.687 248.837 3
27 11 -12 3141.37 466.393 3
27 12 -12 11.4674 71.8305 3
27 13 -12 664.008 216.225 3
27 13 -11 1011.96 260.03 3
27 13 -10 848.203 232.509 3
9 -13 -27 812.138 253.487 2
27 13 -9 819.802 279.864 3
8 -13 -27 -110.969 106.657 2
27 13 -8 -626.478 209.341 3
7 -13 -27 134.366 152.166 2
27 13 -7 438.083 202.606 3
6 -13 -27 447.025 196.914 2
27 13 -6 95.6982 170.145 3
5 -13 -27 184.433 142.701 2
27 13 -5 37.6601 101.371 3
4 -13 -27 253.365 170.674 2
27 13 -4 10.4445 62.132 3
3 -13 -27 181.6 148.222 2
27 13 -3 184.423 142.801 3
2 -13 -27 159.595 156.4 2
27 13 -2 17.776 92.8882 3
1 -13 -27 701.895 269.169 2
27 13 -1 769.768 298.715 3
0 -13 -27 337.691 185.987 2
27 13 0 70.4119 176.069 3
27 1 -13 1163.04 268.934 3
-1 -13 -27 771.201 250.845 2
27 13 1 722.385 278.371 3
27 13 2 17.7491 131.027 3
27 2 -13 193.379 169.125 3
-2 -13 -27 203.832 110.725 2
27 3 -13 630.154 233.584 3
27 13 3 92.219 156.335 3
-3 -13 -27 369.24 187.887 2
27 4 -13 225.783 93.7028 3
27 13 4 3.16259 92.3138 3
27 5 -13 336.867 117.081 3
27 13 5 178.233 126.991 3
27 6 -13 -10.5551 87.7185 3
27 7 -13 315.8 159.88 3
27 8 -13 -95.8295 89.4669 3
27 9 -13 730.682 209.264 3
27 10 -13 754.741 194.57 3
27 11 -13 948.717 259.592 3
27 12 -13 326.52 95.2466 3
27 13 -13 472.51 204.217 3
27 14 -13 1374.95 329.542 3
27 14 -12 64.8203 131.507 3
27 14 -11 1776.98 338.167 3
27 14 -10 -0.69297 94.4512 3
9 -14 -27 788.549 223.939 2
27 14 -9 1240.99 298.24 3
8 -14 -27 402.531 182.805 2
27 14 -8 343.052 170.388 3
7 -14 -27 671.633 178.525 2
27 14 -7 472.94 243.859 3
6 -14 -27 239.563 128.704 2
27 14 -6 78.7547 174.601 3
5 -14 -27 41.5502 55.4262 2
27 14 -5 60.8287 135.057 3
4 -14 -27 324.58 149.955 2
27 14 -4 -45.5194 129.959 3
3 -14 -27 162.342 104.128 2
27 14 -3 292.954 153.181 3
27 14 -2 0.3212 105.078 3
2 -14 -27 -39.5495 99.0485 2
1 -14 -27 855.735 229.305 2
27 14 -1 737.335 211.559 3
0 -14 -27 309.027 147.27 2
27 14 0 58.3999 97.6076 3
-1 -14 -27 679.612 182.455 2
27 14 1 190.74 206.057 3
27 2 -14 20.3222 139.984 3
27 14 2 -0.56772 83.1088 3
-2 -14 -27 210.778 174.514 2
27 3 -14 222.298 181.263 3
27 14 3 31.0791 66.145 3
27 4 -14 -161.112 143.482 3
27 14 4 23.9712 76.3182 3
-4 -14 -27 -261.193 159.321 2
27 5 -14 -182.011 156.154 3
27 14 5 -36.8981 104.393 3
27 6 -14 457.42 215.587 3
27 7 -14 1577.7 364.47 3
27 8 -14 388.274 142.898 3
27 9 -14 1219.9 279.135 3
27 10 -14 58.2127 118.696 3
27 11 -14 1490.33 319.562 3
27 12 -14 149.416 108.263 3
27 13 -14 1378.71 301.787 3
27 14 -14 1686.82 363.932 3
27 15 -14 715.83 228.949 3
27 15 -13 382.485 133.752 3
27 15 -12 128.647 127.301 3
27 15 -11 318.501 183.386 3
27 15 -10 159.122 146.212 3
27 15 -9 105.263 172.355 3
8 -15 -27 207.136 124.585 2
27 15 -8 -45.3338 143.106 3
7 -15 -27 463.781 129.309 2
27 15 -7 110.606 118.459 3
6 -15 -27 262.492 173.413 2
27 15 -6 -43.5171 68.303 3
5 -15 -27 50.7215 96.9728 2
27 15 -5 -12.4397 111.587 3
4 -15 -27 -24.1339 83.9526 2
27 15 -4 -37.4311 109.413 3
3 -15 -27 1738.48 353.941 2
27 15 -3 924.759 276.976 3
2 -15 -27 741.051 215.894 2
27 15 -2 391.319 222.309 3
1 -15 -27 489.35 183.46 2
27 15 -1 301.382 221.754 3
0 -15 -27 -28.2498 65.3213 2
27 15 0 93.9407 125.077 3
-1 -15 -27 56.6232 95.4756 2
27 15 1 295.246 184.249 3
27 2 -15 419.931 149.111 3
27 15 2 278.534 194.52 3
-2 -15 -27 556.699 180.712 2
27 3 -15 1181.31 292.462 3
27 15 3 1092.44 301.487 3
-3 -15 -27 1353.09 328.598 2
27 4 -15 135.932 95.821 3
27 15 4 6.15886 87.8674 3
-4 -15 -27 51.9818 139.489 2
27 15 5 -17.5174 71.8454 3
27 5 -15 87.267 181.51 3
-5 -15 -27 212.133 100.401 2
27 6 -15 -117.605 141.897 3
27 7 -15 667.264 216.948 3
27 8 -15 193.077 179.835 3
27 9 -15 679.081 225.252 3
27 10 -15 400.607 130.93 3
27 11 -15 -107.906 129.349 3
27 12 -15 165.902 146.307 3
27 13 -15 376.88 173.924 3
27 14 -15 812.658 231.739 3
27 15 -15 85.6543 126.644 3
27 16 -15 421.621 215.455 3
27 16 -14 296.738 131.094 3
27 16 -13 517.67 161.16 3
27 16 -12 1306.21 307.055 3
27 16 -11 325.014 237.859 3
27 16 -10 -105.042 68.9064 3
27 16 -9 1181.24 348.859 3
27 16 -8 122.104 118.021 3
7 -16 -27 15.8293 92.3805 2
27 16 -7 30.9815 101.667 3
6 -16 -27 365.138 126.988 2
27 16 -6 246.348 186.647 3
5 -16 -27 50.3669 127.675 2
27 16 -5 223.949 155.023 3
4 -16 -27 18.2822 53.4534 2
27 16 -4 57.1521 121.141 3
3 -16 -27 1668.6 300.938 2
27 16 -3 1374.19 343.485 3
2 -16 -27 95.1106 68.3675 2
27 16 -2 66.2008 119.858 3
1 -16 -27 656.894 242.781 2
27 16 -1 319.6 200.437 3
0 -16 -27 67.5873 147.671 2
27 16 0 -20.7791 149.153 3
-1 -16 -27 612.398 207.429 2
27 16 1 137.437 152.245 3
-2 -16 -27 260.154 204.57 2
27 16 2 4.41583 122.101 3
27 3 -16 1395.77 284.154 3
27 16 3 821.003 296.643 3
-3 -16 -27 1697.25 323.146 2
27 4 -16 90.906 80.4746 3
27 16 4 104.152 64.3114 3
-4 -16 -27 25.2904 99.6614 2
27 16 5 -17.602 91.3342 3
-5 -16 -27 55.5216 139.576 2
27 6 -16 89.0895 58.9722 3
-6 -16 -27 635.691 214.241 2
27 7 -16 281.721 157.017 3
27 8 -16 359.754 153.271 3
27 9 -16 1555.84 342.925 3
27 10 -16 7.65218 99.9671 3
27 11 -16 566.505 195.812 3
27 12 -16 1432.94 304.781 3
27 13 -16 803.845 214.987 3
27 14 -16 80.2727 117.447 3
27 15 -16 204.659 94.7169 3
27 16 -16 312.52 123.599 3
16 27 -16 527.94 166.445 3
27 17 -16 168.845 129.038 3
16 27 -17 173.241 73.0061 3
15 27 -17 330.598 129.865 3
27 17 -15 621.167 172.525 3
27 17 -14 212.794 108.548 3
27 17 -13 222.901 146.483 3
27 17 -12 454.03 223.068 3
27 17 -11 95.9234 146.975 3
27 17 -10 60.4109 85.77 3
27 17 -9 276.914 235.557 3
27 17 -8 -49.1192 89.9577 3
7 -17 -27 -51.744 110.318 2
27 17 -7 -0.32958 75.8884 3
6 -17 -27 401.979 176.851 2
27 17 -6 159.716 75.6394 3
5 -17 -27 449.187 173.839 2
27 17 -5 384.998 235.539 3
4 -17 -27 619.742 167.836 2
27 17 -4 693.543 253.824 3
3 -17 -27 31.22 123.653 2
27 17 -3 -30.5396 74.8151 3
2 -17 -27 -87.6479 77.9929 2
27 17 -2 -4.62033 115.772 3
1 -17 -27 424.847 171.334 2
27 17 -1 250.917 165.723 3
0 -17 -27 2655.96 400.25 2
27 17 0 2067.6 399.157 3
-1 -17 -27 254.554 126.789 2
27 17 1 162.014 155.764 3
-2 -17 -27 -5.20092 73.0308 2
27 17 2 -49.9874 73.1703 3
-3 -17 -27 -78.2808 89.5113 2
27 17 3 3.0989 90.5622 3
27 4 -17 821.144 260.305 3
27 17 4 234.003 193.457 3
-4 -17 -27 760.317 209.72 2
27 5 -17 625.499 257.405 3
27 17 5 215.012 180.529 3
-5 -17 -27 310.261 126.471 2
27 6 -17 324.38 176.385 3
-6 -17 -27 280.997 91.5059 2
27 7 -17 37.8987 114.599 3
-7 -17 -27 -35.9806 84.3145 2
27 8 -17 242.987 162.337 3
27 9 -17 308.539 142.398 3
27 10 -17 382.103 156.849 3
27 11 -17 76.4332 120.528 3
27 12 -17 495.634 119.455 3
27 13 -17 217.903 144.256 3
17 27 -14 100.368 58.1172 3
27 14 -17 245.563 166.788 3
27 15 -17 627.555 192.508 3
17 27 -15 465.572 174.081 3
27 16 -17 29.5647 96.8842 3
17 27 -16 218.514 115.449 3
27 17 -17 42.8463 55.6376 3
17 27 -17 186.601 119.972 3
27 18 -17 -65.7487 81.4476 3
17 27 -18 -0.21814 56.0949 3
27 18 -16 0.7559 50.7775 3
16 27 -18 24.4872 76.2765 3
27 18 -15 281.947 144.183 3
15 27 -18 121.433 126.696 3
14 27 -18 804.135 220.435 3
27 18 -14 884.453 238.443 3
27 18 -13 638.559 232.69 3
27 18 -12 356.909 158.649 3
27 18 -11 394.759 181.342 3
27 18 -10 888.563 254.469 3
27 18 -9 69.7185 89.1343 3
27 18 -8 45.818 82.0921 3
27 18 -7 110.673 181.564 3
6 -18 -27 179.8 105.733 2
27 18 -6 197.831 156.14 3
5 -18 -27 772.029 207.105 2
27 18 -5 480.439 268.897 3
18 27 5 151.672 151.968 3
4 -18 -27 105.937 91.0572 2
27 18 -4 20.0211 68.4488 3
18 27 4 120.682 108.862 3
18 27 3 43.193 68.6851 3
27 18 -3 73.1679 95.1642 3
2 -18 -27 39.7206 109.831 2
27 18 -2 195.218 177.2 3
1 -18 -27 655.576 198.158 2
27 18 -1 836.606 270.954 3
0 -18 -27 51.2837 86.9288 2
27 18 0 85.2602 94.3945 3
-1 -18 -27 837.16 224.72 2
27 18 1 305.987 212.034 3
-2 -18 -27 92.8102 60.5118 2
27 18 2 -118.132 86.4472 3
-3 -18 -27 -72.5043 140.166 2
27 18 3 -5.26774 57.3121 3
-4 -18 -27 204.423 98.6275 2
27 18 4 81.2647 112.577 3
27 5 -18 962.572 251.092 3
27 18 5 216.915 161.867 3
-5 -18 -27 771.885 204.813 2
27 6 -18 692.76 272.872 3
-6 -18 -27 689.743 219.942 2
27 7 -18 80.0086 85.0957 3
-7 -18 -27 355.203 185.259 2
27 8 -18 -126.261 134.031 3
-8 -18 -27 223.631 137.847 2
27 9 -18 172.721 89.4942 3
-9 -18 -27 27.2999 80.7535 2
27 10 -18 1503.19 297.152 3
27 11 -18 814.253 226.002 3
18 27 -12 518.958 209.107 3
27 12 -18 296.564 89.8618 3
27 13 -18 284.496 166.815 3
18 27 -13 230.275 120.08 3
27 14 -18 806.883 220.221 3
18 27 -14 313.083 115.718 3
27 15 -18 128.901 104.719 3
18 27 -15 98.6475 70.0522 3
27 16 -18 167.691 101.935 3
18 27 -16 37.3657 76.5532 3
27 17 -18 40.7205 63.5286 3
18 27 -17 65.533 40.2423 3
27 18 -18 -4.53241 62.254 3
18 27 -18 69.3894 78.2828 3
27 19 -18 8.88023 132.45 3
18 27 -19 70.1834 78.6401 3
27 19 -17 847.344 209.556 3
17 27 -19 37.9492 130.001 3
27 19 -16 203.317 121.531 3
16 27 -19 21.2394 85.6206 3
27 19 -15 88.2284 94.1808 3
15 27 -19 6.10185 73.5489 3
27 19 -14 341.933 159.234 3
14 27 -19 246.605 127.585 3
27 19 -13 798.88 227.356 3
27 19 -12 584.019 214.141 3
27 19 -11 196.032 129.248 3
27 19 -10 833.568 236.486 3
27 19 -9 272.889 148.066 3
27 19 -8 871.829 271.411 3
27 19 -7 493.728 221.511 3
27 19 -6 194.707 144.656 3
5 -19 -27 79.0658 187.983 2
27 19 -5 270.682 139.329 3
4 -19 -27 -40.8626 93.4382 2
27 19 -4 386.344 205.621 3
19 27 4 242.527 164.046 3
3 -19 -27 -9.00284 103.504 2
27 19 -3 -28.0464 124.154 3
19 27 3 158.377 152.203 3
2 -19 -27 155.78 276.89 2
19 27 2 240.242 228.19 3
1 -19 -27 5.32668 77.1622 2
27 19 -1 123.373 145.395 3
19 27 1 -38.575 111.705 3
19 27 0 1.67601 96.5586 3
0 -19 -27 -2.8029 67.5847 2
27 19 0 1.10184 57.1417 3
19 27 -1 77.3708 121.969 3
-1 -19 -27 -3.83282 91.9496 2
27 19 1 92.1335 123.626 3
-2 -19 -27 178.265 276.905 2
27 19 2 483.778 265.803 3
-3 -19 -27 -2.2995 104.267 2
27 19 3 276.535 142.22 3
-4 -19 -27 81.2449 161.427 2
27 19 4 89.3276 150.434 3
-5 -19 -27 7.59834 134.496 2
27 6 -19 176.152 59.7412 3
-6 -19 -27 30.3987 127.527 2
-7 -19 -27 28.0778 162.914 2
27 7 -19 551.346 143.72 3
19 27 -8 639.39 259.472 3
-8 -19 -27 219.251 206.465 2
19 27 -9 124.611 109.492 3
27 9 -19 127.39 60.6085 3
-9 -19 -27 39.6981 167.171 2
27 10 -19 561.897 169.238 3
-10 -19 -27 65.6821 193.694 2
19 27 -10 549.824 181.22 3
27 11 -19 206.391 99.1263 3
-11 -19 -27 19.4943 89.4858 2
19 27 -11 57.9248 70.7184 3
27 12 -19 169.542 70.8802 3
19 27 -12 268.545 176.214 3
27 13 -19 622.217 139.53 3
19 27 -13 855.704 241.645 3
27 14 -19 240.145 124.447 3
19 27 -14 361.421 168.274 3
27 15 -19 10.1498 79.2336 3
19 27 -15 66.7662 52.9699 3
27 16 -19 -0.43973 46.5837 3
19 27 -16 8.96264 86.6809 3
27 17 -19 206.507 205.842 3
19 27 -17 624.758 160.299 3
27 18 -19 -11.7 97.6093 3
19 27 -18 -3.29755 116.897 3
27 19 -19 13.0327 88.4738 3
19 27 -19 22.1969 115.845 3
27 20 -19 5.31248 78.5629 3
19 27 -20 -0.30222 56.0693 3
27 20 -18 -0.56039 52.4168 3
18 27 -20 18.8414 85.5997 3
27 20 -17 3.08675 97.9689 3
17 27 -20 -4.03777 89.9554 3
27 20 -16 113.308 100.868 3
16 27 -20 10.4174 117.488 3
27 20 -15 67.76 110.781 3
15 27 -20 17.4077 62.393 3
27 20 -14 1045.05 253.368 3
14 27 -20 172.22 146.8 3
27 20 -13 65.0219 115.568 3
13 27 -20 -4.87764 49.1268 3
12 27 -20 999.321 203.515 3
27 20 -12 1130.01 307.969 3
27 20 -11 159.736 133.748 3
27 20 -10 13.8828 69.69 3
27 20 -9 86.1227 90.1355 3
27 20 -8 1482.68 338.059 3
27 20 -7 -31.9024 94.2356 3
27 20 -6 787.928 277.911 3
27 20 -5 -69.8198 135.905 3
27 20 -4 420.501 204.858 3
20 27 4 252.292 160.866 3
27 20 -3 416.694 211.296 3
20 27 3 167.77 186.656 3
27 20 -2 13.224 83.6651 3
20 27 2 -35.8257 86.1795 3
27 20 -1 155.002 184.563 3
20 27 1 228.719 174.956 3
27 20 0 59.1258 175.603 3
20 27 0 66.1429 124.291 3
-1 -20 -27 52.7537 174.429 2
27 20 1 203.146 189.379 3
20 27 -1 315.661 173.831 3
-2 -20 -27 157.226 95.7733 2
27 20 2 -3.6599 47.784 3
20 27 -2 -47.2794 122.082 3
-3 -20 -27 41.0057 199.876 2
27 20 3 307.811 168.434 3
20 27 -3 398.936 219.168 3
-4 -20 -27 23.3387 164.839 2
27 20 4 174.834 177.593 3
20 27 -4 467.304 217.232 3
-5 -20 -27 33.8455 78.2847 2
20 27 -5 207.115 158.305 3
-6 -20 -27 70.4781 150.911 2
20 27 -6 606.242 262.799 3
27 7 -20 -3.86927 54.5515 3
-7 -20 -27 32.6303 85.4138 2
20 27 -7 87.3671 127.044 3
27 8 -20 1411.17 292.317 3
20 27 -8 1583.43 349.619 3
-9 -20 -27 51.7311 147.074 2
27 9 -20 272.638 152.937 3
20 27 -9 42.9612 67.0049 3
-10 -20 -27 -8.51336 75.3339 2
20 27 -10 89.7258 87.2973 3
27 11 -20 -58.0684 89.4694 3
-11 -20 -27 2.4771 58.7146 2
20 27 -11 -3.60849 111.906 3
27 12 -20 895.929 229.491 3
-12 -20 -27 124.454 216.849 2
20 27 -12 752.164 242.234 3
27 13 -20 7.47766 105.227 3
-13 -20 -27 -0.38174 44.1067 2
20 27 -13 -17.5408 82.3151 3
27 14 -20 16.3392 181.327 3
-14 -20 -27 115.5 161.23 2
27 15 -20 40.7752 100.23 3
-15 -20 -27 45.0611 78.012 2
20 27 -15 -1.15848 86.6039 3
27 16 -20 -0.78862 57.7341 3
-16 -20 -27 72.4903 106.415 2
20 27 -16 126.242 41.519 3
27 17 -20 2.2227 77.9052 3
-17 -20 -27 98.9094 118.188 2
20 27 -17 9.55193 53.9737 3
27 18 -20 1.37806 91.188 3
20 27 -18 23.0606 62.7419 3
27 19 -20 15.8255 99.7956 3
20 27 -19 -0.47903 46.2599 3
27 21 -18 61.4857 148.251 3
18 27 -21 -3.90688 53.0088 3
27 21 -17 -17.455 54.1805 3
17 27 -21 42.0647 107.967 3
27 21 -16 -131.83 124.828 3
16 27 -21 0.32409 65.3645 3
15 27 -21 707.959 256.448 3
27 21 -15 1473.51 291.476 3
27 21 -14 59.3309 82.4921 3
14 27 -21 17.4625 104.682 3
27 21 -13 -20.6246 123.529 3
13 27 -21 -0.37576 69.5525 3
27 21 -12 321.519 157.651 3
12 27 -21 122.479 153.038 3
27 21 -11 569.305 215.489 3
11 27 -21 104.05 167.59 3
27 21 -10 532.573 232.617 3
27 21 -9 352.492 205.511 3
27 21 -8 255.516 170.036 3
27 21 -7 -55.4377 141.215 3
27 21 -6 1147.42 307.415 3
27 21 -5 183.482 172.649 3
27 21 -4 -23.2076 98.1055 3
21 27 4 113.766 99.5892 3
27 21 -3 79.7594 173.609 3
21 27 3 46.9581 55.7416 3
27 21 -2 305.109 182.135 3
21 27 2 73.6342 110.065 3
27 21 -1 -9.68518 116.311 3
21 27 1 110.969 147.631 3
27 21 0 86.8436 116.884 3
21 27 0 135.971 142.389 3
27 21 1 -12.1611 55.6481 3
21 27 -1 57.8485 92.4737 3
27 21 2 77.7091 100.247 3
21 27 -2 120.072 167.983 3
27 21 3 192.096 140.002 3
21 27 -3 148.949 100.182 3
27 21 4 138.408 145.201 3
21 27 -4 219.82 176.2 3
21 27 -5 14.372 77.1067 3
21 27 -6 929.956 266.913 3
21 27 -7 -33.0058 120.037 3
21 27 -8 109.112 177.91 3
27 9 -21 143.145 46.9446 3
21 27 -9 267.278 187.385 3
27 10 -21 302.653 226.313 3
21 27 -10 801.251 222.584 3
27 11 -21 109.804 155.036 3
21 27 -11 341.699 223.848 3
27 12 -21 30.2091 159.327 3
21 27 -12 172.036 191.757 3
27 13 -21 0.40395 81.5537 3
21 27 -13 -89.2288 77.1965 3
27 14 -21 -37.8545 102.551 3
21 27 -14 -29.5502 94.8268 3
27 15 -21 2293.24 279.433 3
21 27 -15 1124.92 245.594 3
27 16 -21 18.439 85.8893 3
21 27 -16 -15.9035 50.8693 3
27 17 -21 27.0991 101.943 3
21 27 -17 -2.94619 47.5209 3
27 18 -21 -3.09324 51.2208 3
21 27 -18 108.628 122.999 3
27 22 -16 209.249 125.098 3
16 27 -22 58.6917 107.688 3
27 22 -15 143.981 123.497 3
15 27 -22 17.008 60.6976 3
27 22 -14 12.2796 45.1522 3
14 27 -22 -10.4765 46.3836 3
27 22 -13 41.2005 76.253 3
13 27 -22 -4.04101 38.4674 3
27 22 -12 159.953 116.601 3
12 27 -22 13.8119 106.403 3
27 22 -11 74.4886 157.64 3
11 27 -22 -10.6345 39.4052 3
27 22 -10 911.129 293.005 3
10 27 -22 150.769 163.354 3
27 22 -9 165.014 150.687 3
27 22 -8 256.963 175.954 3
27 22 -7 12.0968 83.89 3
27 22 -6 151.264 178.405 3
27 22 -5 -14.7342 56.7612 3
27 22 -4 141.558 177.467 3
27 22 -3 324.934 191.409 3
22 27 3 431.169 185.871 3
27 22 -2 245.085 222.444 3
22 27 2 23.7252 108.522 3
27 22 -1 324.025 177.606 3
22 27 1 65.2878 111.852 3
27 22 0 -65.1272 91.948 3
22 27 0 13.4543 73.5493 3
27 22 1 177.43 123.171 3
22 27 -1 99.1028 48.6384 3
27 22 2 4.36292 64.3849 3
22 27 -2 74.2179 138.052 3
27 22 3 168.072 127.648 3
22 27 -3 244.5 160.596 3
22 27 -4 167.524 155.618 3
22 27 -5 27.7223 97.1306 3
22 27 -6 212.524 170.466 3
22 27 -7 138.311 137.625 3
22 27 -8 64.4588 93.4199 3
22 27 -9 74.6369 92.2334 3
22 27 -10 575.193 209.744 3
22 27 -11 215.327 170.871 3
27 12 -22 -43.6873 59.0467 3
22 27 -12 38.3078 79.0708 3
27 13 -22 14.8673 72.7739 3
22 27 -13 -30.9108 87.7995 3
27 14 -22 4.64779 68.6473 3
22 27 -14 -353.014 124.413 3
27 15 -22 1.09214 55.9879 3
22 27 -15 84.9766 108.11 3
27 16 -22 89.8751 92.0972 3
22 27 -16 276.571 143.341 3
27 23 -15 52.4522 80.2429 3
27 23 -14 -15.6908 58.9277 3
27 23 -13 1159.29 265.083 3
27 23 -12 255.527 139.591 3
27 23 -11 103.633 121.884 3
27 23 -10 -17.5257 64.394 3
27 23 -9 -45.4466 49.3846 3
27 23 -8 204.896 171.65 3
27 23 -7 260.385 133.347 3
27 23 -6 295.362 160.152 3
27 23 -5 502.441 209.969 3
27 23 -4 174.506 125.534 3
27 23 -3 -9.06074 92.9964 3
23 27 3 101.696 108.495 3
27 23 -2 48.1171 135.063 3
23 27 2 -58.8428 132.678 3
27 23 -1 113.681 86.6751 3
23 27 1 113.212 122.936 3
27 23 0 384.681 200.935 3
23 27 0 507.42 174.994 3
27 23 1 135.582 140.255 3
23 27 -1 264.426 137.122 3
27 23 2 -30.4158 108.073 3
23 27 -2 43.3265 107.374 3
27 23 3 4.3699 41.9192 3
23 27 -3 230.425 155.15 3
23 27 -4 6.20846 110.558 3
23 27 -5 254.031 183.743 3
23 27 -6 160.979 135.923 3
23 27 -7 213.631 133.415 3
23 27 -8 220.812 160.072 3
23 27 -9 76.6822 91.8141 3
23 27 -10 176.258 150.584 3
23 27 -11 35.877 51.2739 3
23 27 -12 153.254 117.841 3
23 27 -13 1134.4 251.27 3
23 27 -14 15.4245 73.7247 3
23 27 -15 -50.7459 75.1897 3
27 24 -13 99.1005 82.0103 3
27 24 -12 33.6009 46.373 3
27 24 -11 107.362 119.925 3
27 24 -10 23.0081 63.7527 3
27 24 -9 -36.9847 77.7294 3
27 24 -8 148.534 135.57 3
27 24 -7 609.319 374.732 3
27 24 -6 86.227 149.442 3
27 24 -5 100.672 148.256 3
27 24 -4 11.1014 94.1952 3
27 24 -3 359.878 145.762 3
24 27 3 382.349 149.356 3
27 24 -2 -14.4394 82.8564 3
24 27 2 33.1403 81.2423 3
27 24 -1 203.09 111.432 3
24 27 1 83.7097 80.269 3
27 24 0 10.7664 91.683 3
24 27 0 14.9146 93.7053 3
27 24 1 235.364 118.343 3
24 27 -1 196.379 152.063 3
27 24 2 70.9628 100.548 3
24 27 -2 23.9748 72.5607 3
27 24 3 215.614 126.303 3
24 27 -3 182.388 126.339 3
24 27 -4 -84.6835 102.195 3
24 27 -5 246.078 162.271 3
24 27 -6 65.0904 116.738 3
24 27 -7 1633.76 281.266 3
24 27 -8 -19.5071 88.8474 3
24 27 -9 59.2214 143.173 3
24 27 -10 -6.35816 72.8761 3
24 27 -11 221.877 140.772 3
24 27 -12 68.4777 113.142 3
24 27 -13 174.445 96.9391 3
27 25 -12 19.4156 39.9858 3
27 25 -11 63.0121 94.866 3
27 25 -10 -9.46046 47.855 3
27 25 -9 72.4846 75.5739 3
27 25 -8 119.187 83.1386 3
27 25 -7 380.715 178.556 3
27 25 -6 -68.7746 101.672 3
27 25 -5 -14.1491 64.6826 3
27 25 -4 -0.21228 65.6964 3
27 25 -3 39.6513 73.0397 3
27 25 -2 -376.26 123.819 3
25 27 2 48.1876 52.2754 3
27 25 -1 186.939 121.385 3
25 27 1 54.8541 81.6339 3
27 25 0 12.8129 52.0502 3
25 27 0 41.8384 51.5011 3
27 25 1 156.454 113.817 3
25 27 -1 -26.1526 88.3631 3
27 25 2 36.4311 40.5311 3
25 27 -2 35.9666 51.7562 3
25 27 -3 179.529 122.455 3
25 27 -4 82.3875 67.0595 3
25 27 -5 -16.4597 91.3905 3
25 27 -6 -35.123 79.2885 3
25 27 -7 366.982 162.083 3
25 27 -8 -29.6428 74.9098 3
25 27 -9 46.7365 53.2827 3
25 27 -10 14.198 50.2166 3
25 27 -11 63.3243 82.263 3
25 27 -12 31.3657 55.6461 3
27 26 -9 103.191 102.21 3
27 26 -8 -0.19055 58.5016 3
27 26 -7 30.9224 72.9006 3
27 26 -6 147.952 114.955 3
27 26 -5 127.463 120.926 3
27 26 -4 48.5856 85.6465 3
27 26 -3 107.831 88.8493 3
26 27 2 15.3931 74.3791 3
27 26 -2 36.3187 77.7678 3
26 27 1 196.258 106.731 3
27 26 -1 217.32 127.444 3
27 26 0 39.5799 72.835 3
26 27 0 -73.9505 82.3462 3
27 26 1 208.247 117.588 3
26 27 -1 226.162 113.163 3
27 26 2 6.1588 34.1051 3
26 27 -2 49.6631 49.3454 3
26 27 -3 54.2139 84.8662 3
26 27 -4 24.5389 55.1229 3
26 27 -5 200.976 123.138 3
26 27 -6 97.954 90.2155 3
26 27 -7 -3.66236 72.8049 3
26 27 -8 75.4223 128.619 3
26 27 -9 101.74 85.3685 3
27 27 0 24.2314 46.4914 3
27 27 1 -56.2467 48.6744 3
27 27 -1 -5.12368 37.2829 3
27 27 -2 53.9323 53.1922 3
27 27 -3 200.941 122.544 3
27 27 -4 -30.7039 92.9637 3
27 27 -5 204.036 97.5774 3
27 27 -6 321.432 127.557 3
0 0 -28 -8.2585 85.1053 2
1 0 -28 280.578 169.177 2
0 1 -28 48.9815 92.1418 2
0 -1 -28 152.319 74.1361 2
-1 0 -28 114.975 134.587 2
1 1 -28 30.3645 97.4501 2
1 -1 -28 98.2519 65.2539 2
-1 1 -28 -27.9371 57.1269 2
-1 -1 -28 -55.9433 88.0275 2
28 2 -1 58.5101 178.739 3
2 1 -28 89.0724 100.778 2
1 -2 -28 58.3623 80.8081 2
-1 2 -28 -80.7159 142.609 2
2 0 -28 78.6968 148.918 2
0 2 -28 -26.5247 51.4352 2
28 1 -2 -7.2001 79.4196 3
2 -1 -28 72.8021 91.3909 2
1 2 -28 -2.94903 49.6721 2
-1 -2 -28 128.994 128.136 2
-2 1 -28 14.422 90.7516 2
28 2 -2 48.6866 106.187 3
2 2 -28 -9.15197 64.0943 2
2 -2 -28 -26.1971 89.4912 2
-2 2 -28 -29.1663 81.0455 2
3 2 -28 138.682 153.75 2
28 3 -2 308.513 186.599 3
2 -3 -28 179.354 136.501 2
-2 3 -28 171.843 98.183 2
28 3 -1 -6.06639 119.451 3
3 1 -28 -114.814 150.202 2
1 -3 -28 159.484 149.063 2
-1 3 -28 24.8037 61.6467 2
28 3 0 302.011 206.717 3
0 3 -28 379.389 140.684 2
3 0 -28 431.391 227.03 2
0 -3 -28 474.488 219.945 2
28 1 -3 17.3522 76.2535 3
3 -1 -28 82.2234 97.3146 2
28 3 1 -266.015 132.264 3
1 3 -28 -131.083 137.964 2
-1 -3 -28 151.482 182.188 2
28 3 2 15.0599 126.205 3
28 2 -3 119.664 126.843 3
2 3 -28 242.266 169.277 2
3 -2 -28 361.391 188.018 2
3 3 -28 -87.7528 152.364 2
28 3 -3 13.9934 118.234 3
3 -3 -28 -58.5449 167.417 2
-3 3 -28 149.39 102.247 2
4 3 -28 224.379 174.144 2
3 -4 -28 26.1995 100.636 2
28 4 -3 102.959 161.139 3
-3 4 -28 -5.34905 63.4658 2
4 2 -28 1059.03 269.017 2
2 -4 -28 1578.77 325.633 2
28 4 -2 1109.65 342.828 3
-2 4 -28 963.145 238.248 2
4 1 -28 216.179 173.77 2
28 4 -1 -72.4209 183.155 3
-1 4 -28 -22.5335 110.602 2
1 -4 -28 290.63 191.029 2
4 0 -28 44.5334 95.951 2
28 4 0 51.0454 157.235 3
0 4 -28 107.653 70.774 2
0 -4 -28 60.1215 73.9418 2
28 4 1 21.8201 102.794 3
28 1 -4 79.1265 73.6519 3
4 -1 -28 197.131 170.958 2
1 4 -28 295.908 179.49 2
-1 -4 -28 0.32332 85.088 2
28 4 2 638.689 253.545 3
28 2 -4 801.242 298.496 3
4 -2 -28 1116.21 295.363 2
2 4 -28 1051.19 287.516 2
4 -3 -28 -72.3721 145.742 2
28 4 3 13.1315 125.5 3
3 4 -28 170.399 58.6371 2
28 3 -4 236.857 221.574 3
4 -4 -28 86.7452 137.702 2
28 4 -4 136.124 172.13 3
4 4 -28 120.592 64.9268 2
-4 -5 28 470.815 265.142 1
5 4 -28 576.521 204.904 2
4 -5 -28 504.223 225.8 2
28 5 -4 315.92 209.456 3
-4 5 -28 338.703 147.214 2
5 3 -28 59.6666 84.931 2
28 5 -3 8.66727 127.58 3
3 -5 -28 40.1544 96.9437 2
-3 5 -28 85.7943 121.395 2
5 2 -28 742.963 258.358 2
28 5 -2 110.001 207.259 3
2 -5 -28 569.58 220.579 2
-2 -5 28 607.82 281.339 1
-2 5 -28 662.56 224.63 2
5 1 -28 -54.7773 131.264 2
28 5 -1 18.8163 61.3781 3
-1 5 -28 63.3769 68.3238 2
1 -5 -28 213.161 184.657 2
5 0 -28 291.157 152.546 2
0 5 -28 290.501 155.266 2
28 5 0 549.176 240.64 3
0 -5 -28 334.263 164.575 2
5 -1 -28 135.627 168.836 2
28 1 -5 44.1467 110.741 3
28 5 1 136.162 141.318 3
1 5 -28 10.9962 56.9277 2
-1 -5 -28 323.597 215.901 2
28 2 -5 315.135 217.144 3
2 5 -28 677.394 212.642 2
28 5 2 630.422 210.35 3
5 -2 -28 654.185 235.758 2
3 5 -28 5.51919 81.1842 2
28 5 3 34.9964 112.391 3
28 3 -5 12.0701 92.6582 3
4 5 -28 953.179 258.676 2
28 5 4 378.168 168.885 3
28 4 -5 647.337 259.457 3
5 -4 -28 456.472 169.122 2
5 5 -28 257.272 151.977 2
5 -5 -28 285.237 176.146 2
28 5 -5 92.5545 169.096 3
28 6 -5 -24.538 96.6161 3
5 -6 -28 118.384 128.544 2
-5 6 -28 11.1542 52.6749 2
6 4 -28 1456.24 313.709 2
4 -6 -28 1803.62 368.611 2
28 6 -4 2026.65 422.093 3
-4 6 -28 1826.47 315.625 2
6 3 -28 955.56 297.017 2
28 6 -3 373.216 238.102 3
3 -6 -28 709.307 238.332 2
-3 6 -28 981.12 240.735 2
6 2 -28 44.391 130.51 2
28 6 -2 -6.20328 123.675 3
2 -6 -28 54.2673 103.694 2
-2 6 -28 -21.5615 56.8983 2
-1 -6 28 435.628 270.228 1
6 1 -28 246.397 122.249 2
28 6 -1 163.589 182.146 3
-1 6 -28 538.662 187.311 2
1 -6 -28 641.85 251.335 2
0 6 -28 131.212 110.684 2
6 0 -28 40.7254 84.9573 2
28 6 0 23.6191 73.5322 3
0 -6 -28 213.21 149.816 2
6 -1 -28 479.476 201.181 2
28 6 1 316.378 183.285 3
-1 -6 -28 519.411 221.358 2
1 6 -28 540.587 201.414 2
2 6 -28 25.155 102.463 2
6 -2 -28 -3.49122 61.243 2
28 6 2 107.288 200.806 3
28 2 -6 26.9102 221.769 3
3 6 -28 1033.56 274.83 2
6 -3 -28 1031.39 278.096 2
28 6 3 745.397 231.763 3
28 3 -6 1255.55 311.513 3
4 6 -28 1738.35 308.482 2
6 -4 -28 1887.47 376.399 2
28 6 4 1525.36 288.468 3
28 4 -6 1754.02 386.848 3
5 6 -28 76.3745 64.1567 2
6 -5 -28 70.6146 132.951 2
28 5 -6 41.6745 131.463 3
28 6 5 73.6819 127.482 3
6 6 -28 44.4117 151.815 2
6 -6 -28 27.624 76.2237 2
28 6 -6 183.285 150.951 3
7 6 -28 33.4265 92.399 2
6 -7 -28 82.8368 93.2702 2
28 7 -6 100.959 176.046 3
7 5 -28 542.911 200.724 2
5 -7 -28 641.252 248.99 2
28 7 -5 313.25 244.241 3
-5 7 -28 648.285 157.023 2
7 4 -28 303.058 120.856 2
4 -7 -28 228.274 171.912 2
28 7 -4 158.136 161.289 3
-4 7 -28 -20.7991 53.8812 2
7 3 -28 309.891 188.162 2
28 7 -3 393.026 163.739 3
3 -7 -28 438.245 242.91 2
-3 7 -28 505.917 182.071 2
7 2 -28 -17.9309 100.16 2
28 7 -2 23.5099 72.2815 3
2 -7 -28 49.5995 160.982 2
-2 7 -28 274.593 164.485 2
7 1 -28 671.63 233.441 2
28 7 -1 903.828 261.67 3
-1 7 -28 771.206 217.79 2
1 -7 -28 592.54 250.484 2
7 0 -28 2895.44 447.193 2
0 7 -28 2888.24 401.807 2
0 -7 -28 2684.36 479.765 2
28 7 0 2546.18 416.83 3
7 -1 -28 501.93 214.036 2
1 7 -28 709.699 190.755 2
28 1 -7 1049.45 301.541 3
28 7 1 825.353 284.449 3
-1 -7 -28 784.063 302.458 2
7 -2 -28 98.8993 80.789 2
2 7 -28 -52.6029 122.907 2
28 7 2 -34.8063 127.344 3
28 2 -7 -56.5328 87.2921 3
7 -3 -28 78.1502 78.8094 2
3 7 -28 444.295 203.369 2
28 3 -7 -88.7405 111.74 3
28 7 3 359.913 169.039 3
4 7 -28 266.873 96.8474 2
7 -4 -28 186.354 169.706 2
28 7 4 103.53 138.592 3
28 4 -7 255.113 150.927 3
5 7 -28 890.689 240.404 2
7 -5 -28 672.51 273.267 2
28 7 5 362.322 186.558 3
28 5 -7 717.479 271.53 3
6 7 -28 136.464 68.249 2
7 -6 -28 24.6626 102.022 2
28 7 6 -86.5433 83.0119 3
7 7 -28 370.8 118.123 2
7 -7 -28 384.184 205.824 2
28 7 -7 238.124 149.617 3
7 -8 -28 243.715 181.736 2
-7 8 -28 371.407 105.929 2
8 6 -28 1084.13 241.675 2
6 -8 -28 960.171 281.088 2
28 8 -6 997.589 293.975 3
-6 8 -28 1003.18 226.571 2
8 5 -28 491.204 208.076 2
5 -8 -28 258.935 165.323 2
28 8 -5 396.494 170.972 3
-5 8 -28 433.969 159.257 2
8 4 -28 93.1172 124.424 2
28 8 -4 134.316 141.175 3
-4 8 -28 -124.823 122.18 2
4 -8 -28 86.7302 170.347 2
8 3 -28 199.527 89.3951 2
3 -8 -28 121.265 151.19 2
28 8 -3 361.945 278.103 3
-3 8 -28 364.047 114.841 2
8 2 -28 541.995 243.028 2
28 8 -2 824.215 250.884 3
-2 8 -28 549.138 134.889 2
2 -8 -28 630.387 298.509 2
8 1 -28 734.341 254.672 2
-1 8 -28 1108.23 240.209 2
28 8 -1 850.682 285.129 3
1 -8 -28 852.591 290.117 2
8 0 -28 27.2941 100.559 2
0 8 -28 331.057 176.452 2
28 8 0 0.93061 51.2047 3
0 -8 -28 151.781 178.873 2
8 -1 -28 653.822 261.404 2
1 8 -28 1113.09 219.824 2
28 1 -8 777.504 283.505 3
28 8 1 728.415 262.799 3
-1 -8 -28 857.137 269.702 2
8 -2 -28 570.961 239.718 2
2 8 -28 648.958 186.996 2
28 8 2 417.791 247.899 3
28 2 -8 736.587 248.238 3
-2 -8 -28 551.721 262.935 2
8 -3 -28 446.076 211.957 2
3 8 -28 495.084 145.363 2
28 3 -8 698.99 243.513 3
28 8 3 442.842 238.427 3
4 8 -28 98.7951 86.3227 2
8 -4 -28 214.149 138.857 2
28 8 4 189.24 109.491 3
28 4 -8 193.349 164.899 3
5 8 -28 205.861 64.8195 2
8 -5 -28 437.796 150.432 2
28 8 5 761.053 233.907 3
28 5 -8 613.323 184.971 3
6 8 -28 1196.9 236.37 2
28 8 6 1560.97 269.336 3
8 -6 -28 1039.39 310.69 2
28 6 -8 1407.76 303.984 3
8 -7 -28 551.408 238.054 2
28 7 -8 995.705 269.675 3
8 -8 -28 312.025 222.456 2
28 8 -8 544.131 193.217 3
8 -9 -28 7.86707 56.715 2
28 9 -8 91.4081 89.9735 3
7 -9 -28 563.835 268 2
28 9 -7 992.312 299.038 3
6 -9 -28 -6.26133 82.9133 2
28 9 -6 323.981 166.062 3
5 -9 -28 113.58 142.458 2
28 9 -5 301.071 145.169 3
9 4 -28 48.4313 103.716 2
4 -9 -28 86.647 123.553 2
28 9 -4 -60.465 121.091 3
9 3 -28 1697.13 356.504 2
3 -9 -28 1949.34 388.284 2
28 9 -3 1647.29 406.054 3
9 2 -28 905.852 268.234 2
2 -9 -28 1246.47 328.431 2
28 9 -2 1180.02 292.915 3
9 1 -28 807.923 262.968 2
28 9 -1 350.938 243.722 3
1 -9 -28 801.357 252.503 2
9 0 -28 -3.73091 70.6945 2
28 9 0 4.33486 85.3744 3
0 -9 -28 202.353 123.056 2
9 -1 -28 540.411 205.884 2
28 1 -9 384.094 152.359 3
28 9 1 702.868 227.723 3
-1 -9 -28 645.212 244.186 2
9 -2 -28 662.562 271.597 2
28 9 2 811.286 257.945 3
28 2 -9 1380.36 321.583 3
-2 -9 -28 825.644 261.528 2
9 -3 -28 1893.08 392.62 2
3 9 -28 2137.64 289.85 2
28 9 3 1491.9 329.865 3
28 3 -9 2836.37 450.218 3
4 9 -28 -115.751 141.242 2
9 -4 -28 -21.4594 138.969 2
28 4 -9 2.86753 113.89 3
28 9 4 74.3991 155.552 3
5 9 -28 55.6754 75.2738 2
9 -5 -28 -35.6607 86.4799 2
28 9 5 3.61207 88.9568 3
28 5 -9 99.3433 152.67 3
9 -6 -28 1.31368 62.1115 2
28 9 6 0.24572 53.6385 3
28 6 -9 101.856 140.102 3
9 -7 -28 296.275 198.839 2
28 7 -9 664.436 206.96 3
9 -8 -28 -12.1451 99.9209 2
28 8 -9 240.397 205.227 3
9 -9 -28 484.948 224.26 2
28 9 -9 1773.28 356.751 3
9 -10 -28 892.859 260.661 2
28 10 -9 1152.03 268.633 3
8 -10 -28 92.041 51.4676 2
28 10 -8 14.1675 97.4639 3
7 -10 -28 6.20429 95.4419 2
28 10 -7 -180.654 147.829 3
6 -10 -28 624.416 256.156 2
28 10 -6 521.515 201.656 3
5 -10 -28 716.465 273.127 2
28 10 -5 774.862 246.288 3
4 -10 -28 647.658 243.163 2
28 10 -4 456.169 179.683 3
28 10 -3 255.706 208.852 3
3 -10 -28 228.959 139.295 2
10 2 -28 -128.981 162.111 2
2 -10 -28 92.5313 147.203 2
28 10 -2 52.7005 61.355 3
10 1 -28 208.248 181.314 2
28 10 -1 210.723 201.178 3
1 -10 -28 607.271 258.021 2
10 0 -28 80.3709 117.879 2
28 10 0 315.195 173.284 3
0 -10 -28 215.684 180.767 2
10 -1 -28 454.096 225.204 2
28 1 -10 973.967 286.344 3
28 10 1 565.288 216.101 3
-1 -10 -28 353.46 201.734 2
10 -2 -28 86.9058 92.4321 2
28 10 2 35.6058 126.805 3
28 2 -10 159.784 79.6129 3
-2 -10 -28 -1.98954 94.0037 2
10 -3 -28 276.501 191.677 2
28 10 3 280.863 150.178 3
10 -4 -28 245.146 170.55 2
28 4 -10 481.488 182.947 3
28 10 4 138.929 135.592 3
10 -5 -28 649.557 258.255 2
28 10 5 356.247 189.108 3
10 -6 -28 579.369 262.827 2
28 10 6 283.371 157.431 3
28 6 -10 820.821 249.68 3
10 -7 -28 74.7759 143.305 2
28 7 -10 -134.359 150.256 3
10 -8 -28 -49.0565 148.137 2
28 8 -10 -18.5848 68.4217 3
10 -9 -28 1429.86 317.814 2
28 9 -10 1393.58 272.064 3
10 -10 -28 367.292 201.889 2
28 10 -10 364.1 225.392 3
10 -11 -28 2860.78 423.191 2
28 11 -10 2103.01 377.382 3
9 -11 -28 685.161 239.876 2
28 11 -9 1155.38 307.985 3
8 -11 -28 414.14 231.685 2
28 11 -8 415.332 167.889 3
7 -11 -28 235.749 132.166 2
28 11 -7 320.814 199.888 3
6 -11 -28 402.822 194.867 2
28 11 -6 366.602 223.132 3
5 -11 -28 571.917 232.455 2
28 11 -5 632.635 237.044 3
28 11 -4 609.269 147.359 3
4 -11 -28 325.522 160.014 2
28 11 -3 345.803 215.893 3
3 -11 -28 131.92 72.9022 2
2 -11 -28 -23.6194 101.108 2
28 11 -2 -312.05 146.104 3
28 11 -1 1350.13 323.799 3
1 -11 -28 1443.98 336.906 2
28 11 0 1568.15 342.044 3
0 -11 -28 1869.44 379.187 2
28 1 -11 1353.2 325.45 3
28 11 1 1413.9 300.802 3
-1 -11 -28 1200.85 309.204 2
11 -2 -28 54.9685 65.4977 2
28 2 -11 -91.4243 126.825 3
28 11 2 -21.2905 62.165 3
-2 -11 -28 -46.772 88.5852 2
11 -3 -28 -16.449 93.6714 2
28 3 -11 13.2244 166.538 3
28 11 3 87.2164 100.875 3
-3 -11 -28 234.092 154.546 2
11 -4 -28 423.203 201.432 2
28 4 -11 551.391 207.431 3
28 11 4 270.373 196.282 3
11 -5 -28 694.695 258.282 2
28 5 -11 1180.98 303.233 3
28 11 5 602.453 242.167 3
11 -6 -28 255.041 101.85 2
28 11 6 509.701 202.85 3
28 6 -11 769.534 201.904 3
11 -7 -28 230.667 201.541 2
28 7 -11 192.192 148.904 3
28 8 -11 423.995 168.079 3
28 9 -11 1075.06 257.067 3
28 10 -11 2153.23 380.781 3
28 11 -11 396.155 181.038 3
28 12 -11 320.831 203.787 3
28 12 -10 1989.61 375.185 3
9 -12 -28 625.475 235.118 2
28 12 -9 1107.08 312.92 3
8 -12 -28 263.057 149.872 2
28 12 -8 459.149 189.873 3
7 -12 -28 450.362 217.384 2
28 12 -7 301.263 158.414 3
6 -12 -28 157.859 151.826 2
28 12 -6 227.489 169.332 3
5 -12 -28 -56.8195 101.012 2
28 12 -5 -54.1602 110.813 3
4 -12 -28 242.659 157.467 2
28 12 -4 261.992 223.516 3
3 -12 -28 73.7115 106.988 2
28 12 -3 -0.65849 105.948 3
2 -12 -28 1091.46 280.759 2
28 12 -2 791.393 276.584 3
1 -12 -28 140.989 70.104 2
28 12 -1 23.2419 102.537 3
28 12 0 104.094 67.5928 3
0 -12 -28 -42.6238 90.0235 2
28 12 1 68.8919 85.9056 3
-1 -12 -28 71.6515 121.02 2
28 2 -12 1153.22 297.103 3
28 12 2 797.803 273.813 3
-2 -12 -28 806.973 288.649 2
28 3 -12 139.698 144.434 3
28 12 3 -17.5519 86.6095 3
-3 -12 -28 207.022 183.771 2
28 4 -12 478.065 193.527 3
28 12 4 65.5963 48.9879 3
28 5 -12 343.842 206.308 3
28 12 5 105.872 110.577 3
28 6 -12 345.493 207.421 3
28 7 -12 456.494 148.665 3
28 8 -12 291.108 94.0091 3
28 9 -12 573.467 180.176 3
28 10 -12 1508.33 324.715 3
28 11 -12 304.419 146.355 3
28 12 -12 -43.2703 149.515 3
28 13 -12 1789.76 340.778 3
28 13 -11 56.8014 124.796 3
28 13 -10 457.401 217.139 3
9 -13 -28 54.7248 105.873 2
28 13 -9 175.593 122.157 3
8 -13 -28 1305.94 277.321 2
28 13 -8 1199.92 287.716 3
7 -13 -28 465.597 150.985 2
28 13 -7 649.342 179.553 3
6 -13 -28 70.1301 108.675 2
28 13 -6 -121.831 162.989 3
5 -13 -28 155.217 200.811 2
28 13 -5 9.44907 55.9733 3
4 -13 -28 315.075 190.489 2
28 13 -4 151.277 117.324 3
3 -13 -28 664.415 244.796 2
28 13 -3 696.85 235.751 3
2 -13 -28 404.343 219.532 2
28 13 -2 448.954 195.886 3
1 -13 -28 287.813 196.043 2
28 13 -1 145.698 180.316 3
0 -13 -28 225.296 124.185 2
28 13 0 171.183 111.957 3
28 13 1 57.9614 73.1037 3
-1 -13 -28 281.285 161.452 2
28 2 -13 815.186 230.783 3
-2 -13 -28 478.095 207.802 2
28 13 2 427.555 195.9 3
28 3 -13 885.012 252.258 3
28 13 3 80.4522 134.025 3
-3 -13 -28 519.535 207.251 2
28 4 -13 190.29 160.495 3
28 13 4 23.8011 57.3859 3
-4 -13 -28 150.478 146.536 2
28 5 -13 160.058 205.712 3
28 13 5 -10.0714 96.7466 3
28 6 -13 191.813 99.0013 3
28 7 -13 574.523 154.229 3
28 8 -13 1218.5 288.571 3
28 9 -13 239.956 162.155 3
28 10 -13 -33.3197 74.6438 3
28 11 -13 297.851 186.578 3
28 12 -13 2307.37 423.513 3
28 13 -13 735.343 227.497 3
28 14 -13 316.995 174.639 3
28 14 -12 908.645 258.666 3
28 14 -11 923.264 293.13 3
28 14 -10 137.755 78.8261 3
28 14 -9 41.3139 118.86 3
8 -14 -28 456.429 146.299 2
28 14 -8 446.19 212.083 3
7 -14 -28 54.1162 122.736 2
28 14 -7 90.4861 146.82 3
6 -14 -28 389.458 132.712 2
28 14 -6 101.699 91.5384 3
5 -14 -28 -83.7592 72.6022 2
28 14 -5 182.615 183.596 3
4 -14 -28 515 181.3 2
28 14 -4 708.188 226.578 3
3 -14 -28 74.4099 55.6481 2
28 14 -3 -38.0616 122.33 3
2 -14 -28 12.1384 113.938 2
28 14 -2 65.6383 135.133 3
1 -14 -28 29.3443 113.469 2
28 14 -1 134.724 149.608 3
0 -14 -28 1914.83 366.484 2
28 14 0 1087.85 355.113 3
-1 -14 -28 526.792 199.904 2
28 14 1 95.0435 171.748 3
28 14 2 39.7824 101.594 3
-2 -14 -28 193.894 175.528 2
28 3 -14 28.4662 83.7999 3
28 14 3 -69.5922 126.062 3
-3 -14 -28 107.96 56.0735 2
28 4 -14 734.742 222.612 3
28 14 4 421.146 169.597 3
-4 -14 -28 724.456 227.049 2
28 14 5 5.77737 91.1911 3
-5 -14 -28 -102.61 115.176 2
28 6 -14 317.18 158.419 3
28 7 -14 -62.8914 67.7231 3
28 8 -14 537.827 233.265 3
28 9 -14 -220.077 166.98 3
28 10 -14 -36.7717 140.585 3
28 11 -14 2004.27 471.005 3
28 12 -14 890.376 256.292 3
28 13 -14 230.291 114.889 3
28 14 -14 101.349 114.345 3
28 15 -14 1543.9 301.235 3
28 15 -13 71.4247 154.357 3
28 15 -12 -321.169 146.458 3
28 15 -11 261.16 80.1047 3
28 15 -10 983.092 308.802 3
28 15 -9 162.194 109.598 3
8 -15 -28 5.4789 99.8974 2
28 15 -8 8.993 103.5 3
7 -15 -28 -1.45791 96.898 2
28 15 -7 -16.9739 129.264 3
6 -15 -28 194.575 171.54 2
28 15 -6 110.898 94.7926 3
5 -15 -28 21.3656 57.5816 2
28 15 -5 36.391 151.98 3
4 -15 -28 133.244 116.573 2
28 15 -4 77.926 116.52 3
3 -15 -28 -3.30488 56.6951 2
28 15 -3 200.062 175.662 3
2 -15 -28 1377.16 320.166 2
28 15 -2 868.077 275.643 3
1 -15 -28 238.958 137.382 2
28 15 -1 152.598 159.457 3
0 -15 -28 232.549 108.617 2
28 15 0 20.5693 111.372 3
-1 -15 -28 361.728 190.494 2
28 15 1 124.953 149.726 3
-2 -15 -28 1628.77 304.97 2
28 15 2 738.052 266.782 3
28 15 3 9.14787 46.6322 3
-3 -15 -28 -78.331 108.292 2
28 4 -15 200.196 198.586 3
28 15 4 -85.5214 140.873 3
-4 -15 -28 101.732 100.518 2
28 5 -15 307.03 151.563 3
-5 -15 -28 342.025 179.639 2
28 15 5 46.7263 108.009 3
28 6 -15 6.9685 59.2174 3
-6 -15 -28 91.3337 164.002 2
28 7 -15 288.479 205.624 3
28 8 -15 109.104 64.3595 3
28 9 -15 56.4484 68.0691 3
28 10 -15 1670.49 334.302 3
28 11 -15 461.564 181.568 3
28 12 -15 -9.89392 71.1485 3
28 13 -15 197.494 156.129 3
28 14 -15 1395.76 280.835 3
28 15 -15 626.802 204.071 3
28 16 -15 84.1408 83.1741 3
28 16 -14 -124.895 119.625 3
28 16 -13 294.756 162.072 3
28 16 -12 607.613 268.378 3
28 16 -11 -75.4467 120.08 3
28 16 -10 -24.9424 88.6345 3
28 16 -9 71.7857 148.673 3
28 16 -8 65.0364 78.8196 3
7 -16 -28 95.5716 66.3255 2
28 16 -7 95.0007 99.0653 3
6 -16 -28 280.08 161.41 2
28 16 -6 -23.6478 75.5959 3
5 -16 -28 -4.83567 140.279 2
28 16 -5 -16.3749 70.5297 3
4 -16 -28 116.987 70.0736 2
28 16 -4 107.093 128.745 3
3 -16 -28 450.55 146.314 2
28 16 -3 297.01 181.721 3
2 -16 -28 336.879 137.846 2
28 16 -2 410.844 183.104 3
1 -16 -28 700.647 221.779 2
28 16 -1 444.769 232.466 3
0 -16 -28 26.8753 54.6698 2
28 16 0 15.5413 75.8569 3
-1 -16 -28 717.275 181.714 2
28 16 1 602.732 216.828 3
-2 -16 -28 302.459 127.094 2
28 16 2 263.722 203.857 3
28 16 3 238.123 190.631 3
-3 -16 -28 649.227 210.715 2
28 4 -16 238.331 200.441 3
28 16 4 69.6723 70.8519 3
-4 -16 -28 70.1554 71.08 2
28 5 -16 132.999 143.456 3
28 16 5 125.04 143.655 3
-5 -16 -28 27.223 47.6916 2
28 6 -16 188.722 152.106 3
-6 -16 -28 123.887 99.8748 2
28 7 -16 232.656 158.942 3
-7 -16 -28 135.508 100.038 2
28 8 -16 226.857 167.941 3
28 9 -16 255.456 135.351 3
28 10 -16 -80.7605 131.405 3
28 11 -16 393.95 144.433 3
28 12 -16 128.698 109.661 3
28 13 -16 331.325 123.786 3
28 14 -16 -46.2962 78.6856 3
16 28 -15 -67.7142 120.177 3
28 15 -16 30.1288 64.8965 3
28 16 -16 433.862 137.304 3
16 28 -16 236.185 64.8847 3
28 17 -16 84.7731 53.0511 3
16 28 -17 89.7311 96.7993 3
28 17 -15 280.47 167.246 3
15 28 -17 24.8017 92.6126 3
28 17 -14 112.067 134.609 3
28 17 -13 949.007 254.543 3
28 17 -12 1246.24 302.498 3
28 17 -11 187.072 99.8902 3
28 17 -10 93.4821 125.9 3
28 17 -9 184.378 132.335 3
28 17 -8 124.121 157.327 3
28 17 -7 270.213 168.451 3
6 -17 -28 85.9026 93.0135 2
28 17 -6 166.21 141.206 3
5 -17 -28 182.907 138.606 2
28 17 -5 15.6431 68.502 3
17 28 5 -30.5396 118.766 3
4 -17 -28 972.706 248.5 2
28 17 -4 725.029 309.569 3
3 -17 -28 46.1029 127.706 2
28 17 -3 -30.6669 51.9591 3
2 -17 -28 505.835 169.305 2
28 17 -2 21.688 87.8289 3
1 -17 -28 -25.2426 58.4755 2
28 17 -1 167.207 138.179 3
28 17 0 2322.98 401.508 3
0 -17 -28 2192.05 347.159 2
-1 -17 -28 8.91746 120.393 2
28 17 1 -5.94969 45.7286 3
-2 -17 -28 309.278 127.509 2
28 17 2 95.4628 98.46 3
-3 -17 -28 -217.467 149.305 2
28 17 3 26.9508 72.4211 3
28 17 4 313.99 178.703 3
-4 -17 -28 738.809 204.532 2
28 5 -17 143.683 136.5 3
28 17 5 13.607 82.1007 3
-5 -17 -28 186.978 129.673 2
28 6 -17 136.223 59.8471 3
-6 -17 -28 -75.9191 101.246 2
28 7 -17 436.551 163.037 3
-7 -17 -28 267.895 150.293 2
28 8 -17 -33.6139 83.4146 3
-8 -17 -28 117.995 94.6801 2
28 9 -17 418.899 237.539 3
-9 -17 -28 33.5191 54.4702 2
28 10 -17 320.346 170.553 3
28 11 -17 725.76 206.54 3
28 12 -17 1036.83 234.337 3
17 28 -13 661.232 229.199 3
28 13 -17 797.502 222.939 3
28 14 -17 4.7177 64.7952 3
17 28 -14 -290.906 127.41 3
28 15 -17 102.558 114.651 3
17 28 -15 99.1606 121.18 3
28 16 -17 -98.469 89.278 3
17 28 -16 221.365 126.535 3
28 17 -17 10.279 85.4254 3
17 28 -17 174.098 103.227 3
28 18 -17 41.0691 105.589 3
17 28 -18 0.39588 62.8787 3
28 18 -16 596.247 172.165 3
16 28 -18 116.309 177.921 3
28 18 -15 20.5768 79.0938 3
15 28 -18 -1.09697 66.5421 3
28 18 -14 208.785 95.936 3
14 28 -18 115.185 46.6846 3
28 18 -13 282.533 157.591 3
28 18 -12 111.978 71.3573 3
28 18 -11 441.477 176.826 3
28 18 -10 83.0988 109.346 3
28 18 -9 389.949 195.773 3
28 18 -8 40.2553 169.695 3
28 18 -7 206.815 183.17 3
28 18 -6 258.28 187.114 3
5 -18 -28 52.7774 146.479 2
28 18 -5 160.648 93.9121 3
4 -18 -28 46.4683 76.7209 2
18 28 4 50.1623 60.2508 3
3 -18 -28 215.642 114.311 2
28 18 -3 169.888 130.162 3
18 28 3 15.8383 67.2762 3
18 28 2 -17.6508 58.9769 3
2 -18 -28 441.646 137.722 2
28 18 -2 216.923 142.094 3
1 -18 -28 1171.84 263.652 2
28 18 -1 494.896 215.557 3
0 -18 -28 54.4536 108.952 2
28 18 0 18.7391 80.5312 3
-1 -18 -28 689.941 198.418 2
28 18 1 406.273 241.93 3
28 18 2 1.50299 86.7462 3
-2 -18 -28 -18.0895 81.8186 2
-3 -18 -28 438.899 148.205 2
28 18 3 438.983 204.784 3
-4 -18 -28 382.245 144.145 2
28 18 4 9.43604 68.8752 3
-5 -18 -28 436.494 147.5 2
28 6 -18 459.244 192.905 3
-6 -18 -28 233.587 110.244 2
28 7 -18 453.586 157.08 3
-7 -18 -28 318.48 167.513 2
28 8 -18 298.555 181.385 3
-8 -18 -28 188.774 95.1181 2
-9 -18 -28 62.2836 146.268 2
28 9 -18 581.981 274.297 3
28 10 -18 64.2832 95.151 3
-10 -18 -28 33.1757 152.024 2
18 28 -11 607.433 281.254 3
28 11 -18 528.896 180.195 3
-11 -18 -28 49.4624 178.066 2
28 12 -18 326.668 115.828 3
18 28 -12 4.40842 91.1768 3
28 13 -18 222.369 101.827 3
18 28 -13 175.035 135.419 3
28 14 -18 543.39 192.49 3
18 28 -14 227.81 137.181 3
28 15 -18 1.6309 60.6189 3
18 28 -15 -8.56913 113.8 3
28 16 -18 57.4105 92.1254 3
18 28 -16 494.933 130.052 3
28 17 -18 -27.4167 108.355 3
18 28 -17 36.0591 109.927 3
28 18 -18 58.1812 107.435 3
18 28 -18 109.275 144.199 3
28 19 -18 10.1651 39.6607 3
18 28 -19 3.14769 101.532 3
28 19 -17 -6.6199 39.8718 3
17 28 -19 21.8488 67.3206 3
28 19 -16 225.349 111.376 3
16 28 -19 0.37678 68.8152 3
28 19 -15 570.542 169.383 3
15 28 -19 109.627 166.945 3
28 19 -14 140.516 103.834 3
14 28 -19 4.98858 88.5409 3
28 19 -13 204.965 131.658 3
13 28 -19 2.59153 125.601 3
28 19 -12 60.9495 86.5017 3
28 19 -11 654.924 188.758 3
28 19 -10 236.298 161.687 3
28 19 -9 603.911 188.44 3
28 19 -8 69.6297 82.9446 3
28 19 -7 71.1281 52.7472 3
28 19 -6 130.962 150.636 3
28 19 -5 598.744 216.773 3
4 -19 -28 22.6121 126.135 2
28 19 -4 266.514 150.679 3
19 28 4 162.241 106.626 3
3 -19 -28 4.76145 113.033 2
28 19 -3 32.0535 66.5689 3
19 28 3 2.54758 66.4956 3
2 -19 -28 87.8717 148.388 2
28 19 -2 540.859 181.277 3
19 28 2 71.0249 152.954 3
1 -19 -28 11.3547 60.1654 2
28 19 -1 -39.6977 98.7569 3
19 28 1 4.07951 102.278 3
0 -19 -28 63.7974 199.947 2
28 19 0 35.005 146.863 3
19 28 0 183.815 117.191 3
-1 -19 -28 -12.638 110.904 2
28 19 1 43.9728 75.7445 3
19 28 -1 14.176 63.6679 3
19 28 -2 408.983 214.846 3
-2 -19 -28 85.0331 192.358 2
28 19 2 379.142 188.979 3
19 28 -3 128.395 143.311 3
-3 -19 -28 100.551 164.799 2
28 19 3 39.1595 73.1282 3
19 28 -4 436.893 195.444 3
-4 -19 -28 60.4944 160.7 2
28 19 4 161.939 140.588 3
19 28 -5 466.986 215.485 3
-5 -19 -28 72.204 198.764 2
19 28 -6 11.9642 118.263 3
-6 -19 -28 -32.8697 120.141 2
19 28 -7 -13.3897 71.1641 3
28 7 -19 -101.998 105.593 3
-7 -19 -28 12.5885 153.28 2
28 8 -19 -103.83 123.472 3
-8 -19 -28 57.7074 158.891 2
19 28 -8 60.0552 53.6618 3
28 9 -19 891.694 221.621 3
19 28 -9 529.844 172.547 3
-10 -19 -28 -5.02017 56.5302 2
19 28 -10 -10.602 98.0872 3
-11 -19 -28 76.1517 127.603 2
19 28 -11 115.15 66.2393 3
28 12 -19 284.714 130.352 3
-12 -19 -28 0.61182 85.8725 2
19 28 -12 183.393 158.767 3
28 13 -19 9.95957 110.229 3
-13 -19 -28 117.652 170.804 2
19 28 -13 247.168 142.648 3
28 14 -19 178.536 152.552 3
-14 -19 -28 66.5789 121.491 2
19 28 -14 117.044 134.354 3
28 15 -19 10.1773 165.851 3
-15 -19 -28 61.6265 124.394 2
19 28 -15 418.662 146.208 3
28 16 -19 -0.40135 81.8653 3
-16 -19 -28 25.4522 100.977 2
19 28 -16 293.806 148.421 3
28 17 -19 55.9269 115.291 3
19 28 -17 6.71797 106.322 3
28 18 -19 38.1379 119.848 3
-18 -19 -28 86.5392 114.83 2
19 28 -18 5.36794 90.592 3
28 20 -17 4.81557 134.237 3
17 28 -20 -0.15534 45.1477 3
28 20 -16 546.763 213.5 3
16 28 -20 164.644 168.822 3
28 20 -15 204.795 148.721 3
15 28 -20 4.57788 118.156 3
28 20 -14 511.787 196.059 3
14 28 -20 67.8101 125.26 3
28 20 -13 201.204 182.606 3
13 28 -20 37.3411 64.5751 3
28 20 -12 112.024 146.684 3
12 28 -20 7.62621 98.3549 3
28 20 -11 440.946 144.114 3
28 20 -10 -44.8423 137.248 3
28 20 -9 623.746 273.535 3
28 20 -8 44.5848 95.9046 3
28 20 -7 204.098 156.115 3
28 20 -6 204.419 167.746 3
28 20 -5 266.328 152.971 3
28 20 -4 127.98 135.832 3
20 28 4 86.0009 95.771 3
28 20 -3 265.869 213.524 3
20 28 3 329.658 206.431 3
28 20 -2 160.272 133.348 3
20 28 2 298.425 205.677 3
1 -20 -28 25.4374 134.356 2
28 20 -1 176.766 153.451 3
20 28 1 239.648 188.7 3
0 -20 -28 7.71256 80.9632 2
28 20 0 42.8851 103.175 3
20 28 0 -1.75963 87.4016 3
-1 -20 -28 23.4106 122.904 2
28 20 1 78.2868 133.225 3
20 28 -1 306.072 165.458 3
-2 -20 -28 56.0731 113.549 2
28 20 2 144.229 150.533 3
20 28 -2 177.095 162.019 3
-3 -20 -28 145.894 192.174 2
28 20 3 470.75 183.003 3
20 28 -3 388.459 231.479 3
-4 -20 -28 88.7918 161.815 2
28 20 4 188.558 134.153 3
20 28 -4 378.71 192.316 3
-5 -20 -28 37.2656 142.84 2
20 28 -5 423.468 216.212 3
-6 -20 -28 37.22 142.346 2
20 28 -6 117.2 109.191 3
-7 -20 -28 25.037 125.569 2
20 28 -7 123.167 152.603 3
-8 -20 -28 93.3598 152.888 2
20 28 -8 58.8246 59.8792 3
28 9 -20 661.261 176.403 3
-9 -20 -28 199.753 201.222 2
20 28 -9 309.835 224.484 3
28 10 -20 84.2074 180.64 3
-10 -20 -28 44.4515 134.124 2
20 28 -10 153.815 134.642 3
28 11 -20 157.734 182.506 3
-11 -20 -28 147.072 147.437 2
20 28 -11 290.845 176.911 3
28 12 -20 4.55816 164.359 3
-12 -20 -28 75.71 120.98 2
20 28 -12 373.337 198.671 3
28 13 -20 8.76689 99.715 3
-13 -20 -28 -16.4647 90.5003 2
20 28 -13 124.6 95.3155 3
28 14 -20 65.2052 137.448 3
-14 -20 -28 17.7963 72.283 2
28 15 -20 -13.4233 87.1406 3
-15 -20 -28 -14.6527 59.2746 2
20 28 -15 96.2682 66.1515 3
-16 -20 -28 138.859 109.604 2
28 16 -20 49.2246 182.599 3
28 17 -20 1.65343 99.9762 3
20 28 -17 0.71156 103.327 3
28 21 -16 33.1287 137.064 3
16 28 -21 -8.09434 43.5031 3
28 21 -15 116.559 102.459 3
15 28 -21 10.4906 57.8712 3
28 21 -14 92.0403 78.583 3
14 28 -21 9.65708 33.6056 3
28 21 -13 676.041 227.183 3
13 28 -21 866.108 166.716 3
28 21 -12 47.1863 63.8738 3
12 28 -21 3.70303 97.9742 3
28 21 -11 514.535 216.607 3
11 28 -21 209.272 158.878 3
28 21 -10 91.781 58.8526 3
28 21 -9 54.5209 107.117 3
28 21 -8 -25.8038 75.0736 3
28 21 -7 632.477 237.57 3
28 21 -6 354.389 197.105 3
28 21 -5 153.628 115.801 3
28 21 -4 -31.3963 144.353 3
28 21 -3 69.9998 148.908 3
21 28 3 63.6308 48.07 3
28 21 -2 399.321 198.44 3
21 28 2 121.424 152.932 3
28 21 -1 -9.77575 91.0353 3
21 28 1 -20.4657 64.1246 3
28 21 0 -10.6141 59.9225 3
21 28 0 48.7907 152.991 3
28 21 1 2.4859 73.3555 3
21 28 -1 -22.55 85.0001 3
28 21 2 454.649 155.978 3
21 28 -2 416.411 237.931 3
28 21 3 80.2215 131.682 3
21 28 -3 149.56 127.209 3
21 28 -4 -56.0384 92.0667 3
21 28 -5 224.674 155.399 3
21 28 -6 312.848 178.789 3
21 28 -7 649.995 223.984 3
21 28 -8 -82.8129 77.4311 3
21 28 -9 56.4208 91.5759 3
21 28 -10 -26.9121 64.5354 3
21 28 -11 283.281 172.094 3
28 12 -21 9.40752 47.8634 3
21 28 -12 -27.6762 61.8678 3
28 13 -21 170.967 182.322 3
21 28 -13 456.96 179.378 3
28 14 -21 6.27417 59.1552 3
21 28 -14 63.2635 46.1955 3
28 15 -21 8.35949 153.658 3
21 28 -15 186.644 141.289 3
28 16 -21 -0.15251 53.9774 3
21 28 -16 148.954 131.312 3
28 22 -15 -52.156 91.6826 3
15 28 -22 7.0156 38.2721 3
14 28 -22 23747.7 927.283 3
28 22 -14 190.808 166.521 3
28 22 -13 60.5818 84.368 3
13 28 -22 -6.41733 56.9742 3
28 22 -12 58.9896 99.9107 3
12 28 -22 32.0248 104.545 3
28 22 -11 180.438 149.442 3
11 28 -22 46.956 114.143 3
28 22 -10 66.863 123.723 3
10 28 -22 -1.61444 75.1421 3
28 22 -9 326.414 144.716 3
9 28 -22 7.29742 113.777 3
28 22 -8 38.4685 78.0813 3
28 22 -7 330.217 147.144 3
28 22 -6 112.01 148.104 3
28 22 -5 76.534 196.833 3
28 22 -4 274.975 142.644 3
28 22 -3 460.081 191.09 3
22 28 3 311.835 158.815 3
28 22 -2 40.8907 126.632 3
22 28 2 42.1827 65.2621 3
28 22 -1 151.789 159.046 3
22 28 1 185.343 138.248 3
28 22 0 443.532 183.559 3
22 28 0 371.112 192.814 3
28 22 1 353.117 179.818 3
22 28 -1 233.899 138.544 3
28 22 2 20.3758 79.3367 3
22 28 -2 28.5586 97.1474 3
28 22 3 212.718 140.738 3
22 28 -3 245.452 102.397 3
22 28 -4 685.838 236.12 3
22 28 -5 62.9088 108.988 3
22 28 -6 405.077 142.831 3
22 28 -7 271.34 138.967 3
22 28 -8 12.4053 94.5389 3
22 28 -9 470.777 173.045 3
22 28 -10 -26.5715 68.8629 3
22 28 -11 188.923 154.464 3
22 28 -12 313.233 178.649 3
22 28 -13 -3.90387 93.65 3
22 28 -14 144.243 136.089 3
22 28 -15 -53.2222 77.6712 3
28 23 -13 104.447 66.1671 3
28 23 -12 40.5139 50.2107 3
28 23 -11 276.044 130.36 3
28 23 -10 -44.6471 83.0333 3
28 23 -9 94.9964 104.788 3
28 23 -8 29.4955 93.7604 3
28 23 -7 -6.70167 79.5293 3
28 23 -6 274.83 153.74 3
28 23 -5 109.573 132.672 3
28 23 -4 264.549 144.672 3
28 23 -3 -21.8251 59.0644 3
23 28 3 142.371 118.749 3
28 23 -2 164.233 110.538 3
23 28 2 123.286 102.992 3
28 23 -1 76.156 58.7042 3
23 28 1 97.1169 107.329 3
28 23 0 643.025 224.809 3
23 28 0 900.136 221.683 3
28 23 1 98.662 41.4919 3
23 28 -1 171.914 115.301 3
28 23 2 115.792 89.5933 3
23 28 -2 47.5932 78.7108 3
28 23 3 -26.7145 110.266 3
23 28 -3 -8.97537 105.774 3
23 28 -4 244.962 124.493 3
23 28 -5 63.8854 114.379 3
23 28 -6 201.162 127.708 3
23 28 -7 -37.0872 49.6897 3
23 28 -8 148.099 130.812 3
23 28 -9 37.0137 70.7284 3
23 28 -10 -29.1072 113.895 3
23 28 -11 125.211 98.2736 3
23 28 -12 65.2087 75.7118 3
23 28 -13 138.05 73.0741 3
28 24 -11 54.2173 76.2328 3
28 24 -10 184.653 125.929 3
28 24 -9 28.1386 99.078 3
28 24 -8 296.535 147.659 3
28 24 -7 241.461 154.497 3
28 24 -6 5.54254 82.57 3
28 24 -5 52.7229 103.112 3
28 24 -4 111.505 96.7005 3
28 24 -3 262.294 140.809 3
28 24 -2 467.05 187.15 3
24 28 2 388.719 151.484 3
28 24 -1 98.7351 115.781 3
24 28 1 99.8551 105.197 3
28 24 0 59.3043 103.775 3
24 28 0 -62.4485 100.379 3
28 24 1 110.393 106.95 3
24 28 -1 64.7776 94.5692 3
28 24 2 312.335 148.241 3
24 28 -2 314.462 154.408 3
24 28 -3 253.43 163.822 3
24 28 -4 83.9953 63.9105 3
24 28 -5 73.7541 139.988 3
24 28 -6 193.217 137.882 3
24 28 -7 117.587 85.9903 3
24 28 -8 249.206 123.865 3
24 28 -9 -8.32575 59.651 3
24 28 -10 7.68562 75.8499 3
24 28 -11 73.1516 59.5192 3
28 25 -9 -50.9536 79.6456 3
28 25 -8 -0.37904 98.138 3
28 25 -7 44.2014 97.3753 3
28 25 -6 -15.4619 55.9647 3
28 25 -5 27.7647 98.4844 3
28 25 -4 169.037 120.651 3
28 25 -3 60.0993 76.3484 3
28 25 -2 537.555 215.144 3
25 28 2 353.878 149.546 3
28 25 -1 -32.1039 46.2028 3
25 28 1 10.0542 65.3103 3
28 25 0 151.246 106.652 3
25 28 0 106.498 113.202 3
28 25 1 -34.2504 82.924 3
25 28 -1 -101.22 89.8436 3
28 25 2 168.752 101.689 3
25 28 -2 626.232 165.902 3
25 28 -3 3.73276 87.9776 3
25 28 -4 203.9 136.154 3
25 28 -5 249.605 133.396 3
25 28 -6 -33.2374 74.0695 3
25 28 -7 -76.1417 64.8368 3
25 28 -8 -37.2202 103.682 3
25 28 -9 -22.0292 93.59 3
28 26 -6 98.4473 99.0407 3
28 26 -5 54.1853 94.1576 3
28 26 -4 408.715 160.743 3
28 26 -3 94.6079 95.4226 3
28 26 -2 4.03626 61.5126 3
28 26 -1 3.71273 75.1814 3
26 28 1 90.3885 68.7963 3
28 26 0 45.4733 46.1835 3
26 28 0 67.2911 101.226 3
28 26 1 -11.6823 46.0568 3
26 28 -1 0.15447 33.4925 3
26 28 -2 52.5334 70.074 3
26 28 -3 -10.4679 89.5662 3
26 28 -4 395.297 175.552 3
26 28 -5 141.035 98.0028 3
26 28 -6 283.38 107.242 3
0 0 -29 182.695 224.674 2
1 0 -29 254.438 202.068 2
0 1 -29 148.663 118.418 2
0 -1 -29 97.3613 159.794 2
-1 0 -29 367.273 205.282 2
1 1 -29 59.7611 52.2159 2
1 -1 -29 102.735 126.832 2
-1 1 -29 99.1266 102.562 2
-1 -1 -29 -38.9824 125.926 2
2 1 -29 238.992 196.728 2
1 -2 -29 173.879 85.5226 2
-1 2 -29 354.877 161.923 2
-2 -1 -29 463.893 250.328 2
2 0 -29 12.3027 74.7261 2
0 2 -29 19.8001 87.6789 2
0 -2 -29 23.1077 70.2353 2
-2 0 -29 -34.9412 78.6327 2
2 -1 -29 122.186 131.896 2
1 2 -29 568.305 235.026 2
-1 -2 -29 386.176 193.565 2
-2 1 -29 323.234 169.82 2
29 2 -2 4.97573 106.015 3
2 -2 -29 76.3743 137.244 2
2 2 -29 85.5997 129.166 2
-2 2 -29 41.872 101.813 2
-2 -2 -29 125.473 155.541 2
29 3 -2 50.6318 78.5329 3
3 2 -29 193.085 109.869 2
2 -3 -29 362.481 237.638 2
-2 3 -29 320.028 156.227 2
3 1 -29 550.546 260.044 2
29 3 -1 68.6277 79.2793 3
1 -3 -29 88.8182 141.302 2
-1 3 -29 391.68 186.206 2
29 3 0 42.6536 172.238 3
3 0 -29 55.4185 86.436 2
0 3 -29 138.414 88.0144 2
0 -3 -29 -21.7944 72.637 2
-3 0 -29 -39.1982 58.0517 2
3 -1 -29 466.324 196.393 2
1 3 -29 365.41 183.454 2
-1 -3 -29 245.318 94.5906 2
-3 1 -29 229.402 114.189 2
3 -2 -29 359.602 246.715 2
29 2 -3 105.515 242.663 3
2 3 -29 262.191 123.957 2
-3 2 -29 267.165 189.12 2
-2 -3 -29 249.308 181.276 2
3 3 -29 109.967 93.8916 2
29 3 -3 132.987 227.378 3
3 -3 -29 489.397 246.474 2
-3 3 -29 362.999 184.872 2
4 3 -29 45.0474 90.3986 2
3 -4 -29 166.925 146.41 2
29 4 -3 208.551 195.991 3
-3 4 -29 -44.8901 47.9254 2
4 2 -29 68.0206 139.899 2
29 4 -2 15.8496 116.877 3
2 -4 -29 45.3692 98.2543 2
-2 4 -29 136.03 82.2645 2
4 1 -29 895.344 253.669 2
29 4 -1 734.815 256.797 3
-1 4 -29 868.223 245.672 2
1 -4 -29 682.965 265.041 2
4 0 -29 249.352 155.373 2
29 4 0 159.671 213.791 3
0 4 -29 145.134 75.243 2
0 -4 -29 216.357 155.156 2
4 -1 -29 618.57 230.794 2
29 4 1 167.948 209.832 3
1 4 -29 838.177 245.932 2
-1 -4 -29 763.511 280.789 2
29 2 -4 -2.06399 89.4961 3
29 4 2 6.84258 105.803 3
4 -2 -29 -11.1065 97.2415 2
2 4 -29 92.9925 91.4152 2
-2 -4 -29 93.1497 55.1533 2
3 4 -29 -46.999 92.6181 2
29 3 -4 190.957 154.629 3
4 -3 -29 264.541 200.364 2
-4 3 -29 73.5843 130.256 2
4 -4 -29 -2.91744 98.2154 2
4 4 -29 -19.0036 71.5854 2
29 4 -4 -30.5201 126.674 3
-4 4 -29 154.88 139.015 2
4 -5 -29 883.451 261.869 2
5 4 -29 1022.08 255.027 2
29 5 -4 1071.58 294.707 3
-4 5 -29 938.336 226.66 2
3 -5 -29 1072.15 300.049 2
5 3 -29 848.593 235.363 2
-3 5 -29 631.682 201.298 2
29 5 -3 609.683 271.658 3
5 2 -29 323.365 154.393 2
29 5 -2 147.604 151.433 3
2 -5 -29 226.077 160.355 2
-2 5 -29 337.574 188.556 2
5 1 -29 32.7562 49.1091 2
-1 5 -29 114.075 99.3643 2
1 -5 -29 -19.2745 83.6774 2
29 5 -1 31.5563 129.865 3
29 5 0 134.99 175.018 3
5 0 -29 -12.3433 64.2559 2
0 5 -29 170.978 142.627 2
0 -5 -29 55.8535 145.508 2
5 -1 -29 151.336 135.476 2
1 5 -29 228.625 151.793 2
29 5 1 98.6099 160.863 3
-1 -5 -29 44.0665 130.604 2
29 2 -5 29.6689 111.73 3
2 5 -29 339.289 168.18 2
5 -2 -29 220.683 183.834 2
29 5 2 129.402 92.817 3
-2 -5 -29 330.433 179.549 2
29 5 3 156.658 262.878 3
3 5 -29 588.665 191.045 2
5 -3 -29 642.312 265.216 2
29 3 -5 660.921 272.874 3
4 5 -29 819.706 216.167 2
5 -4 -29 776.985 304.686 2
29 4 -5 968.837 270.589 3
5 5 -29 2055.72 342.782 2
5 -5 -29 1516.72 364.314 2
29 5 -5 1847.49 376.422 3
-5 5 -29 2025.47 315.579 2
6 5 -29 196.135 104.697 2
5 -6 -29 23.9436 110.098 2
29 6 -5 66.6143 168.389 3
-5 6 -29 101.75 64.283 2
6 4 -29 149.15 93.5511 2
4 -6 -29 163.156 180.798 2
29 6 -4 92.258 76.2213 3
-4 6 -29 -113.673 99.5645 2
6 3 -29 588.708 224.343 2
3 -6 -29 437.535 196.48 2
29 6 -3 511.726 227.079 3
-3 6 -29 640.269 185.089 2
29 6 -2 134.426 207.185 3
6 2 -29 105.762 50.0206 2
-2 6 -29 204.115 52.2863 2
2 -6 -29 275.37 168.246 2
-1 6 -29 622.066 192.552 2
6 1 -29 255.097 128.505 2
29 6 -1 480.349 220.608 3
1 -6 -29 617.884 238.512 2
6 0 -29 699.375 261.538 2
29 6 0 516.24 280.423 3
0 6 -29 731.324 213.204 2
0 -6 -29 736.174 250.78 2
29 6 1 135.003 187.423 3
6 -1 -29 262.466 219.627 2
1 6 -29 616.001 200.226 2
-1 -6 -29 321.889 196.689 2
6 -2 -29 193.155 125.386 2
2 6 -29 97.2776 114.388 2
29 2 -6 163.188 113.736 3
29 6 2 134.372 172.392 3
-2 -6 -29 223.85 204.766 2
3 6 -29 907.232 203.277 2
6 -3 -29 699.898 224.555 2
29 6 3 761.045 236.741 3
29 3 -6 1107.9 295.437 3
4 6 -29 207.414 67.4134 2
6 -4 -29 79.7205 111.064 2
29 6 4 -0.82248 85.0613 3
29 4 -6 173.742 137.628 3
5 6 -29 9.11841 98.6644 2
6 -5 -29 151.366 113.224 2
29 5 -6 113.664 117.369 3
6 6 -29 -84.3666 104.829 2
6 -6 -29 42.9124 105.525 2
-6 6 -29 82.0169 80.6492 2
7 6 -29 302.173 105.41 2
6 -7 -29 208.63 154.893 2
29 7 -6 304.376 179.187 3
-6 7 -29 322.599 166.369 2
7 5 -29 976.613 242.669 2
5 -7 -29 521.898 215.84 2
29 7 -5 567.16 213.231 3
-5 7 -29 872.701 210.644 2
7 4 -29 687.262 218.137 2
4 -7 -29 307.062 171.236 2
29 7 -4 737.505 230.432 3
-4 7 -29 804.121 176.748 2
7 3 -29 934.948 257.211 2
3 -7 -29 463.865 235.22 2
29 7 -3 554.883 247.244 3
-3 7 -29 984.56 195.127 2
7 2 -29 163.766 145.55 2
-2 7 -29 156.949 96.6764 2
29 7 -2 160.256 74.3479 3
2 -7 -29 15.4951 110.787 2
7 1 -29 121.612 152.908 2
-1 7 -29 17.6245 86.7149 2
29 7 -1 3.84054 75.1212 3
1 -7 -29 143.142 115.141 2
7 0 -29 731.832 221.883 2
0 7 -29 962.453 211.482 2
29 7 0 725.582 270.559 3
0 -7 -29 533.708 289.2 2
7 -1 -29 255.41 195.711 2
1 7 -29 349.545 133.097 2
29 7 1 186.762 105.726 3
-1 -7 -29 86.073 129.145 2
7 -2 -29 192.565 128.573 2
2 7 -29 128.366 43.5119 2
29 2 -7 390.607 189.655 3
29 7 2 42.7928 154.102 3
-2 -7 -29 -65.5625 95.2601 2
29 3 -7 1407.88 327.225 3
7 -3 -29 874.805 270.056 2
3 7 -29 1026.76 220.793 2
29 7 3 477.248 234.642 3
4 7 -29 676.095 181.766 2
7 -4 -29 522.71 232.403 2
29 7 4 92.2294 182.203 3
29 4 -7 803.092 239.1 3
5 7 -29 1000.54 220.275 2
7 -5 -29 836.418 295.527 2
29 5 -7 1411.64 326.692 3
6 7 -29 435.944 172.545 2
7 -6 -29 166.11 118.408 2
29 6 -7 410.042 194.867 3
7 -7 -29 1289.9 346.211 2
29 7 -7 2026.76 342.793 3
-7 7 -29 1525.34 272.56 2
7 -8 -29 207.282 158.356 2
29 8 -7 337.794 160.404 3
-7 8 -29 156.384 120.602 2
6 -8 -29 290.482 215.306 2
29 8 -6 741.453 257.929 3
-6 8 -29 399.694 93.0726 2
8 5 -29 -106.918 97.6423 2
5 -8 -29 160.546 171.065 2
29 8 -5 83.4393 123.723 3
-5 8 -29 -109.482 151.451 2
8 4 -29 26.2515 102.3 2
4 -8 -29 124.019 164.669 2
29 8 -4 108.334 85.0356 3
-4 8 -29 437.109 160.166 2
8 3 -29 -187.642 109.677 2
29 8 -3 132.723 135.343 3
-3 8 -29 365.405 146.18 2
3 -8 -29 162.749 142.391 2
8 2 -29 1360.86 306.184 2
-2 8 -29 1157.67 215.467 2
29 8 -2 976.535 301.765 3
2 -8 -29 933.018 290.957 2
8 1 -29 432.632 174.676 2
-1 8 -29 662.717 115.977 2
29 8 -1 509.657 171.501 3
1 -8 -29 464.681 227.115 2
8 0 -29 13.6103 110.831 2
0 8 -29 -94.3228 124.893 2
29 8 0 -8.9976 112.723 3
0 -8 -29 -81.2098 146.245 2
8 -1 -29 417.069 154.067 2
1 8 -29 896.14 188.945 2
29 8 1 536.255 197.353 3
-1 -8 -29 546.591 235.565 2
8 -2 -29 971.549 347.661 2
2 8 -29 1133.5 219.774 2
29 2 -8 1343 326.136 3
29 8 2 1025.08 323.546 3
-2 -8 -29 911.714 303.557 2
8 -3 -29 53.5961 81.6146 2
3 8 -29 11.6406 121.987 2
29 3 -8 429.756 203.285 3
29 8 3 -7.58298 66.4546 3
-3 -8 -29 91.875 180.822 2
4 8 -29 28.0578 129.573 2
8 -4 -29 83.4566 106.774 2
29 8 4 84.1556 113.474 3
29 4 -8 251.125 72.4117 3
5 8 -29 -59.977 62.1991 2
8 -5 -29 47.1613 90.328 2
29 8 5 19.8574 172.274 3
29 5 -8 299.291 188.885 3
6 8 -29 252.579 137.208 2
8 -6 -29 246.915 162.546 2
29 6 -8 427.956 167.813 3
8 -7 -29 -0.32616 108.087 2
29 7 -8 337.032 162.676 3
8 -8 -29 779.216 254.789 2
29 8 -8 1114.59 282.999 3
-8 8 -29 527.13 203.222 2
8 -9 -29 178.196 169.98 2
29 9 -8 525.527 195.261 3
7 -9 -29 39.909 131.325 2
29 9 -7 -71.3724 151.067 3
6 -9 -29 1273.86 325.487 2
29 9 -6 1265.12 297.732 3
5 -9 -29 1122.46 318.866 2
29 9 -5 1991.58 383.223 3
4 -9 -29 45.88 73.4324 2
29 9 -4 112.546 161.976 3
9 3 -29 438.237 187.611 2
3 -9 -29 223.948 211.918 2
29 9 -3 538.97 183.77 3
9 2 -29 1178.37 273.389 2
2 -9 -29 977.681 324.968 2
29 9 -2 1476.27 347.43 3
9 1 -29 60.5469 111.658 2
29 9 -1 44.7061 78.6897 3
1 -9 -29 153.394 153.219 2
9 0 -29 99.2778 124.095 2
29 9 0 147.764 149.121 3
0 -9 -29 12.5143 114.729 2
9 -1 -29 31.0528 68.0024 2
29 9 1 5.38531 59.6109 3
-1 -9 -29 74.7491 105.882 2
9 -2 -29 595.163 279.947 2
29 2 -9 1614.35 332.248 3
29 9 2 715.691 287.223 3
-2 -9 -29 866.81 290.769 2
9 -3 -29 116.02 176.985 2
3 9 -29 191.923 127.673 2
29 9 3 103.871 72.7461 3
29 3 -9 485.561 218.911 3
-3 -9 -29 567.899 244.053 2
4 9 -29 49.3008 56.1158 2
9 -4 -29 78.1292 129.175 2
29 9 4 32.3144 98.5883 3
5 9 -29 1260.71 245.058 2
9 -5 -29 926.162 306.829 2
29 5 -9 1639.81 345.375 3
29 9 5 979.768 253.446 3
9 -6 -29 754.493 271.409 2
29 6 -9 1122.64 283.452 3
9 -7 -29 50.014 98.1085 2
29 7 -9 150.03 140.555 3
9 -8 -29 161.362 104.491 2
29 8 -9 235.192 83.0279 3
9 -9 -29 358.946 218.071 2
29 9 -9 666.603 222.715 3
9 -10 -29 289.269 104.925 2
29 10 -9 652.206 239.7 3
8 -10 -29 107.261 97.8548 2
29 10 -8 181.161 165.396 3
7 -10 -29 368.426 201.777 2
29 10 -7 417.693 149.744 3
6 -10 -29 791.256 243.843 2
29 10 -6 1322.71 315.729 3
5 -10 -29 358.187 207.794 2
29 10 -5 711.909 212.738 3
4 -10 -29 805.867 267.974 2
29 10 -4 706.85 224.358 3
3 -10 -29 419.944 203.021 2
29 10 -3 444.184 218.871 3
2 -10 -29 377.3 214.841 2
29 10 -2 213.353 178.817 3
10 1 -29 221.005 202.248 2
29 10 -1 296.019 105.574 3
1 -10 -29 353.58 190.433 2
10 0 -29 1788.1 408.25 2
29 10 0 1993.95 414.373 3
0 -10 -29 2765.68 453.124 2
10 -1 -29 136.252 181.44 2
29 10 1 71.826 170.05 3
-1 -10 -29 215.031 135.535 2
10 -2 -29 189.779 185.109 2
29 2 -10 371.657 111.668 3
29 10 2 39.8387 129.655 3
-2 -10 -29 236.128 208.449 2
10 -3 -29 55.9527 70.5814 2
29 10 3 134.796 111.526 3
-3 -10 -29 66.5876 119.321 2
10 -4 -29 678.178 249.231 2
29 4 -10 502.526 197.275 3
29 10 4 258.144 196.938 3
-4 -10 -29 456.429 198.256 2
10 -5 -29 221.054 121.611 2
29 10 5 242.628 120.467 3
29 5 -10 466.148 188.185 3
10 -6 -29 825.109 262.956 2
29 6 -10 998.821 253.982 3
29 10 6 170.886 190.06 3
10 -7 -29 203.785 206.568 2
29 7 -10 382.305 192.362 3
10 -8 -29 39.5114 149.272 2
29 8 -10 59.8798 148.327 3
10 -9 -29 201.139 136.481 2
29 9 -10 596.945 234.552 3
29 10 -10 483.71 212.013 3
29 11 -10 1134.19 272.519 3
9 -11 -29 220.472 107.017 2
29 11 -9 -62.9515 103.151 3
8 -11 -29 -47.7559 141.04 2
29 11 -8 -233.339 145.365 3
7 -11 -29 237.063 142.213 2
29 11 -7 787.232 273.462 3
6 -11 -29 171.318 159.213 2
29 11 -6 -35.8504 116.343 3
5 -11 -29 347.215 189.216 2
29 11 -5 635.701 207.605 3
4 -11 -29 462.681 237.775 2
29 11 -4 992.122 279.722 3
3 -11 -29 609.203 245.641 2
29 11 -3 685.686 252.093 3
2 -11 -29 162.843 146.09 2
29 11 -2 164.817 136.691 3
1 -11 -29 165.374 56.2148 2
29 11 -1 519.738 208.931 3
29 11 0 161.718 189.723 3
0 -11 -29 333.624 169.981 2
29 11 1 218.03 164.288 3
-1 -11 -29 714.9 255.347 2
29 11 2 15.5907 60.0994 3
-2 -11 -29 -6.14946 94.4077 2
29 3 -11 526.495 198.525 3
29 11 3 427.776 190.112 3
-3 -11 -29 542.288 216.215 2
29 11 4 368.561 173.813 3
29 4 -11 588.946 218.929 3
-4 -11 -29 591.529 258.266 2
29 11 5 169.973 144.957 3
29 5 -11 507.8 209.963 3
29 6 -11 162.074 139.68 3
29 11 6 -59.0954 76.3567 3
29 7 -11 474.003 139.284 3
29 8 -11 98.0784 73.0848 3
29 9 -11 124.56 168.915 3
29 10 -11 922.14 267.282 3
29 11 -11 219.665 120.054 3
29 12 -11 1210.95 298.885 3
29 12 -10 198.053 104.92 3
9 -12 -29 808.687 229.073 2
29 12 -9 556.971 156.279 3
8 -12 -29 236.491 138.364 2
29 12 -8 -25.1607 85.9772 3
7 -12 -29 76.6214 102.702 2
29 12 -7 -152.74 141.876 3
6 -12 -29 279.959 156.036 2
29 12 -6 473.645 191.693 3
5 -12 -29 56.2612 94.2917 2
29 12 -5 158.613 146.086 3
4 -12 -29 546.403 201.813 2
29 12 -4 596.254 217.272 3
3 -12 -29 95.118 108.52 2
29 12 -3 -43.014 140.905 3
2 -12 -29 930.743 242.513 2
29 12 -2 767.569 262.581 3
1 -12 -29 428.231 181.332 2
29 12 -1 544.466 231.663 3
0 -12 -29 -337.153 149.253 2
29 12 0 151.727 174.665 3
29 12 1 130.869 156.167 3
-1 -12 -29 382.497 210.772 2
29 12 2 659.376 250.682 3
-2 -12 -29 863.749 259.012 2
29 3 -12 217.235 148.063 3
29 12 3 120.169 133.053 3
-3 -12 -29 210.255 167.029 2
29 4 -12 833.077 279.481 3
29 12 4 113.899 101.133 3
-4 -12 -29 506.773 254.834 2
29 5 -12 114.43 106.005 3
29 12 5 63.8354 53.8932 3
-5 -12 -29 66.8705 130.405 2
29 6 -12 646.47 202.759 3
29 7 -12 146.925 135.304 3
29 8 -12 282.365 181.23 3
29 9 -12 918.896 261.341 3
29 10 -12 315.211 174.599 3
29 11 -12 1150.58 269.87 3
29 12 -12 75.7614 59.7746 3
29 13 -12 1042.43 263.91 3
29 13 -11 268.3 159.429 3
29 13 -10 228.545 191.81 3
29 13 -9 163.463 136.275 3
8 -13 -29 129.82 101.906 2
29 13 -8 91.2644 127.524 3
7 -13 -29 -42.9071 105.601 2
29 13 -7 -158.671 133.212 3
6 -13 -29 158.766 70.8133 2
29 13 -6 121.279 65.6155 3
5 -13 -29 440.364 173.483 2
29 13 -5 402.145 213.992 3
4 -13 -29 291.67 195.382 2
29 13 -4 7.79056 92.8664 3
3 -13 -29 525.564 235.865 2
29 13 -3 437.237 196.278 3
2 -13 -29 24.5809 58.6516 2
29 13 -2 83.6465 134.246 3
1 -13 -29 339.663 157.225 2
29 13 -1 229.725 147.892 3
0 -13 -29 200.51 99.527 2
29 13 0 116.996 124.321 3
29 13 1 51.7065 124.557 3
-1 -13 -29 606.658 235.499 2
29 13 2 -50.871 82.9272 3
-2 -13 -29 -102.365 78.0238 2
29 3 -13 760.669 230.541 3
29 13 3 313.668 180.623 3
-3 -13 -29 496.339 194.597 2
29 4 -13 210.215 100.744 3
29 13 4 157.255 104.73 3
-4 -13 -29 196.006 131.506 2
29 5 -13 93.4326 75.0139 3
29 13 5 -12.336 110.507 3
-5 -13 -29 197.122 140.584 2
29 6 -13 264.955 90.7521 3
-6 -13 -29 -95.2574 80.5898 2
29 7 -13 46.8735 81.5815 3
29 8 -13 503.499 232.427 3
29 9 -13 475.371 200.49 3
29 10 -13 634.527 226.243 3
29 11 -13 172.224 139.483 3
29 12 -13 1083.76 257.368 3
29 13 -13 942.11 202.936 3
29 14 -13 921.036 230.536 3
29 14 -12 713.666 239.374 3
29 14 -11 592.689 200.834 3
29 14 -10 -20.2954 71.2918 3
29 14 -9 547.444 228.941 3
8 -14 -29 16.1739 102.209 2
29 14 -8 -38.9636 87.9403 3
7 -14 -29 -78.0234 77.1601 2
29 14 -7 133.302 100.399 3
6 -14 -29 -59.3192 96.0802 2
29 14 -6 97.4932 162.965 3
5 -14 -29 100.872 116.365 2
29 14 -5 202.939 145.629 3
4 -14 -29 -28.4595 110.775 2
29 14 -4 20.0899 81.5848 3
3 -14 -29 344.56 114.144 2
29 14 -3 334.988 150.013 3
2 -14 -29 400.119 175.535 2
29 14 -2 58.8816 98.7775 3
29 14 -1 302.765 196.29 3
1 -14 -29 706.689 215.541 2
0 -14 -29 1571.22 305.164 2
29 14 0 797.327 248.855 3
-1 -14 -29 736.014 237.866 2
29 14 1 356.697 194.846 3
29 14 2 104.517 152.23 3
-2 -14 -29 210.976 150.001 2
29 14 3 54.8608 91.3863 3
-3 -14 -29 361.531 178.559 2
29 4 -14 139.507 126.661 3
29 14 4 242.781 155.561 3
-4 -14 -29 -74.4799 87.4778 2
29 14 5 -28.1605 69.605 3
-5 -14 -29 0.89899 100.265 2
29 5 -14 -139.659 171.399 3
29 6 -14 236.502 187.023 3
-6 -14 -29 96.3212 118.389 2
29 7 -14 160.365 167.04 3
29 8 -14 -274.428 196.9 3
29 9 -14 377.556 162.027 3
29 10 -14 -32.8228 137.653 3
29 11 -14 745.191 218.154 3
29 12 -14 375.13 131.551 3
29 13 -14 835.937 236.059 3
29 14 -14 133.478 102.596 3
29 15 -14 -96.6876 102.131 3
29 15 -13 124.213 138.204 3
29 15 -12 498.321 206.415 3
29 15 -11 262.907 159.045 3
29 15 -10 194.839 171.198 3
29 15 -9 337.455 206.282 3
29 15 -8 -175.611 150.6 3
7 -15 -29 -24.3821 69.8194 2
29 15 -7 202.721 171.677 3
6 -15 -29 101.481 132.37 2
29 15 -6 -17.2053 70.3647 3
5 -15 -29 173.145 49.6541 2
29 15 -5 380.771 206.568 3
4 -15 -29 202.782 121.407 2
29 15 -4 19.966 89.4932 3
3 -15 -29 331.201 167.922 2
29 15 -3 135.535 96.9086 3
2 -15 -29 231.298 160.165 2
29 15 -2 358.893 227.412 3
1 -15 -29 491.665 198.389 2
29 15 -1 756.626 316.399 3
0 -15 -29 618.977 230.688 2
29 15 0 170.121 94.0935 3
-1 -15 -29 656.188 200.573 2
29 15 1 380.908 202.458 3
-2 -15 -29 307.641 162.591 2
29 15 2 41.7696 54.3134 3
29 15 3 216.112 117.286 3
-3 -15 -29 -2.04516 48.6424 2
29 15 4 30.8924 57.8348 3
-4 -15 -29 78.5174 174.399 2
29 15 5 71.4882 147.772 3
-5 -15 -29 306.209 159.137 2
29 6 -15 48.6309 82.2636 3
-6 -15 -29 181.772 142.953 2
29 7 -15 40.5618 135.168 3
-7 -15 -29 -108.687 103.668 2
29 8 -15 356.08 182.837 3
-8 -15 -29 92.1067 84.5284 2
29 9 -15 371.225 141.691 3
29 10 -15 -48.1273 88.148 3
29 11 -15 573.77 205.798 3
29 12 -15 248.657 159.327 3
29 13 -15 135.93 62.0277 3
29 14 -15 215.239 135.066 3
29 15 -15 -86.6835 51.9217 3
15 29 -16 354.45 116.97 3
29 16 -15 262.325 135.448 3
29 16 -14 291.504 119.694 3
29 16 -13 167.13 129.257 3
29 16 -12 415.76 219.464 3
29 16 -11 328.098 147.128 3
29 16 -10 526.081 198.604 3
29 16 -9 36.8787 81.7375 3
29 16 -8 144.073 103.902 3
29 16 -7 42.8685 102.352 3
6 -16 -29 -132.392 125.329 2
29 16 -6 26.956 106.576 3
5 -16 -29 421.235 159.582 2
29 16 -5 221.407 113.663 3
4 -16 -29 174.168 91.77 2
29 16 -4 2.43004 114.753 3
3 -16 -29 1274.14 251.477 2
29 16 -3 703.868 228.976 3
2 -16 -29 89.7462 93.5316 2
29 16 -2 -42.6645 126.45 3
1 -16 -29 968.424 255.971 2
29 16 -1 740.515 240.922 3
0 -16 -29 453.758 187.507 2
29 16 0 188.926 114.945 3
-1 -16 -29 858.041 230.325 2
29 16 1 685.189 206.729 3
-2 -16 -29 121.901 102.814 2
29 16 2 9.42965 55.4316 3
-3 -16 -29 1073.51 242.212 2
29 16 3 333.954 192.007 3
29 16 4 -13.5337 101.972 3
-4 -16 -29 176.462 111.554 2
-5 -16 -29 235.286 102.36 2
29 6 -16 332.746 139.909 3
-6 -16 -29 3.55071 57.3532 2
29 7 -16 45.2575 172.683 3
-7 -16 -29 -59.0541 106.645 2
29 8 -16 399.719 154.012 3
-8 -16 -29 11.1514 77.6553 2
29 9 -16 81.8433 122.335 3
-9 -16 -29 88.0774 114.472 2
29 10 -16 544.032 176.847 3
29 11 -16 1263.36 268.693 3
29 12 -16 528.298 197.73 3
29 13 -16 209.672 93.9855 3
16 29 -14 170.164 47.5971 3
29 14 -16 423.974 159.535 3
29 15 -16 237.113 98.1107 3
16 29 -15 107.175 97.7694 3
29 16 -16 85.3851 81.1568 3
16 29 -16 7.42288 76.5382 3
29 17 -16 -67.5116 74.3622 3
16 29 -17 17.2054 90.9308 3
29 17 -15 210.868 139.349 3
15 29 -17 -7.84725 85.253 3
14 29 -17 125.146 93.1592 3
29 17 -14 268.329 137.078 3
29 17 -13 125.57 64.4271 3
29 17 -12 -12.4543 79.7315 3
29 17 -11 276.505 176.258 3
29 17 -10 44.0167 91.5117 3
29 17 -9 -36.4245 128.147 3
29 17 -8 189.563 144.035 3
29 17 -7 98.1492 127.643 3
29 17 -6 47.9485 66.3654 3
5 -17 -29 -170.233 109.45 2
29 17 -5 2.38119 97.3727 3
4 -17 -29 123.26 60.4663 2
29 17 -4 100.009 64.4396 3
17 29 4 71.5906 128.211 3
3 -17 -29 368.753 141.823 2
29 17 -3 210.867 77.0037 3
2 -17 -29 414.886 158.683 2
29 17 -2 453.106 206.342 3
1 -17 -29 25.6686 49.6783 2
29 17 -1 228.118 161.254 3
0 -17 -29 -196.339 145.548 2
29 17 0 -16.273 112.674 3
-1 -17 -29 173.639 130.604 2
29 17 1 26.7119 57.6076 3
-2 -17 -29 639.237 216.954 2
29 17 2 285.797 148.831 3
-3 -17 -29 260.761 146.759 2
29 17 3 75.8684 92.4335 3
29 17 4 87.5199 71.0634 3
-4 -17 -29 263.444 142.196 2
-5 -17 -29 54.7016 92.0685 2
-6 -17 -29 -49.7236 72.3315 2
29 7 -17 303.169 135.553 3
-7 -17 -29 266.768 175.991 2
29 8 -17 321.726 142.754 3
-8 -17 -29 12.4871 79.7281 2
29 9 -17 156.093 109.36 3
-9 -17 -29 12.2276 106.394 2
29 10 -17 376.737 81.9345 3
-10 -17 -29 13.5999 90.7217 2
29 11 -17 165.684 106.223 3
-11 -17 -29 67.912 136.998 2
17 29 -12 -88.9561 127.861 3
29 12 -17 9.14666 103.405 3
29 13 -17 135.679 73.3186 3
17 29 -13 69.931 58.1083 3
29 14 -17 188.291 122.085 3
17 29 -14 12.6624 96.0868 3
29 15 -17 78.2464 51.4159 3
17 29 -15 90.9734 134.862 3
29 16 -17 0.44077 68.0769 3
17 29 -16 108.717 109.679 3
29 17 -17 216.084 194.379 3
17 29 -17 131.642 147.388 3
29 18 -17 13.3716 79.2489 3
17 29 -18 26.349 98.0962 3
29 18 -16 -82.3765 90.7865 3
16 29 -18 -0.37635 42.4466 3
29 18 -15 93.0345 60.8485 3
15 29 -18 80.0783 103.948 3
29 18 -14 690.046 198.917 3
14 29 -18 949.3 193.909 3
13 29 -18 3.68769 114.786 3
29 18 -13 352.191 179.504 3
29 18 -12 299.974 200.469 3
29 18 -11 113.929 160.903 3
29 18 -10 -20.6193 119.97 3
29 18 -9 271.102 204.668 3
29 18 -8 234.288 195.114 3
29 18 -7 324.862 159.715 3
29 18 -6 158.166 144.042 3
29 18 -5 204.464 142.258 3
4 -18 -29 4.82719 101.518 2
29 18 -4 63.9856 75.0965 3
18 29 4 32.0291 135.869 3
3 -18 -29 47.5348 185.083 2
29 18 -3 536.557 198.662 3
18 29 3 328.811 193.723 3
2 -18 -29 9.82527 105.997 2
29 18 -2 111.14 60.6935 3
18 29 2 -22.2879 50.8192 3
18 29 1 408.235 200.077 3
1 -18 -29 111.374 200.318 2
29 18 -1 587.819 215.254 3
0 -18 -29 -168.451 131.541 2
29 18 0 5.63996 69.2511 3
-1 -18 -29 980.318 214.007 2
29 18 1 349.71 222.695 3
-2 -18 -29 151.011 116.925 2
29 18 2 25.4113 88.2527 3
-3 -18 -29 77.18 208.643 2
29 18 3 434.575 213.907 3
-4 -18 -29 -5.87941 42.1796 2
29 18 4 17.7731 105.745 3
-5 -18 -29 17.7169 81.6157 2
-6 -18 -29 12.7053 106.113 2
-7 -18 -29 21.0045 126.418 2
29 8 -18 530.167 233.661 3
-8 -18 -29 130.577 189.711 2
18 29 -9 204.841 158.337 3
29 9 -18 439.075 174.43 3
-9 -18 -29 3.61967 184.502 2
18 29 -10 429.338 187.871 3
29 10 -18 346.669 153.581 3
-10 -18 -29 121.718 184.131 2
29 11 -18 227.014 155.783 3
-11 -18 -29 16.1925 103.53 2
18 29 -11 53.0391 161.7 3
29 12 -18 164.729 167.196 3
-12 -18 -29 36.5243 157.323 2
18 29 -12 211.754 161.803 3
-13 -18 -29 54.0244 125.744 2
18 29 -13 493.634 170.347 3
29 14 -18 200.865 209.669 3
-14 -18 -29 261.53 204.489 2
29 15 -18 4.04469 73.6362 3
-15 -18 -29 60.2872 135.433 2
18 29 -15 44.1382 81.6839 3
29 16 -18 -6.23349 85.0612 3
-16 -18 -29 6.92372 33.2706 2
18 29 -16 78.3803 74.0424 3
29 17 -18 34.2719 62.4264 3
-17 -18 -29 -4.57531 46.9612 2
18 29 -17 0.18335 70.9295 3
29 18 -18 -0.69831 121.987 3
-18 -18 -29 9.88478 51.1472 2
18 29 -18 1.48198 72.0567 3
29 19 -17 -0.71627 114.039 3
17 29 -19 35.3492 89.0674 3
29 19 -16 63.2532 96.0524 3
16 29 -19 20.1106 93.0903 3
29 19 -15 370.325 165.949 3
15 29 -19 75.7899 131.29 3
29 19 -14 32.3265 89.9776 3
14 29 -19 5.99755 51.8913 3
29 19 -13 41.225 57.2513 3
13 29 -19 -2.15679 61.4065 3
12 29 -19 5.90603 122.23 3
29 19 -12 221.918 169.529 3
29 19 -11 98.3719 97.7329 3
29 19 -10 158.161 135.404 3
29 19 -9 166.13 142.755 3
29 19 -8 17.7559 62.6855 3
29 19 -7 9.07345 93.1869 3
29 19 -6 443.174 160.536 3
29 19 -5 500.491 165.825 3
29 19 -4 10.0143 100.227 3
19 29 4 0.19994 52.2039 3
3 -19 -29 -2.67761 127.967 2
29 19 -3 67.3496 104.972 3
19 29 3 78.3214 46.6049 3
2 -19 -29 117.986 201.207 2
29 19 -2 247.595 161.372 3
19 29 2 60.4597 91.8293 3
1 -19 -29 24.7001 124.511 2
29 19 -1 225.776 156.084 3
19 29 1 5.69812 64.614 3
0 -19 -29 75.2878 154.808 2
29 19 0 505.462 236.312 3
19 29 0 491.625 202.998 3
-1 -19 -29 9.10814 64.0454 2
29 19 1 19.2415 45.2217 3
-2 -19 -29 -9.09361 81.47 2
29 19 2 176.75 103.947 3
19 29 -2 166.515 118.052 3
-3 -19 -29 -49.7955 113.948 2
29 19 3 101.019 129.911 3
19 29 -3 7.99317 46.8734 3
-4 -19 -29 -12.8066 112.591 2
29 19 4 71.8702 96.3914 3
19 29 -4 -8.90908 49.6501 3
-5 -19 -29 33.1254 161.89 2
19 29 -5 201.803 190.017 3
-6 -19 -29 32.6666 88.439 2
19 29 -6 264.235 158.157 3
-7 -19 -29 -29.0795 104.225 2
19 29 -7 147.828 171.819 3
-8 -19 -29 42.3671 127.472 2
19 29 -8 248.053 170.38 3
29 9 -19 479.513 174.311 3
-9 -19 -29 43.5319 138.582 2
19 29 -9 219.928 116.878 3
29 10 -19 11.3176 178.957 3
-10 -19 -29 97.9376 153.023 2
19 29 -10 107.778 97.634 3
29 11 -19 82.8705 180.951 3
-11 -19 -29 69.8598 133.041 2
19 29 -11 87.7819 134.18 3
29 12 -19 110.103 137.704 3
-12 -19 -29 144.178 162.22 2
19 29 -12 230.017 171.703 3
29 13 -19 -0.42455 57.9882 3
-13 -19 -29 -29.5721 115.147 2
19 29 -13 23.1843 92.1293 3
29 14 -19 11.9457 52.9824 3
-14 -19 -29 27.9119 93.2487 2
19 29 -14 -9.97166 47.6757 3
29 15 -19 18.2095 186.184 3
-15 -19 -29 125.377 141.759 2
29 16 -19 6.47688 96.3592 3
-16 -19 -29 3.85139 74.5311 2
19 29 -16 61.6111 116.517 3
29 17 -19 -7.8573 74.3248 3
-17 -19 -29 -7.27671 52.0972 2
19 29 -17 8.50638 47.1303 3
29 20 -16 724.914 220.409 3
16 29 -20 915.057 158.438 3
29 20 -15 141.556 122.152 3
15 29 -20 69.6708 77.0167 3
29 20 -14 -69.5976 114.053 3
14 29 -20 2.30803 58.0876 3
29 20 -13 -7.56578 83.5388 3
13 29 -20 -13.3505 111.5 3
29 20 -12 348.939 182.324 3
12 29 -20 170.184 122.906 3
11 29 -20 29.4649 111.837 3
29 20 -11 257.197 159.711 3
29 20 -10 421.472 171.609 3
29 20 -9 169.257 114.707 3
29 20 -8 112.593 154.937 3
29 20 -7 88.2379 105.392 3
29 20 -6 191.611 136.196 3
29 20 -5 23.096 117.035 3
29 20 -4 178.966 135.537 3
29 20 -3 59.8502 49.9104 3
20 29 3 213.066 177.943 3
2 -20 -29 -16.5403 47.2525 2
29 20 -2 10.1216 55.4982 3
20 29 2 27.7661 53.3915 3
1 -20 -29 128.895 182.624 2
29 20 -1 410.488 208.732 3
20 29 1 380.779 184 3
0 -20 -29 -25.1242 39.0536 2
29 20 0 13.1836 94.1584 3
20 29 0 -12.3262 79.4812 3
-1 -20 -29 234.445 190.971 2
29 20 1 379.102 199.788 3
20 29 -1 437.619 216.778 3
-2 -20 -29 74.9548 144.866 2
29 20 2 -53.8104 63.6423 3
20 29 -2 113.896 150.946 3
-3 -20 -29 32.1099 116.464 2
29 20 3 70.5109 126.109 3
20 29 -3 158.595 169.683 3
-4 -20 -29 84.6422 127.057 2
20 29 -4 328.956 181.248 3
-5 -20 -29 -27.2776 59.8476 2
20 29 -5 209.615 170.222 3
-6 -20 -29 58.3903 128.977 2
20 29 -6 70.9094 116.094 3
-7 -20 -29 36.8636 121.24 2
20 29 -7 73.8715 93.3516 3
-8 -20 -29 33.8915 118.641 2
20 29 -8 133.405 56.1562 3
-9 -20 -29 -5.63166 66.8324 2
20 29 -9 8.21931 73.5491 3
-10 -20 -29 43.632 124.815 2
20 29 -10 284.709 141.607 3
-11 -20 -29 23.8435 119.418 2
20 29 -11 238.17 138.589 3
29 12 -20 67.4581 115.469 3
-12 -20 -29 100.599 135.849 2
20 29 -12 466.975 182.798 3
29 13 -20 -0.75604 47.3872 3
-13 -20 -29 -32.3602 97.8964 2
20 29 -13 -8.16043 59.949 3
29 14 -20 -2.15064 78.0289 3
-14 -20 -29 -10.3869 52.2105 2
20 29 -14 27.7198 96.2303 3
29 15 -20 1.51602 66.7941 3
-15 -20 -29 8.65407 49.5977 2
20 29 -15 90.2903 82.8002 3
29 16 -20 142.108 174.628 3
20 29 -16 760.779 206.869 3
29 21 -14 102.962 105.855 3
14 29 -21 5.33572 84.41 3
29 21 -13 601.476 191.928 3
13 29 -21 54.4413 120.395 3
29 21 -12 53.4425 45.0446 3
12 29 -21 12.6675 63.8718 3
29 21 -11 5.40721 79.3681 3
11 29 -21 10.4366 52.7414 3
29 21 -10 506.764 210.346 3
10 29 -21 109.055 151.525 3
29 21 -9 -46.2022 83.4756 3
29 21 -8 177.436 161.043 3
29 21 -7 193.265 167.382 3
29 21 -6 180.296 140.318 3
29 21 -5 -29.7691 105.863 3
29 21 -4 1467.34 311.836 3
29 21 -3 244.613 148.505 3
21 29 3 132.907 126.745 3
29 21 -2 -7.65528 59.5346 3
21 29 2 143.431 111.749 3
29 21 -1 515.072 186.686 3
21 29 1 265.692 144.42 3
29 21 0 416.147 142.099 3
21 29 0 467.497 197.663 3
29 21 1 300.9 147.036 3
21 29 -1 262.112 129.616 3
29 21 2 62.9539 78.6076 3
21 29 -2 32.8639 83.2094 3
29 21 3 99.7301 39.7805 3
21 29 -3 223.736 160.431 3
21 29 -4 1500.33 317.853 3
21 29 -5 191.938 150.181 3
21 29 -6 143.747 110.26 3
21 29 -7 202.162 184.256 3
21 29 -8 692.802 192.95 3
21 29 -9 58.9598 65.2982 3
21 29 -10 512.816 203.268 3
21 29 -11 -37.5116 70.9484 3
21 29 -12 112.849 100.154 3
21 29 -13 451.966 138.796 3
21 29 -14 63.7403 89.98 3
29 22 -13 195.459 118.377 3
13 29 -22 13.5338 52.8513 3
29 22 -12 145.245 138.955 3
12 29 -22 4.3994 93.8289 3
29 22 -11 -4.77602 92.852 3
11 29 -22 33.6065 67.7808 3
29 22 -10 359.452 155.872 3
10 29 -22 9.35908 44.0002 3
29 22 -9 -40.3844 74.3115 3
9 29 -22 -1.90687 48.8273 3
29 22 -8 384.988 183.295 3
8 29 -22 -1.50569 45.2998 3
29 22 -7 38.1649 144.914 3
29 22 -6 222.298 157.26 3
29 22 -5 145.432 164.47 3
29 22 -4 151.159 131.359 3
29 22 -3 126.022 116.158 3
22 29 3 266.503 128.457 3
29 22 -2 65.1542 44.0677 3
22 29 2 7.20071 33.5954 3
29 22 -1 313.359 140.605 3
22 29 1 422.873 179.026 3
29 22 0 -21.2619 78.4644 3
22 29 0 -126.749 154.23 3
29 22 1 285.761 174.437 3
22 29 -1 316.47 169.363 3
29 22 2 -5.73974 75.9177 3
22 29 -2 194.962 138.743 3
29 22 3 283.493 139.373 3
22 29 -3 151.773 109.827 3
22 29 -4 43.5434 92.9662 3
22 29 -5 76.977 118.52 3
22 29 -6 338.155 169.438 3
22 29 -7 -31.1238 58.7127 3
22 29 -8 149.663 74.0456 3
22 29 -9 -19.7026 67.4715 3
22 29 -10 147.131 135.349 3
22 29 -11 59.4057 58.389 3
22 29 -12 57.6615 103.202 3
22 29 -13 277.91 135.823 3
29 23 -11 84.5239 113.574 3
29 23 -10 69.1484 40.9552 3
29 23 -9 51.764 101.951 3
29 23 -8 426.759 160.651 3
29 23 -7 279.329 155.193 3
29 23 -6 154.903 122.543 3
29 23 -5 -6.48817 49.6908 3
29 23 -4 -16.9853 92.0705 3
29 23 -3 288.276 141.12 3
29 23 -2 475.321 205.536 3
23 29 2 605.413 177.429 3
29 23 -1 293.902 140.306 3
23 29 1 164.673 122.998 3
29 23 0 19.6 51.4389 3
23 29 0 -4.94197 67.694 3
29 23 1 127.72 93.1502 3
23 29 -1 79.1054 96.0125 3
29 23 2 754.555 184.074 3
23 29 -2 718.569 201.915 3
23 29 -3 528.032 185.514 3
23 29 -4 45.459 50.4215 3
23 29 -5 90.4448 100.37 3
23 29 -6 115.229 55.8681 3
23 29 -7 310.373 167.16 3
23 29 -8 305.303 160.688 3
23 29 -9 82.0779 110.513 3
23 29 -10 122.527 135.025 3
23 29 -11 100.47 115.036 3
29 24 -9 -2.92488 73.9253 3
29 24 -8 -31.0443 66.766 3
29 24 -7 415.345 159.868 3
29 24 -6 40.4345 41.8935 3
29 24 -5 248.452 128.332 3
29 24 -4 96.3557 107.427 3
29 24 -3 172.787 120.867 3
29 24 -2 175.144 91.9234 3
24 29 2 34.4686 70.0805 3
29 24 -1 450.483 160.98 3
24 29 1 582.736 165.754 3
29 24 0 96.6636 71.2541 3
24 29 0 52.8306 63.5324 3
29 24 1 580.167 167.468 3
24 29 -1 541.09 181.629 3
29 24 2 41.8623 68.9586 3
24 29 -2 105.584 103.384 3
24 29 -3 121.502 138.83 3
24 29 -4 123.131 85.9158 3
24 29 -5 192.545 133.764 3
24 29 -6 90.6061 86.8398 3
24 29 -7 146.16 107.614 3
24 29 -8 93.702 119.996 3
24 29 -9 68.7516 86.5176 3
29 25 -5 252.988 139.314 3
29 25 -4 149.313 113.36 3
29 25 -3 190.595 121.754 3
29 25 -2 16.2626 40.2398 3
29 25 -1 130.51 95.8622 3
25 29 1 225.995 118.002 3
29 25 0 179.564 129.936 3
25 29 0 278.915 140.436 3
29 25 1 230.043 79.8961 3
25 29 -1 71.0438 72.8372 3
25 29 -2 156.794 105.9 3
25 29 -3 128.8 106.18 3
25 29 -4 44.4251 86.3614 3
25 29 -5 323.048 153.502 3
0 0 -30 84.7327 84.8537 2
1 0 -30 861.153 284.641 2
0 1 -30 473.314 209.087 2
0 -1 -30 636.274 256.125 2
-1 0 -30 792.509 246.475 2
1 1 -30 -5.99166 89.2575 2
1 -1 -30 8.06271 54.2087 2
-1 1 -30 69.6006 126.912 2
-1 -1 -30 154.985 152.039 2
2 1 -30 71.0783 114.36 2
1 -2 -30 322.917 194.666 2
-1 2 -30 34.801 94.0337 2
-2 -1 -30 84.6131 123.545 2
2 0 -30 1344.87 327.457 2
0 2 -30 1131.4 269.29 2
0 -2 -30 1124.27 290.785 2
-2 0 -30 1195.09 305.024 2
2 -1 -30 70.4493 86.3218 2
1 2 -30 261.995 177.646 2
-1 -2 -30 98.5084 114.977 2
-2 1 -30 112.695 151.265 2
2 2 -30 237.645 117.521 2
2 -2 -30 284.737 196.594 2
-2 2 -30 187.942 155.828 2
-2 -2 -30 302.761 216.518 2
3 2 -30 1345.84 311.29 2
2 -3 -30 1149.8 328.287 2
-2 3 -30 1132.91 281.308 2
-3 -2 -30 987.458 274.689 2
3 1 -30 303.464 177.79 2
1 -3 -30 453.916 169.924 2
-1 3 -30 569.037 186.379 2
-3 -1 -30 437.684 168.72 2
3 0 -30 103.922 114.674 2
0 3 -30 100.696 97.4259 2
0 -3 -30 22.8836 121.517 2
-3 0 -30 141.798 144.605 2
3 -1 -30 476.94 238.27 2
1 3 -30 547.291 212.666 2
-1 -3 -30 618.051 222.679 2
-3 1 -30 614.596 254.198 2
2 3 -30 1640.73 320.164 2
3 -2 -30 1232.79 315.687 2
-3 2 -30 1446.19 337.203 2
-2 -3 -30 997.952 290.759 2
3 3 -30 139.614 48.2366 2
30 3 -3 14.2073 201.012 3
3 -3 -30 353.285 211.799 2
-3 3 -30 151.705 145.198 2
-3 -3 -30 152.988 163.804 2
3 -4 -30 236.01 160.118 2
4 3 -30 315.696 124.427 2
30 4 -3 72.791 145.736 3
-3 4 -30 253.682 117.046 2
4 2 -30 269.834 162.152 2
30 4 -2 231 216.764 3
2 -4 -30 94.7375 152.605 2
-2 4 -30 424.076 129.844 2
4 1 -30 41.1466 84.5605 2
30 4 -1 256.926 546.859 3
-1 4 -30 284.548 116.482 2
1 -4 -30 -13.1631 96.5916 2
-4 -1 -30 13.2064 60.2237 2
4 0 -30 242.785 150.162 2
0 4 -30 223.34 132.232 2
0 -4 -30 126.725 126.634 2
-4 0 -30 220.839 185.537 2
4 -1 -30 68.6374 132.669 2
1 4 -30 43.2441 68.3287 2
-1 -4 -30 50.6313 73.1779 2
-4 1 -30 105.824 87.4413 2
2 4 -30 195.605 119.896 2
4 -2 -30 430.22 234.331 2
-2 -4 -30 75.1579 63.8787 2
-4 2 -30 572.939 226.631 2
3 4 -30 319.813 177.95 2
4 -3 -30 65.5458 166.031 2
30 3 -4 99.0335 171.989 3
-4 3 -30 220.22 136.586 2
-3 -4 -30 50.4113 90.5146 2
4 4 -30 3082.83 410.009 2
-4 4 -30 3071.58 404.031 2
4 -4 -30 2068.94 419.442 2
30 4 -4 3142.28 469.264 3
5 4 -30 1106.47 264.864 2
4 -5 -30 775.81 234.56 2
30 5 -4 678.505 212.143 3
-4 5 -30 905.143 254.574 2
5 3 -30 659.903 193.559 2
30 5 -3 630.203 350.281 3
3 -5 -30 372.588 150.524 2
-3 5 -30 628.216 228.544 2
5 2 -30 -18.5457 109.047 2
2 -5 -30 81.7883 53.3177 2
-2 5 -30 97.2674 82.8692 2
30 5 -2 156.587 154.481 3
5 1 -30 383.318 190.425 2
30 5 -1 316.097 214.453 3
-1 5 -30 742.095 194.636 2
1 -5 -30 564.383 198.116 2
5 0 -30 1327.41 345.445 2
30 5 0 1221.74 375.099 3
0 5 -30 1670.7 266.504 2
0 -5 -30 1584.91 358.543 2
5 -1 -30 377.59 229.903 2
30 5 1 116.966 206.134 3
1 5 -30 817.21 228.363 2
-1 -5 -30 503.091 203.005 2
5 -2 -30 22.335 83.695 2
2 5 -30 164.061 110.274 2
-2 -5 -30 57.9715 73.381 2
-5 2 -30 224.236 195.241 2
30 3 -5 214.7 243.589 3
3 5 -30 675.682 167.94 2
5 -3 -30 293.144 229.253 2
-3 -5 -30 364.668 230.254 2
-5 3 -30 438.019 162.148 2
4 5 -30 1000.57 225.302 2
5 -4 -30 550.724 261.276 2
30 4 -5 969.935 289.908 3
-5 4 -30 903.399 223.267 2
5 5 -30 142.3 120.86 2
5 -5 -30 -50.2889 104.06 2
30 5 -5 265.426 183.101 3
-5 5 -30 7.96124 43.0511 2
6 5 -30 507.769 100.031 2
5 -6 -30 632.645 238.841 2
30 6 -5 779.81 251.061 3
-5 6 -30 589.883 174.125 2
6 4 -30 111.835 85.6056 2
4 -6 -30 -16.1954 102.512 2
30 6 -4 -23.7778 80.3084 3
-4 6 -30 -5.65678 57.9523 2
6 3 -30 -8.05509 68.9746 2
30 6 -3 206.698 185.733 3
-3 6 -30 24.5402 88.1533 2
3 -6 -30 36.6487 76.4975 2
6 2 -30 797.698 263.863 2
30 6 -2 961.803 316.494 3
2 -6 -30 1197.58 322.378 2
-2 6 -30 1262.91 248.901 2
6 1 -30 471.83 188.43 2
30 6 -1 121.188 136.852 3
-1 6 -30 454.014 171.018 2
1 -6 -30 423.264 212.423 2
6 0 -30 167.192 186.167 2
0 6 -30 -46.7036 89.8271 2
30 6 0 -8.72189 87.4347 3
0 -6 -30 96.6847 85.2818 2
6 -1 -30 148.328 145.444 2
1 6 -30 400.685 133.922 2
30 6 1 387.214 179.65 3
-1 -6 -30 525.377 219.2 2
30 6 2 462.667 292.595 3
6 -2 -30 557.513 322.61 2
2 6 -30 1371.73 253.811 2
-2 -6 -30 1016.64 319.32 2
3 6 -30 256.222 134.632 2
6 -3 -30 25.0842 63.2108 2
30 3 -6 39.0911 95.6473 3
-3 -6 -30 71.6297 72.9359 2
4 6 -30 92.5267 117.251 2
6 -4 -30 -35.5205 95.4697 2
30 4 -6 39.6706 133.484 3
-6 4 -30 63.7631 126.103 2
-4 -6 -30 118.016 132.042 2
5 6 -30 686.855 184.054 2
6 -5 -30 700.562 231.515 2
30 5 -6 662.036 210.792 3
-6 5 -30 463.556 156.744 2
6 6 -30 1971.35 369.91 2
-6 6 -30 1863.58 350.458 2
6 -6 -30 2356.66 440.486 2
30 6 -6 3322.08 466.759 3
6 -7 -30 38.6548 134.875 2
30 7 -6 162.983 170.64 3
-6 7 -30 236.008 104.75 2
7 5 -30 137.331 66.4311 2
5 -7 -30 183.895 189.114 2
30 7 -5 503.414 220.856 3
-5 7 -30 476.401 164.34 2
7 4 -30 210.928 113.808 2
4 -7 -30 109.832 110.748 2
30 7 -4 14.8602 64.7993 3
-4 7 -30 69.515 111.226 2
7 3 -30 313.087 211.213 2
30 7 -3 78.3439 100.372 3
-3 7 -30 464.193 158.928 2
3 -7 -30 394.968 216.778 2
7 2 -30 848.014 260.48 2
30 7 -2 863.88 309.426 3
-2 7 -30 935.831 206.982 2
2 -7 -30 719.919 246.928 2
7 1 -30 519.141 196.431 2
-1 7 -30 590.053 191.59 2
30 7 -1 524.175 181.715 3
1 -7 -30 421.837 216.716 2
7 0 -30 -69.3125 156.363 2
0 7 -30 -86.5031 82.6055 2
30 7 0 -81.9659 188.991 3
0 -7 -30 46.135 113.097 2
7 -1 -30 230.567 191.998 2
1 7 -30 612.253 170.616 2
30 7 1 117.967 159.392 3
-1 -7 -30 242.138 220.713 2
7 -2 -30 482.571 244.68 2
2 7 -30 882.621 217.423 2
30 7 2 426.451 206.56 3
-2 -7 -30 663.264 248.379 2
30 3 -7 328.397 185.577 3
3 7 -30 282.077 98.6666 2
7 -3 -30 71.6141 142.918 2
30 7 3 26.0122 66.1605 3
-3 -7 -30 98.8601 95.0733 2
4 7 -30 131.252 102.95 2
7 -4 -30 144.282 155.455 2
30 4 -7 -39.9511 128.653 3
-4 -7 -30 145.184 130.151 2
5 7 -30 465.458 169.109 2
7 -5 -30 184.712 150.665 2
30 5 -7 380.364 186.641 3
-7 5 -30 268.534 118.194 2
6 7 -30 204.271 143.587 2
7 -6 -30 10.9217 90.775 2
30 6 -7 418.124 164.32 3
-7 6 -30 230.908 153.411 2
7 -7 -30 -24.6963 103.146 2
30 7 -7 134.112 188.16 3
-7 7 -30 -104.754 113.518 2
7 -8 -30 15.6357 94.4521 2
30 8 -7 -29.7298 123.258 3
-7 8 -30 86.3412 85.8672 2
6 -8 -30 465.698 203.805 2
30 8 -6 940.211 259.679 3
-6 8 -30 323.446 168.903 2
5 -8 -30 144.262 137.163 2
30 8 -5 141.115 175.606 3
-5 8 -30 130.909 112.173 2
8 4 -30 2125.36 336.269 2
4 -8 -30 1956.36 405.152 2
30 8 -4 2562.22 382.667 3
-4 8 -30 1611.35 307.208 2
8 3 -30 1027.7 289.712 2
-3 8 -30 912.801 242.614 2
3 -8 -30 998.922 327.944 2
30 8 -3 1138.19 332.023 3
8 2 -30 -2.93685 66.218 2
-2 8 -30 25.8807 59.5563 2
2 -8 -30 0.64828 121.845 2
30 8 -2 95.57 66.8455 3
8 1 -30 -1.79746 66.3738 2
-1 8 -30 135.478 100.986 2
30 8 -1 280.876 196.265 3
1 -8 -30 325.317 206.718 2
8 0 -30 -8.53347 63.5773 2
0 8 -30 106.315 106.639 2
30 8 0 18.4056 61.4047 3
8 -1 -30 245.222 187.278 2
1 8 -30 451.414 150.954 2
30 8 1 102.037 121.661 3
-1 -8 -30 376.812 182.148 2
8 -2 -30 27.229 59.4522 2
2 8 -30 -31.5596 94.3436 2
30 8 2 62.6608 106.465 3
-2 -8 -30 34.6063 97.1729 2
8 -3 -30 778.51 300.9 2
3 8 -30 1164.76 223.251 2
30 3 -8 1713.19 356.799 3
-3 -8 -30 1001.54 335.273 2
4 8 -30 1595.97 332.464 2
8 -4 -30 1120.08 377.768 2
30 8 4 623.559 334.691 3
30 4 -8 2675.2 428.607 3
-4 -8 -30 1897.65 399.712 2
5 8 -30 125.149 54.348 2
8 -5 -30 71.5433 83.3141 2
30 5 -8 76.6664 147.046 3
8 -6 -30 776.877 252.457 2
30 6 -8 768.75 266.779 3
-8 6 -30 978 250.077 2
8 -7 -30 9.24981 102.414 2
30 7 -8 -165.193 140.581 3
-8 7 -30 8.56998 86.3216 2
8 -8 -30 649.012 226.899 2
-8 8 -30 466.603 185.282 2
8 -9 -30 371.957 193.145 2
30 9 -8 134.433 128.769 3
7 -9 -30 791.172 238.028 2
30 9 -7 763.544 208.562 3
6 -9 -30 -346.101 150.947 2
30 9 -6 303.963 160.431 3
5 -9 -30 306.824 168.924 2
30 9 -5 652.826 278.923 3
4 -9 -30 0.96235 90.846 2
30 9 -4 157.248 173.353 3
3 -9 -30 396.266 165.753 2
30 9 -3 640.098 242.972 3
9 2 -30 163.149 133.942 2
2 -9 -30 45.1105 138.792 2
30 9 -2 98.8857 123.393 3
9 1 -30 237.216 166.644 2
30 9 -1 496.624 268.324 3
1 -9 -30 628.574 263.56 2
9 0 -30 418.727 228.118 2
30 9 0 453.21 225.494 3
0 -9 -30 637.307 271.307 2
9 -1 -30 210.528 201.094 2
30 9 1 181.911 136.049 3
-1 -9 -30 316.129 218.569 2
9 -2 -30 60.4976 115.476 2
30 9 2 41.7674 84.5697 3
-2 -9 -30 236.743 172.813 2
9 -3 -30 120.515 147.223 2
30 3 -9 711.372 240.965 3
30 9 3 215.198 176.45 3
-3 -9 -30 333.143 222.379 2
4 9 -30 -64.2752 107.76 2
9 -4 -30 61.4265 120.527 2
30 9 4 -8.35911 82.7284 3
30 4 -9 -198.46 156.585 3
-4 -9 -30 160.939 165.8 2
9 -5 -30 341.199 124.549 2
30 5 -9 933.476 253.038 3
9 -6 -30 -0.31776 101.944 2
30 6 -9 12.6367 68.4872 3
9 -7 -30 718.372 241.133 2
30 7 -9 953.439 264.364 3
-9 7 -30 456.104 188.916 2
9 -8 -30 263.282 166.817 2
30 8 -9 361.854 176.606 3
-9 8 -30 49.0712 90.2468 2
9 -9 -30 -74.9657 105.149 2
30 9 -9 14.7013 92.14 3
9 -10 -30 94.2999 99.6228 2
30 10 -9 239.872 81.1929 3
8 -10 -30 711.45 188.846 2
30 10 -8 549.671 174.151 3
7 -10 -30 72.3718 93.4818 2
30 10 -7 298.094 158.005 3
6 -10 -30 1183.89 280.176 2
30 10 -6 1097.12 295.918 3
5 -10 -30 19.2674 101.315 2
30 10 -5 154.005 189.964 3
4 -10 -30 613.858 186.353 2
30 10 -4 576.524 213.796 3
30 10 -3 745.088 243.34 3
3 -10 -30 818.28 253.902 2
2 -10 -30 703.033 220.7 2
30 10 -2 414.99 170.769 3
30 10 -1 188.397 123.702 3
1 -10 -30 584.129 205.413 2
0 -10 -30 180.805 160.208 2
30 10 0 -51.937 135.86 3
30 10 1 462.462 174.184 3
-1 -10 -30 401.539 192.616 2
10 -2 -30 195.794 214.671 2
30 10 2 429.961 188.767 3
-2 -10 -30 323.688 201.414 2
10 -3 -30 230.626 169.118 2
30 3 -10 449.078 224.805 3
30 10 3 151.199 158.299 3
-3 -10 -30 417.656 151.843 2
10 -4 -30 135.632 166.899 2
30 4 -10 789.143 274.137 3
30 10 4 237.637 169.398 3
-4 -10 -30 384.072 177.994 2
10 -5 -30 263.138 156.91 2
30 10 5 44.3781 149.273 3
30 5 -10 204.574 132.38 3
-5 -10 -30 4.3995 130.281 2
10 -6 -30 535.403 211.262 2
30 6 -10 1097.9 268.27 3
10 -7 -30 252.154 143.922 2
30 7 -10 277.723 197.038 3
30 8 -10 912.199 255.115 3
30 9 -10 341.832 174.957 3
30 10 -10 -170.172 167.776 3
30 11 -10 520.192 215.036 3
30 11 -9 394.692 91.1845 3
8 -11 -30 136.461 77.0043 2
30 11 -8 220.134 73.7832 3
7 -11 -30 -14.3906 70.0234 2
30 11 -7 32.0134 63.1539 3
6 -11 -30 247.522 150.087 2
30 11 -6 170.917 176.057 3
5 -11 -30 119.282 55.1908 2
30 11 -5 23.3494 121.21 3
4 -11 -30 44.0232 83.4265 2
30 11 -4 94.7663 71.491 3
3 -11 -30 917.421 252.715 2
30 11 -3 782.848 244.6 3
2 -11 -30 4.08567 143.335 2
30 11 -2 23.739 92.6367 3
1 -11 -30 425.262 207.01 2
30 11 -1 150.5 150.844 3
30 11 0 117.797 125.055 3
0 -11 -30 26.1377 93.3378 2
30 11 1 209.607 125.532 3
-1 -11 -30 386.428 144.016 2
30 11 2 635.149 226.99 3
-2 -11 -30 253.449 126.781 2
30 11 3 311.128 203.961 3
-3 -11 -30 910.935 274.695 2
30 4 -11 -38.7099 85.7823 3
30 11 4 76.5926 77.0982 3
-4 -11 -30 51.3913 145.016 2
30 11 5 -1.90853 83.3814 3
30 5 -11 -4.51216 126.049 3
-5 -11 -30 13.3076 62.2719 2
30 6 -11 216.61 95.6667 3
-6 -11 -30 63.8465 99.3899 2
30 7 -11 422.558 191.713 3
30 8 -11 313.301 165.432 3
30 9 -11 773.71 256.267 3
30 10 -11 149.562 66.7245 3
30 11 -11 101.552 115.571 3
30 12 -11 807.711 269.791 3
30 12 -10 88.1972 124.688 3
30 12 -9 463.242 202.836 3
8 -12 -30 297.881 141.427 2
30 12 -8 414.515 235.33 3
7 -12 -30 188.234 155.859 2
30 12 -7 -28.5042 112.977 3
6 -12 -30 367.557 125.661 2
30 12 -6 539.676 211.394 3
5 -12 -30 40.4027 82.1118 2
30 12 -5 138.45 99.4364 3
4 -12 -30 1147.49 289.547 2
30 12 -4 919.338 273.621 3
3 -12 -30 112.971 177.121 2
30 12 -3 73.1418 86.7386 3
2 -12 -30 101.633 119.791 2
30 12 -2 -68.8421 97.5485 3
1 -12 -30 155.832 73.7762 2
30 12 -1 59.3312 94.5591 3
0 -12 -30 224.484 127.666 2
30 12 0 145.761 150.132 3
30 12 1 175.488 102.145 3
-1 -12 -30 99.362 100.233 2
30 12 2 25.9731 98.9664 3
-2 -12 -30 206.324 151.064 2
30 12 3 110.546 144.791 3
-3 -12 -30 -194.861 143.714 2
30 4 -12 1379.26 304.83 3
30 12 4 801.05 220.739 3
-4 -12 -30 1225.15 293.694 2
30 5 -12 -17.0674 113.608 3
30 12 5 72.5566 54.3189 3
-5 -12 -30 191.87 147.996 2
30 6 -12 46.4473 113.247 3
-6 -12 -30 390.831 208.703 2
30 7 -12 -222.817 164.71 3
30 8 -12 192.79 84.5445 3
30 9 -12 691.909 240.847 3
30 10 -12 163.872 103.315 3
30 11 -12 460.803 143.513 3
30 12 -12 545.571 176.43 3
30 13 -12 349.192 193.34 3
30 13 -11 220.093 204.97 3
30 13 -10 867.171 278.219 3
30 13 -9 6.99702 61.3867 3
8 -13 -30 53.49 120.298 2
30 13 -8 45.1536 96.4256 3
7 -13 -30 -24.6181 100.133 2
30 13 -7 56.4508 107.851 3
6 -13 -30 163.888 115.167 2
30 13 -6 58.4975 124.746 3
5 -13 -30 212.82 130.99 2
30 13 -5 131.273 103.25 3
4 -13 -30 478.503 194.744 2
30 13 -4 140.276 120.66 3
3 -13 -30 294.006 153.198 2
30 13 -3 67.1106 89.0581 3
2 -13 -30 445.694 190.602 2
30 13 -2 305.579 183.133 3
1 -13 -30 403.756 183.778 2
30 13 -1 528.41 245.555 3
0 -13 -30 -53.8627 52.6518 2
30 13 0 83.7896 146.607 3
-1 -13 -30 849.871 221.809 2
30 13 1 353.665 201.738 3
30 13 2 334.499 170.582 3
-2 -13 -30 644.009 200.449 2
30 13 3 88.4045 122.387 3
-3 -13 -30 390.744 199.723 2
30 13 4 200.87 212.831 3
-4 -13 -30 429.305 172.81 2
30 5 -13 434.618 197.601 3
30 13 5 -9.02774 43.3065 3
-5 -13 -30 230.461 171.898 2
30 6 -13 248.645 204.785 3
-6 -13 -30 401.422 194.041 2
30 7 -13 -178.726 141.812 3
-7 -13 -30 40.1247 59.1457 2
30 8 -13 380.744 200.855 3
30 9 -13 241.079 194.22 3
30 10 -13 590.979 220.966 3
30 11 -13 -122.229 125.053 3
30 12 -13 -13.1776 88.4305 3
30 13 -13 337.619 85.0904 3
30 14 -13 438.651 177.183 3
30 14 -12 805.388 227.23 3
30 14 -11 560.611 212.574 3
30 14 -10 486.976 225.271 3
30 14 -9 341.583 205.934 3
30 14 -8 257.637 180.073 3
7 -14 -30 280.541 153.46 2
30 14 -7 233.593 144.331 3
6 -14 -30 403.125 159.539 2
30 14 -6 -42.7304 62.7303 3
5 -14 -30 -133.8 153.313 2
30 14 -5 46.7452 146.438 3
4 -14 -30 -50.7882 135.172 2
30 14 -4 48.9302 65.7404 3
3 -14 -30 190.833 158.76 2
30 14 -3 164.487 188.069 3
2 -14 -30 411.501 158.677 2
30 14 -2 348.786 224.788 3
1 -14 -30 -18.9028 95.9648 2
30 14 -1 218.227 165.355 3
0 -14 -30 464.099 217.711 2
30 14 0 107.605 80.6175 3
-1 -14 -30 66.0604 48.451 2
30 14 1 74.2996 98.9416 3
30 14 2 472.193 192.655 3
-2 -14 -30 762.497 238.037 2
30 14 3 50.5388 139.575 3
-3 -14 -30 358.299 173.441 2
30 14 4 103.563 128.561 3
-4 -14 -30 38.8055 114.379 2
30 5 -14 92.5464 154.021 3
30 14 5 -72.9921 66.5946 3
-5 -14 -30 92.6605 53.4771 2
30 6 -14 96.6157 69.7453 3
-6 -14 -30 239.253 128.22 2
30 7 -14 506.98 170.122 3
-7 -14 -30 138.638 65.1904 2
30 8 -14 296.302 146.05 3
-8 -14 -30 14.5224 51.4688 2
30 9 -14 69.4322 104.539 3
30 10 -14 313.612 112.102 3
30 11 -14 559.785 143.072 3
30 12 -14 865.221 249.447 3
30 13 -14 870.523 240.903 3
30 14 -14 311.355 128.865 3
30 15 -14 -61.1523 97.2373 3
30 15 -13 429.723 254.279 3
30 15 -12 320.913 120.913 3
30 15 -11 88.0106 122.599 3
30 15 -10 166.957 123.583 3
30 15 -9 215.382 107.826 3
30 15 -8 45.96 52.3382 3
30 15 -7 83.7581 89.6062 3
6 -15 -30 2.69158 54.9781 2
30 15 -6 65.7389 139.373 3
5 -15 -30 85.195 46.2981 2
30 15 -5 53.8556 111.904 3
4 -15 -30 1284.9 265.188 2
30 15 -4 948.775 300.923 3
3 -15 -30 380.349 130.604 2
30 15 -3 40.6443 106.577 3
2 -15 -30 -5.56101 54.5768 2
30 15 -2 22.3209 90.0846 3
1 -15 -30 572.463 195.183 2
30 15 -1 357.543 192.308 3
0 -15 -30 1313.98 288.759 2
30 15 0 1071.6 294.887 3
-1 -15 -30 387.64 177.035 2
30 15 1 79.345 144.469 3
-2 -15 -30 226.244 151.958 2
30 15 2 84.2149 142.104 3
-3 -15 -30 466.051 181.536 2
30 15 3 196.248 151.804 3
30 15 4 333.704 187.763 3
-4 -15 -30 1179 278.192 2
-5 -15 -30 -76.2109 58.0295 2
30 6 -15 219.756 135.094 3
-6 -15 -30 634.884 245.637 2
30 7 -15 108.028 109.047 3
-7 -15 -30 -48.7224 118.626 2
30 8 -15 -118.542 142.445 3
-8 -15 -30 75.8699 65.1487 2
30 9 -15 -96.3999 56.2935 3
-9 -15 -30 5.12576 80.962 2
30 10 -15 271.954 139.554 3
-10 -15 -30 9.00536 112.208 2
30 11 -15 79.4009 109.113 3
30 12 -15 614.06 174.936 3
30 13 -15 685.047 212.292 3
30 14 -15 -3.06325 70.216 3
15 30 -15 57.4245 50.274 3
30 15 -15 164.021 117.907 3
30 16 -15 163.924 131.76 3
15 30 -16 -100.845 56.8427 3
30 16 -14 130.315 130.122 3
30 16 -13 60.3894 122.957 3
30 16 -12 17.7165 74.5386 3
30 16 -11 64.2512 75.9064 3
30 16 -10 466.838 265.548 3
30 16 -9 -28.5598 72.683 3
30 16 -8 139.378 116.772 3
30 16 -7 -78.5186 104.045 3
30 16 -6 96.0146 111.821 3
5 -16 -30 358.003 155.716 2
30 16 -5 0.58183 110.318 3
4 -16 -30 595.201 184.078 2
30 16 -4 454.984 212.724 3
3 -16 -30 157.957 103.837 2
30 16 -3 114.56 160.606 3
2 -16 -30 154.948 133.888 2
30 16 -2 -68.6405 53.8434 3
1 -16 -30 412.342 134.709 2
30 16 -1 322.458 193.381 3
0 -16 -30 528.32 171.72 2
30 16 0 41.7202 75.126 3
-1 -16 -30 411.93 178.508 2
30 16 1 120.18 124.867 3
-2 -16 -30 82.0777 57.5366 2
30 16 2 -0.23984 61.2902 3
-3 -16 -30 61.1354 85.7211 2
30 16 3 -45.5117 94.1145 3
30 16 4 122.617 126.91 3
-4 -16 -30 519.099 144.391 2
-5 -16 -30 113.489 101.734 2
-6 -16 -30 174.004 125.653 2
30 7 -16 113.553 142.333 3
-7 -16 -30 -13.1013 123.069 2
30 8 -16 163.862 105.968 3
-8 -16 -30 -10.3843 115.262 2
30 9 -16 212.169 135.623 3
-9 -16 -30 13.2931 49.0181 2
30 10 -16 1014.71 264.515 3
-10 -16 -30 56.4931 189.672 2
30 11 -16 83.8941 109.809 3
-11 -16 -30 26.9337 158.05 2
30 12 -16 143.21 109.643 3
-12 -16 -30 -12.1157 48.1299 2
16 30 -13 91.2373 58.3014 3
30 13 -16 58.4411 115.372 3
30 14 -16 289.33 296.083 3
16 30 -14 44.5185 61.1399 3
30 15 -16 -107.513 91.8638 3
16 30 -15 -101.24 82.1931 3
30 16 -16 198.966 121.849 3
16 30 -16 -8.91262 76.8988 3
30 17 -16 244.84 144.572 3
16 30 -17 28.3096 126.225 3
30 17 -15 -5.68467 47.2293 3
15 30 -17 28.4208 55.4783 3
30 17 -14 240.598 126.213 3
14 30 -17 80.5435 132.554 3
30 17 -13 577.63 213.601 3
30 17 -12 158.641 119.26 3
30 17 -11 321.215 162.721 3
30 17 -10 95.6814 97.3293 3
30 17 -9 194.148 131.558 3
30 17 -8 2.2363 84.573 3
30 17 -7 174.91 182.772 3
30 17 -6 669.039 195.871 3
5 -17 -30 18.2911 68.5247 2
30 17 -5 144.306 142.77 3
4 -17 -30 11.205 93.4841 2
30 17 -4 62.2302 104.705 3
17 30 4 -12.6776 49.1976 3
3 -17 -30 -13.7705 59.3164 2
30 17 -3 64.2022 130.182 3
17 30 3 -1.77304 82.1468 3
2 -17 -30 299.137 280.487 2
30 17 -2 897.856 282.214 3
1 -17 -30 13.185 110.884 2
30 17 -1 149.868 151.348 3
0 -17 -30 73.8028 211.577 2
30 17 0 153.163 156.481 3
-1 -17 -30 44.8754 179.421 2
30 17 1 282.975 180.096 3
-2 -17 -30 277.262 272.24 2
30 17 2 806.242 254.175 3
-3 -17 -30 98.7101 143.611 2
30 17 3 94.3508 165.882 3
-4 -17 -30 17.1831 138.485 2
30 17 4 7.92133 115.093 3
-5 -17 -30 34.4868 135.76 2
-6 -17 -30 45.0356 144.694 2
-7 -17 -30 20.4878 101.092 2
30 8 -17 268.047 147.275 3
-8 -17 -30 29.0645 141.069 2
30 9 -17 95.3556 90.5503 3
-9 -17 -30 33.7585 109.949 2
30 10 -17 127.495 50.8356 3
-10 -17 -30 -1.09314 76.5555 2
17 30 -11 271.656 197.83 3
30 11 -17 306.664 132.666 3
-11 -17 -30 42.6839 80.7489 2
-12 -17 -30 73.1563 99.2686 2
17 30 -12 183.755 176.076 3
30 13 -17 3.01793 122.517 3
-13 -17 -30 76.5376 103.564 2
17 30 -13 344.384 169.123 3
30 14 -17 -11.094 79.1244 3
-14 -17 -30 36.1564 98.4932 2
30 15 -17 0.21064 95.5804 3
-15 -17 -30 42.0667 121.029 2
17 30 -15 46.2618 77.2513 3
30 16 -17 0.39687 62.6783 3
-16 -17 -30 12.3393 110.881 2
17 30 -16 64.8113 46.1289 3
30 17 -17 50.9563 93.3005 3
-17 -17 -30 19.8049 39.0444 2
17 30 -17 -19.2327 75.231 3
30 18 -16 241.003 160.372 3
16 30 -18 56.1126 110.367 3
30 18 -15 37.4173 102.307 3
15 30 -18 0.53036 33.9019 3
30 18 -14 52.8763 105.904 3
14 30 -18 36.0347 101.912 3
30 18 -13 -36.0069 125.751 3
13 30 -18 9.97976 104.85 3
30 18 -12 150.149 140.204 3
30 18 -11 197.933 128.509 3
30 18 -10 183.717 125.677 3
30 18 -9 60.1445 57.8201 3
30 18 -8 292.87 187.63 3
30 18 -7 19.3078 90.4813 3
30 18 -6 226.023 155.293 3
30 18 -5 -36.8617 94.521 3
4 -18 -30 17.2867 46.527 2
30 18 -4 113.63 163.955 3
18 30 4 52.6349 87.8977 3
3 -18 -30 -0.68102 113.933 2
30 18 -3 42.8863 61.1994 3
18 30 3 188.991 155.615 3
2 -18 -30 19.9133 109.641 2
30 18 -2 167.229 134.577 3
18 30 2 59.838 51.8074 3
1 -18 -30 18.4121 155.785 2
30 18 -1 237.613 146.684 3
18 30 1 184.355 152.191 3
0 -18 -30 -11.0781 97.5546 2
30 18 0 -37.9214 115.023 3
18 30 0 24.3292 78.209 3
18 30 -1 74.3525 167.517 3
-1 -18 -30 20.3119 104.88 2
30 18 1 72.0316 113.265 3
18 30 -2 35.1855 124.687 3
-2 -18 -30 128.68 158.702 2
30 18 2 199.022 135.779 3
-3 -18 -30 20.6026 116.925 2
30 18 3 23.7769 82.5137 3
30 18 4 -22.5324 67.645 3
-4 -18 -30 19.292 166.82 2
-5 -18 -30 129.198 105.193 2
18 30 -6 324.25 173.242 3
-6 -18 -30 55.2286 65.1585 2
18 30 -7 29.2446 62.568 3
-7 -18 -30 13.0064 89.6012 2
18 30 -8 176.291 137.351 3
-8 -18 -30 6.7793 129.673 2
-9 -18 -30 5.97773 86.3819 2
18 30 -9 143.706 158.111 3
30 10 -18 0.47519 64.9418 3
-10 -18 -30 -12.1753 92.25 2
18 30 -10 47.8794 63.4548 3
30 11 -18 6.21618 145.16 3
-11 -18 -30 36.907 110.104 2
18 30 -11 65.6637 54.6949 3
30 12 -18 70.3439 187.446 3
-12 -18 -30 148.68 135.131 2
18 30 -12 372.211 169.591 3
30 13 -18 50.603 155.774 3
-13 -18 -30 -3.4989 62.2835 2
18 30 -13 154.809 125.621 3
30 14 -18 20.0344 146.717 3
-14 -18 -30 15.5125 70.614 2
18 30 -14 51.108 79.585 3
30 15 -18 -0.38233 105.89 3
-15 -18 -30 19.5882 58.3228 2
18 30 -15 -45.8426 91.3387 3
30 16 -18 90.0463 128.561 3
-16 -18 -30 40.3433 74.9589 2
18 30 -16 220.796 117.843 3
30 19 -15 99.9897 108.546 3
15 30 -19 115.605 136.307 3
30 19 -14 114.492 155.405 3
14 30 -19 3.31586 96.0758 3
30 19 -13 120.775 117.403 3
13 30 -19 144.485 152.218 3
30 19 -12 51.5952 78.4781 3
12 30 -19 57.3638 126.987 3
30 19 -11 250.979 142.41 3
30 19 -10 363.161 166.803 3
30 19 -9 138.844 145.494 3
30 19 -8 24.6706 98.7131 3
30 19 -7 331.057 161.037 3
30 19 -6 126.425 84.0967 3
30 19 -5 238.59 170.241 3
30 19 -4 100.755 141.643 3
30 19 -3 -27.8531 54.9494 3
19 30 3 110.328 130.997 3
2 -19 -30 81.5644 203.815 2
19 30 2 304.952 137.44 3
1 -19 -30 128.709 181.911 2
30 19 -1 79.7449 113.306 3
19 30 1 -24.3491 97.949 3
0 -19 -30 40.4696 148.292 2
30 19 0 198.834 158.161 3
19 30 0 92.0913 125.925 3
-1 -19 -30 -19.7185 76.386 2
30 19 1 -18.9753 104.407 3
19 30 -1 11.732 61.8987 3
-2 -19 -30 30.3315 177.576 2
30 19 2 464.434 157.42 3
19 30 -2 426.83 174.807 3
-3 -19 -30 60.5044 133.645 2
30 19 3 -21.2825 37.6607 3
19 30 -3 2.94942 117.684 3
-4 -19 -30 11.9448 38.863 2
19 30 -4 145.179 131.87 3
-5 -19 -30 68.4958 129.324 2
19 30 -5 29.3318 54.6468 3
-6 -19 -30 46.5548 143.075 2
19 30 -6 -9.02875 68.0852 3
-7 -19 -30 376.715 198.782 2
19 30 -7 315.867 156.463 3
-8 -19 -30 30.4946 92.6878 2
19 30 -8 1.96895 93.5825 3
-9 -19 -30 52.4768 108.602 2
19 30 -9 199.395 118.888 3
-10 -19 -30 99.2206 145.429 2
19 30 -10 256.593 165.19 3
-11 -19 -30 32.0812 119.452 2
19 30 -11 136.429 157.363 3
-12 -19 -30 48.5267 109.202 2
19 30 -12 145.041 129.915 3
30 13 -19 132.066 154.699 3
-13 -19 -30 2.75513 119.789 2
19 30 -13 377.054 164.368 3
30 14 -19 16.1017 63.5922 3
-14 -19 -30 44.1628 103.658 2
19 30 -14 194.186 139.816 3
30 15 -19 8.82751 112.397 3
-15 -19 -30 85.1561 109.748 2
19 30 -15 200.603 125.539 3
30 20 -14 205.869 157.994 3
14 30 -20 3.57833 79.5576 3
30 20 -13 133.33 135.477 3
13 30 -20 17.9282 41.0542 3
30 20 -12 45.1976 99.8894 3
12 30 -20 -1.43916 57.7248 3
30 20 -11 387.089 151.72 3
11 30 -20 4.50671 108.6 3
30 20 -10 418.778 193.183 3
30 20 -9 262.761 131.992 3
30 20 -8 19.123 101.404 3
30 20 -7 66.2767 77.9023 3
30 20 -6 151.111 100.384 3
30 20 -5 432.817 189.72 3
30 20 -4 77.7978 164.367 3
30 20 -3 99.8989 152.55 3
20 30 3 71.2447 78.8718 3
30 20 -2 10.6375 41.2204 3
20 30 2 -40.7083 96.0197 3
1 -20 -30 71.6963 157.08 2
30 20 -1 313.558 147.993 3
20 30 1 120.613 112.283 3
0 -20 -30 -7.0553 89.5881 2
30 20 0 4.85472 93.1843 3
20 30 0 21.7906 66.8573 3
-1 -20 -30 44.9751 130.921 2
30 20 1 189.403 112.653 3
20 30 -1 37.7357 127.957 3
-2 -20 -30 -11.8607 68.9477 2
30 20 2 91.3877 110.699 3
20 30 -2 -75.3912 105.935 3
-3 -20 -30 61.4852 147.131 2
30 20 3 145.244 95.3023 3
20 30 -3 79.7432 134.49 3
-4 -20 -30 -23.4925 99.8736 2
20 30 -4 5.60814 101.216 3
-5 -20 -30 85.2122 118.876 2
20 30 -5 112.262 150.373 3
-6 -20 -30 103.254 151.578 2
20 30 -6 82.6162 121.135 3
-7 -20 -30 122.192 155.084 2
20 30 -7 115.989 129.106 3
-8 -20 -30 2.66435 63.4287 2
20 30 -8 101.29 69.0962 3
-9 -20 -30 95.2286 132.944 2
20 30 -9 121.575 102.982 3
-10 -20 -30 39.063 73.86 2
20 30 -10 295.277 191.549 3
-11 -20 -30 53.1831 141.642 2
20 30 -11 266.7 157.477 3
-12 -20 -30 -9.62438 30.7969 2
20 30 -12 -22.4616 88.2283 3
-13 -20 -30 -39.1351 46.4585 2
20 30 -13 -47.9029 104.144 3
20 30 -14 189.471 112.798 3
30 21 -12 62.8029 62.6882 3
12 30 -21 19.8314 78.8069 3
30 21 -11 225.671 117.389 3
11 30 -21 12.3531 114.491 3
30 21 -10 -9.22068 58.2782 3
10 30 -21 -12.1458 98.8547 3
30 21 -9 401.484 179.062 3
9 30 -21 72.7946 122.874 3
30 21 -8 204.441 119.775 3
30 21 -7 -29.9457 67.2375 3
30 21 -6 84.1706 93.1423 3
30 21 -5 189.545 149.875 3
30 21 -4 77.5421 69.6449 3
30 21 -3 67.5619 102.786 3
30 21 -2 74.1091 87.5677 3
21 30 2 31.8293 83.2316 3
30 21 -1 14.8722 59.2802 3
21 30 1 67.3387 90.4534 3
30 21 0 958.972 232.711 3
21 30 0 952.44 255.707 3
30 21 1 66.6351 118.171 3
21 30 -1 -3.04936 49.9149 3
30 21 2 113.061 122.428 3
21 30 -2 32.2611 103.127 3
21 30 -3 7.28363 106.853 3
21 30 -4 74.7467 140.411 3
21 30 -5 278.442 182.874 3
21 30 -6 -13.7935 41.3493 3
21 30 -7 -288.878 114.452 3
21 30 -8 226.641 149.922 3
21 30 -9 232.712 171.112 3
21 30 -10 7.53294 72.311 3
21 30 -11 135.764 109.147 3
21 30 -12 250.162 113.317 3
30 22 -10 223.729 133.456 3
10 30 -22 15.1691 72.5915 3
30 22 -9 174.17 131.651 3
9 30 -22 48.9822 109.652 3
30 22 -8 92.3464 63.9246 3
8 30 -22 36.8953 99.6253 3
30 22 -7 706.924 206.113 3
30 22 -6 47.6006 91.0129 3
30 22 -5 66.694 76.6676 3
30 22 -4 102.635 113.164 3
30 22 -3 215.446 171.479 3
30 22 -2 402.168 162.151 3
22 30 2 292.844 117.194 3
30 22 -1 394.132 152.35 3
22 30 1 208.02 115.506 3
30 22 0 48.1949 88.4359 3
22 30 0 -45.4472 91.237 3
30 22 1 323.207 136.801 3
22 30 -1 360.64 127.687 3
30 22 2 317.241 144.493 3
22 30 -2 456.159 153.89 3
22 30 -3 274.848 136.171 3
22 30 -4 91.372 119.076 3
22 30 -5 -5.8577 80.3407 3
22 30 -6 10.7079 59.1752 3
22 30 -7 776.831 215.582 3
22 30 -8 208.413 116.438 3
22 30 -9 255.382 152.976 3
22 30 -10 61.0558 40.8937 3
30 23 -8 95.8787 61.5798 3
30 23 -7 75.5412 125.393 3
30 23 -6 -9.89343 37.4767 3
30 23 -5 0.93085 51.2582 3
30 23 -4 717.504 171.617 3
30 23 -3 51.2657 95.8693 3
30 23 -2 851.51 223.383 3
30 23 -1 -27.8213 68.4528 3
23 30 1 -33.2644 70.1293 3
30 23 0 -30.7673 52.5502 3
23 30 0 68.3424 73.3553 3
30 23 1 -27.3258 64.232 3
23 30 -1 -54.1953 80.1155 3
23 30 -2 294.936 165.139 3
23 30 -3 234.142 146.718 3
23 30 -4 300.837 169.3 3
23 30 -5 78.8726 108.699 3
23 30 -6 113.299 76.6708 3
23 30 -7 259.26 146.616 3
23 30 -8 41.8064 45.0924 3
30 24 -4 254.657 124.31 3
30 24 -3 87.1744 81.1582 3
30 24 -2 11.6964 49.5137 3
30 24 -1 316.122 112.759 3
24 30 1 235.701 104.09 3
30 24 0 606.204 171.377 3
24 30 0 825.226 169.145 3
30 24 1 77.4607 63.0613 3
24 30 -1 281.542 132.003 3
24 30 -2 85.7854 65.368 3
24 30 -3 130.354 127.327 3
24 30 -4 272.581 140.292 3
0 0 -31 39.4353 124.672 2
1 0 -31 483.534 251.11 2
0 1 -31 407.098 227.489 2
0 -1 -31 484.964 243.397 2
-1 0 -31 581.274 236.943 2
1 1 -31 834.951 289.822 2
1 -1 -31 670.857 271.482 2
-1 1 -31 633.642 266.805 2
-1 -1 -31 496.374 241.116 2
2 1 -31 504.618 228.021 2
1 -2 -31 414.288 232.445 2
-1 2 -31 439.238 207.202 2
-2 -1 -31 714.631 261.875 2
2 0 -31 119.497 162.902 2
0 2 -31 429.163 196.785 2
0 -2 -31 250.896 153.324 2
-2 0 -31 281.756 144.588 2
1 2 -31 695.914 247.503 2
-1 -2 -31 364.675 229.298 2
-2 1 -31 496.436 215.464 2
2 -1 -31 449.509 227.51 2
2 2 -31 6.90144 48.4493 2
2 -2 -31 65.6977 54.8653 2
-2 2 -31 101.76 76.9361 2
-2 -2 -31 -5.82102 128.044 2
3 2 -31 291.177 124.815 2
2 -3 -31 343.555 239.422 2
-2 3 -31 511.137 166.355 2
-3 -2 -31 246.331 226.218 2
3 1 -31 -17.6412 66.4657 2
1 -3 -31 30.5383 122.654 2
-1 3 -31 -24.8087 63.2309 2
-3 -1 -31 92.4223 125.62 2
3 0 -31 43.1385 140.856 2
0 3 -31 320.593 150.609 2
0 -3 -31 -0.31125 56.89 2
-3 0 -31 12.1399 134.464 2
3 -1 -31 20.3928 89.8228 2
1 3 -31 -71.6987 159.429 2
-1 -3 -31 87.6002 183.227 2
-3 1 -31 -5.80746 91.4415 2
2 3 -31 700.865 168.169 2
3 -2 -31 424.685 206.184 2
-3 2 -31 187.932 99.0382 2
-2 -3 -31 305.441 194.747 2
-3 3 -31 2822.38 384.305 2
3 3 -31 2458.29 359.333 2
3 -3 -31 1333.3 400.826 2
-3 -3 -31 1372.54 403.096 2
4 3 -31 1030.32 252.303 2
3 -4 -31 676.52 265.184 2
-3 4 -31 1036.52 233.391 2
-4 -3 -31 662.99 280.277 2
4 2 -31 963.478 271.918 2
2 -4 -31 1135.67 321.376 2
-2 4 -31 1695.11 287.675 2
-4 -2 -31 1000.13 334.137 2
4 1 -31 957.675 291.448 2
-1 4 -31 1389.03 281.943 2
1 -4 -31 525.268 265.389 2
-4 -1 -31 824.996 314.321 2
4 0 -31 29.9447 93.7409 2
0 4 -31 115.666 51.5347 2
0 -4 -31 -36.0895 123.066 2
-4 0 -31 109.3 88.3381 2
4 -1 -31 974.612 311.92 2
1 4 -31 1483.9 293.516 2
-1 -4 -31 646.195 263.882 2
-4 1 -31 717.808 283.312 2
2 4 -31 1729.6 307.739 2
4 -2 -31 1070.54 326.457 2
-2 -4 -31 973.022 326.679 2
-4 2 -31 1051.02 280.334 2
3 4 -31 842.907 234.096 2
4 -3 -31 530.192 283.326 2
-4 3 -31 1151.7 237.002 2
-3 -4 -31 397.103 249.292 2
4 4 -31 46.6529 60.413 2
4 -4 -31 6.90023 68.2462 2
-4 4 -31 71.5395 48.1353 2
-4 -4 -31 124.771 152.641 2
5 4 -31 56.9807 66.9366 2
31 5 -4 -3.02488 160.689 3
4 -5 -31 -14.1773 87.4837 2
-4 5 -31 85.3351 116.509 2
-5 -4 -31 -0.30772 82.5037 2
5 3 -31 258.013 199.578 2
3 -5 -31 208.603 124.074 2
31 5 -3 34.7313 208.542 3
-3 5 -31 499.094 147.363 2
-5 -3 -31 181.629 201.948 2
5 2 -31 87.9575 122.377 2
2 -5 -31 386.898 178.001 2
31 5 -2 7.13764 176.422 3
-2 5 -31 506.322 110.613 2
-5 -2 -31 109.905 158.353 2
5 1 -31 317.141 200.864 2
-1 5 -31 621.245 159.751 2
1 -5 -31 378.026 236.36 2
-5 -1 -31 336.511 219.631 2
5 0 -31 81.3539 53.0816 2
0 -5 -31 34.3912 106.454 2
-5 0 -31 -19.6218 50.3207 2
5 -1 -31 261.235 171.708 2
1 5 -31 561.64 147.008 2
-1 -5 -31 439.972 246.418 2
-5 1 -31 383.351 215.315 2
5 -2 -31 162.44 160.469 2
2 5 -31 532.037 180.054 2
-2 -5 -31 162.688 137.511 2
-5 2 -31 137.234 124.467 2
3 5 -31 590.15 167.833 2
5 -3 -31 211.914 179.626 2
-3 -5 -31 205.877 196.823 2
4 5 -31 -1.05646 63.0065 2
5 -4 -31 60.3956 149.413 2
31 4 -5 5.13682 113.944 3
-5 4 -31 260.338 76.5787 2
-4 -5 -31 -21.786 127.473 2
5 5 -31 1239.48 254.272 2
5 -5 -31 1178.28 316.892 2
31 5 -5 1749.21 356.977 3
-5 5 -31 1402.85 277.838 2
-5 -5 -31 634.939 291.799 2
6 5 -31 343.353 146.314 2
5 -6 -31 177.053 165.048 2
31 6 -5 293.522 171.796 3
-5 6 -31 293.782 84.5407 2
6 4 -31 283.341 160.299 2
4 -6 -31 194.328 179.024 2
31 6 -4 255.507 170.486 3
-4 6 -31 117.884 100.464 2
6 3 -31 66.9142 80.4393 2
3 -6 -31 73.0238 82.361 2
31 6 -3 215.637 178.476 3
-3 6 -31 265.056 127.64 2
6 2 -31 106.74 84.8816 2
31 6 -2 1.93097 69.4801 3
2 -6 -31 414.249 183.509 2
-2 6 -31 309.422 144.59 2
6 1 -31 458.124 222.236 2
-1 6 -31 722.451 179.08 2
31 6 -1 26.4164 268.269 3
1 -6 -31 858.994 246.42 2
6 0 -31 1559.86 357.862 2
0 6 -31 1972.32 295.317 2
0 -6 -31 2353.86 408.284 2
6 -1 -31 341.256 231.15 2
1 6 -31 812.362 183.047 2
-1 -6 -31 995.064 257.819 2
-6 1 -31 409.63 223.73 2
6 -2 -31 135.328 191.022 2
2 6 -31 474.337 151.074 2
-2 -6 -31 401.71 197.149 2
-6 2 -31 221.418 138.823 2
3 6 -31 212.15 92.7633 2
6 -3 -31 0.61965 82.8219 2
-3 -6 -31 72.7537 52.1672 2
-6 3 -31 129.057 81.6721 2
4 6 -31 99.7512 103.172 2
6 -4 -31 44.9137 119.215 2
31 4 -6 4.49086 162.702 3
-6 4 -31 124.057 84.0026 2
-4 -6 -31 -111.03 154.881 2
5 6 -31 244.646 55.4823 2
6 -5 -31 333.377 143.181 2
31 5 -6 512.216 247.099 3
-6 5 -31 525.492 178.135 2
-5 -6 -31 451.132 190.814 2
6 6 -31 106.117 78.5266 2
6 -6 -31 -2.81823 84.838 2
31 6 -6 286.557 188.724 3
-6 6 -31 110.19 123.7 2
6 -7 -31 242.216 138.771 2
31 7 -6 171.526 139.272 3
-6 7 -31 221.005 143.519 2
5 -7 -31 2121.91 404.568 2
31 7 -5 1843.79 370.89 3
-5 7 -31 1489.72 317.041 2
7 4 -31 356.925 181.749 2
4 -7 -31 412.708 146.418 2
31 7 -4 214.541 165.984 3
-4 7 -31 356.412 210.023 2
-3 7 -31 624.68 230.984 2
7 3 -31 555.599 265.416 2
3 -7 -31 699.339 225.587 2
31 7 -3 691.112 245.25 3
7 2 -31 265.532 183.919 2
-2 7 -31 354.95 131.337 2
31 7 -2 291.714 200.078 3
2 -7 -31 306.549 171.104 2
7 1 -31 37.4073 87.7877 2
1 -7 -31 62.9133 51.9006 2
7 0 -31 71.7104 145.533 2
0 7 -31 197.416 105.356 2
31 7 0 16.9716 147.521 3
0 -7 -31 250.225 185.89 2
7 -1 -31 -31.7169 123.021 2
1 7 -31 -36.1645 108.844 2
31 7 1 -28.5024 118.04 3
-1 -7 -31 74.4359 130.017 2
7 -2 -31 359.251 200.896 2
2 7 -31 375.884 112.092 2
-2 -7 -31 446.3 182.036 2
3 7 -31 811.822 196.743 2
7 -3 -31 727.008 316.736 2
-3 -7 -31 635.902 234.098 2
-7 3 -31 1095.47 246.706 2
4 7 -31 135.531 113.622 2
7 -4 -31 290.011 194.763 2
31 4 -7 31.2416 237.733 3
-4 -7 -31 299.659 148.643 2
-7 4 -31 578.697 156.301 2
5 7 -31 1137.71 279.572 2
7 -5 -31 1870.66 379.653 2
31 5 -7 2327.49 419.41 3
-7 5 -31 1087.88 277.779 2
-5 -7 -31 1459.19 331.41 2
7 -6 -31 18.3716 49.8225 2
-7 6 -31 12.2614 73.0378 2
7 -7 -31 354.217 180.011 2
31 7 -7 921.176 263.149 3
-7 7 -31 477.94 207.879 2
7 -8 -31 130.794 136.419 2
31 8 -7 285.734 204.004 3
-7 8 -31 42.8877 87.6371 2
6 -8 -31 52.9987 159.183 2
31 8 -6 147.616 130.057 3
-6 8 -31 70.8558 99.418 2
5 -8 -31 30.5426 132.231 2
31 8 -5 121.204 157.77 3
-5 8 -31 5.97792 108.117 2
4 -8 -31 323.915 205.769 2
-4 8 -31 122.375 77.1871 2
31 8 -4 487.296 244.391 3
-3 8 -31 140.598 137.684 2
3 -8 -31 114.254 97.8154 2
31 8 -3 30.886 76.664 3
8 2 -31 32.7703 83.0101 2
-2 8 -31 -13.185 84.1929 2
2 -8 -31 204.704 161.097 2
31 8 -2 93.3304 102.55 3
8 1 -31 153.658 133.622 2
-1 8 -31 148.424 132.574 2
31 8 -1 150.232 116.803 3
1 -8 -31 300.485 196.998 2
8 0 -31 57.4736 90.7391 2
0 8 -31 6.66438 79.3274 2
31 8 0 123.964 178.911 3
0 -8 -31 111.014 144.277 2
31 8 1 33.3603 108.093 3
8 -1 -31 106.438 89.3229 2
1 8 -31 170.707 75.7473 2
-1 -8 -31 280.058 151.725 2
8 -2 -31 43.8098 130.264 2
2 8 -31 83.2774 105.697 2
31 8 2 35.8212 60.6642 3
-2 -8 -31 79.5188 89.2111 2
3 8 -31 68.3595 55.7589 2
8 -3 -31 90.2361 162.558 2
-3 -8 -31 116.913 126.218 2
4 8 -31 127.529 115.529 2
8 -4 -31 271.028 179.699 2
31 4 -8 539.101 198.692 3
-4 -8 -31 378.432 173.651 2
-8 4 -31 410.837 186.158 2
8 -5 -31 -56.631 187.424 2
31 5 -8 381.4 207.453 3
-8 5 -31 111.435 143.873 2
-5 -8 -31 119.7 144.149 2
8 -6 -31 140.362 112.15 2
31 6 -8 -0.34246 63.7784 3
-8 6 -31 122.781 122.234 2
-6 -8 -31 -19.5177 79.6285 2
8 -7 -31 83.7046 101.281 2
-8 7 -31 56.525 110.321 2
8 -8 -31 837.686 242.207 2
31 8 -8 926.588 248.768 3
8 -9 -31 154.437 109.243 2
31 9 -8 273.367 166.93 3
7 -9 -31 2196.64 333.251 2
31 9 -7 2520.14 409.525 3
6 -9 -31 110.309 112.936 2
31 9 -6 63.2848 86.844 3
5 -9 -31 323.456 187.165 2
31 9 -5 110.497 111.859 3
4 -9 -31 344.848 161.523 2
31 9 -4 -31.6429 87.8199 3
3 -9 -31 1189.85 293.933 2
31 9 -3 1301.62 334.87 3
2 -9 -31 256.745 161.291 2
31 9 -2 178.325 159.832 3
31 9 -1 -86.5642 149.421 3
1 -9 -31 -60.8145 114.737 2
9 0 -31 389.076 231.91 2
31 9 0 581.344 240.998 3
0 -9 -31 597.033 215.287 2
9 -1 -31 67.8358 122.203 2
31 9 1 135.469 155.522 3
-1 -9 -31 37.0417 78.4347 2
9 -2 -31 -18.439 53.8834 2
31 9 2 -7.7117 103.925 3
-2 -9 -31 220.669 178.543 2
9 -3 -31 586.442 282.495 2
31 9 3 193.852 276.804 3
9 -4 -31 233.158 194.661 2
-4 -9 -31 159.135 152.879 2
9 -5 -31 156.544 94.2619 2
31 5 -9 -74.2508 159.85 3
-5 -9 -31 289.243 163.587 2
-9 5 -31 275.826 156.403 2
9 -6 -31 57.6105 163.888 2
31 6 -9 330.048 216.614 3
-9 6 -31 -1.39885 100.715 2
-6 -9 -31 199.563 168.483 2
-9 7 -31 1586.78 319.477 2
9 -7 -31 2332.24 406.15 2
31 7 -9 2314.24 432.523 3
9 -8 -31 196.471 126.709 2
31 8 -9 204.405 179.733 3
31 9 -9 214.234 215.343 3
31 10 -9 290.25 150.098 3
8 -10 -31 482.987 168.658 2
31 10 -8 164.482 128.406 3
7 -10 -31 136.856 129.992 2
31 10 -7 308.309 169.682 3
6 -10 -31 358.762 157.961 2
31 10 -6 514.962 222.916 3
5 -10 -31 58.6014 69.6047 2
31 10 -5 402.746 144.285 3
4 -10 -31 355.075 141.959 2
31 10 -4 370.177 199.653 3
3 -10 -31 153.577 153.648 2
31 10 -3 55.6807 61.4437 3
2 -10 -31 650.642 200.024 2
31 10 -2 439.432 192.933 3
1 -10 -31 -11.3856 60.43 2
31 10 -1 -14.0508 87.0772 3
31 10 0 -60.6977 143.094 3
0 -10 -31 -167.067 109.144 2
31 10 1 87.3538 141.852 3
-1 -10 -31 98.3041 72.7917 2
31 10 2 264.955 123.533 3
-2 -10 -31 520.076 178.252 2
31 10 3 1.5532 74.9038 3
-3 -10 -31 137.51 124.812 2
-4 -10 -31 505.725 189.487 2
31 5 -10 67.4428 95.9658 3
-5 -10 -31 273.461 181.445 2
31 6 -10 -14.1843 155.791 3
-6 -10 -31 409.954 147.192 2
-10 6 -31 248.067 180.773 2
31 7 -10 -82.207 178.358 3
-10 7 -31 -41.9845 87.1257 2
-7 -10 -31 59.362 115.881 2
31 8 -10 474.072 232.014 3
31 9 -10 561.966 211.885 3
31 10 -10 322.722 192.875 3
31 11 -10 465.24 176.215 3
31 11 -9 70.8355 104.319 3
8 -11 -31 337.362 135.122 2
31 11 -8 221.139 192.642 3
7 -11 -31 -21.9071 89.6448 2
31 11 -7 -139.242 186.913 3
6 -11 -31 -72.279 58.8631 2
31 11 -6 25.4784 69.7488 3
5 -11 -31 1618.43 314.306 2
31 11 -5 1499.57 349.834 3
4 -11 -31 527.608 168.883 2
31 11 -4 46.2225 79.4038 3
3 -11 -31 274.201 132.975 2
31 11 -3 14.7466 84.5806 3
2 -11 -31 565.179 205.954 2
31 11 -2 193.18 158.495 3
1 -11 -31 224.132 159.294 2
31 11 -1 449.803 219.484 3
0 -11 -31 960.015 255.509 2
31 11 0 546.626 214.218 3
31 11 1 194.04 113.53 3
-1 -11 -31 565.264 216.002 2
31 11 2 215.378 104.471 3
-2 -11 -31 67.3589 90.4647 2
31 11 3 106.481 102.13 3
-3 -11 -31 202.018 164.801 2
31 11 4 3491.11 1452.15 3
-4 -11 -31 174.53 152.994 2
31 5 -11 2098.04 386.993 3
-5 -11 -31 1654.16 327.051 2
31 6 -11 -8.64829 109.529 3
-6 -11 -31 -261.837 186.083 2
31 7 -11 32.5645 121.928 3
-11 7 -31 38.6191 73.6628 2
-7 -11 -31 19.8578 62.2071 2
31 8 -11 404.638 198.618 3
31 9 -11 124.496 125.249 3
31 10 -11 20.6621 121.805 3
31 11 -11 -90.8675 139.112 3
31 12 -11 323.172 169.15 3
31 12 -10 353.421 205.897 3
31 12 -9 171.883 140.702 3
31 12 -8 -7.78102 128.667 3
7 -12 -31 8.22822 68.385 2
31 12 -7 -80.8567 64.7953 3
6 -12 -31 -11.4764 58.5663 2
31 12 -6 -59.8116 106.112 3
5 -12 -31 417.775 140.682 2
31 12 -5 132.08 115.63 3
4 -12 -31 -224.524 128.746 2
31 12 -4 3.66831 109.606 3
3 -12 -31 -61.2674 109.414 2
31 12 -3 42.1003 134.304 3
2 -12 -31 646.968 171.079 2
31 12 -2 266.499 200.653 3
1 -12 -31 185.714 137.332 2
31 12 -1 365.971 168.801 3
0 -12 -31 163.651 123.248 2
31 12 0 24.2245 86.9035 3
31 12 1 301.02 177.94 3
-1 -12 -31 49.1734 56.147 2
31 12 2 306.781 177.133 3
-2 -12 -31 771.375 207.302 2
31 12 3 7.13941 157.912 3
-3 -12 -31 -85.282 62.2048 2
31 12 4 7.46388 90.081 3
-4 -12 -31 35.674 104.328 2
-5 -12 -31 451.528 156.556 2
31 6 -12 -9.11577 78.172 3
-6 -12 -31 174.139 127.05 2
31 7 -12 -166.978 109.053 3
-7 -12 -31 87.6856 79.4815 2
-12 7 -31 66.1799 112.565 2
31 8 -12 431.591 171.657 3
-8 -12 -31 292.038 145.289 2
31 9 -12 81.9645 66.1393 3
31 10 -12 314.14 175.807 3
31 11 -12 530.077 227.563 3
31 12 -12 120.489 101.434 3
31 13 -12 521.623 234.71 3
31 13 -11 409.079 191.955 3
31 13 -10 126.646 122.42 3
31 13 -9 526.911 219.095 3
31 13 -8 206.805 138.895 3
7 -13 -31 277.726 168.805 2
31 13 -7 234.364 119.056 3
6 -13 -31 23.8267 61.9249 2
31 13 -6 50.3854 69.2056 3
5 -13 -31 31.9078 105.841 2
31 13 -5 33.4699 69.6015 3
4 -13 -31 54.4576 92.6557 2
31 13 -4 60.8066 102.499 3
3 -13 -31 1119.09 271.057 2
31 13 -3 687.04 250.84 3
2 -13 -31 614.361 246.326 2
31 13 -2 310.05 166.454 3
1 -13 -31 168.028 155.374 2
31 13 -1 162.783 173.849 3
0 -13 -31 355.391 147.706 2
31 13 0 71.8484 57.6156 3
-1 -13 -31 280.678 145.825 2
31 13 1 90.7029 139.877 3
31 13 2 145.066 134.048 3
-2 -13 -31 618.739 184.559 2
31 13 3 602.855 221.345 3
-3 -13 -31 1169.53 288.183 2
31 13 4 12.3976 121.465 3
-4 -13 -31 16.2992 53.9371 2
-5 -13 -31 50.0959 170.896 2
31 6 -13 -107.274 131.566 3
-6 -13 -31 -2.19956 134.186 2
31 7 -13 6.8745 79.8975 3
-7 -13 -31 49.2865 217.945 2
31 8 -13 403.707 158.116 3
-8 -13 -31 12.7686 149.327 2
31 9 -13 301.161 177.927 3
-9 -13 -31 35.6836 183.283 2
31 10 -13 160.466 148.399 3
31 11 -13 889.072 240.671 3
31 12 -13 342.665 167.721 3
31 13 -13 -123.107 74.7136 3
31 14 -13 -126.082 152.74 3
31 14 -12 34.5442 64.8772 3
31 14 -11 30.352 69.1813 3
31 14 -10 124.058 151.628 3
31 14 -9 -39.1635 129.819 3
31 14 -8 -41.0532 63.7207 3
31 14 -7 312.341 122.869 3
6 -14 -31 130.552 131.214 2
31 14 -6 90.6881 139.652 3
5 -14 -31 264.657 109.654 2
31 14 -5 229.734 125.901 3
4 -14 -31 209.393 145.936 2
31 14 -4 310.213 183.925 3
3 -14 -31 701.038 193.937 2
31 14 -3 546.029 232.46 3
2 -14 -31 425.69 195.98 2
31 14 -2 114.247 128.084 3
1 -14 -31 369.175 157.483 2
31 14 -1 19.8074 74.6598 3
0 -14 -31 1455.06 283.216 2
31 14 0 1146.53 290.329 3
-1 -14 -31 357.479 176.874 2
31 14 1 -13.1574 68.554 3
31 14 2 896.497 374.717 3
-2 -14 -31 280.97 141.447 2
31 14 3 208.362 152.368 3
-3 -14 -31 1026.95 243.663 2
31 14 4 63.6852 54.9057 3
-4 -14 -31 448.783 194.767 2
-5 -14 -31 401.626 188.513 2
-6 -14 -31 97.3888 89.4833 2
31 7 -14 146.042 77.2163 3
-7 -14 -31 67.5347 181.729 2
31 8 -14 150.178 107.149 3
-8 -14 -31 0.7645 89.1131 2
31 9 -14 367.095 197.857 3
-9 -14 -31 9.96241 68.306 2
31 10 -14 -27.2369 110.197 3
-10 -14 -31 7.03476 70.3652 2
31 11 -14 122.568 64.3752 3
-11 -14 -31 29.6485 101.551 2
31 12 -14 209.914 110.921 3
31 13 -14 128.363 152.135 3
31 14 -14 32.8646 86.1618 3
31 15 -14 330.812 168.84 3
31 15 -13 309.309 143.825 3
31 15 -12 -111.114 87.1388 3
31 15 -11 348.889 191.721 3
31 15 -10 61.3902 77.4262 3
31 15 -9 127.868 133.538 3
31 15 -8 121.498 169.643 3
31 15 -7 102.316 94.8022 3
31 15 -6 -52.8645 72.9985 3
5 -15 -31 5.86464 129.159 2
31 15 -5 321.083 140.691 3
4 -15 -31 -28.3414 114.565 2
31 15 -4 -51.9974 118.621 3
3 -15 -31 -9.86895 61.4536 2
31 15 -3 -1.65015 68.6647 3
2 -15 -31 -51.1906 52.1193 2
31 15 -2 231.438 157.815 3
1 -15 -31 374.49 174.88 2
31 15 -1 87.2066 149.152 3
0 -15 -31 235.599 144.269 2
31 15 0 160.892 146.73 3
-1 -15 -31 548.228 151.431 2
31 15 1 191.97 164.505 3
-2 -15 -31 -121.434 113.366 2
31 15 2 62.3391 130.395 3
31 15 3 -117.23 149.543 3
-3 -15 -31 -91.3854 108.801 2
31 15 4 89.33 131.377 3
-4 -15 -31 9.7824 54.5138 2
-5 -15 -31 34.8771 149.18 2
-6 -15 -31 -9.03668 92.7544 2
-7 -15 -31 39.9719 183.103 2
31 8 -15 -26.847 66.383 3
-8 -15 -31 -9.18499 83.3163 2
31 9 -15 394.299 161.635 3
-9 -15 -31 46.0019 116.583 2
31 10 -15 293.09 116.69 3
-10 -15 -31 11.6916 118.811 2
31 11 -15 824.329 232.474 3
-11 -15 -31 75.2033 167.708 2
31 12 -15 178.369 154.762 3
-12 -15 -31 -15.3807 55.5954 2
31 13 -15 610.571 174.093 3
-13 -15 -31 41.3306 123.83 2
15 31 -14 -35.8122 77.8691 3
31 14 -15 54.0429 70.7499 3
-14 -15 -31 48.1125 87.3958 2
31 15 -15 64.3924 85.4978 3
15 31 -15 -69.6013 123.222 3
31 16 -15 2.2954 82.6492 3
15 31 -16 -49.3249 83.0407 3
31 16 -14 233.751 124.084 3
14 31 -16 376.9 158.888 3
31 16 -13 152.679 124.693 3
31 16 -12 -7.37678 102.733 3
31 16 -11 13.502 58.5234 3
31 16 -10 223.608 160.524 3
31 16 -9 -5.07586 102.722 3
31 16 -8 -32.2163 139.269 3
31 16 -7 7.08766 70.4855 3
31 16 -6 -352.769 141.822 3
5 -16 -31 60.8338 175.785 2
31 16 -5 310.555 213.267 3
4 -16 -31 18.9043 70.4261 2
31 16 -4 92.656 118.349 3
16 31 4 -20.45 80.1446 3
3 -16 -31 19.3226 130.965 2
31 16 -3 28.534 68.9639 3
2 -16 -31 57.1172 160.882 2
31 16 -2 64.3482 64.1789 3
1 -16 -31 51.9081 216.922 2
31 16 -1 458.354 229.304 3
0 -16 -31 26.9832 138.198 2
31 16 0 78.6777 103.864 3
-1 -16 -31 116.234 232.42 2
31 16 1 540.739 221.434 3
-2 -16 -31 43.1232 204.414 2
31 16 2 140.533 139.273 3
-3 -16 -31 36.7315 181.634 2
31 16 3 215.5 149.956 3
31 16 4 27.6127 94.8617 3
-4 -16 -31 34.2163 153.735 2
-5 -16 -31 80.5613 211.173 2
-6 -16 -31 39.6719 142.507 2
-7 -16 -31 32.9133 122.698 2
-8 -16 -31 130.56 140.021 2
31 9 -16 45.1359 78.7478 3
-9 -16 -31 -7.28541 68.0276 2
31 10 -16 449.853 165.723 3
-10 -16 -31 8.56326 98.4529 2
31 11 -16 115.704 118.027 3
-11 -16 -31 4.7516 76.5723 2
16 31 -12 118.119 142.859 3
31 12 -16 90.6841 126.157 3
-12 -16 -31 29.9338 86.6669 2
31 13 -16 346.028 160.063 3
-13 -16 -31 37.4502 128.226 2
16 31 -13 125.506 104.602 3
31 14 -16 199.815 89.2006 3
-14 -16 -31 55.5626 79.5687 2
16 31 -14 354.888 150.295 3
31 15 -16 121.139 109.993 3
-15 -16 -31 -3.37091 57.4557 2
16 31 -15 29.4677 42.6908 3
31 16 -16 25.4451 104.774 3
-16 -16 -31 39.5801 71.7098 2
16 31 -16 -15.05 51.6389 3
31 17 -15 -0.3903 75.4934 3
15 31 -17 -1.20983 80.5102 3
31 17 -14 106.727 130.652 3
14 31 -17 2.38093 107.867 3
13 31 -17 -5.96527 49.0823 3
31 17 -13 18.1783 104.735 3
31 17 -12 68.7814 113.446 3
31 17 -11 403.725 171.426 3
31 17 -10 121.033 110.905 3
31 17 -9 384.05 210.301 3
31 17 -8 36.0868 91.6439 3
31 17 -7 95.1009 108.81 3
31 17 -6 19.5203 57.0654 3
31 17 -5 284.24 155.561 3
4 -17 -31 -9.22072 73.4482 2
31 17 -4 -17.4352 64.2287 3
17 31 4 2.43146 33.7176 3
3 -17 -31 10.4555 169.535 2
31 17 -3 89.5313 107.695 3
17 31 3 60.1473 75.1964 3
2 -17 -31 10.0778 42.0523 2
31 17 -2 34.5188 74.7733 3
17 31 2 43.9766 96.6307 3
17 31 1 -88.7703 72.0682 3
1 -17 -31 -12.1975 66.8631 2
31 17 -1 57.7264 110.366 3
0 -17 -31 15.6805 129.887 2
31 17 0 9.47631 67.0658 3
-1 -17 -31 -12.4418 103.659 2
31 17 1 35.421 49.7113 3
-2 -17 -31 32.1368 73.966 2
31 17 2 -7.77965 91.7754 3
-3 -17 -31 33.2905 120.478 2
31 17 3 -2.57065 77.9365 3
-4 -17 -31 13.322 113.311 2
31 17 4 -42.9854 102.534 3
-5 -17 -31 21.8402 116.142 2
-6 -17 -31 14.2477 102.891 2
-7 -17 -31 -13.5312 72.8344 2
-8 -17 -31 16.139 58.7096 2
17 31 -9 429.386 184.646 3
-9 -17 -31 68.2169 117.174 2
17 31 -10 -8.61207 122.943 3
-10 -17 -31 -12.2061 87.4923 2
31 11 -17 36.0688 219.076 3
-11 -17 -31 129.488 172.243 2
17 31 -11 390.041 202.449 3
31 12 -17 65.4126 124.493 3
-12 -17 -31 51.2066 125.347 2
17 31 -12 75.2539 87.4099 3
31 13 -17 -15.9438 69.2561 3
-13 -17 -31 -9.1037 39.7492 2
31 14 -17 20.1128 117.827 3
-14 -17 -31 30.2533 91.783 2
17 31 -14 20.3053 56.2864 3
31 15 -17 1.87564 99.1614 3
-15 -17 -31 -11.1721 42.3187 2
17 31 -15 71.8471 113.883 3
31 18 -14 -29.8046 95.0979 3
14 31 -18 -6.0613 77.1069 3
31 18 -13 58.2194 128.159 3
13 31 -18 0.34625 58.8491 3
12 31 -18 71.8365 143.629 3
31 18 -12 469.743 215.513 3
31 18 -11 247.975 166.105 3
31 18 -10 37.7024 109.675 3
31 18 -9 174.558 152.409 3
31 18 -8 23.6383 52.7717 3
31 18 -7 111.166 139.37 3
31 18 -6 105.035 108.713 3
31 18 -5 139 141.931 3
31 18 -4 17.7429 65.6283 3
3 -18 -31 75.587 189.596 2
31 18 -3 626.941 205.065 3
18 31 3 651.188 189.658 3
2 -18 -31 -4.81991 112.481 2
31 18 -2 86.1672 122.587 3
18 31 2 39.8682 102.032 3
1 -18 -31 56.07 137.228 2
31 18 -1 351.205 170.714 3
18 31 1 310.302 165.013 3
0 -18 -31 81.5806 147.613 2
31 18 0 422.523 178.634 3
18 31 0 96.3641 79.8308 3
-1 -18 -31 131.38 179.919 2
31 18 1 213.298 125.478 3
18 31 -1 138.109 128.254 3
-2 -18 -31 23.5658 100.51 2
31 18 2 -3.94632 81.2219 3
18 31 -2 50.149 140.821 3
-3 -18 -31 165.245 231.784 2
31 18 3 386.44 152.011 3
18 31 -3 327.219 214.239 3
-4 -18 -31 -25.4223 105.962 2
18 31 -4 73.6859 109.376 3
-5 -18 -31 -22.6152 66.031 2
18 31 -5 18.41 49.5159 3
-6 -18 -31 44.4099 67.3463 2
18 31 -6 -6.05231 61.7571 3
-7 -18 -31 29.1432 103.539 2
18 31 -7 164.885 171.622 3
-8 -18 -31 32.171 73.0281 2
18 31 -8 0.23702 104.215 3
-9 -18 -31 -0.18434 82.35 2
18 31 -9 84.714 114.706 3
-10 -18 -31 -10.651 43.6198 2
18 31 -10 -14.2067 82.835 3
-11 -18 -31 62.0075 99.6791 2
18 31 -11 43.9179 108.329 3
-12 -18 -31 50.2033 123.34 2
18 31 -12 314.465 171.325 3
-13 -18 -31 22.8199 34.0135 2
18 31 -13 28.6876 63.8716 3
-14 -18 -31 17.0383 53.7706 2
18 31 -14 -33.4416 53.4634 3
31 19 -13 31.0707 56.2836 3
13 31 -19 67.054 117.153 3
31 19 -12 59.3222 111.29 3
12 31 -19 1.28299 62.2206 3
31 19 -11 162.628 116.17 3
11 31 -19 1.3414 106.955 3
31 19 -10 176.599 130.29 3
31 19 -9 375.184 144.041 3
31 19 -8 25.1421 124.312 3
31 19 -7 236.733 163.206 3
31 19 -6 -31.9796 45.199 3
31 19 -5 -18.9357 65.3528 3
31 19 -4 100.108 161.822 3
31 19 -3 48.304 114.001 3
19 31 3 116.24 113.817 3
31 19 -2 -409.865 134.407 3
19 31 2 58.1751 84.3276 3
1 -19 -31 -25.1216 71.2627 2
31 19 -1 -55.2394 55.9592 3
19 31 1 -8.39246 44.7501 3
0 -19 -31 76.014 130.243 2
31 19 0 320.752 138.857 3
19 31 0 268.921 169.277 3
-1 -19 -31 4.92775 99.2208 2
31 19 1 68.0459 81.7045 3
19 31 -1 140.073 120.626 3
-2 -19 -31 45.687 105.22 2
31 19 2 9.88936 83.4434 3
19 31 -2 83.4108 112.601 3
-3 -19 -31 55.6338 118.9 2
31 19 3 41.3675 100.125 3
19 31 -3 55.0802 88.5117 3
-4 -19 -31 83.3043 165.259 2
19 31 -4 151.644 109.832 3
-5 -19 -31 -11.2947 43.4825 2
19 31 -5 -125.542 83.708 3
-6 -19 -31 -33.3727 54.6003 2
19 31 -6 -17.9557 67.6044 3
-7 -19 -31 187.546 196.586 2
19 31 -7 53.2132 106.682 3
-8 -19 -31 46.5596 110.362 2
19 31 -8 118.419 112.7 3
-9 -19 -31 126.504 147.798 2
19 31 -9 103.196 125.645 3
-10 -19 -31 142.294 102.859 2
19 31 -10 211.863 152.311 3
-11 -19 -31 61.2382 115.735 2
19 31 -11 165.268 125.267 3
-12 -19 -31 -13.0926 33.3196 2
19 31 -12 93.68 99.8293 3
-13 -19 -31 19.0707 53.0297 2
19 31 -13 38.8198 46.2288 3
31 20 -11 170.394 132.808 3
11 31 -20 6.65507 62.3642 3
31 20 -10 220.992 122.526 3
10 31 -20 43.3594 96.4468 3
31 20 -9 101.238 111.257 3
31 20 -8 279.136 265.549 3
31 20 -7 -16.9804 90.2863 3
31 20 -6 190.162 157.795 3
31 20 -5 60.6796 127.978 3
31 20 -4 11.925 64.5105 3
31 20 -3 72.7984 103.663 3
31 20 -2 34.0555 79.2743 3
20 31 2 30.6095 88.0873 3
31 20 -1 267.75 153.14 3
20 31 1 530.267 182.24 3
0 -20 -31 -20.5968 67.2304 2
31 20 0 -27.3906 78.1475 3
20 31 0 77.7002 90.8349 3
-1 -20 -31 56.8825 138.131 2
31 20 1 117.302 126.902 3
20 31 -1 297.711 138.585 3
-2 -20 -31 84.58 110.508 2
31 20 2 -33.1972 66.6216 3
20 31 -2 36.6353 100.802 3
-3 -20 -31 -19.3763 55.0853 2
20 31 -3 71.2457 58.0811 3
-4 -20 -31 1.76724 55.0473 2
20 31 -4 187.218 125.73 3
-5 -20 -31 55.8277 92.0529 2
20 31 -5 -26.4455 63.1219 3
-6 -20 -31 99.1521 136.524 2
20 31 -6 229.199 164.678 3
-7 -20 -31 21.515 81.9984 2
20 31 -7 170.732 118.647 3
-8 -20 -31 18.7228 77.7809 2
20 31 -8 136.197 101.499 3
-9 -20 -31 -8.40417 47.7845 2
20 31 -9 127.781 111.606 3
-10 -20 -31 44.4136 97.4783 2
20 31 -10 416.77 168.438 3
20 31 -11 122.823 46.2017 3
31 21 -9 194.046 154 3
9 31 -21 20.8637 71.8397 3
31 21 -8 333.672 144.052 3
8 31 -21 54.4449 107.795 3
31 21 -7 210.02 143.627 3
31 21 -6 169.108 152.819 3
31 21 -5 218.027 138.303 3
31 21 -4 264.179 123.374 3
31 21 -3 -25.8102 81.0491 3
31 21 -2 348.988 152.052 3
21 31 2 399.615 137.825 3
31 21 -1 146.549 122.296 3
21 31 1 113.286 91.8041 3
31 21 0 23.2758 52.2747 3
21 31 0 37.4836 65.2968 3
31 21 1 81.8907 75.2468 3
21 31 -1 91.1234 69.8569 3
31 21 2 482.052 151.454 3
21 31 -2 418.414 180.197 3
21 31 -3 12.953 47.573 3
21 31 -4 273.647 147.27 3
21 31 -5 133.77 109.952 3
21 31 -6 170.742 102.698 3
21 31 -7 115.765 46.295 3
21 31 -8 248.555 166.196 3
21 31 -9 -34.8623 90.4857 3
31 22 -7 150.135 120.282 3
31 22 -6 13.9438 86.1958 3
31 22 -5 105.83 115.127 3
31 22 -4 179.266 117.622 3
31 22 -3 -26.4181 87.3245 3
31 22 -2 186.094 111.702 3
31 22 -1 480.487 149.399 3
22 31 1 471.118 162.574 3
31 22 0 -5.25747 70.424 3
22 31 0 1.23063 45.0691 3
31 22 1 288.04 140.288 3
22 31 -1 472.44 172.288 3
22 31 -2 42.57 85.1721 3
22 31 -3 67.9774 104.905 3
22 31 -4 195.973 120.426 3
22 31 -5 295.891 100.413 3
22 31 -6 40.6643 76.1303 3
22 31 -7 115.627 120.445 3
31 23 -3 12.1818 85.5999 3
31 23 -2 213.462 103.509 3
31 23 -1 300.667 113.708 3
23 31 1 210.044 107.696 3
31 23 0 197.257 97.9118 3
23 31 0 183.032 110.403 3
31 23 1 177.304 81.5037 3
23 31 -1 249.336 124.769 3
23 31 -2 11.8029 66.2551 3
23 31 -3 -16.9689 53.6788 3
0 0 -32 234.181 139.69 2
1 0 -32 606.952 234.833 2
0 1 -32 334.885 203.01 2
0 -1 -32 669.065 268.975 2
-1 0 -32 504.41 230.763 2
1 1 -32 186.925 176.065 2
1 -1 -32 120.872 141.971 2
-1 1 -32 128.122 136.102 2
-1 -1 -32 130.861 167.941 2
2 1 -32 806.078 274.68 2
1 -2 -32 841.929 292.993 2
-1 2 -32 751.138 264.352 2
-2 -1 -32 768.934 300.157 2
2 0 -32 -35.9034 67.2969 2
0 2 -32 -63.3284 130.414 2
0 -2 -32 -0.59509 79.952 2
-2 0 -32 -64.8021 94.1138 2
1 2 -32 1059.27 292.971 2
2 -1 -32 641.863 235.852 2
-1 -2 -32 538.269 237.609 2
-2 1 -32 694.401 267.312 2
2 2 -32 329.63 195.296 2
2 -2 -32 284.771 202.998 2
-2 2 -32 311.758 171.28 2
-2 -2 -32 260.998 179.431 2
3 2 -32 76.5868 122.968 2
2 -3 -32 -16.5652 119.995 2
-2 3 -32 92.0998 96.3044 2
-3 -2 -32 185.258 180.496 2
3 1 -32 133.723 115.896 2
1 -3 -32 286.921 190.748 2
-1 3 -32 502.33 241.801 2
-3 -1 -32 242.798 177.206 2
3 0 -32 1185.43 325.29 2
0 3 -32 1434.21 325.585 2
0 -3 -32 1683.16 378.769 2
-3 0 -32 1335.15 322.189 2
3 -1 -32 269.181 160.894 2
1 3 -32 382.81 180.765 2
-1 -3 -32 345.095 188.734 2
-3 1 -32 242.604 198.785 2
2 3 -32 95.0846 114.902 2
3 -2 -32 -24.438 64.9526 2
-3 2 -32 130.715 97.9836 2
-2 -3 -32 139.179 157.307 2
3 3 -32 469.856 213.152 2
3 -3 -32 341.585 229.001 2
-3 3 -32 564.727 200.976 2
-3 -3 -32 343.194 184.809 2
4 3 -32 709.412 281.151 2
3 -4 -32 544.979 255.895 2
-3 4 -32 702.662 223.682 2
-4 -3 -32 401.756 227.255 2
2 -4 -32 313.855 221.071 2
4 2 -32 436.325 217.917 2
-2 4 -32 351.353 160.515 2
-4 -2 -32 196.91 151.522 2
-1 4 -32 28.3213 88.5363 2
4 1 -32 -39.9857 99.495 2
1 -4 -32 97.0176 170.875 2
-4 -1 -32 -0.28819 124.963 2
4 0 -32 472.4 237.868 2
0 4 -32 625.664 204.77 2
0 -4 -32 466.858 265.214 2
-4 0 -32 503.214 220.535 2
4 -1 -32 -54.0498 70.6257 2
1 4 -32 160.813 128.456 2
-1 -4 -32 -33.5198 105.992 2
-4 1 -32 32.2031 65.2956 2
2 4 -32 296.179 155.532 2
4 -2 -32 277.583 190.246 2
-2 -4 -32 412.428 250.191 2
-4 2 -32 336.028 186.203 2
3 4 -32 634.237 201.91 2
4 -3 -32 442.437 231.718 2
-4 3 -32 597.76 207.224 2
-3 -4 -32 348.054 225.841 2
4 4 -32 74.8634 67.9247 2
4 -4 -32 51.3842 70.7514 2
-4 4 -32 101.973 103.89 2
-4 -4 -32 86.2137 128.412 2
5 4 -32 54.0707 88.7108 2
4 -5 -32 -51.8369 113.391 2
-4 5 -32 173.242 175.591 2
-5 -4 -32 -66.6162 114.011 2
5 3 -32 224.382 170.036 2
3 -5 -32 106.978 107.468 2
-3 5 -32 248.423 162.595 2
-5 -3 -32 160.411 144.618 2
5 2 -32 863.249 282.774 2
2 -5 -32 701.716 286.527 2
-2 5 -32 774.757 215.29 2
-5 -2 -32 1055.45 284.864 2
5 1 -32 737.307 275.015 2
-1 5 -32 641.943 179.144 2
1 -5 -32 689.539 276.018 2
-5 -1 -32 671.898 270.063 2
5 0 -32 17.5918 57.07 2
0 5 -32 1.00599 75.4355 2
0 -5 -32 60.7832 70.6837 2
-5 0 -32 40.7521 90.2605 2
5 -1 -32 728.31 269.089 2
1 5 -32 577.333 201.227 2
-1 -5 -32 493.227 192.85 2
-5 1 -32 407.471 199.52 2
5 -2 -32 857.03 304.586 2
2 5 -32 936.085 256.756 2
-2 -5 -32 853.419 306.909 2
-5 2 -32 1102.94 302.248 2
3 5 -32 278.825 158.666 2
5 -3 -32 233.542 178.11 2
-5 3 -32 338.135 153.169 2
-3 -5 -32 195.569 128.118 2
4 5 -32 63.1509 96.5008 2
5 -4 -32 50.299 86.6779 2
-5 4 -32 -77.5319 85.0037 2
-4 -5 -32 -11.9353 137.953 2
5 5 -32 66.5482 49.8369 2
5 -5 -32 135.878 80.5243 2
-5 5 -32 64.1333 99.7734 2
-5 -5 -32 9.16953 121.935 2
6 5 -32 437.041 218.36 2
5 -6 -32 419.861 216.233 2
32 6 -5 61.4333 181.456 3
-5 6 -32 179.926 165.745 2
-6 -5 -32 169.502 155.975 2
6 4 -32 1966.5 382.506 2
-4 6 -32 1717.36 321.138 2
4 -6 -32 2200.87 375.631 2
-6 -4 -32 1367 360.488 2
6 3 -32 97.9737 123.191 2
-3 6 -32 22.9742 52.3083 2
-6 -3 -32 41.7357 54.8949 2
6 2 -32 52.6419 63.9383 2
-2 6 -32 225.489 163.954 2
2 -6 -32 170.709 87.5318 2
-6 -2 -32 13.7706 113.474 2
6 1 -32 44.8216 57.8389 2
-1 6 -32 43.2048 75.2453 2
1 -6 -32 -117.481 91.1245 2
-6 -1 -32 26.0365 91.744 2
6 0 -32 115.494 147.291 2
0 6 -32 175.537 192.543 2
0 -6 -32 -83.2999 82.1343 2
-6 0 -32 122.687 152.888 2
6 -1 -32 5.54412 47.9649 2
1 6 -32 68.7021 123.45 2
-1 -6 -32 194.394 101.911 2
-6 1 -32 49.5952 168.776 2
6 -2 -32 183.438 172.404 2
2 6 -32 53.3262 95.9554 2
-2 -6 -32 -66.4628 66.7175 2
-6 2 -32 142.276 189.483 2
3 6 -32 139.958 112.843 2
6 -3 -32 19.0748 64.2979 2
-3 -6 -32 256.321 141.078 2
-6 3 -32 64.3248 59.8211 2
4 6 -32 1591.87 304.991 2
6 -4 -32 1617.17 404.041 2
-6 4 -32 1345 296.029 2
5 6 -32 150.459 120.359 2
-6 5 -32 237.87 146.021 2
-5 -6 -32 254.344 117.59 2
6 -6 -32 -111.24 130.15 2
32 6 -6 158.935 134.923 3
-6 6 -32 -40.7913 40.587 2
-6 -6 -32 55.8893 69.0008 2
6 -7 -32 88.8507 154.548 2
32 7 -6 160.561 260.727 3
-6 7 -32 -41.0091 73.2918 2
-7 -6 -32 24.556 75.5624 2
5 -7 -32 50.4185 115.637 2
32 7 -5 -38.412 146.145 3
-5 7 -32 31.2558 122.868 2
-7 -5 -32 -10.409 125.969 2
4 -7 -32 512.37 225.722 2
32 7 -4 19.1508 221.043 3
-4 7 -32 245.724 173.823 2
-7 -4 -32 212.181 113.758 2
7 3 -32 33.6503 125.948 2
3 -7 -32 179.126 156.509 2
-3 7 -32 31.5039 95.9224 2
32 7 -3 -8.17159 113.594 3
-7 -3 -32 99.0965 120.112 2
7 2 -32 4.11331 51 2
-2 7 -32 67.8397 61.3988 2
2 -7 -32 49.7149 88.9075 2
32 7 -2 2.1575 80.682 3
-7 -2 -32 -102.923 81.8571 2
7 1 -32 151.164 172.079 2
-1 7 -32 446.975 197.62 2
1 -7 -32 672.959 201.822 2
-7 -1 -32 383.195 219.603 2
7 0 -32 565.571 262.686 2
0 7 -32 565.901 206.302 2
0 -7 -32 901.05 256.513 2
-7 0 -32 586.166 237.632 2
7 -1 -32 241.735 159.745 2
1 7 -32 290.112 165.498 2
-1 -7 -32 593.021 235.59 2
-7 1 -32 354.606 203.002 2
7 -2 -32 -0.88107 95.3514 2
2 7 -32 50.3508 170.232 2
-2 -7 -32 89.119 147.691 2
-7 2 -32 176.731 157.924 2
3 7 -32 33.2884 82.7661 2
7 -3 -32 22.2165 59.29 2
-3 -7 -32 59.8873 96.8095 2
-7 3 -32 161.661 102.85 2
4 7 -32 142.089 104.672 2
7 -4 -32 64.9085 124.601 2
-4 -7 -32 96.6248 108.818 2
-7 4 -32 163.116 126.038 2
7 -5 -32 53.6775 70.7989 2
-7 5 -32 261.72 47.8304 2
-5 -7 -32 272.173 158.41 2
7 -6 -32 -56.2358 101.574 2
32 6 -7 -51.1317 100.006 3
-7 6 -32 150.968 152.655 2
-6 -7 -32 -24.7627 85.4825 2
7 -7 -32 576.271 194.967 2
32 7 -7 527.427 199.395 3
-7 7 -32 196.915 153.576 2
-7 -7 -32 443.594 165.704 2
7 -8 -32 403.096 139.573 2
32 8 -7 507.12 197.981 3
6 -8 -32 1699.78 333.855 2
32 8 -6 2090.34 419.661 3
5 -8 -32 121.313 123.635 2
32 8 -5 58.5406 104.622 3
4 -8 -32 100.148 65.6884 2
-4 8 -32 -46.0708 84.2074 2
32 8 -4 -65.7517 66.1972 3
3 -8 -32 172.249 164.025 2
-3 8 -32 -6.35411 59.7272 2
32 8 -3 76.1964 121.429 3
-2 8 -32 224.267 145.915 2
2 -8 -32 115.488 88.335 2
32 8 -2 147.884 237.796 3
8 1 -32 179.946 192.649 2
-1 8 -32 260.867 160.923 2
1 -8 -32 201.346 100.2 2
32 8 -1 8.00388 172.207 3
8 0 -32 20.4338 104.517 2
0 8 -32 92.5269 123.245 2
32 8 0 8.3559 65.5664 3
0 -8 -32 -56.535 113.257 2
8 -1 -32 100.266 112.466 2
1 8 -32 67.8995 108.437 2
-1 -8 -32 301.211 135.297 2
-8 1 -32 126.887 140.349 2
8 -2 -32 128.259 144.872 2
2 8 -32 374.04 182.47 2
-2 -8 -32 672.368 235.928 2
-8 2 -32 376.559 173.462 2
3 8 -32 23.377 43.2422 2
8 -3 -32 -31.7405 70.5417 2
-3 -8 -32 158.388 111.963 2
-8 3 -32 -9.29308 98.7101 2
8 -4 -32 35.1364 91.7997 2
-4 -8 -32 228.602 143.868 2
-8 4 -32 66.1936 105.25 2
8 -5 -32 347.571 136.73 2
-8 5 -32 125.421 134.526 2
-5 -8 -32 296.324 183.728 2
8 -6 -32 2172.81 367.466 2
32 6 -8 2462.89 394.769 3
-8 6 -32 1370.24 263.688 2
-6 -8 -32 2084.17 391.712 2
8 -7 -32 535.208 208.993 2
32 7 -8 430.541 142.986 3
-8 7 -32 215.631 111.458 2
-7 -8 -32 531.808 188.049 2
8 -8 -32 232.565 117.175 2
32 8 -8 312.332 195.496 3
-8 -8 -32 532.458 186.02 2
8 -9 -32 -88.482 88.0793 2
32 9 -8 -86.7447 159.739 3
7 -9 -32 -43.7773 49.1603 2
32 9 -7 60.2372 167.152 3
6 -9 -32 182.102 88.5355 2
32 9 -6 107.678 193.058 3
5 -9 -32 394.669 108.581 2
32 9 -5 210.824 171.343 3
4 -9 -32 54.5741 67.502 2
32 9 -4 -48.8725 86.0598 3
3 -9 -32 13.9243 80.8968 2
32 9 -3 -0.60902 107.178 3
2 -9 -32 34.1594 50.1257 2
32 9 -2 115.202 200.787 3
1 -9 -32 112.092 75.1539 2
32 9 -1 -13.6871 67.5372 3
32 9 0 -0.84858 131.885 3
0 -9 -32 138.167 157.413 2
32 9 1 1.64061 83.2443 3
-1 -9 -32 154.158 123.32 2
-2 -9 -32 134.94 119.777 2
-3 -9 -32 53.4294 63.5508 2
-9 3 -32 24.9211 75.4028 2
-4 -9 -32 -92.6412 89.8967 2
-9 4 -32 41.6496 78.8049 2
-5 -9 -32 362.075 211.184 2
-9 5 -32 143.467 120.391 2
32 6 -9 162.042 146.723 3
-9 6 -32 154.26 138.535 2
-6 -9 -32 316.624 186.088 2
32 7 -9 83.1809 135.858 3
-9 7 -32 -6.53892 62.745 2
-7 -9 -32 138.487 157.034 2
32 8 -9 115.836 160.661 3
-8 -9 -32 173.969 103.28 2
32 9 -9 857.239 257.622 3
32 10 -9 530.582 217.233 3
32 10 -8 513.265 221.004 3
7 -10 -32 169.221 54.629 2
32 10 -7 329.962 150.199 3
6 -10 -32 232.96 143.023 2
32 10 -6 349.604 186.332 3
5 -10 -32 327.348 185.502 2
32 10 -5 137.68 167.392 3
4 -10 -32 1616.55 305.871 2
32 10 -4 1751.93 371.915 3
3 -10 -32 97.1962 108.171 2
32 10 -3 19.4038 136.384 3
2 -10 -32 727.115 240.873 2
32 10 -2 421.492 217.455 3
1 -10 -32 386.385 204.124 2
32 10 -1 270.149 180.546 3
32 10 0 -22.1506 66.0036 3
0 -10 -32 17.5281 94.0536 2
32 10 1 4.81295 122.165 3
-1 -10 -32 508.634 144.431 2
-2 -10 -32 292.334 147.237 2
-3 -10 -32 210.655 86.7959 2
-4 -10 -32 1949.78 347.014 2
-10 4 -32 1006.26 253.641 2
-5 -10 -32 -123.264 125.83 2
-10 5 -32 25.6321 55.5227 2
-10 6 -32 110.483 110.513 2
-6 -10 -32 230.026 142.6 2
32 7 -10 50.2573 172.567 3
-10 7 -32 76.764 126.748 2
-7 -10 -32 182.975 98.8463 2
32 8 -10 840.799 268.887 3
-8 -10 -32 434.144 163.67 2
32 9 -10 532.788 269.941 3
-9 -10 -32 650.661 203.886 2
32 10 -10 17.4005 90.3466 3
32 11 -10 -75.0887 115.198 3
32 11 -9 309.566 199.328 3
32 11 -8 205.648 164.905 3
7 -11 -32 163.612 126.96 2
32 11 -7 110.093 133.68 3
6 -11 -32 274.22 147.335 2
32 11 -6 237.497 91.7307 3
5 -11 -32 19.3573 104.138 2
32 11 -5 -5.99209 93.3664 3
4 -11 -32 353.891 144.585 2
32 11 -4 124.761 128.628 3
3 -11 -32 -32.9688 95.5743 2
32 11 -3 163.349 177.21 3
2 -11 -32 122.078 118.633 2
32 11 -2 23.43 111.487 3
1 -11 -32 519.678 171.928 2
32 11 -1 240.086 146.731 3
0 -11 -32 -97.6815 73.0785 2
32 11 0 82.6573 124.27 3
32 11 1 17.9793 169.225 3
-1 -11 -32 556.881 201.603 2
32 11 2 -37.9826 93.4442 3
-2 -11 -32 21.8541 81.4785 2
-3 -11 -32 35.2577 120.984 2
-4 -11 -32 406.142 162.88 2
-5 -11 -32 169.361 151.571 2
-11 5 -32 -13.6699 92.1378 2
-6 -11 -32 231.597 115.554 2
-11 6 -32 244.429 170.412 2
-11 7 -32 119.847 112.532 2
-7 -11 -32 360.196 145.915 2
32 8 -11 554.316 214.893 3
-8 -11 -32 336.47 115.308 2
32 9 -11 86.5285 117.456 3
-9 -11 -32 91.5632 66.2605 2
32 10 -11 42.2498 89.7266 3
-10 -11 -32 11.0622 71.7468 2
32 11 -11 1.14166 73.3942 3
32 12 -11 390.634 188.459 3
32 12 -10 221.592 152.579 3
32 12 -9 128.935 181.228 3
32 12 -8 138.872 155.042 3
7 -12 -32 -8.49182 68.9496 2
32 12 -7 -167.2 151.772 3
6 -12 -32 92.2335 226.923 2
32 12 -6 469.526 171.992 3
5 -12 -32 -6.52338 93.1667 2
32 12 -5 141.152 146.563 3
4 -12 -32 21.1059 108.118 2
32 12 -4 365.541 202.482 3
3 -12 -32 33.6481 142.64 2
32 12 -3 425.379 206.077 3
2 -12 -32 327.894 144.279 2
32 12 -2 209.947 167.235 3
1 -12 -32 364.907 142.447 2
32 12 -1 306.394 168.478 3
0 -12 -32 191.187 119.569 2
32 12 0 329.181 165.881 3
32 12 1 151.241 88.0681 3
-1 -12 -32 569.579 203.572 2
32 12 2 6.7799 127.619 3
-2 -12 -32 299.443 131.163 2
-3 -12 -32 348.744 185.496 2
-4 -12 -32 6.51748 128.899 2
-5 -12 -32 90.4903 107.337 2
-12 5 -32 -62.6804 110.775 2
-6 -12 -32 665.458 192.066 2
-12 6 -32 353.051 185.06 2
-7 -12 -32 170.3 117.852 2
-12 7 -32 209.675 144.588 2
32 8 -12 147.969 160.516 3
-8 -12 -32 55.6303 69.7195 2
32 9 -12 230.435 131.952 3
-9 -12 -32 324.083 154.401 2
32 10 -12 68.3726 63.4318 3
-10 -12 -32 -3.39696 98.6001 2
32 11 -12 468.02 194.294 3
-11 -12 -32 182.531 166.277 2
32 12 -12 251.63 151.272 3
32 13 -12 14.9428 95.2003 3
32 13 -11 -4.53066 124.354 3
32 13 -10 252.765 189.746 3
32 13 -9 -34.5709 66.9271 3
32 13 -8 74.5205 106.886 3
32 13 -7 121.568 131.05 3
6 -13 -32 -20.6613 129.279 2
32 13 -6 68.764 99.7637 3
5 -13 -32 21.955 104.952 2
32 13 -5 14.9819 70.0963 3
4 -13 -32 53.0294 227.077 2
32 13 -4 617.842 213.371 3
3 -13 -32 34.8051 192.408 2
32 13 -3 319.31 195.238 3
2 -13 -32 15.2153 79.4413 2
32 13 -2 125.302 92.0867 3
1 -13 -32 155.2 248.272 2
32 13 -1 210.93 180.178 3
0 -13 -32 -11.241 98.7376 2
32 13 0 -28.1901 105.368 3
-1 -13 -32 41.1331 215.092 2
32 13 1 269.51 216.182 3
32 13 2 9.10629 106.899 3
-2 -13 -32 -10.1059 103.474 2
32 13 3 261.92 226.821 3
-3 -13 -32 1.05663 81.3245 2
-4 -13 -32 43.4474 165.051 2
-5 -13 -32 3.87948 94.276 2
-6 -13 -32 -9.42934 48.1106 2
-13 6 -32 28.4906 44.8541 2
-7 -13 -32 25.2854 140.998 2
-13 7 -32 24.7253 67.8904 2
-8 -13 -32 58.5836 141.413 2
32 9 -13 41.9743 87.6393 3
-9 -13 -32 19.8482 154.702 2
32 10 -13 135.02 117.251 3
-10 -13 -32 32.7565 130.041 2
32 11 -13 47.6532 141.666 3
-11 -13 -32 -5.16988 51.0273 2
32 12 -13 28.5327 91.9001 3
-12 -13 -32 -12.3382 56.5668 2
32 13 -13 42.9645 119.252 3
-13 -13 -32 32.7657 83.9613 2
32 14 -13 26.8854 89.0726 3
32 14 -12 132.67 125.223 3
32 14 -11 36.29 116.069 3
32 14 -10 462.41 163.018 3
32 14 -9 31.1023 195.246 3
32 14 -8 155.188 116.086 3
32 14 -7 269.889 163.7 3
32 14 -6 40.005 71.2527 3
5 -14 -32 -9.46656 43.9821 2
32 14 -5 163.621 125.192 3
4 -14 -32 53.3733 163.794 2
32 14 -4 239.643 192.107 3
3 -14 -32 -0.25376 67.3653 2
32 14 -3 45.4097 131.634 3
2 -14 -32 68.6306 213.205 2
32 14 -2 246.341 177.029 3
1 -14 -32 6.1411 111.226 2
32 14 -1 208.816 136.47 3
0 -14 -32 6.91224 76.9975 2
32 14 0 -7.33339 88.4263 3
-1 -14 -32 19.9302 83.1967 2
32 14 1 356.438 153.393 3
-2 -14 -32 108.366 201.236 2
32 14 2 307.85 170.682 3
32 14 3 -35.7718 71.0927 3
-3 -14 -32 -1.01039 57.7663 2
-4 -14 -32 44.025 190.896 2
-5 -14 -32 -3.21108 89.603 2
-6 -14 -32 35.015 182.497 2
-14 6 -32 63.4216 75.4468 2
-7 -14 -32 23.8593 147.081 2
-8 -14 -32 41.758 154.365 2
-9 -14 -32 76.3454 100.847 2
32 10 -14 805.989 207.989 3
-10 -14 -32 48.0438 121.706 2
32 11 -14 -44.4065 92.9099 3
-11 -14 -32 13.8264 104.864 2
32 12 -14 548.494 211.897 3
-12 -14 -32 8.78651 106.919 2
32 13 -14 21.0939 100.977 3
-13 -14 -32 -5.66017 79.3521 2
32 14 -14 54.2576 136.991 3
-14 -14 -32 -27.6058 93.5284 2
32 15 -14 207.043 144.76 3
-15 -14 -32 -1.04767 80.7695 2
14 32 -15 86.392 71.561 3
32 15 -13 17.0095 55.4552 3
32 15 -12 83.2823 99.3657 3
32 15 -11 313.792 191.647 3
32 15 -10 35.6277 69.2674 3
32 15 -9 280.542 172.031 3
32 15 -8 149.893 132.225 3
32 15 -7 87.8819 142.63 3
32 15 -6 829.099 271.516 3
5 -15 -32 76.135 144.578 2
32 15 -5 128.993 151.618 3
4 -15 -32 -14.7434 120.7 2
32 15 -4 94.5232 92.4639 3
3 -15 -32 -21.8353 98.6878 2
32 15 -3 72.3643 150.606 3
2 -15 -32 68.8119 188.668 2
32 15 -2 454.285 179.201 3
1 -15 -32 38.7684 227.791 2
32 15 -1 435.757 195.893 3
0 -15 -32 102.579 221.943 2
32 15 0 99.4081 122.785 3
-1 -15 -32 92.4667 231.856 2
32 15 1 433.931 227.267 3
-2 -15 -32 42.1679 164.707 2
32 15 2 508.227 189.896 3
32 15 3 -3.2146 97.7191 3
-3 -15 -32 2.87018 109.019 2
-4 -15 -32 18.9378 159.238 2
-5 -15 -32 20.3194 176.573 2
-6 -15 -32 143.548 217.249 2
-15 6 -32 583.487 189.141 2
-7 -15 -32 -2.92579 97.4583 2
-8 -15 -32 9.22726 112.204 2
-9 -15 -32 20.93 44.2262 2
-10 -15 -32 3.92689 41.8937 2
32 11 -15 173.547 77.3556 3
-11 -15 -32 45.7732 150.142 2
32 12 -15 -36.5946 62.0013 3
-12 -15 -32 32.7797 142.343 2
15 32 -13 -10.4836 57.6906 3
32 13 -15 9.68038 68.928 3
-13 -15 -32 6.89259 69.3705 2
32 14 -15 17.9694 70.1238 3
-14 -15 -32 16.7949 72.29 2
15 32 -14 -15.1443 64.2849 3
32 15 -15 103.218 86.4135 3
-15 -15 -32 1.76743 42.9511 2
15 32 -15 29.8745 69.9626 3
32 16 -14 89.261 98.2526 3
-16 -14 -32 0.16323 53.3337 2
14 32 -16 18.7371 36.2792 3
13 32 -16 -5.21848 70.8739 3
32 16 -13 61.3612 69.8868 3
32 16 -12 292.582 147.736 3
32 16 -11 136.357 168.267 3
32 16 -10 41.4269 60.482 3
32 16 -9 13.4043 107.986 3
32 16 -8 451.453 211.099 3
32 16 -7 -6.24742 90.7508 3
32 16 -6 -45.5928 109.86 3
32 16 -5 75.1078 106.27 3
4 -16 -32 86.0806 118.205 2
32 16 -4 170.181 169.407 3
3 -16 -32 -91.2338 107.746 2
32 16 -3 -23.5678 48.7722 3
16 32 3 35.7502 85.983 3
16 32 2 14.3136 53.1574 3
2 -16 -32 34.9975 72.045 2
32 16 -2 77.8904 169.498 3
1 -16 -32 12.2444 90.5934 2
32 16 -1 44.5014 96.9464 3
0 -16 -32 54.0358 157.779 2
32 16 0 128.044 128.692 3
-1 -16 -32 -34.4514 45.198 2
32 16 1 -34.8734 114.442 3
-2 -16 -32 37.6737 106.765 2
32 16 2 -14.5145 84.5764 3
-3 -16 -32 34.4716 103.55 2
32 16 3 2.45801 61.4086 3
-4 -16 -32 65.9722 137.089 2
-5 -16 -32 73.1014 138.122 2
-6 -16 -32 45.6486 129.168 2
-16 6 -32 153.731 93.5916 2
-7 -16 -32 23.4824 59.8526 2
-8 -16 -32 55.3559 184.008 2
-9 -16 -32 17.8292 50.5571 2
-10 -16 -32 -52.1905 89.5216 2
16 32 -11 30.8963 45.3841 3
-11 -16 -32 -4.03635 43.5499 2
-12 -16 -32 43.2236 103.998 2
16 32 -12 240.856 119.545 3
32 13 -16 72.357 88.98 3
-13 -16 -32 -21.8793 79.2227 2
16 32 -13 33.8392 48.7079 3
32 14 -16 21.2106 96.0318 3
-14 -16 -32 0.62294 68.5116 2
16 32 -14 16.4577 65.628 3
32 17 -13 126.688 144.196 3
13 32 -17 91.0817 142.983 3
12 32 -17 10.2821 90.7904 3
32 17 -12 4.57151 53.52 3
32 17 -11 535.475 167.377 3
32 17 -10 84.7817 89.4726 3
32 17 -9 123.282 79.7801 3
32 17 -8 307.062 189.453 3
32 17 -7 -54.8505 121.975 3
32 17 -6 28.6988 61.4917 3
32 17 -5 84.8476 141.817 3
32 17 -4 382.75 185.934 3
3 -17 -32 1.2376 102.103 2
32 17 -3 145.165 124.032 3
17 32 3 55.3745 81.0616 3
2 -17 -32 -5.82506 114.107 2
32 17 -2 189.845 114.152 3
17 32 2 15.636 60.6089 3
1 -17 -32 -21.3297 83.4278 2
17 32 1 -6.04262 42.541 3
0 -17 -32 29.9592 106.442 2
32 17 0 53.4511 81.9054 3
17 32 0 144.611 155.688 3
17 32 -1 309.079 147.86 3
-1 -17 -32 18.1997 112.057 2
32 17 1 43.1873 103.363 3
17 32 -2 74.3227 93.6496 3
-2 -17 -32 48.9221 161.317 2
32 17 2 333.234 182.226 3
17 32 -3 168.634 131.793 3
-3 -17 -32 1.2388 110.953 2
32 17 3 4.75461 66.8717 3
-4 -17 -32 97.9344 204.693 2
17 32 -5 97.0362 122.579 3
-5 -17 -32 48.8109 150.496 2
17 32 -6 24.798 62.9184 3
-6 -17 -32 45.1046 85.0678 2
-17 6 -32 59.719 80.075 2
17 32 -7 -1.14894 69.913 3
-7 -17 -32 0.38461 86.5789 2
17 32 -8 251.351 138 3
-8 -17 -32 50.2717 137.249 2
-9 -17 -32 81.3144 129.089 2
17 32 -9 57.2686 43.3728 3
-10 -17 -32 28.1449 93.5996 2
17 32 -10 91.5617 118.508 3
-11 -17 -32 75.6902 122.102 2
17 32 -11 191.566 145.051 3
-12 -17 -32 -1.10219 41.3891 2
17 32 -12 81.3131 143.896 3
-13 -17 -32 32.1441 77.9256 2
17 32 -13 240.431 145.965 3
32 18 -12 -230.898 98.8024 3
12 32 -18 18.6311 73.1897 3
11 32 -18 -1.48965 46.8244 3
32 18 -11 94.1946 86.3711 3
32 18 -10 643.584 203.96 3
32 18 -9 38.5453 99.7927 3
32 18 -8 -17.1179 100.909 3
32 18 -7 73.2432 85.0882 3
32 18 -6 177.371 119.964 3
32 18 -5 6.66363 65.715 3
32 18 -4 76.9512 87.9002 3
32 18 -3 34.3566 47.7223 3
18 32 3 -43.4651 47.1267 3
32 18 -2 61.3405 90.0678 3
18 32 2 100.14 100.309 3
1 -18 -32 -20.8139 39.2801 2
32 18 -1 -10.8143 73.7503 3
18 32 1 82.5054 109.234 3
0 -18 -32 15.1774 60.5405 2
32 18 0 -0.78331 59.854 3
18 32 0 -21.5444 82.3723 3
-1 -18 -32 44.5322 111.316 2
32 18 1 -138.657 78.0673 3
18 32 -1 5.90106 48.2511 3
-2 -18 -32 -8.48536 71.3876 2
32 18 2 -38.4667 62.1329 3
18 32 -2 9.63717 42.956 3
-3 -18 -32 7.6627 50.1023 2
32 18 3 61.5141 124.325 3
18 32 -3 53.8967 95.1382 3
-4 -18 -32 57.9315 125.566 2
18 32 -4 117.871 91.3685 3
-5 -18 -32 28.1091 70.8002 2
18 32 -5 -5.88333 68.0424 3
-6 -18 -32 31.9411 106.189 2
-18 6 -32 110.33 52.2725 2
18 32 -6 193.406 137.551 3
-7 -18 -32 -12.0951 78.2257 2
18 32 -7 46.3618 121.425 3
-8 -18 -32 -8.36736 51.7334 2
18 32 -8 -61.5044 79.6714 3
-9 -18 -32 80.722 87.6458 2
18 32 -9 25.4665 43.7652 3
-10 -18 -32 52.2398 134.797 2
18 32 -10 484.143 167.385 3
-11 -18 -32 -13.1643 45.2511 2
18 32 -11 178.805 107.009 3
-12 -18 -32 12.1093 28.5151 2
18 32 -12 -65.0218 80.6254 3
32 19 -10 2.71525 70.905 3
10 32 -19 23.1001 75.9597 3
32 19 -9 77.1065 81.1997 3
32 19 -8 152.954 125.593 3
32 19 -7 -9.49949 77.8184 3
32 19 -6 101.461 115.596 3
32 19 -5 30.2057 41.0293 3
32 19 -4 185.082 126.271 3
32 19 -3 -9.44957 61.1599 3
32 19 -2 143.751 96.0587 3
19 32 2 86.6406 102.959 3
32 19 -1 26.8584 69.1806 3
19 32 1 -68.7215 81.1692 3
0 -19 -32 54.891 158.673 2
32 19 0 334.701 137.532 3
19 32 0 255.894 137.811 3
-1 -19 -32 15.8892 69.9719 2
32 19 1 10.0963 52.3955 3
19 32 -1 -58.2718 62.9283 3
-2 -19 -32 2.82895 76.7293 2
32 19 2 34.0056 110.841 3
19 32 -2 219.64 120.124 3
-3 -19 -32 -33.787 75.7165 2
19 32 -3 66.6799 108.594 3
-4 -19 -32 20.4693 40.5032 2
19 32 -4 52.5382 108.965 3
-5 -19 -32 6.05458 42.907 2
19 32 -5 78.1909 96.9276 3
-6 -19 -32 7.30512 107.639 2
19 32 -6 49.5572 73.6278 3
-7 -19 -32 -7.08454 115.946 2
19 32 -7 2.20464 58.1863 3
-8 -19 -32 23.2376 105.707 2
19 32 -8 156.997 161.554 3
-9 -19 -32 22.7811 74.5917 2
19 32 -9 -13.8274 70.9358 3
-10 -19 -32 27.2685 35.9098 2
19 32 -10 24.8536 79.6479 3
32 20 -8 797.886 196.665 3
32 20 -7 181.969 132.364 3
32 20 -6 22.9432 74.9026 3
32 20 -5 80.8467 80.5491 3
32 20 -4 22.4441 40.6496 3
32 20 -3 118.944 118.769 3
32 20 -2 20.3212 70.6888 3
20 32 2 71.5655 97.9884 3
32 20 -1 113.749 103.554 3
20 32 1 -41.8568 69.4339 3
32 20 0 19.287 75.8011 3
20 32 0 87.5628 92.2791 3
32 20 1 -31.1305 79.7117 3
20 32 -1 27.3003 60.3552 3
32 20 2 15.5932 119.808 3
20 32 -2 103.09 121.758 3
20 32 -3 115.36 70.0395 3
20 32 -4 73.3195 40.8275 3
20 32 -5 6.52698 60.0302 3
20 32 -6 34.2718 62.967 3
20 32 -7 203.12 112.779 3
20 32 -8 430.116 168.739 3
32 21 -5 -3.12297 72.1104 3
32 21 -4 59.4977 89.5672 3
32 21 -3 76.2176 59.8927 3
32 21 -2 617.372 167.154 3
32 21 -1 -60.3551 97.8581 3
21 32 1 -28.2304 29.5326 3
32 21 0 20.355 67.9675 3
21 32 0 -38.0597 61.8951 3
32 21 1 3.43 76.5002 3
21 32 -1 -10.9663 79.7227 3
21 32 -2 376.332 147.619 3
21 32 -3 45.1569 75.4711 3
21 32 -4 83.5354 53.9611 3
21 32 -5 -27.5144 49.9702 3
0 0 -33 21.4385 124.796 2
1 0 -33 375.168 230.307 2
0 1 -33 330.852 196.799 2
0 -1 -33 280.95 165.953 2
-1 0 -33 374.349 220.427 2
1 1 -33 123.584 130.663 2
1 -1 -33 149.024 163.708 2
-1 1 -33 245.65 145.046 2
-1 -1 -33 71.3129 91.41 2
2 1 -33 780.762 259.872 2
1 -2 -33 726.597 264.606 2
-1 2 -33 737.298 257.759 2
-2 -1 -33 746.379 283.266 2
2 0 -33 16.8149 60.8741 2
0 2 -33 0.7878 83.0514 2
0 -2 -33 -46.1751 109.8 2
-2 0 -33 -8.4454 46.6025 2
1 2 -33 630.233 235.755 2
2 -1 -33 833.56 289.189 2
-1 -2 -33 775.25 279.813 2
-2 1 -33 795.693 285.823 2
2 2 -33 774.506 270.769 2
2 -2 -33 1065.37 297.907 2
-2 2 -33 972.473 299.57 2
-2 -2 -33 773.073 280.824 2
3 2 -33 49.7845 75.7602 2
2 -3 -33 -67.9289 112.199 2
-2 3 -33 160.807 179.112 2
-3 -2 -33 32.0911 68.4125 2
3 1 -33 113.631 163.172 2
-1 3 -33 205.684 181.732 2
1 -3 -33 201.727 155.731 2
-3 -1 -33 160.229 158.462 2
3 0 -33 333.573 192.07 2
0 3 -33 511.552 222.257 2
0 -3 -33 493.117 230.173 2
-3 0 -33 591.217 242.125 2
3 -1 -33 142.255 152.629 2
1 3 -33 270.792 129.357 2
-1 -3 -33 145.96 152.499 2
-3 1 -33 109.663 139.628 2
2 3 -33 26.3696 72.1816 2
3 -2 -33 93.0342 82.7525 2
-3 2 -33 135.822 115.05 2
-2 -3 -33 50.7785 119.514 2
3 3 -33 20.9867 45.3602 2
3 -3 -33 65.5505 123.539 2
-3 3 -33 50.3595 100.267 2
-3 -3 -33 -58.0522 86.6217 2
4 3 -33 765.831 243.352 2
3 -4 -33 602.979 257.157 2
-3 4 -33 566.113 216.04 2
-4 -3 -33 533.187 243.855 2
4 2 -33 6.835 118.371 2
2 -4 -33 49.0038 111.863 2
-2 4 -33 140.409 124.541 2
-4 -2 -33 83.0163 145.873 2
4 1 -33 327.516 191.563 2
-1 4 -33 284.048 156.259 2
1 -4 -33 349.626 220.659 2
-4 -1 -33 198.463 122.295 2
4 0 -33 728.309 280.584 2
0 4 -33 1004.15 274.162 2
0 -4 -33 1020.66 331.22 2
-4 0 -33 960.425 292.847 2
4 -1 -33 355.896 230.255 2
1 4 -33 361.572 198.487 2
-1 -4 -33 301.156 207.381 2
-4 1 -33 172.513 137.182 2
2 4 -33 69.5458 59.6967 2
4 -2 -33 50.3561 104.604 2
-2 -4 -33 107.031 184.047 2
-4 2 -33 -84.4451 123.952 2
3 4 -33 777.484 258.502 2
4 -3 -33 853.999 292.576 2
-4 3 -33 664.916 231.445 2
-3 -4 -33 802.948 283.026 2
4 4 -33 625.636 218.628 2
4 -4 -33 810.537 278.999 2
-4 4 -33 852.153 251.845 2
-4 -4 -33 700.028 300.476 2
5 4 -33 229.127 154.925 2
4 -5 -33 233.578 152.644 2
-4 5 -33 149.436 127.154 2
-5 -4 -33 229.239 205.698 2
5 3 -33 406.738 219.022 2
3 -5 -33 545.172 244.06 2
-3 5 -33 441.022 175.259 2
-5 -3 -33 514.958 256.426 2
5 2 -33 267.166 177.441 2
2 -5 -33 83.1781 152.572 2
-2 5 -33 196.556 132.487 2
-5 -2 -33 204.858 153.874 2
5 1 -33 62.5219 121.338 2
-1 5 -33 34.6284 71.5926 2
1 -5 -33 -30.0396 88.2122 2
-5 -1 -33 -5.67373 49.6939 2
5 0 -33 -62.4204 113.182 2
0 5 -33 -78.8343 116.819 2
0 -5 -33 41.5294 116.318 2
-5 0 -33 -11.9465 113.028 2
5 -1 -33 -27.5444 145.325 2
1 5 -33 22.0896 60.4096 2
-1 -5 -33 85.6687 115.795 2
-5 1 -33 31.1748 70.8817 2
2 5 -33 334.742 163.006 2
5 -2 -33 150.426 180.193 2
-2 -5 -33 365.608 207.165 2
-5 2 -33 227.03 171.589 2
3 5 -33 604.965 224.275 2
5 -3 -33 537.016 260.046 2
-5 3 -33 552.346 227.082 2
-3 -5 -33 444.44 215.225 2
4 5 -33 227.972 152.325 2
5 -4 -33 107.072 119.374 2
-5 4 -33 127.989 172.711 2
-4 -5 -33 177.496 137.158 2
5 5 -33 168.704 132.973 2
5 -5 -33 233.501 181.196 2
-5 5 -33 249.746 167.685 2
-5 -5 -33 294.085 166.865 2
5 -6 -33 217.958 97.0185 2
-5 6 -33 133.139 130.848 2
-6 -5 -33 -12.9338 133.656 2
4 -6 -33 113.758 123.868 2
-4 6 -33 -39.7557 83.0787 2
-6 -4 -33 56.8642 120.701 2
6 3 -33 24.3026 90.2215 2
3 -6 -33 466.544 165.79 2
-3 6 -33 12.3739 78.893 2
-6 -3 -33 269.85 218.912 2
6 2 -33 488.715 203.312 2
-2 6 -33 464.57 180.913 2
2 -6 -33 880.235 194.543 2
-6 -2 -33 438.738 222.412 2
6 1 -33 304.759 163.589 2
-1 6 -33 67.6266 93.1508 2
1 -6 -33 253.14 107.136 2
-6 -1 -33 313.257 182.036 2
6 0 -33 170.695 164.665 2
0 6 -33 170.33 119.726 2
0 -6 -33 57.294 53.6325 2
-6 0 -33 78.9106 114.885 2
6 -1 -33 154.63 102.813 2
1 6 -33 202.023 143.147 2
-1 -6 -33 522.367 184.798 2
-6 1 -33 114.393 105.519 2
6 -2 -33 339.08 219.509 2
2 6 -33 607.91 196.66 2
-2 -6 -33 835.113 264.097 2
-6 2 -33 473.598 217.812 2
3 6 -33 141.318 117.467 2
6 -3 -33 212.036 147.541 2
-3 -6 -33 308.072 141.228 2
-6 3 -33 245.192 158.881 2
4 6 -33 17.6908 99.5551 2
6 -4 -33 67.2165 59.9664 2
-6 4 -33 22.1545 113.772 2
-4 -6 -33 -68.3331 90.8784 2
6 -5 -33 102.44 107.105 2
-6 5 -33 112.047 96.8048 2
-5 -6 -33 9.73586 91.0158 2
6 -6 -33 28.5565 85.668 2
-6 6 -33 86.4612 107.398 2
-6 -6 -33 -139.457 135.676 2
6 -7 -33 279.352 117.372 2
-6 7 -33 145.222 112.29 2
-7 -6 -33 130.494 101.53 2
5 -7 -33 475.381 165.664 2
-5 7 -33 329.825 152.471 2
-7 -5 -33 302.084 189.614 2
4 -7 -33 252.107 165.157 2
-4 7 -33 67.1435 41.6196 2
-7 -4 -33 117.409 144.021 2
3 -7 -33 288.318 185.123 2
-3 7 -33 317.465 166.695 2
-7 -3 -33 91.1989 131.878 2
-2 7 -33 117.809 140.036 2
2 -7 -33 100.821 159.88 2
-7 -2 -33 25.8458 87.7941 2
7 1 -33 49.5348 82.9628 2
-1 7 -33 58.2179 49.1036 2
1 -7 -33 186.276 150.21 2
-7 -1 -33 72.5437 103.791 2
7 0 -33 -45.9339 111.253 2
0 7 -33 92.7824 98.79 2
0 -7 -33 166.006 103.281 2
-7 0 -33 3.0994 74.4612 2
7 -1 -33 159.206 146.134 2
1 7 -33 72.7771 128.067 2
-1 -7 -33 218.002 173.432 2
-7 1 -33 137.68 133.356 2
7 -2 -33 58.6107 100.508 2
2 7 -33 37.4393 53.7371 2
-2 -7 -33 249.295 189.133 2
-7 2 -33 72.7955 43.3258 2
3 7 -33 122.254 122.742 2
7 -3 -33 98.5605 123.727 2
-3 -7 -33 377.301 165.41 2
-7 3 -33 189.345 129.415 2
7 -4 -33 103.463 95.45 2
-7 4 -33 43.3361 94.3706 2
-4 -7 -33 281.708 172.238 2
7 -5 -33 816.486 222.315 2
-7 5 -33 293.313 159.034 2
-5 -7 -33 741.508 219.086 2
-7 6 -33 97.4787 107.6 2
-6 -7 -33 347.364 146.375 2
7 -7 -33 845.968 215.197 2
-7 7 -33 461.775 167.303 2
-7 -7 -33 1002.3 231.879 2
7 -8 -33 151.953 102.554 2
33 8 -7 123.5 125.268 3
-8 -7 -33 371.584 144.147 2
6 -8 -33 717.134 210.797 2
33 8 -6 335.41 204.258 3
-8 -6 -33 437.097 222.8 2
5 -8 -33 213.154 64.9854 2
33 8 -5 9.93883 186.487 3
-8 -5 -33 250.118 148.397 2
4 -8 -33 -91.4058 115.769 2
-8 -4 -33 -55.016 92.8331 2
3 -8 -33 131.675 114.365 2
-8 -3 -33 34.3665 115.66 2
2 -8 -33 131.467 58.645 2
-8 -2 -33 48.182 94.3059 2
-1 8 -33 63.4184 84.3499 2
1 -8 -33 145.754 92.6575 2
-8 -1 -33 29.4468 48.8423 2
0 8 -33 20.4203 69.0721 2
0 -8 -33 -82.1438 56.1914 2
-8 0 -33 63.9398 100.02 2
1 8 -33 30.1761 52.3353 2
-1 -8 -33 306.967 155.03 2
-8 1 -33 228.496 153.47 2
2 8 -33 3.02583 116.347 2
-2 -8 -33 106.217 70.8718 2
-8 2 -33 87.6577 169.526 2
8 -3 -33 50.4306 81.2201 2
-3 -8 -33 108.262 98.1389 2
-8 3 -33 32.4851 108.95 2
8 -4 -33 -110.127 149.438 2
-4 -8 -33 -15.4826 99.6839 2
-8 4 -33 -39.1132 42.1852 2
8 -5 -33 402.199 170.698 2
-8 5 -33 189.751 133.941 2
-5 -8 -33 210.174 58.4619 2
8 -6 -33 503.142 180.229 2
-8 6 -33 270.025 132.558 2
-6 -8 -33 675.944 188.008 2
-8 7 -33 84.2596 108.631 2
-7 -8 -33 124.579 93.4881 2
33 8 -8 255.272 188.623 3
-8 -8 -33 215.41 125.297 2
33 9 -8 317.132 234.863 3
-9 -8 -33 711.141 226.83 2
7 -9 -33 -8.05934 79.2248 2
33 9 -7 97.4568 153.051 3
6 -9 -33 388.03 147.195 2
33 9 -6 25.7809 170.271 3
-9 -6 -33 229.996 172.873 2
5 -9 -33 1022.73 261.251 2
33 9 -5 116.769 279.659 3
-9 -5 -33 447.631 235.829 2
4 -9 -33 228.461 180.803 2
33 9 -4 2.04344 98.3428 3
-9 -4 -33 55.455 119.387 2
3 -9 -33 -21.4078 77.1825 2
33 9 -3 4.88849 117.374 3
-9 -3 -33 18.6498 87.6616 2
2 -9 -33 146.696 123.785 2
-9 -2 -33 14.37 49.3323 2
1 -9 -33 58.9094 53.5964 2
-9 -1 -33 59.7367 71.6679 2
0 -9 -33 215.892 145.607 2
-9 0 -33 197.62 129.892 2
-1 -9 -33 85.3793 67.0893 2
-9 1 -33 110.076 159.77 2
-2 -9 -33 -103.488 126.336 2
-9 2 -33 49.8656 122.462 2
-3 -9 -33 174.449 85.7088 2
-9 3 -33 122.993 110.706 2
-4 -9 -33 35.1044 110.759 2
-9 4 -33 72.0472 72.0948 2
-5 -9 -33 1317.66 281.529 2
-9 5 -33 588.138 201.791 2
-9 6 -33 64.1124 67.6329 2
-6 -9 -33 322.292 126.244 2
-9 7 -33 117.502 93.7112 2
-7 -9 -33 193.287 106.94 2
-8 -9 -33 485.606 153.274 2
33 9 -9 105.913 89.4862 3
-9 -9 -33 327.21 197.196 2
33 10 -9 341.812 167.244 3
-10 -9 -33 98.4539 119.645 2
33 10 -8 441.149 251.55 3
-10 -8 -33 724.823 202.566 2
7 -10 -33 248.15 131.625 2
33 10 -7 11.2667 110.308 3
-10 -7 -33 263.492 88.2638 2
6 -10 -33 -59.469 99.0878 2
33 10 -6 -23.4175 103.011 3
5 -10 -33 218.388 94.2468 2
33 10 -5 42.8731 90.8413 3
4 -10 -33 83.3031 91.2831 2
33 10 -4 16.8072 83.4489 3
3 -10 -33 82.1548 76.4929 2
33 10 -3 -6.7336 133.992 3
2 -10 -33 244.062 158.279 2
33 10 -2 10.7214 66.8694 3
1 -10 -33 45.9282 80.4776 2
33 10 -1 10.9861 88.3697 3
0 -10 -33 3.00495 91.0717 2
-10 0 -33 -28.405 89.2715 2
-1 -10 -33 -26.9665 89.7862 2
-10 1 -33 46.2562 90.4847 2
-2 -10 -33 401.345 171.333 2
-10 2 -33 204.51 163.734 2
-3 -10 -33 332.477 156.371 2
-10 3 -33 30.0752 123.37 2
-4 -10 -33 135.583 58.443 2
-10 4 -33 -12.4035 94.9514 2
-5 -10 -33 165.491 119.555 2
-10 5 -33 164.493 116.885 2
-10 6 -33 22.0683 42.5528 2
-6 -10 -33 272.119 137.893 2
-10 7 -33 75.9078 68.6714 2
-7 -10 -33 223.992 143.69 2
-8 -10 -33 727.176 204.706 2
33 9 -10 134.56 98.6918 3
-9 -10 -33 501.459 194.075 2
33 10 -10 72.5711 127.437 3
-10 -10 -33 91.4332 103.729 2
33 11 -10 271.922 136.994 3
-11 -10 -33 266.894 193.268 2
33 11 -9 70.1172 131.728 3
-11 -9 -33 19.5093 65.8513 2
33 11 -8 92.7985 130.195 3
33 11 -7 213.583 123.455 3
6 -11 -33 366.211 162.066 2
33 11 -6 49.7356 164.617 3
5 -11 -33 175.579 123.964 2
33 11 -5 205.324 168.063 3
4 -11 -33 106.181 104.087 2
33 11 -4 1.38478 67.6179 3
3 -11 -33 1064.41 242.496 2
33 11 -3 400.094 228.384 3
2 -11 -33 442.746 163.144 2
33 11 -2 175.498 143.659 3
1 -11 -33 211.515 145.329 2
33 11 -1 -1.30095 97.6485 3
0 -11 -33 326.009 148.211 2
33 11 0 19.4027 124.565 3
-1 -11 -33 228.829 68.2166 2
-11 1 -33 38.0707 89.7284 2
-2 -11 -33 448.434 124.563 2
-11 2 -33 82.0156 137.714 2
-3 -11 -33 846.846 199.381 2
-11 3 -33 613.63 196.141 2
-4 -11 -33 290.999 156.321 2
-11 4 -33 44.98 90.5815 2
-5 -11 -33 102.326 48.3289 2
-11 5 -33 34.6721 47.4943 2
-6 -11 -33 -20.9005 90.3202 2
-11 6 -33 11.8526 108.903 2
-11 7 -33 192.502 102.26 2
-7 -11 -33 249.589 132.542 2
-8 -11 -33 28.0378 92.4763 2
-9 -11 -33 51.3521 79.3265 2
33 10 -11 471.007 204.483 3
-10 -11 -33 182.885 153.224 2
33 11 -11 202.431 155.663 3
-11 -11 -33 43.0874 95.3875 2
33 12 -11 -27.7922 84.9476 3
-12 -11 -33 18.7072 96.1246 2
33 12 -10 187.466 146.957 3
-12 -10 -33 71.8509 143.192 2
33 12 -9 124.821 222.063 3
33 12 -8 -56.5726 116.769 3
33 12 -7 182.177 178.99 3
6 -12 -33 25.7897 143.673 2
33 12 -6 718.771 224.987 3
5 -12 -33 -2.76227 48.4264 2
33 12 -5 -62.8279 127.78 3
4 -12 -33 61.6215 192.794 2
33 12 -4 31.372 100.32 3
3 -12 -33 37.2893 150.841 2
33 12 -3 301.485 194.922 3
2 -12 -33 3.33573 118.272 2
33 12 -2 39.5434 111.794 3
1 -12 -33 42.9425 147.498 2
33 12 -1 17.8607 141.078 3
0 -12 -33 267.344 287.873 2
33 12 0 333.154 204.244 3
-1 -12 -33 -5.3833 78.294 2
-2 -12 -33 30.3448 143.756 2
-12 2 -33 56.1717 87.2375 2
-3 -12 -33 50.5982 197.398 2
-12 3 -33 314.439 184.164 2
-4 -12 -33 10.013 171.379 2
-12 4 -33 173.815 111.671 2
-5 -12 -33 -16.5476 60.7236 2
-12 5 -33 26.1741 85.849 2
-6 -12 -33 42.2702 172.401 2
-12 6 -33 246.519 139.929 2
-7 -12 -33 196.498 113.318 2
-8 -12 -33 35.3708 99.4862 2
-9 -12 -33 63.1904 124.963 2
-10 -12 -33 24.368 99.1811 2
33 11 -12 306.259 194.641 3
-11 -12 -33 32.1889 99.9361 2
33 12 -12 244.721 183.231 3
-12 -12 -33 44.9361 83.0022 2
33 13 -12 18.4055 47.6224 3
-13 -12 -33 88.3364 127.832 2
33 13 -11 249.673 122.291 3
-13 -11 -33 81.7864 105.975 2
33 13 -10 44.6748 145.406 3
33 13 -9 -30.8836 82.5178 3
33 13 -8 274.968 234.473 3
33 13 -7 365.94 211.477 3
33 13 -6 206.425 236.649 3
5 -13 -33 74.178 239.137 2
33 13 -5 362.704 235.192 3
4 -13 -33 14.5607 113.617 2
33 13 -4 26.0961 50.2179 3
3 -13 -33 8.80696 44.0091 2
33 13 -3 76.8085 123.735 3
2 -13 -33 -2.95115 120.497 2
33 13 -2 125.675 134.641 3
1 -13 -33 31.807 190.166 2
33 13 -1 269.845 215.097 3
0 -13 -33 27.3675 134.869 2
33 13 0 20.3427 182.172 3
-1 -13 -33 97.866 237.049 2
33 13 1 76.043 197.076 3
-2 -13 -33 33.5059 162.787 2
-3 -13 -33 -7.51976 108.856 2
-13 3 -33 -28.5539 51.4746 2
-4 -13 -33 54.9374 116.322 2
-13 4 -33 119.227 115.394 2
-5 -13 -33 116.139 189.773 2
-13 5 -33 541.773 188.358 2
-6 -13 -33 18.8289 144.867 2
-13 6 -33 23.0485 73.0872 2
-7 -13 -33 10.9278 104.508 2
-8 -13 -33 37.0971 153.556 2
-9 -13 -33 1.72701 81.879 2
-10 -13 -33 49.9201 138.048 2
-11 -13 -33 85.2782 109.634 2
33 12 -13 55.8099 98.0859 3
-12 -13 -33 66.2692 84.1366 2
33 13 -13 234.9 144.791 3
-13 -13 -33 150.966 168.779 2
33 14 -13 75.8197 133.907 3
-14 -13 -33 14.2232 45.9135 2
33 14 -12 -37.8853 100.057 3
-14 -12 -33 37.9561 83.3066 2
33 14 -11 75.9172 110.971 3
-14 -11 -33 33.6864 99.464 2
33 14 -10 335.641 164.326 3
33 14 -9 34.8839 90.8727 3
33 14 -8 382.609 182.807 3
33 14 -7 330.65 138.651 3
33 14 -6 205.819 127.351 3
33 14 -5 1070.67 277.702 3
4 -14 -33 156.887 198.041 2
33 14 -4 141.903 188.197 3
3 -14 -33 -51.5312 61.8327 2
33 14 -3 -4.143 79.2009 3
2 -14 -33 124.003 249.52 2
33 14 -2 479.015 239.458 3
1 -14 -33 7.26207 133.451 2
33 14 -1 434.101 186.989 3
0 -14 -33 -35.1493 121.162 2
33 14 0 5471.65 913.068 3
-1 -14 -33 44.64 150.308 2
33 14 1 52.1715 94.5123 3
-2 -14 -33 87.8587 243.673 2
-3 -14 -33 -168.007 93.4084 2
-4 -14 -33 47.3807 169.968 2
-14 4 -33 63.1873 52.9339 2
-5 -14 -33 217.014 272.424 2
-14 5 -33 674.753 166.188 2
-6 -14 -33 77.1158 132.192 2
-14 6 -33 135.029 79.7417 2
-7 -14 -33 46.5509 174.089 2
-8 -14 -33 40.3126 125.707 2
-9 -14 -33 -15.0715 50.5812 2
-10 -14 -33 -31.265 51.4919 2
-11 -14 -33 27.0071 94.8841 2
-12 -14 -33 0.36071 75.4179 2
-13 -14 -33 8.55589 67.705 2
33 14 -14 0.59378 51.6241 3
-14 -14 -33 1.12814 56.4188 2
14 33 -14 63.7652 91.9131 3
13 33 -15 -16.6935 70.6553 3
-15 -13 -33 3.90778 35.9857 2
33 15 -12 72.8113 107.951 3
-15 -12 -33 -14.2387 52.1839 2
33 15 -11 248.57 168.937 3
-15 -11 -33 85.4795 129.352 2
33 15 -10 40.2137 88.2958 3
33 15 -9 375.603 141.737 3
33 15 -8 260.104 142.129 3
33 15 -7 -75.0504 118.332 3
33 15 -6 46.3783 87.3568 3
33 15 -5 177.279 85.1342 3
4 -15 -33 4.52692 76.72 2
33 15 -4 81.4 84.1242 3
15 33 3 201.195 96.9862 3
3 -15 -33 21.3434 118.202 2
33 15 -3 56.4002 66.1669 3
2 -15 -33 5.48307 72.5458 2
33 15 -2 107.499 130.675 3
1 -15 -33 74.6331 170.082 2
33 15 -1 157.997 79.567 3
0 -15 -33 -32.1637 93.832 2
33 15 0 4.44994 98.8604 3
-1 -15 -33 -1.97777 104.695 2
33 15 1 32.5768 120.996 3
-2 -15 -33 33.6519 140.799 2
-3 -15 -33 64.3241 152.966 2
-4 -15 -33 62.2551 113.669 2
-15 4 -33 6.59297 100.335 2
-5 -15 -33 9.68636 105.448 2
-15 5 -33 140.98 89.3119 2
-6 -15 -33 -5.36846 56.3105 2
-15 6 -33 48.7172 70.2117 2
-7 -15 -33 27.022 107.781 2
-8 -15 -33 18.8251 133.341 2
-9 -15 -33 48.3965 140.853 2
-10 -15 -33 77.6669 125.867 2
15 33 -11 225.723 166.513 3
-11 -15 -33 51.6117 129.889 2
-12 -15 -33 16.4761 94.96 2
15 33 -12 -121.082 107.05 3
-13 -15 -33 5.65782 73.3812 2
15 33 -13 21.5482 67.4507 3
12 33 -16 10.9043 144.759 3
33 16 -12 259.156 168.721 3
-16 -12 -33 104.882 131.085 2
33 16 -11 150.013 102.218 3
33 16 -10 297.598 151.77 3
33 16 -9 507.704 196.091 3
33 16 -8 241.435 187.413 3
33 16 -7 367.165 217.309 3
33 16 -6 101.095 139.567 3
33 16 -5 104.85 135.948 3
33 16 -4 -9.15344 115.125 3
3 -16 -33 69.129 193.922 2
33 16 -3 508.38 217.82 3
16 33 3 646.382 208.466 3
2 -16 -33 11.5823 68.9024 2
33 16 -2 -98.3536 165.12 3
1 -16 -33 8.98266 99.4068 2
33 16 -1 22.0044 76.0616 3
16 33 1 71.9355 119.748 3
16 33 0 276.473 175.31 3
0 -16 -33 165.146 209.288 2
33 16 0 150.784 208.535 3
-1 -16 -33 8.7685 106.578 2
33 16 1 48.0311 56.7024 3
-2 -16 -33 -2.43293 59.2398 2
-3 -16 -33 104.642 189.191 2
-4 -16 -33 43.8109 107.739 2
-16 4 -33 18.5817 80.9124 2
-5 -16 -33 46.1914 132.469 2
-16 5 -33 337.701 125.426 2
-6 -16 -33 45.4159 133.901 2
-16 6 -33 104.269 62.5234 2
-7 -16 -33 65.6609 190.151 2
16 33 -8 338.049 154.826 3
-8 -16 -33 77.5925 169.532 2
16 33 -9 290.683 129.441 3
-9 -16 -33 59.7298 162.379 2
-10 -16 -33 44.277 122.077 2
16 33 -10 107.505 117.557 3
-11 -16 -33 34.8802 90.7379 2
16 33 -11 -9.28152 76.2119 3
-12 -16 -33 46.2657 116.433 2
16 33 -12 453.593 169.4 3
11 33 -17 3.2106 127.193 3
33 17 -11 82.573 99.669 3
33 17 -10 -6.55527 44.7553 3
33 17 -9 365.855 138.264 3
33 17 -8 -12.1059 82.944 3
33 17 -7 147.713 155.491 3
33 17 -6 67.0917 87.2801 3
33 17 -5 27.7367 52.252 3
33 17 -4 132.673 89.7022 3
33 17 -3 -33.5668 85.0498 3
33 17 -2 153.788 115.575 3
17 33 2 -21.6747 56.2469 3
1 -17 -33 -2.04707 121.83 2
33 17 -1 55.9052 84.5364 3
17 33 1 48.1553 95.065 3
0 -17 -33 -6.33919 98.2275 2
33 17 0 -39.6111 105.298 3
17 33 0 2.04131 85.4416 3
-1 -17 -33 14.8855 83.0484 2
33 17 1 106.478 145.776 3
17 33 -1 214.873 87.2759 3
-2 -17 -33 12.9479 101.063 2
17 33 -2 15.5101 47.695 3
-3 -17 -33 -25.6387 75.3474 2
17 33 -3 71.2659 80.0079 3
-4 -17 -33 11.3758 105.112 2
-17 4 -33 -1.21293 57.068 2
17 33 -4 42.1563 88.6737 3
-5 -17 -33 21.0945 92.6642 2
-17 5 -33 39.3448 75.9822 2
17 33 -5 178.769 123.109 3
-6 -17 -33 13.5104 95.6699 2
17 33 -6 25.9725 54.9595 3
-7 -17 -33 5.89428 83.3061 2
17 33 -7 282.789 159.58 3
-8 -17 -33 -27.3585 104.56 2
17 33 -8 130.25 128.219 3
-9 -17 -33 30.3664 78.4235 2
17 33 -9 82.1552 77.2033 3
-10 -17 -33 -21.5185 72.0152 2
17 33 -10 35.4287 49.2653 3
-11 -17 -33 -1.13247 28.7745 2
17 33 -11 73.8817 48.579 3
33 18 -9 42.8444 70.9747 3
33 18 -8 49.8144 83.9393 3
33 18 -7 131.642 146.889 3
33 18 -6 85.7326 130.071 3
33 18 -5 281.753 154.411 3
33 18 -4 -2.92453 77.0656 3
33 18 -3 4.78434 76.8895 3
33 18 -2 -39.2997 74.2359 3
18 33 2 -68.0101 88.7646 3
33 18 -1 246.785 117.654 3
18 33 1 85.305 82.5501 3
0 -18 -33 -8.6432 45.3791 2
33 18 0 59.1383 115.77 3
18 33 0 11.2449 65.2128 3
-1 -18 -33 13.6088 120.13 2
33 18 1 96.3142 150.709 3
-2 -18 -33 47.5057 116.004 2
18 33 -2 21.8845 86.2376 3
-3 -18 -33 12.4028 57.2645 2
18 33 -3 31.8024 48.3052 3
-4 -18 -33 29.0828 63.6412 2
-18 4 -33 -27.4432 33.0978 2
18 33 -4 31.1109 68.1094 3
-5 -18 -33 137.26 155.529 2
-18 5 -33 317.373 135.745 2
18 33 -5 327.892 174.734 3
-6 -18 -33 8.43543 87.8283 2
18 33 -6 65.6921 46.4001 3
-7 -18 -33 76.9556 126.918 2
18 33 -7 517.396 176.628 3
-8 -18 -33 39.4596 98.1721 2
18 33 -8 77.5432 105.346 3
-9 -18 -33 21.4426 76.184 2
18 33 -9 83.5771 82.9569 3
33 19 -7 190.147 142.571 3
33 19 -6 111.113 124.591 3
33 19 -5 138.043 89.0427 3
33 19 -4 14.5302 63.5243 3
33 19 -3 43.2532 69.8386 3
33 19 -2 31.9238 91.1206 3
33 19 -1 -18.8638 56.112 3
19 33 1 42.1347 56.4531 3
33 19 0 -39.5528 90.871 3
19 33 0 79.4949 89.5724 3
19 33 -1 35.8154 72.1436 3
-2 -19 -33 6098.52 791.189 2
19 33 -2 12.9375 35.2605 3
-3 -19 -33 35987.4 961.627 2
19 33 -3 28.1028 52.135 3
-4 -19 -33 -29.6791 546.038 2
-19 4 -33 -22.5509 79.7169 2
19 33 -4 5.60619 62.8247 3
-5 -19 -33 115.645 111.961 2
-19 5 -33 29.5295 32.1848 2
-6 -19 -33 69.2798 82.8673 2
19 33 -6 48.4128 43.4579 3
-7 -19 -33 71.3426 110.357 2
19 33 -7 102.926 117.666 3
33 20 -3 100.01 85.1297 3
33 20 -2 32.2049 72.7152 3
33 20 -1 1.76742 42.5956 3
20 33 1 247.028 101.804 3
33 20 0 6.38158 79.2571 3
20 33 0 21.5459 48.5109 3
20 33 -1 205.12 122.501 3
20 33 -2 65.5147 31.4233 3
-20 3 -33 148.346 108.354 2
20 33 -3 42.9378 41.5443 3
0 0 -34 -15.4389 83.9956 2
1 0 -34 399.309 203.402 2
0 1 -34 383.892 197.752 2
0 -1 -34 336.759 193.618 2
-1 0 -34 308.974 210.355 2
1 1 -34 1.51438 87.6637 2
1 -1 -34 -31.2344 80.2511 2
-1 1 -34 11.0259 62.3947 2
-1 -1 -34 -27.119 103.383 2
2 1 -34 280.878 161.997 2
1 -2 -34 193.873 145.219 2
-1 2 -34 242.962 151.452 2
-2 -1 -34 214.323 166.454 2
2 0 -34 159.509 162.754 2
0 2 -34 261.283 135.758 2
0 -2 -34 201.946 162.993 2
-2 0 -34 213.337 165.469 2
1 2 -34 184.598 139.221 2
2 -1 -34 200.875 136.316 2
-1 -2 -34 183.675 150.42 2
-2 1 -34 243.236 118.504 2
2 2 -34 0.24602 90.4785 2
2 -2 -34 95.7662 170.168 2
-2 2 -34 -28.1059 53.2176 2
-2 -2 -34 -12.3458 79.306 2
3 2 -34 773.671 246.008 2
2 -3 -34 628.545 261.073 2
-2 3 -34 609.583 229.262 2
-3 -2 -34 768.372 241.933 2
3 1 -34 768.718 246.787 2
-1 3 -34 683.613 239.361 2
1 -3 -34 769.088 276.399 2
-3 -1 -34 644.122 247.318 2
3 0 -34 -9.27973 75.6773 2
0 3 -34 36.5619 107.252 2
0 -3 -34 61.5936 47.4937 2
-3 0 -34 1.2623 102.272 2
3 -1 -34 972.766 276.584 2
1 3 -34 604.655 235.236 2
-1 -3 -34 486.253 231.23 2
-3 1 -34 603.502 227.444 2
2 3 -34 598.858 226.744 2
3 -2 -34 897.678 280.179 2
-3 2 -34 567.226 234.541 2
-2 -3 -34 879.449 289.353 2
3 3 -34 414.435 209.847 2
3 -3 -34 155.913 115.319 2
-3 3 -34 174.049 138.011 2
-3 -3 -34 269.312 175.414 2
4 3 -34 234.386 165.526 2
3 -4 -34 129.157 181.034 2
-3 4 -34 136.99 104.763 2
-4 -3 -34 148.634 155.671 2
4 2 -34 57.0893 91.7158 2
2 -4 -34 84.396 112.496 2
-2 4 -34 5.86763 58.7972 2
-4 -2 -34 194.698 146.849 2
4 1 -34 269.352 168.175 2
-1 4 -34 324.025 189.681 2
1 -4 -34 359.177 218.338 2
-4 -1 -34 309.832 183.243 2
4 0 -34 17.7282 59.696 2
0 4 -34 -31.0927 61.3659 2
0 -4 -34 -32.2961 110.681 2
-4 0 -34 43.4668 116.954 2
4 -1 -34 326.11 176.839 2
1 4 -34 164.931 115.101 2
-1 -4 -34 54.1533 81.4255 2
-4 1 -34 341.86 177.454 2
2 4 -34 21.8194 60.9877 2
4 -2 -34 78.3302 138.988 2
-2 -4 -34 126.05 97.638 2
-4 2 -34 137.745 118.675 2
3 4 -34 136.78 113.716 2
4 -3 -34 192.671 177.229 2
-4 3 -34 45.4807 51.6135 2
-3 -4 -34 207.771 175.44 2
4 4 -34 127.455 105.252 2
4 -4 -34 148.726 177.016 2
-4 4 -34 94.2664 127.966 2
-4 -4 -34 112.499 131.998 2
4 -5 -34 450.93 207.297 2
-4 5 -34 317.811 114.317 2
-5 -4 -34 309.724 203.211 2
5 3 -34 192.547 133.598 2
3 -5 -34 235.208 177.64 2
-3 5 -34 291.043 130.728 2
-5 -3 -34 197.918 179.895 2
5 2 -34 105.304 97.3895 2
2 -5 -34 95.2194 121.396 2
-2 5 -34 177.458 178.731 2
-5 -2 -34 147.183 172.124 2
5 1 -34 391.045 161.827 2
-1 5 -34 322.818 200.446 2
1 -5 -34 337.805 187.15 2
-5 -1 -34 325.506 180.194 2
5 0 -34 563.782 214.31 2
0 5 -34 395.342 168.745 2
0 -5 -34 431.465 199.63 2
-5 0 -34 431.824 183.894 2
5 -1 -34 337.323 181.19 2
1 5 -34 169.871 93.0808 2
-1 -5 -34 209.274 200.416 2
-5 1 -34 291.845 166.761 2
2 5 -34 70.5578 93.3265 2
5 -2 -34 81.044 149.696 2
-2 -5 -34 70.1438 157.784 2
-5 2 -34 21.321 96.0596 2
3 5 -34 237.014 177.499 2
5 -3 -34 296.049 204.739 2
-5 3 -34 238.944 126.271 2
-3 -5 -34 201.851 182.187 2
5 -4 -34 352.056 217.706 2
-5 4 -34 267.764 139.423 2
-4 -5 -34 320.969 181.802 2
5 -5 -34 118.709 126.063 2
-5 5 -34 4.56092 82.9947 2
-5 -5 -34 6.20293 103.197 2
5 -6 -34 249.447 102.54 2
-5 6 -34 176.376 134.015 2
-6 -5 -34 -6.36212 64.0132 2
4 -6 -34 17.3347 46.9082 2
-4 6 -34 30.069 78.8598 2
-6 -4 -34 76.5729 107.103 2
3 -6 -34 467.593 149.928 2
-3 6 -34 157.129 144.301 2
-6 -3 -34 191.394 138.445 2
-2 6 -34 5.72005 61.4049 2
2 -6 -34 39.7607 73.7324 2
-6 -2 -34 64.4594 96.242 2
6 1 -34 261.253 164.116 2
-1 6 -34 352.647 184.226 2
1 -6 -34 388.115 178.158 2
-6 -1 -34 141.99 158.31 2
6 0 -34 7.35603 57.3982 2
0 6 -34 29.2498 97.2754 2
0 -6 -34 309.12 194.069 2
-6 0 -34 164.408 160.193 2
6 -1 -34 119.664 140.215 2
1 6 -34 263.088 165.736 2
-1 -6 -34 496.691 207.979 2
-6 1 -34 130.008 122.019 2
2 6 -34 28.5886 108.713 2
6 -2 -34 70.7484 82.4089 2
-2 -6 -34 238.632 161.966 2
-6 2 -34 -0.23054 62.8486 2
3 6 -34 187.503 111.542 2
6 -3 -34 399.414 217.593 2
-3 -6 -34 591.973 182.592 2
-6 3 -34 169.712 134.417 2
6 -4 -34 -38.8145 146.107 2
-6 4 -34 -31.6299 64.8476 2
-4 -6 -34 -67.5453 124.764 2
6 -5 -34 104.462 80.2179 2
-6 5 -34 49.6438 88.3504 2
-5 -6 -34 180.955 144.03 2
6 -6 -34 666.014 190.096 2
-6 6 -34 271.804 153.855 2
-6 -6 -34 306.842 187.558 2
6 -7 -34 807.768 216.537 2
-6 7 -34 371.696 170.23 2
-7 -6 -34 277.047 182.884 2
5 -7 -34 204.242 159.446 2
-5 7 -34 43.6593 86.2188 2
-7 -5 -34 165.908 101.777 2
4 -7 -34 171.182 130.614 2
-4 7 -34 87.6822 126.221 2
-7 -4 -34 52.7162 46.616 2
3 -7 -34 108.074 110.579 2
-3 7 -34 44.6269 84.134 2
-7 -3 -34 73.6047 94.4066 2
-2 7 -34 104.182 89.093 2
-7 -2 -34 -16.2604 46.5996 2
-1 7 -34 87.8083 108.894 2
1 -7 -34 314.464 121.118 2
-7 -1 -34 172.993 114.826 2
0 7 -34 60.1994 107.581 2
0 -7 -34 146.62 91.7052 2
-7 0 -34 33.6248 87.4129 2
1 7 -34 54.6115 108.362 2
-7 1 -34 80.3474 111.034 2
7 -2 -34 103.102 113.068 2
2 7 -34 58.4567 65.1562 2
-2 -7 -34 189.744 109.241 2
-7 2 -34 23.7508 115.611 2
7 -3 -34 91.384 120.869 2
-3 -7 -34 123.095 118.571 2
-7 3 -34 127.086 145.662 2
7 -4 -34 28.2059 79.7367 2
-7 4 -34 8.58238 69.9548 2
-4 -7 -34 -7.49802 68.8936 2
7 -5 -34 151.258 75.2052 2
-7 5 -34 -13.3335 77.4939 2
-5 -7 -34 71.1781 51.8976 2
7 -6 -34 948.594 214.138 2
-7 6 -34 437.114 170.507 2
-6 -7 -34 822.406 219.826 2
-7 7 -34 133.762 70.7083 2
-7 -7 -34 634.449 197.251 2
-8 -7 -34 181.125 131.348 2
6 -8 -34 149.709 100.779 2
-8 -6 -34 -82.7321 103.478 2
5 -8 -34 390.179 142.621 2
-8 -5 -34 83.6441 104.173 2
4 -8 -34 462.082 135.905 2
-8 -4 -34 191.541 150.93 2
3 -8 -34 92.9387 107.697 2
-8 -3 -34 143.431 149.343 2
2 -8 -34 109.267 69.2319 2
-8 -2 -34 21.7149 94.9286 2
1 -8 -34 -54.1592 59.1541 2
-8 -1 -34 13.562 68.4772 2
0 -8 -34 40.1708 75.2746 2
-8 0 -34 0.70042 66.9694 2
-1 -8 -34 234.916 91.8853 2
-8 1 -34 31.4524 102.355 2
-2 -8 -34 -28.603 74.1786 2
-8 2 -34 86.7229 103.097 2
-3 -8 -34 -97.9774 106.286 2
-8 3 -34 4.4811 68.0192 2
-4 -8 -34 254.251 121.563 2
-8 4 -34 94.3955 93.2072 2
-8 5 -34 194.91 129.426 2
-5 -8 -34 494.045 180.959 2
-8 6 -34 109.27 95.1852 2
-6 -8 -34 117.772 103.658 2
-8 7 -34 11.1295 64.6613 2
-7 -8 -34 379.682 163.483 2
-8 -8 -34 211.262 129.594 2
-9 -8 -34 254.682 164.876 2
-9 -7 -34 458.416 215.279 2
6 -9 -34 -17.2502 51.4066 2
-9 -6 -34 44.1338 70.1005 2
5 -9 -34 -21.4957 79.9989 2
-9 -5 -34 136.438 140.006 2
4 -9 -34 294.145 133.35 2
-9 -4 -34 158.945 172.347 2
3 -9 -34 61.3487 80.2077 2
-9 -3 -34 42.772 91.3759 2
2 -9 -34 150.456 122.9 2
-9 -2 -34 12.9497 63.1759 2
1 -9 -34 276.778 144.943 2
-9 -1 -34 88.4787 103.774 2
0 -9 -34 89.147 71.1993 2
-9 0 -34 -14.3524 86.0785 2
-1 -9 -34 32.0903 47.3836 2
-9 1 -34 54.9051 51.5051 2
-2 -9 -34 -31.1308 92.5345 2
-9 2 -34 -12.7214 54.6074 2
-3 -9 -34 224.643 112.799 2
-9 3 -34 -31.9954 107.453 2
-4 -9 -34 263.147 167.098 2
-9 4 -34 41.5206 72.0802 2
-9 5 -34 29.5507 67.1497 2
-5 -9 -34 22.1973 75.327 2
-9 6 -34 19.2156 42.6902 2
-6 -9 -34 24.2464 66.288 2
-7 -9 -34 272.767 161.814 2
-8 -9 -34 128.55 89.3499 2
-9 -9 -34 105.66 119.455 2
-10 -9 -34 139.363 116.554 2
-10 -8 -34 -28.6608 85.4382 2
-10 -7 -34 166.53 160.522 2
6 -10 -34 164.806 156.159 2
-10 -6 -34 105.544 107.985 2
5 -10 -34 11.8129 88.8892 2
-10 -5 -34 379.052 203.682 2
4 -10 -34 80.9968 145.347 2
-10 -4 -34 124.841 95.6638 2
3 -10 -34 217.373 152.537 2
-10 -3 -34 146.512 126.564 2
2 -10 -34 265.742 161.136 2
-10 -2 -34 182.517 147.083 2
1 -10 -34 -19.3703 100.043 2
-10 -1 -34 13.5463 67.6213 2
0 -10 -34 190.999 122.729 2
-10 0 -34 115.355 119.19 2
-1 -10 -34 -50.8374 49.5437 2
-10 1 -34 99.9985 84.3044 2
-2 -10 -34 216.04 126.562 2
-10 2 -34 95.0327 124.552 2
-3 -10 -34 55.0162 82.5068 2
-10 3 -34 -77.3616 51.1139 2
-4 -10 -34 214.35 161.521 2
-10 4 -34 109.628 58.9726 2
-5 -10 -34 567.669 279.177 2
-10 5 -34 80.7286 80.8753 2
-10 6 -34 234.786 126.911 2
-6 -10 -34 290.671 257.683 2
-7 -10 -34 231.221 156.565 2
-8 -10 -34 -21.4329 97.8733 2
-9 -10 -34 172.796 147.93 2
-10 -10 -34 61.3382 102.849 2
-11 -10 -34 148.866 147.075 2
-11 -9 -34 64.1483 145.204 2
-11 -8 -34 2.59533 57.5908 2
34 11 -7 18.4985 216.775 3
-11 -7 -34 128.618 123.281 2
34 11 -6 10.3086 167.818 3
-11 -6 -34 117.718 146.827 2
5 -11 -34 14.0313 59.8429 2
-11 -5 -34 128.605 99.9189 2
4 -11 -34 52.8643 112.757 2
-11 -4 -34 96.8554 111.907 2
3 -11 -34 214.255 191.938 2
-11 -3 -34 361.762 200.468 2
2 -11 -34 195.066 159.36 2
-11 -2 -34 361.813 200.687 2
1 -11 -34 107.711 172.402 2
-11 -1 -34 243.375 162.854 2
0 -11 -34 -20.4541 114.308 2
-11 0 -34 -9.86106 60.9084 2
-1 -11 -34 98.0346 158.621 2
-11 1 -34 161.486 140.722 2
-2 -11 -34 218.242 165.517 2
-11 2 -34 212.445 149.781 2
-3 -11 -34 381.17 228.566 2
-11 3 -34 254.938 127.458 2
-4 -11 -34 213.691 164.548 2
-11 4 -34 149.158 150.287 2
-5 -11 -34 34.6553 97.6304 2
-11 5 -34 15.1991 45.1472 2
-11 6 -34 78.167 95.3431 2
-6 -11 -34 145.005 147.94 2
-7 -11 -34 196.607 184.968 2
-8 -11 -34 16.986 115.129 2
-9 -11 -34 46.2979 130.617 2
-10 -11 -34 221.081 178.137 2
-11 -11 -34 1.96535 77.7057 2
-12 -11 -34 25.0096 54.7551 2
-12 -10 -34 98.0131 124.044 2
34 12 -9 116.131 133.521 3
-12 -9 -34 180.721 176.662 2
34 12 -8 339.793 200.67 3
-12 -8 -34 224.336 181.864 2
34 12 -7 51.8999 189.582 3
-12 -7 -34 131.2 158.799 2
34 12 -6 -0.24801 84.411 3
-12 -6 -34 11.5956 79.9425 2
5 -12 -34 24.3936 104.711 2
34 12 -5 4.69819 130.034 3
-12 -5 -34 -44.1269 41.6245 2
4 -12 -34 122.668 207.895 2
34 12 -4 30.3787 233.38 3
-12 -4 -34 274.326 150.509 2
3 -12 -34 19.7622 91.8752 2
-12 -3 -34 162.136 144.317 2
2 -12 -34 84.6073 216.225 2
-12 -2 -34 498.695 224.201 2
1 -12 -34 74.7323 202.802 2
-12 -1 -34 210.837 168.752 2
0 -12 -34 39.1022 161.357 2
-12 0 -34 -19.4199 58.2297 2
-1 -12 -34 69.5395 165.416 2
-12 1 -34 308.814 169.844 2
-2 -12 -34 21.7967 187.628 2
-12 2 -34 500.784 187.438 2
-3 -12 -34 -7.35129 116.149 2
-12 3 -34 -46.1231 100.358 2
-4 -12 -34 103.458 151.217 2
-12 4 -34 246.221 121.974 2
-5 -12 -34 -0.44668 65.8504 2
-12 5 -34 -94.5955 86.7386 2
-6 -12 -34 52.1455 88.0759 2
-12 6 -34 99.7894 99.9563 2
-7 -12 -34 104.717 152.78 2
-8 -12 -34 123.209 144.001 2
-9 -12 -34 91.1419 116.836 2
-10 -12 -34 107.633 120.894 2
-11 -12 -34 66.6343 101.845 2
-12 -12 -34 25.9064 95.7123 2
-13 -12 -34 37.4502 63.7633 2
-13 -11 -34 64.0287 92.0529 2
34 13 -10 2.90817 104.341 3
-13 -10 -34 -1.86808 41.6517 2
34 13 -9 115.28 102.089 3
-13 -9 -34 24.3775 59.9772 2
34 13 -8 10.0571 97.1158 3
-13 -8 -34 -0.19884 77.9501 2
34 13 -7 1.41876 62.3989 3
-13 -7 -34 50.9388 108.743 2
34 13 -6 46.5302 238.503 3
-13 -6 -34 553.427 203.146 2
34 13 -5 39.0625 224.185 3
-13 -5 -34 546.254 180.517 2
4 -13 -34 101.515 176.928 2
34 13 -4 130.167 185.443 3
-13 -4 -34 147.21 80.8777 2
3 -13 -34 9.73637 123.31 2
34 13 -3 -6.92465 92.5206 3
-13 -3 -34 224.2 120.378 2
2 -13 -34 105.517 190.423 2
-13 -2 -34 159.541 111.91 2
1 -13 -34 75.2338 239.691 2
-13 -1 -34 599.588 220.886 2
0 -13 -34 73.8792 175.716 2
-13 0 -34 151.336 142.966 2
-1 -13 -34 180.635 241.714 2
-13 1 -34 699.139 200.883 2
-2 -13 -34 -9.72519 293.571 2
-13 2 -34 206.391 140.351 2
-3 -13 -34 219.563 294.883 2
-13 3 -34 104.284 122.524 2
-4 -13 -34 869.092 309.24 2
-13 4 -34 129.785 89.542 2
-5 -13 -34 123.279 227.263 2
-13 5 -34 696.197 179.126 2
-6 -13 -34 382.041 252.777 2
-13 6 -34 501.93 159.151 2
-7 -13 -34 81.1381 120.056 2
-8 -13 -34 111.688 130.289 2
-9 -13 -34 145.95 158.124 2
-10 -13 -34 17.3126 90.1005 2
-11 -13 -34 77.2458 103.769 2
-12 -13 -34 38.4349 114.55 2
-13 -13 -34 43.4623 68.1615 2
-14 -12 -34 113.775 122.221 2
-14 -11 -34 118.288 105.078 2
34 14 -10 66.9947 102.374 3
-14 -10 -34 48.3119 102.57 2
34 14 -9 107.238 138.444 3
-14 -9 -34 11.3872 89.3073 2
34 14 -8 14.6682 156.316 3
-14 -8 -34 86.2186 103.957 2
34 14 -7 2.92341 57.1655 3
-14 -7 -34 24.5417 90.2683 2
34 14 -6 23.0404 135.827 3
34 14 -5 10.364 105.703 3
34 14 -4 5.80248 123.034 3
3 -14 -34 10.836 105.316 2
34 14 -3 79.9069 142.504 3
2 -14 -34 -10.0715 82.0014 2
1 -14 -34 16.2131 116.222 2
-14 -1 -34 39.7595 81.0227 2
0 -14 -34 156.677 207.157 2
-14 0 -34 514.992 183.201 2
-1 -14 -34 19.9415 130.607 2
-14 1 -34 52.4811 70.4352 2
-2 -14 -34 56.305 144.481 2
-14 2 -34 86.8539 49.2624 2
-3 -14 -34 89.3947 190.79 2
-14 3 -34 433.227 155.188 2
-4 -14 -34 72.5044 146.796 2
-14 4 -34 238.081 148.502 2
-5 -14 -34 64.6514 128.382 2
-14 5 -34 61.2735 57.4429 2
-6 -14 -34 22.1407 99.7191 2
-7 -14 -34 -1.71888 46.0502 2
-8 -14 -34 37.9913 125.85 2
-9 -14 -34 1.78935 74.9654 2
-10 -14 -34 11.1688 107.682 2
-11 -14 -34 20.1728 71.1915 2
14 34 -12 81.1806 93.6555 3
-12 -14 -34 65.6114 138.464 2
34 15 -10 10.5708 122.301 3
-15 -10 -34 -43.9412 93.3909 2
34 15 -9 21.5681 172.389 3
-15 -9 -34 226.683 177.635 2
34 15 -8 1242.19 222.816 3
-15 -8 -34 628.438 220.941 2
34 15 -7 68.8187 97.7712 3
-15 -7 -34 136.955 131.015 2
34 15 -6 5.33683 88.5449 3
34 15 -5 7.87955 66.7736 3
34 15 -4 26.1511 176.6 3
34 15 -3 148.434 177.624 3
15 34 3 260.803 127.463 3
2 -15 -34 35.7363 137.388 2
34 15 -2 -2.02228 76.8097 3
15 34 2 118.06 116.681 3
15 34 1 239.181 151.634 3
1 -15 -34 -1.56893 44.8967 2
0 -15 -34 -0.39248 88.3664 2
-15 0 -34 -13.2366 64.0057 2
-1 -15 -34 66.5186 137.582 2
-15 1 -34 154.964 139.659 2
-2 -15 -34 21.7647 105.282 2
-15 2 -34 215.17 140.406 2
-3 -15 -34 141.726 194.808 2
-15 3 -34 171.365 86.1537 2
-4 -15 -34 62.174 176.635 2
-15 4 -34 342.474 141.865 2
-5 -15 -34 9.86234 51.1293 2
-15 5 -34 41.3765 59.865 2
-6 -15 -34 -5.82038 90.0165 2
-7 -15 -34 19.2891 117.202 2
-8 -15 -34 134.31 221.18 2
15 34 -9 218.81 159.67 3
-9 -15 -34 44.2027 138.572 2
15 34 -10 62.0242 109.084 3
-10 -15 -34 47.0341 103.206 2
34 16 -9 -0.192 94.0694 3
-16 -9 -34 -29.8144 83.5676 2
34 16 -8 45.1563 151.264 3
-16 -8 -34 -9.71683 37.2273 2
34 16 -7 53.3451 124.565 3
34 16 -6 38.2321 109.185 3
34 16 -5 139.999 191.645 3
34 16 -4 -2.57019 60.4543 3
34 16 -3 21.9412 51.0051 3
34 16 -2 46.7125 164.432 3
16 34 2 289.834 131.549 3
1 -16 -34 -0.71922 69.4191 2
16 34 1 15.4514 35.207 3
0 -16 -34 6.84113 42.3909 2
-16 0 -34 2.69052 53.5186 2
16 34 0 -38.8653 34.9586 3
-1 -16 -34 40.2146 120.248 2
-16 1 -34 134.979 117.878 2
16 34 -1 168.35 109.123 3
-2 -16 -34 22.4649 147.493 2
-16 2 -34 216.945 117.28 2
16 34 -2 72.3529 135.216 3
-3 -16 -34 1.93965 62.8422 2
-16 3 -34 -34.6656 71.476 2
16 34 -3 10.287 88.8393 3
-4 -16 -34 26.5667 91.5084 2
-16 4 -34 127.062 87.3635 2
16 34 -4 158.972 124.316 3
-5 -16 -34 37.4458 123.016 2
-16 5 -34 130.903 78.9231 2
16 34 -5 327.29 148.542 3
-6 -16 -34 7.63817 44.636 2
16 34 -6 75.1031 77.9682 3
-7 -16 -34 -6.92939 65.5536 2
16 34 -7 290.603 170.197 3
-8 -16 -34 -0.15551 50.11 2
16 34 -8 36.4693 84.2324 3
-9 -16 -34 22.6673 72.1602 2
16 34 -9 31.4381 44.1689 3
34 17 -7 102.946 184.496 3
34 17 -6 257.022 234.018 3
34 17 -5 -154.02 82.7125 3
34 17 -4 40.0249 196.346 3
34 17 -3 -26.6538 86.1428 3
17 34 2 27.1554 52.3639 3
17 34 1 157.243 91.1455 3
0 -17 -34 17.7933 88.2494 2
-17 0 -34 158.424 107.192 2
17 34 0 91.1004 88.947 3
-1 -17 -34 89.2345 100.982 2
-17 1 -34 41.3176 81.4762 2
17 34 -1 72.3231 78.3582 3
-2 -17 -34 44.2229 134.72 2
-17 2 -34 95.0341 97.3525 2
17 34 -2 22.196 69.7172 3
-3 -17 -34 32.7759 89.4816 2
-17 3 -34 -16.3764 28.414 2
17 34 -3 36.1372 60.4458 3
-4 -17 -34 54.6524 127.326 2
-17 4 -34 218.32 106.294 2
17 34 -4 323.672 155.231 3
-5 -17 -34 51.3325 115.341 2
-17 5 -34 37.8538 64.0069 2
17 34 -5 42.9696 48.0151 3
-6 -17 -34 93.2054 174.732 2
17 34 -6 773.588 193.015 3
-7 -17 -34 46.2816 137.127 2
17 34 -7 163.43 117.423 3
34 18 -4 27.9805 68.5407 3
34 18 -3 72.9512 118.754 3
18 34 1 136.472 95.0173 3
-18 0 -34 91.0295 65.3243 2
18 34 0 72.2075 91.4312 3
-18 1 -34 55.3542 86.4866 2
18 34 -1 73.5457 77.8821 3
-2 -18 -34 4.47082 42.0296 2
-18 2 -34 28.569 33.6634 2
18 34 -2 -31.0291 65.8302 3
-3 -18 -34 -27.3067 78.3674 2
-18 3 -34 66.9078 63.7281 2
18 34 -3 72.3446 68.6703 3
-4 -18 -34 -4.33054 28.6445 2
-18 4 -34 77.7246 92.6935 2
18 34 -4 -34.7273 98.2654 3
0 0 -35 10.1745 45.497 2
1 0 -35 350.203 159.509 2
0 1 -35 73.0343 73.0019 2
0 -1 -35 321.98 162.904 2
-1 0 -35 174.207 103.487 2
1 1 -35 -54.7057 68.4593 2
1 -1 -35 39.8688 64.3975 2
-1 1 -35 -73.1094 91.1355 2
-1 -1 -35 0.71947 47.4424 2
2 1 -35 -3.4791 54.4642 2
1 -2 -35 -19.5905 61.5624 2
-1 2 -35 55.3722 100.316 2
-2 -1 -35 91.1832 96.745 2
2 0 -35 529.805 198.957 2
0 2 -35 335.206 172.383 2
0 -2 -35 419.19 214.677 2
-2 0 -35 356.569 159.319 2
1 2 -35 41.2168 92.2141 2
2 -1 -35 72.9924 74.5955 2
-2 1 -35 -11.1785 45.4574 2
-1 -2 -35 105.027 126.497 2
2 2 -35 29.5271 137.014 2
2 -2 -35 -38.4498 77.7325 2
-2 2 -35 -24.3634 68.302 2
-2 -2 -35 122.622 138.06 2
3 2 -35 359.583 192.439 2
2 -3 -35 330.716 191.416 2
-2 3 -35 460.285 174.393 2
-3 -2 -35 633.269 224.865 2
3 1 -35 33.3395 110.603 2
-1 3 -35 9.05122 75.7539 2
1 -3 -35 48.1647 92.7977 2
-3 -1 -35 163.147 151.171 2
3 0 -35 -6.87042 60.8547 2
0 3 -35 7.37037 52.5954 2
0 -3 -35 -3.943 66.8007 2
-3 0 -35 -2.31341 69.823 2
3 -1 -35 174.138 111.687 2
1 3 -35 46.331 86.9943 2
-1 -3 -35 -12.0192 93.2687 2
-3 1 -35 46.9683 76.6888 2
2 3 -35 442.842 186.85 2
3 -2 -35 698.857 236.938 2
-3 2 -35 321.491 176.465 2
-2 -3 -35 466.42 218.087 2
3 3 -35 34.1284 102.45 2
3 -3 -35 35.7262 98.0799 2
-3 3 -35 -31.4882 57.6494 2
-3 -3 -35 14.4741 67.3578 2
4 3 -35 42.4289 72.6088 2
3 -4 -35 85.5515 58.9519 2
-3 4 -35 67.5682 128.03 2
-4 -3 -35 165.149 126.503 2
4 2 -35 497.899 188.039 2
2 -4 -35 550.372 226.664 2
-2 4 -35 587.669 205.696 2
-4 -2 -35 845.414 273.558 2
4 1 -35 245.07 165.982 2
-1 4 -35 124.959 98.4168 2
1 -4 -35 328.561 180.886 2
-4 -1 -35 327.396 196.7 2
4 0 -35 134.455 133.79 2
0 4 -35 24.319 80.1913 2
0 -4 -35 224.429 178.322 2
-4 0 -35 9.1379 41.3448 2
4 -1 -35 204.334 126.447 2
1 4 -35 116.621 105.611 2
-1 -4 -35 107.146 162.104 2
-4 1 -35 153.363 142.634 2
2 4 -35 552.021 196.405 2
4 -2 -35 814.057 251.611 2
-4 2 -35 552.933 209.684 2
-2 -4 -35 510.451 199.84 2
3 4 -35 77.9997 69.4515 2
4 -3 -35 134.609 140.5 2
-4 3 -35 258.214 164.908 2
-3 -4 -35 211.008 175.763 2
4 -4 -35 -34.6849 98.6842 2
-4 4 -35 -18.1406 54.9695 2
-4 -4 -35 25.1285 58.9729 2
4 -5 -35 395.898 184.868 2
-4 5 -35 432.373 139.616 2
-5 -4 -35 468.903 206.882 2
3 -5 -35 50.1278 117.128 2
-3 5 -35 123.441 127.773 2
-5 -3 -35 -103.766 123.753 2
-2 5 -35 147.762 138.888 2
2 -5 -35 188.711 180.281 2
-5 -2 -35 178.196 163.25 2
5 1 -35 49.0016 62.0615 2
-1 5 -35 4.31889 72.504 2
1 -5 -35 42.8618 107.953 2
-5 -1 -35 4.12846 89.9387 2
5 0 -35 371.793 185.881 2
0 5 -35 423.403 182.161 2
0 -5 -35 307.841 183.544 2
-5 0 -35 287.054 161.319 2
5 -1 -35 22.1748 89.5742 2
1 5 -35 83.9583 119.814 2
-1 -5 -35 39.8769 49.1591 2
-5 1 -35 118.713 159.623 2
2 5 -35 314.228 144.544 2
5 -2 -35 91.7632 118.659 2
-2 -5 -35 113.663 118.119 2
-5 2 -35 100.636 109.439 2
5 -3 -35 -45.5118 84.7414 2
-5 3 -35 27.4576 100.489 2
-3 -5 -35 25.179 104.331 2
5 -4 -35 616.824 234.754 2
-5 4 -35 377.529 170.057 2
-4 -5 -35 440.992 205.585 2
5 -5 -35 147.384 99.2024 2
-5 5 -35 63.9601 96.4335 2
-5 -5 -35 189.619 151.869 2
5 -6 -35 307.201 161.686 2
-5 6 -35 200.034 119.052 2
-6 -5 -35 285.206 174.289 2
4 -6 -35 102.462 135.685 2
-4 6 -35 17.7157 57.8842 2
-6 -4 -35 195.422 172.207 2
3 -6 -35 173.482 116.48 2
-3 6 -35 140.584 137.093 2
-6 -3 -35 209.61 121.31 2
-2 6 -35 -14.62 53.9872 2
2 -6 -35 94.5255 117.029 2
-6 -2 -35 202.669 131.353 2
-1 6 -35 115.253 88.4075 2
1 -6 -35 231.29 118.083 2
-6 -1 -35 7.2079 87.1939 2
0 6 -35 449.827 165.841 2
0 -6 -35 917.057 217.836 2
-6 0 -35 366.198 193.293 2
1 6 -35 63.756 80.5669 2
-1 -6 -35 121.654 118.728 2
-6 1 -35 178.958 145.553 2
-2 -6 -35 117.648 168.578 2
-6 2 -35 -57.5959 82.5085 2
-6 3 -35 581.355 469.611 2
6 -3 -35 268.876 171.496 2
-3 -6 -35 142.516 147.148 2
6 -4 -35 139.381 136.401 2
-6 4 -35 123.255 80.2594 2
-4 -6 -35 113.653 118.959 2
6 -5 -35 336.411 162.871 2
-6 5 -35 398.66 178.393 2
-5 -6 -35 454.72 208.746 2
6 -6 -35 64.5732 101.015 2
-6 6 -35 295.106 122.914 2
-6 -6 -35 276.074 162.468 2
-7 -6 -35 297.579 185.954 2
5 -7 -35 -46.3422 100.202 2
-7 -5 -35 -18.1128 103.984 2
4 -7 -35 181.262 154.595 2
-4 7 -35 69.5606 58.6253 2
-7 -4 -35 195.628 123.146 2
-3 7 -35 -40.5474 72.9311 2
3 -7 -35 -38.5643 79.4405 2
-7 -3 -35 86.9244 92.9601 2
-2 7 -35 72.8733 96.1605 2
2 -7 -35 154.556 104.719 2
-7 -2 -35 120.58 85.4141 2
-1 7 -35 53.8535 105.741 2
1 -7 -35 187.341 101.027 2
-7 -1 -35 19.8454 44.5574 2
0 7 -35 127.666 107.346 2
0 -7 -35 245.869 89.9223 2
-7 0 -35 69.168 134.425 2
-1 -7 -35 -58.8397 95.9987 2
-7 1 -35 47.3968 93.9919 2
-2 -7 -35 109.405 72.6623 2
-7 2 -35 125.858 69.0423 2
-3 -7 -35 -54.5296 51.4719 2
-7 3 -35 10.9818 114.35 2
-7 4 -35 65.244 96.3093 2
-4 -7 -35 207.154 150.635 2
-7 5 -35 -83.6156 106.479 2
-5 -7 -35 18.5197 94.6312 2
-7 6 -35 379.213 152.062 2
-6 -7 -35 106.78 165.643 2
-7 -7 -35 -19.3323 99.2629 2
-8 -7 -35 71.244 132.262 2
-8 -6 -35 -1.31584 88.7995 2
5 -8 -35 165.581 149.421 2
-8 -5 -35 165.406 153.33 2
4 -8 -35 89.0355 122.816 2
-8 -4 -35 94.2142 49.9298 2
3 -8 -35 116.813 157.771 2
-8 -3 -35 190.121 163.529 2
2 -8 -35 -43.5566 72.4227 2
-8 -2 -35 -3.71077 52.5855 2
1 -8 -35 -93.2023 104.832 2
-8 -1 -35 65.3943 106.319 2
0 -8 -35 -9.56876 58.0873 2
-8 0 -35 88.9535 110.921 2
-1 -8 -35 17.1505 78.3956 2
-8 1 -35 104.71 105.16 2
-2 -8 -35 -72.3775 121.231 2
-8 2 -35 58.2047 90.4888 2
-3 -8 -35 163.24 134.383 2
-8 3 -35 52.268 59.9254 2
-4 -8 -35 41.8504 96.5986 2
-8 4 -35 143.981 100.758 2
-8 5 -35 117.445 94.2904 2
-5 -8 -35 3.64093 56.1257 2
-8 6 -35 141.748 113.19 2
-6 -8 -35 54.9141 99.0365 2
-7 -8 -35 244.839 178.722 2
-8 -8 -35 232.707 205.424 2
-9 -8 -35 210.253 166.356 2
-9 -7 -35 -12.4017 65.2291 2
-9 -6 -35 152.084 110.974 2
5 -9 -35 56.5194 75.3036 2
-9 -5 -35 41.4148 39.5907 2
4 -9 -35 26.5867 127.772 2
-9 -4 -35 11.178 82.032 2
3 -9 -35 132.736 135.534 2
-9 -3 -35 73.6696 94.4519 2
2 -9 -35 83.4937 113.038 2
-9 -2 -35 -30.7667 53.3797 2
1 -9 -35 -5.62131 45.8611 2
-9 -1 -35 33.4495 39.7767 2
0 -9 -35 -24.5589 61.2821 2
-9 0 -35 42.5925 104.172 2
-1 -9 -35 42.6234 112.774 2
-9 1 -35 44.0491 89.327 2
-2 -9 -35 58.9727 106.019 2
-9 2 -35 175.708 159.943 2
-3 -9 -35 59.9857 94.8162 2
-9 3 -35 143.372 92.7445 2
-4 -9 -35 5.42313 47.2715 2
-9 4 -35 -66.6985 88.4501 2
-9 5 -35 4.2856 39.3459 2
-5 -9 -35 27.1207 56.3183 2
-9 6 -35 218.794 115.791 2
-6 -9 -35 398.42 181.685 2
-7 -9 -35 33.0026 64.2123 2
-8 -9 -35 181.296 153.485 2
-9 -9 -35 3.41324 77.7935 2
-10 -9 -35 204.908 132.918 2
-10 -8 -35 97.7355 112.14 2
-10 -7 -35 26.4109 131.593 2
-10 -6 -35 295.429 193.004 2
-10 -5 -35 175.461 102.937 2
4 -10 -35 70.1631 124.068 2
-10 -4 -35 327.724 163.682 2
3 -10 -35 100.091 157.34 2
-10 -3 -35 -9.5371 88.7201 2
2 -10 -35 136.67 153.335 2
-10 -2 -35 93.2555 112.378 2
1 -10 -35 -11.3717 77.8926 2
-10 -1 -35 7.48621 74.9147 2
0 -10 -35 20.6726 47.6348 2
-10 0 -35 207.389 129.823 2
-1 -10 -35 -34.8391 94.7247 2
-10 1 -35 -20.4208 51.662 2
-2 -10 -35 9.2092 81.6914 2
-10 2 -35 107.323 110.773 2
-3 -10 -35 37.1269 104.058 2
-10 3 -35 159.026 102.629 2
-4 -10 -35 101.994 125.867 2
-10 4 -35 150.06 114.896 2
-5 -10 -35 37.7438 52.735 2
-10 5 -35 28.4413 65.717 2
-10 6 -35 283.234 127.021 2
-6 -10 -35 211.96 189.418 2
-7 -10 -35 125.624 145.732 2
-8 -10 -35 43.3166 91.3582 2
-9 -10 -35 151.209 162.939 2
-10 -10 -35 129.768 94.2742 2
-11 -10 -35 132.059 134.272 2
-11 -9 -35 44.799 63.7991 2
-11 -8 -35 96.7969 136.67 2
-11 -7 -35 124.494 98.7934 2
-11 -6 -35 14.4789 88.2699 2
-11 -5 -35 189.425 130.033 2
4 -11 -35 31.7038 95.3285 2
-11 -4 -35 9.42397 85.1801 2
3 -11 -35 38.9408 80.2895 2
-11 -3 -35 64.3419 63.0327 2
2 -11 -35 55.3363 77.935 2
-11 -2 -35 78.7852 116.915 2
1 -11 -35 23.2355 81.5531 2
-11 -1 -35 109.153 52.2511 2
0 -11 -35 48.8374 105.981 2
-11 0 -35 92.3018 89.7186 2
-1 -11 -35 37.2961 104.695 2
-11 1 -35 101.912 76.2118 2
-2 -11 -35 55.6484 99.734 2
-11 2 -35 21.7955 68.1204 2
-3 -11 -35 7.71343 64.1116 2
-11 3 -35 245.82 130.44 2
-4 -11 -35 19.4401 63.2353 2
-11 4 -35 76.1646 111.444 2
-5 -11 -35 -6.43727 61.5801 2
-11 5 -35 68.1547 61.6526 2
-6 -11 -35 26.4297 113.322 2
-7 -11 -35 3.56859 81.0702 2
-8 -11 -35 58.1387 121.541 2
-9 -11 -35 46.3338 94.3703 2
-10 -11 -35 97.8874 107.791 2
-11 -11 -35 94.4726 115.797 2
-12 -11 -35 133.226 116.842 2
-12 -10 -35 -6.48708 76.4087 2
-12 -9 -35 59.6168 95.2875 2
-12 -8 -35 126.724 107.777 2
-12 -7 -35 -0.56112 73.7068 2
-12 -6 -35 -7.40936 48.3822 2
-12 -5 -35 571.705 211.329 2
-12 -4 -35 186.876 154.31 2
3 -12 -35 25.7475 83.414 2
-12 -3 -35 12.4552 73.6638 2
2 -12 -35 277.847 218.503 2
-12 -2 -35 723.34 209.902 2
1 -12 -35 38.9613 67.9178 2
-12 -1 -35 109.474 85.635 2
0 -12 -35 74.7334 157.364 2
-12 0 -35 252.404 147.716 2
-1 -12 -35 16.4714 108.013 2
-12 1 -35 240.172 123.677 2
-2 -12 -35 212.971 205.902 2
-12 2 -35 761.911 200.806 2
-3 -12 -35 14.9459 111.087 2
-12 3 -35 -4.22825 57.1162 2
-4 -12 -35 30.2715 117.15 2
-12 4 -35 195.479 120.383 2
-5 -12 -35 216.81 166.374 2
-12 5 -35 337.838 146.085 2
-6 -12 -35 -25.588 72.9007 2
-7 -12 -35 30.9657 100.443 2
-8 -12 -35 93.3718 88.9977 2
-9 -12 -35 -3.17973 70.5934 2
-10 -12 -35 48.6555 78.3979 2
-11 -12 -35 33.4773 101.783 2
-13 -10 -35 47.9878 66.4671 2
-13 -9 -35 74.8969 106.729 2
-13 -8 -35 319.553 172.088 2
-13 -7 -35 50.8995 107.94 2
-13 -6 -35 5.06677 78.0985 2
-13 -5 -35 158.566 115.374 2
-13 -4 -35 133.604 124.925 2
3 -13 -35 43.7445 149.875 2
-13 -3 -35 225.61 103.719 2
2 -13 -35 33.9752 134.298 2
-13 -2 -35 80.7123 85.5401 2
1 -13 -35 51.7268 154.454 2
-13 -1 -35 130.487 127.159 2
0 -13 -35 25.9543 161.227 2
-13 0 -35 240.292 148.936 2
-1 -13 -35 32.958 98.6823 2
-13 1 -35 174.559 100.516 2
-2 -13 -35 87.5582 160.657 2
-13 2 -35 187.402 110.028 2
-3 -13 -35 38.3521 137.653 2
-13 3 -35 141.19 97.8275 2
-4 -13 -35 44.2669 121.472 2
-13 4 -35 81.5088 109.536 2
-5 -13 -35 86.8654 142.776 2
-13 5 -35 7.97883 26.6426 2
-6 -13 -35 41.3367 116.786 2
-7 -13 -35 34.3339 103.31 2
-8 -13 -35 34.264 114.191 2
-9 -13 -35 18.0685 92.698 2
-10 -13 -35 -4.12501 43.2665 2
-14 -8 -35 12.3007 38.505 2
-14 -7 -35 172.116 142.91 2
-14 -6 -35 77.046 110.471 2
-14 -5 -35 250.726 137.97 2
-14 -4 -35 187.909 114.762 2
-14 -3 -35 191.127 116.07 2
2 -14 -35 19.7434 119.547 2
-14 -2 -35 207.732 122.58 2
14 35 2 160.574 111.435 3
14 35 1 24.1012 71.7236 3
1 -14 -35 -0.74107 41.268 2
-14 -1 -35 52.2449 79.3018 2
0 -14 -35 73.5639 197.246 2
-14 0 -35 578.861 179.231 2
-1 -14 -35 47.0743 143.207 2
-14 1 -35 79.9897 69.7946 2
-2 -14 -35 39.3864 150.926 2
-14 2 -35 152.18 107.578 2
-3 -14 -35 51.2423 164.823 2
-14 3 -35 279.496 115.572 2
-4 -14 -35 78.599 120.16 2
-14 4 -35 189.401 109.734 2
-5 -14 -35 21.4851 103.536 2
-14 5 -35 156.126 87.3914 2
-6 -14 -35 31.3544 121.629 2
-7 -14 -35 81.3885 170.348 2
-8 -14 -35 81.3055 148.706 2
-15 -7 -35 51.9413 116.611 2
-15 -6 -35 255.311 155.083 2
-15 -5 -35 147.76 104.306 2
-15 -4 -35 134.152 98.7121 2
-15 -3 -35 174.946 114.91 2
-15 -2 -35 55.2905 102.281 2
15 35 2 -1.80885 42.2068 3
1 -15 -35 48.6243 142.768 2
-15 -1 -35 143.897 103.724 2
15 35 1 26.0177 92.6702 3
0 -15 -35 17.7571 106.087 2
-15 0 -35 96.2382 64.1913 2
-1 -15 -35 25.5214 145.238 2
-15 1 -35 217.588 106.473 2
15 35 -1 277.688 141.6 3
-2 -15 -35 22.6204 114.085 2
-15 2 -35 165.231 82.0621 2
15 35 -2 55.4896 79.8981 3
15 35 -3 59.5625 65.5964 3
-3 -15 -35 31.85 122.528 2
-15 3 -35 -2.81045 33.2392 2
15 35 -4 126.201 126.87 3
-4 -15 -35 4.42725 56.7159 2
-15 4 -35 75.4488 71.688 2
15 35 -5 126.159 101.441 3
-5 -15 -35 3.53013 30.9694 2
15 35 -6 319.064 129.812 3
-6 -15 -35 74.6786 157.014 2
-7 -15 -35 42.2065 125.431 2
15 35 -7 367.751 165.076 3
-16 -4 -35 200.964 110.117 2
-16 -3 -35 102.899 88.689 2
-16 -2 -35 160.838 102.962 2
-16 -1 -35 65.3098 80.967 2
16 35 1 178.867 72.3709 3
0 -16 -35 -2.46838 33.606 2
-16 0 -35 2.57995 51.7086 2
16 35 0 20.3183 48.651 3
-1 -16 -35 38.4459 89.0812 2
-16 1 -35 -52.532 79.5092 2
16 35 -1 12.5216 53.5005 3
-2 -16 -35 94.8816 139.418 2
-16 2 -35 145.818 111.846 2
16 35 -2 89.4049 74.2081 3
-3 -16 -35 37.1893 123.621 2
-16 3 -35 102.835 86.9269 2
16 35 -3 115.274 113.554 3
-4 -16 -35 12.4189 85.5002 2
-16 4 -35 88.911 66.2276 2
16 35 -4 -14.357 69.1547 3
0 0 -36 114.567 153.939 2
1 0 -36 261.288 216.531 2
0 1 -36 119.16 134.818 2
0 -1 -36 6.52754 50.9326 2
-1 0 -36 46.8757 175.07 2
1 1 -36 75.316 115.569 2
1 -1 -36 90.989 143.226 2
-1 1 -36 52.0879 74.2694 2
-1 -1 -36 90.4372 105.627 2
2 1 -36 95.7954 106.23 2
1 -2 -36 71.9077 143.646 2
-1 2 -36 -60.6321 89.9226 2
-2 -1 -36 74.8717 109.343 2
2 0 -36 144.478 202.504 2
0 2 -36 -69.8842 116.717 2
0 -2 -36 -84.7333 58.7741 2
-2 0 -36 107.865 107.473 2
1 2 -36 95.3898 91.5166 2
2 -1 -36 46.6975 38.8994 2
-2 1 -36 83.7789 115.896 2
-1 -2 -36 114.996 115.717 2
2 2 -36 21.029 38.8057 2
2 -2 -36 4.64588 97.954 2
-2 2 -36 -57.6861 96.4093 2
-2 -2 -36 69.6446 73.9026 2
3 2 -36 195.261 172.791 2
2 -3 -36 136.076 129.185 2
-2 3 -36 146.998 133.81 2
-3 -2 -36 47.3455 101.832 2
3 1 -36 137.193 112.999 2
-1 3 -36 177.885 133.909 2
1 -3 -36 151.515 138.957 2
-3 -1 -36 137.648 128.082 2
3 0 -36 -52.9418 72.408 2
0 3 -36 45.6954 87.231 2
0 -3 -36 168.936 129.422 2
-3 0 -36 57.5674 122.38 2
3 -1 -36 124.256 103.938 2
1 3 -36 85.128 79.3635 2
-1 -3 -36 150.327 147.127 2
-3 1 -36 156.245 140.124 2
2 3 -36 92.9678 86.3546 2
3 -2 -36 226.977 172.019 2
-3 2 -36 94.9479 105.931 2
-2 -3 -36 130.874 126.788 2
3 -3 -36 454.328 198.452 2
-3 3 -36 345.215 157.535 2
-3 -3 -36 273.617 155.329 2
3 -4 -36 414.103 138.873 2
-3 4 -36 133.907 95.7477 2
-4 -3 -36 244.705 150.764 2
2 -4 -36 -20.584 62.5518 2
-2 4 -36 34.4478 49.7437 2
-4 -2 -36 50.2798 70.0179 2
-1 4 -36 280.544 132.116 2
1 -4 -36 313.164 174.033 2
-4 -1 -36 304.366 186.207 2
4 0 -36 93.1993 79.8722 2
0 4 -36 -30.2722 76.4802 2
0 -4 -36 109.647 127.88 2
-4 0 -36 -69.2141 114.149 2
4 -1 -36 108.843 99.1426 2
1 4 -36 196.473 113.754 2
-1 -4 -36 198.601 162.777 2
-4 1 -36 184.583 143.974 2
4 -2 -36 4.60539 66.3131 2
-4 2 -36 60.7011 94.8779 2
-2 -4 -36 174.743 181.455 2
4 -3 -36 156.946 143.071 2
-4 3 -36 58.4071 35.8927 2
-3 -4 -36 323.406 177.886 2
4 -4 -36 -60.0542 71.2484 2
-4 4 -36 34.429 68.0207 2
-4 -4 -36 23.4192 87.7706 2
4 -5 -36 459.985 214.678 2
-4 5 -36 250.874 130.708 2
-5 -4 -36 273.429 140.634 2
3 -5 -36 262.423 137.626 2
-3 5 -36 117.261 79.9703 2
-5 -3 -36 101.198 86.0835 2
-2 5 -36 59.9551 75.8856 2
2 -5 -36 123.871 102.984 2
-5 -2 -36 110.276 139.703 2
-1 5 -36 248.993 109.936 2
1 -5 -36 286.775 119.583 2
-5 -1 -36 213.994 162.909 2
0 5 -36 217.559 119.619 2
0 -5 -36 191.87 70.7253 2
-5 0 -36 -16.8928 38.6026 2
-1 -5 -36 306.623 190.625 2
-5 1 -36 243.607 164.233 2
-2 -5 -36 420.498 197.047 2
-5 2 -36 206.609 132.43 2
-5 3 -36 153.425 97.087 2
-3 -5 -36 374.104 179.199 2
-5 4 -36 198.567 137.068 2
-4 -5 -36 239.727 144.694 2
-5 5 -36 -56.5982 69.3804 2
-5 -5 -36 -42.1399 45.5241 2
-5 6 -36 284.712 128.184 2
-6 -5 -36 456.991 161.551 2
4 -6 -36 -4.59937 53.7026 2
-4 6 -36 112.168 89.2414 2
-6 -4 -36 84.779 83.7268 2
3 -6 -36 375.146 206.215 2
-3 6 -36 342.935 135.372 2
-6 -3 -36 321.64 148.439 2
-2 6 -36 35.4021 87.9869 2
2 -6 -36 43.1736 46.2222 2
-6 -2 -36 -4.69516 75.5434 2
-1 6 -36 54.3512 58.1115 2
1 -6 -36 216.287 146.064 2
-6 -1 -36 181.76 144.251 2
0 -6 -36 90.669 112.485 2
-6 0 -36 -52.7455 60.6248 2
-1 -6 -36 73.4915 90.3093 2
-6 1 -36 130.521 144.294 2
-2 -6 -36 -23.3548 91.0966 2
-6 2 -36 131.347 131.87 2
-6 3 -36 249.5 148.152 2
-3 -6 -36 172.035 145.193 2
-6 4 -36 7.70787 32.2154 2
-4 -6 -36 99.3679 82.2686 2
-6 5 -36 358.161 125.192 2
-5 -6 -36 272.798 159.594 2
-6 6 -36 39.983 65.0908 2
-6 -6 -36 132.609 134.938 2
-7 -6 -36 81.6279 132.175 2
-7 -5 -36 113.317 98.3108 2
4 -7 -36 29.7832 98.1044 2
-7 -4 -36 269.147 139.968 2
3 -7 -36 30.0051 83.8627 2
-7 -3 -36 41.216 75.8665 2
2 -7 -36 45.8533 113.039 2
-7 -2 -36 32.0663 66.7403 2
1 -7 -36 42.8451 46.1998 2
-7 -1 -36 106.099 114.365 2
0 -7 -36 -25.0913 113.91 2
-7 0 -36 62.9372 61.023 2
-1 -7 -36 -32.565 117.521 2
-7 1 -36 58.1751 90.519 2
-2 -7 -36 -12.2756 77.6425 2
-7 2 -36 54.662 38.5618 2
-3 -7 -36 79.0057 106.876 2
-7 3 -36 0.51563 86.4769 2
-7 4 -36 205.481 108.346 2
-4 -7 -36 79.7557 125.306 2
-7 5 -36 14.2622 56.8465 2
-5 -7 -36 63.9049 153.039 2
-7 6 -36 237.019 116.982 2
-6 -7 -36 135.366 151.712 2
-7 -7 -36 258.405 193.339 2
-8 -7 -36 336.194 185.029 2
-8 -6 -36 85.2938 76.6905 2
-8 -5 -36 219.427 140.98 2
4 -8 -36 31.6973 84.9045 2
-8 -4 -36 8.82366 104.021 2
3 -8 -36 98.6158 113.798 2
-8 -3 -36 108.255 101.194 2
2 -8 -36 36.5908 70.0747 2
-8 -2 -36 -2.51615 97.0196 2
1 -8 -36 35.7871 117.504 2
-8 -1 -36 20.9574 68.0742 2
0 -8 -36 206.434 165.819 2
-8 0 -36 38.3793 63.4161 2
-1 -8 -36 -20.223 67.3417 2
-8 1 -36 128.072 103.338 2
-2 -8 -36 -48.1448 45.8215 2
-8 2 -36 31.8855 62.6588 2
-3 -8 -36 172.866 163.332 2
-8 3 -36 166.278 100.344 2
-8 4 -36 -104.343 102.53 2
-4 -8 -36 24.2739 54.2241 2
-8 5 -36 91.2242 90.6394 2
-5 -8 -36 73.5192 116.017 2
-6 -8 -36 59.2695 98.0772 2
-7 -8 -36 289.49 165.583 2
-8 -8 -36 -1.49378 141.446 2
-9 -8 -36 -16.7675 68.1248 2
-9 -7 -36 109.406 124.675 2
-9 -6 -36 202.638 121.968 2
-9 -5 -36 269.609 151.341 2
4 -9 -36 29.7905 65.8445 2
-9 -4 -36 8.72814 46.5803 2
3 -9 -36 -10.9825 84.0687 2
-9 -3 -36 141.446 95.8965 2
2 -9 -36 95.1826 131.174 2
-9 -2 -36 146.636 91.755 2
1 -9 -36 13.1446 92.4462 2
-9 -1 -36 149.077 119.966 2
0 -9 -36 -4.58328 64.3993 2
-9 0 -36 -26.2914 44.8069 2
-1 -9 -36 69.6615 105.751 2
-9 1 -36 81.5719 99.0526 2
-2 -9 -36 108.581 124.572 2
-9 2 -36 13.1046 38.9317 2
-3 -9 -36 75.8232 119.623 2
-9 3 -36 94.2483 80.3047 2
-4 -9 -36 24.6291 93.1797 2
-9 4 -36 10.5401 74.3979 2
-9 5 -36 73.0899 79.2597 2
-5 -9 -36 80.1772 124.408 2
-6 -9 -36 85.2956 110.514 2
-7 -9 -36 53.8627 102.235 2
-8 -9 -36 79.9375 97.8102 2
-9 -9 -36 60.8424 65.6509 2
-10 -9 -36 137.547 128.451 2
-10 -8 -36 43.821 128.729 2
-10 -7 -36 249.983 150.508 2
-10 -6 -36 -24.5345 80.1031 2
-10 -5 -36 98.5529 96.0318 2
-10 -4 -36 7.49245 36.885 2
3 -10 -36 -35.2085 64.1246 2
-10 -3 -36 -81.2306 102.847 2
2 -10 -36 -12.4739 56.5212 2
-10 -2 -36 163.209 110.112 2
1 -10 -36 -31.4538 77.2605 2
-10 -1 -36 89.9239 54.1032 2
0 -10 -36 44.3002 93.3815 2
-10 0 -36 -15.5873 67.7429 2
-1 -10 -36 50.3043 109.87 2
-10 1 -36 41.9468 48.3963 2
-2 -10 -36 -1.59015 102.563 2
-10 2 -36 22.8773 69.6351 2
-3 -10 -36 103.524 96.2089 2
-10 3 -36 17.6031 37.4474 2
-4 -10 -36 65.957 81.9429 2
-10 4 -36 -0.14353 40.3723 2
-10 5 -36 11.1104 40.7818 2
-5 -10 -36 83.8551 138.411 2
-6 -10 -36 33.9142 103.589 2
-7 -10 -36 85.0784 140.23 2
-8 -10 -36 15.0073 82.3599 2
-9 -10 -36 301.199 170.277 2
-10 -10 -36 167.107 125.281 2
-11 -9 -36 67.0373 86.4806 2
-11 -8 -36 67.0127 70.0558 2
-11 -7 -36 48.0211 78.7744 2
-11 -6 -36 40.2363 66.0589 2
-11 -5 -36 309.71 142.288 2
-11 -4 -36 60.0553 66.2365 2
3 -11 -36 26.2295 104.894 2
-11 -3 -36 245.707 131.41 2
2 -11 -36 -19.4609 90.269 2
-11 -2 -36 -3.4549 79.964 2
1 -11 -36 92.5388 57.7458 2
-11 -1 -36 83.5374 81.4554 2
0 -11 -36 -77.0048 130.693 2
-11 0 -36 -36.9362 60.6317 2
-1 -11 -36 143.692 146.664 2
-11 1 -36 122.737 112.092 2
-2 -11 -36 80.2018 121.25 2
-11 2 -36 13.8172 48.0034 2
-3 -11 -36 135.137 149.396 2
-11 3 -36 151.962 105.076 2
-4 -11 -36 77.4264 60.3743 2
-11 4 -36 43.1685 64.3203 2
-5 -11 -36 48.8382 123.806 2
-11 5 -36 272.106 115.25 2
-6 -11 -36 -1.2403 45.4244 2
-7 -11 -36 6.02464 69.6426 2
-8 -11 -36 39.4372 97.6928 2
-9 -11 -36 95.8346 105.932 2
-12 -7 -36 20.97 69.9204 2
-12 -6 -36 140.826 131.864 2
-12 -5 -36 47.6836 67.6304 2
-12 -4 -36 71.3801 98.0858 2
-12 -3 -36 224.901 113.174 2
2 -12 -36 77.8291 119.129 2
-12 -2 -36 -39.3122 91.1732 2
1 -12 -36 10.9973 75.5116 2
-12 -1 -36 65.2685 92.213 2
0 -12 -36 -19.0492 105.564 2
-12 0 -36 256.248 129.708 2
-1 -12 -36 97.368 146.573 2
-12 1 -36 49.091 73.1299 2
-2 -12 -36 40.4983 87.7832 2
-12 2 -36 24.6898 63.1301 2
-3 -12 -36 159.63 137.119 2
-12 3 -36 113.465 105.337 2
-4 -12 -36 27.5716 109.692 2
-12 4 -36 140.416 95.7572 2
-5 -12 -36 -21.3252 66.2162 2
-12 5 -36 102.094 87.5872 2
-6 -12 -36 85.3308 114.51 2
-7 -12 -36 -3.415 49.0962 2
-13 -5 -36 106.871 115.521 2
-13 -4 -36 140.93 105.12 2
-13 -3 -36 460.379 156.971 2
-13 -2 -36 78.8732 95.2452 2
13 36 2 41.207 33.2566 3
13 36 1 214.351 138.133 3
1 -13 -36 22.3405 130.23 2
-13 -1 -36 418.856 150.423 2
0 -13 -36 17.1817 91.6901 2
-13 0 -36 172.244 113.555 2
-1 -13 -36 6.32915 108.589 2
-13 1 -36 335.14 143.715 2
-2 -13 -36 7.63151 83.2406 2
-13 2 -36 124.637 83.6869 2
-3 -13 -36 108.645 195.202 2
-13 3 -36 314.441 128.22 2
-4 -13 -36 49.354 141.817 2
-13 4 -36 135.44 92.8972 2
-5 -13 -36 28.6434 88.1431 2
-14 -2 -36 264.376 120.723 2
14 36 2 194.551 92.3926 3
-14 -1 -36 182.109 99.0982 2
14 36 1 137.618 86.3183 3
0 -14 -36 34.4669 119.092 2
-14 0 -36 -15.5536 47.4628 2
14 36 0 96.2701 116.602 3
-1 -14 -36 74.4973 171.168 2
-14 1 -36 183.242 103.19 2
14 36 -1 198.147 117.409 3
-2 -14 -36 43.7391 132.42 2
-14 2 -36 312.268 156.035 2
14 36 -2 197.585 108.266 3
0 0 -37 -40.6353 76.7144 2
1 0 -37 19.0635 37.5601 2
0 1 -37 120.66 101.633 2
0 -1 -37 163.788 112.114 2
-1 0 -37 24.1079 54.3042 2
1 1 -37 -50.4515 94.3786 2
1 -1 -37 -14.2693 61.1102 2
-1 1 -37 -74.0709 54.1701 2
-1 -1 -37 -34.5728 53.5991 2
2 1 -37 -43.8516 95.6895 2
1 -2 -37 40.3197 82.3744 2
-1 2 -37 -27.2975 33.6273 2
-2 -1 -37 73.9592 91.5827 2
2 0 -37 -4.52953 70.3961 2
0 2 -37 96.0725 93.7782 2
0 -2 -37 55.2296 55.3164 2
-2 0 -37 28.1208 34.6608 2
1 2 -37 42.9986 66.9084 2
2 -1 -37 -101.405 118.57 2
-2 1 -37 76.7143 101.927 2
-1 -2 -37 50.6223 95.9548 2
2 -2 -37 292.487 145.92 2
-2 2 -37 346.148 133.701 2
-2 -2 -37 298.15 148.736 2
2 -3 -37 303.864 166.952 2
-2 3 -37 274.055 123.995 2
-3 -2 -37 179.577 129.763 2
-1 3 -37 -94.099 73.3234 2
1 -3 -37 54.4898 67.6761 2
-3 -1 -37 49.0915 96.2704 2
0 3 -37 58.9605 67.5504 2
0 -3 -37 -53.3583 103.435 2
-3 0 -37 49.642 84.6462 2
3 -1 -37 5.57071 46.1441 2
-1 -3 -37 -42.0769 90.8888 2
-3 1 -37 -10.806 57.1782 2
3 -2 -37 128.06 55.1378 2
-3 2 -37 206.867 116.145 2
-2 -3 -37 278.605 146.694 2
3 -3 -37 52.0843 71.8153 2
-3 3 -37 124.9 119.304 2
-3 -3 -37 65.4614 70.2774 2
3 -4 -37 118.377 131.302 2
-3 4 -37 2.75953 49.6859 2
-4 -3 -37 56.4866 74.6187 2
2 -4 -37 93.3539 129.725 2
-2 4 -37 29.4692 62.8102 2
-4 -2 -37 -45.1353 74.0639 2
-1 4 -37 162.799 118.27 2
1 -4 -37 176.558 116.544 2
-4 -1 -37 240.07 132.424 2
0 -4 -37 277.592 181.608 2
-4 0 -37 235.347 132.372 2
-1 -4 -37 374.09 179.864 2
-4 1 -37 170.349 118.27 2
-4 2 -37 -23.7678 60.2217 2
-2 -4 -37 210.21 168.804 2
-4 3 -37 57.3985 95.3807 2
-3 -4 -37 219.255 134.552 2
-4 4 -37 216.392 140.779 2
-4 -4 -37 162.438 130.517 2
-4 5 -37 446.972 141.417 2
-5 -4 -37 623.293 206.568 2
3 -5 -37 -23.344 67.6171 2
-3 5 -37 21.2179 88.7432 2
-5 -3 -37 108.502 93.8071 2
-2 5 -37 -40.1888 59.6375 2
2 -5 -37 216.542 117.366 2
-5 -2 -37 167.397 113.211 2
1 -5 -37 -46.7434 83.4941 2
-5 -1 -37 -0.35957 52.4552 2
0 -5 -37 240.837 136.306 2
-5 0 -37 241.124 133.842 2
-1 -5 -37 62.0133 74.6516 2
-5 1 -37 30.983 79.0302 2
-2 -5 -37 156.424 123.093 2
-5 2 -37 141.67 83.8085 2
-5 3 -37 115.152 108.788 2
-3 -5 -37 -56.0743 55.3034 2
-5 4 -37 403.154 153.059 2
-4 -5 -37 438.304 161.077 2
-5 5 -37 149.393 115.809 2
-5 -5 -37 371.608 166.052 2
-6 -5 -37 89.6869 104.696 2
-6 -4 -37 -41.2006 58.6292 2
3 -6 -37 243.435 152.884 2
-6 -3 -37 418.6 171.842 2
2 -6 -37 80.3598 111.225 2
-6 -2 -37 91.6705 111.634 2
1 -6 -37 32.8085 98.637 2
-6 -1 -37 77.5217 77.8172 2
0 -6 -37 -10.7173 86.6543 2
-6 0 -37 -24.3138 44.874 2
-1 -6 -37 57.9326 80.1322 2
-6 1 -37 -1.65834 50.9677 2
-2 -6 -37 83.7061 82.2418 2
-6 2 -37 65.4179 101.031 2
-6 3 -37 330.247 142.852 2
-3 -6 -37 163.015 155.589 2
-6 4 -37 48.155 107.908 2
-4 -6 -37 1.30517 73.6064 2
-6 5 -37 76.5438 66.4931 2
-5 -6 -37 31.789 56.6895 2
-6 -6 -37 -8.55737 40.3743 2
-7 -6 -37 255.821 149.025 2
-7 -5 -37 147.894 110.123 2
-7 -4 -37 175.991 99.4147 2
3 -7 -37 52.2843 93.647 2
-7 -3 -37 75.9785 79.5898 2
2 -7 -37 64.6361 117.162 2
-7 -2 -37 146.267 103.161 2
1 -7 -37 -17.865 115.238 2
-7 -1 -37 -21.6345 72.645 2
0 -7 -37 13.4193 64.527 2
-7 0 -37 8.30939 36.3056 2
-1 -7 -37 44.2286 104.984 2
-7 1 -37 14.7926 49.052 2
-2 -7 -37 133.926 142.133 2
-7 2 -37 235.46 121.775 2
-3 -7 -37 58.9284 148.824 2
-7 3 -37 109.515 85.0526 2
-7 4 -37 116.088 90.0873 2
-4 -7 -37 95.736 137.496 2
-7 5 -37 38.5035 47.0359 2
-5 -7 -37 116.237 115.821 2
-6 -7 -37 230.445 186.132 2
-7 -7 -37 8.3384 87.6026 2
-8 -7 -37 183.353 163.795 2
-8 -6 -37 204.822 150.742 2
-8 -5 -37 203.33 117.778 2
-8 -4 -37 129.994 98.785 2
-8 -3 -37 19.3074 69.2017 2
2 -8 -37 -8.05242 76.4308 2
-8 -2 -37 7.71015 32.2143 2
1 -8 -37 33.9579 77.7289 2
-8 -1 -37 96.66 102.544 2
0 -8 -37 9.36379 69.3883 2
-8 0 -37 49.597 75.0328 2
-1 -8 -37 16.3897 42.8403 2
-8 1 -37 51.8012 52.5131 2
-2 -8 -37 -1.10724 40.8084 2
-8 2 -37 30.7121 27.0415 2
-3 -8 -37 49.1805 77.4443 2
-8 3 -37 -44.7328 83.6531 2
-8 4 -37 -0.39149 35.0186 2
-4 -8 -37 -20.9537 86.2431 2
-8 5 -37 66.095 45.9465 2
-5 -8 -37 91.8891 143.283 2
-6 -8 -37 193.529 147.426 2
-7 -8 -37 277.548 185.559 2
-8 -8 -37 40.6848 89.4184 2
-9 -7 -37 49.4736 90.7828 2
-9 -6 -37 219.258 150.649 2
-9 -5 -37 -2.11808 69.0844 2
-9 -4 -37 86.1994 72.6544 2
-9 -3 -37 30.1578 32.0863 2
2 -9 -37 49.3438 64.5214 2
-9 -2 -37 66.6075 83.8831 2
1 -9 -37 -2.90913 47.1558 2
-9 -1 -37 -34.0421 55.1845 2
0 -9 -37 6.3536 62.5692 2
-9 0 -37 82.9446 106.701 2
-1 -9 -37 26.9027 89.5845 2
-9 1 -37 -16.3615 60.107 2
-2 -9 -37 -7.87089 46.0925 2
-9 2 -37 -47.8438 64.3938 2
-3 -9 -37 68.4951 84.328 2
-9 3 -37 -26.2129 49.5089 2
-4 -9 -37 13.1862 50.4756 2
-9 4 -37 4.2109 61.0766 2
-5 -9 -37 29.7141 80.4366 2
-6 -9 -37 212.724 151.096 2
-7 -9 -37 47.3086 70.3294 2
-10 -5 -37 120.524 100.587 2
-10 -4 -37 122.746 89.8264 2
-10 -3 -37 38.0696 39.105 2
2 -10 -37 7.66441 91.8905 2
-10 -2 -37 100.751 101.497 2
1 -10 -37 -21.8344 60.3887 2
-10 -1 -37 33.2969 65.1894 2
0 -10 -37 60.8821 98.0562 2
-10 0 -37 216.054 96.2659 2
-1 -10 -37 15.9644 66.6592 2
-10 1 -37 13.321 39.6633 2
-2 -10 -37 10.8298 55.3205 2
-10 2 -37 16.455 48.477 2
-3 -10 -37 -3.90065 43.3538 2
-10 3 -37 22.1421 58.5483 2
-4 -10 -37 4.99795 55.9856 2
-10 4 -37 161.01 85.412 2
-5 -10 -37 17.4325 87.4197 2
-11 -3 -37 56.0877 69.4545 2
-11 -2 -37 172.314 107.521 2
1 -11 -37 11.7952 92.7743 2
-11 -1 -37 146.293 89.1821 2
0 -11 -37 61.5755 89.9446 2
-11 0 -37 136.301 82.7236 2
-1 -11 -37 42.9293 87.1988 2
-11 1 -37 -8.70968 40.9109 2
-2 -11 -37 48.9 103.805 2
-11 2 -37 91.9968 151.68 2
-3 -11 -37 71.4496 114.571 2
-11 3 -37 8.89111 25.0965 2
0 0 -38 -37.9453 50.4617 2
0 1 -38 113.385 84.883 2
0 -1 -38 179.42 105.953 2
-1 0 -38 87.1759 87.1878 2
1 -1 -38 -5.48003 65.1046 2
-1 1 -38 -7.43678 28.8545 2
-1 -1 -38 42.0646 81.7942 2
-1 2 -38 86.3152 98.5688 2
1 -2 -38 -5.40354 41.0066 2
-2 -1 -38 147.036 126.578 2
0 -2 -38 -63.4631 90.5448 2
-2 0 -38 -46.247 64.5135 2
-2 1 -38 85.396 74.7591 2
-1 -2 -38 125.039 112.099 2
-2 2 -38 156.777 108.262 2
-2 -2 -38 68.7789 104.382 2
-2 3 -38 131.124 76.9744 2
-3 -2 -38 149.669 102.106 2
1 -3 -38 205.556 144.829 2
-3 -1 -38 115.663 101.288 2
0 -3 -38 121.519 111.501 2
-3 0 -38 122.205 106.607 2
-1 -3 -38 111.747 72.2528 2
-3 1 -38 74.5017 106.892 2
-3 2 -38 151.873 92.2442 2
-2 -3 -38 127.419 103.053 2
-3 3 -38 33.2456 48.5885 2
-3 -3 -38 76.1819 96.0441 2
-3 4 -38 55.6753 73.2717 2
-4 -3 -38 198.071 117.125 2
-4 -2 -38 89.7748 96.0563 2
1 -4 -38 20.4991 35.3344 2
-4 -1 -38 15.6844 55.7481 2
0 -4 -38 11.2444 35.9658 2
-4 0 -38 -38.639 75.1559 2
-1 -4 -38 245.571 119.068 2
-4 1 -38 148.659 117.136 2
-4 2 -38 28.2616 88.8743 2
-2 -4 -38 31.8172 99.7609 2
-4 3 -38 225.117 105.397 2
-3 -4 -38 243.732 133.324 2
-4 4 -38 275.087 122.208 2
-4 -4 -38 581.609 171.883 2
-5 -4 -38 214.006 130.845 2
-5 -3 -38 105.009 85.3688 2
-5 -2 -38 142.718 110.371 2
1 -5 -38 45.048 90.3647 2
-5 -1 -38 71.0231 69.7783 2
0 -5 -38 40.6972 59.0452 2
-5 0 -38 31.424 43.8427 2
-1 -5 -38 -11.2878 50.9963 2
-5 1 -38 27.1235 71.3297 2
-5 2 -38 251.597 146.683 2
-2 -5 -38 241.738 131.092 2
-5 3 -38 31.4773 79.0502 2
-3 -5 -38 38.4449 74.328 2
-5 4 -38 151.229 102.151 2
-4 -5 -38 142.67 112.082 2
-5 -5 -38 -5.98403 39.6314 2
-6 -4 -38 89.6527 102.689 2
-6 -3 -38 30.0409 66.7129 2
-6 -2 -38 351.783 138.97 2
1 -6 -38 -29.5557 80.4586 2
-6 -1 -38 31.6613 46.542 2
0 -6 -38 -47.4166 71.8056 2
-6 0 -38 -5.4905 40.9807 2
-1 -6 -38 96.562 101.758 2
-6 1 -38 124.02 106.558 2
-2 -6 -38 56.3466 119.308 2
-6 2 -38 197.912 112.965 2
-6 3 -38 -9.28894 32.974 2
-3 -6 -38 82.8031 80.8485 2
-6 4 -38 -6.93744 27.3334 2
-4 -6 -38 92.3929 121.613 2
-7 -2 -38 146.657 106.33 2
1 -7 -38 48.5647 73.8277 2
-7 -1 -38 107.251 100.246 2
0 -7 -38 56.6784 93.7456 2
-7 0 -38 84.8896 88.7309 2
-1 -7 -38 73.7964 105.738 2
-7 1 -38 38.8307 70.2395 2
-2 -7 -38 79.1668 126.393 2
-7 2 -38 222.626 144.231 2
loop_
_smtbx_masks_void_nr
_smtbx_masks_void_average_x
_smtbx_masks_void_average_y
_smtbx_masks_void_average_z
_smtbx_masks_void_volume
_smtbx_masks_void_count_electrons
1 -0.759 -0.673 -0.835 22278.4 4108.9
