#------------------------------------------------------------------------------
#$Date: 2019-11-10 00:56:00 +0200 (Sun, 10 Nov 2019) $
#$Revision: 225476 $
#$URL: file:///home/coder/svn-repositories/cod/cif/4/51/53/4515312.cif $
#------------------------------------------------------------------------------
#
# This file is available in the Crystallography Open Database (COD),
# http://www.crystallography.net/
#
# All data on this site have been placed in the public domain by the
# contributors.
#
data_4515312
loop_
_publ_author_name
'Zhang, Jindan'
'Ouyang, Jun'
'Ye, Yingxiang'
'Li, Ziyin'
'Lin, Quanjie'
'Chen, Ting'
'Zhang, Zhangjing'
'Xiang, Shengchang'
_publ_section_title
;
 Mixed-Valence Cobalt(II/III) Metal-Organic Framework for Ammonia Sensing
 with Naked-Eye Color Switching.
;
_journal_issue                   32
_journal_name_full               'ACS applied materials &amp; interfaces'
_journal_page_first              27465
_journal_page_last               27471
_journal_paper_doi               10.1021/acsami.8b07770
_journal_volume                  10
_journal_year                    2018
_chemical_formula_moiety         '0.5(C42 H24 Co2 N26), 6(H O0.5)'
_chemical_formula_sum            'C21 H18 Co N13 O3'
_chemical_formula_weight         559.41
_space_group_crystal_system      hexagonal
_space_group_IT_number           194
_space_group_name_Hall           '-P 6c 2c'
_space_group_name_H-M_alt        'P 63/m m c'
_atom_sites_solution_hydrogens   difmap
_audit_creation_method           SHELXL-2014/7
_cell_angle_alpha                90
_cell_angle_beta                 90
_cell_angle_gamma                120
_cell_formula_units_Z            2
_cell_length_a                   16.302(4)
_cell_length_b                   16.302(4)
_cell_length_c                   7.5069(14)
_cell_measurement_reflns_used    599
_cell_measurement_temperature    150(2)
_cell_measurement_theta_max      72.0360
_cell_measurement_theta_min      5.3920
_cell_volume                     1727.7(7)
_computing_structure_refinement  'SHELXL-2014/7 (Sheldrick, 2014)'
_diffrn_ambient_temperature      150(2)
_diffrn_measured_fraction_theta_full 0.990
_diffrn_measured_fraction_theta_max 0.979
_diffrn_measurement_device_type  'SuperNova, Dual, Cu at zero, Atlas'
_diffrn_radiation_type           CuK\a
_diffrn_radiation_wavelength     1.54184
_diffrn_reflns_av_R_equivalents  0.1585
_diffrn_reflns_av_unetI/netI     0.1059
_diffrn_reflns_Laue_measured_fraction_full 0.990
_diffrn_reflns_Laue_measured_fraction_max 0.979
_diffrn_reflns_number            688
_diffrn_reflns_point_group_measured_fraction_full 0.990
_diffrn_reflns_point_group_measured_fraction_max 0.979
_diffrn_reflns_theta_full        67.684
_diffrn_reflns_theta_max         73.505
_diffrn_reflns_theta_min         5.427
_exptl_absorpt_coefficient_mu    4.221
_exptl_crystal_density_diffrn    1.075
_exptl_crystal_description       flake
_exptl_crystal_F_000             572
_refine_diff_density_max         0.761
_refine_diff_density_min         -0.917
_refine_diff_density_rms         0.107
_refine_ls_extinction_method     none
_refine_ls_goodness_of_fit_ref   0.986
_refine_ls_hydrogen_treatment    constr
_refine_ls_matrix_type           full
_refine_ls_number_parameters     51
_refine_ls_number_reflns         688
_refine_ls_number_restraints     0
_refine_ls_restrained_S_all      0.986
_refine_ls_R_factor_all          0.1078
_refine_ls_R_factor_gt           0.0816
_refine_ls_shift/su_max          0.000
_refine_ls_shift/su_mean         0.000
_refine_ls_structure_factor_coef Fsqd
_refine_ls_weighting_details
'w=1/[\s^2^(Fo^2^)+(0.1739P)^2^] where P=(Fo^2^+2Fc^2^)/3'
_refine_ls_weighting_scheme      calc
_refine_ls_wR_factor_gt          0.2346
_refine_ls_wR_factor_ref         0.2630
_reflns_Friedel_coverage         0.000
_reflns_number_gt                458
_reflns_number_total             688
_reflns_threshold_expression     'I > 2\s(I)'
_cod_data_source_file            am8b07770_si_002.cif
_cod_data_source_block           FJU-56a-H2O
_cod_original_cell_volume        1727.7(9)
_cod_database_code               4515312
_shelx_space_group_comment
;
The symmetry employed for this shelxl refinement is uniquely defined
by the following loop, which should always be used as a source of
symmetry information in preference to the above space-group names.
They are only intended as comments.
;
_olex2_refinement_description
;
1. Fixed Uiso
 At 1.2 times of:
  All C(H) groups, All O(H) groups
2. Others
 Fixed Sof: C4(0.5) H4(0.5) C3(0.5) H3(0.5)
3.a Riding coordinates:
 C4(H4), C3(H3), O1(H1)
;
_shelx_res_file
;
    FJU-56a-H2O.res created by SHELXL-2014/7

TITL FJU-56a-H2O in P63/mmc #194
REM reset to P63/mmc #194
CELL 1.54184 16.301835 16.301835 7.506857 90 90 120
ZERR 2 0.003818 0.003818 0.001412 0 0 0
LATT 1
SYMM -Y+X,+X,0.5+Z
SYMM -Y,+X-Y,+Z
SYMM -X,-Y,0.5+Z
SYMM +Y-X,-X,+Z
SYMM +Y,-X+Y,0.5+Z
SYMM -Y+X,-Y,-Z
SYMM -X,-X+Y,-Z
SYMM +Y,+X,-Z
SYMM -Y,-X,0.5-Z
SYMM +Y-X,+Y,0.5-Z
SYMM +X,+X-Y,0.5-Z
SFAC C H Co N O
UNIT 42 36 2 26 6

L.S. 20
PLAN  5
BOND
MORE -1
BOND $H
CONF
ABIN
fmap 2
acta
OMIT 0 1 3
OMIT 0 3 1
OMIT 0 3 3
OMIT 0 1 4
OMIT -4 16 5
OMIT 0 2 1
REM <olex2.extras>
REM <HklSrc "%.\\FJU-56a-H2O.hkl">
REM </olex2.extras>

WGHT    0.173900
FVAR       1.00445
CO1   3    0.000000    0.000000    0.500000    10.08333    0.02243    0.02243 =
         0.02927    0.00000    0.00000    0.01121
N1    4   -0.061691    0.061691    0.663240    10.50000    0.03271    0.03271 =
         0.03163    0.00061   -0.00061    0.02389
C1    1   -0.132311    0.132311    0.750000    10.25000    0.03476    0.03476 =
         0.03394    0.00000    0.00000    0.02392
C2    1   -0.184415    0.184415    0.750000    10.25000    0.02918    0.02918 =
         0.04207    0.00000    0.00000    0.01811
N2    4   -0.105605    0.105605    0.602970    10.50000    0.04149    0.04149 =
         0.03547    0.00056   -0.00056    0.02658
C5    1   -0.283209    0.283209    0.750000    10.25000    0.02514    0.02514 =
         0.06919    0.00000    0.00000    0.01650
N3    4   -0.333333    0.333333    0.750000    10.08333    0.02015    0.02015 =
         0.10418    0.00000    0.00000    0.01007
C4    1   -0.311793    0.206289    0.644698    10.50000    0.04061    0.04994 =
         0.08813   -0.02329   -0.02734    0.03371
AFIX   3
H4    2   -0.368633    0.183489    0.575548    10.50000   -1.20000
AFIX   0
C3    1   -0.260226    0.157413    0.640090    10.50000    0.05490    0.06325 =
         0.07748   -0.02877   -0.02309    0.04669
AFIX   3
H3    2   -0.278286    0.105803    0.558540    10.50000   -1.20000
AFIX   0
O1    5   -0.145680    0.145680    0.250000    10.25000    0.14809    0.14809 =
         0.04250    0.00000    0.00000    0.12279
AFIX   3
H1    2   -0.130310    0.130310    0.343460    10.50000   -1.20000
AFIX   0
HKLF 4

REM  FJU-56a-H2O in P63/mmc #194
REM R1 =  0.0816 for     458 Fo > 4sig(Fo)  and  0.1078 for all     688 data
REM     51 parameters refined using      0 restraints

END

WGHT      0.1459      0.0000

REM Highest difference peak  0.761,  deepest hole -0.917,  1-sigma level  0.107
Q1    1  -0.1265 -0.0633  0.6638  10.50000  0.05    0.46
Q2    1  -0.1665  0.1665  0.4188  10.50000  0.05    0.40
Q3    1   0.0000  0.0000  0.7500  10.08333  0.05    0.39
Q4    1  -0.1356  0.1356  0.4795  10.50000  0.05    0.34
Q5    1  -0.1061  0.1061  0.3738  10.50000  0.05    0.31
;
_shelx_res_checksum              76716
_shelx_hkl_file
;
  -1   2   0    8665     163     0.00000 0.00000 0.00000 0.00000 0.00000 0.00000    8604   -0.33    0.00  1.0000
   0   2   0    3456      52     0.00000 0.00000 0.00000 0.00000 0.00000 0.00000    3157    2.63   -0.01  1.0000
  -1   3   0    3205      88     0.00000 0.00000 0.00000 0.00000 0.00000 0.00000    3147   -0.51    0.00  1.0000
   0   3   0    1439      57     0.00000 0.00000 0.00000 0.00000 0.00000 0.00000    1350    1.20    0.00  1.0000
  -2   4   0    8246     237     0.00000 0.00000 0.00000 0.00000 0.00000 0.00000    8322    0.41    0.00  1.0000
  -1   4   0      38      39     0.00000 0.00000 0.00000 0.00000 0.00000 0.00000      37   -1.23    0.00  1.0000
   0   4   0     333      89     0.00000 0.00000 0.00000 0.00000 0.00000 0.00000     316    0.49    0.00  1.0000
  -2   5   0    6649     197     0.00000 0.00000 0.00000 0.00000 0.00000 0.00000    6725    0.46    0.00  1.0000
  -1   5   0      52      31     0.00000 0.00000 0.00000 0.00000 0.00000 0.00000      50   -0.35    0.00  1.0000
   0   5   0    1089     124     0.00000 0.00000 0.00000 0.00000 0.00000 0.00000    1053    0.55    0.00  1.0000
  -3   6   0    5168     162     0.00000 0.00000 0.00000 0.00000 0.00000 0.00000    5075   -0.64    0.00  1.0000
  -2   6   0    2046     153     0.00000 0.00000 0.00000 0.00000 0.00000 0.00000    2122    0.83    0.00  1.0000
  -1   6   0     148      16     0.00000 0.00000 0.00000 0.00000 0.00000 0.00000     139   -0.65    0.00  1.0000
   0   6   0     126      38     0.00000 0.00000 0.00000 0.00000 0.00000 0.00000     130    0.22    0.00  1.0000
  -3   7   0    3674     149     0.00000 0.00000 0.00000 0.00000 0.00000 0.00000    3661   -0.10    0.01  1.0000
  -2   7   0      92      14     0.00000 0.00000 0.00000 0.00000 0.00000 0.00000      84   -0.48    0.00  1.0000
  -1   7   0     749      75     0.00000 0.00000 0.00000 0.00000 0.00000 0.00000     719    0.58    0.00  1.0000
   0   7   0    1829     215     0.00000 0.00000 0.00000 0.00000 0.00000 0.00000    1806   -0.27    0.00  1.0000
  -4   8   0    2008     266     0.00000 0.00000 0.00000 0.00000 0.00000 0.00000    2015    0.08   -0.01  1.0000
  -3   8   0     812      79     0.00000 0.00000 0.00000 0.00000 0.00000 0.00000     830    0.32    0.00  1.0000
  -2   8   0      38      30     0.00000 0.00000 0.00000 0.00000 0.00000 0.00000      38    0.00    0.00  1.0000
  -1   8   0    2759     166     0.00000 0.00000 0.00000 0.00000 0.00000 0.00000    2741   -0.18    0.00  1.0000
   0   8   0     357      57     0.00000 0.00000 0.00000 0.00000 0.00000 0.00000     350   -0.21    0.00  1.0000
  -4   9   0    2276     138     0.00000 0.00000 0.00000 0.00000 0.00000 0.00000    2223   -0.55    0.00  1.0000
  -3   9   0    1430     113     0.00000 0.00000 0.00000 0.00000 0.00000 0.00000    1461    0.40    0.00  1.0000
  -2   9   0      99      63     0.00000 0.00000 0.00000 0.00000 0.00000 0.00000      92   -0.43    0.00  1.0000
  -1   9   0     598      97     0.00000 0.00000 0.00000 0.00000 0.00000 0.00000     614    0.32    0.00  1.0000
   0   9   0     679     169     0.00000 0.00000 0.00000 0.00000 0.00000 0.00000     684    0.10    0.00  1.0000
  -5  10   0    3918     305     0.00000 0.00000 0.00000 0.00000 0.00000 0.00000    3934    0.13   -0.01  1.0000
  -4  10   0    2463     218     0.00000 0.00000 0.00000 0.00000 0.00000 0.00000    2525    0.62    0.00  1.0000
  -3  10   0      46      24     0.00000 0.00000 0.00000 0.00000 0.00000 0.00000      41   -0.53    0.00  1.0000
  -2  10   0     934     116     0.00000 0.00000 0.00000 0.00000 0.00000 0.00000     965    0.51    0.00  1.0000
  -1  10   0     933     118     0.00000 0.00000 0.00000 0.00000 0.00000 0.00000     918   -0.25    0.00  1.0000
   0  10   0    1445     156     0.00000 0.00000 0.00000 0.00000 0.00000 0.00000    1448    0.04    0.00  1.0000
  -5  11   0    3851     300     0.00000 0.00000 0.00000 0.00000 0.00000 0.00000    3841   -0.08    0.00  1.0000
  -4  11   0    1412     199     0.00000 0.00000 0.00000 0.00000 0.00000 0.00000    1393   -0.24    0.00  1.0000
  -3  11   0     309      45     0.00000 0.00000 0.00000 0.00000 0.00000 0.00000     316    0.23    0.00  1.0000
  -2  11   0     935      94     0.00000 0.00000 0.00000 0.00000 0.00000 0.00000     938    0.04    0.00  1.0000
  -1  11   0     133      35     0.00000 0.00000 0.00000 0.00000 0.00000 0.00000     129   -0.22    0.00  1.0000
   0  11   0     206      64     0.00000 0.00000 0.00000 0.00000 0.00000 0.00000     211    0.16    0.00  1.0000
  -6  12   0    4865     296     0.00000 0.00000 0.00000 0.00000 0.00000 0.00000    4964    0.70    0.00  1.0000
  -5  12   0    2208     126     0.00000 0.00000 0.00000 0.00000 0.00000 0.00000    2138   -0.74    0.00  1.0000
  -4  12   0     360      66     0.00000 0.00000 0.00000 0.00000 0.00000 0.00000     361    0.02    0.00  1.0000
  -3  12   0     562      79     0.00000 0.00000 0.00000 0.00000 0.00000 0.00000     562   -0.01    0.00  1.0000
  -2  12   0      98      29     0.00000 0.00000 0.00000 0.00000 0.00000 0.00000      88   -0.60    0.00  1.0000
  -1  12   0      70      46     0.00000 0.00000 0.00000 0.00000 0.00000 0.00000      80    0.67    0.00  1.0000
   0  12   0       4      69     0.00000 0.00000 0.00000 0.00000 0.00000 0.00000       4   -0.56    0.01  1.0000
  -6  13   0    1044     101     0.00000 0.00000 0.00000 0.00000 0.00000 0.00000    1043   -0.01    0.00  1.0000
  -5  13   0    1895     156     0.00000 0.00000 0.00000 0.00000 0.00000 0.00000    1940    0.50    0.01  1.0000
  -4  13   0     463      66     0.00000 0.00000 0.00000 0.00000 0.00000 0.00000     484    0.49    0.00  1.0000
  -3  13   0     159      46     0.00000 0.00000 0.00000 0.00000 0.00000 0.00000     156   -0.10    0.00  1.0000
  -2  13   0      20      34     0.00000 0.00000 0.00000 0.00000 0.00000 0.00000      23    0.48    0.00  1.0000
  -1  13   0      95      61     0.00000 0.00000 0.00000 0.00000 0.00000 0.00000      94   -0.25    0.00  1.0000
   0  13   0      15      34     0.00000 0.00000 0.00000 0.00000 0.00000 0.00000      16   -0.21   -0.01  1.0000
  -7  14   0    3918     377     0.00000 0.00000 0.00000 0.00000 0.00000 0.00000    3912   -0.05    0.00  1.0000
  -6  14   0     355      73     0.00000 0.00000 0.00000 0.00000 0.00000 0.00000     365    0.26    0.00  1.0000
  -5  14   0      94      42     0.00000 0.00000 0.00000 0.00000 0.00000 0.00000     106   -0.64    0.00  1.0000
  -4  14   0     178      45     0.00000 0.00000 0.00000 0.00000 0.00000 0.00000     169   -0.37    0.00  1.0000
  -3  14   0     124      44     0.00000 0.00000 0.00000 0.00000 0.00000 0.00000     123   -0.02    0.00  1.0000
  -2  14   0      71      38     0.00000 0.00000 0.00000 0.00000 0.00000 0.00000      66   -0.40    0.00  1.0000
  -1  14   0     416      57     0.00000 0.00000 0.00000 0.00000 0.00000 0.00000     438    0.54    0.00  1.0000
   0  14   0     634     121     0.00000 0.00000 0.00000 0.00000 0.00000 0.00000     625   -0.19    0.00  1.0000
  -7  15   0     165     163     0.00000 0.00000 0.00000 0.00000 0.00000 0.00000     154   -0.48    0.01  1.0000
  -6  15   0     107      65     0.00000 0.00000 0.00000 0.00000 0.00000 0.00000     108    0.07    0.00  1.0000
  -5  15   0      68      33     0.00000 0.00000 0.00000 0.00000 0.00000 0.00000      66    0.19    0.00  1.0000
  -4  15   0      18      45     0.00000 0.00000 0.00000 0.00000 0.00000 0.00000      17    0.46    0.00  1.0000
  -3  15   0     467      94     0.00000 0.00000 0.00000 0.00000 0.00000 0.00000     476    0.19    0.00  1.0000
  -2  15   0    1194     111     0.00000 0.00000 0.00000 0.00000 0.00000 0.00000    1181   -0.18    0.00  1.0000
  -1  15   0     495      59     0.00000 0.00000 0.00000 0.00000 0.00000 0.00000     495    0.00    0.00  1.0000
   0  15   0     869      89     0.00000 0.00000 0.00000 0.00000 0.00000 0.00000     887    0.32    0.00  1.0000
  -8  16   0       3     293     0.00000 0.00000 0.00000 0.00000 0.00000 0.00000       4    0.14    0.00  1.0000
  -7  16   0     152     102     0.00000 0.00000 0.00000 0.00000 0.00000 0.00000     139    0.58   -0.01  1.0000
  -6  16   0      82      64     0.00000 0.00000 0.00000 0.00000 0.00000 0.00000      82    0.00    0.01  1.0000
  -5  16   0     487      88     0.00000 0.00000 0.00000 0.00000 0.00000 0.00000     462   -0.56    0.00  1.0000
  -4  16   0     324     113     0.00000 0.00000 0.00000 0.00000 0.00000 0.00000     327    0.09    0.00  1.0000
  -3  16   0     182      89     0.00000 0.00000 0.00000 0.00000 0.00000 0.00000     175   -0.26    0.00  1.0000
  -2  16   0     387      59     0.00000 0.00000 0.00000 0.00000 0.00000 0.00000     389    0.06    0.00  1.0000
  -1  16   0     443      60     0.00000 0.00000 0.00000 0.00000 0.00000 0.00000     430   -0.31    0.00  1.0000
   0  16   0     421      87     0.00000 0.00000 0.00000 0.00000 0.00000 0.00000     419   -0.06    0.00  1.0000
  -8  17   0     170      60     0.00000 0.00000 0.00000 0.00000 0.00000 0.00000     169   -0.05    0.00  1.0000
  -7  17   0      38      38     0.00000 0.00000 0.00000 0.00000 0.00000 0.00000      39   -0.29    0.01  1.0000
  -6  17   0       0      80     0.00000 0.00000 0.00000 0.00000 0.00000 0.00000       0    0.34    0.00  1.0000
  -5  17   0     196     220     0.00000 0.00000 0.00000 0.00000 0.00000 0.00000     202    0.20    0.00  1.0000
  -4  17   0     295      99     0.00000 0.00000 0.00000 0.00000 0.00000 0.00000     281   -0.42    0.00  1.0000
  -3  17   0     317      72     0.00000 0.00000 0.00000 0.00000 0.00000 0.00000     341    0.68    0.00  1.0000
  -2  17   0     136      69     0.00000 0.00000 0.00000 0.00000 0.00000 0.00000     136   -0.03    0.00  1.0000
  -1  17   0     499     107     0.00000 0.00000 0.00000 0.00000 0.00000 0.00000     506    0.16    0.00  1.0000
   0  17   0     348     288     0.00000 0.00000 0.00000 0.00000 0.00000 0.00000     344   -0.10    0.00  1.0000
  -9  18   0     368     293     0.00000 0.00000 0.00000 0.00000 0.00000 0.00000     374    0.16    0.00  1.0000
  -8  18   0      33      27     0.00000 0.00000 0.00000 0.00000 0.00000 0.00000      28   -0.47    0.00  1.0000
  -7  18   0     127      45     0.00000 0.00000 0.00000 0.00000 0.00000 0.00000     129    0.08    0.00  1.0000
  -6  18   0      47      63     0.00000 0.00000 0.00000 0.00000 0.00000 0.00000      46   -0.19   -0.01  1.0000
  -5  18   0     118      43     0.00000 0.00000 0.00000 0.00000 0.00000 0.00000     122    0.25    0.01  1.0000
  -4  18   0     320      46     0.00000 0.00000 0.00000 0.00000 0.00000 0.00000     324    0.13    0.00  1.0000
  -3  18   0     135      24     0.00000 0.00000 0.00000 0.00000 0.00000 0.00000     117   -0.83    0.00  1.0000
  -2  18   0     309     109     0.00000 0.00000 0.00000 0.00000 0.00000 0.00000     325    0.48    0.00  1.0000
  -9  19   0     692     121     0.00000 0.00000 0.00000 0.00000 0.00000 0.00000     709    0.33    0.00  1.0000
  -8  19   0     127      37     0.00000 0.00000 0.00000 0.00000 0.00000 0.00000     126   -0.03    0.00  1.0000
  -7  19   0       8      29     0.00000 0.00000 0.00000 0.00000 0.00000 0.00000      10    0.26    0.00  1.0000
  -6  19   0      82      38     0.00000 0.00000 0.00000 0.00000 0.00000 0.00000      76   -0.34    0.01  1.0000
  -5  19   0      39      22     0.00000 0.00000 0.00000 0.00000 0.00000 0.00000      37   -0.31    0.00  1.0000
  -4  19   0      67      34     0.00000 0.00000 0.00000 0.00000 0.00000 0.00000      73    0.52    0.00  1.0000
 -10  20   0     750     194     0.00000 0.00000 0.00000 0.00000 0.00000 0.00000     730   -0.38    0.00  1.0000
  -9  20   0     271      54     0.00000 0.00000 0.00000 0.00000 0.00000 0.00000     279    0.24    0.00  1.0000
  -8  20   0     281      48     0.00000 0.00000 0.00000 0.00000 0.00000 0.00000     274   -0.19    0.00  1.0000
   0   1   1   12132      48     0.00000 0.00000 0.00000 0.00000 0.00000 0.00000   11366   -3.48    0.01  1.0000
  -1   3   1    1066      55     0.00000 0.00000 0.00000 0.00000 0.00000 0.00000    1039   -0.42    0.00  1.0000
  -1   4   1    2944      79     0.00000 0.00000 0.00000 0.00000 0.00000 0.00000    2914   -0.27    0.00  1.0000
   0   4   1    4646      81     0.00000 0.00000 0.00000 0.00000 0.00000 0.00000    4613   -0.24    0.00  1.0000
  -2   5   1     978      69     0.00000 0.00000 0.00000 0.00000 0.00000 0.00000    1048    1.09    0.00  1.0000
  -1   5   1    1699      57     0.00000 0.00000 0.00000 0.00000 0.00000 0.00000    1643   -0.67    0.00  1.0000
   0   5   1    1221     147     0.00000 0.00000 0.00000 0.00000 0.00000 0.00000    1254    0.46    0.00  1.0000
  -2   6   1     450      19     0.00000 0.00000 0.00000 0.00000 0.00000 0.00000     462    0.29    0.00  1.0000
  -1   6   1     303      44     0.00000 0.00000 0.00000 0.00000 0.00000 0.00000     302   -0.03    0.00  1.0000
   0   6   1     489     103     0.00000 0.00000 0.00000 0.00000 0.00000 0.00000     478    0.24    0.00  1.0000
  -3   7   1      10      11     0.00000 0.00000 0.00000 0.00000 0.00000 0.00000       7    0.53    0.00  1.0000
  -2   7   1      24      22     0.00000 0.00000 0.00000 0.00000 0.00000 0.00000      31   -0.61    0.00  1.0000
  -1   7   1      52      13     0.00000 0.00000 0.00000 0.00000 0.00000 0.00000      48   -0.25    0.00  1.0000
   0   7   1    1657     156     0.00000 0.00000 0.00000 0.00000 0.00000 0.00000    1706    0.59    0.00  1.0000
  -3   8   1     534      61     0.00000 0.00000 0.00000 0.00000 0.00000 0.00000     519   -0.31    0.00  1.0000
  -2   8   1    1401     103     0.00000 0.00000 0.00000 0.00000 0.00000 0.00000    1460    0.76    0.00  1.0000
  -1   8   1       5      14     0.00000 0.00000 0.00000 0.00000 0.00000 0.00000       6   -0.34    0.01  1.0000
   0   8   1     141      35     0.00000 0.00000 0.00000 0.00000 0.00000 0.00000     143   -0.08    0.00  1.0000
  -4   9   1     347      45     0.00000 0.00000 0.00000 0.00000 0.00000 0.00000     323   -0.65    0.00  1.0000
  -3   9   1    1389      94     0.00000 0.00000 0.00000 0.00000 0.00000 0.00000    1383   -0.08    0.00  1.0000
  -2   9   1       6      22     0.00000 0.00000 0.00000 0.00000 0.00000 0.00000       8    0.31    0.00  1.0000
  -1   9   1       2      17     0.00000 0.00000 0.00000 0.00000 0.00000 0.00000       4   -0.60    0.00  1.0000
   0   9   1     488      81     0.00000 0.00000 0.00000 0.00000 0.00000 0.00000     462    0.60    0.00  1.0000
  -4  10   1      44      31     0.00000 0.00000 0.00000 0.00000 0.00000 0.00000      49    0.35    0.00  1.0000
  -3  10   1     190      64     0.00000 0.00000 0.00000 0.00000 0.00000 0.00000     192    0.07    0.00  1.0000
  -2  10   1      22      18     0.00000 0.00000 0.00000 0.00000 0.00000 0.00000      22    0.02    0.00  1.0000
  -1  10   1      56      27     0.00000 0.00000 0.00000 0.00000 0.00000 0.00000      54    0.12    0.00  1.0000
   0  10   1     395      89     0.00000 0.00000 0.00000 0.00000 0.00000 0.00000     386    0.24    0.00  1.0000
  -5  11   1       0      22     0.00000 0.00000 0.00000 0.00000 0.00000 0.00000       0    0.23    0.00  1.0000
  -4  11   1      16      22     0.00000 0.00000 0.00000 0.00000 0.00000 0.00000      18   -0.27    0.00  1.0000
  -3  11   1     380      34     0.00000 0.00000 0.00000 0.00000 0.00000 0.00000     385   -0.10    0.00  1.0000
  -2  11   1      90      24     0.00000 0.00000 0.00000 0.00000 0.00000 0.00000      92   -0.09    0.00  1.0000
  -1  11   1     155      24     0.00000 0.00000 0.00000 0.00000 0.00000 0.00000     150    0.17    0.00  1.0000
   0  11   1       8      45     0.00000 0.00000 0.00000 0.00000 0.00000 0.00000      15   -1.00    0.01  1.0000
  -5  12   1      52      12     0.00000 0.00000 0.00000 0.00000 0.00000 0.00000      47    0.30    0.00  1.0000
  -4  12   1       8      21     0.00000 0.00000 0.00000 0.00000 0.00000 0.00000      10   -0.35    0.00  1.0000
  -3  12   1     242      25     0.00000 0.00000 0.00000 0.00000 0.00000 0.00000     235    0.21    0.00  1.0000
  -2  12   1      83      21     0.00000 0.00000 0.00000 0.00000 0.00000 0.00000      86   -0.12    0.00  1.0000
  -1  12   1      43      29     0.00000 0.00000 0.00000 0.00000 0.00000 0.00000      43    0.04   -0.01  1.0000
   0  12   1       2      30     0.00000 0.00000 0.00000 0.00000 0.00000 0.00000       1    0.57    0.00  1.0000
  -6  13   1     619      46     0.00000 0.00000 0.00000 0.00000 0.00000 0.00000     615   -0.09    0.01  1.0000
  -5  13   1     350      33     0.00000 0.00000 0.00000 0.00000 0.00000 0.00000     338   -0.30    0.00  1.0000
  -4  13   1      54      26     0.00000 0.00000 0.00000 0.00000 0.00000 0.00000      46    0.52    0.00  1.0000
  -3  13   1      52      25     0.00000 0.00000 0.00000 0.00000 0.00000 0.00000      54   -0.16    0.00  1.0000
  -2  13   1      94      30     0.00000 0.00000 0.00000 0.00000 0.00000 0.00000      91    0.15   -0.01  1.0000
  -1  13   1      86      25     0.00000 0.00000 0.00000 0.00000 0.00000 0.00000      81    0.26    0.01  1.0000
   0  13   1       8      21     0.00000 0.00000 0.00000 0.00000 0.00000 0.00000      14   -0.84    0.00  1.0000
  -6  14   1      81      39     0.00000 0.00000 0.00000 0.00000 0.00000 0.00000      79    0.13    0.00  1.0000
  -5  14   1     140      18     0.00000 0.00000 0.00000 0.00000 0.00000 0.00000     150    0.42    0.00  1.0000
  -4  14   1      68      40     0.00000 0.00000 0.00000 0.00000 0.00000 0.00000      62   -0.34    0.01  1.0000
  -3  14   1      16      26     0.00000 0.00000 0.00000 0.00000 0.00000 0.00000      16   -0.02    0.00  1.0000
  -2  14   1       3      39     0.00000 0.00000 0.00000 0.00000 0.00000 0.00000       4   -0.15    0.00  1.0000
  -1  14   1      67      22     0.00000 0.00000 0.00000 0.00000 0.00000 0.00000      67    0.04    0.00  1.0000
   0  14   1      55      30     0.00000 0.00000 0.00000 0.00000 0.00000 0.00000      45    0.65    0.00  1.0000
  -7  15   1     206      41     0.00000 0.00000 0.00000 0.00000 0.00000 0.00000     190   -0.57   -0.01  1.0000
  -6  15   1       8      25     0.00000 0.00000 0.00000 0.00000 0.00000 0.00000       8   -0.05    0.01  1.0000
  -5  15   1       8      19     0.00000 0.00000 0.00000 0.00000 0.00000 0.00000      12   -0.60    0.00  1.0000
  -4  15   1     128      35     0.00000 0.00000 0.00000 0.00000 0.00000 0.00000     134    0.25   -0.01  1.0000
  -3  15   1     202      45     0.00000 0.00000 0.00000 0.00000 0.00000 0.00000     205    0.10    0.00  1.0000
  -2  15   1      45      40     0.00000 0.00000 0.00000 0.00000 0.00000 0.00000      42   -0.20    0.00  1.0000
  -1  15   1       2      46     0.00000 0.00000 0.00000 0.00000 0.00000 0.00000       3   -0.04   -0.01  1.0000
   0  15   1      40      60     0.00000 0.00000 0.00000 0.00000 0.00000 0.00000      48   -0.63    0.01  1.0000
  -7  16   1     280      55     0.00000 0.00000 0.00000 0.00000 0.00000 0.00000     288    0.24    0.00  1.0000
  -6  16   1     446      48     0.00000 0.00000 0.00000 0.00000 0.00000 0.00000     464    0.43    0.00  1.0000
  -5  16   1      58      30     0.00000 0.00000 0.00000 0.00000 0.00000 0.00000      60    0.13    0.00  1.0000
  -4  16   1       0      48     0.00000 0.00000 0.00000 0.00000 0.00000 0.00000       0    0.04    0.00  1.0000
  -3  16   1      31      35     0.00000 0.00000 0.00000 0.00000 0.00000 0.00000      29   -0.19    0.01  1.0000
  -2  16   1     124      27     0.00000 0.00000 0.00000 0.00000 0.00000 0.00000     135    0.48    0.00  1.0000
  -1  16   1      50      37     0.00000 0.00000 0.00000 0.00000 0.00000 0.00000      48    0.13    0.00  1.0000
   0  16   1      15      17     0.00000 0.00000 0.00000 0.00000 0.00000 0.00000      17   -0.23    0.00  1.0000
  -8  17   1      66      27     0.00000 0.00000 0.00000 0.00000 0.00000 0.00000      73    0.41    0.00  1.0000
  -7  17   1       2      28     0.00000 0.00000 0.00000 0.00000 0.00000 0.00000       1   -0.33    0.00  1.0000
  -6  17   1     168      86     0.00000 0.00000 0.00000 0.00000 0.00000 0.00000     160   -0.29    0.00  1.0000
  -5  17   1     119      31     0.00000 0.00000 0.00000 0.00000 0.00000 0.00000     130    0.52    0.01  1.0000
  -4  17   1      17      27     0.00000 0.00000 0.00000 0.00000 0.00000 0.00000      14   -0.43    0.00  1.0000
  -3  17   1       3      17     0.00000 0.00000 0.00000 0.00000 0.00000 0.00000       4    0.00   -0.01  1.0000
  -2  17   1       5      27     0.00000 0.00000 0.00000 0.00000 0.00000 0.00000       5   -0.15    0.01  1.0000
  -1  17   1       0      10     0.00000 0.00000 0.00000 0.00000 0.00000 0.00000       0    0.38    0.00  1.0000
   0  17   1       2      17     0.00000 0.00000 0.00000 0.00000 0.00000 0.00000       3   -0.35    0.00  1.0000
  -8  18   1      45      16     0.00000 0.00000 0.00000 0.00000 0.00000 0.00000      43   -0.16    0.00  1.0000
  -7  18   1      18      40     0.00000 0.00000 0.00000 0.00000 0.00000 0.00000      18    0.00    0.00  1.0000
  -6  18   1       1      14     0.00000 0.00000 0.00000 0.00000 0.00000 0.00000       1   -0.15    0.00  1.0000
  -5  18   1      34      19     0.00000 0.00000 0.00000 0.00000 0.00000 0.00000      29   -0.48    0.00  1.0000
  -4  18   1       8      19     0.00000 0.00000 0.00000 0.00000 0.00000 0.00000      16    1.09    0.00  1.0000
  -3  18   1       7      34     0.00000 0.00000 0.00000 0.00000 0.00000 0.00000      12   -0.79    0.01  1.0000
  -2  18   1      25      21     0.00000 0.00000 0.00000 0.00000 0.00000 0.00000      24    0.08   -0.01  1.0000
  -9  19   1      36      16     0.00000 0.00000 0.00000 0.00000 0.00000 0.00000      38    0.10    0.00  1.0000
  -8  19   1       6      12     0.00000 0.00000 0.00000 0.00000 0.00000 0.00000       6    0.05    0.00  1.0000
  -7  19   1       4      13     0.00000 0.00000 0.00000 0.00000 0.00000 0.00000       6    0.35    0.00  1.0000
  -6  19   1      18      18     0.00000 0.00000 0.00000 0.00000 0.00000 0.00000      19   -0.16    0.01  1.0000
  -5  19   1      54      16     0.00000 0.00000 0.00000 0.00000 0.00000 0.00000      53    0.03    0.00  1.0000
  -4  19   1       6      19     0.00000 0.00000 0.00000 0.00000 0.00000 0.00000      10   -0.62    0.01  1.0000
  -9  20   1      47      18     0.00000 0.00000 0.00000 0.00000 0.00000 0.00000      48    0.07    0.00  1.0000
  -8  20   1       0      17     0.00000 0.00000 0.00000 0.00000 0.00000 0.00000       0   -0.04    0.00  1.0000
   0   0   2   10851     487     0.00000 0.00000 0.00000 0.00000 0.00000 0.00000   11903   -4.86    0.02  1.0000
   0   1   2     460      44     0.00000 0.00000 0.00000 0.00000 0.00000 0.00000     516    1.30    0.00  1.0000
  -1   2   2     172      10     0.00000 0.00000 0.00000 0.00000 0.00000 0.00000     147   -1.08    0.00  1.0000
   0   2   2    5453     152     0.00000 0.00000 0.00000 0.00000 0.00000 0.00000    5665    1.40    0.00  1.0000
  -1   3   2    1267      38     0.00000 0.00000 0.00000 0.00000 0.00000 0.00000    1228   -0.55    0.00  1.0000
   0   3   2    2332     109     0.00000 0.00000 0.00000 0.00000 0.00000 0.00000    2243   -0.93    0.00  1.0000
  -2   4   2     222      23     0.00000 0.00000 0.00000 0.00000 0.00000 0.00000     176    1.68    0.00  1.0000
  -1   4   2    1331      69     0.00000 0.00000 0.00000 0.00000 0.00000 0.00000    1314   -0.23    0.00  1.0000
   0   4   2    2725     245     0.00000 0.00000 0.00000 0.00000 0.00000 0.00000    2817    0.87    0.00  1.0000
  -2   5   2     342      28     0.00000 0.00000 0.00000 0.00000 0.00000 0.00000     326   -0.45    0.01  1.0000
  -1   5   2    2056      86     0.00000 0.00000 0.00000 0.00000 0.00000 0.00000    2067    0.11    0.00  1.0000
   0   5   2    3251     212     0.00000 0.00000 0.00000 0.00000 0.00000 0.00000    3199   -0.45    0.00  1.0000
  -3   6   2    1713     164     0.00000 0.00000 0.00000 0.00000 0.00000 0.00000    1719    0.07    0.00  1.0000
  -2   6   2    3827     171     0.00000 0.00000 0.00000 0.00000 0.00000 0.00000    3818   -0.07    0.00  1.0000
  -1   6   2    1587     104     0.00000 0.00000 0.00000 0.00000 0.00000 0.00000    1586   -0.01    0.00  1.0000
   0   6   2     288      77     0.00000 0.00000 0.00000 0.00000 0.00000 0.00000     305    0.52    0.00  1.0000
  -3   7   2    1592     127     0.00000 0.00000 0.00000 0.00000 0.00000 0.00000    1594    0.03    0.00  1.0000
  -2   7   2    2802     182     0.00000 0.00000 0.00000 0.00000 0.00000 0.00000    2842    0.37    0.00  1.0000
  -1   7   2    1575      99     0.00000 0.00000 0.00000 0.00000 0.00000 0.00000    1540   -0.43    0.00  1.0000
   0   7   2      32      23     0.00000 0.00000 0.00000 0.00000 0.00000 0.00000      32   -0.23    0.00  1.0000
  -4   8   2     520     101     0.00000 0.00000 0.00000 0.00000 0.00000 0.00000     545    0.56   -0.01  1.0000
  -3   8   2    1212     108     0.00000 0.00000 0.00000 0.00000 0.00000 0.00000    1154   -0.85    0.00  1.0000
  -2   8   2     680      87     0.00000 0.00000 0.00000 0.00000 0.00000 0.00000     698    0.33    0.00  1.0000
  -1   8   2     181      31     0.00000 0.00000 0.00000 0.00000 0.00000 0.00000     183    0.08    0.01  1.0000
   0   8   2    1048     161     0.00000 0.00000 0.00000 0.00000 0.00000 0.00000    1065    0.25   -0.01  1.0000
  -4   9   2     115      43     0.00000 0.00000 0.00000 0.00000 0.00000 0.00000     121    0.37    0.00  1.0000
  -3   9   2     266      63     0.00000 0.00000 0.00000 0.00000 0.00000 0.00000     273    0.21    0.00  1.0000
  -2   9   2     750      86     0.00000 0.00000 0.00000 0.00000 0.00000 0.00000     748   -0.03    0.00  1.0000
  -1   9   2     738      90     0.00000 0.00000 0.00000 0.00000 0.00000 0.00000     742    0.07    0.00  1.0000
   0   9   2    1831     210     0.00000 0.00000 0.00000 0.00000 0.00000 0.00000    1815   -0.19    0.00  1.0000
  -5  10   2     328     109     0.00000 0.00000 0.00000 0.00000 0.00000 0.00000     358   -0.84    0.00  1.0000
  -4  10   2      79      23     0.00000 0.00000 0.00000 0.00000 0.00000 0.00000      77   -0.12    0.00  1.0000
  -3  10   2     589      86     0.00000 0.00000 0.00000 0.00000 0.00000 0.00000     583   -0.12   -0.01  1.0000
  -2  10   2     605      66     0.00000 0.00000 0.00000 0.00000 0.00000 0.00000     589   -0.33    0.00  1.0000
  -1  10   2    1521      80     0.00000 0.00000 0.00000 0.00000 0.00000 0.00000    1527    0.08    0.00  1.0000
   0  10   2    1058     101     0.00000 0.00000 0.00000 0.00000 0.00000 0.00000    1040   -0.28    0.01  1.0000
  -5  11   2     132      20     0.00000 0.00000 0.00000 0.00000 0.00000 0.00000     137    0.29    0.00  1.0000
  -4  11   2     217      20     0.00000 0.00000 0.00000 0.00000 0.00000 0.00000     219    0.06    0.00  1.0000
  -3  11   2     589      41     0.00000 0.00000 0.00000 0.00000 0.00000 0.00000     599    0.21    0.01  1.0000
  -2  11   2     410      44     0.00000 0.00000 0.00000 0.00000 0.00000 0.00000     411    0.02    0.00  1.0000
  -1  11   2     585      52     0.00000 0.00000 0.00000 0.00000 0.00000 0.00000     599    0.29   -0.01  1.0000
   0  11   2     448      66     0.00000 0.00000 0.00000 0.00000 0.00000 0.00000     454    0.13    0.00  1.0000
  -6  12   2     115      22     0.00000 0.00000 0.00000 0.00000 0.00000 0.00000     115    0.00    0.00  1.0000
  -5  12   2     781      49     0.00000 0.00000 0.00000 0.00000 0.00000 0.00000     788    0.12    0.00  1.0000
  -4  12   2     413      34     0.00000 0.00000 0.00000 0.00000 0.00000 0.00000     416    0.09    0.00  1.0000
  -3  12   2      28      16     0.00000 0.00000 0.00000 0.00000 0.00000 0.00000      28   -0.14    0.00  1.0000
  -2  12   2     243      31     0.00000 0.00000 0.00000 0.00000 0.00000 0.00000     248    0.19    0.00  1.0000
  -1  12   2     584      50     0.00000 0.00000 0.00000 0.00000 0.00000 0.00000     562   -0.46    0.02  1.0000
   0  12   2     515      75     0.00000 0.00000 0.00000 0.00000 0.00000 0.00000     518    0.06   -0.01  1.0000
  -6  13   2     866      54     0.00000 0.00000 0.00000 0.00000 0.00000 0.00000     853   -0.21   -0.01  1.0000
  -5  13   2      89      17     0.00000 0.00000 0.00000 0.00000 0.00000 0.00000      87   -0.15    0.00  1.0000
  -4  13   2     138      24     0.00000 0.00000 0.00000 0.00000 0.00000 0.00000     131   -0.36    0.00  1.0000
  -3  13   2     239      43     0.00000 0.00000 0.00000 0.00000 0.00000 0.00000     241    0.07    0.00  1.0000
  -2  13   2     313      49     0.00000 0.00000 0.00000 0.00000 0.00000 0.00000     309   -0.09   -0.01  1.0000
  -1  13   2     298      40     0.00000 0.00000 0.00000 0.00000 0.00000 0.00000     305    0.20    0.00  1.0000
   0  13   2     540      73     0.00000 0.00000 0.00000 0.00000 0.00000 0.00000     559    0.39    0.00  1.0000
  -7  14   2     122      34     0.00000 0.00000 0.00000 0.00000 0.00000 0.00000     127   -0.23    0.01  1.0000
  -6  14   2     415      50     0.00000 0.00000 0.00000 0.00000 0.00000 0.00000     422    0.17    0.00  1.0000
  -5  14   2     782      61     0.00000 0.00000 0.00000 0.00000 0.00000 0.00000     796    0.25    0.00  1.0000
  -4  14   2     309      44     0.00000 0.00000 0.00000 0.00000 0.00000 0.00000     314    0.13    0.00  1.0000
  -3  14   2     351      41     0.00000 0.00000 0.00000 0.00000 0.00000 0.00000     360    0.24    0.00  1.0000
  -2  14   2     304      49     0.00000 0.00000 0.00000 0.00000 0.00000 0.00000     299   -0.15    0.00  1.0000
  -1  14   2     126      24     0.00000 0.00000 0.00000 0.00000 0.00000 0.00000     119   -0.37    0.00  1.0000
   0  14   2      58      45     0.00000 0.00000 0.00000 0.00000 0.00000 0.00000      59    0.11    0.01  1.0000
  -7  15   2     118      23     0.00000 0.00000 0.00000 0.00000 0.00000 0.00000     126    0.39   -0.01  1.0000
  -6  15   2     143      26     0.00000 0.00000 0.00000 0.00000 0.00000 0.00000     142   -0.08    0.00  1.0000
  -5  15   2     522      80     0.00000 0.00000 0.00000 0.00000 0.00000 0.00000     524    0.05    0.00  1.0000
  -4  15   2     560      91     0.00000 0.00000 0.00000 0.00000 0.00000 0.00000     545   -0.32    0.00  1.0000
  -3  15   2     261      59     0.00000 0.00000 0.00000 0.00000 0.00000 0.00000     257   -0.11    0.00  1.0000
  -2  15   2      87      29     0.00000 0.00000 0.00000 0.00000 0.00000 0.00000      96    0.55    0.00  1.0000
  -1  15   2     138      29     0.00000 0.00000 0.00000 0.00000 0.00000 0.00000     133   -0.24    0.00  1.0000
   0  15   2      40      28     0.00000 0.00000 0.00000 0.00000 0.00000 0.00000      40    0.08    0.00  1.0000
  -8  16   2     131      25     0.00000 0.00000 0.00000 0.00000 0.00000 0.00000     129   -0.13    0.00  1.0000
  -7  16   2     511      52     0.00000 0.00000 0.00000 0.00000 0.00000 0.00000     489   -0.49    0.00  1.0000
  -6  16   2     113      38     0.00000 0.00000 0.00000 0.00000 0.00000 0.00000     107   -0.30    0.01  1.0000
  -5  16   2      57      20     0.00000 0.00000 0.00000 0.00000 0.00000 0.00000      65    0.55    0.00  1.0000
  -4  16   2     265      48     0.00000 0.00000 0.00000 0.00000 0.00000 0.00000     254   -0.35    0.00  1.0000
  -3  16   2     355      41     0.00000 0.00000 0.00000 0.00000 0.00000 0.00000     355   -0.01    0.00  1.0000
  -2  16   2     162      23     0.00000 0.00000 0.00000 0.00000 0.00000 0.00000     160   -0.08    0.01  1.0000
  -1  16   2      41       9     0.00000 0.00000 0.00000 0.00000 0.00000 0.00000      42    0.06    0.00  1.0000
   0  16   2      21      15     0.00000 0.00000 0.00000 0.00000 0.00000 0.00000      21    0.18    0.00  1.0000
  -8  17   2     229      56     0.00000 0.00000 0.00000 0.00000 0.00000 0.00000     233    0.14    0.00  1.0000
  -7  17   2     277      44     0.00000 0.00000 0.00000 0.00000 0.00000 0.00000     291    0.44    0.00  1.0000
  -6  17   2     126      38     0.00000 0.00000 0.00000 0.00000 0.00000 0.00000     122   -0.17   -0.01  1.0000
  -5  17   2      57      23     0.00000 0.00000 0.00000 0.00000 0.00000 0.00000      58    0.02    0.00  1.0000
  -4  17   2     172      24     0.00000 0.00000 0.00000 0.00000 0.00000 0.00000     185    0.51    0.01  1.0000
  -3  17   2     109      20     0.00000 0.00000 0.00000 0.00000 0.00000 0.00000     103   -0.29    0.00  1.0000
  -2  17   2     107      25     0.00000 0.00000 0.00000 0.00000 0.00000 0.00000     109    0.13   -0.01  1.0000
  -1  17   2      21       9     0.00000 0.00000 0.00000 0.00000 0.00000 0.00000      20   -0.21    0.00  1.0000
   0  17   2      19      20     0.00000 0.00000 0.00000 0.00000 0.00000 0.00000      20    0.22    0.00  1.0000
  -9  18   2      51      18     0.00000 0.00000 0.00000 0.00000 0.00000 0.00000      48   -0.24   -0.01  1.0000
  -8  18   2     329      39     0.00000 0.00000 0.00000 0.00000 0.00000 0.00000     332    0.10    0.00  1.0000
  -7  18   2     126      32     0.00000 0.00000 0.00000 0.00000 0.00000 0.00000     124   -0.11    0.00  1.0000
  -6  18   2     109      37     0.00000 0.00000 0.00000 0.00000 0.00000 0.00000     105   -0.21    0.00  1.0000
  -5  18   2     109      20     0.00000 0.00000 0.00000 0.00000 0.00000 0.00000     104   -0.23    0.00  1.0000
  -4  18   2      21      12     0.00000 0.00000 0.00000 0.00000 0.00000 0.00000      19   -0.33   -0.01  1.0000
  -3  18   2      44      15     0.00000 0.00000 0.00000 0.00000 0.00000 0.00000      49    0.41    0.01  1.0000
  -2  18   2      75      24     0.00000 0.00000 0.00000 0.00000 0.00000 0.00000      72   -0.18    0.00  1.0000
  -9  19   2      73      14     0.00000 0.00000 0.00000 0.00000 0.00000 0.00000      73    0.02    0.01  1.0000
  -8  19   2     177      24     0.00000 0.00000 0.00000 0.00000 0.00000 0.00000     179    0.08    0.00  1.0000
  -7  19   2     158      24     0.00000 0.00000 0.00000 0.00000 0.00000 0.00000     163    0.23    0.00  1.0000
  -6  19   2      35       9     0.00000 0.00000 0.00000 0.00000 0.00000 0.00000      38    0.24    0.00  1.0000
  -5  19   2      93      18     0.00000 0.00000 0.00000 0.00000 0.00000 0.00000     101    0.46    0.00  1.0000
   0   2   3     787      57     0.00000 0.00000 0.00000 0.00000 0.00000 0.00000     774   -0.24    0.00  1.0000
  -1   3   3       8       8     0.00000 0.00000 0.00000 0.00000 0.00000 0.00000       5   -0.46   -0.01  1.0000
  -1   4   3    1016      59     0.00000 0.00000 0.00000 0.00000 0.00000 0.00000    1015   -0.02    0.00  1.0000
   0   4   3     331      66     0.00000 0.00000 0.00000 0.00000 0.00000 0.00000     339    0.22    0.00  1.0000
  -2   5   3      41      24     0.00000 0.00000 0.00000 0.00000 0.00000 0.00000      39    0.12    0.00  1.0000
  -1   5   3      19      17     0.00000 0.00000 0.00000 0.00000 0.00000 0.00000      16   -0.35    0.00  1.0000
   0   5   3      43      19     0.00000 0.00000 0.00000 0.00000 0.00000 0.00000      36    0.56   -0.01  1.0000
  -2   6   3      38      18     0.00000 0.00000 0.00000 0.00000 0.00000 0.00000      35    0.25    0.00  1.0000
  -1   6   3     106      30     0.00000 0.00000 0.00000 0.00000 0.00000 0.00000     115   -0.46    0.00  1.0000
   0   6   3      62      24     0.00000 0.00000 0.00000 0.00000 0.00000 0.00000      55    0.47    0.00  1.0000
  -3   7   3       3      21     0.00000 0.00000 0.00000 0.00000 0.00000 0.00000       9   -1.16    0.01  1.0000
  -2   7   3     276      52     0.00000 0.00000 0.00000 0.00000 0.00000 0.00000     302    0.78    0.00  1.0000
  -1   7   3     183      33     0.00000 0.00000 0.00000 0.00000 0.00000 0.00000     191   -0.28    0.00  1.0000
   0   7   3     592     106     0.00000 0.00000 0.00000 0.00000 0.00000 0.00000     614   -0.43   -0.01  1.0000
  -3   8   3       8      23     0.00000 0.00000 0.00000 0.00000 0.00000 0.00000       9    0.07    0.00  1.0000
  -2   8   3      12      22     0.00000 0.00000 0.00000 0.00000 0.00000 0.00000      13    0.09    0.00  1.0000
  -1   8   3      16      25     0.00000 0.00000 0.00000 0.00000 0.00000 0.00000      17   -0.10    0.01  1.0000
   0   8   3     151      48     0.00000 0.00000 0.00000 0.00000 0.00000 0.00000     134    0.71    0.00  1.0000
  -4   9   3      81      31     0.00000 0.00000 0.00000 0.00000 0.00000 0.00000      71    0.55    0.00  1.0000
  -3   9   3     123      39     0.00000 0.00000 0.00000 0.00000 0.00000 0.00000     120   -0.13    0.00  1.0000
  -2   9   3       7      14     0.00000 0.00000 0.00000 0.00000 0.00000 0.00000       5   -0.27    0.01  1.0000
  -1   9   3      24      15     0.00000 0.00000 0.00000 0.00000 0.00000 0.00000      27    0.28   -0.01  1.0000
   0   9   3     262      49     0.00000 0.00000 0.00000 0.00000 0.00000 0.00000     244   -0.57    0.00  1.0000
  -4  10   3     267      22     0.00000 0.00000 0.00000 0.00000 0.00000 0.00000     265   -0.06    0.00  1.0000
  -3  10   3     330      31     0.00000 0.00000 0.00000 0.00000 0.00000 0.00000     318   -0.34    0.01  1.0000
  -2  10   3     211      29     0.00000 0.00000 0.00000 0.00000 0.00000 0.00000     223    0.39    0.00  1.0000
  -1  10   3      13      15     0.00000 0.00000 0.00000 0.00000 0.00000 0.00000      11   -0.26    0.00  1.0000
   0  10   3      75      32     0.00000 0.00000 0.00000 0.00000 0.00000 0.00000      75   -0.02    0.01  1.0000
  -5  11   3       9      11     0.00000 0.00000 0.00000 0.00000 0.00000 0.00000      10   -0.13    0.00  1.0000
  -4  11   3     516      36     0.00000 0.00000 0.00000 0.00000 0.00000 0.00000     528    0.27    0.00  1.0000
  -3  11   3     135      24     0.00000 0.00000 0.00000 0.00000 0.00000 0.00000     135   -0.03    0.00  1.0000
  -2  11   3     125      20     0.00000 0.00000 0.00000 0.00000 0.00000 0.00000     125    0.02    0.00  1.0000
  -1  11   3     175      18     0.00000 0.00000 0.00000 0.00000 0.00000 0.00000     170    0.16    0.01  1.0000
   0  11   3       2      18     0.00000 0.00000 0.00000 0.00000 0.00000 0.00000       2    0.18   -0.04  1.0000
  -5  12   3       1      14     0.00000 0.00000 0.00000 0.00000 0.00000 0.00000       1   -0.23    0.01  1.0000
  -4  12   3     183      20     0.00000 0.00000 0.00000 0.00000 0.00000 0.00000     174    0.32    0.00  1.0000
  -3  12   3     224      32     0.00000 0.00000 0.00000 0.00000 0.00000 0.00000     231   -0.22    0.01  1.0000
  -2  12   3       1      22     0.00000 0.00000 0.00000 0.00000 0.00000 0.00000       1   -0.08    0.00  1.0000
  -1  12   3      25      22     0.00000 0.00000 0.00000 0.00000 0.00000 0.00000      27    0.15    0.01  1.0000
   0  12   3       0      26     0.00000 0.00000 0.00000 0.00000 0.00000 0.00000       0   -0.40    0.01  1.0000
  -6  13   3     315      33     0.00000 0.00000 0.00000 0.00000 0.00000 0.00000     296    0.51    0.00  1.0000
  -5  13   3     118      18     0.00000 0.00000 0.00000 0.00000 0.00000 0.00000     125   -0.33   -0.01  1.0000
  -4  13   3      88      17     0.00000 0.00000 0.00000 0.00000 0.00000 0.00000      87    0.02    0.00  1.0000
  -3  13   3     109      26     0.00000 0.00000 0.00000 0.00000 0.00000 0.00000     103    0.27    0.00  1.0000
  -2  13   3       2      17     0.00000 0.00000 0.00000 0.00000 0.00000 0.00000       4   -0.40   -0.01  1.0000
  -1  13   3     126      26     0.00000 0.00000 0.00000 0.00000 0.00000 0.00000     131    0.23    0.00  1.0000
   0  13   3     169      60     0.00000 0.00000 0.00000 0.00000 0.00000 0.00000     168   -0.06   -0.01  1.0000
  -6  14   3      33      18     0.00000 0.00000 0.00000 0.00000 0.00000 0.00000      32   -0.07    0.00  1.0000
  -5  14   3      23      15     0.00000 0.00000 0.00000 0.00000 0.00000 0.00000      25   -0.22    0.01  1.0000
  -4  14   3      27      15     0.00000 0.00000 0.00000 0.00000 0.00000 0.00000      27    0.03    0.00  1.0000
  -3  14   3       6      10     0.00000 0.00000 0.00000 0.00000 0.00000 0.00000       7   -0.11   -0.01  1.0000
  -2  14   3       8      12     0.00000 0.00000 0.00000 0.00000 0.00000 0.00000      10    0.27    0.01  1.0000
  -1  14   3       0      12     0.00000 0.00000 0.00000 0.00000 0.00000 0.00000       0   -0.14    0.00  1.0000
   0  14   3      32      25     0.00000 0.00000 0.00000 0.00000 0.00000 0.00000      32    0.01    0.00  1.0000
  -7  15   3       5      16     0.00000 0.00000 0.00000 0.00000 0.00000 0.00000       5   -0.02    0.00  1.0000
  -6  15   3     176      25     0.00000 0.00000 0.00000 0.00000 0.00000 0.00000     186    0.39    0.00  1.0000
  -5  15   3     152      25     0.00000 0.00000 0.00000 0.00000 0.00000 0.00000     156    0.18   -0.01  1.0000
  -4  15   3       1      18     0.00000 0.00000 0.00000 0.00000 0.00000 0.00000       1    0.03    0.00  1.0000
  -3  15   3       0      16     0.00000 0.00000 0.00000 0.00000 0.00000 0.00000       0    0.03    0.01  1.0000
  -2  15   3       7      13     0.00000 0.00000 0.00000 0.00000 0.00000 0.00000       9   -0.27   -0.01  1.0000
  -1  15   3      21      12     0.00000 0.00000 0.00000 0.00000 0.00000 0.00000      17    0.39    0.00  1.0000
   0  15   3      42      17     0.00000 0.00000 0.00000 0.00000 0.00000 0.00000      47   -0.40    0.00  1.0000
  -7  16   3     130      18     0.00000 0.00000 0.00000 0.00000 0.00000 0.00000     125   -0.23    0.01  1.0000
  -6  16   3     101      24     0.00000 0.00000 0.00000 0.00000 0.00000 0.00000     100   -0.08   -0.01  1.0000
  -5  16   3      34      18     0.00000 0.00000 0.00000 0.00000 0.00000 0.00000      30   -0.40    0.01  1.0000
  -4  16   3       0      10     0.00000 0.00000 0.00000 0.00000 0.00000 0.00000       0    0.44    0.00  1.0000
  -3  16   3       0      12     0.00000 0.00000 0.00000 0.00000 0.00000 0.00000       0   -0.13   -0.01  1.0000
  -2  16   3      45      16     0.00000 0.00000 0.00000 0.00000 0.00000 0.00000      45    0.03    0.00  1.0000
  -1  16   3      21      10     0.00000 0.00000 0.00000 0.00000 0.00000 0.00000      22   -0.08    0.01  1.0000
   0  16   3      14      10     0.00000 0.00000 0.00000 0.00000 0.00000 0.00000      10    0.50   -0.01  1.0000
  -8  17   3      33      14     0.00000 0.00000 0.00000 0.00000 0.00000 0.00000      31    0.15    0.00  1.0000
  -7  17   3       0      14     0.00000 0.00000 0.00000 0.00000 0.00000 0.00000       0   -0.11    0.00  1.0000
  -6  17   3       8       9     0.00000 0.00000 0.00000 0.00000 0.00000 0.00000       9    0.13    0.00  1.0000
  -5  17   3       0      15     0.00000 0.00000 0.00000 0.00000 0.00000 0.00000       0   -0.23    0.00  1.0000
  -4  17   3       0      12     0.00000 0.00000 0.00000 0.00000 0.00000 0.00000       0   -0.38   -0.01  1.0000
  -3  17   3       5       9     0.00000 0.00000 0.00000 0.00000 0.00000 0.00000       8    0.47    0.01  1.0000
  -2  17   3       0       9     0.00000 0.00000 0.00000 0.00000 0.00000 0.00000       0   -0.61    0.00  1.0000
  -1  17   3       9      19     0.00000 0.00000 0.00000 0.00000 0.00000 0.00000      10    0.13   -0.01  1.0000
  -8  18   3       0      19     0.00000 0.00000 0.00000 0.00000 0.00000 0.00000       0    0.07    0.00  1.0000
  -7  18   3       6      17     0.00000 0.00000 0.00000 0.00000 0.00000 0.00000       5    0.17    0.00  1.0000
  -6  18   3      18      14     0.00000 0.00000 0.00000 0.00000 0.00000 0.00000      14    0.51    0.00  1.0000
  -5  18   3      39      11     0.00000 0.00000 0.00000 0.00000 0.00000 0.00000      39    0.00    0.00  1.0000
  -4  18   3      10      14     0.00000 0.00000 0.00000 0.00000 0.00000 0.00000      11    0.15    0.00  1.0000
  -9  19   3       1      23     0.00000 0.00000 0.00000 0.00000 0.00000 0.00000       1   -0.02    0.00  1.0000
   0   0   4      18      58     0.00000 0.00000 0.00000 0.00000 0.00000 0.00000      24    1.80    0.01  1.0000
  -1   2   4     246      39     0.00000 0.00000 0.00000 0.00000 0.00000 0.00000     269    0.84    0.00  1.0000
   0   2   4      30      17     0.00000 0.00000 0.00000 0.00000 0.00000 0.00000      24   -1.01    0.00  1.0000
  -1   3   4     288      31     0.00000 0.00000 0.00000 0.00000 0.00000 0.00000     298    0.31    0.00  1.0000
   0   3   4    1556     123     0.00000 0.00000 0.00000 0.00000 0.00000 0.00000    1568    0.15    0.00  1.0000
  -2   4   4    4894     235     0.00000 0.00000 0.00000 0.00000 0.00000 0.00000    4817   -0.55    0.00  1.0000
  -1   4   4    1636      96     0.00000 0.00000 0.00000 0.00000 0.00000 0.00000    1642    0.07    0.00  1.0000
   0   4   4     486      81     0.00000 0.00000 0.00000 0.00000 0.00000 0.00000     486    0.00    0.00  1.0000
  -2   5   4    1500      92     0.00000 0.00000 0.00000 0.00000 0.00000 0.00000    1504    0.06    0.00  1.0000
  -1   5   4     851      80     0.00000 0.00000 0.00000 0.00000 0.00000 0.00000     850   -0.02    0.00  1.0000
   0   5   4     944     142     0.00000 0.00000 0.00000 0.00000 0.00000 0.00000     933   -0.18    0.00  1.0000
  -3   6   4     114      46     0.00000 0.00000 0.00000 0.00000 0.00000 0.00000     105   -0.46    0.00  1.0000
  -2   6   4      24      13     0.00000 0.00000 0.00000 0.00000 0.00000 0.00000      26    0.46    0.00  1.0000
  -1   6   4    1351     103     0.00000 0.00000 0.00000 0.00000 0.00000 0.00000    1347   -0.05    0.00  1.0000
   0   6   4    2341     224     0.00000 0.00000 0.00000 0.00000 0.00000 0.00000    2332   -0.09    0.00  1.0000
  -3   7   4      77      24     0.00000 0.00000 0.00000 0.00000 0.00000 0.00000      76   -0.04    0.00  1.0000
  -2   7   4     104      27     0.00000 0.00000 0.00000 0.00000 0.00000 0.00000      99   -0.29    0.00  1.0000
  -1   7   4    1579      73     0.00000 0.00000 0.00000 0.00000 0.00000 0.00000    1594    0.18    0.00  1.0000
   0   7   4    2782     125     0.00000 0.00000 0.00000 0.00000 0.00000 0.00000    2791    0.08    0.00  1.0000
  -4   8   4     880      60     0.00000 0.00000 0.00000 0.00000 0.00000 0.00000     889    0.16    0.00  1.0000
  -3   8   4     124      17     0.00000 0.00000 0.00000 0.00000 0.00000 0.00000     129    0.29    0.00  1.0000
  -2   8   4    1139      55     0.00000 0.00000 0.00000 0.00000 0.00000 0.00000    1138   -0.02    0.00  1.0000
  -1   8   4     839      51     0.00000 0.00000 0.00000 0.00000 0.00000 0.00000     844    0.08    0.00  1.0000
   0   8   4     551      73     0.00000 0.00000 0.00000 0.00000 0.00000 0.00000     542   -0.21    0.00  1.0000
  -4   9   4     622      39     0.00000 0.00000 0.00000 0.00000 0.00000 0.00000     605   -0.35    0.00  1.0000
  -3   9   4     309      31     0.00000 0.00000 0.00000 0.00000 0.00000 0.00000     299   -0.31    0.00  1.0000
  -2   9   4     575      35     0.00000 0.00000 0.00000 0.00000 0.00000 0.00000     577    0.04    0.00  1.0000
  -1   9   4     514      47     0.00000 0.00000 0.00000 0.00000 0.00000 0.00000     504   -0.22    0.00  1.0000
   0   9   4      39      24     0.00000 0.00000 0.00000 0.00000 0.00000 0.00000      40    0.21    0.01  1.0000
  -5  10   4    1487      99     0.00000 0.00000 0.00000 0.00000 0.00000 0.00000    1528    0.52    0.00  1.0000
  -4  10   4      98      17     0.00000 0.00000 0.00000 0.00000 0.00000 0.00000     104    0.34    0.00  1.0000
  -3  10   4     456      44     0.00000 0.00000 0.00000 0.00000 0.00000 0.00000     457    0.04    0.00  1.0000
  -2  10   4     175      31     0.00000 0.00000 0.00000 0.00000 0.00000 0.00000     183    0.32    0.00  1.0000
  -1  10   4      12      16     0.00000 0.00000 0.00000 0.00000 0.00000 0.00000      12    0.05    0.00  1.0000
   0  10   4      17      25     0.00000 0.00000 0.00000 0.00000 0.00000 0.00000      17    0.03   -0.01  1.0000
  -5  11   4      89      12     0.00000 0.00000 0.00000 0.00000 0.00000 0.00000      84   -0.32    0.00  1.0000
  -4  11   4     179      25     0.00000 0.00000 0.00000 0.00000 0.00000 0.00000     181    0.08    0.00  1.0000
  -3  11   4     194      29     0.00000 0.00000 0.00000 0.00000 0.00000 0.00000     189   -0.22    0.00  1.0000
  -2  11   4     147      24     0.00000 0.00000 0.00000 0.00000 0.00000 0.00000     142   -0.24    0.00  1.0000
  -1  11   4     576      53     0.00000 0.00000 0.00000 0.00000 0.00000 0.00000     573   -0.05    0.01  1.0000
   0  11   4     703      94     0.00000 0.00000 0.00000 0.00000 0.00000 0.00000     698   -0.09    0.00  1.0000
  -6  12   4      36      16     0.00000 0.00000 0.00000 0.00000 0.00000 0.00000      37    0.09    0.00  1.0000
  -5  12   4     290      31     0.00000 0.00000 0.00000 0.00000 0.00000 0.00000     298   -0.26    0.00  1.0000
  -4  12   4     213      27     0.00000 0.00000 0.00000 0.00000 0.00000 0.00000     212   -0.02    0.00  1.0000
  -3  12   4    1451      84     0.00000 0.00000 0.00000 0.00000 0.00000 0.00000    1467    0.21    0.00  1.0000
  -2  12   4    1009      67     0.00000 0.00000 0.00000 0.00000 0.00000 0.00000    1006   -0.04    0.00  1.0000
  -1  12   4     138      23     0.00000 0.00000 0.00000 0.00000 0.00000 0.00000     141    0.14   -0.01  1.0000
   0  12   4     114      27     0.00000 0.00000 0.00000 0.00000 0.00000 0.00000     116    0.11    0.01  1.0000
  -6  13   4      16      10     0.00000 0.00000 0.00000 0.00000 0.00000 0.00000      15    0.29    0.00  1.0000
  -5  13   4      97      17     0.00000 0.00000 0.00000 0.00000 0.00000 0.00000     100    0.16    0.00  1.0000
  -4  13   4     407      40     0.00000 0.00000 0.00000 0.00000 0.00000 0.00000     411    0.09    0.00  1.0000
  -3  13   4     450      39     0.00000 0.00000 0.00000 0.00000 0.00000 0.00000     447   -0.09    0.00  1.0000
  -2  13   4     389      42     0.00000 0.00000 0.00000 0.00000 0.00000 0.00000     393    0.11    0.00  1.0000
  -1  13   4     403      40     0.00000 0.00000 0.00000 0.00000 0.00000 0.00000     393   -0.24    0.00  1.0000
   0  13   4     128      29     0.00000 0.00000 0.00000 0.00000 0.00000 0.00000     128   -0.02    0.00  1.0000
  -7  14   4     505      59     0.00000 0.00000 0.00000 0.00000 0.00000 0.00000     514    0.20    0.00  1.0000
  -6  14   4      96      15     0.00000 0.00000 0.00000 0.00000 0.00000 0.00000      89   -0.40    0.00  1.0000
  -5  14   4     199      27     0.00000 0.00000 0.00000 0.00000 0.00000 0.00000     195   -0.15    0.00  1.0000
  -4  14   4     237      30     0.00000 0.00000 0.00000 0.00000 0.00000 0.00000     242    0.16    0.00  1.0000
  -3  14   4      82      17     0.00000 0.00000 0.00000 0.00000 0.00000 0.00000      76   -0.36    0.00  1.0000
  -2  14   4     170      21     0.00000 0.00000 0.00000 0.00000 0.00000 0.00000     177    0.31    0.00  1.0000
  -1  14   4     160      23     0.00000 0.00000 0.00000 0.00000 0.00000 0.00000     161    0.04    0.00  1.0000
   0  14   4     151      32     0.00000 0.00000 0.00000 0.00000 0.00000 0.00000     153    0.07    0.00  1.0000
  -7  15   4     413      37     0.00000 0.00000 0.00000 0.00000 0.00000 0.00000     407   -0.13    0.00  1.0000
  -6  15   4     288      35     0.00000 0.00000 0.00000 0.00000 0.00000 0.00000     295    0.23    0.00  1.0000
  -5  15   4     128      22     0.00000 0.00000 0.00000 0.00000 0.00000 0.00000     125   -0.13    0.00  1.0000
  -4  15   4      94      18     0.00000 0.00000 0.00000 0.00000 0.00000 0.00000      99    0.26    0.00  1.0000
  -3  15   4      21      10     0.00000 0.00000 0.00000 0.00000 0.00000 0.00000      20   -0.08    0.00  1.0000
  -2  15   4      44       8     0.00000 0.00000 0.00000 0.00000 0.00000 0.00000      42   -0.23    0.00  1.0000
  -1  15   4      23       9     0.00000 0.00000 0.00000 0.00000 0.00000 0.00000      23   -0.02    0.00  1.0000
   0  15   4      49      44     0.00000 0.00000 0.00000 0.00000 0.00000 0.00000      49    0.03    0.00  1.0000
  -8  16   4     637      72     0.00000 0.00000 0.00000 0.00000 0.00000 0.00000     643    0.13   -0.01  1.0000
  -7  16   4     215      44     0.00000 0.00000 0.00000 0.00000 0.00000 0.00000     216    0.02    0.01  1.0000
  -6  16   4     103      23     0.00000 0.00000 0.00000 0.00000 0.00000 0.00000     107    0.16    0.00  1.0000
  -5  16   4     168      51     0.00000 0.00000 0.00000 0.00000 0.00000 0.00000     159   -0.34    0.00  1.0000
  -4  16   4      42      18     0.00000 0.00000 0.00000 0.00000 0.00000 0.00000      44    0.15    0.00  1.0000
  -3  16   4       0      10     0.00000 0.00000 0.00000 0.00000 0.00000 0.00000       0    0.17    0.00  1.0000
  -2  16   4      10       9     0.00000 0.00000 0.00000 0.00000 0.00000 0.00000      10    0.08    0.00  1.0000
  -1  16   4      41      24     0.00000 0.00000 0.00000 0.00000 0.00000 0.00000      41   -0.01    0.00  1.0000
  -8  17   4      31      15     0.00000 0.00000 0.00000 0.00000 0.00000 0.00000      31   -0.09    0.00  1.0000
  -7  17   4     309      38     0.00000 0.00000 0.00000 0.00000 0.00000 0.00000     313    0.13    0.00  1.0000
  -6  17   4     293      38     0.00000 0.00000 0.00000 0.00000 0.00000 0.00000     295    0.04    0.00  1.0000
  -5  17   4      93      42     0.00000 0.00000 0.00000 0.00000 0.00000 0.00000      92   -0.09    0.00  1.0000
  -4  17   4      20      10     0.00000 0.00000 0.00000 0.00000 0.00000 0.00000      20   -0.05    0.00  1.0000
  -3  17   4      10       9     0.00000 0.00000 0.00000 0.00000 0.00000 0.00000       9   -0.24    0.00  1.0000
   0   1   5      63      38     0.00000 0.00000 0.00000 0.00000 0.00000 0.00000      85   -1.22    0.00  1.0000
   0   2   5     227      78     0.00000 0.00000 0.00000 0.00000 0.00000 0.00000     225    0.07    0.00  1.0000
  -1   3   5      29      23     0.00000 0.00000 0.00000 0.00000 0.00000 0.00000      29    0.03    0.00  1.0000
   0   3   5       6      14     0.00000 0.00000 0.00000 0.00000 0.00000 0.00000       4    0.32    0.01  1.0000
  -1   4   5     358      23     0.00000 0.00000 0.00000 0.00000 0.00000 0.00000     361   -0.09    0.00  1.0000
   0   4   5     283      31     0.00000 0.00000 0.00000 0.00000 0.00000 0.00000     298   -0.44    0.00  1.0000
  -2   5   5       3      10     0.00000 0.00000 0.00000 0.00000 0.00000 0.00000       4    0.45    0.01  1.0000
  -1   5   5     207      18     0.00000 0.00000 0.00000 0.00000 0.00000 0.00000     207    0.00    0.00  1.0000
   0   5   5     202      23     0.00000 0.00000 0.00000 0.00000 0.00000 0.00000     198    0.15    0.00  1.0000
  -2   6   5      29       8     0.00000 0.00000 0.00000 0.00000 0.00000 0.00000      31   -0.24   -0.01  1.0000
  -1   6   5     353      24     0.00000 0.00000 0.00000 0.00000 0.00000 0.00000     347    0.17    0.00  1.0000
   0   6   5     379      38     0.00000 0.00000 0.00000 0.00000 0.00000 0.00000     382   -0.07    0.00  1.0000
  -3   7   5       0       9     0.00000 0.00000 0.00000 0.00000 0.00000 0.00000       0   -0.06    0.00  1.0000
  -2   7   5     611      33     0.00000 0.00000 0.00000 0.00000 0.00000 0.00000     610    0.02    0.00  1.0000
  -1   7   5      96      10     0.00000 0.00000 0.00000 0.00000 0.00000 0.00000     101   -0.24    0.00  1.0000
   0   7   5      86      17     0.00000 0.00000 0.00000 0.00000 0.00000 0.00000      84    0.09   -0.01  1.0000
  -3   8   5       2      10     0.00000 0.00000 0.00000 0.00000 0.00000 0.00000       3    0.06    0.00  1.0000
  -2   8   5      69      13     0.00000 0.00000 0.00000 0.00000 0.00000 0.00000      64    0.30    0.00  1.0000
  -1   8   5       9       9     0.00000 0.00000 0.00000 0.00000 0.00000 0.00000      10   -0.02    0.00  1.0000
   0   8   5      30      19     0.00000 0.00000 0.00000 0.00000 0.00000 0.00000      34    0.39    0.01  1.0000
  -4   9   5     163      16     0.00000 0.00000 0.00000 0.00000 0.00000 0.00000     171    0.30    0.00  1.0000
  -3   9   5       2      12     0.00000 0.00000 0.00000 0.00000 0.00000 0.00000       4   -0.63    0.00  1.0000
  -2   9   5      94      16     0.00000 0.00000 0.00000 0.00000 0.00000 0.00000      97    0.15    0.00  1.0000
  -1   9   5       0      11     0.00000 0.00000 0.00000 0.00000 0.00000 0.00000       1   -0.39   -0.01  1.0000
   0   9   5      39      24     0.00000 0.00000 0.00000 0.00000 0.00000 0.00000      40   -0.11    0.00  1.0000
  -4  10   5       1      13     0.00000 0.00000 0.00000 0.00000 0.00000 0.00000       1    0.23    0.00  1.0000
  -3  10   5      19      17     0.00000 0.00000 0.00000 0.00000 0.00000 0.00000      17    0.17    0.00  1.0000
  -2  10   5       7      16     0.00000 0.00000 0.00000 0.00000 0.00000 0.00000       7    0.06    0.00  1.0000
  -1  10   5      27      10     0.00000 0.00000 0.00000 0.00000 0.00000 0.00000      29    0.17    0.01  1.0000
   0  10   5     280      62     0.00000 0.00000 0.00000 0.00000 0.00000 0.00000     286    0.16    0.00  1.0000
  -5  11   5      44      13     0.00000 0.00000 0.00000 0.00000 0.00000 0.00000      39   -0.38    0.00  1.0000
  -4  11   5     130      21     0.00000 0.00000 0.00000 0.00000 0.00000 0.00000     127    0.14   -0.01  1.0000
  -3  11   5      46      20     0.00000 0.00000 0.00000 0.00000 0.00000 0.00000      47   -0.09    0.00  1.0000
  -2  11   5     171      32     0.00000 0.00000 0.00000 0.00000 0.00000 0.00000     172    0.06    0.00  1.0000
  -1  11   5     426      45     0.00000 0.00000 0.00000 0.00000 0.00000 0.00000     421   -0.10    0.00  1.0000
   0  11   5     100      29     0.00000 0.00000 0.00000 0.00000 0.00000 0.00000      98   -0.08    0.00  1.0000
  -5  12   5       0      12     0.00000 0.00000 0.00000 0.00000 0.00000 0.00000       0   -0.11    0.00  1.0000
  -4  12   5      62      12     0.00000 0.00000 0.00000 0.00000 0.00000 0.00000      61   -0.06    0.00  1.0000
  -3  12   5      57      18     0.00000 0.00000 0.00000 0.00000 0.00000 0.00000      53   -0.23    0.00  1.0000
  -2  12   5       0      17     0.00000 0.00000 0.00000 0.00000 0.00000 0.00000       0    0.00    0.00  1.0000
  -1  12   5      11      11     0.00000 0.00000 0.00000 0.00000 0.00000 0.00000      11    0.00    0.00  1.0000
   0  12   5     141      31     0.00000 0.00000 0.00000 0.00000 0.00000 0.00000     138   -0.13    0.00  1.0000
  -6  13   5      41      14     0.00000 0.00000 0.00000 0.00000 0.00000 0.00000      40   -0.09   -0.01  1.0000
  -5  13   5       1      10     0.00000 0.00000 0.00000 0.00000 0.00000 0.00000       1    0.19    0.00  1.0000
  -4  13   5       1      12     0.00000 0.00000 0.00000 0.00000 0.00000 0.00000       2    0.36    0.01  1.0000
  -3  13   5       4      12     0.00000 0.00000 0.00000 0.00000 0.00000 0.00000       4   -0.18    0.00  1.0000
  -2  13   5       3      12     0.00000 0.00000 0.00000 0.00000 0.00000 0.00000       4    0.39    0.00  1.0000
  -1  13   5       0       7     0.00000 0.00000 0.00000 0.00000 0.00000 0.00000       0    0.00    0.00  1.0000
   0  13   5       4      12     0.00000 0.00000 0.00000 0.00000 0.00000 0.00000       4    0.00   -0.01  1.0000
  -6  14   5       9      12     0.00000 0.00000 0.00000 0.00000 0.00000 0.00000       9    0.04    0.01  1.0000
  -5  14   5      28      10     0.00000 0.00000 0.00000 0.00000 0.00000 0.00000      30   -0.20    0.00  1.0000
  -4  14   5      15      10     0.00000 0.00000 0.00000 0.00000 0.00000 0.00000      16   -0.04   -0.01  1.0000
  -3  14   5       1      10     0.00000 0.00000 0.00000 0.00000 0.00000 0.00000       1   -0.06    0.00  1.0000
  -2  14   5       4       9     0.00000 0.00000 0.00000 0.00000 0.00000 0.00000       5   -0.30    0.00  1.0000
  -1  14   5       1       7     0.00000 0.00000 0.00000 0.00000 0.00000 0.00000       1    0.19    0.00  1.0000
   0  14   5       0      10     0.00000 0.00000 0.00000 0.00000 0.00000 0.00000       0   -0.24    0.01  1.0000
  -7  15   5       1       9     0.00000 0.00000 0.00000 0.00000 0.00000 0.00000       1   -0.08    0.00  1.0000
  -6  15   5      37      29     0.00000 0.00000 0.00000 0.00000 0.00000 0.00000      37    0.00    0.00  1.0000
  -5  15   5      68      37     0.00000 0.00000 0.00000 0.00000 0.00000 0.00000      70   -0.14   -0.01  1.0000
  -4  15   5       3      11     0.00000 0.00000 0.00000 0.00000 0.00000 0.00000       3    0.16    0.00  1.0000
  -3  15   5       0      10     0.00000 0.00000 0.00000 0.00000 0.00000 0.00000       0    0.10    0.00  1.0000
  -2  15   5       3       9     0.00000 0.00000 0.00000 0.00000 0.00000 0.00000       3   -0.08   -0.01  1.0000
  -1  15   5       0      15     0.00000 0.00000 0.00000 0.00000 0.00000 0.00000       0    0.17    0.00  1.0000
  -7  16   5      29      12     0.00000 0.00000 0.00000 0.00000 0.00000 0.00000      27    0.17    0.00  1.0000
  -6  16   5      28      19     0.00000 0.00000 0.00000 0.00000 0.00000 0.00000      28    0.01    0.00  1.0000
  -5  16   5      15      28     0.00000 0.00000 0.00000 0.00000 0.00000 0.00000      13    0.20    0.01  1.0000
  -3  16   5       2       9     0.00000 0.00000 0.00000 0.00000 0.00000 0.00000       2    0.02    0.00  1.0000
   0   0   6      37      38     0.00000 0.00000 0.00000 0.00000 0.00000 0.00000      40   -2.21    0.00  1.0000
   0   1   6     438      42     0.00000 0.00000 0.00000 0.00000 0.00000 0.00000     466    0.67    0.00  1.0000
  -1   2   6    1165      55     0.00000 0.00000 0.00000 0.00000 0.00000 0.00000    1146   -0.28   -0.01  1.0000
   0   2   6    1793      75     0.00000 0.00000 0.00000 0.00000 0.00000 0.00000    1787   -0.08    0.00  1.0000
  -1   3   6    1031      45     0.00000 0.00000 0.00000 0.00000 0.00000 0.00000    1025   -0.08    0.00  1.0000
   0   3   6     927      52     0.00000 0.00000 0.00000 0.00000 0.00000 0.00000     932    0.08    0.00  1.0000
  -2   4   6      38      15     0.00000 0.00000 0.00000 0.00000 0.00000 0.00000      38    0.06    0.00  1.0000
  -1   4   6     269      22     0.00000 0.00000 0.00000 0.00000 0.00000 0.00000     276    0.22    0.00  1.0000
   0   4   6     620      52     0.00000 0.00000 0.00000 0.00000 0.00000 0.00000     608   -0.26    0.00  1.0000
  -2   5   6      39      11     0.00000 0.00000 0.00000 0.00000 0.00000 0.00000      40   -0.13    0.00  1.0000
  -1   5   6     210      15     0.00000 0.00000 0.00000 0.00000 0.00000 0.00000     208   -0.07    0.00  1.0000
   0   5   6     250      31     0.00000 0.00000 0.00000 0.00000 0.00000 0.00000     258    0.25    0.00  1.0000
  -3   6   6      53      14     0.00000 0.00000 0.00000 0.00000 0.00000 0.00000      46    0.59    0.00  1.0000
  -2   6   6     106      12     0.00000 0.00000 0.00000 0.00000 0.00000 0.00000     101   -0.27    0.00  1.0000
  -1   6   6      78      10     0.00000 0.00000 0.00000 0.00000 0.00000 0.00000      79    0.05    0.00  1.0000
   0   6   6      83      21     0.00000 0.00000 0.00000 0.00000 0.00000 0.00000      85    0.13    0.00  1.0000
  -3   7   6      47      10     0.00000 0.00000 0.00000 0.00000 0.00000 0.00000      45   -0.19   -0.01  1.0000
  -2   7   6     323      29     0.00000 0.00000 0.00000 0.00000 0.00000 0.00000     330    0.18    0.00  1.0000
  -1   7   6     150      15     0.00000 0.00000 0.00000 0.00000 0.00000 0.00000     143   -0.31    0.00  1.0000
   0   7   6      12      18     0.00000 0.00000 0.00000 0.00000 0.00000 0.00000      12    0.08    0.00  1.0000
  -4   8   6     113      17     0.00000 0.00000 0.00000 0.00000 0.00000 0.00000     111   -0.12    0.00  1.0000
  -3   8   6     537      42     0.00000 0.00000 0.00000 0.00000 0.00000 0.00000     543    0.14    0.00  1.0000
  -2   8   6     297      27     0.00000 0.00000 0.00000 0.00000 0.00000 0.00000     302    0.16    0.00  1.0000
  -1   8   6     104      13     0.00000 0.00000 0.00000 0.00000 0.00000 0.00000     102   -0.07   -0.01  1.0000
   0   8   6      37      26     0.00000 0.00000 0.00000 0.00000 0.00000 0.00000      40    0.38    0.01  1.0000
  -4   9   6     462      38     0.00000 0.00000 0.00000 0.00000 0.00000 0.00000     464    0.05    0.00  1.0000
  -3   9   6     703      49     0.00000 0.00000 0.00000 0.00000 0.00000 0.00000     698   -0.10    0.00  1.0000
  -2   9   6     288      27     0.00000 0.00000 0.00000 0.00000 0.00000 0.00000     281   -0.20    0.00  1.0000
  -1   9   6       9      12     0.00000 0.00000 0.00000 0.00000 0.00000 0.00000      10    0.05    0.00  1.0000
   0   9   6       3      17     0.00000 0.00000 0.00000 0.00000 0.00000 0.00000       2   -0.48    0.00  1.0000
  -5  10   6     228      36     0.00000 0.00000 0.00000 0.00000 0.00000 0.00000     233    0.18    0.01  1.0000
  -4  10   6     803      52     0.00000 0.00000 0.00000 0.00000 0.00000 0.00000     791   -0.22    0.00  1.0000
  -3  10   6     575      45     0.00000 0.00000 0.00000 0.00000 0.00000 0.00000     585    0.21    0.00  1.0000
  -2  10   6     145      27     0.00000 0.00000 0.00000 0.00000 0.00000 0.00000     150    0.21    0.00  1.0000
  -1  10   6      41      12     0.00000 0.00000 0.00000 0.00000 0.00000 0.00000      40   -0.10    0.00  1.0000
   0  10   6       2      21     0.00000 0.00000 0.00000 0.00000 0.00000 0.00000       3    0.37    0.00  1.0000
  -5  11   6     430      39     0.00000 0.00000 0.00000 0.00000 0.00000 0.00000     428   -0.03    0.00  1.0000
  -4  11   6     514      44     0.00000 0.00000 0.00000 0.00000 0.00000 0.00000     517    0.06    0.00  1.0000
  -3  11   6     375      42     0.00000 0.00000 0.00000 0.00000 0.00000 0.00000     365   -0.25    0.00  1.0000
  -2  11   6      87      13     0.00000 0.00000 0.00000 0.00000 0.00000 0.00000      87    0.01    0.00  1.0000
  -1  11   6       2      10     0.00000 0.00000 0.00000 0.00000 0.00000 0.00000       2    0.14    0.00  1.0000
   0  11   6       6      10     0.00000 0.00000 0.00000 0.00000 0.00000 0.00000       7   -0.39    0.00  1.0000
  -6  12   6     157      31     0.00000 0.00000 0.00000 0.00000 0.00000 0.00000     156   -0.04    0.00  1.0000
  -5  12   6     448      50     0.00000 0.00000 0.00000 0.00000 0.00000 0.00000     453    0.12    0.00  1.0000
  -4  12   6     266      29     0.00000 0.00000 0.00000 0.00000 0.00000 0.00000     270    0.14    0.01  1.0000
  -3  12   6      10      10     0.00000 0.00000 0.00000 0.00000 0.00000 0.00000      10   -0.23    0.00  1.0000
  -2  12   6      25      10     0.00000 0.00000 0.00000 0.00000 0.00000 0.00000      26    0.20    0.00  1.0000
  -1  12   6      66      13     0.00000 0.00000 0.00000 0.00000 0.00000 0.00000      64   -0.16    0.00  1.0000
   0  12   6      72      22     0.00000 0.00000 0.00000 0.00000 0.00000 0.00000      74    0.15    0.00  1.0000
  -6  13   6     105      23     0.00000 0.00000 0.00000 0.00000 0.00000 0.00000     103   -0.10    0.01  1.0000
  -5  13   6     126      18     0.00000 0.00000 0.00000 0.00000 0.00000 0.00000     125   -0.03   -0.01  1.0000
  -4  13   6      80      19     0.00000 0.00000 0.00000 0.00000 0.00000 0.00000      81    0.06    0.00  1.0000
  -3  13   6      51      11     0.00000 0.00000 0.00000 0.00000 0.00000 0.00000      52    0.07    0.00  1.0000
  -2  13   6      31      18     0.00000 0.00000 0.00000 0.00000 0.00000 0.00000      31   -0.08    0.00  1.0000
  -1  13   6      29      11     0.00000 0.00000 0.00000 0.00000 0.00000 0.00000      31    0.24    0.00  1.0000
   0  13   6      94      49     0.00000 0.00000 0.00000 0.00000 0.00000 0.00000      89   -0.25    0.01  1.0000
  -7  14   6       6      10     0.00000 0.00000 0.00000 0.00000 0.00000 0.00000       6   -0.13    0.00  1.0000
  -6  14   6      23       9     0.00000 0.00000 0.00000 0.00000 0.00000 0.00000      24    0.18    0.00  1.0000
  -5  14   6      63      30     0.00000 0.00000 0.00000 0.00000 0.00000 0.00000      60   -0.17    0.00  1.0000
  -4  14   6      30      12     0.00000 0.00000 0.00000 0.00000 0.00000 0.00000      31    0.15    0.00  1.0000
  -3  14   6      30      10     0.00000 0.00000 0.00000 0.00000 0.00000 0.00000      28   -0.16    0.00  1.0000
  -2  14   6      37      13     0.00000 0.00000 0.00000 0.00000 0.00000 0.00000      37    0.00    0.00  1.0000
  -7  15   6       2       6     0.00000 0.00000 0.00000 0.00000 0.00000 0.00000       2   -0.02    0.00  1.0000
  -6  15   6      12      10     0.00000 0.00000 0.00000 0.00000 0.00000 0.00000      12    0.10    0.00  1.0000
  -5  15   6      16      32     0.00000 0.00000 0.00000 0.00000 0.00000 0.00000      15   -0.16    0.00  1.0000
  -4  15   6      40      14     0.00000 0.00000 0.00000 0.00000 0.00000 0.00000      39   -0.07   -0.01  1.0000
   0   1   7      38      18     0.00000 0.00000 0.00000 0.00000 0.00000 0.00000      26    1.02    0.00  1.0000
   0   2   7      34      14     0.00000 0.00000 0.00000 0.00000 0.00000 0.00000      37   -0.23    0.00  1.0000
  -1   3   7      45       9     0.00000 0.00000 0.00000 0.00000 0.00000 0.00000      45    0.05    0.00  1.0000
   0   3   7      22      16     0.00000 0.00000 0.00000 0.00000 0.00000 0.00000      24   -0.13    0.00  1.0000
  -1   4   7      35      10     0.00000 0.00000 0.00000 0.00000 0.00000 0.00000      36   -0.04    0.00  1.0000
   0   4   7       0      15     0.00000 0.00000 0.00000 0.00000 0.00000 0.00000       0    0.45    0.00  1.0000
  -2   5   7       3      10     0.00000 0.00000 0.00000 0.00000 0.00000 0.00000       4   -0.23    0.00  1.0000
  -1   5   7      26      10     0.00000 0.00000 0.00000 0.00000 0.00000 0.00000      25   -0.08    0.00  1.0000
   0   5   7     110      17     0.00000 0.00000 0.00000 0.00000 0.00000 0.00000     108   -0.12    0.00  1.0000
  -2   6   7      17      10     0.00000 0.00000 0.00000 0.00000 0.00000 0.00000      19    0.23    0.00  1.0000
  -1   6   7     255      24     0.00000 0.00000 0.00000 0.00000 0.00000 0.00000     249   -0.17    0.00  1.0000
   0   6   7     511      51     0.00000 0.00000 0.00000 0.00000 0.00000 0.00000     521    0.21    0.00  1.0000
  -3   7   7       7      10     0.00000 0.00000 0.00000 0.00000 0.00000 0.00000       8    0.20    0.00  1.0000
  -2   7   7     129      13     0.00000 0.00000 0.00000 0.00000 0.00000 0.00000     128   -0.04    0.00  1.0000
  -1   7   7     143      18     0.00000 0.00000 0.00000 0.00000 0.00000 0.00000     142   -0.04    0.00  1.0000
   0   7   7      58      24     0.00000 0.00000 0.00000 0.00000 0.00000 0.00000      62    0.29    0.00  1.0000
  -3   8   7      26      10     0.00000 0.00000 0.00000 0.00000 0.00000 0.00000      27   -0.15    0.00  1.0000
  -2   8   7       5      10     0.00000 0.00000 0.00000 0.00000 0.00000 0.00000       5   -0.09    0.01  1.0000
  -1   8   7      14      10     0.00000 0.00000 0.00000 0.00000 0.00000 0.00000      14   -0.05   -0.01  1.0000
   0   8   7       1      16     0.00000 0.00000 0.00000 0.00000 0.00000 0.00000       2   -0.48    0.00  1.0000
  -4   9   7      71      10     0.00000 0.00000 0.00000 0.00000 0.00000 0.00000      75   -0.24   -0.01  1.0000
  -3   9   7     114      13     0.00000 0.00000 0.00000 0.00000 0.00000 0.00000     106    0.39    0.00  1.0000
  -2   9   7      35      10     0.00000 0.00000 0.00000 0.00000 0.00000 0.00000      34    0.11    0.00  1.0000
  -1   9   7       0      10     0.00000 0.00000 0.00000 0.00000 0.00000 0.00000       0    0.08    0.00  1.0000
   0   9   7      13      17     0.00000 0.00000 0.00000 0.00000 0.00000 0.00000      17    0.52    0.00  1.0000
  -4  10   7      13       9     0.00000 0.00000 0.00000 0.00000 0.00000 0.00000      15   -0.20    0.00  1.0000
  -3  10   7      23       9     0.00000 0.00000 0.00000 0.00000 0.00000 0.00000      24   -0.14   -0.01  1.0000
  -2  10   7       1       9     0.00000 0.00000 0.00000 0.00000 0.00000 0.00000       1   -0.09    0.00  1.0000
  -1  10   7      13       7     0.00000 0.00000 0.00000 0.00000 0.00000 0.00000      15   -0.19    0.00  1.0000
   0  10   7      16      31     0.00000 0.00000 0.00000 0.00000 0.00000 0.00000      18   -0.24    0.00  1.0000
  -5  11   7       4      10     0.00000 0.00000 0.00000 0.00000 0.00000 0.00000       4    0.22    0.00  1.0000
  -4  11   7       7       7     0.00000 0.00000 0.00000 0.00000 0.00000 0.00000       8    0.12    0.00  1.0000
  -3  11   7      21       8     0.00000 0.00000 0.00000 0.00000 0.00000 0.00000      20   -0.06    0.00  1.0000
  -2  11   7       6      10     0.00000 0.00000 0.00000 0.00000 0.00000 0.00000       5    0.20    0.01  1.0000
  -1  11   7      42      10     0.00000 0.00000 0.00000 0.00000 0.00000 0.00000      43   -0.05   -0.01  1.0000
   0  11   7      64      40     0.00000 0.00000 0.00000 0.00000 0.00000 0.00000      58    0.39    0.00  1.0000
  -5  12   7       8       6     0.00000 0.00000 0.00000 0.00000 0.00000 0.00000       7    0.14   -0.01  1.0000
  -4  12   7       0       8     0.00000 0.00000 0.00000 0.00000 0.00000 0.00000       1   -0.26    0.01  1.0000
  -3  12   7      19       6     0.00000 0.00000 0.00000 0.00000 0.00000 0.00000      21    0.24    0.00  1.0000
  -2  12   7       4       8     0.00000 0.00000 0.00000 0.00000 0.00000 0.00000       4   -0.12    0.00  1.0000
  -1  12   7       5       8     0.00000 0.00000 0.00000 0.00000 0.00000 0.00000       5   -0.08    0.00  1.0000
  -6  13   7      19      13     0.00000 0.00000 0.00000 0.00000 0.00000 0.00000      19    0.01    0.00  1.0000
  -5  13   7       7      12     0.00000 0.00000 0.00000 0.00000 0.00000 0.00000       8   -0.07    0.01  1.0000
  -4  13   7      22      11     0.00000 0.00000 0.00000 0.00000 0.00000 0.00000      21   -0.06    0.00  1.0000
   0   0   8    1048     215     0.00000 0.00000 0.00000 0.00000 0.00000 0.00000    1097    0.75   -0.01  1.0000
   0   1   8     225      33     0.00000 0.00000 0.00000 0.00000 0.00000 0.00000     214   -0.39    0.00  1.0000
  -1   2   8     121      24     0.00000 0.00000 0.00000 0.00000 0.00000 0.00000     137    0.78   -0.01  1.0000
   0   2   8      19      15     0.00000 0.00000 0.00000 0.00000 0.00000 0.00000      20   -0.42    0.00  1.0000
  -1   3   8      75      12     0.00000 0.00000 0.00000 0.00000 0.00000 0.00000      73   -0.13    0.00  1.0000
   0   3   8      23      15     0.00000 0.00000 0.00000 0.00000 0.00000 0.00000      23   -0.02    0.00  1.0000
  -2   4   8     504      38     0.00000 0.00000 0.00000 0.00000 0.00000 0.00000     508    0.08    0.01  1.0000
  -1   4   8     122      15     0.00000 0.00000 0.00000 0.00000 0.00000 0.00000     125    0.15    0.00  1.0000
   0   4   8      57      13     0.00000 0.00000 0.00000 0.00000 0.00000 0.00000      57    0.00   -0.01  1.0000
  -2   5   8     351      30     0.00000 0.00000 0.00000 0.00000 0.00000 0.00000     345   -0.15    0.00  1.0000
  -1   5   8      69      15     0.00000 0.00000 0.00000 0.00000 0.00000 0.00000      70    0.08    0.00  1.0000
   0   5   8      75      17     0.00000 0.00000 0.00000 0.00000 0.00000 0.00000      71   -0.29    0.00  1.0000
  -3   6   8     301      38     0.00000 0.00000 0.00000 0.00000 0.00000 0.00000     303    0.07    0.00  1.0000
  -2   6   8      87      13     0.00000 0.00000 0.00000 0.00000 0.00000 0.00000      86   -0.05    0.00  1.0000
  -1   6   8     103      15     0.00000 0.00000 0.00000 0.00000 0.00000 0.00000     105    0.11    0.01  1.0000
   0   6   8     116      28     0.00000 0.00000 0.00000 0.00000 0.00000 0.00000     117    0.04    0.00  1.0000
  -3   7   8     172      19     0.00000 0.00000 0.00000 0.00000 0.00000 0.00000     175    0.13    0.00  1.0000
  -2   7   8      34      11     0.00000 0.00000 0.00000 0.00000 0.00000 0.00000      33   -0.05    0.01  1.0000
  -1   7   8      49      16     0.00000 0.00000 0.00000 0.00000 0.00000 0.00000      51    0.10    0.00  1.0000
   0   7   8     191      31     0.00000 0.00000 0.00000 0.00000 0.00000 0.00000     185   -0.21    0.00  1.0000
  -4   8   8      72      18     0.00000 0.00000 0.00000 0.00000 0.00000 0.00000      68   -0.25    0.00  1.0000
  -3   8   8      35      10     0.00000 0.00000 0.00000 0.00000 0.00000 0.00000      34   -0.05    0.00  1.0000
  -2   8   8      62      10     0.00000 0.00000 0.00000 0.00000 0.00000 0.00000      59   -0.22    0.00  1.0000
  -1   8   8     106      18     0.00000 0.00000 0.00000 0.00000 0.00000 0.00000     109    0.16    0.00  1.0000
   0   8   8      93      24     0.00000 0.00000 0.00000 0.00000 0.00000 0.00000      91   -0.12    0.01  1.0000
  -4   9   8      63       8     0.00000 0.00000 0.00000 0.00000 0.00000 0.00000      65    0.10    0.00  1.0000
  -3   9   8      33      10     0.00000 0.00000 0.00000 0.00000 0.00000 0.00000      35    0.25    0.00  1.0000
  -2   9   8      36      19     0.00000 0.00000 0.00000 0.00000 0.00000 0.00000      37    0.06    0.00  1.0000
  -1   9   8      89      17     0.00000 0.00000 0.00000 0.00000 0.00000 0.00000      88   -0.06    0.01  1.0000
   0   9   8      24      36     0.00000 0.00000 0.00000 0.00000 0.00000 0.00000      26    0.27   -0.01  1.0000
  -4  10   8      25      13     0.00000 0.00000 0.00000 0.00000 0.00000 0.00000      24   -0.15    0.00  1.0000
  -3  10   8       7      39     0.00000 0.00000 0.00000 0.00000 0.00000 0.00000       7   -0.16    0.01  1.0000
   0   1   9      16       8     0.00000 0.00000 0.00000 0.00000 0.00000 0.00000      13   -0.33    0.00  1.0000
   0   2   9       3       8     0.00000 0.00000 0.00000 0.00000 0.00000 0.00000       4    0.38    0.01  1.0000
  -1   3   9       1       8     0.00000 0.00000 0.00000 0.00000 0.00000 0.00000       3   -0.39    0.00  1.0000
   0   3   9      34      15     0.00000 0.00000 0.00000 0.00000 0.00000 0.00000      32    0.16    0.00  1.0000
  -1   4   9       4       6     0.00000 0.00000 0.00000 0.00000 0.00000 0.00000       4    0.02    0.00  1.0000
   0   4   9      17      17     0.00000 0.00000 0.00000 0.00000 0.00000 0.00000      17    0.04    0.00  1.0000
  -2   5   9      23      17     0.00000 0.00000 0.00000 0.00000 0.00000 0.00000      25    0.28    0.00  1.0000
  -1   5   9       0       8     0.00000 0.00000 0.00000 0.00000 0.00000 0.00000       0   -0.16    0.00  1.0000
;
_shelx_hkl_checksum              93501
_shelx_fab_checksum              39452
_shelx_fab_file
;
   -1    2    0     -0.33      0.00
    0    2    0      2.63     -0.01
   -1    3    0     -0.51      0.00
    0    3    0      1.20      0.00
   -2    4    0      0.41      0.00
   -1    4    0     -1.23      0.00
    0    4    0      0.49      0.00
   -2    5    0      0.46      0.00
   -1    5    0     -0.35      0.00
    0    5    0      0.55      0.00
   -3    6    0     -0.64      0.00
   -2    6    0      0.83      0.00
   -1    6    0     -0.65      0.00
    0    6    0      0.22      0.00
   -3    7    0     -0.10      0.01
   -2    7    0     -0.48      0.00
   -1    7    0      0.58      0.00
    0    7    0     -0.27      0.00
   -4    8    0      0.08     -0.01
   -3    8    0      0.32      0.00
   -2    8    0      0.00      0.00
   -1    8    0     -0.18      0.00
    0    8    0     -0.21      0.00
   -4    9    0     -0.55      0.00
   -3    9    0      0.40      0.00
   -2    9    0     -0.43      0.00
   -1    9    0      0.32      0.00
    0    9    0      0.10      0.00
   -5   10    0      0.13     -0.01
   -4   10    0      0.62      0.00
   -3   10    0     -0.53      0.00
   -2   10    0      0.51      0.00
   -1   10    0     -0.25      0.00
    0   10    0      0.04      0.00
   -5   11    0     -0.08      0.00
   -4   11    0     -0.24      0.00
   -3   11    0      0.23      0.00
   -2   11    0      0.04      0.00
   -1   11    0     -0.22      0.00
    0   11    0      0.16      0.00
   -6   12    0      0.70      0.00
   -5   12    0     -0.74      0.00
   -4   12    0      0.02      0.00
   -3   12    0     -0.01      0.00
   -2   12    0     -0.60      0.00
   -1   12    0      0.67      0.00
    0   12    0     -0.56      0.01
   -6   13    0     -0.01      0.00
   -5   13    0      0.50      0.01
   -4   13    0      0.49      0.00
   -3   13    0     -0.10      0.00
   -2   13    0      0.48      0.00
   -1   13    0     -0.25      0.00
    0   13    0     -0.21     -0.01
   -7   14    0     -0.05      0.00
   -6   14    0      0.26      0.00
   -5   14    0     -0.64      0.00
   -4   14    0     -0.37      0.00
   -3   14    0     -0.02      0.00
   -2   14    0     -0.40      0.00
   -1   14    0      0.54      0.00
    0   14    0     -0.19      0.00
   -7   15    0     -0.48      0.01
   -6   15    0      0.07      0.00
   -5   15    0      0.19      0.00
   -4   15    0      0.46      0.00
   -3   15    0      0.19      0.00
   -2   15    0     -0.18      0.00
   -1   15    0      0.00      0.00
    0   15    0      0.32      0.00
   -8   16    0      0.14      0.00
   -7   16    0      0.58     -0.01
   -6   16    0      0.00      0.01
   -5   16    0     -0.56      0.00
   -4   16    0      0.09      0.00
   -3   16    0     -0.26      0.00
   -2   16    0      0.06      0.00
   -1   16    0     -0.31      0.00
    0   16    0     -0.06      0.00
   -8   17    0     -0.05      0.00
   -7   17    0     -0.29      0.01
   -6   17    0      0.34      0.00
   -5   17    0      0.20      0.00
   -4   17    0     -0.42      0.00
   -3   17    0      0.68      0.00
   -2   17    0     -0.03      0.00
   -1   17    0      0.16      0.00
    0   17    0     -0.10      0.00
   -9   18    0      0.16      0.00
   -8   18    0     -0.47      0.00
   -7   18    0      0.08      0.00
   -6   18    0     -0.19     -0.01
   -5   18    0      0.25      0.01
   -4   18    0      0.13      0.00
   -3   18    0     -0.83      0.00
   -2   18    0      0.48      0.00
   -9   19    0      0.33      0.00
   -8   19    0     -0.03      0.00
   -7   19    0      0.26      0.00
   -6   19    0     -0.34      0.01
   -5   19    0     -0.31      0.00
   -4   19    0      0.52      0.00
  -10   20    0     -0.38      0.00
   -9   20    0      0.24      0.00
   -8   20    0     -0.19      0.00
    0    1    1     -3.48      0.01
   -1    3    1     -0.42      0.00
   -1    4    1     -0.27      0.00
    0    4    1     -0.24      0.00
   -2    5    1      1.09      0.00
   -1    5    1     -0.67      0.00
    0    5    1      0.46      0.00
   -2    6    1      0.29      0.00
   -1    6    1     -0.03      0.00
    0    6    1      0.24      0.00
   -3    7    1      0.53      0.00
   -2    7    1     -0.61      0.00
   -1    7    1     -0.25      0.00
    0    7    1      0.59      0.00
   -3    8    1     -0.31      0.00
   -2    8    1      0.76      0.00
   -1    8    1     -0.34      0.01
    0    8    1     -0.08      0.00
   -4    9    1     -0.65      0.00
   -3    9    1     -0.08      0.00
   -2    9    1      0.31      0.00
   -1    9    1     -0.60      0.00
    0    9    1      0.60      0.00
   -4   10    1      0.35      0.00
   -3   10    1      0.07      0.00
   -2   10    1      0.02      0.00
   -1   10    1      0.12      0.00
    0   10    1      0.24      0.00
   -5   11    1      0.23      0.00
   -4   11    1     -0.27      0.00
   -3   11    1     -0.10      0.00
   -2   11    1     -0.09      0.00
   -1   11    1      0.17      0.00
    0   11    1     -1.00      0.01
   -5   12    1      0.30      0.00
   -4   12    1     -0.35      0.00
   -3   12    1      0.21      0.00
   -2   12    1     -0.12      0.00
   -1   12    1      0.04     -0.01
    0   12    1      0.57      0.00
   -6   13    1     -0.09      0.01
   -5   13    1     -0.30      0.00
   -4   13    1      0.52      0.00
   -3   13    1     -0.16      0.00
   -2   13    1      0.15     -0.01
   -1   13    1      0.26      0.01
    0   13    1     -0.84      0.00
   -6   14    1      0.13      0.00
   -5   14    1      0.42      0.00
   -4   14    1     -0.34      0.01
   -3   14    1     -0.02      0.00
   -2   14    1     -0.15      0.00
   -1   14    1      0.04      0.00
    0   14    1      0.65      0.00
   -7   15    1     -0.57     -0.01
   -6   15    1     -0.05      0.01
   -5   15    1     -0.60      0.00
   -4   15    1      0.25     -0.01
   -3   15    1      0.10      0.00
   -2   15    1     -0.20      0.00
   -1   15    1     -0.04     -0.01
    0   15    1     -0.63      0.01
   -7   16    1      0.24      0.00
   -6   16    1      0.43      0.00
   -5   16    1      0.13      0.00
   -4   16    1      0.04      0.00
   -3   16    1     -0.19      0.01
   -2   16    1      0.48      0.00
   -1   16    1      0.13      0.00
    0   16    1     -0.23      0.00
   -8   17    1      0.41      0.00
   -7   17    1     -0.33      0.00
   -6   17    1     -0.29      0.00
   -5   17    1      0.52      0.01
   -4   17    1     -0.43      0.00
   -3   17    1      0.00     -0.01
   -2   17    1     -0.15      0.01
   -1   17    1      0.38      0.00
    0   17    1     -0.35      0.00
   -8   18    1     -0.16      0.00
   -7   18    1      0.00      0.00
   -6   18    1     -0.15      0.00
   -5   18    1     -0.48      0.00
   -4   18    1      1.09      0.00
   -3   18    1     -0.79      0.01
   -2   18    1      0.08     -0.01
   -9   19    1      0.10      0.00
   -8   19    1      0.05      0.00
   -7   19    1      0.35      0.00
   -6   19    1     -0.16      0.01
   -5   19    1      0.03      0.00
   -4   19    1     -0.62      0.01
   -9   20    1      0.07      0.00
   -8   20    1     -0.04      0.00
    0    0    2     -4.86      0.02
    0    1    2      1.30      0.00
   -1    2    2     -1.08      0.00
    0    2    2      1.40      0.00
   -1    3    2     -0.55      0.00
    0    3    2     -0.93      0.00
   -2    4    2      1.68      0.00
   -1    4    2     -0.23      0.00
    0    4    2      0.87      0.00
   -2    5    2     -0.45      0.01
   -1    5    2      0.11      0.00
    0    5    2     -0.45      0.00
   -3    6    2      0.07      0.00
   -2    6    2     -0.07      0.00
   -1    6    2     -0.01      0.00
    0    6    2      0.52      0.00
   -3    7    2      0.03      0.00
   -2    7    2      0.37      0.00
   -1    7    2     -0.43      0.00
    0    7    2     -0.23      0.00
   -4    8    2      0.56     -0.01
   -3    8    2     -0.85      0.00
   -2    8    2      0.33      0.00
   -1    8    2      0.08      0.01
    0    8    2      0.25     -0.01
   -4    9    2      0.37      0.00
   -3    9    2      0.21      0.00
   -2    9    2     -0.03      0.00
   -1    9    2      0.07      0.00
    0    9    2     -0.19      0.00
   -5   10    2     -0.84      0.00
   -4   10    2     -0.12      0.00
   -3   10    2     -0.12     -0.01
   -2   10    2     -0.33      0.00
   -1   10    2      0.08      0.00
    0   10    2     -0.28      0.01
   -5   11    2      0.29      0.00
   -4   11    2      0.06      0.00
   -3   11    2      0.21      0.01
   -2   11    2      0.02      0.00
   -1   11    2      0.29     -0.01
    0   11    2      0.13      0.00
   -6   12    2      0.00      0.00
   -5   12    2      0.12      0.00
   -4   12    2      0.09      0.00
   -3   12    2     -0.14      0.00
   -2   12    2      0.19      0.00
   -1   12    2     -0.46      0.02
    0   12    2      0.06     -0.01
   -6   13    2     -0.21     -0.01
   -5   13    2     -0.15      0.00
   -4   13    2     -0.36      0.00
   -3   13    2      0.07      0.00
   -2   13    2     -0.09     -0.01
   -1   13    2      0.20      0.00
    0   13    2      0.39      0.00
   -7   14    2     -0.23      0.01
   -6   14    2      0.17      0.00
   -5   14    2      0.25      0.00
   -4   14    2      0.13      0.00
   -3   14    2      0.24      0.00
   -2   14    2     -0.15      0.00
   -1   14    2     -0.37      0.00
    0   14    2      0.11      0.01
   -7   15    2      0.39     -0.01
   -6   15    2     -0.08      0.00
   -5   15    2      0.05      0.00
   -4   15    2     -0.32      0.00
   -3   15    2     -0.11      0.00
   -2   15    2      0.55      0.00
   -1   15    2     -0.24      0.00
    0   15    2      0.08      0.00
   -8   16    2     -0.13      0.00
   -7   16    2     -0.49      0.00
   -6   16    2     -0.30      0.01
   -5   16    2      0.55      0.00
   -4   16    2     -0.35      0.00
   -3   16    2     -0.01      0.00
   -2   16    2     -0.08      0.01
   -1   16    2      0.06      0.00
    0   16    2      0.18      0.00
   -8   17    2      0.14      0.00
   -7   17    2      0.44      0.00
   -6   17    2     -0.17     -0.01
   -5   17    2      0.02      0.00
   -4   17    2      0.51      0.01
   -3   17    2     -0.29      0.00
   -2   17    2      0.13     -0.01
   -1   17    2     -0.21      0.00
    0   17    2      0.22      0.00
   -9   18    2     -0.24     -0.01
   -8   18    2      0.10      0.00
   -7   18    2     -0.11      0.00
   -6   18    2     -0.21      0.00
   -5   18    2     -0.23      0.00
   -4   18    2     -0.33     -0.01
   -3   18    2      0.41      0.01
   -2   18    2     -0.18      0.00
   -9   19    2      0.02      0.01
   -8   19    2      0.08      0.00
   -7   19    2      0.23      0.00
   -6   19    2      0.24      0.00
   -5   19    2      0.46      0.00
    0    2    3     -0.24      0.00
   -1    3    3     -0.46     -0.01
   -1    4    3     -0.02      0.00
    0    4    3      0.22      0.00
   -2    5    3      0.12      0.00
   -1    5    3     -0.35      0.00
    0    5    3      0.56     -0.01
   -2    6    3      0.25      0.00
   -1    6    3     -0.46      0.00
    0    6    3      0.47      0.00
   -3    7    3     -1.16      0.01
   -2    7    3      0.78      0.00
   -1    7    3     -0.28      0.00
    0    7    3     -0.43     -0.01
   -3    8    3      0.07      0.00
   -2    8    3      0.09      0.00
   -1    8    3     -0.10      0.01
    0    8    3      0.71      0.00
   -4    9    3      0.55      0.00
   -3    9    3     -0.13      0.00
   -2    9    3     -0.27      0.01
   -1    9    3      0.28     -0.01
    0    9    3     -0.57      0.00
   -4   10    3     -0.06      0.00
   -3   10    3     -0.34      0.01
   -2   10    3      0.39      0.00
   -1   10    3     -0.26      0.00
    0   10    3     -0.02      0.01
   -5   11    3     -0.13      0.00
   -4   11    3      0.27      0.00
   -3   11    3     -0.03      0.00
   -2   11    3      0.02      0.00
   -1   11    3      0.16      0.01
    0   11    3      0.18     -0.04
   -5   12    3     -0.23      0.01
   -4   12    3      0.32      0.00
   -3   12    3     -0.22      0.01
   -2   12    3     -0.08      0.00
   -1   12    3      0.15      0.01
    0   12    3     -0.40      0.01
   -6   13    3      0.51      0.00
   -5   13    3     -0.33     -0.01
   -4   13    3      0.02      0.00
   -3   13    3      0.27      0.00
   -2   13    3     -0.40     -0.01
   -1   13    3      0.23      0.00
    0   13    3     -0.06     -0.01
   -6   14    3     -0.07      0.00
   -5   14    3     -0.22      0.01
   -4   14    3      0.03      0.00
   -3   14    3     -0.11     -0.01
   -2   14    3      0.27      0.01
   -1   14    3     -0.14      0.00
    0   14    3      0.01      0.00
   -7   15    3     -0.02      0.00
   -6   15    3      0.39      0.00
   -5   15    3      0.18     -0.01
   -4   15    3      0.03      0.00
   -3   15    3      0.03      0.01
   -2   15    3     -0.27     -0.01
   -1   15    3      0.39      0.00
    0   15    3     -0.40      0.00
   -7   16    3     -0.23      0.01
   -6   16    3     -0.08     -0.01
   -5   16    3     -0.40      0.01
   -4   16    3      0.44      0.00
   -3   16    3     -0.13     -0.01
   -2   16    3      0.03      0.00
   -1   16    3     -0.08      0.01
    0   16    3      0.50     -0.01
   -8   17    3      0.15      0.00
   -7   17    3     -0.11      0.00
   -6   17    3      0.13      0.00
   -5   17    3     -0.23      0.00
   -4   17    3     -0.38     -0.01
   -3   17    3      0.47      0.01
   -2   17    3     -0.61      0.00
   -1   17    3      0.13     -0.01
   -8   18    3      0.07      0.00
   -7   18    3      0.17      0.00
   -6   18    3      0.51      0.00
   -5   18    3      0.00      0.00
   -4   18    3      0.15      0.00
   -9   19    3     -0.02      0.00
    0    0    4      1.80      0.01
   -1    2    4      0.84      0.00
    0    2    4     -1.01      0.00
   -1    3    4      0.31      0.00
    0    3    4      0.15      0.00
   -2    4    4     -0.55      0.00
   -1    4    4      0.07      0.00
    0    4    4      0.00      0.00
   -2    5    4      0.06      0.00
   -1    5    4     -0.02      0.00
    0    5    4     -0.18      0.00
   -3    6    4     -0.46      0.00
   -2    6    4      0.46      0.00
   -1    6    4     -0.05      0.00
    0    6    4     -0.09      0.00
   -3    7    4     -0.04      0.00
   -2    7    4     -0.29      0.00
   -1    7    4      0.18      0.00
    0    7    4      0.08      0.00
   -4    8    4      0.16      0.00
   -3    8    4      0.29      0.00
   -2    8    4     -0.02      0.00
   -1    8    4      0.08      0.00
    0    8    4     -0.21      0.00
   -4    9    4     -0.35      0.00
   -3    9    4     -0.31      0.00
   -2    9    4      0.04      0.00
   -1    9    4     -0.22      0.00
    0    9    4      0.21      0.01
   -5   10    4      0.52      0.00
   -4   10    4      0.34      0.00
   -3   10    4      0.04      0.00
   -2   10    4      0.32      0.00
   -1   10    4      0.05      0.00
    0   10    4      0.03     -0.01
   -5   11    4     -0.32      0.00
   -4   11    4      0.08      0.00
   -3   11    4     -0.22      0.00
   -2   11    4     -0.24      0.00
   -1   11    4     -0.05      0.01
    0   11    4     -0.09      0.00
   -6   12    4      0.09      0.00
   -5   12    4     -0.26      0.00
   -4   12    4     -0.02      0.00
   -3   12    4      0.21      0.00
   -2   12    4     -0.04      0.00
   -1   12    4      0.14     -0.01
    0   12    4      0.11      0.01
   -6   13    4      0.29      0.00
   -5   13    4      0.16      0.00
   -4   13    4      0.09      0.00
   -3   13    4     -0.09      0.00
   -2   13    4      0.11      0.00
   -1   13    4     -0.24      0.00
    0   13    4     -0.02      0.00
   -7   14    4      0.20      0.00
   -6   14    4     -0.40      0.00
   -5   14    4     -0.15      0.00
   -4   14    4      0.16      0.00
   -3   14    4     -0.36      0.00
   -2   14    4      0.31      0.00
   -1   14    4      0.04      0.00
    0   14    4      0.07      0.00
   -7   15    4     -0.13      0.00
   -6   15    4      0.23      0.00
   -5   15    4     -0.13      0.00
   -4   15    4      0.26      0.00
   -3   15    4     -0.08      0.00
   -2   15    4     -0.23      0.00
   -1   15    4     -0.02      0.00
    0   15    4      0.03      0.00
   -8   16    4      0.13     -0.01
   -7   16    4      0.02      0.01
   -6   16    4      0.16      0.00
   -5   16    4     -0.34      0.00
   -4   16    4      0.15      0.00
   -3   16    4      0.17      0.00
   -2   16    4      0.08      0.00
   -1   16    4     -0.01      0.00
   -8   17    4     -0.09      0.00
   -7   17    4      0.13      0.00
   -6   17    4      0.04      0.00
   -5   17    4     -0.09      0.00
   -4   17    4     -0.05      0.00
   -3   17    4     -0.24      0.00
    0    1    5     -1.22      0.00
    0    2    5      0.07      0.00
   -1    3    5      0.03      0.00
    0    3    5      0.32      0.01
   -1    4    5     -0.09      0.00
    0    4    5     -0.44      0.00
   -2    5    5      0.45      0.01
   -1    5    5      0.00      0.00
    0    5    5      0.15      0.00
   -2    6    5     -0.24     -0.01
   -1    6    5      0.17      0.00
    0    6    5     -0.07      0.00
   -3    7    5     -0.06      0.00
   -2    7    5      0.02      0.00
   -1    7    5     -0.24      0.00
    0    7    5      0.09     -0.01
   -3    8    5      0.06      0.00
   -2    8    5      0.30      0.00
   -1    8    5     -0.02      0.00
    0    8    5      0.39      0.01
   -4    9    5      0.30      0.00
   -3    9    5     -0.63      0.00
   -2    9    5      0.15      0.00
   -1    9    5     -0.39     -0.01
    0    9    5     -0.11      0.00
   -4   10    5      0.23      0.00
   -3   10    5      0.17      0.00
   -2   10    5      0.06      0.00
   -1   10    5      0.17      0.01
    0   10    5      0.16      0.00
   -5   11    5     -0.38      0.00
   -4   11    5      0.14     -0.01
   -3   11    5     -0.09      0.00
   -2   11    5      0.06      0.00
   -1   11    5     -0.10      0.00
    0   11    5     -0.08      0.00
   -5   12    5     -0.11      0.00
   -4   12    5     -0.06      0.00
   -3   12    5     -0.23      0.00
   -2   12    5      0.00      0.00
   -1   12    5      0.00      0.00
    0   12    5     -0.13      0.00
   -6   13    5     -0.09     -0.01
   -5   13    5      0.19      0.00
   -4   13    5      0.36      0.01
   -3   13    5     -0.18      0.00
   -2   13    5      0.39      0.00
   -1   13    5      0.00      0.00
    0   13    5      0.00     -0.01
   -6   14    5      0.04      0.01
   -5   14    5     -0.20      0.00
   -4   14    5     -0.04     -0.01
   -3   14    5     -0.06      0.00
   -2   14    5     -0.30      0.00
   -1   14    5      0.19      0.00
    0   14    5     -0.24      0.01
   -7   15    5     -0.08      0.00
   -6   15    5      0.00      0.00
   -5   15    5     -0.14     -0.01
   -4   15    5      0.16      0.00
   -3   15    5      0.10      0.00
   -2   15    5     -0.08     -0.01
   -1   15    5      0.17      0.00
   -7   16    5      0.17      0.00
   -6   16    5      0.01      0.00
   -5   16    5      0.20      0.01
   -3   16    5      0.02      0.00
    0    0    6     -2.21      0.00
    0    1    6      0.67      0.00
   -1    2    6     -0.28     -0.01
    0    2    6     -0.08      0.00
   -1    3    6     -0.08      0.00
    0    3    6      0.08      0.00
   -2    4    6      0.06      0.00
   -1    4    6      0.22      0.00
    0    4    6     -0.26      0.00
   -2    5    6     -0.13      0.00
   -1    5    6     -0.07      0.00
    0    5    6      0.25      0.00
   -3    6    6      0.59      0.00
   -2    6    6     -0.27      0.00
   -1    6    6      0.05      0.00
    0    6    6      0.13      0.00
   -3    7    6     -0.19     -0.01
   -2    7    6      0.18      0.00
   -1    7    6     -0.31      0.00
    0    7    6      0.08      0.00
   -4    8    6     -0.12      0.00
   -3    8    6      0.14      0.00
   -2    8    6      0.16      0.00
   -1    8    6     -0.07     -0.01
    0    8    6      0.38      0.01
   -4    9    6      0.05      0.00
   -3    9    6     -0.10      0.00
   -2    9    6     -0.20      0.00
   -1    9    6      0.05      0.00
    0    9    6     -0.48      0.00
   -5   10    6      0.18      0.01
   -4   10    6     -0.22      0.00
   -3   10    6      0.21      0.00
   -2   10    6      0.21      0.00
   -1   10    6     -0.10      0.00
    0   10    6      0.37      0.00
   -5   11    6     -0.03      0.00
   -4   11    6      0.06      0.00
   -3   11    6     -0.25      0.00
   -2   11    6      0.01      0.00
   -1   11    6      0.14      0.00
    0   11    6     -0.39      0.00
   -6   12    6     -0.04      0.00
   -5   12    6      0.12      0.00
   -4   12    6      0.14      0.01
   -3   12    6     -0.23      0.00
   -2   12    6      0.20      0.00
   -1   12    6     -0.16      0.00
    0   12    6      0.15      0.00
   -6   13    6     -0.10      0.01
   -5   13    6     -0.03     -0.01
   -4   13    6      0.06      0.00
   -3   13    6      0.07      0.00
   -2   13    6     -0.08      0.00
   -1   13    6      0.24      0.00
    0   13    6     -0.25      0.01
   -7   14    6     -0.13      0.00
   -6   14    6      0.18      0.00
   -5   14    6     -0.17      0.00
   -4   14    6      0.15      0.00
   -3   14    6     -0.16      0.00
   -2   14    6      0.00      0.00
   -7   15    6     -0.02      0.00
   -6   15    6      0.10      0.00
   -5   15    6     -0.16      0.00
   -4   15    6     -0.07     -0.01
    0    1    7      1.02      0.00
    0    2    7     -0.23      0.00
   -1    3    7      0.05      0.00
    0    3    7     -0.13      0.00
   -1    4    7     -0.04      0.00
    0    4    7      0.45      0.00
   -2    5    7     -0.23      0.00
   -1    5    7     -0.08      0.00
    0    5    7     -0.12      0.00
   -2    6    7      0.23      0.00
   -1    6    7     -0.17      0.00
    0    6    7      0.21      0.00
   -3    7    7      0.20      0.00
   -2    7    7     -0.04      0.00
   -1    7    7     -0.04      0.00
    0    7    7      0.29      0.00
   -3    8    7     -0.15      0.00
   -2    8    7     -0.09      0.01
   -1    8    7     -0.05     -0.01
    0    8    7     -0.48      0.00
   -4    9    7     -0.24     -0.01
   -3    9    7      0.39      0.00
   -2    9    7      0.11      0.00
   -1    9    7      0.08      0.00
    0    9    7      0.52      0.00
   -4   10    7     -0.20      0.00
   -3   10    7     -0.14     -0.01
   -2   10    7     -0.09      0.00
   -1   10    7     -0.19      0.00
    0   10    7     -0.24      0.00
   -5   11    7      0.22      0.00
   -4   11    7      0.12      0.00
   -3   11    7     -0.06      0.00
   -2   11    7      0.20      0.01
   -1   11    7     -0.05     -0.01
    0   11    7      0.39      0.00
   -5   12    7      0.14     -0.01
   -4   12    7     -0.26      0.01
   -3   12    7      0.24      0.00
   -2   12    7     -0.12      0.00
   -1   12    7     -0.08      0.00
   -6   13    7      0.01      0.00
   -5   13    7     -0.07      0.01
   -4   13    7     -0.06      0.00
    0    0    8      0.75     -0.01
    0    1    8     -0.39      0.00
   -1    2    8      0.78     -0.01
    0    2    8     -0.42      0.00
   -1    3    8     -0.13      0.00
    0    3    8     -0.02      0.00
   -2    4    8      0.08      0.01
   -1    4    8      0.15      0.00
    0    4    8      0.00     -0.01
   -2    5    8     -0.15      0.00
   -1    5    8      0.08      0.00
    0    5    8     -0.29      0.00
   -3    6    8      0.07      0.00
   -2    6    8     -0.05      0.00
   -1    6    8      0.11      0.01
    0    6    8      0.04      0.00
   -3    7    8      0.13      0.00
   -2    7    8     -0.05      0.01
   -1    7    8      0.10      0.00
    0    7    8     -0.21      0.00
   -4    8    8     -0.25      0.00
   -3    8    8     -0.05      0.00
   -2    8    8     -0.22      0.00
   -1    8    8      0.16      0.00
    0    8    8     -0.12      0.01
   -4    9    8      0.10      0.00
   -3    9    8      0.25      0.00
   -2    9    8      0.06      0.00
   -1    9    8     -0.06      0.01
    0    9    8      0.27     -0.01
   -4   10    8     -0.15      0.00
   -3   10    8     -0.16      0.01
    0    1    9     -0.33      0.00
    0    2    9      0.38      0.01
   -1    3    9     -0.39      0.00
    0    3    9      0.16      0.00
   -1    4    9      0.02      0.00
    0    4    9      0.04      0.00
   -2    5    9      0.28      0.00
   -1    5    9     -0.16      0.00
    0    0    0      0.00      0.00
# SQUEEZE RESULTS (APPEND TO CIF)
# Note: Data are Listed for all Voids in the P1 Unit Cell
# i.e. Centre of Gravity, Solvent Accessible Volume,
# Recovered number of Electrons in the Void and
# Details about the Squeezed Material
loop_
  _platon_squeeze_void_nr
  _platon_squeeze_void_average_x
  _platon_squeeze_void_average_y
  _platon_squeeze_void_average_z
  _platon_squeeze_void_volume
  _platon_squeeze_void_count_electrons
  _platon_squeeze_void_content
   1  0.017  0.499 -0.013       522        13 ' '
_platon_squeeze_details
TITL FJU-56a-H2OP 63/m m cguaR = 0.08
CELL   16.3020   16.3020    7.5069     90.00     90.00    120.00
SPGR P63/mmc
# Note: Atoms in Void as Cxxx and Qxxx all others
Q101 0.064 0.934 0.842 !       0.66 eA-3
Q102 1.000 1.000 0.750 !       0.65 eA-3
Q103 0.829 0.656 0.108 !       0.59 eA-3
;
_shelx_shelxl_version_number     2014/7
loop_
_space_group_symop_operation_xyz
'x, y, z'
'x-y, x, z+1/2'
'-y, x-y, z'
'-x, -y, z+1/2'
'-x+y, -x, z'
'y, -x+y, z+1/2'
'x-y, -y, -z'
'-x, -x+y, -z'
'y, x, -z'
'-y, -x, -z+1/2'
'-x+y, y, -z+1/2'
'x, x-y, -z+1/2'
'-x, -y, -z'
'-x+y, -x, -z-1/2'
'y, -x+y, -z'
'x, y, -z-1/2'
'x-y, x, -z'
'-y, x-y, -z-1/2'
'-x+y, y, z'
'x, x-y, z'
'-y, -x, z'
'y, x, z-1/2'
'x-y, -y, z-1/2'
'-x, -x+y, z-1/2'
loop_
_atom_site_label
_atom_site_type_symbol
_atom_site_fract_x
_atom_site_fract_y
_atom_site_fract_z
_atom_site_U_iso_or_equiv
_atom_site_adp_type
_atom_site_occupancy
_atom_site_site_symmetry_order
_atom_site_calc_flag
_atom_site_refinement_flags_posn
_atom_site_refinement_flags_adp
_atom_site_refinement_flags_occupancy
Co1 Co 0.0000 0.0000 0.5000 0.0247(7) Uani 1 12 d S T P
N1 N -0.06169(17) 0.06169(17) 0.6632(6) 0.0290(12) Uani 1 2 d S T P
C1 C -0.1323(3) 0.1323(3) 0.7500 0.0316(19) Uani 1 4 d S T P
C2 C -0.1844(3) 0.1844(3) 0.7500 0.0319(18) Uani 1 4 d S T P
N2 N -0.10561(19) 0.10561(19) 0.6030(7) 0.0369(13) Uani 1 2 d S T P
C5 C -0.2832(3) 0.2832(3) 0.7500 0.038(2) Uani 1 4 d S T P
N3 N -0.3333 0.3333 0.7500 0.048(4) Uani 1 12 d S T P
C4 C -0.3118(8) 0.2063(8) 0.6447(17) 0.055(3) Uani 0.5 1 d . . .
H4 H -0.3686 0.1835 0.5755 0.066 Uiso 0.5 1 d R . .
C3 C -0.2602(9) 0.1574(9) 0.6401(17) 0.058(3) Uani 0.5 1 d . . .
H3 H -0.2783 0.1058 0.5585 0.069 Uiso 0.5 1 d R . .
O1 O -0.1457(3) 0.1457(3) 0.2500 0.091(4) Uani 1 4 d S T P
H1 H -0.1303 0.1303 0.3435 0.109 Uiso 1 2 d RS T P
loop_
_atom_site_aniso_label
_atom_site_aniso_U_11
_atom_site_aniso_U_22
_atom_site_aniso_U_33
_atom_site_aniso_U_23
_atom_site_aniso_U_13
_atom_site_aniso_U_12
Co1 0.0224(8) 0.0224(8) 0.0293(10) 0.000 0.000 0.0112(4)
N1 0.033(2) 0.033(2) 0.032(2) 0.0006(9) -0.0006(9) 0.024(2)
C1 0.035(4) 0.035(4) 0.034(4) 0.000 0.000 0.024(4)
C2 0.029(3) 0.029(3) 0.042(4) 0.000 0.000 0.018(4)
N2 0.041(3) 0.041(3) 0.035(2) 0.0006(10) -0.0006(10) 0.027(3)
C5 0.025(3) 0.025(3) 0.069(6) 0.000 0.000 0.017(4)
N3 0.020(4) 0.020(4) 0.104(12) 0.000 0.000 0.010(2)
C4 0.041(6) 0.050(7) 0.088(8) -0.023(5) -0.027(6) 0.034(6)
C3 0.055(7) 0.063(8) 0.077(8) -0.029(6) -0.023(6) 0.047(7)
O1 0.148(9) 0.148(9) 0.042(4) 0.000 0.000 0.123(10)
loop_
_atom_type_symbol
_atom_type_description
_atom_type_scat_dispersion_real
_atom_type_scat_dispersion_imag
_atom_type_scat_source
C C 0.0181 0.0091 'International Tables Vol C Tables 4.2.6.8 and 6.1.1.4'
H H 0.0000 0.0000 'International Tables Vol C Tables 4.2.6.8 and 6.1.1.4'
Co Co -2.3653 3.6143 'International Tables Vol C Tables 4.2.6.8 and 6.1.1.4'
N N 0.0311 0.0180 'International Tables Vol C Tables 4.2.6.8 and 6.1.1.4'
O O 0.0492 0.0322 'International Tables Vol C Tables 4.2.6.8 and 6.1.1.4'
loop_
_geom_angle_atom_site_label_1
_geom_angle_atom_site_label_2
_geom_angle_atom_site_label_3
_geom_angle
_geom_angle_site_symmetry_1
_geom_angle_site_symmetry_3
N1 Co1 N1 89.80(17) . 17_556
N1 Co1 N1 90.20(17) 17_556 13_556
N1 Co1 N1 89.80(17) . 15_556
N1 Co1 N1 89.80(17) 5 15_556
N1 Co1 N1 89.80(17) 5 13_556
N1 Co1 N1 89.80(17) 13_556 3
N1 Co1 N1 180.0 . 13_556
N1 Co1 N1 90.20(17) . 5
N1 Co1 N1 90.20(17) 5 3
N1 Co1 N1 89.80(17) 17_556 3
N1 Co1 N1 180.0(2) 15_556 3
N1 Co1 N1 180.0(2) 17_556 5
N1 Co1 N1 90.20(17) 13_556 15_556
N1 Co1 N1 90.20(17) 17_556 15_556
N1 Co1 N1 90.20(17) . 3
N1 N1 Co1 125.13(12) 16_557 .
N1 N1 N2 110.0(3) 16_557 .
N2 N1 Co1 124.8(4) . .
N2 C1 C2 124.3(4) . .
N2 C1 C2 124.3(4) 16_557 .
N2 C1 N2 111.3(8) . 16_557
C3 C2 C1 120.4(6) 21 .
C3 C2 C1 120.4(6) 16_557 .
C3 C2 C1 120.4(6) . .
C3 C2 C1 120.4(6) 10_556 .
C3 C2 C3 75.9(13) 10_556 16_557
C3 C2 C3 74.5(12) . 16_557
C3 C2 C3 119.3(12) . 10_556
C3 C2 C3 75.9(13) . 21
C3 C2 C3 119.3(12) 21 16_557
C3 C2 C3 74.5(12) 10_556 21
N1 N2 C1 104.3(5) . .
C4 C5 N3 120.3(6) 16_557 .
C4 C5 N3 120.3(6) 21 .
C4 C5 N3 120.3(6) . .
C4 C5 N3 120.3(6) 10_556 .
C4 C5 C4 71.5(11) 16_557 .
C4 C5 C4 71.5(11) 10_556 21
C4 C5 C4 78.9(12) 10_556 16_557
C4 C5 C4 119.4(11) 21 16_557
C4 C5 C4 119.4(11) 10_556 .
C4 C5 C4 78.9(12) 21 .
C5 N3 C5 120.0 . 14_457
C5 N3 C5 120.000(2) . 3_565
C5 N3 C5 120.000(1) 14_457 3_565
C5 C4 C4 50.5(6) . 21
C5 C4 C4 54.2(6) . 16_557
C5 C4 H4 119.6 . .
C5 C4 C3 120.6(9) . .
C4 C4 C4 90.000(1) 16_557 21
C4 C4 H4 122.7 16_557 .
C4 C4 H4 132.5 21 .
C3 C4 C4 89.1(7) . 21
C3 C4 C4 91.4(7) . 16_557
C3 C4 H4 119.8 . .
C2 C3 C4 120.0(9) . .
C2 C3 C3 52.1(6) . 21
C2 C3 C3 52.7(6) . 16_557
C2 C3 H3 120.0 . .
C4 C3 C3 90.9(7) . 21
C4 C3 C3 88.6(7) . 16_557
C4 C3 H3 120.0 . .
C3 C3 C3 90.000(2) 16_557 21
C3 C3 H3 126.3 21 .
C3 C3 H3 129.6 16_557 .
loop_
_geom_bond_atom_site_label_1
_geom_bond_atom_site_label_2
_geom_bond_distance
_geom_bond_site_symmetry_2
Co1 N1 2.130(5) .
Co1 N1 2.130(5) 3
Co1 N1 2.130(5) 17_556
Co1 N1 2.130(5) 15_556
Co1 N1 2.130(5) 5
Co1 N1 2.130(5) 13_556
N1 N1 1.303(9) 16_557
N1 N2 1.320(7) .
C1 C2 1.471(12) .
C1 N2 1.337(7) 16_557
C1 N2 1.337(7) .
C2 C3 1.363(12) 10_556
C2 C3 1.363(12) .
C2 C3 1.363(12) 21
C2 C3 1.363(12) 16_557
C5 N3 1.415(9) .
C5 C4 1.353(11) 10_556
C5 C4 1.353(11) .
C5 C4 1.353(11) 21
C5 C4 1.353(11) 16_557
N3 C5 1.415(9) 3_565
N3 C5 1.415(9) 14_457
C4 C4 1.72(2) 21
C4 C4 1.58(3) 16_557
C4 H4 0.9601 .
C4 C3 1.419(15) .
C3 C3 1.68(3) 21
C3 C3 1.65(3) 16_557
C3 H3 0.9600 .
O1 H1 0.8250 .
loop_
_geom_torsion_atom_site_label_1
_geom_torsion_atom_site_label_2
_geom_torsion_atom_site_label_3
_geom_torsion_atom_site_label_4
_geom_torsion
_geom_torsion_site_symmetry_1
_geom_torsion_site_symmetry_4
Co1 N1 N2 C1 180.000(1) . .
N1 N1 N2 C1 0.000(2) 16_557 .
C1 C2 C3 C4 178.1(9) . .
C1 C2 C3 C3 -117.2(7) . 21
C1 C2 C3 C3 116.5(7) . 16_557
C2 C1 N2 N1 180.000(1) . .
N2 C1 C2 C3 45.4(7) . .
N2 C1 C2 C3 -45.4(7) 16_557 16_557
N2 C1 C2 C3 134.6(7) . 16_557
N2 C1 C2 C3 -45.4(7) . 21
N2 C1 C2 C3 45.4(7) 16_557 10_556
N2 C1 C2 C3 -134.6(7) 16_557 .
N2 C1 C2 C3 134.6(7) 16_557 21
N2 C1 C2 C3 -134.6(7) . 10_556
N2 C1 N2 N1 0.000(2) 16_557 .
C5 C4 C3 C2 3.9(18) . .
C5 C4 C3 C3 -41.6(10) . 21
C5 C4 C3 C3 48.4(10) . 16_557
N3 C5 C4 C4 118.8(7) . 21
N3 C5 C4 C4 -114.9(6) . 16_557
N3 C5 C4 C3 178.1(9) . .
C4 C5 N3 C5 42.6(7) 10_556 3_565
C4 C5 N3 C5 137.4(7) 21 14_457
C4 C5 N3 C5 137.4(7) 16_557 3_565
C4 C5 N3 C5 -137.4(7) . 3_565
C4 C5 N3 C5 -42.6(7) 16_557 14_457
C4 C5 N3 C5 42.6(7) . 14_457
C4 C5 N3 C5 -137.4(7) 10_556 14_457
C4 C5 N3 C5 -42.6(7) 21 3_565
C4 C5 C4 C4 -126.4(8) 16_557 21
C4 C5 C4 C4 -61.2(7) 10_556 21
C4 C5 C4 C4 65.1(6) 10_556 16_557
C4 C5 C4 C4 126.4(8) 21 16_557
C4 C5 C4 C3 -1.9(9) 10_556 .
C4 C5 C4 C3 59.4(14) 21 .
C4 C5 C4 C3 -67.0(14) 16_557 .
C4 C4 C3 C2 -44.5(11) 16_557 .
C4 C4 C3 C2 45.5(11) 21 .
C4 C4 C3 C3 0.000(0) 21 21
C4 C4 C3 C3 -89.98(3) 16_557 21
C4 C4 C3 C3 0.001(5) 16_557 16_557
C4 C4 C3 C3 89.98(2) 21 16_557
C3 C2 C3 C4 -64.7(14) 21 .
C3 C2 C3 C4 61.7(15) 16_557 .
C3 C2 C3 C4 -1.9(9) 10_556 .
C3 C2 C3 C3 126.4(8) 16_557 21
C3 C2 C3 C3 62.8(7) 10_556 21
C3 C2 C3 C3 -126.4(8) 21 16_557
C3 C2 C3 C3 -63.5(7) 10_556 16_557
